0
                    3D
 Structure written by MMmdl.
161170  0  0  1  0            999 V2000
  -30.5754  -14.9343   20.4938 C   0  0  0  0  0  0
  -30.4443  -12.5892   19.5063 C   0  0  0  0  0  0
  -29.5245  -12.5508   18.2617 C   0  0  0  0  0  0
  -28.0564  -12.3205   18.6664 C   0  0  0  0  0  0
  -27.6324  -13.2294   19.8450 C   0  0  2  0  0  0
  -28.6741  -13.2219   20.9817 C   0  0  0  0  0  0
  -25.2422  -13.8039   20.5699 C   0  0  0  0  0  0
  -24.1731  -13.0314   20.9217 C   0  0  0  0  0  0
  -24.6351  -11.6814   20.8751 C   0  0  0  0  0  0
  -23.9038  -10.4214   21.0433 C   0  0  0  0  0  0
  -24.3590   -9.4135   21.9211 C   0  0  0  0  0  0
  -23.6256   -8.2173   22.0769 C   0  0  0  0  0  0
  -22.4236   -8.0227   21.3559 C   0  0  0  0  0  0
  -21.9878   -9.0199   20.4658 C   0  0  0  0  0  0
  -22.7220  -10.2066   20.3070 C   0  0  0  0  0  0
  -21.6819   -6.0691   22.5275 C   0  0  0  0  0  0
  -21.3996   -6.5596   23.8205 C   0  0  0  0  0  0
  -21.3681   -5.6756   24.9167 C   0  0  0  0  0  0
  -21.6055   -4.3021   24.7211 C   0  0  0  0  0  0
  -21.8814   -3.8113   23.4335 C   0  0  0  0  0  0
  -21.9182   -4.6935   22.3394 C   0  0  0  0  0  0
  -22.7779  -13.5149   21.1868 C   0  0  0  0  0  0
  -22.1654   -4.2119   21.0975 F   0  0  0  0  0  0
  -21.5650   -3.4512   25.7736 F   0  0  0  0  0  0
  -29.9626  -13.6723   20.4185 N   0  0  0  0  0  0
  -26.2873  -12.9297   20.3254 N   0  0  0  0  0  0
  -25.9280  -11.6435   20.5713 N   0  0  0  0  0  0
  -22.0405  -12.8194   22.0438 N   0  0  0  0  0  0
  -25.3978  -15.1727   20.4132 N   0  0  0  0  0  0
  -31.7240  -15.0207   20.0424 O   0  0  0  0  0  0
  -21.6591   -6.8838   21.4240 O   0  0  0  0  0  0
  -22.3484  -14.5470   20.6711 O   0  0  0  0  0  0
  -24.6411  -31.8442   23.1897 C   0  0  0  0  0  0
  -25.9189  -32.4702   23.8276 C   0  0  1  0  0  0
  -27.2381  -27.1677   20.1484 C   0  0  0  0  0  0
  -25.5944  -33.8509   24.2207 N   0  0  0  0  0  0
  -23.4455  -30.4616   21.5338 C   0  0  2  0  0  0
  -24.8986  -28.8883   20.1162 C   0  0  0  0  0  0
  -22.7550  -29.4546   22.4873 C   0  0  0  0  0  0
  -18.0297  -28.1391   22.8478 C   0  0  0  0  0  0
  -24.1494  -36.7253   23.2642 C   0  0  0  0  0  0
  -25.9985  -30.7281   21.3840 C   0  0  0  0  0  0
  -26.0735  -29.3409   20.7288 C   0  0  0  0  0  0
  -27.2438  -28.4973   20.7258 C   0  0  0  0  0  0
  -26.0318  -26.8031   19.5083 C   0  0  0  0  0  0
  -24.8881  -27.6315   19.4931 C   0  0  0  0  0  0
  -23.6732  -29.7874   20.1548 C   0  0  0  0  0  0
  -25.4120  -36.3037   24.0321 C   0  0  1  0  0  0
  -20.5905  -28.3721   23.1246 C   0  0  2  0  0  0
  -20.6787  -26.9428   22.5416 C   0  0  0  0  0  0
  -19.5766  -26.6379   21.5216 C   0  0  0  0  0  0
  -18.1937  -26.7927   22.1618 C   0  0  0  0  0  0
  -19.1552  -28.8872   23.2850 C   0  0  0  0  0  0
  -18.9469  -30.1463   23.8876 C   0  0  0  0  0  0
  -17.6471  -30.6591   24.0557 C   0  0  0  0  0  0
  -25.9062  -34.9413   23.5071 C   0  0  0  0  0  0
  -16.5361  -29.9087   23.6338 C   0  0  0  0  0  0
  -16.7282  -28.6506   23.0358 C   0  0  0  0  0  0
  -26.4521  -31.6561   25.0709 C   0  0  0  0  0  0
  -25.3716  -31.3753   26.1417 C   0  0  0  0  0  0
  -27.0371  -30.2957   24.6269 C   0  0  0  0  0  0
  -27.6052  -32.4322   25.7494 C   0  0  0  0  0  0
  -27.5577  -37.1776   24.8450 C   0  0  0  0  0  0
  -21.4243  -29.3041   22.3615 N   0  0  0  0  0  0
  -26.4274  -37.3756   23.9415 N   0  0  0  0  0  0
  -24.7144  -31.0319   22.0913 N   0  0  0  0  0  0
  -23.4201  -28.8090   23.3013 O   0  0  0  0  0  0
  -28.3212  -26.2242   20.2002 O   0  0  0  0  0  0
  -26.5646  -34.8902   22.4649 O   0  0  0  0  0  0
  -23.5534  -32.1308   23.7126 O   0  0  0  0  0  0
  -30.5230  -20.0106   21.0400 C   0  0  0  0  0  0
  -30.7653  -18.5753   21.0700 C   0  0  0  0  0  0
  -28.4515  -19.6378   19.9845 C   0  0  0  0  0  0
  -28.6977  -18.2056   19.9971 C   0  0  0  0  0  0
  -29.3205  -20.6284   20.5437 C   0  0  0  0  0  0
  -29.8516  -17.5719   20.5892 C   0  0  0  0  0  0
  -28.6089  -22.1843   22.2163 C   0  0  0  0  0  0
  -29.2109  -23.4544   22.8008 C   0  0  0  0  0  0
  -30.0293  -23.9945   21.6327 C   0  0  0  0  0  0
  -29.2420  -23.4984   20.4186 C   0  0  2  0  0  0
  -27.5920  -17.3533   19.4303 C   0  0  0  0  0  0
  -29.5266  -15.9681   22.4241 C   0  0  0  0  0  0
  -28.0841  -24.6934   20.1701 C   0  0  0  0  0  0
  -28.8546  -22.0475   20.8967 N   0  0  0  0  0  0
  -29.9041  -16.0896   21.0075 N   0  0  0  0  0  0
  -27.9990  -21.3761   22.9242 O   0  0  0  0  0  0
  -31.4786  -12.7434   19.1967 H   0  0  0  0  0  0
  -30.4375  -11.6265   20.0194 H   0  0  0  0  0  0
  -29.8485  -11.7707   17.5724 H   0  0  0  0  0  0
  -29.6078  -13.4929   17.7189 H   0  0  0  0  0  0
  -27.9487  -11.2739   18.9531 H   0  0  0  0  0  0
  -27.3985  -12.4708   17.8095 H   0  0  0  0  0  0
  -27.6018  -14.2348   19.4368 H   0  0  0  0  0  0
  -28.7707  -12.2241   21.4134 H   0  0  0  0  0  0
  -28.3205  -13.8525   21.7900 H   0  0  0  0  0  0
  -25.2725   -9.5587   22.4793 H   0  0  0  0  0  0
  -23.9953   -7.4543   22.7460 H   0  0  0  0  0  0
  -21.0821   -8.8701   19.8960 H   0  0  0  0  0  0
  -22.3687  -10.9592   19.6167 H   0  0  0  0  0  0
  -21.1974   -7.6096   23.9694 H   0  0  0  0  0  0
  -21.1535   -6.0488   25.9070 H   0  0  0  0  0  0
  -22.0590   -2.7577   23.2820 H   0  0  0  0  0  0
  -22.3994  -11.9846   22.4823 H   0  0  0  0  0  0
  -21.1057  -13.1290   22.2663 H   0  0  0  0  0  0
  -24.6179  -15.8151   20.5094 H   0  0  0  0  0  0
  -26.2489  -15.6166   20.1006 H   0  0  0  0  0  0
  -26.7255  -32.5327   23.1005 H   0  0  0  0  0  0
  -25.0088  -33.9626   25.0354 H   0  0  0  0  0  0
  -22.7483  -31.2866   21.3767 H   0  0  0  0  0  0
  -23.3773  -35.9563   23.3270 H   0  0  0  0  0  0
  -24.3598  -36.8921   22.2064 H   0  0  0  0  0  0
  -23.7229  -37.6432   23.6700 H   0  0  0  0  0  0
  -26.1473  -31.4833   20.6110 H   0  0  0  0  0  0
  -26.8705  -30.7819   22.0243 H   0  0  0  0  0  0
  -28.1410  -28.8398   21.2214 H   0  0  0  0  0  0
  -25.9444  -25.8416   19.0252 H   0  0  0  0  0  0
  -23.9903  -27.2796   19.0047 H   0  0  0  0  0  0
  -23.8107  -30.5582   19.3952 H   0  0  0  0  0  0
  -22.7910  -29.2244   19.8468 H   0  0  0  0  0  0
  -25.1305  -36.1865   25.0810 H   0  0  0  0  0  0
  -20.9986  -28.3310   24.1370 H   0  0  0  0  0  0
  -20.5690  -26.2322   23.3625 H   0  0  0  0  0  0
  -21.6656  -26.7439   22.1217 H   0  0  0  0  0  0
  -19.6936  -25.6285   21.1256 H   0  0  0  0  0  0
  -19.6709  -27.3173   20.6731 H   0  0  0  0  0  0
  -17.4218  -26.6676   21.4008 H   0  0  0  0  0  0
  -18.0325  -26.0064   22.9010 H   0  0  0  0  0  0
  -19.7951  -30.7269   24.2239 H   0  0  0  0  0  0
  -17.5038  -31.6270   24.5163 H   0  0  0  0  0  0
  -15.5364  -30.2989   23.7669 H   0  0  0  0  0  0
  -15.8678  -28.0813   22.7095 H   0  0  0  0  0  0
  -24.5883  -30.7111   25.7753 H   0  0  0  0  0  0
  -24.8918  -32.2936   26.4810 H   0  0  0  0  0  0
  -25.8009  -30.8952   27.0218 H   0  0  0  0  0  0
  -26.2971  -29.6694   24.1273 H   0  0  0  0  0  0
  -27.3984  -29.7247   25.4831 H   0  0  0  0  0  0
  -27.8885  -30.4196   23.9573 H   0  0  0  0  0  0
  -27.2641  -33.3629   26.2041 H   0  0  0  0  0  0
  -28.3880  -32.6873   25.0338 H   0  0  0  0  0  0
  -28.0701  -31.8469   26.5438 H   0  0  0  0  0  0
  -28.2560  -38.0110   24.7550 H   0  0  0  0  0  0
  -28.1104  -36.2639   24.6199 H   0  0  0  0  0  0
  -27.2302  -37.1344   25.8854 H   0  0  0  0  0  0
  -20.9448  -29.8746   21.6792 H   0  0  0  0  0  0
  -26.0137  -38.2812   24.1463 H   0  0  0  0  0  0
  -31.2549  -20.6463   21.5188 H   0  0  0  0  0  0
  -31.6627  -18.2385   21.5704 H   0  0  0  0  0  0
  -27.4951  -19.9788   19.6108 H   0  0  0  0  0  0
  -29.8312  -23.2394   23.6722 H   0  0  0  0  0  0
  -28.4140  -24.1386   23.0918 H   0  0  0  0  0  0
  -31.0300  -23.5596   21.6372 H   0  0  0  0  0  0
  -30.1464  -25.0783   21.6670 H   0  0  0  0  0  0
  -29.8985  -23.4401   19.5497 H   0  0  0  0  0  0
  -27.2066  -17.7799   18.5035 H   0  0  0  0  0  0
  -26.7814  -17.3152   20.1548 H   0  0  0  0  0  0
  -27.9438  -16.3508   19.2079 H   0  0  0  0  0  0
  -29.9310  -16.7924   23.0131 H   0  0  0  0  0  0
  -29.8803  -15.0525   22.9047 H   0  0  0  0  0  0
  -28.4414  -16.0094   22.5262 H   0  0  0  0  0  0
  -27.2934  -24.5257   20.9028 H   0  0  0  0  0  0
  -27.6242  -24.4591   19.2111 H   0  0  0  0  0  0
  1 25  1  0  0  0
  1 30  2  0  0  0
  1 85  1  0  0  0
  2  3  1  0  0  0
  2 25  1  0  0  0
  2 87  1  0  0  0
  2 88  1  0  0  0
  3  4  1  0  0  0
  3 89  1  0  0  0
  3 90  1  0  0  0
  4  5  1  0  0  0
  4 91  1  0  0  0
  4 92  1  0  0  0
  5  6  1  0  0  0
  5 26  1  0  0  0
  5 93  1  0  0  0
  6 25  1  0  0  0
  6 94  1  0  0  0
  6 95  1  0  0  0
  7  8  2  0  0  0
  7 26  1  0  0  0
  7 29  1  0  0  0
  8  9  1  0  0  0
  8 22  1  0  0  0
  9 10  1  0  0  0
  9 27  2  0  0  0
 10 11  2  0  0  0
 10 15  1  0  0  0
 11 12  1  0  0  0
 11 96  1  0  0  0
 12 13  2  0  0  0
 12 97  1  0  0  0
 13 14  1  0  0  0
 13 31  1  0  0  0
 14 15  2  0  0  0
 14 98  1  0  0  0
 15 99  1  0  0  0
 16 17  2  0  0  0
 16 21  1  0  0  0
 16 31  1  0  0  0
 17 18  1  0  0  0
 17100  1  0  0  0
 18 19  2  0  0  0
 18101  1  0  0  0
 19 20  1  0  0  0
 19 24  1  0  0  0
 20 21  2  0  0  0
 20102  1  0  0  0
 21 23  1  0  0  0
 22 28  1  0  0  0
 22 32  2  0  0  0
 26 27  1  0  0  0
 28103  1  0  0  0
 28104  1  0  0  0
 29105  1  0  0  0
 29106  1  0  0  0
 33 34  1  0  0  0
 33 66  1  0  0  0
 33 70  2  0  0  0
 34 36  1  0  0  0
 34 59  1  0  0  0
 34107  1  0  0  0
 35 44  2  0  0  0
 35 45  1  0  0  0
 35 68  1  0  0  0
 36 56  1  0  0  0
 36108  1  0  0  0
 37 39  1  0  0  0
 37 47  1  0  0  0
 37 66  1  0  0  0
 37109  1  0  0  0
 38 43  2  0  0  0
 38 46  1  0  0  0
 38 47  1  0  0  0
 39 64  1  0  0  0
 39 67  2  0  0  0
 40 52  1  0  0  0
 40 53  2  0  0  0
 40 58  1  0  0  0
 41110  1  0  0  0
 41111  1  0  0  0
 41112  1  0  0  0
 41 48  1  0  0  0
 42 43  1  0  0  0
 42 66  1  0  0  0
 42113  1  0  0  0
 42114  1  0  0  0
 43 44  1  0  0  0
 44115  1  0  0  0
 45 46  2  0  0  0
 45116  1  0  0  0
 46117  1  0  0  0
 47118  1  0  0  0
 47119  1  0  0  0
 48 56  1  0  0  0
 48 65  1  0  0  0
 48120  1  0  0  0
 49 50  1  0  0  0
 49 53  1  0  0  0
 49 64  1  0  0  0
 49121  1  0  0  0
 50 51  1  0  0  0
 50122  1  0  0  0
 50123  1  0  0  0
 51 52  1  0  0  0
 51124  1  0  0  0
 51125  1  0  0  0
 52126  1  0  0  0
 52127  1  0  0  0
 53 54  1  0  0  0
 54 55  2  0  0  0
 54128  1  0  0  0
 55 57  1  0  0  0
 55129  1  0  0  0
 56 69  2  0  0  0
 57 58  2  0  0  0
 57130  1  0  0  0
 58131  1  0  0  0
 59 60  1  0  0  0
 59 61  1  0  0  0
 59 62  1  0  0  0
 60132  1  0  0  0
 60133  1  0  0  0
 60134  1  0  0  0
 61135  1  0  0  0
 61136  1  0  0  0
 61137  1  0  0  0
 62138  1  0  0  0
 62139  1  0  0  0
 62140  1  0  0  0
 63 65  1  0  0  0
 63141  1  0  0  0
 63142  1  0  0  0
 63143  1  0  0  0
 64144  1  0  0  0
 65145  1  0  0  0
 68 83  1  0  0  0
 71 72  2  0  0  0
 71 75  1  0  0  0
 71146  1  0  0  0
 72 76  1  0  0  0
 72147  1  0  0  0
 73 74  1  0  0  0
 73 75  2  0  0  0
 73148  1  0  0  0
 74 76  2  0  0  0
 74 81  1  0  0  0
 75 84  1  0  0  0
 76 85  1  0  0  0
 77 78  1  0  0  0
 77 84  1  0  0  0
 77 86  2  0  0  0
 78 79  1  0  0  0
 78149  1  0  0  0
 78150  1  0  0  0
 79 80  1  0  0  0
 79151  1  0  0  0
 79152  1  0  0  0
 80 83  1  0  0  0
 80 84  1  0  0  0
 80153  1  0  0  0
 81154  1  0  0  0
 81155  1  0  0  0
 81156  1  0  0  0
 82 85  1  0  0  0
 82157  1  0  0  0
 82158  1  0  0  0
 82159  1  0  0  0
 83160  1  0  0  0
 83161  1  0  0  0
M  ISO  4   1 100  68 101  83 101  85 100
M  END
> <chiral flag>
0

> <version>
0

> <s_m_source_file>
/data/baiqing/PycharmProjects/Reinvent-master-3.2/result/LINK_invent/BTK/process_docking_weight1_custom_product_contain_oxygen_bond_distance_aromatic_linkinvent_7_9_3/rearranged_h_0103.sdf

> <i_m_source_file_index>
1

> <r_mmod_Potential_Energy-OPLS-2005>
779.841430664062

> <r_mmod_Stretch_Energy-OPLS-2005>
234.997924804688

> <r_mmod_Bend_Energy-OPLS-2005>
297.80859375

> <r_mmod_Torsional_Energy-OPLS-2005>
430.051574707031

> <r_mmod_Improper_Torsional_Energy-OPLS-2005>
11.7962160110474

> <r_mmod_Van_der_Waal_Energy-OPLS-2005>
136.781631469727

> <r_mmod_Electrostatic_Energy-OPLS-2005>
-290.699920654297

> <r_mmod_Solvation_Energy-OPLS-2005>
-206.929412841797

> <b_mmod_Minimization_Converged-OPLS-2005>
0

> <r_mmod_RMS_Derivative-OPLS-2005>
2.42579865455627

$$$$
1
                    3D
 Structure written by MMmdl.
162171  0  0  1  0            999 V2000
  -30.7103  -14.5488   20.4114 C   0  0  0  0  0  0
  -30.4334  -12.3288   19.4105 C   0  0  0  0  0  0
  -29.4846  -12.4401   18.2000 C   0  0  0  0  0  0
  -28.0189  -12.2927   18.6481 C   0  0  0  0  0  0
  -27.6505  -13.2046   19.8493 C   0  0  2  0  0  0
  -28.7141  -13.1125   20.9674 C   0  0  0  0  0  0
  -25.2569  -13.8156   20.5655 C   0  0  0  0  0  0
  -24.1831  -13.0447   20.9166 C   0  0  0  0  0  0
  -24.6396  -11.6900   20.8768 C   0  0  0  0  0  0
  -23.9048  -10.4287   21.0436 C   0  0  0  0  0  0
  -24.3597   -9.4211   21.9205 C   0  0  0  0  0  0
  -23.6269   -8.2252   22.0765 C   0  0  0  0  0  0
  -22.4265   -8.0283   21.3544 C   0  0  0  0  0  0
  -21.9897   -9.0251   20.4660 C   0  0  0  0  0  0
  -22.7229  -10.2131   20.3082 C   0  0  0  0  0  0
  -21.6850   -6.0721   22.5267 C   0  0  0  0  0  0
  -21.4027   -6.5624   23.8199 C   0  0  0  0  0  0
  -21.3680   -5.6788   24.9160 C   0  0  0  0  0  0
  -21.6045   -4.3042   24.7223 C   0  0  0  0  0  0
  -21.8824   -3.8132   23.4336 C   0  0  0  0  0  0
  -21.9187   -4.6948   22.3392 C   0  0  0  0  0  0
  -22.7862  -13.5249   21.1818 C   0  0  0  0  0  0
  -22.1661   -4.2134   21.0972 F   0  0  0  0  0  0
  -21.5631   -3.4527   25.7732 F   0  0  0  0  0  0
  -30.0268  -13.3754   20.3572 N   0  0  0  0  0  0
  -26.3010  -12.9326   20.3335 N   0  0  0  0  0  0
  -25.9329  -11.6491   20.5829 N   0  0  0  0  0  0
  -22.0498  -12.8247   22.0383 N   0  0  0  0  0  0
  -25.4236  -15.1881   20.4010 N   0  0  0  0  0  0
  -31.9186  -14.6195   20.1988 O   0  0  0  0  0  0
  -21.6650   -6.8874   21.4230 O   0  0  0  0  0  0
  -22.3562  -14.5568   20.6697 O   0  0  0  0  0  0
  -24.6210  -31.8659   23.2032 C   0  0  0  0  0  0
  -25.9081  -32.4799   23.8309 C   0  0  1  0  0  0
  -27.2194  -27.3557   20.0909 C   0  0  0  0  0  0
  -25.5981  -33.8595   24.2315 N   0  0  0  0  0  0
  -23.4147  -30.4860   21.5448 C   0  0  2  0  0  0
  -24.8582  -28.9281   20.1176 C   0  0  0  0  0  0
  -22.7423  -29.4709   22.4989 C   0  0  0  0  0  0
  -18.0309  -28.1384   22.8566 C   0  0  0  0  0  0
  -24.1437  -36.7199   23.2633 C   0  0  0  0  0  0
  -25.9491  -30.7916   21.3760 C   0  0  0  0  0  0
  -26.0242  -29.4217   20.7214 C   0  0  0  0  0  0
  -27.2134  -28.6415   20.7083 C   0  0  0  0  0  0
  -26.0379  -26.8996   19.4860 C   0  0  0  0  0  0
  -24.8582  -27.6647   19.5037 C   0  0  0  0  0  0
  -23.6280  -29.8082   20.1639 C   0  0  0  0  0  0
  -25.4083  -36.3090   24.0363 C   0  0  1  0  0  0
  -20.5915  -28.3708   23.1320 C   0  0  2  0  0  0
  -20.6792  -26.9458   22.5398 C   0  0  0  0  0  0
  -19.5745  -26.6434   21.5213 C   0  0  0  0  0  0
  -18.1939  -26.7959   22.1646 C   0  0  0  0  0  0
  -19.1564  -28.8863   23.2964 C   0  0  0  0  0  0
  -18.9503  -30.1507   23.8925 C   0  0  0  0  0  0
  -17.6491  -30.6647   24.0596 C   0  0  0  0  0  0
  -25.9042  -34.9479   23.5123 C   0  0  0  0  0  0
  -16.5384  -29.9132   23.6385 C   0  0  0  0  0  0
  -16.7302  -28.6526   23.0450 C   0  0  0  0  0  0
  -26.4493  -31.6579   25.0649 C   0  0  0  0  0  0
  -25.3789  -31.3699   26.1425 C   0  0  0  0  0  0
  -27.0307  -30.3009   24.6055 C   0  0  0  0  0  0
  -27.6088  -32.4253   25.7410 C   0  0  0  0  0  0
  -27.5558  -37.1756   24.8513 C   0  0  0  0  0  0
  -21.4155  -29.3041   22.3646 N   0  0  0  0  0  0
  -26.4248  -37.3820   23.9466 N   0  0  0  0  0  0
  -24.6787  -31.0638   22.0996 N   0  0  0  0  0  0
  -23.4128  -28.8358   23.3174 O   0  0  0  0  0  0
  -28.2988  -26.4828   20.0893 O   0  0  0  0  0  0
  -26.5565  -34.8979   22.4661 O   0  0  0  0  0  0
  -23.5400  -32.1468   23.7382 O   0  0  0  0  0  0
  -31.1118  -19.6989   21.1918 C   0  0  0  0  0  0
  -29.7515  -18.1483   19.9121 C   0  0  0  0  0  0
  -31.3103  -17.2930   21.5856 C   0  0  0  0  0  0
  -30.0888  -19.5055   20.2395 C   0  0  0  0  0  0
  -31.6931  -18.6127   21.8814 C   0  0  0  0  0  0
  -30.3474  -17.0322   20.5903 C   0  0  0  0  0  0
  -28.3084  -24.0746   20.8436 C   0  0  0  0  0  0
  -28.1777  -25.4313   20.9902 C   0  0  0  0  0  0
  -29.4614  -20.7223   19.5389 C   0  0  0  0  0  0
  -28.1388  -23.1393   22.0151 C   0  0  0  0  0  0
  -28.6760  -23.1597   19.6669 C   0  0  0  0  0  0
  -29.0446  -21.9404   21.7076 C   0  0  0  0  0  0
  -32.7652  -18.8876   22.9112 C   0  0  0  0  0  0
  -29.1605  -21.8645   20.2475 N   0  0  0  0  0  0
  -29.9445  -15.6707   20.3416 N   0  0  0  0  0  0
  -34.0628  -18.9455   22.2310 N   0  3  0  0  0  0
  -29.2444  -20.6573   18.3263 O   0  0  0  0  0  0
  -31.4733  -12.4349   19.0824 H   0  0  0  0  0  0
  -30.3625  -11.3480   19.8831 H   0  0  0  0  0  0
  -29.7237  -11.6702   17.4664 H   0  0  0  0  0  0
  -29.6232  -13.3989   17.6942 H   0  0  0  0  0  0
  -27.8696  -11.2450   18.9191 H   0  0  0  0  0  0
  -27.3437  -12.4841   17.8139 H   0  0  0  0  0  0
  -27.6540  -14.2253   19.4667 H   0  0  0  0  0  0
  -28.7097  -12.1348   21.4476 H   0  0  0  0  0  0
  -28.4961  -13.8405   21.7566 H   0  0  0  0  0  0
  -25.2760   -9.5686   22.4744 H   0  0  0  0  0  0
  -23.9986   -7.4657   22.7489 H   0  0  0  0  0  0
  -21.0824   -8.8771   19.8960 H   0  0  0  0  0  0
  -22.3701  -10.9655   19.6170 H   0  0  0  0  0  0
  -21.2050   -7.6139   23.9688 H   0  0  0  0  0  0
  -21.1495   -6.0520   25.9056 H   0  0  0  0  0  0
  -22.0585   -2.7589   23.2836 H   0  0  0  0  0  0
  -22.4155  -11.9928   22.4788 H   0  0  0  0  0  0
  -21.1141  -13.1279   22.2649 H   0  0  0  0  0  0
  -24.6405  -15.8272   20.4921 H   0  0  0  0  0  0
  -26.2690  -15.6347   20.0719 H   0  0  0  0  0  0
  -26.7116  -32.5434   23.1029 H   0  0  0  0  0  0
  -25.0258  -33.9697   25.0554 H   0  0  0  0  0  0
  -22.7054  -31.3050   21.4005 H   0  0  0  0  0  0
  -23.3760  -35.9488   23.3388 H   0  0  0  0  0  0
  -24.3507  -36.8708   22.2035 H   0  0  0  0  0  0
  -23.7113  -37.6392   23.6578 H   0  0  0  0  0  0
  -26.0774  -31.5519   20.6052 H   0  0  0  0  0  0
  -26.8255  -30.8353   22.0074 H   0  0  0  0  0  0
  -28.1055  -29.0102   21.1930 H   0  0  0  0  0  0
  -26.0211  -25.9203   19.0247 H   0  0  0  0  0  0
  -23.9587  -27.2650   19.0592 H   0  0  0  0  0  0
  -23.7471  -30.5722   19.3957 H   0  0  0  0  0  0
  -22.7496  -29.2332   19.8629 H   0  0  0  0  0  0
  -25.1298  -36.1937   25.0868 H   0  0  0  0  0  0
  -21.0034  -28.3236   24.1441 H   0  0  0  0  0  0
  -20.5688  -26.2336   23.3590 H   0  0  0  0  0  0
  -21.6678  -26.7485   22.1193 H   0  0  0  0  0  0
  -19.6881  -25.6366   21.1187 H   0  0  0  0  0  0
  -19.6626  -27.3286   20.6784 H   0  0  0  0  0  0
  -17.4205  -26.6811   21.4039 H   0  0  0  0  0  0
  -18.0385  -26.0033   22.8976 H   0  0  0  0  0  0
  -19.7979  -30.7383   24.2218 H   0  0  0  0  0  0
  -17.5051  -31.6322   24.5221 H   0  0  0  0  0  0
  -15.5414  -30.3037   23.7704 H   0  0  0  0  0  0
  -15.8705  -28.0819   22.7192 H   0  0  0  0  0  0
  -24.6005  -30.6979   25.7802 H   0  0  0  0  0  0
  -24.8901  -32.2850   26.4760 H   0  0  0  0  0  0
  -25.8207  -30.8975   27.0214 H   0  0  0  0  0  0
  -26.2851  -29.6752   24.1125 H   0  0  0  0  0  0
  -27.4029  -29.7239   25.4525 H   0  0  0  0  0  0
  -27.8740  -30.4308   23.9254 H   0  0  0  0  0  0
  -27.2781  -33.3540   26.2063 H   0  0  0  0  0  0
  -28.3912  -32.6770   25.0245 H   0  0  0  0  0  0
  -28.0738  -31.8272   26.5235 H   0  0  0  0  0  0
  -28.2697  -37.9956   24.7666 H   0  0  0  0  0  0
  -28.0969  -36.2544   24.6317 H   0  0  0  0  0  0
  -27.2297  -37.1406   25.8916 H   0  0  0  0  0  0
  -20.9312  -29.8600   21.6701 H   0  0  0  0  0  0
  -26.0122  -38.2892   24.1511 H   0  0  0  0  0  0
  -31.4693  -20.6956   21.4012 H   0  0  0  0  0  0
  -29.0363  -17.9545   19.1279 H   0  0  0  0  0  0
  -31.7685  -16.4723   22.1252 H   0  0  0  0  0  0
  -27.9275  -25.8225   21.9683 H   0  0  0  0  0  0
  -27.1008  -22.8032   22.0736 H   0  0  0  0  0  0
  -28.3779  -23.6322   22.9593 H   0  0  0  0  0  0
  -29.4119  -23.6080   18.9973 H   0  0  0  0  0  0
  -27.7699  -22.9641   19.0935 H   0  0  0  0  0  0
  -28.6520  -21.0157   22.1324 H   0  0  0  0  0  0
  -30.0247  -22.1253   22.1453 H   0  0  0  0  0  0
  -32.7666  -18.1185   23.6890 H   0  0  0  0  0  0
  -32.5521  -19.8374   23.4058 H   0  0  0  0  0  0
  -28.9804  -15.5109   20.1011 H   0  0  0  0  0  0
  -34.3164  -18.0346   21.8963 H   0  0  0  0  0  0
  -34.7700  -19.2854   22.8580 H   0  0  0  0  0  0
  -34.0066  -19.5690   21.4489 H   0  0  0  0  0  0
  1 25  1  0  0  0
  1 30  2  0  0  0
  1 85  1  0  0  0
  2  3  1  0  0  0
  2 25  1  0  0  0
  2 88  1  0  0  0
  2 89  1  0  0  0
  3  4  1  0  0  0
  3 90  1  0  0  0
  3 91  1  0  0  0
  4  5  1  0  0  0
  4 92  1  0  0  0
  4 93  1  0  0  0
  5  6  1  0  0  0
  5 26  1  0  0  0
  5 94  1  0  0  0
  6 25  1  0  0  0
  6 95  1  0  0  0
  6 96  1  0  0  0
  7  8  2  0  0  0
  7 26  1  0  0  0
  7 29  1  0  0  0
  8  9  1  0  0  0
  8 22  1  0  0  0
  9 10  1  0  0  0
  9 27  2  0  0  0
 10 11  2  0  0  0
 10 15  1  0  0  0
 11 12  1  0  0  0
 11 97  1  0  0  0
 12 13  2  0  0  0
 12 98  1  0  0  0
 13 14  1  0  0  0
 13 31  1  0  0  0
 14 15  2  0  0  0
 14 99  1  0  0  0
 15100  1  0  0  0
 16 17  2  0  0  0
 16 21  1  0  0  0
 16 31  1  0  0  0
 17 18  1  0  0  0
 17101  1  0  0  0
 18 19  2  0  0  0
 18102  1  0  0  0
 19 20  1  0  0  0
 19 24  1  0  0  0
 20 21  2  0  0  0
 20103  1  0  0  0
 21 23  1  0  0  0
 22 28  1  0  0  0
 22 32  2  0  0  0
 26 27  1  0  0  0
 28104  1  0  0  0
 28105  1  0  0  0
 29106  1  0  0  0
 29107  1  0  0  0
 33 34  1  0  0  0
 33 66  1  0  0  0
 33 70  2  0  0  0
 34 36  1  0  0  0
 34 59  1  0  0  0
 34108  1  0  0  0
 35 44  2  0  0  0
 35 45  1  0  0  0
 35 68  1  0  0  0
 36 56  1  0  0  0
 36109  1  0  0  0
 37 39  1  0  0  0
 37 47  1  0  0  0
 37 66  1  0  0  0
 37110  1  0  0  0
 38 43  2  0  0  0
 38 46  1  0  0  0
 38 47  1  0  0  0
 39 64  1  0  0  0
 39 67  2  0  0  0
 40 52  1  0  0  0
 40 53  2  0  0  0
 40 58  1  0  0  0
 41111  1  0  0  0
 41112  1  0  0  0
 41113  1  0  0  0
 41 48  1  0  0  0
 42 43  1  0  0  0
 42 66  1  0  0  0
 42114  1  0  0  0
 42115  1  0  0  0
 43 44  1  0  0  0
 44116  1  0  0  0
 45 46  2  0  0  0
 45117  1  0  0  0
 46118  1  0  0  0
 47119  1  0  0  0
 47120  1  0  0  0
 48 56  1  0  0  0
 48 65  1  0  0  0
 48121  1  0  0  0
 49 50  1  0  0  0
 49 53  1  0  0  0
 49 64  1  0  0  0
 49122  1  0  0  0
 50 51  1  0  0  0
 50123  1  0  0  0
 50124  1  0  0  0
 51 52  1  0  0  0
 51125  1  0  0  0
 51126  1  0  0  0
 52127  1  0  0  0
 52128  1  0  0  0
 53 54  1  0  0  0
 54 55  2  0  0  0
 54129  1  0  0  0
 55 57  1  0  0  0
 55130  1  0  0  0
 56 69  2  0  0  0
 57 58  2  0  0  0
 57131  1  0  0  0
 58132  1  0  0  0
 59 60  1  0  0  0
 59 61  1  0  0  0
 59 62  1  0  0  0
 60133  1  0  0  0
 60134  1  0  0  0
 60135  1  0  0  0
 61136  1  0  0  0
 61137  1  0  0  0
 61138  1  0  0  0
 62139  1  0  0  0
 62140  1  0  0  0
 62141  1  0  0  0
 63 65  1  0  0  0
 63142  1  0  0  0
 63143  1  0  0  0
 63144  1  0  0  0
 64145  1  0  0  0
 65146  1  0  0  0
 68 78  1  0  0  0
 71 74  2  0  0  0
 71 75  1  0  0  0
 71147  1  0  0  0
 72 74  1  0  0  0
 72 76  2  0  0  0
 72148  1  0  0  0
 73 75  2  0  0  0
 73 76  1  0  0  0
 73149  1  0  0  0
 74 79  1  0  0  0
 75 83  1  0  0  0
 76 85  1  0  0  0
 77 78  2  0  0  0
 77 80  1  0  0  0
 77 81  1  0  0  0
 78150  1  0  0  0
 79 84  1  0  0  0
 79 87  2  0  0  0
 80 82  1  0  0  0
 80151  1  0  0  0
 80152  1  0  0  0
 81 84  1  0  0  0
 81153  1  0  0  0
 81154  1  0  0  0
 82 84  1  0  0  0
 82155  1  0  0  0
 82156  1  0  0  0
 83 86  1  0  0  0
 83157  1  0  0  0
 83158  1  0  0  0
 85159  1  0  0  0
 86160  1  0  0  0
 86161  1  0  0  0
 86162  1  0  0  0
M  CHG  1  86   1
M  ISO  4   1 100  68 101  78 101  85 100
M  END
> <chiral flag>
0

> <version>
0

> <s_m_source_file>
/data/baiqing/PycharmProjects/Reinvent-master-3.2/result/LINK_invent/BTK/process_docking_weight1_custom_product_contain_oxygen_bond_distance_aromatic_linkinvent_7_9_3/rearranged_h_0103.sdf

> <i_m_source_file_index>
2

> <r_mmod_Potential_Energy-OPLS-2005>
-181.882110595703

> <r_mmod_Stretch_Energy-OPLS-2005>
57.736644744873

> <r_mmod_Bend_Energy-OPLS-2005>
149.305816650391

> <r_mmod_Torsional_Energy-OPLS-2005>
294.829376220703

> <r_mmod_Improper_Torsional_Energy-OPLS-2005>
10.182056427002

> <r_mmod_Van_der_Waal_Energy-OPLS-2005>
144.935272216797

> <r_mmod_Electrostatic_Energy-OPLS-2005>
-360.292236328125

> <r_mmod_Solvation_Energy-OPLS-2005>
-523.530456542969

> <b_mmod_Minimization_Converged-OPLS-2005>
0

> <r_mmod_RMS_Derivative-OPLS-2005>
7.43340969085693

$$$$
2
                    3D
 Structure written by MMmdl.
165173  0  0  1  0            999 V2000
  -30.6899  -14.6455   20.5019 C   0  0  0  0  0  0
  -30.4465  -12.4262   19.4124 C   0  0  0  0  0  0
  -29.5045  -12.5295   18.1952 C   0  0  0  0  0  0
  -28.0271  -12.3751   18.6160 C   0  0  0  0  0  0
  -27.6573  -13.2086   19.8774 C   0  0  2  0  0  0
  -28.7281  -13.0044   20.9725 C   0  0  0  0  0  0
  -25.2397  -13.7963   20.5505 C   0  0  0  0  0  0
  -24.1721  -13.0268   20.9122 C   0  0  0  0  0  0
  -24.6398  -11.6786   20.8800 C   0  0  0  0  0  0
  -23.9088  -10.4214   21.0423 C   0  0  0  0  0  0
  -24.3615   -9.4113   21.9209 C   0  0  0  0  0  0
  -23.6229   -8.2185   22.0751 C   0  0  0  0  0  0
  -22.4210   -8.0265   21.3547 C   0  0  0  0  0  0
  -21.9876   -9.0274   20.4665 C   0  0  0  0  0  0
  -22.7264  -10.2094   20.3051 C   0  0  0  0  0  0
  -21.6865   -6.0701   22.5278 C   0  0  0  0  0  0
  -21.4048   -6.5628   23.8205 C   0  0  0  0  0  0
  -21.3576   -5.6748   24.9152 C   0  0  0  0  0  0
  -21.5986   -4.3022   24.7206 C   0  0  0  0  0  0
  -21.8849   -3.8124   23.4356 C   0  0  0  0  0  0
  -21.9218   -4.6932   22.3390 C   0  0  0  0  0  0
  -22.7760  -13.5119   21.1807 C   0  0  0  0  0  0
  -22.1692   -4.2132   21.0975 F   0  0  0  0  0  0
  -21.5546   -3.4513   25.7709 F   0  0  0  0  0  0
  -30.0015  -13.4538   20.3847 N   0  0  0  0  0  0
  -26.2999  -12.9258   20.3426 N   0  0  0  0  0  0
  -25.9351  -11.6426   20.5845 N   0  0  0  0  0  0
  -22.0419  -12.8176   22.0427 N   0  0  0  0  0  0
  -25.3812  -15.1593   20.3597 N   0  0  0  0  0  0
  -31.9021  -14.6412   20.2632 O   0  0  0  0  0  0
  -21.6602   -6.8866   21.4238 O   0  0  0  0  0  0
  -22.3483  -14.5482   20.6731 O   0  0  0  0  0  0
  -24.6206  -31.8548   23.2017 C   0  0  0  0  0  0
  -25.9101  -32.4707   23.8283 C   0  0  1  0  0  0
  -27.2626  -27.3709   20.0880 C   0  0  0  0  0  0
  -25.5954  -33.8520   24.2238 N   0  0  0  0  0  0
  -23.4111  -30.4719   21.5429 C   0  0  2  0  0  0
  -24.8667  -28.9281   20.1127 C   0  0  0  0  0  0
  -22.7394  -29.4576   22.4954 C   0  0  0  0  0  0
  -18.0258  -28.1387   22.8439 C   0  0  0  0  0  0
  -24.1479  -36.7220   23.2619 C   0  0  0  0  0  0
  -25.9450  -30.8004   21.3700 C   0  0  0  0  0  0
  -26.0276  -29.4314   20.7113 C   0  0  0  0  0  0
  -27.2225  -28.6612   20.6946 C   0  0  0  0  0  0
  -26.0722  -26.8980   19.4874 C   0  0  0  0  0  0
  -24.8881  -27.6623   19.5008 C   0  0  0  0  0  0
  -23.6210  -29.7865   20.1666 C   0  0  0  0  0  0
  -25.4095  -36.3002   24.0298 C   0  0  1  0  0  0
  -20.5836  -28.3649   23.1265 C   0  0  2  0  0  0
  -20.6737  -26.9364   22.5405 C   0  0  0  0  0  0
  -19.5741  -26.6347   21.5175 C   0  0  0  0  0  0
  -18.1906  -26.7926   22.1554 C   0  0  0  0  0  0
  -19.1507  -28.8826   23.2839 C   0  0  0  0  0  0
  -18.9471  -30.1443   23.8840 C   0  0  0  0  0  0
  -17.6473  -30.6573   24.0562 C   0  0  0  0  0  0
  -25.9054  -34.9386   23.5048 C   0  0  0  0  0  0
  -16.5346  -29.9062   23.6372 C   0  0  0  0  0  0
  -16.7240  -28.6486   23.0350 C   0  0  0  0  0  0
  -26.4538  -31.6516   25.0636 C   0  0  0  0  0  0
  -25.3807  -31.3782   26.1399 C   0  0  0  0  0  0
  -27.0362  -30.2884   24.6145 C   0  0  0  0  0  0
  -27.6062  -32.4265   25.7405 C   0  0  0  0  0  0
  -27.5571  -37.1724   24.8420 C   0  0  0  0  0  0
  -21.4106  -29.3001   22.3666 N   0  0  0  0  0  0
  -26.4254  -37.3718   23.9407 N   0  0  0  0  0  0
  -24.6749  -31.0587   22.0946 N   0  0  0  0  0  0
  -23.4109  -28.8136   23.3076 O   0  0  0  0  0  0
  -28.4496  -26.6326   20.1350 O   0  0  0  0  0  0
  -26.5592  -34.8867   22.4596 O   0  0  0  0  0  0
  -23.5386  -32.1340   23.7383 O   0  0  0  0  0  0
  -31.3355  -16.9765   18.6202 C   0  0  0  0  0  0
  -31.7110  -19.3954   18.5636 C   0  0  0  0  0  0
  -30.6110  -18.3799   20.4711 C   0  0  0  0  0  0
  -31.8866  -18.1189   17.9935 C   0  0  0  0  0  0
  -30.6784  -17.0673   19.8758 C   0  0  0  0  0  0
  -31.0475  -19.5550   19.7931 C   0  0  0  0  0  0
  -26.7970  -17.7056   21.7058 C   0  0  0  0  0  0
  -27.8134  -17.1899   20.6716 C   0  0  0  0  0  0
  -28.9304  -24.0995   20.3823 C   0  0  0  0  0  0
  -29.5125  -22.8092   19.6725 C   0  0  0  0  0  0
  -28.8519  -16.2298   21.3361 C   0  0  0  0  0  0
  -28.6534  -25.3495   19.4581 C   0  0  0  0  0  0
  -29.6900  -21.4904   20.5262 C   0  0  0  0  0  0
  -32.6185  -18.0014   16.8094 N   0  0  0  0  0  0
  -30.0355  -15.8880   20.4929 N   0  0  0  0  0  0
  -30.9711  -20.8440   20.3201 O   0  0  0  0  0  0
  -31.4800  -12.5621   19.0897 H   0  0  0  0  0  0
  -30.4092  -11.4254   19.8407 H   0  0  0  0  0  0
  -29.7654  -11.7822   17.4437 H   0  0  0  0  0  0
  -29.6429  -13.4968   17.7088 H   0  0  0  0  0  0
  -27.8468  -11.3188   18.8093 H   0  0  0  0  0  0
  -27.3817  -12.6412   17.7810 H   0  0  0  0  0  0
  -27.6876  -14.2571   19.5820 H   0  0  0  0  0  0
  -28.7898  -11.9439   21.2214 H   0  0  0  0  0  0
  -28.4946  -13.4489   21.9357 H   0  0  0  0  0  0
  -25.2763   -9.5537   22.4797 H   0  0  0  0  0  0
  -23.9911   -7.4553   22.7458 H   0  0  0  0  0  0
  -21.0782   -8.8838   19.8989 H   0  0  0  0  0  0
  -22.3787  -10.9646   19.6153 H   0  0  0  0  0  0
  -21.2142   -7.6151   23.9724 H   0  0  0  0  0  0
  -21.1302   -6.0475   25.9039 H   0  0  0  0  0  0
  -22.0733   -2.7592   23.2884 H   0  0  0  0  0  0
  -22.3960  -11.9783   22.4771 H   0  0  0  0  0  0
  -21.1115  -13.1401   22.2715 H   0  0  0  0  0  0
  -24.6185  -15.8215   20.4424 H   0  0  0  0  0  0
  -26.2476  -15.6069   20.1035 H   0  0  0  0  0  0
  -26.7122  -32.5430   23.1005 H   0  0  0  0  0  0
  -25.0237  -33.9638   25.0467 H   0  0  0  0  0  0
  -22.7027  -31.2878   21.3905 H   0  0  0  0  0  0
  -23.3740  -35.9555   23.3240 H   0  0  0  0  0  0
  -24.3569  -36.8879   22.2038 H   0  0  0  0  0  0
  -23.7224  -37.6385   23.6695 H   0  0  0  0  0  0
  -26.0763  -31.5719   20.6091 H   0  0  0  0  0  0
  -26.8226  -30.8418   22.0056 H   0  0  0  0  0  0
  -28.1184  -29.0463   21.1619 H   0  0  0  0  0  0
  -26.0224  -25.9316   19.0115 H   0  0  0  0  0  0
  -23.9943  -27.2669   19.0397 H   0  0  0  0  0  0
  -23.7006  -30.5418   19.3834 H   0  0  0  0  0  0
  -22.7522  -29.1805   19.8978 H   0  0  0  0  0  0
  -25.1275  -36.1821   25.0778 H   0  0  0  0  0  0
  -20.9894  -28.3271   24.1394 H   0  0  0  0  0  0
  -20.5579  -26.2249   23.3597 H   0  0  0  0  0  0
  -21.6628  -26.7381   22.1256 H   0  0  0  0  0  0
  -19.6906  -25.6255   21.1214 H   0  0  0  0  0  0
  -19.6722  -27.3130   20.6694 H   0  0  0  0  0  0
  -17.4173  -26.6627   21.3962 H   0  0  0  0  0  0
  -18.0314  -26.0076   22.8939 H   0  0  0  0  0  0
  -19.7953  -30.7278   24.2142 H   0  0  0  0  0  0
  -17.5038  -31.6262   24.5139 H   0  0  0  0  0  0
  -15.5363  -30.2964   23.7749 H   0  0  0  0  0  0
  -15.8609  -28.0819   22.7123 H   0  0  0  0  0  0
  -24.5946  -30.7109   25.7849 H   0  0  0  0  0  0
  -24.9088  -32.3039   26.4690 H   0  0  0  0  0  0
  -25.8167  -30.9092   27.0230 H   0  0  0  0  0  0
  -26.2940  -29.6565   24.1234 H   0  0  0  0  0  0
  -27.4069  -29.7201   25.4701 H   0  0  0  0  0  0
  -27.8804  -30.4063   23.9340 H   0  0  0  0  0  0
  -27.2605  -33.3542   26.1973 H   0  0  0  0  0  0
  -28.3882  -32.6845   25.0254 H   0  0  0  0  0  0
  -28.0691  -31.8399   26.5353 H   0  0  0  0  0  0
  -28.2548  -38.0086   24.7562 H   0  0  0  0  0  0
  -28.1136  -36.2615   24.6128 H   0  0  0  0  0  0
  -27.2304  -37.1191   25.8834 H   0  0  0  0  0  0
  -20.9285  -29.8690   21.6844 H   0  0  0  0  0  0
  -26.0113  -38.2735   24.1591 H   0  0  0  0  0  0
  -31.4301  -16.0173   18.1217 H   0  0  0  0  0  0
  -32.1148  -20.2694   18.0689 H   0  0  0  0  0  0
  -30.1757  -18.5065   21.4513 H   0  0  0  0  0  0
  -26.0060  -18.2887   21.2331 H   0  0  0  0  0  0
  -27.2918  -18.3551   22.4280 H   0  0  0  0  0  0
  -26.3334  -16.8948   22.2663 H   0  0  0  0  0  0
  -28.2323  -18.0768   20.2027 H   0  0  0  0  0  0
  -27.3216  -16.6946   19.8355 H   0  0  0  0  0  0
  -29.6419  -24.4077   21.1494 H   0  0  0  0  0  0
  -28.0132  -23.8466   20.9143 H   0  0  0  0  0  0
  -30.4815  -23.0699   19.2443 H   0  0  0  0  0  0
  -28.8873  -22.5673   18.8119 H   0  0  0  0  0  0
  -28.2724  -15.3887   21.6658 H   0  0  0  0  0  0
  -29.2152  -16.6732   22.2647 H   0  0  0  0  0  0
  -27.8918  -25.1167   18.7174 H   0  0  0  0  0  0
  -29.5494  -25.4954   18.8559 H   0  0  0  0  0  0
  -28.8657  -20.7998   20.3335 H   0  0  0  0  0  0
  -29.6239  -21.7285   21.5895 H   0  0  0  0  0  0
  -33.1171  -17.1336   16.6419 H   0  0  0  0  0  0
  -33.1846  -18.8039   16.5452 H   0  0  0  0  0  0
  1 25  1  0  0  0
  1 30  2  0  0  0
  1 85  1  0  0  0
  2  3  1  0  0  0
  2 25  1  0  0  0
  2 87  1  0  0  0
  2 88  1  0  0  0
  3  4  1  0  0  0
  3 89  1  0  0  0
  3 90  1  0  0  0
  4  5  1  0  0  0
  4 91  1  0  0  0
  4 92  1  0  0  0
  5  6  1  0  0  0
  5 26  1  0  0  0
  5 93  1  0  0  0
  6 25  1  0  0  0
  6 94  1  0  0  0
  6 95  1  0  0  0
  7  8  2  0  0  0
  7 26  1  0  0  0
  7 29  1  0  0  0
  8  9  1  0  0  0
  8 22  1  0  0  0
  9 10  1  0  0  0
  9 27  2  0  0  0
 10 11  2  0  0  0
 10 15  1  0  0  0
 11 12  1  0  0  0
 11 96  1  0  0  0
 12 13  2  0  0  0
 12 97  1  0  0  0
 13 14  1  0  0  0
 13 31  1  0  0  0
 14 15  2  0  0  0
 14 98  1  0  0  0
 15 99  1  0  0  0
 16 17  2  0  0  0
 16 21  1  0  0  0
 16 31  1  0  0  0
 17 18  1  0  0  0
 17100  1  0  0  0
 18 19  2  0  0  0
 18101  1  0  0  0
 19 20  1  0  0  0
 19 24  1  0  0  0
 20 21  2  0  0  0
 20102  1  0  0  0
 21 23  1  0  0  0
 22 28  1  0  0  0
 22 32  2  0  0  0
 26 27  1  0  0  0
 28103  1  0  0  0
 28104  1  0  0  0
 29105  1  0  0  0
 29106  1  0  0  0
 33 34  1  0  0  0
 33 66  1  0  0  0
 33 70  2  0  0  0
 34 36  1  0  0  0
 34 59  1  0  0  0
 34107  1  0  0  0
 35 44  2  0  0  0
 35 45  1  0  0  0
 35 68  1  0  0  0
 36 56  1  0  0  0
 36108  1  0  0  0
 37 39  1  0  0  0
 37 47  1  0  0  0
 37 66  1  0  0  0
 37109  1  0  0  0
 38 43  2  0  0  0
 38 46  1  0  0  0
 38 47  1  0  0  0
 39 64  1  0  0  0
 39 67  2  0  0  0
 40 52  1  0  0  0
 40 53  2  0  0  0
 40 58  1  0  0  0
 41110  1  0  0  0
 41111  1  0  0  0
 41112  1  0  0  0
 41 48  1  0  0  0
 42 43  1  0  0  0
 42 66  1  0  0  0
 42113  1  0  0  0
 42114  1  0  0  0
 43 44  1  0  0  0
 44115  1  0  0  0
 45 46  2  0  0  0
 45116  1  0  0  0
 46117  1  0  0  0
 47118  1  0  0  0
 47119  1  0  0  0
 48 56  1  0  0  0
 48 65  1  0  0  0
 48120  1  0  0  0
 49 50  1  0  0  0
 49 53  1  0  0  0
 49 64  1  0  0  0
 49121  1  0  0  0
 50 51  1  0  0  0
 50122  1  0  0  0
 50123  1  0  0  0
 51 52  1  0  0  0
 51124  1  0  0  0
 51125  1  0  0  0
 52126  1  0  0  0
 52127  1  0  0  0
 53 54  1  0  0  0
 54 55  2  0  0  0
 54128  1  0  0  0
 55 57  1  0  0  0
 55129  1  0  0  0
 56 69  2  0  0  0
 57 58  2  0  0  0
 57130  1  0  0  0
 58131  1  0  0  0
 59 60  1  0  0  0
 59 61  1  0  0  0
 59 62  1  0  0  0
 60132  1  0  0  0
 60133  1  0  0  0
 60134  1  0  0  0
 61135  1  0  0  0
 61136  1  0  0  0
 61137  1  0  0  0
 62138  1  0  0  0
 62139  1  0  0  0
 62140  1  0  0  0
 63 65  1  0  0  0
 63141  1  0  0  0
 63142  1  0  0  0
 63143  1  0  0  0
 64144  1  0  0  0
 65145  1  0  0  0
 68 82  1  0  0  0
 71 74  2  0  0  0
 71 75  1  0  0  0
 71146  1  0  0  0
 72 74  1  0  0  0
 72 76  2  0  0  0
 72147  1  0  0  0
 73 75  2  0  0  0
 73 76  1  0  0  0
 73148  1  0  0  0
 74 84  1  0  0  0
 75 85  1  0  0  0
 76 86  1  0  0  0
 77 78  1  0  0  0
 77149  1  0  0  0
 77150  1  0  0  0
 77151  1  0  0  0
 78 81  1  0  0  0
 78152  1  0  0  0
 78153  1  0  0  0
 79 80  1  0  0  0
 79 82  1  0  0  0
 79154  1  0  0  0
 79155  1  0  0  0
 80 83  1  0  0  0
 80156  1  0  0  0
 80157  1  0  0  0
 81 85  1  0  0  0
 81158  1  0  0  0
 81159  1  0  0  0
 82160  1  0  0  0
 82161  1  0  0  0
 83 86  1  0  0  0
 83162  1  0  0  0
 83163  1  0  0  0
 84164  1  0  0  0
 84165  1  0  0  0
M  ISO  4   1 100  68 101  82 101  85 100
M  END
> <chiral flag>
0

> <version>
0

> <s_m_source_file>
/data/baiqing/PycharmProjects/Reinvent-master-3.2/result/LINK_invent/BTK/process_docking_weight1_custom_product_contain_oxygen_bond_distance_aromatic_linkinvent_7_9_3/rearranged_h_0103.sdf

> <i_m_source_file_index>
3

> <r_mmod_Potential_Energy-OPLS-2005>
348.683044433594

> <r_mmod_Stretch_Energy-OPLS-2005>
84.0485763549805

> <r_mmod_Bend_Energy-OPLS-2005>
173.648574829102

> <r_mmod_Torsional_Energy-OPLS-2005>
320.045989990234

> <r_mmod_Improper_Torsional_Energy-OPLS-2005>
15.634617805481

> <r_mmod_Van_der_Waal_Energy-OPLS-2005>
169.22900390625

> <r_mmod_Electrostatic_Energy-OPLS-2005>
-258.998992919922

> <r_mmod_Solvation_Energy-OPLS-2005>
-198.252960205078

> <b_mmod_Minimization_Converged-OPLS-2005>
0

> <r_mmod_RMS_Derivative-OPLS-2005>
6.54215717315674

$$$$
3
                    3D
 Structure written by MMmdl.
156164  0  0  1  0            999 V2000
  -30.7164  -14.5552   20.4944 C   0  0  0  0  0  0
  -30.4204  -12.3407   19.4381 C   0  0  0  0  0  0
  -29.4942  -12.4675   18.2116 C   0  0  0  0  0  0
  -28.0176  -12.3348   18.6310 C   0  0  0  0  0  0
  -27.6507  -13.2159   19.8559 C   0  0  2  0  0  0
  -28.7037  -13.0994   20.9825 C   0  0  0  0  0  0
  -25.2542  -13.8124   20.5648 C   0  0  0  0  0  0
  -24.1839  -13.0393   20.9231 C   0  0  0  0  0  0
  -24.6410  -11.6880   20.8785 C   0  0  0  0  0  0
  -23.9062  -10.4271   21.0424 C   0  0  0  0  0  0
  -24.3618   -9.4184   21.9190 C   0  0  0  0  0  0
  -23.6294   -8.2228   22.0748 C   0  0  0  0  0  0
  -22.4275   -8.0274   21.3530 C   0  0  0  0  0  0
  -21.9908   -9.0254   20.4638 C   0  0  0  0  0  0
  -22.7237  -10.2136   20.3056 C   0  0  0  0  0  0
  -21.6866   -6.0739   22.5277 C   0  0  0  0  0  0
  -21.4025   -6.5637   23.8209 C   0  0  0  0  0  0
  -21.3652   -5.6780   24.9166 C   0  0  0  0  0  0
  -21.6046   -4.3043   24.7221 C   0  0  0  0  0  0
  -21.8825   -3.8140   23.4334 C   0  0  0  0  0  0
  -21.9199   -4.6965   22.3389 C   0  0  0  0  0  0
  -22.7864  -13.5213   21.1865 C   0  0  0  0  0  0
  -22.1664   -4.2146   21.0967 F   0  0  0  0  0  0
  -21.5626   -3.4523   25.7732 F   0  0  0  0  0  0
  -30.0209  -13.3844   20.3973 N   0  0  0  0  0  0
  -26.2993  -12.9336   20.3329 N   0  0  0  0  0  0
  -25.9346  -11.6486   20.5807 N   0  0  0  0  0  0
  -22.0494  -12.8231   22.0422 N   0  0  0  0  0  0
  -25.4133  -15.1816   20.3898 N   0  0  0  0  0  0
  -31.9125  -14.6191   20.1967 O   0  0  0  0  0  0
  -21.6634   -6.8878   21.4236 O   0  0  0  0  0  0
  -22.3573  -14.5508   20.6674 O   0  0  0  0  0  0
  -24.6162  -31.8677   23.2122 C   0  0  0  0  0  0
  -25.9041  -32.4825   23.8410 C   0  0  1  0  0  0
  -27.2272  -27.4028   20.1140 C   0  0  0  0  0  0
  -25.5902  -33.8625   24.2335 N   0  0  0  0  0  0
  -23.4045  -30.4948   21.5524 C   0  0  2  0  0  0
  -24.8518  -28.9685   20.1112 C   0  0  0  0  0  0
  -22.7417  -29.4661   22.4982 C   0  0  0  0  0  0
  -18.0272  -28.1372   22.8493 C   0  0  0  0  0  0
  -24.1484  -36.7321   23.2641 C   0  0  0  0  0  0
  -25.9394  -30.8288   21.3705 C   0  0  0  0  0  0
  -26.0160  -29.4639   20.7114 C   0  0  0  0  0  0
  -27.2056  -28.6923   20.7057 C   0  0  0  0  0  0
  -26.0398  -26.9441   19.4883 C   0  0  0  0  0  0
  -24.8618  -27.7086   19.4946 C   0  0  0  0  0  0
  -23.6147  -29.8368   20.1645 C   0  0  0  0  0  0
  -25.4111  -36.3111   24.0339 C   0  0  1  0  0  0
  -20.5865  -28.3650   23.1320 C   0  0  2  0  0  0
  -20.6768  -26.9380   22.5426 C   0  0  0  0  0  0
  -19.5750  -26.6374   21.5216 C   0  0  0  0  0  0
  -18.1931  -26.7922   22.1617 C   0  0  0  0  0  0
  -19.1521  -28.8824   23.2905 C   0  0  0  0  0  0
  -18.9455  -30.1438   23.8911 C   0  0  0  0  0  0
  -17.6458  -30.6577   24.0561 C   0  0  0  0  0  0
  -25.9038  -34.9476   23.5129 C   0  0  0  0  0  0
  -16.5351  -29.9081   23.6326 C   0  0  0  0  0  0
  -16.7263  -28.6497   23.0347 C   0  0  0  0  0  0
  -26.4470  -31.6613   25.0744 C   0  0  0  0  0  0
  -25.3745  -31.3741   26.1502 C   0  0  0  0  0  0
  -27.0302  -30.3049   24.6141 C   0  0  0  0  0  0
  -27.6041  -32.4352   25.7496 C   0  0  0  0  0  0
  -27.5579  -37.1813   24.8466 C   0  0  0  0  0  0
  -21.4139  -29.3027   22.3728 N   0  0  0  0  0  0
  -26.4291  -37.3799   23.9402 N   0  0  0  0  0  0
  -24.6718  -31.0771   22.1033 N   0  0  0  0  0  0
  -23.4193  -28.8200   23.3015 O   0  0  0  0  0  0
  -28.3688  -26.6082   20.1851 O   0  0  0  0  0  0
  -26.5596  -34.8916   22.4688 O   0  0  0  0  0  0
  -23.5354  -32.1435   23.7510 O   0  0  0  0  0  0
  -26.9570  -18.8713   20.9030 C   0  0  0  0  0  0
  -27.7801  -17.7541   21.1093 C   0  0  0  0  0  0
  -27.5141  -20.1603   20.8327 C   0  0  0  0  0  0
  -29.7260  -19.2192   21.2022 C   0  0  0  0  0  0
  -29.1733  -17.9019   21.2385 C   0  0  0  0  0  0
  -28.9109  -20.3712   20.9802 C   0  0  0  0  0  0
  -30.0198  -16.6497   21.4286 C   0  0  0  0  0  0
  -29.7243  -16.1949   19.0721 C   0  0  0  0  0  0
  -29.2362  -24.1874   20.5752 C   0  0  0  0  0  0
  -28.8099  -22.7179   20.2550 C   0  0  0  0  0  0
  -28.1468  -25.1797   20.0677 C   0  0  0  0  0  0
  -29.9719  -15.6969   20.4451 N   0  0  0  0  0  0
  -30.6566  -16.5314   22.4818 O   0  0  0  0  0  0
  -29.4972  -21.6431   20.9444 O   0  0  0  0  0  0
  -31.4639  -12.4291   19.1319 H   0  0  0  0  0  0
  -30.3261  -11.3533   19.8946 H   0  0  0  0  0  0
  -29.7404  -11.7031   17.4749 H   0  0  0  0  0  0
  -29.6506  -13.4233   17.7139 H   0  0  0  0  0  0
  -27.8394  -11.2854   18.8665 H   0  0  0  0  0  0
  -27.3654  -12.5673   17.7904 H   0  0  0  0  0  0
  -27.6568  -14.2442   19.5008 H   0  0  0  0  0  0
  -28.7014  -12.0980   21.4147 H   0  0  0  0  0  0
  -28.4762  -13.7881   21.7972 H   0  0  0  0  0  0
  -25.2766   -9.5677   22.4759 H   0  0  0  0  0  0
  -24.0008   -7.4625   22.7471 H   0  0  0  0  0  0
  -21.0834   -8.8772   19.8958 H   0  0  0  0  0  0
  -22.3687  -10.9678   19.6169 H   0  0  0  0  0  0
  -21.2022   -7.6146   23.9714 H   0  0  0  0  0  0
  -21.1468   -6.0506   25.9070 H   0  0  0  0  0  0
  -22.0619   -2.7603   23.2828 H   0  0  0  0  0  0
  -22.4122  -11.9920   22.4840 H   0  0  0  0  0  0
  -21.1115  -13.1286   22.2604 H   0  0  0  0  0  0
  -24.6286  -15.8169   20.4703 H   0  0  0  0  0  0
  -26.2227  -15.6034   19.9569 H   0  0  0  0  0  0
  -26.7119  -32.5525   23.1173 H   0  0  0  0  0  0
  -25.0056  -33.9792   25.0472 H   0  0  0  0  0  0
  -22.6934  -31.3135   21.4179 H   0  0  0  0  0  0
  -23.3735  -35.9661   23.3327 H   0  0  0  0  0  0
  -24.3578  -36.8911   22.2055 H   0  0  0  0  0  0
  -23.7245  -37.6536   23.6644 H   0  0  0  0  0  0
  -26.0596  -31.6018   20.6098 H   0  0  0  0  0  0
  -26.8242  -30.8743   21.9946 H   0  0  0  0  0  0
  -28.0981  -29.0677   21.1868 H   0  0  0  0  0  0
  -25.9887  -25.9826   19.0008 H   0  0  0  0  0  0
  -23.9679  -27.3212   19.0261 H   0  0  0  0  0  0
  -23.7254  -30.6176   19.4125 H   0  0  0  0  0  0
  -22.7362  -29.2645   19.8611 H   0  0  0  0  0  0
  -25.1284  -36.1986   25.0835 H   0  0  0  0  0  0
  -20.9952  -28.3220   24.1436 H   0  0  0  0  0  0
  -20.5674  -26.2257   23.3615 H   0  0  0  0  0  0
  -21.6645  -26.7441   22.1211 H   0  0  0  0  0  0
  -19.6920  -25.6293   21.1234 H   0  0  0  0  0  0
  -19.6696  -27.3185   20.6752 H   0  0  0  0  0  0
  -17.4204  -26.6671   21.4013 H   0  0  0  0  0  0
  -18.0317  -26.0051   22.9000 H   0  0  0  0  0  0
  -19.7940  -30.7245   24.2278 H   0  0  0  0  0  0
  -17.5022  -31.6249   24.5164 H   0  0  0  0  0  0
  -15.5353  -30.2989   23.7643 H   0  0  0  0  0  0
  -15.8663  -28.0819   22.7061 H   0  0  0  0  0  0
  -24.5867  -30.7136   25.7858 H   0  0  0  0  0  0
  -24.8990  -32.2918   26.5000 H   0  0  0  0  0  0
  -25.8099  -30.8875   27.0241 H   0  0  0  0  0  0
  -26.2854  -29.6820   24.1174 H   0  0  0  0  0  0
  -27.4042  -29.7284   25.4614 H   0  0  0  0  0  0
  -27.8705  -30.4367   23.9313 H   0  0  0  0  0  0
  -27.2633  -33.3630   26.2109 H   0  0  0  0  0  0
  -28.3813  -32.6964   25.0301 H   0  0  0  0  0  0
  -28.0744  -31.8468   26.5383 H   0  0  0  0  0  0
  -28.2615  -38.0091   24.7489 H   0  0  0  0  0  0
  -28.1046  -36.2623   24.6311 H   0  0  0  0  0  0
  -27.2294  -37.1497   25.8867 H   0  0  0  0  0  0
  -20.9302  -29.8776   21.6976 H   0  0  0  0  0  0
  -26.0186  -38.2874   24.1400 H   0  0  0  0  0  0
  -25.8884  -18.7391   20.8037 H   0  0  0  0  0  0
  -27.3426  -16.7700   21.1790 H   0  0  0  0  0  0
  -26.8080  -20.9618   20.6894 H   0  0  0  0  0  0
  -30.7921  -19.3448   21.3193 H   0  0  0  0  0  0
  -28.6585  -16.3000   18.8775 H   0  0  0  0  0  0
  -30.1310  -15.5452   18.2948 H   0  0  0  0  0  0
  -30.1931  -17.1686   18.9011 H   0  0  0  0  0  0
  -30.2037  -24.4127   20.1265 H   0  0  0  0  0  0
  -29.3547  -24.3049   21.6522 H   0  0  0  0  0  0
  -28.9121  -22.5433   19.1813 H   0  0  0  0  0  0
  -27.7483  -22.6971   20.4662 H   0  0  0  0  0  0
  -27.2439  -24.9280   20.6292 H   0  0  0  0  0  0
  -27.9461  -24.9567   19.0195 H   0  0  0  0  0  0
  1 25  1  0  0  0
  1 30  2  0  0  0
  1 82  1  0  0  0
  2  3  1  0  0  0
  2 25  1  0  0  0
  2 85  1  0  0  0
  2 86  1  0  0  0
  3  4  1  0  0  0
  3 87  1  0  0  0
  3 88  1  0  0  0
  4  5  1  0  0  0
  4 89  1  0  0  0
  4 90  1  0  0  0
  5  6  1  0  0  0
  5 26  1  0  0  0
  5 91  1  0  0  0
  6 25  1  0  0  0
  6 92  1  0  0  0
  6 93  1  0  0  0
  7  8  2  0  0  0
  7 26  1  0  0  0
  7 29  1  0  0  0
  8  9  1  0  0  0
  8 22  1  0  0  0
  9 10  1  0  0  0
  9 27  2  0  0  0
 10 11  2  0  0  0
 10 15  1  0  0  0
 11 12  1  0  0  0
 11 94  1  0  0  0
 12 13  2  0  0  0
 12 95  1  0  0  0
 13 14  1  0  0  0
 13 31  1  0  0  0
 14 15  2  0  0  0
 14 96  1  0  0  0
 15 97  1  0  0  0
 16 17  2  0  0  0
 16 21  1  0  0  0
 16 31  1  0  0  0
 17 18  1  0  0  0
 17 98  1  0  0  0
 18 19  2  0  0  0
 18 99  1  0  0  0
 19 20  1  0  0  0
 19 24  1  0  0  0
 20 21  2  0  0  0
 20100  1  0  0  0
 21 23  1  0  0  0
 22 28  1  0  0  0
 22 32  2  0  0  0
 26 27  1  0  0  0
 28101  1  0  0  0
 28102  1  0  0  0
 29103  1  0  0  0
 29104  1  0  0  0
 33 34  1  0  0  0
 33 66  1  0  0  0
 33 70  2  0  0  0
 34 36  1  0  0  0
 34 59  1  0  0  0
 34105  1  0  0  0
 35 44  2  0  0  0
 35 45  1  0  0  0
 35 68  1  0  0  0
 36 56  1  0  0  0
 36106  1  0  0  0
 37 39  1  0  0  0
 37 47  1  0  0  0
 37 66  1  0  0  0
 37107  1  0  0  0
 38 43  2  0  0  0
 38 46  1  0  0  0
 38 47  1  0  0  0
 39 64  1  0  0  0
 39 67  2  0  0  0
 40 52  1  0  0  0
 40 53  2  0  0  0
 40 58  1  0  0  0
 41108  1  0  0  0
 41109  1  0  0  0
 41110  1  0  0  0
 41 48  1  0  0  0
 42 43  1  0  0  0
 42 66  1  0  0  0
 42111  1  0  0  0
 42112  1  0  0  0
 43 44  1  0  0  0
 44113  1  0  0  0
 45 46  2  0  0  0
 45114  1  0  0  0
 46115  1  0  0  0
 47116  1  0  0  0
 47117  1  0  0  0
 48 56  1  0  0  0
 48 65  1  0  0  0
 48118  1  0  0  0
 49 50  1  0  0  0
 49 53  1  0  0  0
 49 64  1  0  0  0
 49119  1  0  0  0
 50 51  1  0  0  0
 50120  1  0  0  0
 50121  1  0  0  0
 51 52  1  0  0  0
 51122  1  0  0  0
 51123  1  0  0  0
 52124  1  0  0  0
 52125  1  0  0  0
 53 54  1  0  0  0
 54 55  2  0  0  0
 54126  1  0  0  0
 55 57  1  0  0  0
 55127  1  0  0  0
 56 69  2  0  0  0
 57 58  2  0  0  0
 57128  1  0  0  0
 58129  1  0  0  0
 59 60  1  0  0  0
 59 61  1  0  0  0
 59 62  1  0  0  0
 60130  1  0  0  0
 60131  1  0  0  0
 60132  1  0  0  0
 61133  1  0  0  0
 61134  1  0  0  0
 61135  1  0  0  0
 62136  1  0  0  0
 62137  1  0  0  0
 62138  1  0  0  0
 63 65  1  0  0  0
 63139  1  0  0  0
 63140  1  0  0  0
 63141  1  0  0  0
 64142  1  0  0  0
 65143  1  0  0  0
 68 81  1  0  0  0
 71 72  2  0  0  0
 71 73  1  0  0  0
 71144  1  0  0  0
 72 75  1  0  0  0
 72145  1  0  0  0
 73 76  2  0  0  0
 73146  1  0  0  0
 74 75  2  0  0  0
 74 76  1  0  0  0
 74147  1  0  0  0
 75 77  1  0  0  0
 76 84  1  0  0  0
 77 82  1  0  0  0
 77 83  2  0  0  0
 78 82  1  0  0  0
 78148  1  0  0  0
 78149  1  0  0  0
 78150  1  0  0  0
 79 80  1  0  0  0
 79 81  1  0  0  0
 79151  1  0  0  0
 79152  1  0  0  0
 80 84  1  0  0  0
 80153  1  0  0  0
 80154  1  0  0  0
 81155  1  0  0  0
 81156  1  0  0  0
M  ISO  4   1 100  68 101  81 101  82 100
M  END
> <chiral flag>
0

> <version>
0

> <s_m_source_file>
/data/baiqing/PycharmProjects/Reinvent-master-3.2/result/LINK_invent/BTK/process_docking_weight1_custom_product_contain_oxygen_bond_distance_aromatic_linkinvent_7_9_3/rearranged_h_0103.sdf

> <i_m_source_file_index>
4

> <r_mmod_Potential_Energy-OPLS-2005>
176.200637817383

> <r_mmod_Stretch_Energy-OPLS-2005>
53.3062591552734

> <r_mmod_Bend_Energy-OPLS-2005>
117.868621826172

> <r_mmod_Torsional_Energy-OPLS-2005>
332.376403808594

> <r_mmod_Improper_Torsional_Energy-OPLS-2005>
17.9616966247559

> <r_mmod_Van_der_Waal_Energy-OPLS-2005>
171.107833862305

> <r_mmod_Electrostatic_Energy-OPLS-2005>
-345.036102294922

> <r_mmod_Solvation_Energy-OPLS-2005>
-203.3046875

> <b_mmod_Minimization_Converged-OPLS-2005>
0

> <r_mmod_RMS_Derivative-OPLS-2005>
2.92499279975891

$$$$
4
                    3D
 Structure written by MMmdl.
168177  0  0  1  0            999 V2000
  -30.7607  -14.3832   20.6990 C   0  0  0  0  0  0
  -30.4195  -12.3001   19.3999 C   0  0  0  0  0  0
  -29.4870  -12.5285   18.1957 C   0  0  0  0  0  0
  -28.0110  -12.3780   18.6105 C   0  0  0  0  0  0
  -27.6670  -13.2016   19.8787 C   0  0  2  0  0  0
  -28.7051  -12.9506   20.9940 C   0  0  0  0  0  0
  -25.2614  -13.8150   20.5676 C   0  0  0  0  0  0
  -24.1849  -13.0437   20.9157 C   0  0  0  0  0  0
  -24.6391  -11.6898   20.8714 C   0  0  0  0  0  0
  -23.9051  -10.4288   21.0393 C   0  0  0  0  0  0
  -24.3603   -9.4208   21.9178 C   0  0  0  0  0  0
  -23.6282   -8.2244   22.0752 C   0  0  0  0  0  0
  -22.4266   -8.0277   21.3543 C   0  0  0  0  0  0
  -21.9896   -9.0246   20.4642 C   0  0  0  0  0  0
  -22.7221  -10.2127   20.3046 C   0  0  0  0  0  0
  -21.6852   -6.0732   22.5279 C   0  0  0  0  0  0
  -21.4011   -6.5636   23.8211 C   0  0  0  0  0  0
  -21.3657   -5.6789   24.9171 C   0  0  0  0  0  0
  -21.6043   -4.3052   24.7221 C   0  0  0  0  0  0
  -21.8818   -3.8143   23.4342 C   0  0  0  0  0  0
  -21.9192   -4.6960   22.3399 C   0  0  0  0  0  0
  -22.7873  -13.5246   21.1832 C   0  0  0  0  0  0
  -22.1663   -4.2146   21.0976 F   0  0  0  0  0  0
  -21.5627   -3.4535   25.7733 F   0  0  0  0  0  0
  -30.0459  -13.2492   20.4603 N   0  0  0  0  0  0
  -26.3050  -12.9312   20.3376 N   0  0  0  0  0  0
  -25.9320  -11.6474   20.5747 N   0  0  0  0  0  0
  -22.0509  -12.8237   22.0385 N   0  0  0  0  0  0
  -25.4357  -15.1868   20.4103 N   0  0  0  0  0  0
  -31.7789  -14.6465   20.0450 O   0  0  0  0  0  0
  -21.6636   -6.8873   21.4239 O   0  0  0  0  0  0
  -22.3566  -14.5567   20.6701 O   0  0  0  0  0  0
  -24.6101  -31.8710   23.2136 C   0  0  0  0  0  0
  -25.9012  -32.4843   23.8421 C   0  0  1  0  0  0
  -27.2549  -27.4710   20.0942 C   0  0  0  0  0  0
  -25.5888  -33.8641   24.2356 N   0  0  0  0  0  0
  -23.3980  -30.4923   21.5520 C   0  0  2  0  0  0
  -24.8501  -28.9601   20.1211 C   0  0  0  0  0  0
  -22.7389  -29.4666   22.5013 C   0  0  0  0  0  0
  -18.0266  -28.1374   22.8492 C   0  0  0  0  0  0
  -24.1484  -36.7317   23.2636 C   0  0  0  0  0  0
  -25.9214  -30.8462   21.3634 C   0  0  0  0  0  0
  -26.0042  -29.4787   20.7216 C   0  0  0  0  0  0
  -27.2067  -28.7401   20.7199 C   0  0  0  0  0  0
  -26.0836  -26.9624   19.4973 C   0  0  0  0  0  0
  -24.8811  -27.6945   19.5110 C   0  0  0  0  0  0
  -23.6079  -29.8208   20.1676 C   0  0  0  0  0  0
  -25.4105  -36.3126   24.0343 C   0  0  1  0  0  0
  -20.5852  -28.3653   23.1329 C   0  0  2  0  0  0
  -20.6759  -26.9392   22.5423 C   0  0  0  0  0  0
  -19.5740  -26.6383   21.5214 C   0  0  0  0  0  0
  -18.1914  -26.7927   22.1616 C   0  0  0  0  0  0
  -19.1514  -28.8831   23.2910 C   0  0  0  0  0  0
  -18.9444  -30.1438   23.8918 C   0  0  0  0  0  0
  -17.6446  -30.6581   24.0565 C   0  0  0  0  0  0
  -25.9028  -34.9488   23.5146 C   0  0  0  0  0  0
  -16.5338  -29.9083   23.6327 C   0  0  0  0  0  0
  -16.7256  -28.6502   23.0348 C   0  0  0  0  0  0
  -26.4463  -31.6602   25.0722 C   0  0  0  0  0  0
  -25.3749  -31.3682   26.1483 C   0  0  0  0  0  0
  -27.0279  -30.3049   24.6054 C   0  0  0  0  0  0
  -27.6054  -32.4301   25.7478 C   0  0  0  0  0  0
  -27.5587  -37.1812   24.8463 C   0  0  0  0  0  0
  -21.4122  -29.3024   22.3741 N   0  0  0  0  0  0
  -26.4293  -37.3809   23.9417 N   0  0  0  0  0  0
  -24.6608  -31.0836   22.1023 N   0  0  0  0  0  0
  -23.4173  -28.8214   23.3050 O   0  0  0  0  0  0
  -28.3781  -26.6790   19.9967 O   0  0  0  0  0  0
  -26.5584  -34.8930   22.4703 O   0  0  0  0  0  0
  -23.5303  -32.1448   23.7548 O   0  0  0  0  0  0
  -30.9482  -20.4566   21.7199 C   0  0  0  0  0  0
  -30.7230  -21.7526   21.2090 C   0  0  0  0  0  0
  -32.9714  -21.7759   20.3075 C   0  0  0  0  0  0
  -32.1892  -19.8033   21.5376 C   0  0  0  0  0  0
  -33.2102  -20.4788   20.8139 C   0  0  0  0  0  0
  -31.7334  -22.4356   20.4944 C   0  0  0  0  0  0
  -31.1688  -26.4100   18.8130 C   0  0  0  0  0  0
  -32.4176  -18.4501   22.1676 C   0  0  0  0  0  0
  -31.4284  -16.2383   22.2972 C   0  0  0  0  0  0
  -31.5655  -25.2143   17.9522 C   0  0  0  0  0  0
  -32.2826  -24.1372   18.7802 C   0  0  0  0  0  0
  -30.4488  -24.5993   20.4781 C   0  0  0  0  0  0
  -30.7251  -26.1117   20.2555 C   0  0  2  0  0  0
  -34.5704  -19.8457   20.5466 C   0  0  0  0  0  0
  -30.2599  -15.3785   21.7787 C   0  0  0  0  0  0
  -29.5631  -27.0301   20.7052 C   0  0  0  0  0  0
  -31.5278  -23.7346   19.9725 N   0  0  0  0  0  0
  -31.4917  -17.5191   21.8734 N   0  0  0  0  0  0
  -31.2270  -27.5594   18.3629 O   0  0  0  0  0  0
  -33.4132  -18.2720   22.8789 O   0  0  0  0  0  0
  -32.2163  -15.7300   23.1061 O   0  0  0  0  0  0
  -31.4628  -12.3976   19.0945 H   0  0  0  0  0  0
  -30.3189  -11.2782   19.7693 H   0  0  0  0  0  0
  -29.7238  -11.8248   17.3969 H   0  0  0  0  0  0
  -29.6547  -13.5261   17.7862 H   0  0  0  0  0  0
  -27.8213  -11.3196   18.7936 H   0  0  0  0  0  0
  -27.3567  -12.6658   17.7868 H   0  0  0  0  0  0
  -27.7241  -14.2552   19.6040 H   0  0  0  0  0  0
  -28.6702  -11.9082   21.3135 H   0  0  0  0  0  0
  -28.4344  -13.5262   21.8758 H   0  0  0  0  0  0
  -25.2748   -9.5687   22.4753 H   0  0  0  0  0  0
  -23.9989   -7.4637   22.7475 H   0  0  0  0  0  0
  -21.0829   -8.8758   19.8951 H   0  0  0  0  0  0
  -22.3680  -10.9661   19.6150 H   0  0  0  0  0  0
  -21.2002   -7.6143   23.9714 H   0  0  0  0  0  0
  -21.1480   -6.0517   25.9075 H   0  0  0  0  0  0
  -22.0598   -2.7604   23.2843 H   0  0  0  0  0  0
  -22.4109  -11.9880   22.4753 H   0  0  0  0  0  0
  -21.1135  -13.1277   22.2607 H   0  0  0  0  0  0
  -24.6726  -15.8458   20.5208 H   0  0  0  0  0  0
  -26.2965  -15.6258   20.1073 H   0  0  0  0  0  0
  -26.7088  -32.5583   23.1200 H   0  0  0  0  0  0
  -25.0067  -33.9814   25.0521 H   0  0  0  0  0  0
  -22.6847  -31.3070   21.4115 H   0  0  0  0  0  0
  -23.3756  -35.9639   23.3292 H   0  0  0  0  0  0
  -24.3587  -36.8936   22.2053 H   0  0  0  0  0  0
  -23.7215  -37.6512   23.6649 H   0  0  0  0  0  0
  -26.0232  -31.6073   20.5887 H   0  0  0  0  0  0
  -26.8122  -30.9104   21.9757 H   0  0  0  0  0  0
  -28.0805  -29.1654   21.1906 H   0  0  0  0  0  0
  -26.1069  -25.9951   19.0151 H   0  0  0  0  0  0
  -23.9951  -27.2859   19.0449 H   0  0  0  0  0  0
  -23.7109  -30.5934   19.4047 H   0  0  0  0  0  0
  -22.7352  -29.2344   19.8750 H   0  0  0  0  0  0
  -25.1279  -36.1999   25.0837 H   0  0  0  0  0  0
  -20.9939  -28.3213   24.1452 H   0  0  0  0  0  0
  -20.5659  -26.2259   23.3607 H   0  0  0  0  0  0
  -21.6629  -26.7444   22.1211 H   0  0  0  0  0  0
  -19.6902  -25.6301   21.1229 H   0  0  0  0  0  0
  -19.6692  -27.3207   20.6757 H   0  0  0  0  0  0
  -17.4193  -26.6690   21.4008 H   0  0  0  0  0  0
  -18.0302  -26.0056   22.8995 H   0  0  0  0  0  0
  -19.7919  -30.7248   24.2300 H   0  0  0  0  0  0
  -17.5000  -31.6267   24.5155 H   0  0  0  0  0  0
  -15.5338  -30.2991   23.7650 H   0  0  0  0  0  0
  -15.8652  -28.0830   22.7053 H   0  0  0  0  0  0
  -24.5914  -30.7042   25.7818 H   0  0  0  0  0  0
  -24.8951  -32.2829   26.4976 H   0  0  0  0  0  0
  -25.8116  -30.8817   27.0213 H   0  0  0  0  0  0
  -26.2802  -29.6819   24.1130 H   0  0  0  0  0  0
  -27.4090  -29.7270   25.4484 H   0  0  0  0  0  0
  -27.8622  -30.4380   23.9162 H   0  0  0  0  0  0
  -27.2695  -33.3604   26.2074 H   0  0  0  0  0  0
  -28.3858  -32.6853   25.0297 H   0  0  0  0  0  0
  -28.0721  -31.8404   26.5378 H   0  0  0  0  0  0
  -28.2599  -38.0117   24.7531 H   0  0  0  0  0  0
  -28.1089  -36.2651   24.6258 H   0  0  0  0  0  0
  -27.2310  -37.1421   25.8866 H   0  0  0  0  0  0
  -20.9280  -29.8737   21.6957 H   0  0  0  0  0  0
  -26.0185  -38.2886   24.1436 H   0  0  0  0  0  0
  -30.1591  -19.9736   22.2794 H   0  0  0  0  0  0
  -29.7561  -22.2054   21.3737 H   0  0  0  0  0  0
  -33.7722  -22.2697   19.7763 H   0  0  0  0  0  0
  -32.2063  -25.5492   17.1364 H   0  0  0  0  0  0
  -30.6630  -24.8036   17.4998 H   0  0  0  0  0  0
  -33.2630  -24.5063   19.0870 H   0  0  0  0  0  0
  -32.4592  -23.2738   18.1363 H   0  0  0  0  0  0
  -29.5130  -24.3147   19.9940 H   0  0  0  0  0  0
  -30.3122  -24.4297   21.5471 H   0  0  0  0  0  0
  -31.5859  -26.3717   20.8714 H   0  0  0  0  0  0
  -35.1426  -20.4173   19.8149 H   0  0  0  0  0  0
  -34.4619  -18.8353   20.1512 H   0  0  0  0  0  0
  -35.1614  -19.7981   21.4617 H   0  0  0  0  0  0
  -29.4563  -15.9946   21.3755 H   0  0  0  0  0  0
  -29.8718  -14.8491   22.6468 H   0  0  0  0  0  0
  -29.8370  -28.0706   20.5274 H   0  0  0  0  0  0
  -29.3915  -26.9218   21.7767 H   0  0  0  0  0  0
  -30.7725  -17.8276   21.2390 H   0  0  0  0  0  0
  1 25  1  0  0  0
  1 30  2  0  0  0
  1 85  1  0  0  0
  2  3  1  0  0  0
  2 25  1  0  0  0
  2 92  1  0  0  0
  2 93  1  0  0  0
  3  4  1  0  0  0
  3 94  1  0  0  0
  3 95  1  0  0  0
  4  5  1  0  0  0
  4 96  1  0  0  0
  4 97  1  0  0  0
  5  6  1  0  0  0
  5 26  1  0  0  0
  5 98  1  0  0  0
  6 25  1  0  0  0
  6 99  1  0  0  0
  6100  1  0  0  0
  7  8  2  0  0  0
  7 26  1  0  0  0
  7 29  1  0  0  0
  8  9  1  0  0  0
  8 22  1  0  0  0
  9 10  1  0  0  0
  9 27  2  0  0  0
 10 11  2  0  0  0
 10 15  1  0  0  0
 11 12  1  0  0  0
 11101  1  0  0  0
 12 13  2  0  0  0
 12102  1  0  0  0
 13 14  1  0  0  0
 13 31  1  0  0  0
 14 15  2  0  0  0
 14103  1  0  0  0
 15104  1  0  0  0
 16 17  2  0  0  0
 16 21  1  0  0  0
 16 31  1  0  0  0
 17 18  1  0  0  0
 17105  1  0  0  0
 18 19  2  0  0  0
 18106  1  0  0  0
 19 20  1  0  0  0
 19 24  1  0  0  0
 20 21  2  0  0  0
 20107  1  0  0  0
 21 23  1  0  0  0
 22 28  1  0  0  0
 22 32  2  0  0  0
 26 27  1  0  0  0
 28108  1  0  0  0
 28109  1  0  0  0
 29110  1  0  0  0
 29111  1  0  0  0
 33 34  1  0  0  0
 33 66  1  0  0  0
 33 70  2  0  0  0
 34 36  1  0  0  0
 34 59  1  0  0  0
 34112  1  0  0  0
 35 44  2  0  0  0
 35 45  1  0  0  0
 35 68  1  0  0  0
 36 56  1  0  0  0
 36113  1  0  0  0
 37 39  1  0  0  0
 37 47  1  0  0  0
 37 66  1  0  0  0
 37114  1  0  0  0
 38 43  2  0  0  0
 38 46  1  0  0  0
 38 47  1  0  0  0
 39 64  1  0  0  0
 39 67  2  0  0  0
 40 52  1  0  0  0
 40 53  2  0  0  0
 40 58  1  0  0  0
 41115  1  0  0  0
 41116  1  0  0  0
 41117  1  0  0  0
 41 48  1  0  0  0
 42 43  1  0  0  0
 42 66  1  0  0  0
 42118  1  0  0  0
 42119  1  0  0  0
 43 44  1  0  0  0
 44120  1  0  0  0
 45 46  2  0  0  0
 45121  1  0  0  0
 46122  1  0  0  0
 47123  1  0  0  0
 47124  1  0  0  0
 48 56  1  0  0  0
 48 65  1  0  0  0
 48125  1  0  0  0
 49 50  1  0  0  0
 49 53  1  0  0  0
 49 64  1  0  0  0
 49126  1  0  0  0
 50 51  1  0  0  0
 50127  1  0  0  0
 50128  1  0  0  0
 51 52  1  0  0  0
 51129  1  0  0  0
 51130  1  0  0  0
 52131  1  0  0  0
 52132  1  0  0  0
 53 54  1  0  0  0
 54 55  2  0  0  0
 54133  1  0  0  0
 55 57  1  0  0  0
 55134  1  0  0  0
 56 69  2  0  0  0
 57 58  2  0  0  0
 57135  1  0  0  0
 58136  1  0  0  0
 59 60  1  0  0  0
 59 61  1  0  0  0
 59 62  1  0  0  0
 60137  1  0  0  0
 60138  1  0  0  0
 60139  1  0  0  0
 61140  1  0  0  0
 61141  1  0  0  0
 61142  1  0  0  0
 62143  1  0  0  0
 62144  1  0  0  0
 62145  1  0  0  0
 63 65  1  0  0  0
 63146  1  0  0  0
 63147  1  0  0  0
 63148  1  0  0  0
 64149  1  0  0  0
 65150  1  0  0  0
 68 86  1  0  0  0
 71 72  2  0  0  0
 71 74  1  0  0  0
 71151  1  0  0  0
 72 76  1  0  0  0
 72152  1  0  0  0
 73 75  1  0  0  0
 73 76  2  0  0  0
 73153  1  0  0  0
 74 75  2  0  0  0
 74 78  1  0  0  0
 75 84  1  0  0  0
 76 87  1  0  0  0
 77 80  1  0  0  0
 77 83  1  0  0  0
 77 89  2  0  0  0
 78 88  1  0  0  0
 78 90  2  0  0  0
 79 85  1  0  0  0
 79 88  1  0  0  0
 79 91  2  0  0  0
 80 81  1  0  0  0
 80154  1  0  0  0
 80155  1  0  0  0
 81 87  1  0  0  0
 81156  1  0  0  0
 81157  1  0  0  0
 82 83  1  0  0  0
 82 87  1  0  0  0
 82158  1  0  0  0
 82159  1  0  0  0
 83 86  1  0  0  0
 83160  1  0  0  0
 84161  1  0  0  0
 84162  1  0  0  0
 84163  1  0  0  0
 85164  1  0  0  0
 85165  1  0  0  0
 86166  1  0  0  0
 86167  1  0  0  0
 88168  1  0  0  0
M  ISO  4   1 100  68 101  85 100  86 101
M  END
> <chiral flag>
0

> <version>
0

> <s_m_source_file>
/data/baiqing/PycharmProjects/Reinvent-master-3.2/result/LINK_invent/BTK/process_docking_weight1_custom_product_contain_oxygen_bond_distance_aromatic_linkinvent_7_9_3/rearranged_h_0103.sdf

> <i_m_source_file_index>
5

> <r_mmod_Potential_Energy-OPLS-2005>
-144.307083129883

> <r_mmod_Stretch_Energy-OPLS-2005>
39.9745826721191

> <r_mmod_Bend_Energy-OPLS-2005>
121.924354553223

> <r_mmod_Torsional_Energy-OPLS-2005>
167.03547668457

> <r_mmod_Improper_Torsional_Energy-OPLS-2005>
2.24378991127014

> <r_mmod_Van_der_Waal_Energy-OPLS-2005>
184.534240722656

> <r_mmod_Electrostatic_Energy-OPLS-2005>
-378.416351318359

> <r_mmod_Solvation_Energy-OPLS-2005>
-288.154388427734

> <b_mmod_Minimization_Converged-OPLS-2005>
0

> <r_mmod_RMS_Derivative-OPLS-2005>
0.62673419713974

$$$$
5
                    3D
 Structure written by MMmdl.
160169  0  0  1  0            999 V2000
  -30.7099  -14.5474   20.5563 C   0  0  0  0  0  0
  -30.4156  -12.3558   19.4353 C   0  0  0  0  0  0
  -29.4908  -12.5031   18.2112 C   0  0  0  0  0  0
  -28.0167  -12.3415   18.6288 C   0  0  0  0  0  0
  -27.6475  -13.2101   19.8599 C   0  0  2  0  0  0
  -28.6933  -13.0677   20.9885 C   0  0  0  0  0  0
  -25.2534  -13.8157   20.5686 C   0  0  0  0  0  0
  -24.1806  -13.0430   20.9209 C   0  0  0  0  0  0
  -24.6370  -11.6900   20.8757 C   0  0  0  0  0  0
  -23.9042  -10.4287   21.0415 C   0  0  0  0  0  0
  -24.3599   -9.4203   21.9188 C   0  0  0  0  0  0
  -23.6284   -8.2235   22.0757 C   0  0  0  0  0  0
  -22.4265   -8.0273   21.3547 C   0  0  0  0  0  0
  -21.9895   -9.0246   20.4650 C   0  0  0  0  0  0
  -22.7217  -10.2129   20.3061 C   0  0  0  0  0  0
  -21.6850   -6.0727   22.5280 C   0  0  0  0  0  0
  -21.4010   -6.5631   23.8213 C   0  0  0  0  0  0
  -21.3663   -5.6786   24.9176 C   0  0  0  0  0  0
  -21.6048   -4.3050   24.7224 C   0  0  0  0  0  0
  -21.8820   -3.8141   23.4346 C   0  0  0  0  0  0
  -21.9194   -4.6957   22.3404 C   0  0  0  0  0  0
  -22.7830  -13.5232   21.1862 C   0  0  0  0  0  0
  -22.1661   -4.2144   21.0980 F   0  0  0  0  0  0
  -21.5633   -3.4535   25.7738 F   0  0  0  0  0  0
  -30.0154  -13.3767   20.4226 N   0  0  0  0  0  0
  -26.2954  -12.9327   20.3320 N   0  0  0  0  0  0
  -25.9291  -11.6489   20.5771 N   0  0  0  0  0  0
  -22.0462  -12.8238   22.0419 N   0  0  0  0  0  0
  -25.4219  -15.1873   20.4063 N   0  0  0  0  0  0
  -31.8527  -14.6734   20.1053 O   0  0  0  0  0  0
  -21.6634   -6.8868   21.4240 O   0  0  0  0  0  0
  -22.3526  -14.5538   20.6702 O   0  0  0  0  0  0
  -24.6195  -31.8645   23.2068 C   0  0  0  0  0  0
  -25.9069  -32.4806   23.8379 C   0  0  1  0  0  0
  -27.2341  -27.3927   20.0953 C   0  0  0  0  0  0
  -25.5909  -33.8606   24.2313 N   0  0  0  0  0  0
  -23.4105  -30.4878   21.5476 C   0  0  2  0  0  0
  -24.8582  -28.9511   20.1091 C   0  0  0  0  0  0
  -22.7441  -29.4641   22.4962 C   0  0  0  0  0  0
  -18.0281  -28.1384   22.8493 C   0  0  0  0  0  0
  -24.1486  -36.7302   23.2636 C   0  0  0  0  0  0
  -25.9442  -30.8162   21.3676 C   0  0  0  0  0  0
  -26.0213  -29.4486   20.7107 C   0  0  0  0  0  0
  -27.2110  -28.6750   20.7046 C   0  0  0  0  0  0
  -26.0487  -26.9192   19.4903 C   0  0  0  0  0  0
  -24.8688  -27.6873   19.4949 C   0  0  0  0  0  0
  -23.6219  -29.8224   20.1615 C   0  0  0  0  0  0
  -25.4107  -36.3102   24.0338 C   0  0  1  0  0  0
  -20.5875  -28.3677   23.1307 C   0  0  2  0  0  0
  -20.6771  -26.9408   22.5418 C   0  0  0  0  0  0
  -19.5747  -26.6391   21.5217 C   0  0  0  0  0  0
  -18.1926  -26.7931   22.1627 C   0  0  0  0  0  0
  -19.1531  -28.8846   23.2896 C   0  0  0  0  0  0
  -18.9455  -30.1451   23.8907 C   0  0  0  0  0  0
  -17.6457  -30.6590   24.0566 C   0  0  0  0  0  0
  -25.9039  -34.9467   23.5124 C   0  0  0  0  0  0
  -16.5348  -29.9092   23.6326 C   0  0  0  0  0  0
  -16.7269  -28.6509   23.0350 C   0  0  0  0  0  0
  -26.4481  -31.6596   25.0723 C   0  0  0  0  0  0
  -25.3738  -31.3718   26.1469 C   0  0  0  0  0  0
  -27.0308  -30.3030   24.6124 C   0  0  0  0  0  0
  -27.6060  -32.4314   25.7480 C   0  0  0  0  0  0
  -27.5585  -37.1799   24.8462 C   0  0  0  0  0  0
  -21.4162  -29.3038   22.3705 N   0  0  0  0  0  0
  -26.4289  -37.3792   23.9419 N   0  0  0  0  0  0
  -24.6764  -31.0711   22.0988 N   0  0  0  0  0  0
  -23.4191  -28.8183   23.3020 O   0  0  0  0  0  0
  -28.3544  -26.5766   20.1614 O   0  0  0  0  0  0
  -26.5601  -34.8925   22.4687 O   0  0  0  0  0  0
  -23.5375  -32.1413   23.7435 O   0  0  0  0  0  0
  -30.3517  -18.4896   19.6226 C   0  0  0  0  0  0
  -28.4738  -18.9318   21.0731 C   0  0  0  0  0  0
  -30.4591  -19.8788   19.3612 C   0  0  0  0  0  0
  -28.5888  -20.3269   20.8160 C   0  0  0  0  0  0
  -29.3353  -17.9849   20.4613 C   0  0  0  0  0  0
  -29.5632  -20.8319   19.9199 C   0  0  0  0  0  0
  -28.9310  -24.4554   19.0285 C   0  0  0  0  0  0
  -28.6729  -25.7933   19.0707 C   0  0  0  0  0  0
  -29.3609  -23.7794   17.7517 C   0  0  0  0  0  0
  -28.9230  -23.3674   20.1137 C   0  0  0  0  0  0
  -30.1141  -22.5235   18.1928 C   0  0  0  0  0  0
  -30.8760  -16.2345   22.2953 C   0  0  0  0  0  0
  -29.0868  -16.4557   20.5995 C   0  0  0  0  0  0
  -29.6496  -22.2085   19.5423 N   0  0  0  0  0  0
  -30.1215  -15.5841   21.2223 N   0  0  0  0  0  0
  -31.4594  -12.4493   19.1306 H   0  0  0  0  0  0
  -30.3238  -11.3591   19.8697 H   0  0  0  0  0  0
  -29.7474  -11.7622   17.4525 H   0  0  0  0  0  0
  -29.6392  -13.4799   17.7485 H   0  0  0  0  0  0
  -27.8527  -11.2878   18.8582 H   0  0  0  0  0  0
  -27.3587  -12.5751   17.7909 H   0  0  0  0  0  0
  -27.6586  -14.2402   19.5129 H   0  0  0  0  0  0
  -28.6899  -12.0522   21.3876 H   0  0  0  0  0  0
  -28.4444  -13.7183   21.8280 H   0  0  0  0  0  0
  -25.2742   -9.5687   22.4760 H   0  0  0  0  0  0
  -24.0002   -7.4625   22.7470 H   0  0  0  0  0  0
  -21.0831   -8.8759   19.8952 H   0  0  0  0  0  0
  -22.3674  -10.9667   19.6171 H   0  0  0  0  0  0
  -21.1993   -7.6136   23.9714 H   0  0  0  0  0  0
  -21.1488   -6.0512   25.9079 H   0  0  0  0  0  0
  -22.0595   -2.7602   23.2845 H   0  0  0  0  0  0
  -22.4062  -11.9905   22.4828 H   0  0  0  0  0  0
  -21.1082  -13.1281   22.2608 H   0  0  0  0  0  0
  -24.6487  -15.8360   20.5082 H   0  0  0  0  0  0
  -26.2609  -15.6261   20.0516 H   0  0  0  0  0  0
  -26.7139  -32.5502   23.1137 H   0  0  0  0  0  0
  -25.0075  -33.9761   25.0470 H   0  0  0  0  0  0
  -22.7014  -31.3062   21.4075 H   0  0  0  0  0  0
  -23.3754  -35.9627   23.3296 H   0  0  0  0  0  0
  -24.3584  -36.8917   22.2052 H   0  0  0  0  0  0
  -23.7225  -37.6502   23.6648 H   0  0  0  0  0  0
  -26.0649  -31.5823   20.6004 H   0  0  0  0  0  0
  -26.8291  -30.8670   21.9904 H   0  0  0  0  0  0
  -28.1048  -29.0471   21.1852 H   0  0  0  0  0  0
  -26.0237  -25.9383   19.0369 H   0  0  0  0  0  0
  -23.9729  -27.2953   19.0332 H   0  0  0  0  0  0
  -23.7336  -30.5988   19.4037 H   0  0  0  0  0  0
  -22.7447  -29.2461   19.8630 H   0  0  0  0  0  0
  -25.1280  -36.1964   25.0832 H   0  0  0  0  0  0
  -20.9972  -28.3248   24.1426 H   0  0  0  0  0  0
  -20.5681  -26.2283   23.3609 H   0  0  0  0  0  0
  -21.6639  -26.7454   22.1202 H   0  0  0  0  0  0
  -19.6906  -25.6304   21.1242 H   0  0  0  0  0  0
  -19.6687  -27.3207   20.6750 H   0  0  0  0  0  0
  -17.4198  -26.6683   21.4027 H   0  0  0  0  0  0
  -18.0322  -26.0075   22.9023 H   0  0  0  0  0  0
  -19.7930  -30.7263   24.2286 H   0  0  0  0  0  0
  -17.5012  -31.6271   24.5166 H   0  0  0  0  0  0
  -15.5347  -30.2998   23.7643 H   0  0  0  0  0  0
  -15.8670  -28.0832   22.7060 H   0  0  0  0  0  0
  -24.5899  -30.7082   25.7804 H   0  0  0  0  0  0
  -24.8944  -32.2880   26.4927 H   0  0  0  0  0  0
  -25.8083  -30.8872   27.0222 H   0  0  0  0  0  0
  -26.2853  -29.6796   24.1172 H   0  0  0  0  0  0
  -27.4058  -29.7271   25.4595 H   0  0  0  0  0  0
  -27.8705  -30.4339   23.9294 H   0  0  0  0  0  0
  -27.2691  -33.3616   26.2068 H   0  0  0  0  0  0
  -28.3861  -32.6867   25.0295 H   0  0  0  0  0  0
  -28.0738  -31.8427   26.5384 H   0  0  0  0  0  0
  -28.2592  -38.0108   24.7539 H   0  0  0  0  0  0
  -28.1092  -36.2644   24.6246 H   0  0  0  0  0  0
  -27.2310  -37.1404   25.8865 H   0  0  0  0  0  0
  -20.9330  -29.8759   21.6923 H   0  0  0  0  0  0
  -26.0179  -38.2868   24.1437 H   0  0  0  0  0  0
  -31.0330  -17.8066   19.1342 H   0  0  0  0  0  0
  -27.6805  -18.5885   21.7227 H   0  0  0  0  0  0
  -31.2439  -20.1990   18.6909 H   0  0  0  0  0  0
  -27.8836  -20.9976   21.2852 H   0  0  0  0  0  0
  -28.7421  -26.4009   18.1785 H   0  0  0  0  0  0
  -29.9648  -24.4269   17.1146 H   0  0  0  0  0  0
  -28.4651  -23.5001   17.1958 H   0  0  0  0  0  0
  -27.8919  -23.1021   20.3508 H   0  0  0  0  0  0
  -29.4038  -23.7306   21.0233 H   0  0  0  0  0  0
  -31.1881  -22.7156   18.2230 H   0  0  0  0  0  0
  -29.9394  -21.7115   17.4844 H   0  0  0  0  0  0
  -30.2171  -16.8251   22.9325 H   0  0  0  0  0  0
  -31.6430  -16.8941   21.8868 H   0  0  0  0  0  0
  -31.3684  -15.4972   22.9316 H   0  0  0  0  0  0
  -28.8847  -16.1003   19.5881 H   0  0  0  0  0  0
  -28.1613  -16.3003   21.1551 H   0  0  0  0  0  0
  1 25  1  0  0  0
  1 30  2  0  0  0
  1 85  1  0  0  0
  2  3  1  0  0  0
  2 25  1  0  0  0
  2 86  1  0  0  0
  2 87  1  0  0  0
  3  4  1  0  0  0
  3 88  1  0  0  0
  3 89  1  0  0  0
  4  5  1  0  0  0
  4 90  1  0  0  0
  4 91  1  0  0  0
  5  6  1  0  0  0
  5 26  1  0  0  0
  5 92  1  0  0  0
  6 25  1  0  0  0
  6 93  1  0  0  0
  6 94  1  0  0  0
  7  8  2  0  0  0
  7 26  1  0  0  0
  7 29  1  0  0  0
  8  9  1  0  0  0
  8 22  1  0  0  0
  9 10  1  0  0  0
  9 27  2  0  0  0
 10 11  2  0  0  0
 10 15  1  0  0  0
 11 12  1  0  0  0
 11 95  1  0  0  0
 12 13  2  0  0  0
 12 96  1  0  0  0
 13 14  1  0  0  0
 13 31  1  0  0  0
 14 15  2  0  0  0
 14 97  1  0  0  0
 15 98  1  0  0  0
 16 17  2  0  0  0
 16 21  1  0  0  0
 16 31  1  0  0  0
 17 18  1  0  0  0
 17 99  1  0  0  0
 18 19  2  0  0  0
 18100  1  0  0  0
 19 20  1  0  0  0
 19 24  1  0  0  0
 20 21  2  0  0  0
 20101  1  0  0  0
 21 23  1  0  0  0
 22 28  1  0  0  0
 22 32  2  0  0  0
 26 27  1  0  0  0
 28102  1  0  0  0
 28103  1  0  0  0
 29104  1  0  0  0
 29105  1  0  0  0
 33 34  1  0  0  0
 33 66  1  0  0  0
 33 70  2  0  0  0
 34 36  1  0  0  0
 34 59  1  0  0  0
 34106  1  0  0  0
 35 44  2  0  0  0
 35 45  1  0  0  0
 35 68  1  0  0  0
 36 56  1  0  0  0
 36107  1  0  0  0
 37 39  1  0  0  0
 37 47  1  0  0  0
 37 66  1  0  0  0
 37108  1  0  0  0
 38 43  2  0  0  0
 38 46  1  0  0  0
 38 47  1  0  0  0
 39 64  1  0  0  0
 39 67  2  0  0  0
 40 52  1  0  0  0
 40 53  2  0  0  0
 40 58  1  0  0  0
 41109  1  0  0  0
 41110  1  0  0  0
 41111  1  0  0  0
 41 48  1  0  0  0
 42 43  1  0  0  0
 42 66  1  0  0  0
 42112  1  0  0  0
 42113  1  0  0  0
 43 44  1  0  0  0
 44114  1  0  0  0
 45 46  2  0  0  0
 45115  1  0  0  0
 46116  1  0  0  0
 47117  1  0  0  0
 47118  1  0  0  0
 48 56  1  0  0  0
 48 65  1  0  0  0
 48119  1  0  0  0
 49 50  1  0  0  0
 49 53  1  0  0  0
 49 64  1  0  0  0
 49120  1  0  0  0
 50 51  1  0  0  0
 50121  1  0  0  0
 50122  1  0  0  0
 51 52  1  0  0  0
 51123  1  0  0  0
 51124  1  0  0  0
 52125  1  0  0  0
 52126  1  0  0  0
 53 54  1  0  0  0
 54 55  2  0  0  0
 54127  1  0  0  0
 55 57  1  0  0  0
 55128  1  0  0  0
 56 69  2  0  0  0
 57 58  2  0  0  0
 57129  1  0  0  0
 58130  1  0  0  0
 59 60  1  0  0  0
 59 61  1  0  0  0
 59 62  1  0  0  0
 60131  1  0  0  0
 60132  1  0  0  0
 60133  1  0  0  0
 61134  1  0  0  0
 61135  1  0  0  0
 61136  1  0  0  0
 62137  1  0  0  0
 62138  1  0  0  0
 62139  1  0  0  0
 63 65  1  0  0  0
 63140  1  0  0  0
 63141  1  0  0  0
 63142  1  0  0  0
 64143  1  0  0  0
 65144  1  0  0  0
 68 78  1  0  0  0
 71 73  2  0  0  0
 71 75  1  0  0  0
 71145  1  0  0  0
 72 74  1  0  0  0
 72 75  2  0  0  0
 72146  1  0  0  0
 73 76  1  0  0  0
 73147  1  0  0  0
 74 76  2  0  0  0
 74148  1  0  0  0
 75 83  1  0  0  0
 76 84  1  0  0  0
 77 78  2  0  0  0
 77 79  1  0  0  0
 77 80  1  0  0  0
 78149  1  0  0  0
 79 81  1  0  0  0
 79150  1  0  0  0
 79151  1  0  0  0
 80 84  1  0  0  0
 80152  1  0  0  0
 80153  1  0  0  0
 81 84  1  0  0  0
 81154  1  0  0  0
 81155  1  0  0  0
 82 85  1  0  0  0
 82156  1  0  0  0
 82157  1  0  0  0
 82158  1  0  0  0
 83 85  1  0  0  0
 83159  1  0  0  0
 83160  1  0  0  0
M  ISO  4   1 100  68 101  78 101  85 100
M  END
> <chiral flag>
0

> <version>
0

> <s_m_source_file>
/data/baiqing/PycharmProjects/Reinvent-master-3.2/result/LINK_invent/BTK/process_docking_weight1_custom_product_contain_oxygen_bond_distance_aromatic_linkinvent_7_9_3/rearranged_h_0103.sdf

> <i_m_source_file_index>
6

> <r_mmod_Potential_Energy-OPLS-2005>
154.901931762695

> <r_mmod_Stretch_Energy-OPLS-2005>
51.4703598022461

> <r_mmod_Bend_Energy-OPLS-2005>
163.238784790039

> <r_mmod_Torsional_Energy-OPLS-2005>
292.825256347656

> <r_mmod_Improper_Torsional_Energy-OPLS-2005>
5.51269197463989

> <r_mmod_Van_der_Waal_Energy-OPLS-2005>
143.176300048828

> <r_mmod_Electrostatic_Energy-OPLS-2005>
-312.377014160156

> <r_mmod_Solvation_Energy-OPLS-2005>
-215.439041137695

> <b_mmod_Minimization_Converged-OPLS-2005>
0

> <r_mmod_RMS_Derivative-OPLS-2005>
0.67560476064682

$$$$
6
                    3D
 Structure written by MMmdl.
161170  0  0  1  0            999 V2000
  -30.6735  -14.6474   20.5107 C   0  0  0  0  0  0
  -30.4180  -12.4071   19.4611 C   0  0  0  0  0  0
  -29.5009  -12.5061   18.2255 C   0  0  0  0  0  0
  -28.0248  -12.3455   18.6374 C   0  0  0  0  0  0
  -27.6435  -13.2302   19.8549 C   0  0  2  0  0  0
  -28.6868  -13.1336   20.9885 C   0  0  0  0  0  0
  -25.2514  -13.8201   20.5690 C   0  0  0  0  0  0
  -24.1801  -13.0449   20.9204 C   0  0  0  0  0  0
  -24.6388  -11.6923   20.8751 C   0  0  0  0  0  0
  -23.9064  -10.4298   21.0408 C   0  0  0  0  0  0
  -24.3617   -9.4213   21.9186 C   0  0  0  0  0  0
  -23.6300   -8.2243   22.0752 C   0  0  0  0  0  0
  -22.4285   -8.0274   21.3536 C   0  0  0  0  0  0
  -21.9910   -9.0247   20.4641 C   0  0  0  0  0  0
  -22.7232  -10.2134   20.3057 C   0  0  0  0  0  0
  -21.6858   -6.0733   22.5280 C   0  0  0  0  0  0
  -21.4013   -6.5636   23.8213 C   0  0  0  0  0  0
  -21.3659   -5.6790   24.9176 C   0  0  0  0  0  0
  -21.6050   -4.3053   24.7229 C   0  0  0  0  0  0
  -21.8819   -3.8146   23.4352 C   0  0  0  0  0  0
  -21.9193   -4.6960   22.3407 C   0  0  0  0  0  0
  -22.7822  -13.5231   21.1862 C   0  0  0  0  0  0
  -22.1661   -4.2145   21.0985 F   0  0  0  0  0  0
  -21.5631   -3.4536   25.7741 F   0  0  0  0  0  0
  -29.9943  -13.4610   20.4082 N   0  0  0  0  0  0
  -26.2939  -12.9406   20.3301 N   0  0  0  0  0  0
  -25.9316  -11.6550   20.5756 N   0  0  0  0  0  0
  -22.0457  -12.8223   22.0409 N   0  0  0  0  0  0
  -25.4227  -15.1920   20.4077 N   0  0  0  0  0  0
  -31.8509  -14.7165   20.1500 O   0  0  0  0  0  0
  -21.6644   -6.8875   21.4240 O   0  0  0  0  0  0
  -22.3501  -14.5528   20.6698 O   0  0  0  0  0  0
  -24.6259  -31.8593   23.2022 C   0  0  0  0  0  0
  -25.9109  -32.4780   23.8353 C   0  0  1  0  0  0
  -27.2152  -27.3119   20.1324 C   0  0  0  0  0  0
  -25.5923  -33.8582   24.2278 N   0  0  0  0  0  0
  -23.4199  -30.4831   21.5437 C   0  0  2  0  0  0
  -24.8660  -28.9347   20.1134 C   0  0  0  0  0  0
  -22.7473  -29.4619   22.4924 C   0  0  0  0  0  0
  -18.0282  -28.1389   22.8479 C   0  0  0  0  0  0
  -24.1481  -36.7296   23.2637 C   0  0  0  0  0  0
  -25.9603  -30.7894   21.3734 C   0  0  0  0  0  0
  -26.0339  -29.4146   20.7201 C   0  0  0  0  0  0
  -27.2147  -28.6151   20.7167 C   0  0  0  0  0  0
  -26.0303  -26.8854   19.4963 C   0  0  0  0  0  0
  -24.8654  -27.6759   19.4920 C   0  0  0  0  0  0
  -23.6371  -29.8182   20.1584 C   0  0  0  0  0  0
  -25.4107  -36.3085   24.0325 C   0  0  1  0  0  0
  -20.5881  -28.3693   23.1277 C   0  0  2  0  0  0
  -20.6772  -26.9418   22.5404 C   0  0  0  0  0  0
  -19.5753  -26.6383   21.5204 C   0  0  0  0  0  0
  -18.1930  -26.7929   22.1616 C   0  0  0  0  0  0
  -19.1533  -28.8855   23.2874 C   0  0  0  0  0  0
  -18.9464  -30.1457   23.8899 C   0  0  0  0  0  0
  -17.6465  -30.6592   24.0560 C   0  0  0  0  0  0
  -25.9049  -34.9456   23.5102 C   0  0  0  0  0  0
  -16.5355  -29.9095   23.6327 C   0  0  0  0  0  0
  -16.7270  -28.6508   23.0351 C   0  0  0  0  0  0
  -26.4495  -31.6595   25.0729 C   0  0  0  0  0  0
  -25.3728  -31.3747   26.1458 C   0  0  0  0  0  0
  -27.0342  -30.3014   24.6191 C   0  0  0  0  0  0
  -27.6046  -32.4335   25.7513 C   0  0  0  0  0  0
  -27.5576  -37.1805   24.8464 C   0  0  0  0  0  0
  -21.4183  -29.3047   22.3675 N   0  0  0  0  0  0
  -26.4283  -37.3779   23.9412 N   0  0  0  0  0  0
  -24.6876  -31.0606   22.0973 N   0  0  0  0  0  0
  -23.4194  -28.8150   23.2997 O   0  0  0  0  0  0
  -28.3302  -26.4656   20.1495 O   0  0  0  0  0  0
  -26.5619  -34.8927   22.4669 O   0  0  0  0  0  0
  -23.5424  -32.1388   23.7352 O   0  0  0  0  0  0
  -28.9586  -20.5969   20.3974 C   0  0  0  0  0  0
  -31.0548  -20.9036   21.4931 C   0  0  0  0  0  0
  -29.1249  -19.1584   20.4896 C   0  0  0  0  0  0
  -30.2853  -18.5747   21.0935 C   0  0  0  0  0  0
  -29.9231  -21.5322   20.8978 C   0  0  0  0  0  0
  -31.2271  -19.5059   21.5904 C   0  0  0  0  0  0
  -30.8754  -23.8198   21.2048 C   0  0  0  0  0  0
  -31.1701  -24.9162   20.1921 C   0  0  0  0  0  0
  -30.1732  -24.5901   19.0848 C   0  0  0  0  0  0
  -29.0515  -23.8952   19.8650 C   0  0  2  0  0  0
  -28.0434  -18.2529   19.9339 C   0  0  0  0  0  0
  -30.6982  -17.0571   21.3126 C   0  0  0  0  0  0
  -28.1484  -25.0424   20.5495 C   0  0  0  0  0  0
  -29.8482  -23.0260   20.8097 N   0  0  0  0  0  0
  -29.9998  -15.7899   20.8790 N   0  0  0  0  0  0
  -31.4994  -23.7509   22.2681 O   0  0  0  0  0  0
  -32.3557  -19.0523   22.1879 F   0  0  0  0  0  0
  -31.4625  -12.5050   19.1618 H   0  0  0  0  0  0
  -30.3347  -11.4239   19.9267 H   0  0  0  0  0  0
  -29.7703  -11.7457   17.4915 H   0  0  0  0  0  0
  -29.6437  -13.4713   17.7363 H   0  0  0  0  0  0
  -27.8649  -11.2940   18.8789 H   0  0  0  0  0  0
  -27.3707  -12.5661   17.7924 H   0  0  0  0  0  0
  -27.6496  -14.2596   19.4955 H   0  0  0  0  0  0
  -28.7023  -12.1295   21.4138 H   0  0  0  0  0  0
  -28.4343  -13.8069   21.8094 H   0  0  0  0  0  0
  -25.2758   -9.5700   22.4766 H   0  0  0  0  0  0
  -24.0014   -7.4635   22.7470 H   0  0  0  0  0  0
  -21.0841   -8.8761   19.8943 H   0  0  0  0  0  0
  -22.3682  -10.9673   19.6170 H   0  0  0  0  0  0
  -21.2002   -7.6141   23.9717 H   0  0  0  0  0  0
  -21.1485   -6.0519   25.9079 H   0  0  0  0  0  0
  -22.0600   -2.7606   23.2854 H   0  0  0  0  0  0
  -22.4060  -11.9898   22.4832 H   0  0  0  0  0  0
  -21.1068  -13.1250   22.2588 H   0  0  0  0  0  0
  -24.6550  -15.8475   20.5056 H   0  0  0  0  0  0
  -26.2664  -15.6199   20.0509 H   0  0  0  0  0  0
  -26.7179  -32.5454   23.1109 H   0  0  0  0  0  0
  -25.0078  -33.9730   25.0425 H   0  0  0  0  0  0
  -22.7143  -31.3039   21.3992 H   0  0  0  0  0  0
  -23.3744  -35.9629   23.3298 H   0  0  0  0  0  0
  -24.3567  -36.8924   22.2052 H   0  0  0  0  0  0
  -23.7239  -37.6497   23.6666 H   0  0  0  0  0  0
  -26.0888  -31.5493   20.6013 H   0  0  0  0  0  0
  -26.8422  -30.8418   22.0006 H   0  0  0  0  0  0
  -28.1136  -28.9779   21.1953 H   0  0  0  0  0  0
  -25.9944  -25.9267   19.0005 H   0  0  0  0  0  0
  -23.9714  -27.3054   19.0092 H   0  0  0  0  0  0
  -23.7672  -30.5952   19.4042 H   0  0  0  0  0  0
  -22.7563  -29.2523   19.8495 H   0  0  0  0  0  0
  -25.1288  -36.1929   25.0819 H   0  0  0  0  0  0
  -20.9968  -28.3266   24.1398 H   0  0  0  0  0  0
  -20.5661  -26.2308   23.3603 H   0  0  0  0  0  0
  -21.6646  -26.7443   22.1213 H   0  0  0  0  0  0
  -19.6919  -25.6286   21.1254 H   0  0  0  0  0  0
  -19.6699  -27.3177   20.6721 H   0  0  0  0  0  0
  -17.4199  -26.6666   21.4022 H   0  0  0  0  0  0
  -18.0345  -26.0073   22.9018 H   0  0  0  0  0  0
  -19.7940  -30.7267   24.2277 H   0  0  0  0  0  0
  -17.5024  -31.6278   24.5157 H   0  0  0  0  0  0
  -15.5358  -30.3008   23.7645 H   0  0  0  0  0  0
  -15.8664  -28.0831   22.7074 H   0  0  0  0  0  0
  -24.5893  -30.7104   25.7793 H   0  0  0  0  0  0
  -24.8935  -32.2927   26.4874 H   0  0  0  0  0  0
  -25.8051  -30.8933   27.0241 H   0  0  0  0  0  0
  -26.2926  -29.6772   24.1191 H   0  0  0  0  0  0
  -27.4008  -29.7264   25.4706 H   0  0  0  0  0  0
  -27.8808  -30.4297   23.9441 H   0  0  0  0  0  0
  -27.2641  -33.3628   26.2095 H   0  0  0  0  0  0
  -28.3868  -32.6909   25.0359 H   0  0  0  0  0  0
  -28.0706  -31.8462   26.5437 H   0  0  0  0  0  0
  -28.2588  -38.0104   24.7510 H   0  0  0  0  0  0
  -28.1076  -36.2638   24.6286 H   0  0  0  0  0  0
  -27.2302  -37.1456   25.8869 H   0  0  0  0  0  0
  -20.9357  -29.8799   21.6915 H   0  0  0  0  0  0
  -26.0161  -38.2854   24.1421 H   0  0  0  0  0  0
  -28.0638  -20.9855   19.9314 H   0  0  0  0  0  0
  -31.8777  -21.4702   21.8949 H   0  0  0  0  0  0
  -32.2033  -24.8826   19.8472 H   0  0  0  0  0  0
  -30.9759  -25.8913   20.6404 H   0  0  0  0  0  0
  -30.6210  -23.8986   18.3689 H   0  0  0  0  0  0
  -29.8496  -25.4651   18.5219 H   0  0  0  0  0  0
  -28.4443  -23.2912   19.1904 H   0  0  0  0  0  0
  -27.2157  -18.8222   19.5103 H   0  0  0  0  0  0
  -27.6431  -17.6154   20.7223 H   0  0  0  0  0  0
  -28.4487  -17.6138   19.1490 H   0  0  0  0  0  0
  -30.8172  -16.9465   22.3916 H   0  0  0  0  0  0
  -31.7186  -17.0150   20.9294 H   0  0  0  0  0  0
  -28.3180  -25.0257   21.6269 H   0  0  0  0  0  0
  -27.1093  -24.7294   20.4565 H   0  0  0  0  0  0
  -29.0206  -15.6988   21.1004 H   0  0  0  0  0  0
  1 25  1  0  0  0
  1 30  2  0  0  0
  1 85  1  0  0  0
  2  3  1  0  0  0
  2 25  1  0  0  0
  2 88  1  0  0  0
  2 89  1  0  0  0
  3  4  1  0  0  0
  3 90  1  0  0  0
  3 91  1  0  0  0
  4  5  1  0  0  0
  4 92  1  0  0  0
  4 93  1  0  0  0
  5  6  1  0  0  0
  5 26  1  0  0  0
  5 94  1  0  0  0
  6 25  1  0  0  0
  6 95  1  0  0  0
  6 96  1  0  0  0
  7  8  2  0  0  0
  7 26  1  0  0  0
  7 29  1  0  0  0
  8  9  1  0  0  0
  8 22  1  0  0  0
  9 10  1  0  0  0
  9 27  2  0  0  0
 10 11  2  0  0  0
 10 15  1  0  0  0
 11 12  1  0  0  0
 11 97  1  0  0  0
 12 13  2  0  0  0
 12 98  1  0  0  0
 13 14  1  0  0  0
 13 31  1  0  0  0
 14 15  2  0  0  0
 14 99  1  0  0  0
 15100  1  0  0  0
 16 17  2  0  0  0
 16 21  1  0  0  0
 16 31  1  0  0  0
 17 18  1  0  0  0
 17101  1  0  0  0
 18 19  2  0  0  0
 18102  1  0  0  0
 19 20  1  0  0  0
 19 24  1  0  0  0
 20 21  2  0  0  0
 20103  1  0  0  0
 21 23  1  0  0  0
 22 28  1  0  0  0
 22 32  2  0  0  0
 26 27  1  0  0  0
 28104  1  0  0  0
 28105  1  0  0  0
 29106  1  0  0  0
 29107  1  0  0  0
 33 34  1  0  0  0
 33 66  1  0  0  0
 33 70  2  0  0  0
 34 36  1  0  0  0
 34 59  1  0  0  0
 34108  1  0  0  0
 35 44  2  0  0  0
 35 45  1  0  0  0
 35 68  1  0  0  0
 36 56  1  0  0  0
 36109  1  0  0  0
 37 39  1  0  0  0
 37 47  1  0  0  0
 37 66  1  0  0  0
 37110  1  0  0  0
 38 43  2  0  0  0
 38 46  1  0  0  0
 38 47  1  0  0  0
 39 64  1  0  0  0
 39 67  2  0  0  0
 40 52  1  0  0  0
 40 53  2  0  0  0
 40 58  1  0  0  0
 41111  1  0  0  0
 41112  1  0  0  0
 41113  1  0  0  0
 41 48  1  0  0  0
 42 43  1  0  0  0
 42 66  1  0  0  0
 42114  1  0  0  0
 42115  1  0  0  0
 43 44  1  0  0  0
 44116  1  0  0  0
 45 46  2  0  0  0
 45117  1  0  0  0
 46118  1  0  0  0
 47119  1  0  0  0
 47120  1  0  0  0
 48 56  1  0  0  0
 48 65  1  0  0  0
 48121  1  0  0  0
 49 50  1  0  0  0
 49 53  1  0  0  0
 49 64  1  0  0  0
 49122  1  0  0  0
 50 51  1  0  0  0
 50123  1  0  0  0
 50124  1  0  0  0
 51 52  1  0  0  0
 51125  1  0  0  0
 51126  1  0  0  0
 52127  1  0  0  0
 52128  1  0  0  0
 53 54  1  0  0  0
 54 55  2  0  0  0
 54129  1  0  0  0
 55 57  1  0  0  0
 55130  1  0  0  0
 56 69  2  0  0  0
 57 58  2  0  0  0
 57131  1  0  0  0
 58132  1  0  0  0
 59 60  1  0  0  0
 59 61  1  0  0  0
 59 62  1  0  0  0
 60133  1  0  0  0
 60134  1  0  0  0
 60135  1  0  0  0
 61136  1  0  0  0
 61137  1  0  0  0
 61138  1  0  0  0
 62139  1  0  0  0
 62140  1  0  0  0
 62141  1  0  0  0
 63 65  1  0  0  0
 63142  1  0  0  0
 63143  1  0  0  0
 63144  1  0  0  0
 64145  1  0  0  0
 65146  1  0  0  0
 68 83  1  0  0  0
 71 73  2  0  0  0
 71 75  1  0  0  0
 71147  1  0  0  0
 72 75  2  0  0  0
 72 76  1  0  0  0
 72148  1  0  0  0
 73 74  1  0  0  0
 73 81  1  0  0  0
 74 76  2  0  0  0
 74 82  1  0  0  0
 75 84  1  0  0  0
 76 87  1  0  0  0
 77 78  1  0  0  0
 77 84  1  0  0  0
 77 86  2  0  0  0
 78 79  1  0  0  0
 78149  1  0  0  0
 78150  1  0  0  0
 79 80  1  0  0  0
 79151  1  0  0  0
 79152  1  0  0  0
 80 83  1  0  0  0
 80 84  1  0  0  0
 80153  1  0  0  0
 81154  1  0  0  0
 81155  1  0  0  0
 81156  1  0  0  0
 82 85  1  0  0  0
 82157  1  0  0  0
 82158  1  0  0  0
 83159  1  0  0  0
 83160  1  0  0  0
 85161  1  0  0  0
M  ISO  4   1 100  68 101  83 101  85 100
M  END
> <chiral flag>
0

> <version>
0

> <s_m_source_file>
/data/baiqing/PycharmProjects/Reinvent-master-3.2/result/LINK_invent/BTK/process_docking_weight1_custom_product_contain_oxygen_bond_distance_aromatic_linkinvent_7_9_3/rearranged_h_0103.sdf

> <i_m_source_file_index>
7

> <r_mmod_Potential_Energy-OPLS-2005>
246.567596435547

> <r_mmod_Stretch_Energy-OPLS-2005>
100.817665100098

> <r_mmod_Bend_Energy-OPLS-2005>
230.362762451172

> <r_mmod_Torsional_Energy-OPLS-2005>
296.857666015625

> <r_mmod_Improper_Torsional_Energy-OPLS-2005>
5.02992486953735

> <r_mmod_Van_der_Waal_Energy-OPLS-2005>
157.950180053711

> <r_mmod_Electrostatic_Energy-OPLS-2005>
-378.499847412109

> <r_mmod_Solvation_Energy-OPLS-2005>
-218.550231933594

> <b_mmod_Minimization_Converged-OPLS-2005>
0

> <r_mmod_RMS_Derivative-OPLS-2005>
1.1613575220108

$$$$
7
                    3D
 Structure written by MMmdl.
167176  0  0  1  0            999 V2000
  -30.6891  -14.5233   20.5551 C   0  0  0  0  0  0
  -30.4153  -12.3410   19.4262 C   0  0  0  0  0  0
  -29.4904  -12.5221   18.2055 C   0  0  0  0  0  0
  -28.0095  -12.3773   18.6148 C   0  0  0  0  0  0
  -27.6532  -13.2167   19.8739 C   0  0  2  0  0  0
  -28.6964  -13.0080   20.9918 C   0  0  0  0  0  0
  -25.2495  -13.8089   20.5588 C   0  0  0  0  0  0
  -24.1793  -13.0401   20.9220 C   0  0  0  0  0  0
  -24.6395  -11.6888   20.8809 C   0  0  0  0  0  0
  -23.9076  -10.4279   21.0460 C   0  0  0  0  0  0
  -24.3621   -9.4176   21.9223 C   0  0  0  0  0  0
  -23.6291   -8.2215   22.0780 C   0  0  0  0  0  0
  -22.4274   -8.0267   21.3562 C   0  0  0  0  0  0
  -21.9917   -9.0252   20.4671 C   0  0  0  0  0  0
  -22.7260  -10.2121   20.3098 C   0  0  0  0  0  0
  -21.6839   -6.0737   22.5284 C   0  0  0  0  0  0
  -21.4001   -6.5642   23.8218 C   0  0  0  0  0  0
  -21.3663   -5.6797   24.9191 C   0  0  0  0  0  0
  -21.6040   -4.3052   24.7231 C   0  0  0  0  0  0
  -21.8815   -3.8148   23.4352 C   0  0  0  0  0  0
  -21.9195   -4.6964   22.3408 C   0  0  0  0  0  0
  -22.7811  -13.5220   21.1851 C   0  0  0  0  0  0
  -22.1662   -4.2165   21.0982 F   0  0  0  0  0  0
  -21.5618   -3.4533   25.7735 F   0  0  0  0  0  0
  -30.0207  -13.3360   20.4390 N   0  0  0  0  0  0
  -26.2990  -12.9332   20.3401 N   0  0  0  0  0  0
  -25.9341  -11.6495   20.5882 N   0  0  0  0  0  0
  -22.0434  -12.8244   22.0401 N   0  0  0  0  0  0
  -25.4001  -15.1737   20.3645 N   0  0  0  0  0  0
  -31.8064  -14.6861   20.0530 O   0  0  0  0  0  0
  -21.6628   -6.8868   21.4242 O   0  0  0  0  0  0
  -22.3527  -14.5535   20.6671 O   0  0  0  0  0  0
  -24.6186  -31.8652   23.2053 C   0  0  0  0  0  0
  -25.9077  -32.4800   23.8360 C   0  0  1  0  0  0
  -27.2390  -27.4206   20.0922 C   0  0  0  0  0  0
  -25.5926  -33.8591   24.2304 N   0  0  0  0  0  0
  -23.4059  -30.4879   21.5439 C   0  0  2  0  0  0
  -24.8539  -28.9462   20.1181 C   0  0  0  0  0  0
  -22.7423  -29.4661   22.4964 C   0  0  0  0  0  0
  -18.0297  -28.1360   22.8458 C   0  0  0  0  0  0
  -24.1491  -36.7320   23.2639 C   0  0  0  0  0  0
  -25.9373  -30.8270   21.3600 C   0  0  0  0  0  0
  -26.0169  -29.4594   20.7084 C   0  0  0  0  0  0
  -27.2152  -28.7051   20.6868 C   0  0  0  0  0  0
  -26.0599  -26.9221   19.5026 C   0  0  0  0  0  0
  -24.8707  -27.6776   19.5136 C   0  0  0  0  0  0
  -23.6172  -29.8175   20.1601 C   0  0  0  0  0  0
  -25.4111  -36.3102   24.0340 C   0  0  1  0  0  0
  -20.5865  -28.3707   23.1295 C   0  0  2  0  0  0
  -20.6790  -26.9426   22.5455 C   0  0  0  0  0  0
  -19.5796  -26.6274   21.5274 C   0  0  0  0  0  0
  -18.1939  -26.7897   22.1618 C   0  0  0  0  0  0
  -19.1524  -28.8836   23.2857 C   0  0  0  0  0  0
  -18.9411  -30.1453   23.8834 C   0  0  0  0  0  0
  -17.6409  -30.6570   24.0523 C   0  0  0  0  0  0
  -25.9042  -34.9463   23.5118 C   0  0  0  0  0  0
  -16.5343  -29.9047   23.6290 C   0  0  0  0  0  0
  -16.7300  -28.6468   23.0307 C   0  0  0  0  0  0
  -26.4478  -31.6577   25.0698 C   0  0  0  0  0  0
  -25.3727  -31.3682   26.1429 C   0  0  0  0  0  0
  -27.0303  -30.3024   24.6068 C   0  0  0  0  0  0
  -27.6045  -32.4294   25.7481 C   0  0  0  0  0  0
  -27.5581  -37.1820   24.8469 C   0  0  0  0  0  0
  -21.4141  -29.3089   22.3712 N   0  0  0  0  0  0
  -26.4298  -37.3802   23.9412 N   0  0  0  0  0  0
  -24.6712  -31.0744   22.0956 N   0  0  0  0  0  0
  -23.4182  -28.8209   23.3028 O   0  0  0  0  0  0
  -28.3981  -26.6700   20.0584 O   0  0  0  0  0  0
  -26.5597  -34.8926   22.4675 O   0  0  0  0  0  0
  -23.5378  -32.1414   23.7442 O   0  0  0  0  0  0
  -27.7345  -17.6565   20.8840 C   0  0  0  0  0  0
  -29.2800  -19.3636   20.0911 C   0  0  0  0  0  0
  -29.0252  -17.9989   20.4328 C   0  0  0  0  0  0
  -26.7222  -18.6260   21.0043 C   0  0  0  0  0  0
  -28.2725  -20.3685   20.2018 C   0  0  0  0  0  0
  -26.9775  -19.9598   20.6251 C   0  0  0  0  0  0
  -29.5054  -23.7539   19.0534 C   0  0  0  0  0  0
  -29.4906  -22.2095   18.9176 C   0  0  0  0  0  0
  -28.1878  -22.8397   20.7853 C   0  0  0  0  0  0
  -28.2903  -24.1108   19.9263 C   0  0  1  0  0  0
  -25.3597  -18.2171   21.5422 C   0  0  0  0  0  0
  -29.7917  -15.7566   22.4428 C   0  0  0  0  0  0
  -30.1200  -16.9111   20.2671 C   0  0  0  0  0  0
  -28.3657  -25.4163   20.7747 C   0  0  0  0  0  0
  -28.4880  -21.7389   19.8674 N   0  0  0  0  0  0
  -25.9223  -20.8699   20.5964 N   0  0  0  0  0  0
  -29.9765  -15.6079   20.9911 N   0  0  0  0  0  0
  -31.4564  -12.4411   19.1158 H   0  0  0  0  0  0
  -30.3175  -11.3319   19.8299 H   0  0  0  0  0  0
  -29.7428  -11.7919   17.4356 H   0  0  0  0  0  0
  -29.6513  -13.5049   17.7583 H   0  0  0  0  0  0
  -27.8180  -11.3190   18.8041 H   0  0  0  0  0  0
  -27.3610  -12.6567   17.7824 H   0  0  0  0  0  0
  -27.6870  -14.2683   19.5864 H   0  0  0  0  0  0
  -28.6798  -11.9747   21.3383 H   0  0  0  0  0  0
  -28.4441  -13.6024   21.8662 H   0  0  0  0  0  0
  -25.2776   -9.5624   22.4802 H   0  0  0  0  0  0
  -23.9995   -7.4603   22.7482 H   0  0  0  0  0  0
  -21.0870   -8.8779   19.8969 H   0  0  0  0  0  0
  -22.3757  -10.9654   19.6190 H   0  0  0  0  0  0
  -21.1983   -7.6153   23.9715 H   0  0  0  0  0  0
  -21.1493   -6.0540   25.9095 H   0  0  0  0  0  0
  -22.0602   -2.7618   23.2852 H   0  0  0  0  0  0
  -22.4073  -11.9929   22.4808 H   0  0  0  0  0  0
  -21.1045  -13.1244   22.2604 H   0  0  0  0  0  0
  -24.6044  -15.7972   20.4353 H   0  0  0  0  0  0
  -26.2230  -15.6158   19.9776 H   0  0  0  0  0  0
  -26.7156  -32.5517   23.1130 H   0  0  0  0  0  0
  -25.0088  -33.9722   25.0459 H   0  0  0  0  0  0
  -22.6961  -31.3047   21.3985 H   0  0  0  0  0  0
  -23.3742  -35.9665   23.3311 H   0  0  0  0  0  0
  -24.3584  -36.8915   22.2050 H   0  0  0  0  0  0
  -23.7254  -37.6542   23.6639 H   0  0  0  0  0  0
  -26.0482  -31.5909   20.5890 H   0  0  0  0  0  0
  -26.8265  -30.8844   21.9779 H   0  0  0  0  0  0
  -28.1193  -29.1010   21.1289 H   0  0  0  0  0  0
  -26.0591  -25.9541   19.0254 H   0  0  0  0  0  0
  -23.9788  -27.2749   19.0547 H   0  0  0  0  0  0
  -23.7286  -30.5894   19.3965 H   0  0  0  0  0  0
  -22.7425  -29.2343   19.8665 H   0  0  0  0  0  0
  -25.1287  -36.1976   25.0838 H   0  0  0  0  0  0
  -20.9924  -28.3330   24.1413 H   0  0  0  0  0  0
  -20.5650  -26.2354   23.3689 H   0  0  0  0  0  0
  -21.6661  -26.7478   22.1277 H   0  0  0  0  0  0
  -19.7027  -25.6112   21.1483 H   0  0  0  0  0  0
  -19.6755  -27.2903   20.6677 H   0  0  0  0  0  0
  -18.0339  -26.0078   22.9041 H   0  0  0  0  0  0
  -17.4208  -26.6563   21.4022 H   0  0  0  0  0  0
  -19.7818  -30.7333   24.2190 H   0  0  0  0  0  0
  -17.4995  -31.6292   24.5063 H   0  0  0  0  0  0
  -15.5360  -30.2944   23.7544 H   0  0  0  0  0  0
  -15.8736  -28.0759   22.6969 H   0  0  0  0  0  0
  -24.5903  -30.7043   25.7739 H   0  0  0  0  0  0
  -24.8908  -32.2833   26.4883 H   0  0  0  0  0  0
  -25.8058  -30.8829   27.0181 H   0  0  0  0  0  0
  -26.2848  -29.6808   24.1095 H   0  0  0  0  0  0
  -27.4060  -29.7251   25.4522 H   0  0  0  0  0  0
  -27.8696  -30.4350   23.9238 H   0  0  0  0  0  0
  -27.2658  -33.3584   26.2083 H   0  0  0  0  0  0
  -28.3855  -32.6848   25.0309 H   0  0  0  0  0  0
  -28.0710  -31.8387   26.5374 H   0  0  0  0  0  0
  -28.2615  -38.0103   24.7507 H   0  0  0  0  0  0
  -28.1061  -36.2631   24.6313 H   0  0  0  0  0  0
  -27.2294  -37.1508   25.8873 H   0  0  0  0  0  0
  -20.9335  -29.8859   21.6961 H   0  0  0  0  0  0
  -26.0182  -38.2891   24.1396 H   0  0  0  0  0  0
  -27.4980  -16.6355   21.1351 H   0  0  0  0  0  0
  -30.2636  -19.6351   19.7351 H   0  0  0  0  0  0
  -29.4734  -24.2528   18.0843 H   0  0  0  0  0  0
  -30.4227  -24.0642   19.5550 H   0  0  0  0  0  0
  -30.4797  -21.7958   19.1155 H   0  0  0  0  0  0
  -29.2063  -21.9123   17.9067 H   0  0  0  0  0  0
  -27.2135  -22.7946   21.2651 H   0  0  0  0  0  0
  -28.9368  -22.8450   21.5810 H   0  0  0  0  0  0
  -27.4074  -24.1526   19.2864 H   0  0  0  0  0  0
  -25.4277  -17.3071   22.1374 H   0  0  0  0  0  0
  -24.6602  -18.0449   20.7251 H   0  0  0  0  0  0
  -24.9524  -18.9881   22.1956 H   0  0  0  0  0  0
  -30.1458  -16.7275   22.7914 H   0  0  0  0  0  0
  -30.3369  -15.0033   23.0154 H   0  0  0  0  0  0
  -28.7386  -15.6709   22.7082 H   0  0  0  0  0  0
  -30.1900  -16.7074   19.1947 H   0  0  0  0  0  0
  -31.0793  -17.3513   20.5423 H   0  0  0  0  0  0
  -29.2651  -25.3774   21.3911 H   0  0  0  0  0  0
  -27.5362  -25.4167   21.4856 H   0  0  0  0  0  0
  -25.0114  -20.5043   20.3466 H   0  0  0  0  0  0
  -26.1783  -21.6900   20.0562 H   0  0  0  0  0  0
  1 25  1  0  0  0
  1 30  2  0  0  0
  1 87  1  0  0  0
  2  3  1  0  0  0
  2 25  1  0  0  0
  2 88  1  0  0  0
  2 89  1  0  0  0
  3  4  1  0  0  0
  3 90  1  0  0  0
  3 91  1  0  0  0
  4  5  1  0  0  0
  4 92  1  0  0  0
  4 93  1  0  0  0
  5  6  1  0  0  0
  5 26  1  0  0  0
  5 94  1  0  0  0
  6 25  1  0  0  0
  6 95  1  0  0  0
  6 96  1  0  0  0
  7  8  2  0  0  0
  7 26  1  0  0  0
  7 29  1  0  0  0
  8  9  1  0  0  0
  8 22  1  0  0  0
  9 10  1  0  0  0
  9 27  2  0  0  0
 10 11  2  0  0  0
 10 15  1  0  0  0
 11 12  1  0  0  0
 11 97  1  0  0  0
 12 13  2  0  0  0
 12 98  1  0  0  0
 13 14  1  0  0  0
 13 31  1  0  0  0
 14 15  2  0  0  0
 14 99  1  0  0  0
 15100  1  0  0  0
 16 17  2  0  0  0
 16 21  1  0  0  0
 16 31  1  0  0  0
 17 18  1  0  0  0
 17101  1  0  0  0
 18 19  2  0  0  0
 18102  1  0  0  0
 19 20  1  0  0  0
 19 24  1  0  0  0
 20 21  2  0  0  0
 20103  1  0  0  0
 21 23  1  0  0  0
 22 28  1  0  0  0
 22 32  2  0  0  0
 26 27  1  0  0  0
 28104  1  0  0  0
 28105  1  0  0  0
 29106  1  0  0  0
 29107  1  0  0  0
 33 34  1  0  0  0
 33 66  1  0  0  0
 33 70  2  0  0  0
 34 36  1  0  0  0
 34 59  1  0  0  0
 34108  1  0  0  0
 35 44  2  0  0  0
 35 45  1  0  0  0
 35 68  1  0  0  0
 36 56  1  0  0  0
 36109  1  0  0  0
 37 39  1  0  0  0
 37 47  1  0  0  0
 37 66  1  0  0  0
 37110  1  0  0  0
 38 43  2  0  0  0
 38 46  1  0  0  0
 38 47  1  0  0  0
 39 64  1  0  0  0
 39 67  2  0  0  0
 40 52  1  0  0  0
 40 53  2  0  0  0
 40 58  1  0  0  0
 41111  1  0  0  0
 41112  1  0  0  0
 41113  1  0  0  0
 41 48  1  0  0  0
 42 43  1  0  0  0
 42 66  1  0  0  0
 42114  1  0  0  0
 42115  1  0  0  0
 43 44  1  0  0  0
 44116  1  0  0  0
 45 46  2  0  0  0
 45117  1  0  0  0
 46118  1  0  0  0
 47119  1  0  0  0
 47120  1  0  0  0
 48 56  1  0  0  0
 48 65  1  0  0  0
 48121  1  0  0  0
 49 50  1  0  0  0
 49 53  1  0  0  0
 49 64  1  0  0  0
 49122  1  0  0  0
 50 51  1  0  0  0
 50123  1  0  0  0
 50124  1  0  0  0
 51 52  1  0  0  0
 51125  1  0  0  0
 51126  1  0  0  0
 52127  1  0  0  0
 52128  1  0  0  0
 53 54  1  0  0  0
 54 55  2  0  0  0
 54129  1  0  0  0
 55 57  1  0  0  0
 55130  1  0  0  0
 56 69  2  0  0  0
 57 58  2  0  0  0
 57131  1  0  0  0
 58132  1  0  0  0
 59 60  1  0  0  0
 59 61  1  0  0  0
 59 62  1  0  0  0
 60133  1  0  0  0
 60134  1  0  0  0
 60135  1  0  0  0
 61136  1  0  0  0
 61137  1  0  0  0
 61138  1  0  0  0
 62139  1  0  0  0
 62140  1  0  0  0
 62141  1  0  0  0
 63 65  1  0  0  0
 63142  1  0  0  0
 63143  1  0  0  0
 63144  1  0  0  0
 64145  1  0  0  0
 65146  1  0  0  0
 68 84  1  0  0  0
 71 73  2  0  0  0
 71 74  1  0  0  0
 71147  1  0  0  0
 72 73  1  0  0  0
 72 75  2  0  0  0
 72148  1  0  0  0
 73 83  1  0  0  0
 74 76  2  0  0  0
 74 81  1  0  0  0
 75 76  1  0  0  0
 75 85  1  0  0  0
 76 86  1  0  0  0
 77 78  1  0  0  0
 77 80  1  0  0  0
 77149  1  0  0  0
 77150  1  0  0  0
 78 85  1  0  0  0
 78151  1  0  0  0
 78152  1  0  0  0
 79 80  1  0  0  0
 79 85  1  0  0  0
 79153  1  0  0  0
 79154  1  0  0  0
 80 84  1  0  0  0
 80155  1  0  0  0
 81156  1  0  0  0
 81157  1  0  0  0
 81158  1  0  0  0
 82 87  1  0  0  0
 82159  1  0  0  0
 82160  1  0  0  0
 82161  1  0  0  0
 83 87  1  0  0  0
 83162  1  0  0  0
 83163  1  0  0  0
 84164  1  0  0  0
 84165  1  0  0  0
 86166  1  0  0  0
 86167  1  0  0  0
M  ISO  4   1 100  68 101  84 101  87 100
M  END
> <chiral flag>
0

> <version>
0

> <s_m_source_file>
/data/baiqing/PycharmProjects/Reinvent-master-3.2/result/LINK_invent/BTK/process_docking_weight1_custom_product_contain_oxygen_bond_distance_aromatic_linkinvent_7_9_3/rearranged_h_0103.sdf

> <i_m_source_file_index>
8

> <r_mmod_Potential_Energy-OPLS-2005>
141.16291809082

> <r_mmod_Stretch_Energy-OPLS-2005>
50.939151763916

> <r_mmod_Bend_Energy-OPLS-2005>
157.981811523438

> <r_mmod_Torsional_Energy-OPLS-2005>
346.966094970703

> <r_mmod_Improper_Torsional_Energy-OPLS-2005>
16.7393474578857

> <r_mmod_Van_der_Waal_Energy-OPLS-2005>
158.917510986328

> <r_mmod_Electrostatic_Energy-OPLS-2005>
-404.654022216797

> <r_mmod_Solvation_Energy-OPLS-2005>
-202.1162109375

> <b_mmod_Minimization_Converged-OPLS-2005>
0

> <r_mmod_RMS_Derivative-OPLS-2005>
4.22989797592163

$$$$
8
                    3D
 Structure written by MMmdl.
164173  0  0  1  0            999 V2000
  -30.7347  -14.4555   20.6346 C   0  0  0  0  0  0
  -30.4193  -12.3239   19.4144 C   0  0  0  0  0  0
  -29.4889  -12.5190   18.2020 C   0  0  0  0  0  0
  -28.0127  -12.3732   18.6175 C   0  0  0  0  0  0
  -27.6606  -13.2108   19.8749 C   0  0  2  0  0  0
  -28.7017  -12.9935   20.9941 C   0  0  0  0  0  0
  -25.2578  -13.8163   20.5672 C   0  0  0  0  0  0
  -24.1834  -13.0432   20.9174 C   0  0  0  0  0  0
  -24.6400  -11.6907   20.8742 C   0  0  0  0  0  0
  -23.9067  -10.4293   21.0408 C   0  0  0  0  0  0
  -24.3619   -9.4210   21.9186 C   0  0  0  0  0  0
  -23.6296   -8.2244   22.0755 C   0  0  0  0  0  0
  -22.4279   -8.0287   21.3543 C   0  0  0  0  0  0
  -21.9918   -9.0258   20.4639 C   0  0  0  0  0  0
  -22.7245  -10.2137   20.3051 C   0  0  0  0  0  0
  -21.6852   -6.0743   22.5281 C   0  0  0  0  0  0
  -21.4010   -6.5645   23.8215 C   0  0  0  0  0  0
  -21.3655   -5.6795   24.9175 C   0  0  0  0  0  0
  -21.6044   -4.3057   24.7223 C   0  0  0  0  0  0
  -21.8820   -3.8154   23.4341 C   0  0  0  0  0  0
  -21.9194   -4.6972   22.3399 C   0  0  0  0  0  0
  -22.7858  -13.5236   21.1834 C   0  0  0  0  0  0
  -22.1664   -4.2160   21.0975 F   0  0  0  0  0  0
  -21.5629   -3.4535   25.7735 F   0  0  0  0  0  0
  -30.0319  -13.3046   20.4426 N   0  0  0  0  0  0
  -26.3023  -12.9346   20.3374 N   0  0  0  0  0  0
  -25.9330  -11.6500   20.5779 N   0  0  0  0  0  0
  -22.0499  -12.8223   22.0392 N   0  0  0  0  0  0
  -25.4292  -15.1869   20.4048 N   0  0  0  0  0  0
  -31.8286  -14.6620   20.1018 O   0  0  0  0  0  0
  -21.6640   -6.8887   21.4245 O   0  0  0  0  0  0
  -22.3546  -14.5549   20.6698 O   0  0  0  0  0  0
  -24.6186  -31.8685   23.2135 C   0  0  0  0  0  0
  -25.9068  -32.4824   23.8425 C   0  0  1  0  0  0
  -27.2126  -27.3942   20.0882 C   0  0  0  0  0  0
  -25.5920  -33.8625   24.2338 N   0  0  0  0  0  0
  -23.4062  -30.4994   21.5557 C   0  0  2  0  0  0
  -24.8469  -28.9760   20.1108 C   0  0  0  0  0  0
  -22.7425  -29.4679   22.4980 C   0  0  0  0  0  0
  -18.0275  -28.1395   22.8511 C   0  0  0  0  0  0
  -24.1484  -36.7307   23.2638 C   0  0  0  0  0  0
  -25.9441  -30.8197   21.3780 C   0  0  0  0  0  0
  -26.0159  -29.4573   20.7136 C   0  0  0  0  0  0
  -27.2021  -28.6754   20.7017 C   0  0  0  0  0  0
  -26.0182  -26.9638   19.4519 C   0  0  0  0  0  0
  -24.8459  -27.7296   19.4761 C   0  0  0  0  0  0
  -23.6142  -29.8472   20.1672 C   0  0  0  0  0  0
  -25.4111  -36.3111   24.0334 C   0  0  1  0  0  0
  -20.5867  -28.3689   23.1312 C   0  0  2  0  0  0
  -20.6769  -26.9421   22.5422 C   0  0  0  0  0  0
  -19.5738  -26.6400   21.5228 C   0  0  0  0  0  0
  -18.1915  -26.7945   22.1632 C   0  0  0  0  0  0
  -19.1527  -28.8859   23.2908 C   0  0  0  0  0  0
  -18.9451  -30.1469   23.8913 C   0  0  0  0  0  0
  -17.6451  -30.6603   24.0578 C   0  0  0  0  0  0
  -25.9046  -34.9476   23.5127 C   0  0  0  0  0  0
  -16.5345  -29.9100   23.6338 C   0  0  0  0  0  0
  -16.7263  -28.6517   23.0366 C   0  0  0  0  0  0
  -26.4484  -31.6611   25.0764 C   0  0  0  0  0  0
  -25.3741  -31.3696   26.1501 C   0  0  0  0  0  0
  -27.0331  -30.3047   24.6179 C   0  0  0  0  0  0
  -27.6058  -32.4342   25.7519 C   0  0  0  0  0  0
  -27.5587  -37.1798   24.8460 C   0  0  0  0  0  0
  -21.4149  -29.3053   22.3714 N   0  0  0  0  0  0
  -26.4288  -37.3807   23.9423 N   0  0  0  0  0  0
  -24.6748  -31.0763   22.1061 N   0  0  0  0  0  0
  -23.4187  -28.8203   23.3015 O   0  0  0  0  0  0
  -28.3385  -26.5712   20.1378 O   0  0  0  0  0  0
  -26.5602  -34.8922   22.4684 O   0  0  0  0  0  0
  -23.5369  -32.1461   23.7505 O   0  0  0  0  0  0
  -31.6696  -18.8156   21.5015 C   0  0  0  0  0  0
  -31.4852  -20.1901   21.2530 C   0  0  0  0  0  0
  -29.0963  -19.8563   21.2251 C   0  0  0  0  0  0
  -30.5744  -17.9390   21.6507 C   0  0  0  0  0  0
  -30.1941  -20.7533   21.1254 C   0  0  0  0  0  0
  -29.2649  -18.4678   21.5182 C   0  0  0  0  0  0
  -29.1241  -24.1203   20.2155 C   0  0  0  0  0  0
  -28.9444  -23.0011   20.9421 C   0  0  0  0  0  0
  -30.4859  -24.1305   19.5807 C   0  0  0  0  0  0
  -31.1063  -22.8190   20.1120 C   0  0  0  0  0  0
  -27.7161  -22.6539   21.7671 C   0  0  0  0  0  0
  -26.9022  -18.1516   21.8532 C   0  0  0  0  0  0
  -30.8689  -16.4907   22.0923 C   0  0  0  0  0  0
  -28.0700  -25.1719   19.8533 C   0  0  0  0  0  0
  -30.0537  -22.1555   20.8912 N   0  0  0  0  0  0
  -30.1663  -15.3744   21.4370 N   0  0  0  0  0  0
  -28.2076  -17.6016   21.7129 O   0  0  0  0  0  0
  -31.4619  -12.4257   19.1091 H   0  0  0  0  0  0
  -30.3262  -11.3118   19.8109 H   0  0  0  0  0  0
  -29.7290  -11.7981   17.4196 H   0  0  0  0  0  0
  -29.6531  -13.5066   17.7687 H   0  0  0  0  0  0
  -27.8250  -11.3174   18.8126 H   0  0  0  0  0  0
  -27.3596  -12.6501   17.7889 H   0  0  0  0  0  0
  -27.7050  -14.2594   19.5810 H   0  0  0  0  0  0
  -28.6826  -11.9568   21.3330 H   0  0  0  0  0  0
  -28.4507  -13.5883   21.8724 H   0  0  0  0  0  0
  -25.2764   -9.5686   22.4762 H   0  0  0  0  0  0
  -24.0004   -7.4637   22.7480 H   0  0  0  0  0  0
  -21.0854   -8.8780   19.8941 H   0  0  0  0  0  0
  -22.3711  -10.9681   19.6162 H   0  0  0  0  0  0
  -21.2001   -7.6155   23.9722 H   0  0  0  0  0  0
  -21.1473   -6.0523   25.9079 H   0  0  0  0  0  0
  -22.0604   -2.7616   23.2839 H   0  0  0  0  0  0
  -22.4114  -11.9874   22.4763 H   0  0  0  0  0  0
  -21.1119  -13.1254   22.2602 H   0  0  0  0  0  0
  -24.6610  -15.8420   20.4987 H   0  0  0  0  0  0
  -26.2905  -15.6224   20.0991 H   0  0  0  0  0  0
  -26.7131  -32.5522   23.1178 H   0  0  0  0  0  0
  -25.0065  -33.9790   25.0480 H   0  0  0  0  0  0
  -22.6964  -31.3189   21.4245 H   0  0  0  0  0  0
  -23.3766  -35.9619   23.3281 H   0  0  0  0  0  0
  -24.3572  -36.8960   22.2057 H   0  0  0  0  0  0
  -23.7210  -37.6485   23.6681 H   0  0  0  0  0  0
  -26.0706  -31.5898   20.6162 H   0  0  0  0  0  0
  -26.8267  -30.8604   22.0048 H   0  0  0  0  0  0
  -28.0979  -29.0371   21.1868 H   0  0  0  0  0  0
  -25.9404  -26.0237   18.9278 H   0  0  0  0  0  0
  -23.9511  -27.3575   18.9960 H   0  0  0  0  0  0
  -23.7269  -30.6302   19.4171 H   0  0  0  0  0  0
  -22.7339  -29.2767   19.8648 H   0  0  0  0  0  0
  -25.1278  -36.1962   25.0826 H   0  0  0  0  0  0
  -20.9962  -28.3271   24.1431 H   0  0  0  0  0  0
  -20.5700  -26.2295   23.3613 H   0  0  0  0  0  0
  -21.6633  -26.7486   22.1195 H   0  0  0  0  0  0
  -19.6895  -25.6313   21.1250 H   0  0  0  0  0  0
  -19.6666  -27.3222   20.6764 H   0  0  0  0  0  0
  -17.4186  -26.6724   21.4027 H   0  0  0  0  0  0
  -18.0290  -26.0081   22.9014 H   0  0  0  0  0  0
  -19.7925  -30.7293   24.2276 H   0  0  0  0  0  0
  -17.5003  -31.6274   24.5198 H   0  0  0  0  0  0
  -15.5343  -30.3007   23.7659 H   0  0  0  0  0  0
  -15.8660  -28.0842   22.7072 H   0  0  0  0  0  0
  -24.5928  -30.7032   25.7828 H   0  0  0  0  0  0
  -24.8908  -32.2831   26.4968 H   0  0  0  0  0  0
  -25.8090  -30.8851   27.0253 H   0  0  0  0  0  0
  -26.2891  -29.6780   24.1244 H   0  0  0  0  0  0
  -27.4094  -29.7310   25.4661 H   0  0  0  0  0  0
  -27.8733  -30.4359   23.9360 H   0  0  0  0  0  0
  -27.2692  -33.3657   26.2085 H   0  0  0  0  0  0
  -28.3861  -32.6882   25.0332 H   0  0  0  0  0  0
  -28.0731  -31.8474   26.5437 H   0  0  0  0  0  0
  -28.2573  -38.0130   24.7575 H   0  0  0  0  0  0
  -28.1123  -36.2664   24.6214 H   0  0  0  0  0  0
  -27.2310  -37.1361   25.8863 H   0  0  0  0  0  0
  -20.9309  -29.8772   21.6935 H   0  0  0  0  0  0
  -26.0172  -38.2872   24.1478 H   0  0  0  0  0  0
  -32.6776  -18.4435   21.6186 H   0  0  0  0  0  0
  -32.3670  -20.8102   21.1872 H   0  0  0  0  0  0
  -28.1037  -20.2440   21.0769 H   0  0  0  0  0  0
  -31.0546  -25.0109   19.8806 H   0  0  0  0  0  0
  -30.3942  -24.1197   18.4944 H   0  0  0  0  0  0
  -31.9633  -23.0358   20.7517 H   0  0  0  0  0  0
  -31.4482  -22.1899   19.2878 H   0  0  0  0  0  0
  -27.3365  -23.5421   22.2724 H   0  0  0  0  0  0
  -27.9416  -21.9308   22.5512 H   0  0  0  0  0  0
  -26.9193  -22.2604   21.1352 H   0  0  0  0  0  0
  -26.2106  -17.3685   22.1647 H   0  0  0  0  0  0
  -26.5368  -18.5574   20.9090 H   0  0  0  0  0  0
  -26.8703  -18.9309   22.6166 H   0  0  0  0  0  0
  -30.6257  -16.4330   23.1535 H   0  0  0  0  0  0
  -31.9454  -16.3182   22.0476 H   0  0  0  0  0  0
  -27.1575  -24.8638   20.3643 H   0  0  0  0  0  0
  -27.8960  -25.0614   18.7819 H   0  0  0  0  0  0
  -29.2391  -15.1684   21.7764 H   0  0  0  0  0  0
  1 25  1  0  0  0
  1 30  2  0  0  0
  1 86  1  0  0  0
  2  3  1  0  0  0
  2 25  1  0  0  0
  2 88  1  0  0  0
  2 89  1  0  0  0
  3  4  1  0  0  0
  3 90  1  0  0  0
  3 91  1  0  0  0
  4  5  1  0  0  0
  4 92  1  0  0  0
  4 93  1  0  0  0
  5  6  1  0  0  0
  5 26  1  0  0  0
  5 94  1  0  0  0
  6 25  1  0  0  0
  6 95  1  0  0  0
  6 96  1  0  0  0
  7  8  2  0  0  0
  7 26  1  0  0  0
  7 29  1  0  0  0
  8  9  1  0  0  0
  8 22  1  0  0  0
  9 10  1  0  0  0
  9 27  2  0  0  0
 10 11  2  0  0  0
 10 15  1  0  0  0
 11 12  1  0  0  0
 11 97  1  0  0  0
 12 13  2  0  0  0
 12 98  1  0  0  0
 13 14  1  0  0  0
 13 31  1  0  0  0
 14 15  2  0  0  0
 14 99  1  0  0  0
 15100  1  0  0  0
 16 17  2  0  0  0
 16 21  1  0  0  0
 16 31  1  0  0  0
 17 18  1  0  0  0
 17101  1  0  0  0
 18 19  2  0  0  0
 18102  1  0  0  0
 19 20  1  0  0  0
 19 24  1  0  0  0
 20 21  2  0  0  0
 20103  1  0  0  0
 21 23  1  0  0  0
 22 28  1  0  0  0
 22 32  2  0  0  0
 26 27  1  0  0  0
 28104  1  0  0  0
 28105  1  0  0  0
 29106  1  0  0  0
 29107  1  0  0  0
 33 34  1  0  0  0
 33 66  1  0  0  0
 33 70  2  0  0  0
 34 36  1  0  0  0
 34 59  1  0  0  0
 34108  1  0  0  0
 35 44  2  0  0  0
 35 45  1  0  0  0
 35 68  1  0  0  0
 36 56  1  0  0  0
 36109  1  0  0  0
 37 39  1  0  0  0
 37 47  1  0  0  0
 37 66  1  0  0  0
 37110  1  0  0  0
 38 43  2  0  0  0
 38 46  1  0  0  0
 38 47  1  0  0  0
 39 64  1  0  0  0
 39 67  2  0  0  0
 40 52  1  0  0  0
 40 53  2  0  0  0
 40 58  1  0  0  0
 41111  1  0  0  0
 41112  1  0  0  0
 41113  1  0  0  0
 41 48  1  0  0  0
 42 43  1  0  0  0
 42 66  1  0  0  0
 42114  1  0  0  0
 42115  1  0  0  0
 43 44  1  0  0  0
 44116  1  0  0  0
 45 46  2  0  0  0
 45117  1  0  0  0
 46118  1  0  0  0
 47119  1  0  0  0
 47120  1  0  0  0
 48 56  1  0  0  0
 48 65  1  0  0  0
 48121  1  0  0  0
 49 50  1  0  0  0
 49 53  1  0  0  0
 49 64  1  0  0  0
 49122  1  0  0  0
 50 51  1  0  0  0
 50123  1  0  0  0
 50124  1  0  0  0
 51 52  1  0  0  0
 51125  1  0  0  0
 51126  1  0  0  0
 52127  1  0  0  0
 52128  1  0  0  0
 53 54  1  0  0  0
 54 55  2  0  0  0
 54129  1  0  0  0
 55 57  1  0  0  0
 55130  1  0  0  0
 56 69  2  0  0  0
 57 58  2  0  0  0
 57131  1  0  0  0
 58132  1  0  0  0
 59 60  1  0  0  0
 59 61  1  0  0  0
 59 62  1  0  0  0
 60133  1  0  0  0
 60134  1  0  0  0
 60135  1  0  0  0
 61136  1  0  0  0
 61137  1  0  0  0
 61138  1  0  0  0
 62139  1  0  0  0
 62140  1  0  0  0
 62141  1  0  0  0
 63 65  1  0  0  0
 63142  1  0  0  0
 63143  1  0  0  0
 63144  1  0  0  0
 64145  1  0  0  0
 65146  1  0  0  0
 68 84  1  0  0  0
 71 72  2  0  0  0
 71 74  1  0  0  0
 71147  1  0  0  0
 72 75  1  0  0  0
 72148  1  0  0  0
 73 75  2  0  0  0
 73 76  1  0  0  0
 73149  1  0  0  0
 74 76  2  0  0  0
 74 83  1  0  0  0
 75 85  1  0  0  0
 76 87  1  0  0  0
 77 78  2  0  0  0
 77 79  1  0  0  0
 77 84  1  0  0  0
 78 81  1  0  0  0
 78 85  1  0  0  0
 79 80  1  0  0  0
 79150  1  0  0  0
 79151  1  0  0  0
 80 85  1  0  0  0
 80152  1  0  0  0
 80153  1  0  0  0
 81154  1  0  0  0
 81155  1  0  0  0
 81156  1  0  0  0
 82 87  1  0  0  0
 82157  1  0  0  0
 82158  1  0  0  0
 82159  1  0  0  0
 83 86  1  0  0  0
 83160  1  0  0  0
 83161  1  0  0  0
 84162  1  0  0  0
 84163  1  0  0  0
 86164  1  0  0  0
M  ISO  4   1 100  68 101  84 101  86 100
M  END
> <chiral flag>
0

> <version>
0

> <s_m_source_file>
/data/baiqing/PycharmProjects/Reinvent-master-3.2/result/LINK_invent/BTK/process_docking_weight1_custom_product_contain_oxygen_bond_distance_aromatic_linkinvent_7_9_3/rearranged_h_0103.sdf

> <i_m_source_file_index>
9

> <r_mmod_Potential_Energy-OPLS-2005>
5.53863859176636

> <r_mmod_Stretch_Energy-OPLS-2005>
46.9251480102539

> <r_mmod_Bend_Energy-OPLS-2005>
178.706939697266

> <r_mmod_Torsional_Energy-OPLS-2005>
202.006149291992

> <r_mmod_Improper_Torsional_Energy-OPLS-2005>
3.75481677055359

> <r_mmod_Van_der_Waal_Energy-OPLS-2005>
170.94709777832

> <r_mmod_Electrostatic_Energy-OPLS-2005>
-404.709503173828

> <r_mmod_Solvation_Energy-OPLS-2005>
-210.479888916016

> <b_mmod_Minimization_Converged-OPLS-2005>
0

> <r_mmod_RMS_Derivative-OPLS-2005>
1.14521241188049

$$$$
9
                    3D
 Structure written by MMmdl.
158166  0  0  1  0            999 V2000
  -30.7275  -14.5051   20.6330 C   0  0  0  0  0  0
  -30.4229  -12.3461   19.4377 C   0  0  0  0  0  0
  -29.4972  -12.5165   18.2181 C   0  0  0  0  0  0
  -28.0233  -12.3419   18.6293 C   0  0  0  0  0  0
  -27.6562  -13.1957   19.8685 C   0  0  2  0  0  0
  -28.7005  -13.0284   20.9996 C   0  0  0  0  0  0
  -25.2553  -13.8083   20.5684 C   0  0  0  0  0  0
  -24.1810  -13.0363   20.9182 C   0  0  0  0  0  0
  -24.6402  -11.6838   20.8771 C   0  0  0  0  0  0
  -23.9088  -10.4227   21.0440 C   0  0  0  0  0  0
  -24.3625   -9.4130   21.9217 C   0  0  0  0  0  0
  -23.6271   -8.2183   22.0759 C   0  0  0  0  0  0
  -22.4246   -8.0249   21.3548 C   0  0  0  0  0  0
  -21.9901   -9.0236   20.4655 C   0  0  0  0  0  0
  -22.7274  -10.2085   20.3076 C   0  0  0  0  0  0
  -21.6842   -6.0703   22.5274 C   0  0  0  0  0  0
  -21.4001   -6.5605   23.8207 C   0  0  0  0  0  0
  -21.3662   -5.6767   24.9179 C   0  0  0  0  0  0
  -21.6064   -4.3038   24.7238 C   0  0  0  0  0  0
  -21.8824   -3.8122   23.4360 C   0  0  0  0  0  0
  -21.9185   -4.6931   22.3404 C   0  0  0  0  0  0
  -22.7835  -13.5137   21.1899 C   0  0  0  0  0  0
  -22.1640   -4.2109   21.0982 F   0  0  0  0  0  0
  -21.5645   -3.4536   25.7758 F   0  0  0  0  0  0
  -30.0302  -13.3418   20.4535 N   0  0  0  0  0  0
  -26.2998  -12.9253   20.3368 N   0  0  0  0  0  0
  -25.9316  -11.6418   20.5779 N   0  0  0  0  0  0
  -22.0521  -12.8099   22.0469 N   0  0  0  0  0  0
  -25.4263  -15.1789   20.4150 N   0  0  0  0  0  0
  -31.7933  -14.6945   20.0363 O   0  0  0  0  0  0
  -21.6612   -6.8851   21.4231 O   0  0  0  0  0  0
  -22.3462  -14.5448   20.6789 O   0  0  0  0  0  0
  -24.6170  -31.8667   23.2090 C   0  0  0  0  0  0
  -25.9059  -32.4821   23.8390 C   0  0  1  0  0  0
  -27.2393  -27.4195   20.0877 C   0  0  0  0  0  0
  -25.5901  -33.8620   24.2317 N   0  0  0  0  0  0
  -23.4054  -30.4939   21.5471 C   0  0  2  0  0  0
  -24.8509  -28.9540   20.1141 C   0  0  0  0  0  0
  -22.7410  -29.4682   22.4937 C   0  0  0  0  0  0
  -18.0272  -28.1398   22.8460 C   0  0  0  0  0  0
  -24.1490  -36.7304   23.2638 C   0  0  0  0  0  0
  -25.9371  -30.8282   21.3649 C   0  0  0  0  0  0
  -26.0115  -29.4610   20.7104 C   0  0  0  0  0  0
  -27.2044  -28.7008   20.6946 C   0  0  0  0  0  0
  -26.0488  -26.9196   19.5092 C   0  0  0  0  0  0
  -24.8642  -27.6822   19.5153 C   0  0  0  0  0  0
  -23.6165  -29.8278   20.1608 C   0  0  0  0  0  0
  -25.4116  -36.3110   24.0332 C   0  0  1  0  0  0
  -20.5865  -28.3699   23.1270 C   0  0  2  0  0  0
  -20.6758  -26.9427   22.5394 C   0  0  0  0  0  0
  -19.5746  -26.6396   21.5186 C   0  0  0  0  0  0
  -18.1928  -26.7941   22.1600 C   0  0  0  0  0  0
  -19.1522  -28.8854   23.2872 C   0  0  0  0  0  0
  -18.9462  -30.1460   23.8897 C   0  0  0  0  0  0
  -17.6467  -30.6593   24.0574 C   0  0  0  0  0  0
  -25.9044  -34.9473   23.5122 C   0  0  0  0  0  0
  -16.5352  -29.9103   23.6330 C   0  0  0  0  0  0
  -16.7266  -28.6527   23.0323 C   0  0  0  0  0  0
  -26.4483  -31.6617   25.0736 C   0  0  0  0  0  0
  -25.3747  -31.3723   26.1480 C   0  0  0  0  0  0
  -27.0324  -30.3054   24.6152 C   0  0  0  0  0  0
  -27.6054  -32.4344   25.7492 C   0  0  0  0  0  0
  -27.5584  -37.1812   24.8465 C   0  0  0  0  0  0
  -21.4132  -29.3061   22.3662 N   0  0  0  0  0  0
  -26.4295  -37.3799   23.9415 N   0  0  0  0  0  0
  -24.6715  -31.0775   22.0981 N   0  0  0  0  0  0
  -23.4175  -28.8199   23.2964 O   0  0  0  0  0  0
  -28.4295  -26.7094   20.0988 O   0  0  0  0  0  0
  -26.5606  -34.8922   22.4692 O   0  0  0  0  0  0
  -23.5360  -32.1407   23.7480 O   0  0  0  0  0  0
  -29.6770  -21.1641   20.9174 C   0  0  0  0  0  0
  -29.8880  -22.4167   20.2416 C   0  0  0  0  0  0
  -30.3839  -20.1094   20.3777 C   0  0  0  0  0  0
  -30.7477  -22.2789   19.1772 C   0  0  0  0  0  0
  -30.4972  -18.6557   20.7164 C   0  0  0  0  0  0
  -29.2229  -16.5682   20.9703 C   0  0  0  0  0  0
  -31.2106  -23.3296   18.2239 C   0  0  0  0  0  0
  -28.3016  -18.4239   19.6898 C   0  0  0  0  0  0
  -30.2848  -15.6262   21.6203 C   0  0  0  0  0  0
  -28.6168  -25.5614   19.2449 C   0  0  0  0  0  0
  -28.2947  -24.1737   19.8795 C   0  0  0  0  0  0
  -29.4158  -17.8467   20.4902 N   0  0  0  0  0  0
  -31.5722  -18.2822   21.1891 O   0  0  0  0  0  0
  -28.0798  -16.1038   20.9574 O   0  0  0  0  0  0
  -29.3802  -23.6178   20.6415 O   0  0  0  0  0  0
  -31.3348  -20.6396   19.0195 S   0  0  0  0  0  0
  -31.4670  -12.4421   19.1345 H   0  0  0  0  0  0
  -30.3248  -11.3382   19.8461 H   0  0  0  0  0  0
  -29.7558  -11.7887   17.4484 H   0  0  0  0  0  0
  -29.6448  -13.5035   17.7771 H   0  0  0  0  0  0
  -27.8638  -11.2853   18.8464 H   0  0  0  0  0  0
  -27.3643  -12.5841   17.7957 H   0  0  0  0  0  0
  -27.6757  -14.2215   19.5111 H   0  0  0  0  0  0
  -28.6943  -12.0054   21.3788 H   0  0  0  0  0  0
  -28.4337  -13.6506   21.8512 H   0  0  0  0  0  0
  -25.2772   -9.5549   22.4804 H   0  0  0  0  0  0
  -23.9981   -7.4525   22.7409 H   0  0  0  0  0  0
  -21.0858   -8.8760   19.8918 H   0  0  0  0  0  0
  -22.3778  -10.9627   19.6168 H   0  0  0  0  0  0
  -21.1965   -7.6109   23.9702 H   0  0  0  0  0  0
  -21.1498   -6.0500   25.9080 H   0  0  0  0  0  0
  -22.0608   -2.7587   23.2877 H   0  0  0  0  0  0
  -22.4156  -11.9730   22.4802 H   0  0  0  0  0  0
  -21.1133  -13.1083   22.2707 H   0  0  0  0  0  0
  -24.6989  -15.8459   20.6442 H   0  0  0  0  0  0
  -26.3596  -15.5907   20.4310 H   0  0  0  0  0  0
  -26.7133  -32.5526   23.1154 H   0  0  0  0  0  0
  -25.0075  -33.9783   25.0473 H   0  0  0  0  0  0
  -22.6978  -31.3140   21.4081 H   0  0  0  0  0  0
  -23.3754  -35.9638   23.3318 H   0  0  0  0  0  0
  -24.3571  -36.8905   22.2047 H   0  0  0  0  0  0
  -23.7230  -37.6506   23.6647 H   0  0  0  0  0  0
  -26.0592  -31.5968   20.5997 H   0  0  0  0  0  0
  -26.8205  -30.8763   21.9900 H   0  0  0  0  0  0
  -28.1027  -29.0990   21.1477 H   0  0  0  0  0  0
  -26.0075  -25.9366   19.0632 H   0  0  0  0  0  0
  -23.9669  -27.2793   19.0663 H   0  0  0  0  0  0
  -23.7324  -30.6063   19.4047 H   0  0  0  0  0  0
  -22.7395  -29.2529   19.8579 H   0  0  0  0  0  0
  -25.1302  -36.1973   25.0821 H   0  0  0  0  0  0
  -20.9971  -28.3295   24.1386 H   0  0  0  0  0  0
  -20.5629  -26.2331   23.3601 H   0  0  0  0  0  0
  -21.6639  -26.7446   22.1220 H   0  0  0  0  0  0
  -19.6913  -25.6302   21.1234 H   0  0  0  0  0  0
  -19.6693  -27.3189   20.6703 H   0  0  0  0  0  0
  -17.4193  -26.6660   21.4015 H   0  0  0  0  0  0
  -18.0359  -26.0093   22.9009 H   0  0  0  0  0  0
  -19.7942  -30.7266   24.2272 H   0  0  0  0  0  0
  -17.5027  -31.6269   24.5192 H   0  0  0  0  0  0
  -15.5357  -30.3013   23.7651 H   0  0  0  0  0  0
  -15.8663  -28.0866   22.7011 H   0  0  0  0  0  0
  -24.5898  -30.7110   25.7800 H   0  0  0  0  0  0
  -24.8968  -32.2876   26.4975 H   0  0  0  0  0  0
  -25.8081  -30.8837   27.0213 H   0  0  0  0  0  0
  -26.2881  -29.6801   24.1209 H   0  0  0  0  0  0
  -27.4072  -29.7321   25.4641 H   0  0  0  0  0  0
  -27.8728  -30.4364   23.9333 H   0  0  0  0  0  0
  -27.2674  -33.3621   26.2124 H   0  0  0  0  0  0
  -28.3826  -32.6948   25.0296 H   0  0  0  0  0  0
  -28.0779  -31.8446   26.5356 H   0  0  0  0  0  0
  -28.2617  -38.0099   24.7524 H   0  0  0  0  0  0
  -28.1065  -36.2629   24.6290 H   0  0  0  0  0  0
  -27.2299  -37.1465   25.8867 H   0  0  0  0  0  0
  -20.9291  -29.8816   21.6903 H   0  0  0  0  0  0
  -26.0183  -38.2879   24.1415 H   0  0  0  0  0  0
  -29.0337  -21.0831   21.7828 H   0  0  0  0  0  0
  -31.5857  -24.2052   18.7528 H   0  0  0  0  0  0
  -30.3936  -23.6432   17.5741 H   0  0  0  0  0  0
  -32.0118  -22.9565   17.5864 H   0  0  0  0  0  0
  -28.6586  -19.0132   18.8422 H   0  0  0  0  0  0
  -27.6715  -19.0663   20.3073 H   0  0  0  0  0  0
  -27.6522  -17.6803   19.2260 H   0  0  0  0  0  0
  -29.8472  -15.1722   22.5063 H   0  0  0  0  0  0
  -31.1628  -16.1389   21.9976 H   0  0  0  0  0  0
  -28.0553  -25.6860   18.3183 H   0  0  0  0  0  0
  -29.6548  -25.5723   18.9188 H   0  0  0  0  0  0
  -28.0137  -23.4806   19.0842 H   0  0  0  0  0  0
  -27.4184  -24.2551   20.5222 H   0  0  0  0  0  0
  1 25  1  0  0  0
  1 30  2  0  0  0
  1 79  1  0  0  0
  2  3  1  0  0  0
  2 25  1  0  0  0
  2 87  1  0  0  0
  2 88  1  0  0  0
  3  4  1  0  0  0
  3 89  1  0  0  0
  3 90  1  0  0  0
  4  5  1  0  0  0
  4 91  1  0  0  0
  4 92  1  0  0  0
  5  6  1  0  0  0
  5 26  1  0  0  0
  5 93  1  0  0  0
  6 25  1  0  0  0
  6 94  1  0  0  0
  6 95  1  0  0  0
  7  8  2  0  0  0
  7 26  1  0  0  0
  7 29  1  0  0  0
  8  9  1  0  0  0
  8 22  1  0  0  0
  9 10  1  0  0  0
  9 27  2  0  0  0
 10 11  2  0  0  0
 10 15  1  0  0  0
 11 12  1  0  0  0
 11 96  1  0  0  0
 12 13  2  0  0  0
 12 97  1  0  0  0
 13 14  1  0  0  0
 13 31  1  0  0  0
 14 15  2  0  0  0
 14 98  1  0  0  0
 15 99  1  0  0  0
 16 17  2  0  0  0
 16 21  1  0  0  0
 16 31  1  0  0  0
 17 18  1  0  0  0
 17100  1  0  0  0
 18 19  2  0  0  0
 18101  1  0  0  0
 19 20  1  0  0  0
 19 24  1  0  0  0
 20 21  2  0  0  0
 20102  1  0  0  0
 21 23  1  0  0  0
 22 28  1  0  0  0
 22 32  2  0  0  0
 26 27  1  0  0  0
 28103  1  0  0  0
 28104  1  0  0  0
 29105  1  0  0  0
 29106  1  0  0  0
 33 34  1  0  0  0
 33 66  1  0  0  0
 33 70  2  0  0  0
 34 36  1  0  0  0
 34 59  1  0  0  0
 34107  1  0  0  0
 35 44  2  0  0  0
 35 45  1  0  0  0
 35 68  1  0  0  0
 36 56  1  0  0  0
 36108  1  0  0  0
 37 39  1  0  0  0
 37 47  1  0  0  0
 37 66  1  0  0  0
 37109  1  0  0  0
 38 43  2  0  0  0
 38 46  1  0  0  0
 38 47  1  0  0  0
 39 64  1  0  0  0
 39 67  2  0  0  0
 40 52  1  0  0  0
 40 53  2  0  0  0
 40 58  1  0  0  0
 41110  1  0  0  0
 41111  1  0  0  0
 41112  1  0  0  0
 41 48  1  0  0  0
 42 43  1  0  0  0
 42 66  1  0  0  0
 42113  1  0  0  0
 42114  1  0  0  0
 43 44  1  0  0  0
 44115  1  0  0  0
 45 46  2  0  0  0
 45116  1  0  0  0
 46117  1  0  0  0
 47118  1  0  0  0
 47119  1  0  0  0
 48 56  1  0  0  0
 48 65  1  0  0  0
 48120  1  0  0  0
 49 50  1  0  0  0
 49 53  1  0  0  0
 49 64  1  0  0  0
 49121  1  0  0  0
 50 51  1  0  0  0
 50122  1  0  0  0
 50123  1  0  0  0
 51 52  1  0  0  0
 51124  1  0  0  0
 51125  1  0  0  0
 52126  1  0  0  0
 52127  1  0  0  0
 53 54  1  0  0  0
 54 55  2  0  0  0
 54128  1  0  0  0
 55 57  1  0  0  0
 55129  1  0  0  0
 56 69  2  0  0  0
 57 58  2  0  0  0
 57130  1  0  0  0
 58131  1  0  0  0
 59 60  1  0  0  0
 59 61  1  0  0  0
 59 62  1  0  0  0
 60132  1  0  0  0
 60133  1  0  0  0
 60134  1  0  0  0
 61135  1  0  0  0
 61136  1  0  0  0
 61137  1  0  0  0
 62138  1  0  0  0
 62139  1  0  0  0
 62140  1  0  0  0
 63 65  1  0  0  0
 63141  1  0  0  0
 63142  1  0  0  0
 63143  1  0  0  0
 64144  1  0  0  0
 65145  1  0  0  0
 68 80  1  0  0  0
 71 72  1  0  0  0
 71 73  2  0  0  0
 71146  1  0  0  0
 72 74  2  0  0  0
 72 85  1  0  0  0
 73 75  1  0  0  0
 73 86  1  0  0  0
 74 77  1  0  0  0
 74 86  1  0  0  0
 75 82  1  0  0  0
 75 83  2  0  0  0
 76 79  1  0  0  0
 76 82  1  0  0  0
 76 84  2  0  0  0
 77147  1  0  0  0
 77148  1  0  0  0
 77149  1  0  0  0
 78 82  1  0  0  0
 78150  1  0  0  0
 78151  1  0  0  0
 78152  1  0  0  0
 79153  1  0  0  0
 79154  1  0  0  0
 80 81  1  0  0  0
 80155  1  0  0  0
 80156  1  0  0  0
 81 85  1  0  0  0
 81157  1  0  0  0
 81158  1  0  0  0
M  ISO  4   1 100  68 101  79 100  80 101
M  END
> <chiral flag>
0

> <version>
0

> <s_m_source_file>
/data/baiqing/PycharmProjects/Reinvent-master-3.2/result/LINK_invent/BTK/process_docking_weight1_custom_product_contain_oxygen_bond_distance_aromatic_linkinvent_7_9_3/rearranged_h_0103.sdf

> <i_m_source_file_index>
10

> <r_mmod_Potential_Energy-OPLS-2005>
-20.5910015106201

> <r_mmod_Stretch_Energy-OPLS-2005>
50.5234260559082

> <r_mmod_Bend_Energy-OPLS-2005>
141.065887451172

> <r_mmod_Torsional_Energy-OPLS-2005>
238.926940917969

> <r_mmod_Improper_Torsional_Energy-OPLS-2005>
3.73604965209961

> <r_mmod_Van_der_Waal_Energy-OPLS-2005>
150.675888061523

> <r_mmod_Electrostatic_Energy-OPLS-2005>
-416.817962646484

> <r_mmod_Solvation_Energy-OPLS-2005>
-204.49040222168

> <b_mmod_Minimization_Converged-OPLS-2005>
0

> <r_mmod_RMS_Derivative-OPLS-2005>
2.9504189491272

$$$$
10
                    3D
 Structure written by MMmdl.
143150  0  0  1  0            999 V2000
  -30.1636  -16.0165   20.2837 C   0  0  0  0  0  0
  -30.4021  -13.3807   19.5097 C   0  0  0  0  0  0
  -29.5672  -12.7447   18.3499 C   0  0  0  0  0  0
  -28.1808  -12.2975   18.8321 C   0  0  0  0  0  0
  -27.5888  -13.3376   19.8001 C   0  0  2  0  0  0
  -28.5861  -13.8471   20.8777 C   0  0  0  0  0  0
  -25.2337  -13.8308   20.5832 C   0  0  0  0  0  0
  -24.1745  -13.0427   20.9297 C   0  0  0  0  0  0
  -24.6485  -11.6955   20.8763 C   0  0  0  0  0  0
  -23.9183  -10.4297   21.0405 C   0  0  0  0  0  0
  -24.3690   -9.4205   21.9200 C   0  0  0  0  0  0
  -23.6323   -8.2263   22.0773 C   0  0  0  0  0  0
  -22.4301   -8.0322   21.3557 C   0  0  0  0  0  0
  -21.9971   -9.0311   20.4658 C   0  0  0  0  0  0
  -22.7347  -10.2160   20.3056 C   0  0  0  0  0  0
  -21.6865   -6.0767   22.5277 C   0  0  0  0  0  0
  -21.4023   -6.5660   23.8211 C   0  0  0  0  0  0
  -21.3650   -5.6801   24.9170 C   0  0  0  0  0  0
  -21.6034   -4.3069   24.7210 C   0  0  0  0  0  0
  -21.8818   -3.8167   23.4328 C   0  0  0  0  0  0
  -21.9194   -4.6989   22.3390 C   0  0  0  0  0  0
  -22.7748  -13.5156   21.1899 C   0  0  0  0  0  0
  -22.1667   -4.2180   21.0968 F   0  0  0  0  0  0
  -21.5617   -3.4544   25.7721 F   0  0  0  0  0  0
  -29.6793  -14.5908   20.1704 N   0  0  0  0  0  0
  -26.2827  -12.9698   20.3296 N   0  0  0  0  0  0
  -25.9450  -11.6736   20.5678 N   0  0  0  0  0  0
  -22.0376  -12.8144   22.0431 N   0  0  0  0  0  0
  -25.3914  -15.2038   20.4227 N   0  0  0  0  0  0
  -31.4110  -15.8730   20.3150 O   0  0  0  0  0  0
  -21.6650   -6.8922   21.4243 O   0  0  0  0  0  0
  -22.3446  -14.5464   20.6738 O   0  0  0  0  0  0
  -24.7056  -31.7721   23.1279 C   0  0  0  0  0  0
  -25.9532  -32.4316   23.7901 C   0  0  1  0  0  0
  -27.2397  -26.4470   20.2423 C   0  0  0  0  0  0
  -25.6018  -33.8158   24.1777 N   0  0  0  0  0  0
  -23.5424  -30.3631   21.4905 C   0  0  2  0  0  0
  -25.0002  -28.6446   20.1351 C   0  0  0  0  0  0
  -22.7854  -29.4187   22.4644 C   0  0  0  0  0  0
  -18.0371  -28.1416   22.8423 C   0  0  0  0  0  0
  -24.1517  -36.7085   23.2660 C   0  0  0  0  0  0
  -26.1337  -30.4200   21.4327 C   0  0  0  0  0  0
  -26.1981  -28.9547   20.7902 C   0  0  0  0  0  0
  -27.2916  -27.8963   20.7967 C   0  0  0  0  0  0
  -26.0015  -26.4115   19.5305 C   0  0  0  0  0  0
  -24.9557  -27.3989   19.4822 C   0  0  0  0  0  0
  -23.8105  -29.6337   20.1397 C   0  0  0  0  0  0
  -25.4171  -36.2793   24.0256 C   0  0  1  0  0  0
  -20.6014  -28.3800   23.1070 C   0  0  2  0  0  0
  -20.6839  -26.9442   22.5381 C   0  0  0  0  0  0
  -19.5827  -26.6358   21.5191 C   0  0  0  0  0  0
  -18.2003  -26.7940   22.1583 C   0  0  0  0  0  0
  -19.1638  -28.8931   23.2716 C   0  0  0  0  0  0
  -18.9548  -30.1508   23.8772 C   0  0  0  0  0  0
  -17.6539  -30.6592   24.0541 C   0  0  0  0  0  0
  -25.9163  -34.9196   23.4875 C   0  0  0  0  0  0
  -16.5425  -29.9075   23.6350 C   0  0  0  0  0  0
  -16.7348  -28.6498   23.0359 C   0  0  0  0  0  0
  -26.4636  -31.6450   25.0620 C   0  0  0  0  0  0
  -25.3610  -31.3840   26.1159 C   0  0  0  0  0  0
  -27.0610  -30.2754   24.6715 C   0  0  0  0  0  0
  -27.6057  -32.4362   25.7419 C   0  0  0  0  0  0
  -27.5566  -37.1691   24.8469 C   0  0  0  0  0  0
  -21.4482  -29.3015   22.3371 N   0  0  0  0  0  0
  -26.4271  -37.3581   23.9410 N   0  0  0  0  0  0
  -24.8204  -30.8911   22.0685 N   0  0  0  0  0  0
  -23.4189  -28.7845   23.3110 O   0  0  0  0  0  0
  -28.2103  -25.1382   20.2091 O   0  0  0  0  0  0
  -26.5834  -34.8827   22.4520 O   0  0  0  0  0  0
  -23.6030  -32.0923   23.6086 O   0  0  0  0  0  0
  -28.1464  -17.3478   19.4672 C   0  0  0  0  0  0
  -28.8124  -21.3013   19.9737 C   0  0  0  0  0  0
  -29.3809  -19.3622   20.5689 C   0  0  0  0  0  0
  -28.2518  -23.2636   20.5080 C   0  0  0  0  0  0
  -29.4090  -17.4905   20.1879 N   0  0  0  0  0  0
  -31.3491  -13.7206   19.0871 H   0  0  0  0  0  0
  -30.6891  -12.6298   20.2484 H   0  0  0  0  0  0
  -30.1007  -11.9032   17.9056 H   0  0  0  0  0  0
  -29.4507  -13.4882   17.5599 H   0  0  0  0  0  0
  -28.2969  -11.3475   19.3561 H   0  0  0  0  0  0
  -27.5119  -12.1116   17.9905 H   0  0  0  0  0  0
  -27.3888  -14.1854   19.1460 H   0  0  0  0  0  0
  -28.9521  -13.0395   21.5131 H   0  0  0  0  0  0
  -28.0824  -14.5461   21.5462 H   0  0  0  0  0  0
  -25.2818   -9.5670   22.4811 H   0  0  0  0  0  0
  -24.0006   -7.4646   22.7503 H   0  0  0  0  0  0
  -21.0901   -8.8859   19.8964 H   0  0  0  0  0  0
  -22.3825  -10.9720   19.6176 H   0  0  0  0  0  0
  -21.2033   -7.6171   23.9723 H   0  0  0  0  0  0
  -21.1463   -6.0535   25.9069 H   0  0  0  0  0  0
  -22.0599   -2.7631   23.2819 H   0  0  0  0  0  0
  -22.3953  -11.9803   22.4832 H   0  0  0  0  0  0
  -21.0994  -13.1198   22.2586 H   0  0  0  0  0  0
  -24.6180  -15.8537   20.5135 H   0  0  0  0  0  0
  -26.2365  -15.6377   20.0778 H   0  0  0  0  0  0
  -26.7628  -32.4715   23.0604 H   0  0  0  0  0  0
  -25.0022  -33.9142   24.9835 H   0  0  0  0  0  0
  -22.8827  -31.2078   21.2796 H   0  0  0  0  0  0
  -23.3793  -35.9400   23.3237 H   0  0  0  0  0  0
  -24.3589  -36.8852   22.2098 H   0  0  0  0  0  0
  -23.7284  -37.6231   23.6819 H   0  0  0  0  0  0
  -26.3696  -31.1317   20.6405 H   0  0  0  0  0  0
  -26.9701  -30.4928   22.1139 H   0  0  0  0  0  0
  -28.1969  -28.1645   21.3228 H   0  0  0  0  0  0
  -25.7942  -25.4939   18.9988 H   0  0  0  0  0  0
  -24.0597  -27.1443   18.9321 H   0  0  0  0  0  0
  -24.0068  -30.3831   19.3723 H   0  0  0  0  0  0
  -22.9079  -29.1151   19.8100 H   0  0  0  0  0  0
  -25.1403  -36.1503   25.0741 H   0  0  0  0  0  0
  -21.0074  -28.3462   24.1202 H   0  0  0  0  0  0
  -20.5710  -26.2429   23.3662 H   0  0  0  0  0  0
  -21.6702  -26.7377   22.1213 H   0  0  0  0  0  0
  -19.7002  -25.6243   21.1297 H   0  0  0  0  0  0
  -19.6788  -27.3096   20.6667 H   0  0  0  0  0  0
  -17.4282  -26.6659   21.3976 H   0  0  0  0  0  0
  -18.0400  -26.0087   22.8982 H   0  0  0  0  0  0
  -19.8041  -30.7337   24.2090 H   0  0  0  0  0  0
  -17.5110  -31.6270   24.5154 H   0  0  0  0  0  0
  -15.5426  -30.2945   23.7749 H   0  0  0  0  0  0
  -15.8745  -28.0788   22.7127 H   0  0  0  0  0  0
  -24.5835  -30.7168   25.7404 H   0  0  0  0  0  0
  -24.8745  -32.3083   26.4274 H   0  0  0  0  0  0
  -25.7670  -30.9167   27.0138 H   0  0  0  0  0  0
  -26.3378  -29.6279   24.1734 H   0  0  0  0  0  0
  -27.3964  -29.7306   25.5554 H   0  0  0  0  0  0
  -27.9394  -30.3809   24.0341 H   0  0  0  0  0  0
  -27.2609  -33.3796   26.1651 H   0  0  0  0  0  0
  -28.4001  -32.6704   25.0320 H   0  0  0  0  0  0
  -28.0563  -31.8717   26.5586 H   0  0  0  0  0  0
  -28.2518  -38.0043   24.7519 H   0  0  0  0  0  0
  -28.1127  -36.2561   24.6293 H   0  0  0  0  0  0
  -27.2274  -37.1305   25.8866 H   0  0  0  0  0  0
  -20.9828  -29.8607   21.6350 H   0  0  0  0  0  0
  -26.0066  -38.2612   24.1440 H   0  0  0  0  0  0
  -28.1011  -18.0711   18.6522 H   0  0  0  0  0  0
  -27.3084  -17.5390   20.1372 H   0  0  0  0  0  0
  -28.0019  -16.3666   19.0140 H   0  0  0  0  0  0
  -28.0363  -21.0683   19.2450 H   0  0  0  0  0  0
  -29.6673  -21.5348   19.3396 H   0  0  0  0  0  0
  -28.8748  -19.3113   21.5346 H   0  0  0  0  0  0
  -30.4241  -19.5134   20.8524 H   0  0  0  0  0  0
  -27.2187  -23.1099   20.8199 H   0  0  0  0  0  0
  -28.7962  -23.3194   21.4512 H   0  0  0  0  0  0
  1 25  1  0  0  0
  1 30  2  0  0  0
  1 75  1  0  0  0
  2  3  1  0  0  0
  2 25  1  0  0  0
  2 76  1  0  0  0
  2 77  1  0  0  0
  3  4  1  0  0  0
  3 78  1  0  0  0
  3 79  1  0  0  0
  4  5  1  0  0  0
  4 80  1  0  0  0
  4 81  1  0  0  0
  5  6  1  0  0  0
  5 26  1  0  0  0
  5 82  1  0  0  0
  6 25  1  0  0  0
  6 83  1  0  0  0
  6 84  1  0  0  0
  7  8  2  0  0  0
  7 26  1  0  0  0
  7 29  1  0  0  0
  8  9  1  0  0  0
  8 22  1  0  0  0
  9 10  1  0  0  0
  9 27  2  0  0  0
 10 11  2  0  0  0
 10 15  1  0  0  0
 11 12  1  0  0  0
 11 85  1  0  0  0
 12 13  2  0  0  0
 12 86  1  0  0  0
 13 14  1  0  0  0
 13 31  1  0  0  0
 14 15  2  0  0  0
 14 87  1  0  0  0
 15 88  1  0  0  0
 16 17  2  0  0  0
 16 21  1  0  0  0
 16 31  1  0  0  0
 17 18  1  0  0  0
 17 89  1  0  0  0
 18 19  2  0  0  0
 18 90  1  0  0  0
 19 20  1  0  0  0
 19 24  1  0  0  0
 20 21  2  0  0  0
 20 91  1  0  0  0
 21 23  1  0  0  0
 22 28  1  0  0  0
 22 32  2  0  0  0
 26 27  1  0  0  0
 28 92  1  0  0  0
 28 93  1  0  0  0
 29 94  1  0  0  0
 29 95  1  0  0  0
 33 34  1  0  0  0
 33 66  1  0  0  0
 33 70  2  0  0  0
 34 36  1  0  0  0
 34 59  1  0  0  0
 34 96  1  0  0  0
 35 44  2  0  0  0
 35 45  1  0  0  0
 35 68  1  0  0  0
 36 56  1  0  0  0
 36 97  1  0  0  0
 37 39  1  0  0  0
 37 47  1  0  0  0
 37 66  1  0  0  0
 37 98  1  0  0  0
 38 43  2  0  0  0
 38 46  1  0  0  0
 38 47  1  0  0  0
 39 64  1  0  0  0
 39 67  2  0  0  0
 40 52  1  0  0  0
 40 53  2  0  0  0
 40 58  1  0  0  0
 41 99  1  0  0  0
 41100  1  0  0  0
 41101  1  0  0  0
 41 48  1  0  0  0
 42 43  1  0  0  0
 42 66  1  0  0  0
 42102  1  0  0  0
 42103  1  0  0  0
 43 44  1  0  0  0
 44104  1  0  0  0
 45 46  2  0  0  0
 45105  1  0  0  0
 46106  1  0  0  0
 47107  1  0  0  0
 47108  1  0  0  0
 48 56  1  0  0  0
 48 65  1  0  0  0
 48109  1  0  0  0
 49 50  1  0  0  0
 49 53  1  0  0  0
 49 64  1  0  0  0
 49110  1  0  0  0
 50 51  1  0  0  0
 50111  1  0  0  0
 50112  1  0  0  0
 51 52  1  0  0  0
 51113  1  0  0  0
 51114  1  0  0  0
 52115  1  0  0  0
 52116  1  0  0  0
 53 54  1  0  0  0
 54 55  2  0  0  0
 54117  1  0  0  0
 55 57  1  0  0  0
 55118  1  0  0  0
 56 69  2  0  0  0
 57 58  2  0  0  0
 57119  1  0  0  0
 58120  1  0  0  0
 59 60  1  0  0  0
 59 61  1  0  0  0
 59 62  1  0  0  0
 60121  1  0  0  0
 60122  1  0  0  0
 60123  1  0  0  0
 61124  1  0  0  0
 61125  1  0  0  0
 61126  1  0  0  0
 62127  1  0  0  0
 62128  1  0  0  0
 62129  1  0  0  0
 63 65  1  0  0  0
 63130  1  0  0  0
 63131  1  0  0  0
 63132  1  0  0  0
 64133  1  0  0  0
 65134  1  0  0  0
 68 74  1  0  0  0
 71 75  1  0  0  0
 71135  1  0  0  0
 71136  1  0  0  0
 71137  1  0  0  0
 72 73  1  0  0  0
 72 74  1  0  0  0
 72138  1  0  0  0
 72139  1  0  0  0
 73 75  1  0  0  0
 73140  1  0  0  0
 73141  1  0  0  0
 74142  1  0  0  0
 74143  1  0  0  0
M  ISO  4   1 100  68 101  74 101  75 100
M  END
> <chiral flag>
0

> <version>
0

> <s_m_source_file>
/data/baiqing/PycharmProjects/Reinvent-master-3.2/result/LINK_invent/BTK/process_docking_weight1_custom_product_contain_oxygen_bond_distance_aromatic_linkinvent_7_9_3/rearranged_h_0103.sdf

> <i_m_source_file_index>
11

> <r_mmod_Potential_Energy-OPLS-2005>
4303.49072265625

> <r_mmod_Stretch_Energy-OPLS-2005>
1937.3203125

> <r_mmod_Bend_Energy-OPLS-2005>
891.069641113281

> <r_mmod_Torsional_Energy-OPLS-2005>
308.0107421875

> <r_mmod_Improper_Torsional_Energy-OPLS-2005>
4.89766931533813

> <r_mmod_Van_der_Waal_Energy-OPLS-2005>
112.25927734375

> <r_mmod_Electrostatic_Energy-OPLS-2005>
-274.442291259766

> <r_mmod_Solvation_Energy-OPLS-2005>
-215.008483886719

> <b_mmod_Minimization_Converged-OPLS-2005>
0

> <r_mmod_RMS_Derivative-OPLS-2005>
2.3036835193634

$$$$
11
                    3D
 Structure written by MMmdl.
161170  0  0  1  0            999 V2000
  -30.7833  -14.3784   20.6719 C   0  0  0  0  0  0
  -30.4088  -12.2842   19.4212 C   0  0  0  0  0  0
  -29.4906  -12.5166   18.2054 C   0  0  0  0  0  0
  -28.0119  -12.3754   18.6098 C   0  0  0  0  0  0
  -27.6630  -13.2042   19.8723 C   0  0  2  0  0  0
  -28.6932  -12.9594   20.9938 C   0  0  0  0  0  0
  -25.2593  -13.8163   20.5655 C   0  0  0  0  0  0
  -24.1838  -13.0442   20.9153 C   0  0  0  0  0  0
  -24.6386  -11.6907   20.8711 C   0  0  0  0  0  0
  -23.9053  -10.4295   21.0395 C   0  0  0  0  0  0
  -24.3607   -9.4215   21.9178 C   0  0  0  0  0  0
  -23.6286   -8.2250   22.0754 C   0  0  0  0  0  0
  -22.4269   -8.0282   21.3544 C   0  0  0  0  0  0
  -21.9900   -9.0252   20.4646 C   0  0  0  0  0  0
  -22.7224  -10.2133   20.3050 C   0  0  0  0  0  0
  -21.6852   -6.0733   22.5278 C   0  0  0  0  0  0
  -21.4013   -6.5637   23.8211 C   0  0  0  0  0  0
  -21.3659   -5.6789   24.9173 C   0  0  0  0  0  0
  -21.6044   -4.3053   24.7224 C   0  0  0  0  0  0
  -21.8818   -3.8144   23.4344 C   0  0  0  0  0  0
  -21.9192   -4.6961   22.3401 C   0  0  0  0  0  0
  -22.7866  -13.5246   21.1832 C   0  0  0  0  0  0
  -22.1660   -4.2147   21.0977 F   0  0  0  0  0  0
  -21.5629   -3.4537   25.7737 F   0  0  0  0  0  0
  -30.0424  -13.2498   20.4733 N   0  0  0  0  0  0
  -26.3018  -12.9326   20.3315 N   0  0  0  0  0  0
  -25.9305  -11.6487   20.5719 N   0  0  0  0  0  0
  -22.0508  -12.8239   22.0391 N   0  0  0  0  0  0
  -25.4337  -15.1881   20.4089 N   0  0  0  0  0  0
  -31.8090  -14.6004   20.0183 O   0  0  0  0  0  0
  -21.6636   -6.8877   21.4240 O   0  0  0  0  0  0
  -22.3552  -14.5557   20.6693 O   0  0  0  0  0  0
  -24.6117  -31.8701   23.2122 C   0  0  0  0  0  0
  -25.9023  -32.4833   23.8407 C   0  0  1  0  0  0
  -27.2334  -27.4603   20.0888 C   0  0  0  0  0  0
  -25.5891  -33.8631   24.2341 N   0  0  0  0  0  0
  -23.3973  -30.4944   21.5528 C   0  0  2  0  0  0
  -24.8418  -28.9636   20.1153 C   0  0  0  0  0  0
  -22.7389  -29.4670   22.5008 C   0  0  0  0  0  0
  -18.0267  -28.1374   22.8495 C   0  0  0  0  0  0
  -24.1485  -36.7320   23.2638 C   0  0  0  0  0  0
  -25.9232  -30.8440   21.3603 C   0  0  0  0  0  0
  -26.0004  -29.4805   20.7075 C   0  0  0  0  0  0
  -27.1989  -28.7363   20.6897 C   0  0  0  0  0  0
  -26.0566  -26.9524   19.4898 C   0  0  0  0  0  0
  -24.8634  -27.6978   19.5051 C   0  0  0  0  0  0
  -23.6026  -29.8269   20.1669 C   0  0  0  0  0  0
  -25.4106  -36.3120   24.0341 C   0  0  1  0  0  0
  -20.5854  -28.3656   23.1331 C   0  0  2  0  0  0
  -20.6757  -26.9396   22.5422 C   0  0  0  0  0  0
  -19.5741  -26.6387   21.5212 C   0  0  0  0  0  0
  -18.1915  -26.7925   22.1618 C   0  0  0  0  0  0
  -19.1515  -28.8831   23.2911 C   0  0  0  0  0  0
  -18.9446  -30.1439   23.8919 C   0  0  0  0  0  0
  -17.6449  -30.6583   24.0567 C   0  0  0  0  0  0
  -25.9031  -34.9483   23.5138 C   0  0  0  0  0  0
  -16.5341  -29.9087   23.6325 C   0  0  0  0  0  0
  -16.7257  -28.6504   23.0345 C   0  0  0  0  0  0
  -26.4463  -31.6603   25.0723 C   0  0  0  0  0  0
  -25.3742  -31.3689   26.1478 C   0  0  0  0  0  0
  -27.0293  -30.3055   24.6070 C   0  0  0  0  0  0
  -27.6043  -32.4318   25.7483 C   0  0  0  0  0  0
  -27.5584  -37.1814   24.8464 C   0  0  0  0  0  0
  -21.4121  -29.3030   22.3744 N   0  0  0  0  0  0
  -26.4295  -37.3801   23.9411 N   0  0  0  0  0  0
  -24.6624  -31.0828   22.1008 N   0  0  0  0  0  0
  -23.4175  -28.8212   23.3038 O   0  0  0  0  0  0
  -28.4168  -26.7592   20.1012 O   0  0  0  0  0  0
  -26.5590  -34.8929   22.4697 O   0  0  0  0  0  0
  -23.5319  -32.1439   23.7538 O   0  0  0  0  0  0
  -32.6630  -19.7759   21.7601 C   0  0  0  0  0  0
  -32.2267  -21.1110   21.8930 C   0  0  0  0  0  0
  -29.8821  -20.3860   21.8470 C   0  0  0  0  0  0
  -31.6925  -18.7653   21.6708 C   0  0  0  0  0  0
  -30.3333  -19.0578   21.7267 C   0  0  0  0  0  0
  -30.8461  -21.4244   21.9222 C   0  0  0  0  0  0
  -29.4969  -24.6979   20.8015 C   0  0  0  0  0  0
  -31.9402  -17.2946   21.4818 C   0  0  0  0  0  0
  -29.4928  -17.8072   21.6177 C   0  0  0  0  0  0
  -30.5264  -16.7543   21.1342 C   0  0  2  0  0  0
  -30.0813  -15.0892   22.9231 C   0  0  0  0  0  0
  -29.3646  -23.2176   21.1828 C   0  0  0  0  0  0
  -28.3139  -25.3335   20.0652 C   0  0  0  0  0  0
  -30.4735  -22.7686   22.0245 N   0  0  0  0  0  0
  -30.2786  -15.3396   21.4876 N   0  0  0  0  0  0
  -30.5209  -25.3369   21.0800 O   0  0  0  0  0  0
  -31.4559  -12.3573   19.1219 H   0  0  0  0  0  0
  -30.2886  -11.2672   19.7978 H   0  0  0  0  0  0
  -29.7292  -11.8067   17.4124 H   0  0  0  0  0  0
  -29.6679  -13.5106   17.7915 H   0  0  0  0  0  0
  -27.8170  -11.3183   18.7945 H   0  0  0  0  0  0
  -27.3645  -12.6624   17.7804 H   0  0  0  0  0  0
  -27.7190  -14.2566   19.5931 H   0  0  0  0  0  0
  -28.6529  -11.9210   21.3258 H   0  0  0  0  0  0
  -28.4109  -13.5453   21.8627 H   0  0  0  0  0  0
  -25.2753   -9.5695   22.4749 H   0  0  0  0  0  0
  -23.9996   -7.4646   22.7477 H   0  0  0  0  0  0
  -21.0831   -8.8767   19.8954 H   0  0  0  0  0  0
  -22.3681  -10.9668   19.6156 H   0  0  0  0  0  0
  -21.2005   -7.6144   23.9714 H   0  0  0  0  0  0
  -21.1482   -6.0519   25.9076 H   0  0  0  0  0  0
  -22.0596   -2.7606   23.2844 H   0  0  0  0  0  0
  -22.4119  -11.9892   22.4768 H   0  0  0  0  0  0
  -21.1133  -13.1275   22.2608 H   0  0  0  0  0  0
  -24.6735  -15.8493   20.5255 H   0  0  0  0  0  0
  -26.2973  -15.6253   20.1122 H   0  0  0  0  0  0
  -26.7096  -32.5556   23.1178 H   0  0  0  0  0  0
  -25.0055  -33.9801   25.0495 H   0  0  0  0  0  0
  -22.6847  -31.3104   21.4157 H   0  0  0  0  0  0
  -23.3746  -35.9654   23.3307 H   0  0  0  0  0  0
  -24.3581  -36.8927   22.2051 H   0  0  0  0  0  0
  -23.7236  -37.6527   23.6647 H   0  0  0  0  0  0
  -26.0307  -31.6110   20.5921 H   0  0  0  0  0  0
  -26.8131  -30.8980   21.9757 H   0  0  0  0  0  0
  -28.0952  -29.1333   21.1458 H   0  0  0  0  0  0
  -26.0463  -25.9900   18.9987 H   0  0  0  0  0  0
  -23.9726  -27.2956   19.0424 H   0  0  0  0  0  0
  -23.7070  -30.6016   19.4064 H   0  0  0  0  0  0
  -22.7272  -29.2445   19.8737 H   0  0  0  0  0  0
  -25.1279  -36.1992   25.0834 H   0  0  0  0  0  0
  -20.9943  -28.3218   24.1452 H   0  0  0  0  0  0
  -20.5660  -26.2260   23.3603 H   0  0  0  0  0  0
  -21.6631  -26.7443   22.1218 H   0  0  0  0  0  0
  -19.6903  -25.6303   21.1228 H   0  0  0  0  0  0
  -19.6686  -27.3210   20.6753 H   0  0  0  0  0  0
  -17.4190  -26.6684   21.4013 H   0  0  0  0  0  0
  -18.0308  -26.0057   22.9001 H   0  0  0  0  0  0
  -19.7922  -30.7248   24.2299 H   0  0  0  0  0  0
  -17.5006  -31.6265   24.5166 H   0  0  0  0  0  0
  -15.5344  -30.2997   23.7638 H   0  0  0  0  0  0
  -15.8656  -28.0834   22.7047 H   0  0  0  0  0  0
  -24.5930  -30.7016   25.7821 H   0  0  0  0  0  0
  -24.8914  -32.2833   26.4933 H   0  0  0  0  0  0
  -25.8115  -30.8866   27.0229 H   0  0  0  0  0  0
  -26.2826  -29.6820   24.1137 H   0  0  0  0  0  0
  -27.4097  -29.7283   25.4507 H   0  0  0  0  0  0
  -27.8643  -30.4391   23.9187 H   0  0  0  0  0  0
  -27.2662  -33.3602   26.2098 H   0  0  0  0  0  0
  -28.3830  -32.6905   25.0296 H   0  0  0  0  0  0
  -28.0734  -31.8421   26.5368 H   0  0  0  0  0  0
  -28.2604  -38.0109   24.7516 H   0  0  0  0  0  0
  -28.1077  -36.2642   24.6282 H   0  0  0  0  0  0
  -27.2304  -37.1458   25.8869 H   0  0  0  0  0  0
  -20.9273  -29.8757   21.6977 H   0  0  0  0  0  0
  -26.0188  -38.2881   24.1413 H   0  0  0  0  0  0
  -33.7176  -19.5415   21.7184 H   0  0  0  0  0  0
  -32.9676  -21.8961   21.9553 H   0  0  0  0  0  0
  -28.8222  -20.5956   21.8805 H   0  0  0  0  0  0
  -32.3360  -16.8769   22.4075 H   0  0  0  0  0  0
  -32.6629  -17.1120   20.6853 H   0  0  0  0  0  0
  -28.6664  -17.9310   20.9165 H   0  0  0  0  0  0
  -29.0804  -17.5786   22.6003 H   0  0  0  0  0  0
  -30.4608  -16.8303   20.0451 H   0  0  0  0  0  0
  -30.6925  -15.7513   23.5359 H   0  0  0  0  0  0
  -30.3413  -14.0676   23.2070 H   0  0  0  0  0  0
  -29.0409  -15.2590   23.2005 H   0  0  0  0  0  0
  -29.3174  -22.6321   20.2632 H   0  0  0  0  0  0
  -28.4204  -23.0731   21.7090 H   0  0  0  0  0  0
  -27.4006  -24.9916   20.5536 H   0  0  0  0  0  0
  -28.2961  -24.9853   19.0324 H   0  0  0  0  0  0
  -31.2348  -23.4461   22.0244 H   0  0  0  0  0  0
  1 25  1  0  0  0
  1 30  2  0  0  0
  1 85  1  0  0  0
  2  3  1  0  0  0
  2 25  1  0  0  0
  2 87  1  0  0  0
  2 88  1  0  0  0
  3  4  1  0  0  0
  3 89  1  0  0  0
  3 90  1  0  0  0
  4  5  1  0  0  0
  4 91  1  0  0  0
  4 92  1  0  0  0
  5  6  1  0  0  0
  5 26  1  0  0  0
  5 93  1  0  0  0
  6 25  1  0  0  0
  6 94  1  0  0  0
  6 95  1  0  0  0
  7  8  2  0  0  0
  7 26  1  0  0  0
  7 29  1  0  0  0
  8  9  1  0  0  0
  8 22  1  0  0  0
  9 10  1  0  0  0
  9 27  2  0  0  0
 10 11  2  0  0  0
 10 15  1  0  0  0
 11 12  1  0  0  0
 11 96  1  0  0  0
 12 13  2  0  0  0
 12 97  1  0  0  0
 13 14  1  0  0  0
 13 31  1  0  0  0
 14 15  2  0  0  0
 14 98  1  0  0  0
 15 99  1  0  0  0
 16 17  2  0  0  0
 16 21  1  0  0  0
 16 31  1  0  0  0
 17 18  1  0  0  0
 17100  1  0  0  0
 18 19  2  0  0  0
 18101  1  0  0  0
 19 20  1  0  0  0
 19 24  1  0  0  0
 20 21  2  0  0  0
 20102  1  0  0  0
 21 23  1  0  0  0
 22 28  1  0  0  0
 22 32  2  0  0  0
 26 27  1  0  0  0
 28103  1  0  0  0
 28104  1  0  0  0
 29105  1  0  0  0
 29106  1  0  0  0
 33 34  1  0  0  0
 33 66  1  0  0  0
 33 70  2  0  0  0
 34 36  1  0  0  0
 34 59  1  0  0  0
 34107  1  0  0  0
 35 44  2  0  0  0
 35 45  1  0  0  0
 35 68  1  0  0  0
 36 56  1  0  0  0
 36108  1  0  0  0
 37 39  1  0  0  0
 37 47  1  0  0  0
 37 66  1  0  0  0
 37109  1  0  0  0
 38 43  2  0  0  0
 38 46  1  0  0  0
 38 47  1  0  0  0
 39 64  1  0  0  0
 39 67  2  0  0  0
 40 52  1  0  0  0
 40 53  2  0  0  0
 40 58  1  0  0  0
 41110  1  0  0  0
 41111  1  0  0  0
 41112  1  0  0  0
 41 48  1  0  0  0
 42 43  1  0  0  0
 42 66  1  0  0  0
 42113  1  0  0  0
 42114  1  0  0  0
 43 44  1  0  0  0
 44115  1  0  0  0
 45 46  2  0  0  0
 45116  1  0  0  0
 46117  1  0  0  0
 47118  1  0  0  0
 47119  1  0  0  0
 48 56  1  0  0  0
 48 65  1  0  0  0
 48120  1  0  0  0
 49 50  1  0  0  0
 49 53  1  0  0  0
 49 64  1  0  0  0
 49121  1  0  0  0
 50 51  1  0  0  0
 50122  1  0  0  0
 50123  1  0  0  0
 51 52  1  0  0  0
 51124  1  0  0  0
 51125  1  0  0  0
 52126  1  0  0  0
 52127  1  0  0  0
 53 54  1  0  0  0
 54 55  2  0  0  0
 54128  1  0  0  0
 55 57  1  0  0  0
 55129  1  0  0  0
 56 69  2  0  0  0
 57 58  2  0  0  0
 57130  1  0  0  0
 58131  1  0  0  0
 59 60  1  0  0  0
 59 61  1  0  0  0
 59 62  1  0  0  0
 60132  1  0  0  0
 60133  1  0  0  0
 60134  1  0  0  0
 61135  1  0  0  0
 61136  1  0  0  0
 61137  1  0  0  0
 62138  1  0  0  0
 62139  1  0  0  0
 62140  1  0  0  0
 63 65  1  0  0  0
 63141  1  0  0  0
 63142  1  0  0  0
 63143  1  0  0  0
 64144  1  0  0  0
 65145  1  0  0  0
 68 83  1  0  0  0
 71 72  2  0  0  0
 71 74  1  0  0  0
 71146  1  0  0  0
 72 76  1  0  0  0
 72147  1  0  0  0
 73 75  1  0  0  0
 73 76  2  0  0  0
 73148  1  0  0  0
 74 75  2  0  0  0
 74 78  1  0  0  0
 75 79  1  0  0  0
 76 84  1  0  0  0
 77 82  1  0  0  0
 77 83  1  0  0  0
 77 86  2  0  0  0
 78 80  1  0  0  0
 78149  1  0  0  0
 78150  1  0  0  0
 79 80  1  0  0  0
 79151  1  0  0  0
 79152  1  0  0  0
 80 85  1  0  0  0
 80153  1  0  0  0
 81 85  1  0  0  0
 81154  1  0  0  0
 81155  1  0  0  0
 81156  1  0  0  0
 82 84  1  0  0  0
 82157  1  0  0  0
 82158  1  0  0  0
 83159  1  0  0  0
 83160  1  0  0  0
 84161  1  0  0  0
M  ISO  4   1 100  68 101  83 101  85 100
M  END
> <chiral flag>
0

> <version>
0

> <s_m_source_file>
/data/baiqing/PycharmProjects/Reinvent-master-3.2/result/LINK_invent/BTK/process_docking_weight1_custom_product_contain_oxygen_bond_distance_aromatic_linkinvent_7_9_3/rearranged_h_0103.sdf

> <i_m_source_file_index>
12

> <r_mmod_Potential_Energy-OPLS-2005>
152.224548339844

> <r_mmod_Stretch_Energy-OPLS-2005>
37.213981628418

> <r_mmod_Bend_Energy-OPLS-2005>
146.683700561523

> <r_mmod_Torsional_Energy-OPLS-2005>
285.763977050781

> <r_mmod_Improper_Torsional_Energy-OPLS-2005>
9.58520603179932

> <r_mmod_Van_der_Waal_Energy-OPLS-2005>
163.624893188477

> <r_mmod_Electrostatic_Energy-OPLS-2005>
-272.777709960938

> <r_mmod_Solvation_Energy-OPLS-2005>
-226.404113769531

> <b_mmod_Minimization_Converged-OPLS-2005>
0

> <r_mmod_RMS_Derivative-OPLS-2005>
0.246092259883881

$$$$
12
                    3D
 Structure written by MMmdl.
164173  0  0  1  0            999 V2000
  -30.6663  -14.6505   20.6314 C   0  0  0  0  0  0
  -30.4343  -12.4397   19.4768 C   0  0  0  0  0  0
  -29.5101  -12.5472   18.2431 C   0  0  0  0  0  0
  -28.0368  -12.3523   18.6419 C   0  0  0  0  0  0
  -27.6486  -13.2236   19.8611 C   0  0  2  0  0  0
  -28.6791  -13.0853   21.0003 C   0  0  0  0  0  0
  -25.2506  -13.8184   20.5710 C   0  0  0  0  0  0
  -24.1792  -13.0449   20.9210 C   0  0  0  0  0  0
  -24.6390  -11.6917   20.8755 C   0  0  0  0  0  0
  -23.9085  -10.4291   21.0411 C   0  0  0  0  0  0
  -24.3653   -9.4205   21.9182 C   0  0  0  0  0  0
  -23.6331   -8.2241   22.0749 C   0  0  0  0  0  0
  -22.4310   -8.0285   21.3544 C   0  0  0  0  0  0
  -21.9934   -9.0258   20.4643 C   0  0  0  0  0  0
  -22.7260  -10.2135   20.3052 C   0  0  0  0  0  0
  -21.6856   -6.0752   22.5290 C   0  0  0  0  0  0
  -21.4012   -6.5640   23.8231 C   0  0  0  0  0  0
  -21.3665   -5.6789   24.9179 C   0  0  0  0  0  0
  -21.6063   -4.3055   24.7222 C   0  0  0  0  0  0
  -21.8817   -3.8156   23.4332 C   0  0  0  0  0  0
  -21.9197   -4.6980   22.3404 C   0  0  0  0  0  0
  -22.7809  -13.5218   21.1873 C   0  0  0  0  0  0
  -22.1650   -4.2167   21.0977 F   0  0  0  0  0  0
  -21.5643   -3.4536   25.7726 F   0  0  0  0  0  0
  -30.0049  -13.4480   20.4752 N   0  0  0  0  0  0
  -26.2940  -12.9389   20.3277 N   0  0  0  0  0  0
  -25.9316  -11.6540   20.5761 N   0  0  0  0  0  0
  -22.0426  -12.8252   22.0425 N   0  0  0  0  0  0
  -25.4201  -15.1911   20.4151 N   0  0  0  0  0  0
  -31.7584  -14.8267   20.0798 O   0  0  0  0  0  0
  -21.6646   -6.8896   21.4262 O   0  0  0  0  0  0
  -22.3488  -14.5497   20.6659 O   0  0  0  0  0  0
  -24.6303  -31.8619   23.2040 C   0  0  0  0  0  0
  -25.9108  -32.4851   23.8399 C   0  0  1  0  0  0
  -27.2059  -27.3041   20.1241 C   0  0  0  0  0  0
  -25.5929  -33.8648   24.2300 N   0  0  0  0  0  0
  -23.4266  -30.4875   21.5469 C   0  0  2  0  0  0
  -24.8673  -28.9446   20.1124 C   0  0  0  0  0  0
  -22.7529  -29.4615   22.4904 C   0  0  0  0  0  0
  -18.0310  -28.1427   22.8497 C   0  0  0  0  0  0
  -24.1478  -36.7334   23.2632 C   0  0  0  0  0  0
  -25.9672  -30.7960   21.3696 C   0  0  0  0  0  0
  -26.0396  -29.4176   20.7184 C   0  0  0  0  0  0
  -27.2135  -28.6058   20.7152 C   0  0  0  0  0  0
  -26.0125  -26.8910   19.4891 C   0  0  0  0  0  0
  -24.8531  -27.6881   19.4926 C   0  0  0  0  0  0
  -23.6476  -29.8399   20.1555 C   0  0  0  0  0  0
  -25.4100  -36.3144   24.0331 C   0  0  1  0  0  0
  -20.5919  -28.3706   23.1309 C   0  0  2  0  0  0
  -20.6807  -26.9434   22.5415 C   0  0  0  0  0  0
  -19.5756  -26.6390   21.5259 C   0  0  0  0  0  0
  -18.1940  -26.7962   22.1667 C   0  0  0  0  0  0
  -19.1559  -28.8894   23.2896 C   0  0  0  0  0  0
  -18.9464  -30.1497   23.8921 C   0  0  0  0  0  0
  -17.6464  -30.6619   24.0590 C   0  0  0  0  0  0
  -25.9025  -34.9502   23.5092 C   0  0  0  0  0  0
  -16.5363  -29.9123   23.6347 C   0  0  0  0  0  0
  -16.7298  -28.6554   23.0339 C   0  0  0  0  0  0
  -26.4459  -31.6706   25.0800 C   0  0  0  0  0  0
  -25.3706  -31.3900   26.1568 C   0  0  0  0  0  0
  -27.0231  -30.3135   24.6195 C   0  0  0  0  0  0
  -27.6043  -32.4429   25.7563 C   0  0  0  0  0  0
  -27.5575  -37.1831   24.8461 C   0  0  0  0  0  0
  -21.4229  -29.3072   22.3704 N   0  0  0  0  0  0
  -26.4271  -37.3833   23.9431 N   0  0  0  0  0  0
  -24.6958  -31.0598   22.1025 N   0  0  0  0  0  0
  -23.4252  -28.8079   23.2925 O   0  0  0  0  0  0
  -28.3175  -26.4458   20.1422 O   0  0  0  0  0  0
  -26.5554  -34.8958   22.4643 O   0  0  0  0  0  0
  -23.5449  -32.1399   23.7338 O   0  0  0  0  0  0
  -28.4903  -18.9104   20.0961 C   0  0  0  0  0  0
  -28.7285  -17.5396   20.4001 C   0  0  0  0  0  0
  -30.6669  -19.4732   20.9463 C   0  0  0  0  0  0
  -30.9150  -18.0933   21.2699 C   0  0  0  0  0  0
  -29.4628  -19.9240   20.3291 C   0  0  0  0  0  0
  -29.9465  -17.0768   20.9620 C   0  0  0  0  0  0
  -29.3431  -21.4051   18.4325 C   0  0  0  0  0  0
  -29.0164  -22.4240   20.5587 C   0  0  0  0  0  0
  -32.8061  -18.5469   22.8565 C   0  0  0  0  0  0
  -32.1462  -17.7398   22.0053 C   0  0  0  0  0  0
  -28.9256  -22.6988   17.7232 C   0  0  0  0  0  0
  -29.3682  -23.9630   18.4647 C   0  0  0  0  0  0
  -29.1580  -23.9165   19.9938 C   0  0  2  0  0  0
  -29.9234  -15.4537   22.8196 C   0  0  0  0  0  0
  -28.0936  -25.0078   20.4709 C   0  0  0  0  0  0
  -29.2849  -21.2977   19.7907 N   0  0  0  0  0  0
  -30.0724  -15.6667   21.3702 N   0  0  0  0  0  0
  -29.6888  -20.4650   17.7040 O   0  0  0  0  0  0
  -28.6667  -22.3040   21.7391 O   0  0  0  0  0  0
  -31.4748  -12.5831   19.1788 H   0  0  0  0  0  0
  -30.3918  -11.4371   19.9065 H   0  0  0  0  0  0
  -29.7982  -11.8179   17.4855 H   0  0  0  0  0  0
  -29.6347  -13.5304   17.7881 H   0  0  0  0  0  0
  -27.8798  -11.2991   18.8816 H   0  0  0  0  0  0
  -27.3871  -12.5684   17.7944 H   0  0  0  0  0  0
  -27.6658  -14.2593   19.5216 H   0  0  0  0  0  0
  -28.6966  -12.0644   21.3808 H   0  0  0  0  0  0
  -28.3634  -13.7018   21.8376 H   0  0  0  0  0  0
  -25.2784   -9.5681   22.4769 H   0  0  0  0  0  0
  -24.0038   -7.4619   22.7449 H   0  0  0  0  0  0
  -21.0869   -8.8791   19.8946 H   0  0  0  0  0  0
  -22.3717  -10.9701   19.6183 H   0  0  0  0  0  0
  -21.1991   -7.6141   23.9745 H   0  0  0  0  0  0
  -21.1498   -6.0497   25.9090 H   0  0  0  0  0  0
  -22.0601   -2.7620   23.2820 H   0  0  0  0  0  0
  -22.4027  -11.9954   22.4909 H   0  0  0  0  0  0
  -21.1027  -13.1278   22.2560 H   0  0  0  0  0  0
  -24.6681  -15.8560   20.5596 H   0  0  0  0  0  0
  -26.2836  -15.6254   20.1218 H   0  0  0  0  0  0
  -26.7229  -32.5503   23.1207 H   0  0  0  0  0  0
  -25.0275  -33.9830   25.0580 H   0  0  0  0  0  0
  -22.7273  -31.3121   21.4067 H   0  0  0  0  0  0
  -23.3768  -35.9629   23.3231 H   0  0  0  0  0  0
  -24.3591  -36.8993   22.2061 H   0  0  0  0  0  0
  -23.7160  -37.6491   23.6678 H   0  0  0  0  0  0
  -26.0732  -31.5509   20.5901 H   0  0  0  0  0  0
  -26.8632  -30.8697   21.9772 H   0  0  0  0  0  0
  -28.1153  -28.9517   21.2013 H   0  0  0  0  0  0
  -25.9477  -25.9423   18.9789 H   0  0  0  0  0  0
  -23.9486  -27.3305   19.0175 H   0  0  0  0  0  0
  -23.8077  -30.6339   19.4245 H   0  0  0  0  0  0
  -22.7626  -29.2973   19.8162 H   0  0  0  0  0  0
  -25.1260  -36.2017   25.0815 H   0  0  0  0  0  0
  -21.0019  -28.3265   24.1426 H   0  0  0  0  0  0
  -20.5813  -26.2298   23.3590 H   0  0  0  0  0  0
  -21.6642  -26.7508   22.1120 H   0  0  0  0  0  0
  -19.6871  -25.6291   21.1297 H   0  0  0  0  0  0
  -19.6675  -27.3207   20.6796 H   0  0  0  0  0  0
  -17.4196  -26.6757   21.4076 H   0  0  0  0  0  0
  -18.0287  -26.0137   22.9101 H   0  0  0  0  0  0
  -19.7938  -30.7324   24.2270 H   0  0  0  0  0  0
  -17.5018  -31.6294   24.5185 H   0  0  0  0  0  0
  -15.5364  -30.3034   23.7625 H   0  0  0  0  0  0
  -15.8710  -28.0898   22.6984 H   0  0  0  0  0  0
  -24.5791  -30.7342   25.7937 H   0  0  0  0  0  0
  -24.9024  -32.3106   26.5072 H   0  0  0  0  0  0
  -25.8027  -30.9033   27.0319 H   0  0  0  0  0  0
  -26.2754  -29.7007   24.1160 H   0  0  0  0  0  0
  -27.3874  -29.7308   25.4657 H   0  0  0  0  0  0
  -27.8654  -30.4445   23.9405 H   0  0  0  0  0  0
  -27.2711  -33.3830   26.1973 H   0  0  0  0  0  0
  -28.3941  -32.6808   25.0435 H   0  0  0  0  0  0
  -28.0592  -31.8660   26.5621 H   0  0  0  0  0  0
  -28.2559  -38.0169   24.7557 H   0  0  0  0  0  0
  -28.1090  -36.2689   24.6203 H   0  0  0  0  0  0
  -27.2306  -37.1395   25.8867 H   0  0  0  0  0  0
  -20.9388  -29.8929   21.7038 H   0  0  0  0  0  0
  -26.0151  -38.2878   24.1531 H   0  0  0  0  0  0
  -27.5422  -19.1694   19.6438 H   0  0  0  0  0  0
  -27.9338  -16.8329   20.2145 H   0  0  0  0  0  0
  -31.4434  -20.2011   21.1440 H   0  0  0  0  0  0
  -33.7074  -18.2141   23.3543 H   0  0  0  0  0  0
  -32.4584  -19.5458   23.0861 H   0  0  0  0  0  0
  -32.5478  -16.7517   21.8281 H   0  0  0  0  0  0
  -27.8432  -22.6844   17.5919 H   0  0  0  0  0  0
  -29.3462  -22.7046   16.7163 H   0  0  0  0  0  0
  -28.8369  -24.8107   18.0296 H   0  0  0  0  0  0
  -30.4227  -24.1460   18.2559 H   0  0  0  0  0  0
  -30.0990  -24.2495   20.4332 H   0  0  0  0  0  0
  -30.4822  -16.1950   23.3904 H   0  0  0  0  0  0
  -30.2635  -14.4719   23.1568 H   0  0  0  0  0  0
  -28.8781  -15.5672   23.1132 H   0  0  0  0  0  0
  -28.0333  -24.9666   21.5578 H   0  0  0  0  0  0
  -27.1248  -24.6474   20.1334 H   0  0  0  0  0  0
  1 25  1  0  0  0
  1 30  2  0  0  0
  1 87  1  0  0  0
  2  3  1  0  0  0
  2 25  1  0  0  0
  2 90  1  0  0  0
  2 91  1  0  0  0
  3  4  1  0  0  0
  3 92  1  0  0  0
  3 93  1  0  0  0
  4  5  1  0  0  0
  4 94  1  0  0  0
  4 95  1  0  0  0
  5  6  1  0  0  0
  5 26  1  0  0  0
  5 96  1  0  0  0
  6 25  1  0  0  0
  6 97  1  0  0  0
  6 98  1  0  0  0
  7  8  2  0  0  0
  7 26  1  0  0  0
  7 29  1  0  0  0
  8  9  1  0  0  0
  8 22  1  0  0  0
  9 10  1  0  0  0
  9 27  2  0  0  0
 10 11  2  0  0  0
 10 15  1  0  0  0
 11 12  1  0  0  0
 11 99  1  0  0  0
 12 13  2  0  0  0
 12100  1  0  0  0
 13 14  1  0  0  0
 13 31  1  0  0  0
 14 15  2  0  0  0
 14101  1  0  0  0
 15102  1  0  0  0
 16 17  2  0  0  0
 16 21  1  0  0  0
 16 31  1  0  0  0
 17 18  1  0  0  0
 17103  1  0  0  0
 18 19  2  0  0  0
 18104  1  0  0  0
 19 20  1  0  0  0
 19 24  1  0  0  0
 20 21  2  0  0  0
 20105  1  0  0  0
 21 23  1  0  0  0
 22 28  1  0  0  0
 22 32  2  0  0  0
 26 27  1  0  0  0
 28106  1  0  0  0
 28107  1  0  0  0
 29108  1  0  0  0
 29109  1  0  0  0
 33 34  1  0  0  0
 33 66  1  0  0  0
 33 70  2  0  0  0
 34 36  1  0  0  0
 34 59  1  0  0  0
 34110  1  0  0  0
 35 44  2  0  0  0
 35 45  1  0  0  0
 35 68  1  0  0  0
 36 56  1  0  0  0
 36111  1  0  0  0
 37 39  1  0  0  0
 37 47  1  0  0  0
 37 66  1  0  0  0
 37112  1  0  0  0
 38 43  2  0  0  0
 38 46  1  0  0  0
 38 47  1  0  0  0
 39 64  1  0  0  0
 39 67  2  0  0  0
 40 52  1  0  0  0
 40 53  2  0  0  0
 40 58  1  0  0  0
 41113  1  0  0  0
 41114  1  0  0  0
 41115  1  0  0  0
 41 48  1  0  0  0
 42 43  1  0  0  0
 42 66  1  0  0  0
 42116  1  0  0  0
 42117  1  0  0  0
 43 44  1  0  0  0
 44118  1  0  0  0
 45 46  2  0  0  0
 45119  1  0  0  0
 46120  1  0  0  0
 47121  1  0  0  0
 47122  1  0  0  0
 48 56  1  0  0  0
 48 65  1  0  0  0
 48123  1  0  0  0
 49 50  1  0  0  0
 49 53  1  0  0  0
 49 64  1  0  0  0
 49124  1  0  0  0
 50 51  1  0  0  0
 50125  1  0  0  0
 50126  1  0  0  0
 51 52  1  0  0  0
 51127  1  0  0  0
 51128  1  0  0  0
 52129  1  0  0  0
 52130  1  0  0  0
 53 54  1  0  0  0
 54 55  2  0  0  0
 54131  1  0  0  0
 55 57  1  0  0  0
 55132  1  0  0  0
 56 69  2  0  0  0
 57 58  2  0  0  0
 57133  1  0  0  0
 58134  1  0  0  0
 59 60  1  0  0  0
 59 61  1  0  0  0
 59 62  1  0  0  0
 60135  1  0  0  0
 60136  1  0  0  0
 60137  1  0  0  0
 61138  1  0  0  0
 61139  1  0  0  0
 61140  1  0  0  0
 62141  1  0  0  0
 62142  1  0  0  0
 62143  1  0  0  0
 63 65  1  0  0  0
 63144  1  0  0  0
 63145  1  0  0  0
 63146  1  0  0  0
 64147  1  0  0  0
 65148  1  0  0  0
 68 85  1  0  0  0
 71 72  2  0  0  0
 71 75  1  0  0  0
 71149  1  0  0  0
 72 76  1  0  0  0
 72150  1  0  0  0
 73 74  1  0  0  0
 73 75  2  0  0  0
 73151  1  0  0  0
 74 76  2  0  0  0
 74 80  1  0  0  0
 75 86  1  0  0  0
 76 87  1  0  0  0
 77 81  1  0  0  0
 77 86  1  0  0  0
 77 88  2  0  0  0
 78 83  1  0  0  0
 78 86  1  0  0  0
 78 89  2  0  0  0
 79 80  2  0  0  0
 79152  1  0  0  0
 79153  1  0  0  0
 80154  1  0  0  0
 81 82  1  0  0  0
 81155  1  0  0  0
 81156  1  0  0  0
 82 83  1  0  0  0
 82157  1  0  0  0
 82158  1  0  0  0
 83 85  1  0  0  0
 83159  1  0  0  0
 84 87  1  0  0  0
 84160  1  0  0  0
 84161  1  0  0  0
 84162  1  0  0  0
 85163  1  0  0  0
 85164  1  0  0  0
M  ISO  4   1 100  68 101  85 101  87 100
M  END
> <chiral flag>
0

> <version>
0

> <s_m_source_file>
/data/baiqing/PycharmProjects/Reinvent-master-3.2/result/LINK_invent/BTK/process_docking_weight1_custom_product_contain_oxygen_bond_distance_aromatic_linkinvent_7_9_3/rearranged_h_0103.sdf

> <i_m_source_file_index>
13

> <r_mmod_Potential_Energy-OPLS-2005>
359.720886230469

> <r_mmod_Stretch_Energy-OPLS-2005>
105.804092407227

> <r_mmod_Bend_Energy-OPLS-2005>
147.768585205078

> <r_mmod_Torsional_Energy-OPLS-2005>
395.06982421875

> <r_mmod_Improper_Torsional_Energy-OPLS-2005>
4.75009059906006

> <r_mmod_Van_der_Waal_Energy-OPLS-2005>
159.379684448242

> <r_mmod_Electrostatic_Energy-OPLS-2005>
-282.733825683594

> <r_mmod_Solvation_Energy-OPLS-2005>
-223.873077392578

> <b_mmod_Minimization_Converged-OPLS-2005>
0

> <r_mmod_RMS_Derivative-OPLS-2005>
5.02003288269043

$$$$
13
                    3D
 Structure written by MMmdl.
158167  0  0  1  0            999 V2000
  -30.5179  -14.9053   20.4467 C   0  0  0  0  0  0
  -30.4552  -12.5587   19.4925 C   0  0  0  0  0  0
  -29.5276  -12.5344   18.2535 C   0  0  0  0  0  0
  -28.0568  -12.3256   18.6663 C   0  0  0  0  0  0
  -27.6403  -13.2381   19.8493 C   0  0  2  0  0  0
  -28.6843  -13.2078   20.9873 C   0  0  0  0  0  0
  -25.2480  -13.8174   20.5644 C   0  0  0  0  0  0
  -24.1798  -13.0421   20.9218 C   0  0  0  0  0  0
  -24.6408  -11.6907   20.8759 C   0  0  0  0  0  0
  -23.9083  -10.4285   21.0414 C   0  0  0  0  0  0
  -24.3628   -9.4198   21.9191 C   0  0  0  0  0  0
  -23.6296   -8.2237   22.0758 C   0  0  0  0  0  0
  -22.4278   -8.0280   21.3547 C   0  0  0  0  0  0
  -21.9919   -9.0257   20.4650 C   0  0  0  0  0  0
  -22.7255  -10.2132   20.3060 C   0  0  0  0  0  0
  -21.6851   -6.0736   22.5279 C   0  0  0  0  0  0
  -21.4015   -6.5639   23.8213 C   0  0  0  0  0  0
  -21.3660   -5.6791   24.9174 C   0  0  0  0  0  0
  -21.6043   -4.3054   24.7224 C   0  0  0  0  0  0
  -21.8819   -3.8147   23.4345 C   0  0  0  0  0  0
  -21.9191   -4.6964   22.3401 C   0  0  0  0  0  0
  -22.7818  -13.5207   21.1869 C   0  0  0  0  0  0
  -22.1660   -4.2150   21.0978 F   0  0  0  0  0  0
  -21.5626   -3.4537   25.7737 F   0  0  0  0  0  0
  -29.9707  -13.6263   20.4087 N   0  0  0  0  0  0
  -26.2931  -12.9404   20.3258 N   0  0  0  0  0  0
  -25.9344  -11.6545   20.5756 N   0  0  0  0  0  0
  -22.0460  -12.8208   22.0430 N   0  0  0  0  0  0
  -25.4085  -15.1883   20.3931 N   0  0  0  0  0  0
  -31.6995  -15.0471   20.1110 O   0  0  0  0  0  0
  -21.6637   -6.8881   21.4242 O   0  0  0  0  0  0
  -22.3504  -14.5510   20.6707 O   0  0  0  0  0  0
  -24.6418  -31.8457   23.1894 C   0  0  0  0  0  0
  -25.9196  -32.4704   23.8279 C   0  0  1  0  0  0
  -27.2225  -27.1559   20.1497 C   0  0  0  0  0  0
  -25.5945  -33.8509   24.2194 N   0  0  0  0  0  0
  -23.4444  -30.4652   21.5353 C   0  0  2  0  0  0
  -24.8939  -28.8928   20.1145 C   0  0  0  0  0  0
  -22.7558  -29.4557   22.4876 C   0  0  0  0  0  0
  -18.0302  -28.1396   22.8479 C   0  0  0  0  0  0
  -24.1490  -36.7264   23.2643 C   0  0  0  0  0  0
  -25.9990  -30.7262   21.3845 C   0  0  0  0  0  0
  -26.0714  -29.3382   20.7283 C   0  0  0  0  0  0
  -27.2376  -28.4869   20.7263 C   0  0  0  0  0  0
  -26.0170  -26.8065   19.5010 C   0  0  0  0  0  0
  -24.8783  -27.6392   19.4864 C   0  0  0  0  0  0
  -23.6697  -29.7930   20.1556 C   0  0  0  0  0  0
  -25.4121  -36.3038   24.0316 C   0  0  1  0  0  0
  -20.5913  -28.3719   23.1243 C   0  0  2  0  0  0
  -20.6787  -26.9425   22.5405 C   0  0  0  0  0  0
  -19.5761  -26.6382   21.5214 C   0  0  0  0  0  0
  -18.1942  -26.7934   22.1626 C   0  0  0  0  0  0
  -19.1558  -28.8876   23.2852 C   0  0  0  0  0  0
  -18.9476  -30.1472   23.8877 C   0  0  0  0  0  0
  -17.6473  -30.6592   24.0561 C   0  0  0  0  0  0
  -25.9071  -34.9412   23.5065 C   0  0  0  0  0  0
  -16.5363  -29.9086   23.6336 C   0  0  0  0  0  0
  -16.7287  -28.6505   23.0356 C   0  0  0  0  0  0
  -26.4518  -31.6567   25.0716 C   0  0  0  0  0  0
  -25.3705  -31.3757   26.1415 C   0  0  0  0  0  0
  -27.0381  -30.2965   24.6287 C   0  0  0  0  0  0
  -27.6045  -32.4334   25.7505 C   0  0  0  0  0  0
  -27.5574  -37.1788   24.8464 C   0  0  0  0  0  0
  -21.4253  -29.3047   22.3618 N   0  0  0  0  0  0
  -26.4286  -37.3750   23.9407 N   0  0  0  0  0  0
  -24.7150  -31.0329   22.0919 N   0  0  0  0  0  0
  -23.4208  -28.8107   23.3022 O   0  0  0  0  0  0
  -28.2955  -26.1977   20.1885 O   0  0  0  0  0  0
  -26.5660  -34.8908   22.4645 O   0  0  0  0  0  0
  -23.5541  -32.1324   23.7125 O   0  0  0  0  0  0
  -30.2447  -19.9216   20.0678 C   0  0  0  0  0  0
  -30.4473  -18.4697   20.0483 C   0  0  0  0  0  0
  -28.2721  -19.6166   21.3138 C   0  0  0  0  0  0
  -28.4627  -18.1833   21.3079 C   0  0  0  0  0  0
  -29.1469  -20.5861   20.7271 C   0  0  0  0  0  0
  -29.5740  -17.5128   20.6824 C   0  0  0  0  0  0
  -29.2820  -22.4012   22.3250 C   0  0  0  0  0  0
  -30.0654  -23.6995   22.4456 C   0  0  0  0  0  0
  -30.3909  -24.0165   20.9927 C   0  0  0  0  0  0
  -29.1808  -23.4364   20.2613 C   0  0  2  0  0  0
  -27.4121  -17.3880   22.0696 C   0  0  0  0  0  0
  -28.0352  -24.6703   20.3123 C   0  0  0  0  0  0
  -28.9785  -22.0846   21.0440 N   0  0  0  0  0  0
  -29.6477  -15.9830   20.7227 N   0  0  0  0  0  0
  -28.9979  -21.7405   23.3294 O   0  0  0  0  0  0
  -31.4874  -12.7305   19.1831 H   0  0  0  0  0  0
  -30.4531  -11.5915   19.9976 H   0  0  0  0  0  0
  -29.8392  -11.7487   17.5638 H   0  0  0  0  0  0
  -29.6229  -13.4746   17.7079 H   0  0  0  0  0  0
  -27.9410  -11.2793   18.9518 H   0  0  0  0  0  0
  -27.3966  -12.4825   17.8127 H   0  0  0  0  0  0
  -27.6202  -14.2521   19.4493 H   0  0  0  0  0  0
  -28.7593  -12.2087   21.4191 H   0  0  0  0  0  0
  -28.3880  -13.8677   21.8040 H   0  0  0  0  0  0
  -25.2771   -9.5669   22.4769 H   0  0  0  0  0  0
  -23.9999   -7.4627   22.7478 H   0  0  0  0  0  0
  -21.0849   -8.8784   19.8956 H   0  0  0  0  0  0
  -22.3719  -10.9674   19.6170 H   0  0  0  0  0  0
  -21.2011   -7.6148   23.9719 H   0  0  0  0  0  0
  -21.1481   -6.0519   25.9078 H   0  0  0  0  0  0
  -22.0598   -2.7609   23.2843 H   0  0  0  0  0  0
  -22.4076  -11.9879   22.4837 H   0  0  0  0  0  0
  -21.1077  -13.1236   22.2627 H   0  0  0  0  0  0
  -24.6218  -15.8227   20.4744 H   0  0  0  0  0  0
  -26.2216  -15.6210   19.9759 H   0  0  0  0  0  0
  -26.7263  -32.5318   23.1012 H   0  0  0  0  0  0
  -25.0055  -33.9624   25.0315 H   0  0  0  0  0  0
  -22.7459  -31.2904   21.3811 H   0  0  0  0  0  0
  -23.3753  -35.9595   23.3293 H   0  0  0  0  0  0
  -24.3576  -36.8909   22.2060 H   0  0  0  0  0  0
  -23.7244  -37.6457   23.6687 H   0  0  0  0  0  0
  -26.1499  -31.4805   20.6110 H   0  0  0  0  0  0
  -26.8714  -30.7782   22.0245 H   0  0  0  0  0  0
  -28.1377  -28.8269   21.2187 H   0  0  0  0  0  0
  -25.9222  -25.8569   18.9988 H   0  0  0  0  0  0
  -23.9800  -27.2935   18.9932 H   0  0  0  0  0  0
  -23.8050  -30.5661   19.3985 H   0  0  0  0  0  0
  -22.7849  -29.2334   19.8466 H   0  0  0  0  0  0
  -25.1308  -36.1868   25.0808 H   0  0  0  0  0  0
  -21.0004  -28.3307   24.1365 H   0  0  0  0  0  0
  -20.5684  -26.2332   23.3623 H   0  0  0  0  0  0
  -21.6653  -26.7435   22.1203 H   0  0  0  0  0  0
  -19.6923  -25.6288   21.1257 H   0  0  0  0  0  0
  -19.6697  -27.3182   20.6734 H   0  0  0  0  0  0
  -17.4211  -26.6678   21.4029 H   0  0  0  0  0  0
  -18.0343  -26.0081   22.9028 H   0  0  0  0  0  0
  -19.7951  -30.7293   24.2238 H   0  0  0  0  0  0
  -17.5026  -31.6271   24.5165 H   0  0  0  0  0  0
  -15.5363  -30.2982   23.7670 H   0  0  0  0  0  0
  -15.8688  -28.0817   22.7082 H   0  0  0  0  0  0
  -24.5887  -30.7101   25.7738 H   0  0  0  0  0  0
  -24.8892  -32.2942   26.4785 H   0  0  0  0  0  0
  -25.7992  -30.8967   27.0228 H   0  0  0  0  0  0
  -26.2996  -29.6692   24.1283 H   0  0  0  0  0  0
  -27.3985  -29.7259   25.4856 H   0  0  0  0  0  0
  -27.8906  -30.4202   23.9605 H   0  0  0  0  0  0
  -27.2631  -33.3647   26.2035 H   0  0  0  0  0  0
  -28.3885  -32.6876   25.0359 H   0  0  0  0  0  0
  -28.0684  -31.8495   26.5466 H   0  0  0  0  0  0
  -28.2584  -38.0091   24.7508 H   0  0  0  0  0  0
  -28.1077  -36.2620   24.6291 H   0  0  0  0  0  0
  -27.2293  -37.1438   25.8867 H   0  0  0  0  0  0
  -20.9462  -29.8756   21.6794 H   0  0  0  0  0  0
  -26.0153  -38.2818   24.1410 H   0  0  0  0  0  0
  -31.0011  -20.5388   19.6033 H   0  0  0  0  0  0
  -31.3196  -18.0919   19.5332 H   0  0  0  0  0  0
  -27.4213  -19.9972   21.8628 H   0  0  0  0  0  0
  -30.9624  -23.5768   23.0527 H   0  0  0  0  0  0
  -29.4367  -24.4665   22.8985 H   0  0  0  0  0  0
  -31.3038  -23.5011   20.6884 H   0  0  0  0  0  0
  -30.5411  -25.0815   20.8136 H   0  0  0  0  0  0
  -29.4444  -23.2282   19.2239 H   0  0  0  0  0  0
  -27.4720  -17.6230   23.1327 H   0  0  0  0  0  0
  -27.5031  -16.3087   21.9708 H   0  0  0  0  0  0
  -26.4145  -17.6627   21.7258 H   0  0  0  0  0  0
  -27.4995  -24.5652   21.2562 H   0  0  0  0  0  0
  -27.3051  -24.3890   19.5570 H   0  0  0  0  0  0
  -28.7711  -15.5927   21.0299 H   0  0  0  0  0  0
  1 25  1  0  0  0
  1 30  2  0  0  0
  1 84  1  0  0  0
  2  3  1  0  0  0
  2 25  1  0  0  0
  2 86  1  0  0  0
  2 87  1  0  0  0
  3  4  1  0  0  0
  3 88  1  0  0  0
  3 89  1  0  0  0
  4  5  1  0  0  0
  4 90  1  0  0  0
  4 91  1  0  0  0
  5  6  1  0  0  0
  5 26  1  0  0  0
  5 92  1  0  0  0
  6 25  1  0  0  0
  6 93  1  0  0  0
  6 94  1  0  0  0
  7  8  2  0  0  0
  7 26  1  0  0  0
  7 29  1  0  0  0
  8  9  1  0  0  0
  8 22  1  0  0  0
  9 10  1  0  0  0
  9 27  2  0  0  0
 10 11  2  0  0  0
 10 15  1  0  0  0
 11 12  1  0  0  0
 11 95  1  0  0  0
 12 13  2  0  0  0
 12 96  1  0  0  0
 13 14  1  0  0  0
 13 31  1  0  0  0
 14 15  2  0  0  0
 14 97  1  0  0  0
 15 98  1  0  0  0
 16 17  2  0  0  0
 16 21  1  0  0  0
 16 31  1  0  0  0
 17 18  1  0  0  0
 17 99  1  0  0  0
 18 19  2  0  0  0
 18100  1  0  0  0
 19 20  1  0  0  0
 19 24  1  0  0  0
 20 21  2  0  0  0
 20101  1  0  0  0
 21 23  1  0  0  0
 22 28  1  0  0  0
 22 32  2  0  0  0
 26 27  1  0  0  0
 28102  1  0  0  0
 28103  1  0  0  0
 29104  1  0  0  0
 29105  1  0  0  0
 33 34  1  0  0  0
 33 66  1  0  0  0
 33 70  2  0  0  0
 34 36  1  0  0  0
 34 59  1  0  0  0
 34106  1  0  0  0
 35 44  2  0  0  0
 35 45  1  0  0  0
 35 68  1  0  0  0
 36 56  1  0  0  0
 36107  1  0  0  0
 37 39  1  0  0  0
 37 47  1  0  0  0
 37 66  1  0  0  0
 37108  1  0  0  0
 38 43  2  0  0  0
 38 46  1  0  0  0
 38 47  1  0  0  0
 39 64  1  0  0  0
 39 67  2  0  0  0
 40 52  1  0  0  0
 40 53  2  0  0  0
 40 58  1  0  0  0
 41109  1  0  0  0
 41110  1  0  0  0
 41111  1  0  0  0
 41 48  1  0  0  0
 42 43  1  0  0  0
 42 66  1  0  0  0
 42112  1  0  0  0
 42113  1  0  0  0
 43 44  1  0  0  0
 44114  1  0  0  0
 45 46  2  0  0  0
 45115  1  0  0  0
 46116  1  0  0  0
 47117  1  0  0  0
 47118  1  0  0  0
 48 56  1  0  0  0
 48 65  1  0  0  0
 48119  1  0  0  0
 49 50  1  0  0  0
 49 53  1  0  0  0
 49 64  1  0  0  0
 49120  1  0  0  0
 50 51  1  0  0  0
 50121  1  0  0  0
 50122  1  0  0  0
 51 52  1  0  0  0
 51123  1  0  0  0
 51124  1  0  0  0
 52125  1  0  0  0
 52126  1  0  0  0
 53 54  1  0  0  0
 54 55  2  0  0  0
 54127  1  0  0  0
 55 57  1  0  0  0
 55128  1  0  0  0
 56 69  2  0  0  0
 57 58  2  0  0  0
 57129  1  0  0  0
 58130  1  0  0  0
 59 60  1  0  0  0
 59 61  1  0  0  0
 59 62  1  0  0  0
 60131  1  0  0  0
 60132  1  0  0  0
 60133  1  0  0  0
 61134  1  0  0  0
 61135  1  0  0  0
 61136  1  0  0  0
 62137  1  0  0  0
 62138  1  0  0  0
 62139  1  0  0  0
 63 65  1  0  0  0
 63140  1  0  0  0
 63141  1  0  0  0
 63142  1  0  0  0
 64143  1  0  0  0
 65144  1  0  0  0
 68 82  1  0  0  0
 71 72  2  0  0  0
 71 75  1  0  0  0
 71145  1  0  0  0
 72 76  1  0  0  0
 72146  1  0  0  0
 73 74  1  0  0  0
 73 75  2  0  0  0
 73147  1  0  0  0
 74 76  2  0  0  0
 74 81  1  0  0  0
 75 83  1  0  0  0
 76 84  1  0  0  0
 77 78  1  0  0  0
 77 83  1  0  0  0
 77 85  2  0  0  0
 78 79  1  0  0  0
 78148  1  0  0  0
 78149  1  0  0  0
 79 80  1  0  0  0
 79150  1  0  0  0
 79151  1  0  0  0
 80 82  1  0  0  0
 80 83  1  0  0  0
 80152  1  0  0  0
 81153  1  0  0  0
 81154  1  0  0  0
 81155  1  0  0  0
 82156  1  0  0  0
 82157  1  0  0  0
 84158  1  0  0  0
M  ISO  4   1 100  68 101  82 101  84 100
M  END
> <chiral flag>
0

> <version>
0

> <s_m_source_file>
/data/baiqing/PycharmProjects/Reinvent-master-3.2/result/LINK_invent/BTK/process_docking_weight1_custom_product_contain_oxygen_bond_distance_aromatic_linkinvent_7_9_3/rearranged_h_0103.sdf

> <i_m_source_file_index>
14

> <r_mmod_Potential_Energy-OPLS-2005>
552.936889648438

> <r_mmod_Stretch_Energy-OPLS-2005>
227.273803710938

> <r_mmod_Bend_Energy-OPLS-2005>
308.938873291016

> <r_mmod_Torsional_Energy-OPLS-2005>
310.801177978516

> <r_mmod_Improper_Torsional_Energy-OPLS-2005>
6.81311988830566

> <r_mmod_Van_der_Waal_Energy-OPLS-2005>
132.208877563477

> <r_mmod_Electrostatic_Energy-OPLS-2005>
-379.520568847656

> <r_mmod_Solvation_Energy-OPLS-2005>
-219.796157836914

> <b_mmod_Minimization_Converged-OPLS-2005>
0

> <r_mmod_RMS_Derivative-OPLS-2005>
0.370410859584808

$$$$
14
                    3D
 Structure written by MMmdl.
164173  0  0  1  0            999 V2000
  -30.7230  -14.4561   20.6130 C   0  0  0  0  0  0
  -30.4198  -12.3169   19.4119 C   0  0  0  0  0  0
  -29.4903  -12.5182   18.1990 C   0  0  0  0  0  0
  -28.0119  -12.3760   18.6128 C   0  0  0  0  0  0
  -27.6599  -13.2109   19.8737 C   0  0  2  0  0  0
  -28.7015  -12.9874   20.9920 C   0  0  0  0  0  0
  -25.2570  -13.8176   20.5684 C   0  0  0  0  0  0
  -24.1824  -13.0445   20.9178 C   0  0  0  0  0  0
  -24.6385  -11.6913   20.8732 C   0  0  0  0  0  0
  -23.9054  -10.4298   21.0405 C   0  0  0  0  0  0
  -24.3612   -9.4213   21.9179 C   0  0  0  0  0  0
  -23.6294   -8.2245   22.0750 C   0  0  0  0  0  0
  -22.4272   -8.0282   21.3545 C   0  0  0  0  0  0
  -21.9905   -9.0250   20.4643 C   0  0  0  0  0  0
  -22.7230  -10.2132   20.3052 C   0  0  0  0  0  0
  -21.6849   -6.0733   22.5279 C   0  0  0  0  0  0
  -21.4009   -6.5636   23.8213 C   0  0  0  0  0  0
  -21.3662   -5.6788   24.9175 C   0  0  0  0  0  0
  -21.6049   -4.3051   24.7224 C   0  0  0  0  0  0
  -21.8819   -3.8142   23.4344 C   0  0  0  0  0  0
  -21.9191   -4.6961   22.3402 C   0  0  0  0  0  0
  -22.7848  -13.5238   21.1851 C   0  0  0  0  0  0
  -22.1658   -4.2147   21.0979 F   0  0  0  0  0  0
  -21.5635   -3.4536   25.7737 F   0  0  0  0  0  0
  -30.0321  -13.2960   20.4397 N   0  0  0  0  0  0
  -26.3010  -12.9354   20.3356 N   0  0  0  0  0  0
  -25.9311  -11.6509   20.5755 N   0  0  0  0  0  0
  -22.0484  -12.8232   22.0410 N   0  0  0  0  0  0
  -25.4301  -15.1898   20.4103 N   0  0  0  0  0  0
  -31.8277  -14.6568   20.1000 O   0  0  0  0  0  0
  -21.6639   -6.8876   21.4242 O   0  0  0  0  0  0
  -22.3535  -14.5545   20.6708 O   0  0  0  0  0  0
  -24.6157  -31.8675   23.2096 C   0  0  0  0  0  0
  -25.9046  -32.4815   23.8396 C   0  0  1  0  0  0
  -27.2300  -27.4266   20.0992 C   0  0  0  0  0  0
  -25.5900  -33.8615   24.2328 N   0  0  0  0  0  0
  -23.4039  -30.4914   21.5510 C   0  0  2  0  0  0
  -24.8493  -28.9566   20.1150 C   0  0  0  0  0  0
  -22.7410  -29.4661   22.4990 C   0  0  0  0  0  0
  -18.0267  -28.1380   22.8487 C   0  0  0  0  0  0
  -24.1486  -36.7315   23.2637 C   0  0  0  0  0  0
  -25.9336  -30.8317   21.3630 C   0  0  0  0  0  0
  -26.0117  -29.4663   20.7085 C   0  0  0  0  0  0
  -27.2088  -28.7111   20.6921 C   0  0  0  0  0  0
  -26.0507  -26.9350   19.4992 C   0  0  0  0  0  0
  -24.8644  -27.6906   19.5051 C   0  0  0  0  0  0
  -23.6115  -29.8236   20.1659 C   0  0  0  0  0  0
  -25.4104  -36.3110   24.0340 C   0  0  1  0  0  0
  -20.5859  -28.3671   23.1310 C   0  0  2  0  0  0
  -20.6760  -26.9408   22.5413 C   0  0  0  0  0  0
  -19.5744  -26.6388   21.5208 C   0  0  0  0  0  0
  -18.1919  -26.7925   22.1621 C   0  0  0  0  0  0
  -19.1517  -28.8841   23.2895 C   0  0  0  0  0  0
  -18.9444  -30.1444   23.8908 C   0  0  0  0  0  0
  -17.6448  -30.6586   24.0563 C   0  0  0  0  0  0
  -25.9037  -34.9474   23.5134 C   0  0  0  0  0  0
  -16.5337  -29.9087   23.6328 C   0  0  0  0  0  0
  -16.7255  -28.6506   23.0343 C   0  0  0  0  0  0
  -26.4472  -31.6589   25.0721 C   0  0  0  0  0  0
  -25.3739  -31.3697   26.1474 C   0  0  0  0  0  0
  -27.0292  -30.3028   24.6095 C   0  0  0  0  0  0
  -27.6051  -32.4304   25.7480 C   0  0  0  0  0  0
  -27.5586  -37.1804   24.8456 C   0  0  0  0  0  0
  -21.4138  -29.3041   22.3721 N   0  0  0  0  0  0
  -26.4288  -37.3798   23.9417 N   0  0  0  0  0  0
  -24.6695  -31.0773   22.0998 N   0  0  0  0  0  0
  -23.4175  -28.8200   23.3034 O   0  0  0  0  0  0
  -28.3800  -26.6618   20.1031 O   0  0  0  0  0  0
  -26.5600  -34.8928   22.4695 O   0  0  0  0  0  0
  -23.5347  -32.1428   23.7486 O   0  0  0  0  0  0
  -28.9999  -18.3952   21.1574 C   0  0  0  0  0  0
  -31.3412  -18.7971   20.6545 C   0  0  0  0  0  0
  -30.3404  -17.9505   21.1779 C   0  0  0  0  0  0
  -28.6657  -19.6775   20.6513 C   0  0  0  0  0  0
  -29.6774  -20.5386   20.1485 C   0  0  0  0  0  0
  -31.0188  -20.0719   20.1408 C   0  0  0  0  0  0
  -29.0298  -22.9562   20.3324 C   0  0  0  0  0  0
  -28.6038  -24.1338   19.8045 C   0  0  0  0  0  0
  -28.4161  -24.1979   18.3306 C   0  0  0  0  0  0
  -28.3792  -22.8645   17.5755 C   0  0  0  0  0  0
  -29.3840  -21.8425   18.1406 C   0  0  0  0  0  0
  -27.2106  -20.1156   20.6532 C   0  0  0  0  0  0
  -30.7388  -16.6313   21.8517 C   0  0  0  0  0  0
  -28.2401  -25.3452   20.6852 C   0  0  0  0  0  0
  -29.3602  -21.8081   19.6036 N   0  0  0  0  0  0
  -32.0424  -20.8880   19.6577 N   0  0  0  0  0  0
  -30.1109  -15.4045   21.3436 N   0  0  0  0  0  0
  -28.2683  -25.2385   17.6844 O   0  0  0  0  0  0
  -31.4639  -12.4175   19.1089 H   0  0  0  0  0  0
  -30.3225  -11.3039   19.8046 H   0  0  0  0  0  0
  -29.7309  -11.7981   17.4158 H   0  0  0  0  0  0
  -29.6570  -13.5065   17.7669 H   0  0  0  0  0  0
  -27.8200  -11.3198   18.8017 H   0  0  0  0  0  0
  -27.3618  -12.6574   17.7834 H   0  0  0  0  0  0
  -27.7054  -14.2615   19.5842 H   0  0  0  0  0  0
  -28.6786  -11.9500   21.3276 H   0  0  0  0  0  0
  -28.4558  -13.5800   21.8739 H   0  0  0  0  0  0
  -25.2761   -9.5691   22.4746 H   0  0  0  0  0  0
  -24.0008   -7.4635   22.7465 H   0  0  0  0  0  0
  -21.0836   -8.8761   19.8951 H   0  0  0  0  0  0
  -22.3686  -10.9663   19.6156 H   0  0  0  0  0  0
  -21.1993   -7.6143   23.9717 H   0  0  0  0  0  0
  -21.1488   -6.0515   25.9079 H   0  0  0  0  0  0
  -22.0596   -2.7604   23.2840 H   0  0  0  0  0  0
  -22.4083  -11.9887   22.4801 H   0  0  0  0  0  0
  -21.1099  -13.1259   22.2607 H   0  0  0  0  0  0
  -24.6666  -15.8477   20.5215 H   0  0  0  0  0  0
  -26.2870  -15.6263   20.0949 H   0  0  0  0  0  0
  -26.7114  -32.5529   23.1158 H   0  0  0  0  0  0
  -25.0051  -33.9771   25.0475 H   0  0  0  0  0  0
  -22.6938  -31.3091   21.4120 H   0  0  0  0  0  0
  -23.3746  -35.9649   23.3289 H   0  0  0  0  0  0
  -24.3592  -36.8938   22.2054 H   0  0  0  0  0  0
  -23.7231  -37.6517   23.6651 H   0  0  0  0  0  0
  -26.0468  -31.5983   20.5950 H   0  0  0  0  0  0
  -26.8212  -30.8836   21.9819 H   0  0  0  0  0  0
  -28.1070  -29.1005   21.1513 H   0  0  0  0  0  0
  -26.0454  -25.9649   19.0238 H   0  0  0  0  0  0
  -23.9722  -27.2923   19.0417 H   0  0  0  0  0  0
  -23.7182  -30.5984   19.4059 H   0  0  0  0  0  0
  -22.7353  -29.2431   19.8717 H   0  0  0  0  0  0
  -25.1276  -36.1976   25.0830 H   0  0  0  0  0  0
  -20.9948  -28.3237   24.1432 H   0  0  0  0  0  0
  -20.5662  -26.2283   23.3603 H   0  0  0  0  0  0
  -21.6632  -26.7453   22.1203 H   0  0  0  0  0  0
  -19.6908  -25.6301   21.1234 H   0  0  0  0  0  0
  -19.6685  -27.3200   20.6741 H   0  0  0  0  0  0
  -17.4192  -26.6661   21.4020 H   0  0  0  0  0  0
  -18.0325  -26.0063   22.9014 H   0  0  0  0  0  0
  -19.7921  -30.7248   24.2290 H   0  0  0  0  0  0
  -17.5007  -31.6270   24.5155 H   0  0  0  0  0  0
  -15.5337  -30.2993   23.7654 H   0  0  0  0  0  0
  -15.8652  -28.0833   22.7053 H   0  0  0  0  0  0
  -24.5905  -30.7054   25.7807 H   0  0  0  0  0  0
  -24.8943  -32.2854   26.4944 H   0  0  0  0  0  0
  -25.8097  -30.8845   27.0217 H   0  0  0  0  0  0
  -26.2829  -29.6797   24.1152 H   0  0  0  0  0  0
  -27.4057  -29.7260   25.4551 H   0  0  0  0  0  0
  -27.8671  -30.4338   23.9243 H   0  0  0  0  0  0
  -27.2677  -33.3600   26.2083 H   0  0  0  0  0  0
  -28.3852  -32.6872   25.0296 H   0  0  0  0  0  0
  -28.0731  -31.8409   26.5378 H   0  0  0  0  0  0
  -28.2579  -38.0126   24.7546 H   0  0  0  0  0  0
  -28.1107  -36.2662   24.6219 H   0  0  0  0  0  0
  -27.2320  -37.1378   25.8862 H   0  0  0  0  0  0
  -20.9298  -29.8770   21.6950 H   0  0  0  0  0  0
  -26.0177  -38.2873   24.1435 H   0  0  0  0  0  0
  -28.2260  -17.7570   21.5610 H   0  0  0  0  0  0
  -32.3715  -18.4705   20.6705 H   0  0  0  0  0  0
  -29.1558  -22.8395   21.4008 H   0  0  0  0  0  0
  -28.5642  -23.0301   16.5142 H   0  0  0  0  0  0
  -27.3685  -22.4664   17.6622 H   0  0  0  0  0  0
  -30.3896  -22.1003   17.8052 H   0  0  0  0  0  0
  -29.1639  -20.8551   17.7310 H   0  0  0  0  0  0
  -26.5498  -19.3208   20.9999 H   0  0  0  0  0  0
  -26.8960  -20.3973   19.6482 H   0  0  0  0  0  0
  -27.0750  -20.9773   21.3070 H   0  0  0  0  0  0
  -30.4706  -16.7136   22.9055 H   0  0  0  0  0  0
  -31.8260  -16.5306   21.8485 H   0  0  0  0  0  0
  -28.8886  -25.3215   21.5615 H   0  0  0  0  0  0
  -27.2362  -25.1746   21.0782 H   0  0  0  0  0  0
  -32.9683  -20.7533   20.0473 H   0  0  0  0  0  0
  -31.7846  -21.8678   19.5968 H   0  0  0  0  0  0
  -29.1913  -15.1823   21.6928 H   0  0  0  0  0  0
  1 25  1  0  0  0
  1 30  2  0  0  0
  1 87  1  0  0  0
  2  3  1  0  0  0
  2 25  1  0  0  0
  2 89  1  0  0  0
  2 90  1  0  0  0
  3  4  1  0  0  0
  3 91  1  0  0  0
  3 92  1  0  0  0
  4  5  1  0  0  0
  4 93  1  0  0  0
  4 94  1  0  0  0
  5  6  1  0  0  0
  5 26  1  0  0  0
  5 95  1  0  0  0
  6 25  1  0  0  0
  6 96  1  0  0  0
  6 97  1  0  0  0
  7  8  2  0  0  0
  7 26  1  0  0  0
  7 29  1  0  0  0
  8  9  1  0  0  0
  8 22  1  0  0  0
  9 10  1  0  0  0
  9 27  2  0  0  0
 10 11  2  0  0  0
 10 15  1  0  0  0
 11 12  1  0  0  0
 11 98  1  0  0  0
 12 13  2  0  0  0
 12 99  1  0  0  0
 13 14  1  0  0  0
 13 31  1  0  0  0
 14 15  2  0  0  0
 14100  1  0  0  0
 15101  1  0  0  0
 16 17  2  0  0  0
 16 21  1  0  0  0
 16 31  1  0  0  0
 17 18  1  0  0  0
 17102  1  0  0  0
 18 19  2  0  0  0
 18103  1  0  0  0
 19 20  1  0  0  0
 19 24  1  0  0  0
 20 21  2  0  0  0
 20104  1  0  0  0
 21 23  1  0  0  0
 22 28  1  0  0  0
 22 32  2  0  0  0
 26 27  1  0  0  0
 28105  1  0  0  0
 28106  1  0  0  0
 29107  1  0  0  0
 29108  1  0  0  0
 33 34  1  0  0  0
 33 66  1  0  0  0
 33 70  2  0  0  0
 34 36  1  0  0  0
 34 59  1  0  0  0
 34109  1  0  0  0
 35 44  2  0  0  0
 35 45  1  0  0  0
 35 68  1  0  0  0
 36 56  1  0  0  0
 36110  1  0  0  0
 37 39  1  0  0  0
 37 47  1  0  0  0
 37 66  1  0  0  0
 37111  1  0  0  0
 38 43  2  0  0  0
 38 46  1  0  0  0
 38 47  1  0  0  0
 39 64  1  0  0  0
 39 67  2  0  0  0
 40 52  1  0  0  0
 40 53  2  0  0  0
 40 58  1  0  0  0
 41112  1  0  0  0
 41113  1  0  0  0
 41114  1  0  0  0
 41 48  1  0  0  0
 42 43  1  0  0  0
 42 66  1  0  0  0
 42115  1  0  0  0
 42116  1  0  0  0
 43 44  1  0  0  0
 44117  1  0  0  0
 45 46  2  0  0  0
 45118  1  0  0  0
 46119  1  0  0  0
 47120  1  0  0  0
 47121  1  0  0  0
 48 56  1  0  0  0
 48 65  1  0  0  0
 48122  1  0  0  0
 49 50  1  0  0  0
 49 53  1  0  0  0
 49 64  1  0  0  0
 49123  1  0  0  0
 50 51  1  0  0  0
 50124  1  0  0  0
 50125  1  0  0  0
 51 52  1  0  0  0
 51126  1  0  0  0
 51127  1  0  0  0
 52128  1  0  0  0
 52129  1  0  0  0
 53 54  1  0  0  0
 54 55  2  0  0  0
 54130  1  0  0  0
 55 57  1  0  0  0
 55131  1  0  0  0
 56 69  2  0  0  0
 57 58  2  0  0  0
 57132  1  0  0  0
 58133  1  0  0  0
 59 60  1  0  0  0
 59 61  1  0  0  0
 59 62  1  0  0  0
 60134  1  0  0  0
 60135  1  0  0  0
 60136  1  0  0  0
 61137  1  0  0  0
 61138  1  0  0  0
 61139  1  0  0  0
 62140  1  0  0  0
 62141  1  0  0  0
 62142  1  0  0  0
 63 65  1  0  0  0
 63143  1  0  0  0
 63144  1  0  0  0
 63145  1  0  0  0
 64146  1  0  0  0
 65147  1  0  0  0
 68 84  1  0  0  0
 71 73  2  0  0  0
 71 74  1  0  0  0
 71148  1  0  0  0
 72 73  1  0  0  0
 72 76  2  0  0  0
 72149  1  0  0  0
 73 83  1  0  0  0
 74 75  2  0  0  0
 74 82  1  0  0  0
 75 76  1  0  0  0
 75 85  1  0  0  0
 76 86  1  0  0  0
 77 78  2  0  0  0
 77 85  1  0  0  0
 77150  1  0  0  0
 78 79  1  0  0  0
 78 84  1  0  0  0
 79 80  1  0  0  0
 79 88  2  0  0  0
 80 81  1  0  0  0
 80151  1  0  0  0
 80152  1  0  0  0
 81 85  1  0  0  0
 81153  1  0  0  0
 81154  1  0  0  0
 82155  1  0  0  0
 82156  1  0  0  0
 82157  1  0  0  0
 83 87  1  0  0  0
 83158  1  0  0  0
 83159  1  0  0  0
 84160  1  0  0  0
 84161  1  0  0  0
 86162  1  0  0  0
 86163  1  0  0  0
 87164  1  0  0  0
M  ISO  4   1 100  68 101  84 101  87 100
M  END
> <chiral flag>
0

> <version>
0

> <s_m_source_file>
/data/baiqing/PycharmProjects/Reinvent-master-3.2/result/LINK_invent/BTK/process_docking_weight1_custom_product_contain_oxygen_bond_distance_aromatic_linkinvent_7_9_3/rearranged_h_0103.sdf

> <i_m_source_file_index>
15

> <r_mmod_Potential_Energy-OPLS-2005>
-113.386833190918

> <r_mmod_Stretch_Energy-OPLS-2005>
42.2327919006348

> <r_mmod_Bend_Energy-OPLS-2005>
98.5118865966797

> <r_mmod_Torsional_Energy-OPLS-2005>
234.982360839844

> <r_mmod_Improper_Torsional_Energy-OPLS-2005>
6.86613702774048

> <r_mmod_Van_der_Waal_Energy-OPLS-2005>
163.189987182617

> <r_mmod_Electrostatic_Energy-OPLS-2005>
-437.777374267578

> <r_mmod_Solvation_Energy-OPLS-2005>
-233.476760864258

> <b_mmod_Minimization_Converged-OPLS-2005>
0

> <r_mmod_RMS_Derivative-OPLS-2005>
0.894065618515015

$$$$
15
                    3D
 Structure written by MMmdl.
169178  0  0  1  0            999 V2000
  -30.7018  -14.4575   20.6170 C   0  0  0  0  0  0
  -30.4239  -12.3131   19.4125 C   0  0  0  0  0  0
  -29.4875  -12.5085   18.2008 C   0  0  0  0  0  0
  -28.0097  -12.3699   18.6171 C   0  0  0  0  0  0
  -27.6616  -13.2040   19.8783 C   0  0  2  0  0  0
  -28.7032  -12.9604   20.9950 C   0  0  0  0  0  0
  -25.2592  -13.8165   20.5689 C   0  0  0  0  0  0
  -24.1838  -13.0445   20.9181 C   0  0  0  0  0  0
  -24.6379  -11.6908   20.8735 C   0  0  0  0  0  0
  -23.9053  -10.4302   21.0410 C   0  0  0  0  0  0
  -24.3615   -9.4215   21.9177 C   0  0  0  0  0  0
  -23.6295   -8.2244   22.0752 C   0  0  0  0  0  0
  -22.4271   -8.0279   21.3543 C   0  0  0  0  0  0
  -21.9914   -9.0251   20.4638 C   0  0  0  0  0  0
  -22.7237  -10.2131   20.3046 C   0  0  0  0  0  0
  -21.6842   -6.0736   22.5286 C   0  0  0  0  0  0
  -21.4007   -6.5640   23.8222 C   0  0  0  0  0  0
  -21.3654   -5.6798   24.9193 C   0  0  0  0  0  0
  -21.6048   -4.3064   24.7246 C   0  0  0  0  0  0
  -21.8819   -3.8153   23.4368 C   0  0  0  0  0  0
  -21.9187   -4.6964   22.3417 C   0  0  0  0  0  0
  -22.7857  -13.5233   21.1859 C   0  0  0  0  0  0
  -22.1653   -4.2148   21.0998 F   0  0  0  0  0  0
  -21.5644   -3.4542   25.7762 F   0  0  0  0  0  0
  -30.0322  -13.2839   20.4480 N   0  0  0  0  0  0
  -26.3015  -12.9322   20.3390 N   0  0  0  0  0  0
  -25.9295  -11.6487   20.5770 N   0  0  0  0  0  0
  -22.0502  -12.8214   22.0406 N   0  0  0  0  0  0
  -25.4349  -15.1885   20.4102 N   0  0  0  0  0  0
  -31.8088  -14.6570   20.1066 O   0  0  0  0  0  0
  -21.6625   -6.8881   21.4254 O   0  0  0  0  0  0
  -22.3545  -14.5536   20.6698 O   0  0  0  0  0  0
  -24.6137  -31.8706   23.2117 C   0  0  0  0  0  0
  -25.9049  -32.4837   23.8399 C   0  0  1  0  0  0
  -27.2350  -27.4421   20.1149 C   0  0  0  0  0  0
  -25.5924  -33.8632   24.2338 N   0  0  0  0  0  0
  -23.4022  -30.4926   21.5528 C   0  0  2  0  0  0
  -24.8513  -28.9572   20.1190 C   0  0  0  0  0  0
  -22.7408  -29.4664   22.5025 C   0  0  0  0  0  0
  -18.0275  -28.1348   22.8537 C   0  0  0  0  0  0
  -24.1478  -36.7315   23.2645 C   0  0  0  0  0  0
  -25.9273  -30.8379   21.3635 C   0  0  0  0  0  0
  -26.0083  -29.4687   20.7231 C   0  0  0  0  0  0
  -27.2047  -28.7168   20.7282 C   0  0  0  0  0  0
  -26.0725  -26.9471   19.4944 C   0  0  0  0  0  0
  -24.8770  -27.6925   19.5025 C   0  0  0  0  0  0
  -23.6113  -29.8239   20.1687 C   0  0  0  0  0  0
  -25.4109  -36.3115   24.0327 C   0  0  1  0  0  0
  -20.5864  -28.3657   23.1337 C   0  0  2  0  0  0
  -20.6758  -26.9393   22.5429 C   0  0  0  0  0  0
  -19.5728  -26.6376   21.5218 C   0  0  0  0  0  0
  -18.1909  -26.7906   22.1623 C   0  0  0  0  0  0
  -19.1528  -28.8812   23.2934 C   0  0  0  0  0  0
  -18.9447  -30.1418   23.8950 C   0  0  0  0  0  0
  -17.6460  -30.6569   24.0556 C   0  0  0  0  0  0
  -25.9049  -34.9483   23.5133 C   0  0  0  0  0  0
  -16.5355  -29.9078   23.6312 C   0  0  0  0  0  0
  -16.7267  -28.6464   23.0392 C   0  0  0  0  0  0
  -26.4480  -31.6613   25.0723 C   0  0  0  0  0  0
  -25.3757  -31.3672   26.1464 C   0  0  0  0  0  0
  -27.0316  -30.3065   24.6060 C   0  0  0  0  0  0
  -27.6057  -32.4332   25.7474 C   0  0  0  0  0  0
  -27.5585  -37.1812   24.8473 C   0  0  0  0  0  0
  -21.4145  -29.3023   22.3747 N   0  0  0  0  0  0
  -26.4311  -37.3792   23.9401 N   0  0  0  0  0  0
  -24.6654  -31.0818   22.1010 N   0  0  0  0  0  0
  -23.4174  -28.8219   23.3082 O   0  0  0  0  0  0
  -28.3677  -26.6673   20.0575 O   0  0  0  0  0  0
  -26.5614  -34.8935   22.4699 O   0  0  0  0  0  0
  -23.5326  -32.1460   23.7523 O   0  0  0  0  0  0
  -31.7198  -18.7973   21.4001 C   0  0  0  0  0  0
  -31.4135  -17.4768   21.0172 C   0  0  0  0  0  0
  -30.9873  -19.4460   22.4151 C   0  0  0  0  0  0
  -29.5594  -17.4463   22.5992 C   0  0  0  0  0  0
  -30.3515  -16.7663   21.6305 C   0  0  0  0  0  0
  -29.8956  -18.7681   23.0109 C   0  0  0  0  0  0
  -28.8408  -24.8809   21.6506 C   0  0  0  0  0  0
  -31.2712  -24.3770   22.3062 C   0  0  0  0  0  0
  -32.1448  -23.1172   22.3555 C   0  0  0  0  0  0
  -29.8896  -22.4839   21.8899 C   0  0  0  0  0  0
  -30.0636  -23.9619   21.4633 C   0  0  1  0  0  0
  -28.3458  -16.7455   23.2030 C   0  0  0  0  0  0
  -29.5221  -19.0268   25.3147 C   0  0  0  0  0  0
  -31.4707  -20.8035   22.9375 C   0  0  0  0  0  0
  -29.0112  -26.3723   21.3012 C   0  0  0  0  0  0
  -30.0244  -15.4024   21.3074 N   0  0  0  0  0  0
  -31.2736  -21.9612   22.0261 N   0  3  2  0  0  0
  -27.7621  -24.4382   22.0543 O   0  0  0  0  0  0
  -29.1690  -19.4045   23.9864 O   0  0  0  0  0  0
  -31.4650  -12.4237   19.1036 H   0  0  0  0  0  0
  -30.3383  -11.2977   19.8016 H   0  0  0  0  0  0
  -29.7203  -11.7795   17.4229 H   0  0  0  0  0  0
  -29.6548  -13.4910   17.7577 H   0  0  0  0  0  0
  -27.8179  -11.3133   18.8096 H   0  0  0  0  0  0
  -27.3575  -12.6485   17.7878 H   0  0  0  0  0  0
  -27.7124  -14.2541   19.5909 H   0  0  0  0  0  0
  -28.6844  -11.9127   21.3015 H   0  0  0  0  0  0
  -28.4545  -13.5223   21.8954 H   0  0  0  0  0  0
  -25.2753   -9.5684   22.4756 H   0  0  0  0  0  0
  -23.9994   -7.4643   22.7475 H   0  0  0  0  0  0
  -21.0847   -8.8772   19.8951 H   0  0  0  0  0  0
  -22.3692  -10.9674   19.6153 H   0  0  0  0  0  0
  -21.1985   -7.6144   23.9727 H   0  0  0  0  0  0
  -21.1483   -6.0530   25.9098 H   0  0  0  0  0  0
  -22.0605   -2.7607   23.2877 H   0  0  0  0  0  0
  -22.4114  -11.9853   22.4760 H   0  0  0  0  0  0
  -21.1107  -13.1237   22.2630 H   0  0  0  0  0  0
  -24.6723  -15.8491   20.5141 H   0  0  0  0  0  0
  -26.2899  -15.6204   20.0834 H   0  0  0  0  0  0
  -26.7142  -32.5568   23.1181 H   0  0  0  0  0  0
  -25.0075  -33.9759   25.0483 H   0  0  0  0  0  0
  -22.6908  -31.3093   21.4138 H   0  0  0  0  0  0
  -23.3753  -35.9637   23.3283 H   0  0  0  0  0  0
  -24.3586  -36.8965   22.2071 H   0  0  0  0  0  0
  -23.7211  -37.6496   23.6689 H   0  0  0  0  0  0
  -26.0322  -31.5982   20.5866 H   0  0  0  0  0  0
  -26.8163  -30.9019   21.9769 H   0  0  0  0  0  0
  -28.0999  -29.1116   21.1899 H   0  0  0  0  0  0
  -26.0933  -25.9755   19.0190 H   0  0  0  0  0  0
  -23.9903  -27.2914   19.0296 H   0  0  0  0  0  0
  -23.7191  -30.5992   19.4089 H   0  0  0  0  0  0
  -22.7325  -29.2460   19.8759 H   0  0  0  0  0  0
  -25.1274  -36.1998   25.0823 H   0  0  0  0  0  0
  -20.9962  -28.3224   24.1450 H   0  0  0  0  0  0
  -20.5673  -26.2252   23.3608 H   0  0  0  0  0  0
  -21.6630  -26.7426   22.1222 H   0  0  0  0  0  0
  -19.6895  -25.6297   21.1223 H   0  0  0  0  0  0
  -19.6657  -27.3202   20.6767 H   0  0  0  0  0  0
  -17.4188  -26.6720   21.4010 H   0  0  0  0  0  0
  -18.0257  -26.0002   22.8955 H   0  0  0  0  0  0
  -19.7918  -30.7202   24.2367 H   0  0  0  0  0  0
  -17.5014  -31.6259   24.5143 H   0  0  0  0  0  0
  -15.5361  -30.3003   23.7571 H   0  0  0  0  0  0
  -15.8663  -28.0770   22.7145 H   0  0  0  0  0  0
  -24.5941  -30.7020   25.7778 H   0  0  0  0  0  0
  -24.8926  -32.2804   26.4967 H   0  0  0  0  0  0
  -25.8125  -30.8807   27.0198 H   0  0  0  0  0  0
  -26.2824  -29.6797   24.1209 H   0  0  0  0  0  0
  -27.4208  -29.7339   25.4490 H   0  0  0  0  0  0
  -27.8604  -30.4394   23.9098 H   0  0  0  0  0  0
  -27.2719  -33.3686   26.1986 H   0  0  0  0  0  0
  -28.3896  -32.6819   25.0309 H   0  0  0  0  0  0
  -28.0682  -31.8503   26.5440 H   0  0  0  0  0  0
  -28.2601  -38.0110   24.7551 H   0  0  0  0  0  0
  -28.1077  -36.2648   24.6272 H   0  0  0  0  0  0
  -27.2309  -37.1454   25.8878 H   0  0  0  0  0  0
  -20.9322  -29.8749   21.6969 H   0  0  0  0  0  0
  -26.0197  -38.2871   24.1408 H   0  0  0  0  0  0
  -32.5573  -19.2945   20.9286 H   0  0  0  0  0  0
  -32.0285  -17.0299   20.2513 H   0  0  0  0  0  0
  -31.8113  -25.2323   21.8966 H   0  0  0  0  0  0
  -30.9611  -24.6397   23.3200 H   0  0  0  0  0  0
  -32.6119  -23.0281   23.3366 H   0  0  0  0  0  0
  -32.9478  -23.1711   21.6198 H   0  0  0  0  0  0
  -29.3063  -21.8992   21.1773 H   0  0  0  0  0  0
  -29.3794  -22.4241   22.8530 H   0  0  0  0  0  0
  -30.3395  -23.9966   20.4083 H   0  0  0  0  0  0
  -27.6779  -16.3971   22.4155 H   0  0  0  0  0  0
  -27.7549  -17.3984   23.8454 H   0  0  0  0  0  0
  -28.6571  -15.8882   23.7995 H   0  0  0  0  0  0
  -28.8397  -19.4969   26.0240 H   0  0  0  0  0  0
  -30.5337  -19.3516   25.5637 H   0  0  0  0  0  0
  -29.4682  -17.9487   25.4711 H   0  0  0  0  0  0
  -32.5425  -20.6858   23.1060 H   0  0  0  0  0  0
  -31.0542  -21.0307   23.9175 H   0  0  0  0  0  0
  -30.0705  -26.6101   21.2080 H   0  0  0  0  0  0
  -28.6171  -26.9690   22.1231 H   0  0  0  0  0  0
  -29.1446  -15.0744   21.6704 H   0  0  0  0  0  0
  -31.5630  -21.6600   21.1083 H   0  0  0  0  0  0
  1 25  1  0  0  0
  1 30  2  0  0  0
  1 86  1  0  0  0
  2  3  1  0  0  0
  2 25  1  0  0  0
  2 90  1  0  0  0
  2 91  1  0  0  0
  3  4  1  0  0  0
  3 92  1  0  0  0
  3 93  1  0  0  0
  4  5  1  0  0  0
  4 94  1  0  0  0
  4 95  1  0  0  0
  5  6  1  0  0  0
  5 26  1  0  0  0
  5 96  1  0  0  0
  6 25  1  0  0  0
  6 97  1  0  0  0
  6 98  1  0  0  0
  7  8  2  0  0  0
  7 26  1  0  0  0
  7 29  1  0  0  0
  8  9  1  0  0  0
  8 22  1  0  0  0
  9 10  1  0  0  0
  9 27  2  0  0  0
 10 11  2  0  0  0
 10 15  1  0  0  0
 11 12  1  0  0  0
 11 99  1  0  0  0
 12 13  2  0  0  0
 12100  1  0  0  0
 13 14  1  0  0  0
 13 31  1  0  0  0
 14 15  2  0  0  0
 14101  1  0  0  0
 15102  1  0  0  0
 16 17  2  0  0  0
 16 21  1  0  0  0
 16 31  1  0  0  0
 17 18  1  0  0  0
 17103  1  0  0  0
 18 19  2  0  0  0
 18104  1  0  0  0
 19 20  1  0  0  0
 19 24  1  0  0  0
 20 21  2  0  0  0
 20105  1  0  0  0
 21 23  1  0  0  0
 22 28  1  0  0  0
 22 32  2  0  0  0
 26 27  1  0  0  0
 28106  1  0  0  0
 28107  1  0  0  0
 29108  1  0  0  0
 29109  1  0  0  0
 33 34  1  0  0  0
 33 66  1  0  0  0
 33 70  2  0  0  0
 34 36  1  0  0  0
 34 59  1  0  0  0
 34110  1  0  0  0
 35 44  2  0  0  0
 35 45  1  0  0  0
 35 68  1  0  0  0
 36 56  1  0  0  0
 36111  1  0  0  0
 37 39  1  0  0  0
 37 47  1  0  0  0
 37 66  1  0  0  0
 37112  1  0  0  0
 38 43  2  0  0  0
 38 46  1  0  0  0
 38 47  1  0  0  0
 39 64  1  0  0  0
 39 67  2  0  0  0
 40 52  1  0  0  0
 40 53  2  0  0  0
 40 58  1  0  0  0
 41113  1  0  0  0
 41114  1  0  0  0
 41115  1  0  0  0
 41 48  1  0  0  0
 42 43  1  0  0  0
 42 66  1  0  0  0
 42116  1  0  0  0
 42117  1  0  0  0
 43 44  1  0  0  0
 44118  1  0  0  0
 45 46  2  0  0  0
 45119  1  0  0  0
 46120  1  0  0  0
 47121  1  0  0  0
 47122  1  0  0  0
 48 56  1  0  0  0
 48 65  1  0  0  0
 48123  1  0  0  0
 49 50  1  0  0  0
 49 53  1  0  0  0
 49 64  1  0  0  0
 49124  1  0  0  0
 50 51  1  0  0  0
 50125  1  0  0  0
 50126  1  0  0  0
 51 52  1  0  0  0
 51127  1  0  0  0
 51128  1  0  0  0
 52129  1  0  0  0
 52130  1  0  0  0
 53 54  1  0  0  0
 54 55  2  0  0  0
 54131  1  0  0  0
 55 57  1  0  0  0
 55132  1  0  0  0
 56 69  2  0  0  0
 57 58  2  0  0  0
 57133  1  0  0  0
 58134  1  0  0  0
 59 60  1  0  0  0
 59 61  1  0  0  0
 59 62  1  0  0  0
 60135  1  0  0  0
 60136  1  0  0  0
 60137  1  0  0  0
 61138  1  0  0  0
 61139  1  0  0  0
 61140  1  0  0  0
 62141  1  0  0  0
 62142  1  0  0  0
 62143  1  0  0  0
 63 65  1  0  0  0
 63144  1  0  0  0
 63145  1  0  0  0
 63146  1  0  0  0
 64147  1  0  0  0
 65148  1  0  0  0
 68 85  1  0  0  0
 71 72  2  0  0  0
 71 73  1  0  0  0
 71149  1  0  0  0
 72 75  1  0  0  0
 72150  1  0  0  0
 73 76  2  0  0  0
 73 84  1  0  0  0
 74 75  2  0  0  0
 74 76  1  0  0  0
 74 82  1  0  0  0
 75 86  1  0  0  0
 76 89  1  0  0  0
 77 85  1  0  0  0
 77 88  2  0  0  0
 77 81  1  0  0  0
 78 79  1  0  0  0
 78 81  1  0  0  0
 78151  1  0  0  0
 78152  1  0  0  0
 79 87  1  0  0  0
 79153  1  0  0  0
 79154  1  0  0  0
 80 81  1  0  0  0
 80 87  1  0  0  0
 80155  1  0  0  0
 80156  1  0  0  0
 81157  1  0  0  0
 82158  1  0  0  0
 82159  1  0  0  0
 82160  1  0  0  0
 83 89  1  0  0  0
 83161  1  0  0  0
 83162  1  0  0  0
 83163  1  0  0  0
 84164  1  0  0  0
 84165  1  0  0  0
 84 87  1  0  0  0
 85166  1  0  0  0
 85167  1  0  0  0
 86168  1  0  0  0
 87169  1  0  0  0
M  CHG  1  87   1
M  ISO  4   1 100  68 101  85 101  86 100
M  END
> <chiral flag>
0

> <version>
0

> <s_m_source_file>
/data/baiqing/PycharmProjects/Reinvent-master-3.2/result/LINK_invent/BTK/process_docking_weight1_custom_product_contain_oxygen_bond_distance_aromatic_linkinvent_7_9_3/rearranged_h_0103.sdf

> <i_m_source_file_index>
16

> <r_mmod_Potential_Energy-OPLS-2005>
-118.446655273438

> <r_mmod_Stretch_Energy-OPLS-2005>
40.0856132507324

> <r_mmod_Bend_Energy-OPLS-2005>
132.693450927734

> <r_mmod_Torsional_Energy-OPLS-2005>
319.110504150391

> <r_mmod_Improper_Torsional_Energy-OPLS-2005>
2.67977428436279

> <r_mmod_Van_der_Waal_Energy-OPLS-2005>
149.043685913086

> <r_mmod_Electrostatic_Energy-OPLS-2005>
-317.094879150391

> <r_mmod_Solvation_Energy-OPLS-2005>
-455.080749511719

> <b_mmod_Minimization_Converged-OPLS-2005>
0

> <r_mmod_RMS_Derivative-OPLS-2005>
3.20617580413818

$$$$
16
                    3D
 Structure written by MMmdl.
171180  0  0  1  0            999 V2000
  -28.5806  -19.2278   20.3900 C   0  0  0  0  0  0
  -29.6023  -15.7434   19.5976 C   0  0  0  0  0  0
  -29.3712  -14.2532   18.7002 C   0  0  0  0  0  0
  -28.4232  -13.1730   19.2258 C   0  0  0  0  0  0
  -27.4701  -14.0840   19.9807 C   0  0  2  0  0  0
  -28.0377  -15.5517   20.8193 C   0  0  0  0  0  0
  -25.0916  -13.9776   20.6296 C   0  0  0  0  0  0
  -24.1294  -13.0793   20.9495 C   0  0  0  0  0  0
  -24.7153  -11.7758   20.8646 C   0  0  0  0  0  0
  -24.0044  -10.4597   21.0068 C   0  0  0  0  0  0
  -24.4262   -9.4430   21.9011 C   0  0  0  0  0  0
  -23.6721   -8.2535   22.0704 C   0  0  0  0  0  0
  -22.4700   -8.0552   21.3523 C   0  0  0  0  0  0
  -22.0520   -9.0512   20.4527 C   0  0  0  0  0  0
  -22.8075  -10.2302   20.2812 C   0  0  0  0  0  0
  -21.6990   -6.0959   22.5257 C   0  0  0  0  0  0
  -21.4158   -6.5774   23.8220 C   0  0  0  0  0  0
  -21.3736   -5.6867   24.9140 C   0  0  0  0  0  0
  -21.6026   -4.3122   24.7152 C   0  0  0  0  0  0
  -21.8795   -3.8273   23.4250 C   0  0  0  0  0  0
  -21.9225   -4.7153   22.3340 C   0  0  0  0  0  0
  -22.7055  -13.4605   21.2055 C   0  0  0  0  0  0
  -22.1681   -4.2339   21.0909 F   0  0  0  0  0  0
  -21.5597   -3.4564   25.7635 F   0  0  0  0  0  0
  -28.5487  -17.1628   20.1843 N   0  0  0  0  0  0
  -26.2644  -13.3097   20.4677 N   0  0  0  0  0  0
  -26.0442  -11.9255   20.5886 N   0  0  0  0  0  0
  -22.0154  -12.7249   22.0677 N   0  0  0  0  0  0
  -25.0560  -15.3502   20.4415 N   0  0  0  0  0  0
  -29.8256  -18.6359   20.3399 O   0  0  0  0  0  0
  -21.6928   -6.9231   21.4281 O   0  0  0  0  0  0
  -22.2230  -14.4730   20.6930 O   0  0  0  0  0  0
  -24.8865  -31.2974   22.9138 C   0  0  0  0  0  0
  -25.9928  -32.2128   23.6497 C   0  0  1  0  0  0
  -28.6779  -24.8646   19.6428 C   0  0  0  0  0  0
  -25.5336  -33.6266   23.9797 N   0  0  0  0  0  0
  -23.8353  -29.4601   21.4508 C   0  0  2  0  0  0
  -25.0378  -26.6020   20.6845 C   0  0  0  0  0  0
  -22.8212  -29.1322   22.5417 C   0  0  0  0  0  0
  -18.0191  -28.1519   22.8332 C   0  0  0  0  0  0
  -24.1432  -36.6168   23.2768 C   0  0  0  0  0  0
  -26.3531  -29.0734   21.7919 C   0  0  0  0  0  0
  -26.5389  -27.2618   21.4733 C   0  0  0  0  0  0
  -28.2736  -26.3369   21.1702 C   0  0  0  0  0  0
  -26.6831  -23.7749   18.7120 C   0  0  0  0  0  0
  -24.9289  -24.9880   19.5070 C   0  0  0  0  0  0
  -24.0127  -28.0289   20.5421 C   0  0  0  0  0  0
  -25.4169  -36.1542   24.0093 C   0  0  1  0  0  0
  -20.5794  -28.3637   23.1205 C   0  0  2  0  0  0
  -20.6289  -26.9090   22.6006 C   0  0  0  0  0  0
  -19.5650  -26.6228   21.5391 C   0  0  0  0  0  0
  -18.1739  -26.8009   22.1504 C   0  0  0  0  0  0
  -19.1516  -28.9019   23.2571 C   0  0  0  0  0  0
  -18.9505  -30.1580   23.8662 C   0  0  0  0  0  0
  -17.6515  -30.6685   24.0496 C   0  0  0  0  0  0
  -25.9227  -34.8020   23.4237 C   0  0  0  0  0  0
  -16.5362  -29.9209   23.6327 C   0  0  0  0  0  0
  -16.7196  -28.6646   23.0307 C   0  0  0  0  0  0
  -26.4827  -31.5956   25.0180 C   0  0  0  0  0  0
  -25.3505  -31.3830   26.0468 C   0  0  0  0  0  0
  -27.1424  -30.2419   24.7855 C   0  0  0  0  0  0
  -27.5745  -32.4790   25.6734 C   0  0  0  0  0  0
  -27.5403  -37.1081   24.8469 C   0  0  0  0  0  0
  -21.4921  -29.1960   22.3289 N   0  0  0  0  0  0
  -26.4061  -37.2646   23.9396 N   0  0  0  0  0  0
  -25.0773  -30.0701   22.0938 N   0  0  0  0  0  0
  -23.2958  -28.6855   23.5844 O   0  0  0  0  0  0
  -29.4945  -25.4843   18.7637 O   0  0  0  0  0  0
  -26.6700  -34.8309   22.4447 O   0  0  0  0  0  0
  -23.7584  -31.7688   23.1925 O   0  0  0  0  0  0
  -26.8703  -25.9047   18.8125 C   0  0  0  0  0  0
  -25.7215  -27.5085   17.4992 C   0  0  0  0  0  0
  -26.9483  -26.4557   19.3659 C   0  0  0  0  0  0
  -26.0599  -26.1370   17.3883 C   0  0  0  0  0  0
  -26.8336  -24.5806   20.6687 C   0  0  0  0  0  0
  -26.2905  -27.9611   18.7404 C   0  0  0  0  0  0
  -28.2611  -25.0680   15.6574 C   0  0  0  0  0  0
  -28.4601  -22.7602   16.3422 C   0  0  0  0  0  0
  -27.0651  -23.0617   15.6920 C   0  0  0  0  0  0
  -29.2619  -24.1017   16.2814 C   0  0  1  0  0  0
  -30.8488  -22.9012   21.2064 C   0  0  0  0  0  0
  -26.0018  -30.2599   18.2264 C   0  0  0  0  0  0
  -25.8383  -25.2067   16.1731 C   0  0  0  0  0  0
  -29.9719  -24.5596   17.6688 C   0  0  0  0  0  0
  -30.1260  -21.7031   21.8278 C   0  0  0  0  0  0
  -28.5733  -21.7802   21.8322 C   0  0  0  0  0  0
  -27.0256  -24.5249   15.6209 N   0  0  0  0  0  0
  -27.8236  -21.6702   20.5690 N   0  0  0  0  0  0
  -28.5455  -26.2363   15.3835 O   0  0  0  0  0  0
  -26.7845  -29.2466   18.8523 O   0  0  0  0  0  0
  -30.2460  -16.2803   18.9033 H   0  0  0  0  0  0
  -30.3419  -15.4958   20.3647 H   0  0  0  0  0  0
  -30.3340  -13.7884   18.5033 H   0  0  0  0  0  0
  -28.9881  -14.5438   17.7242 H   0  0  0  0  0  0
  -28.9091  -12.4718   19.9055 H   0  0  0  0  0  0
  -27.9518  -12.5967   18.4183 H   0  0  0  0  0  0
  -27.0336  -14.5724   19.1048 H   0  0  0  0  0  0
  -28.7048  -15.2088   21.6246 H   0  0  0  0  0  0
  -27.2166  -15.8417   21.4792 H   0  0  0  0  0  0
  -25.3348   -9.5881   22.4737 H   0  0  0  0  0  0
  -24.0330   -7.4994   22.7545 H   0  0  0  0  0  0
  -21.1439   -8.9140   19.8804 H   0  0  0  0  0  0
  -22.4526  -10.9834   19.5881 H   0  0  0  0  0  0
  -21.2242   -7.6288   23.9789 H   0  0  0  0  0  0
  -21.1575   -6.0580   25.9049 H   0  0  0  0  0  0
  -22.0490   -2.7744   23.2641 H   0  0  0  0  0  0
  -22.4290  -11.9162   22.5140 H   0  0  0  0  0  0
  -21.0645  -12.9692   22.3109 H   0  0  0  0  0  0
  -24.1804  -15.8540   20.5119 H   0  0  0  0  0  0
  -25.8351  -15.9286   20.1415 H   0  0  0  0  0  0
  -26.8434  -32.2755   22.9701 H   0  0  0  0  0  0
  -24.8246  -33.6749   24.6991 H   0  0  0  0  0  0
  -23.3934  -30.2074   20.8000 H   0  0  0  0  0  0
  -23.3743  -35.8411   23.3055 H   0  0  0  0  0  0
  -24.3470  -36.8360   22.2256 H   0  0  0  0  0  0
  -23.7177  -37.5115   23.7361 H   0  0  0  0  0  0
  -26.9766  -29.6150   21.0895 H   0  0  0  0  0  0
  -26.9878  -29.0936   22.6499 H   0  0  0  0  0  0
  -29.1596  -26.8951   21.4639 H   0  0  0  0  0  0
  -26.6015  -22.9142   18.1186 H   0  0  0  0  0  0
  -23.9571  -24.7617   19.0722 H   0  0  0  0  0  0
  -24.0258  -28.3433   19.5011 H   0  0  0  0  0  0
  -23.0260  -27.5501   20.5441 H   0  0  0  0  0  0
  -25.1529  -35.9857   25.0561 H   0  0  0  0  0  0
  -20.9446  -28.3414   24.1517 H   0  0  0  0  0  0
  -20.4442  -26.2330   23.4413 H   0  0  0  0  0  0
  -21.6227  -26.6315   22.2538 H   0  0  0  0  0  0
  -19.6764  -25.6159   21.1417 H   0  0  0  0  0  0
  -19.6937  -27.2983   20.6965 H   0  0  0  0  0  0
  -17.4141  -26.6883   21.3754 H   0  0  0  0  0  0
  -17.9881  -26.0209   22.8903 H   0  0  0  0  0  0
  -19.8055  -30.7336   24.1982 H   0  0  0  0  0  0
  -17.5134  -31.6364   24.5151 H   0  0  0  0  0  0
  -15.5412  -30.3152   23.7707 H   0  0  0  0  0  0
  -15.8522  -28.1013   22.7059 H   0  0  0  0  0  0
  -24.5832  -30.7024   25.6655 H   0  0  0  0  0  0
  -24.8502  -32.3174   26.3007 H   0  0  0  0  0  0
  -25.7175  -30.9464   26.9761 H   0  0  0  0  0  0
  -26.3897  -29.4773   24.5704 H   0  0  0  0  0  0
  -27.6813  -29.8885   25.6679 H   0  0  0  0  0  0
  -27.8888  -30.3017   23.9939 H   0  0  0  0  0  0
  -27.1867  -33.4508   25.9887 H   0  0  0  0  0  0
  -28.3921  -32.6641   24.9721 H   0  0  0  0  0  0
  -28.0066  -32.0088   26.5581 H   0  0  0  0  0  0
  -28.2156  -37.9585   24.7505 H   0  0  0  0  0  0
  -28.1142  -36.2063   24.6270 H   0  0  0  0  0  0
  -27.2132  -37.0578   25.8873 H   0  0  0  0  0  0
  -21.1403  -29.5534   21.4502 H   0  0  0  0  0  0
  -25.9626  -38.1597   24.1294 H   0  0  0  0  0  0
  -27.5065  -25.5252   17.8380 H   0  0  0  0  0  0
  -25.2919  -28.0824   16.6859 H   0  0  0  0  0  0
  -27.7446  -27.4092   19.5090 H   0  0  0  0  0  0
  -28.9190  -21.9427   15.7829 H   0  0  0  0  0  0
  -28.4219  -22.4102   17.3794 H   0  0  0  0  0  0
  -26.1964  -22.6654   16.2187 H   0  0  0  0  0  0
  -26.9637  -22.5695   14.7180 H   0  0  0  0  0  0
  -30.0079  -23.9315   15.4907 H   0  0  0  0  0  0
  -31.9247  -22.8283   21.3649 H   0  0  0  0  0  0
  -30.5554  -23.8251   21.6978 H   0  0  0  0  0  0
  -30.6856  -22.9916   20.1360 H   0  0  0  0  0  0
  -26.2589  -31.2505   18.6207 H   0  0  0  0  0  0
  -24.9382  -30.1126   18.4345 H   0  0  0  0  0  0
  -26.1788  -30.2469   17.1460 H   0  0  0  0  0  0
  -25.3860  -25.7822   15.3700 H   0  0  0  0  0  0
  -25.1310  -24.4442   16.4871 H   0  0  0  0  0  0
  -30.9420  -24.9585   17.4256 H   0  0  0  0  0  0
  -30.1880  -23.5877   18.1105 H   0  0  0  0  0  0
  -30.4519  -21.6353   22.8775 H   0  0  0  0  0  0
  -30.5306  -20.8073   21.3569 H   0  0  0  0  0  0
  -28.3178  -22.7371   22.2781 H   0  0  0  0  0  0
  -28.1619  -21.0394   22.5170 H   0  0  0  0  0  0
  1 25  1  0  0  0
  1 30  2  0  0  0
  1 88  1  0  0  0
  2  3  1  0  0  0
  2 25  1  0  0  0
  2 91  1  0  0  0
  2 92  1  0  0  0
  3  4  1  0  0  0
  3 93  1  0  0  0
  3 94  1  0  0  0
  4  5  1  0  0  0
  4 95  1  0  0  0
  4 96  1  0  0  0
  5  6  1  0  0  0
  5 26  1  0  0  0
  5 97  1  0  0  0
  6 25  1  0  0  0
  6 98  1  0  0  0
  6 99  1  0  0  0
  7  8  2  0  0  0
  7 26  1  0  0  0
  7 29  1  0  0  0
  8  9  1  0  0  0
  8 22  1  0  0  0
  9 10  1  0  0  0
  9 27  2  0  0  0
 10 11  2  0  0  0
 10 15  1  0  0  0
 11 12  1  0  0  0
 11100  1  0  0  0
 12 13  2  0  0  0
 12101  1  0  0  0
 13 14  1  0  0  0
 13 31  1  0  0  0
 14 15  2  0  0  0
 14102  1  0  0  0
 15103  1  0  0  0
 16 17  2  0  0  0
 16 21  1  0  0  0
 16 31  1  0  0  0
 17 18  1  0  0  0
 17104  1  0  0  0
 18 19  2  0  0  0
 18105  1  0  0  0
 19 20  1  0  0  0
 19 24  1  0  0  0
 20 21  2  0  0  0
 20106  1  0  0  0
 21 23  1  0  0  0
 22 28  1  0  0  0
 22 32  2  0  0  0
 26 27  1  0  0  0
 28107  1  0  0  0
 28108  1  0  0  0
 29109  1  0  0  0
 29110  1  0  0  0
 33 34  1  0  0  0
 33 66  1  0  0  0
 33 70  2  0  0  0
 34 36  1  0  0  0
 34 59  1  0  0  0
 34111  1  0  0  0
 35 44  2  0  0  0
 35 45  1  0  0  0
 35 68  1  0  0  0
 36 56  1  0  0  0
 36112  1  0  0  0
 37 39  1  0  0  0
 37 47  1  0  0  0
 37 66  1  0  0  0
 37113  1  0  0  0
 38 43  2  0  0  0
 38 46  1  0  0  0
 38 47  1  0  0  0
 39 64  1  0  0  0
 39 67  2  0  0  0
 40 52  1  0  0  0
 40 53  2  0  0  0
 40 58  1  0  0  0
 41114  1  0  0  0
 41115  1  0  0  0
 41116  1  0  0  0
 41 48  1  0  0  0
 42 43  1  0  0  0
 42 66  1  0  0  0
 42117  1  0  0  0
 42118  1  0  0  0
 43 44  1  0  0  0
 44119  1  0  0  0
 45 46  2  0  0  0
 45120  1  0  0  0
 46121  1  0  0  0
 47122  1  0  0  0
 47123  1  0  0  0
 48 56  1  0  0  0
 48 65  1  0  0  0
 48124  1  0  0  0
 49 50  1  0  0  0
 49 53  1  0  0  0
 49 64  1  0  0  0
 49125  1  0  0  0
 50 51  1  0  0  0
 50126  1  0  0  0
 50127  1  0  0  0
 51 52  1  0  0  0
 51128  1  0  0  0
 51129  1  0  0  0
 52130  1  0  0  0
 52131  1  0  0  0
 53 54  1  0  0  0
 54 55  2  0  0  0
 54132  1  0  0  0
 55 57  1  0  0  0
 55133  1  0  0  0
 56 69  2  0  0  0
 57 58  2  0  0  0
 57134  1  0  0  0
 58135  1  0  0  0
 59 60  1  0  0  0
 59 61  1  0  0  0
 59 62  1  0  0  0
 60136  1  0  0  0
 60137  1  0  0  0
 60138  1  0  0  0
 61139  1  0  0  0
 61140  1  0  0  0
 61141  1  0  0  0
 62142  1  0  0  0
 62143  1  0  0  0
 62144  1  0  0  0
 63 65  1  0  0  0
 63145  1  0  0  0
 63146  1  0  0  0
 63147  1  0  0  0
 64148  1  0  0  0
 65149  1  0  0  0
 68 84  1  0  0  0
 71 74  2  0  0  0
 71 75  1  0  0  0
 71150  1  0  0  0
 72 74  1  0  0  0
 72 76  2  0  0  0
 72151  1  0  0  0
 73 75  2  0  0  0
 73 76  1  0  0  0
 73152  1  0  0  0
 74 83  1  0  0  0
 75 88  1  0  0  0
 76 90  1  0  0  0
 77 80  1  0  0  0
 77 87  1  0  0  0
 77 89  2  0  0  0
 78 79  1  0  0  0
 78 80  1  0  0  0
 78153  1  0  0  0
 78154  1  0  0  0
 79 87  1  0  0  0
 79155  1  0  0  0
 79156  1  0  0  0
 80 84  1  0  0  0
 80157  1  0  0  0
 81 85  1  0  0  0
 81158  1  0  0  0
 81159  1  0  0  0
 81160  1  0  0  0
 82 90  1  0  0  0
 82161  1  0  0  0
 82162  1  0  0  0
 82163  1  0  0  0
 83 87  1  0  0  0
 83164  1  0  0  0
 83165  1  0  0  0
 84166  1  0  0  0
 84167  1  0  0  0
 85 86  1  0  0  0
 85168  1  0  0  0
 85169  1  0  0  0
 86 88  1  0  0  0
 86170  1  0  0  0
 86171  1  0  0  0
M  ISO  4   1 100  68 101  84 101  88 100
M  END
> <chiral flag>
0

> <version>
0

> <s_m_source_file>
/data/baiqing/PycharmProjects/Reinvent-master-3.2/result/LINK_invent/BTK/process_docking_weight1_custom_product_contain_oxygen_bond_distance_aromatic_linkinvent_7_9_3/rearranged_h_0103.sdf

> <i_m_source_file_index>
17

> <r_mmod_Potential_Energy-OPLS-2005>
43076.296875

> <r_mmod_Stretch_Energy-OPLS-2005>
19591.943359375

> <r_mmod_Bend_Energy-OPLS-2005>
3226.61083984375

> <r_mmod_Torsional_Energy-OPLS-2005>
830.326354980469

> <r_mmod_Improper_Torsional_Energy-OPLS-2005>
73.8849716186523

> <r_mmod_Van_der_Waal_Energy-OPLS-2005>
4410.80859375

> <r_mmod_Electrostatic_Energy-OPLS-2005>
-271.428833007812

> <r_mmod_Solvation_Energy-OPLS-2005>
-249.632064819336

> <b_mmod_Minimization_Converged-OPLS-2005>
0

> <r_mmod_RMS_Derivative-OPLS-2005>
41.8574829101562

$$$$
17
                    3D
 Structure written by MMmdl.
142149  0  0  1  0            999 V2000
  -30.1476  -16.0476   20.2859 C   0  0  0  0  0  0
  -30.3887  -13.3860   19.5620 C   0  0  0  0  0  0
  -29.5664  -12.7740   18.3771 C   0  0  0  0  0  0
  -28.1746  -12.3250   18.8341 C   0  0  0  0  0  0
  -27.5847  -13.3551   19.8163 C   0  0  2  0  0  0
  -28.5669  -13.8560   20.9157 C   0  0  0  0  0  0
  -25.2250  -13.8356   20.5855 C   0  0  0  0  0  0
  -24.1686  -13.0442   20.9312 C   0  0  0  0  0  0
  -24.6453  -11.6974   20.8759 C   0  0  0  0  0  0
  -23.9164  -10.4300   21.0378 C   0  0  0  0  0  0
  -24.3682   -9.4211   21.9170 C   0  0  0  0  0  0
  -23.6330   -8.2258   22.0751 C   0  0  0  0  0  0
  -22.4309   -8.0298   21.3544 C   0  0  0  0  0  0
  -21.9965   -9.0276   20.4640 C   0  0  0  0  0  0
  -22.7321  -10.2141   20.3038 C   0  0  0  0  0  0
  -21.6865   -6.0749   22.5279 C   0  0  0  0  0  0
  -21.4024   -6.5648   23.8214 C   0  0  0  0  0  0
  -21.3662   -5.6797   24.9173 C   0  0  0  0  0  0
  -21.6043   -4.3060   24.7222 C   0  0  0  0  0  0
  -21.8818   -3.8154   23.4342 C   0  0  0  0  0  0
  -21.9196   -4.6974   22.3400 C   0  0  0  0  0  0
  -22.7686  -13.5134   21.1933 C   0  0  0  0  0  0
  -22.1663   -4.2159   21.0977 F   0  0  0  0  0  0
  -21.5626   -3.4541   25.7733 F   0  0  0  0  0  0
  -29.6815  -14.6037   20.2481 N   0  0  0  0  0  0
  -26.2760  -12.9781   20.3317 N   0  0  0  0  0  0
  -25.9421  -11.6797   20.5690 N   0  0  0  0  0  0
  -22.0366  -12.8098   22.0484 N   0  0  0  0  0  0
  -25.3771  -15.2106   20.4295 N   0  0  0  0  0  0
  -31.3831  -15.9207   20.0989 O   0  0  0  0  0  0
  -21.6658   -6.8901   21.4245 O   0  0  0  0  0  0
  -22.3347  -14.5427   20.6768 O   0  0  0  0  0  0
  -24.7104  -31.7655   23.1272 C   0  0  0  0  0  0
  -25.9549  -32.4295   23.7925 C   0  0  1  0  0  0
  -27.2436  -26.4140   20.2371 C   0  0  0  0  0  0
  -25.6009  -33.8138   24.1779 N   0  0  0  0  0  0
  -23.5509  -30.3533   21.4866 C   0  0  2  0  0  0
  -25.0145  -28.6351   20.1198 C   0  0  0  0  0  0
  -22.7890  -29.4125   22.4621 C   0  0  0  0  0  0
  -18.0356  -28.1437   22.8439 C   0  0  0  0  0  0
  -24.1497  -36.7080   23.2661 C   0  0  0  0  0  0
  -26.1415  -30.4008   21.4383 C   0  0  0  0  0  0
  -26.2040  -28.9341   20.7924 C   0  0  0  0  0  0
  -27.2837  -27.8582   20.8174 C   0  0  0  0  0  0
  -26.0250  -26.4036   19.4883 C   0  0  0  0  0  0
  -24.9819  -27.3996   19.4428 C   0  0  0  0  0  0
  -23.8218  -29.6235   20.1335 C   0  0  0  0  0  0
  -25.4158  -36.2795   24.0260 C   0  0  1  0  0  0
  -20.6005  -28.3808   23.1087 C   0  0  2  0  0  0
  -20.6806  -26.9439   22.5410 C   0  0  0  0  0  0
  -19.5789  -26.6360   21.5219 C   0  0  0  0  0  0
  -18.1971  -26.7958   22.1613 C   0  0  0  0  0  0
  -19.1630  -28.8953   23.2735 C   0  0  0  0  0  0
  -18.9531  -30.1529   23.8794 C   0  0  0  0  0  0
  -17.6517  -30.6611   24.0544 C   0  0  0  0  0  0
  -25.9155  -34.9194   23.4880 C   0  0  0  0  0  0
  -16.5405  -29.9087   23.6358 C   0  0  0  0  0  0
  -16.7334  -28.6512   23.0372 C   0  0  0  0  0  0
  -26.4638  -31.6459   25.0671 C   0  0  0  0  0  0
  -25.3626  -31.3859   26.1230 C   0  0  0  0  0  0
  -27.0622  -30.2766   24.6791 C   0  0  0  0  0  0
  -27.6027  -32.4395   25.7505 C   0  0  0  0  0  0
  -27.5554  -37.1695   24.8467 C   0  0  0  0  0  0
  -21.4511  -29.2995   22.3371 N   0  0  0  0  0  0
  -26.4259  -37.3589   23.9407 N   0  0  0  0  0  0
  -24.8276  -30.8807   22.0689 N   0  0  0  0  0  0
  -23.4197  -28.7776   23.3103 O   0  0  0  0  0  0
  -28.1527  -25.0566   20.3724 O   0  0  0  0  0  0
  -26.5840  -34.8829   22.4527 O   0  0  0  0  0  0
  -23.6062  -32.0868   23.6040 O   0  0  0  0  0  0
  -28.7608  -21.3714   20.5731 C   0  0  0  0  0  0
  -29.1418  -19.4321   18.4264 C   0  0  0  0  0  0
  -28.1944  -23.2002   19.9229 C   0  0  0  0  0  0
  -29.3469  -19.4050   19.9465 C   0  0  2  0  0  0
  -29.3936  -17.5219   20.3475 N   0  0  0  0  0  0
  -28.7750  -21.4086   21.8069 O   0  0  0  0  0  0
  -31.3531  -13.6951   19.1584 H   0  0  0  0  0  0
  -30.6406  -12.6141   20.2915 H   0  0  0  0  0  0
  -30.1041  -11.9387   17.9266 H   0  0  0  0  0  0
  -29.4612  -13.5282   17.5960 H   0  0  0  0  0  0
  -28.2747  -11.3619   19.3363 H   0  0  0  0  0  0
  -27.5140  -12.1668   17.9807 H   0  0  0  0  0  0
  -27.3962  -14.2224   19.1814 H   0  0  0  0  0  0
  -28.9118  -13.0426   21.5562 H   0  0  0  0  0  0
  -28.0522  -14.5543   21.5770 H   0  0  0  0  0  0
  -25.2818   -9.5681   22.4760 H   0  0  0  0  0  0
  -24.0024   -7.4653   22.7483 H   0  0  0  0  0  0
  -21.0892   -8.8810   19.8948 H   0  0  0  0  0  0
  -22.3780  -10.9681   19.6149 H   0  0  0  0  0  0
  -21.2021   -7.6156   23.9720 H   0  0  0  0  0  0
  -21.1483   -6.0526   25.9076 H   0  0  0  0  0  0
  -22.0593   -2.7616   23.2840 H   0  0  0  0  0  0
  -22.4026  -11.9783   22.4881 H   0  0  0  0  0  0
  -21.0965  -13.1071   22.2680 H   0  0  0  0  0  0
  -24.6004  -15.8540   20.5376 H   0  0  0  0  0  0
  -26.2165  -15.6562   20.0833 H   0  0  0  0  0  0
  -26.7660  -32.4697   23.0653 H   0  0  0  0  0  0
  -25.0015  -33.9127   24.9841 H   0  0  0  0  0  0
  -22.8928  -31.1977   21.2716 H   0  0  0  0  0  0
  -23.3783  -35.9383   23.3248 H   0  0  0  0  0  0
  -24.3553  -36.8836   22.2090 H   0  0  0  0  0  0
  -23.7237  -37.6219   23.6812 H   0  0  0  0  0  0
  -26.3756  -31.1057   20.6395 H   0  0  0  0  0  0
  -26.9812  -30.4786   22.1156 H   0  0  0  0  0  0
  -28.1636  -28.0992   21.3970 H   0  0  0  0  0  0
  -25.8127  -25.4870   18.9563 H   0  0  0  0  0  0
  -24.0943  -27.1576   18.8744 H   0  0  0  0  0  0
  -24.0180  -30.3721   19.3652 H   0  0  0  0  0  0
  -22.9215  -29.1026   19.8033 H   0  0  0  0  0  0
  -25.1383  -36.1514   25.0748 H   0  0  0  0  0  0
  -21.0078  -28.3458   24.1218 H   0  0  0  0  0  0
  -20.5639  -26.2441   23.3699 H   0  0  0  0  0  0
  -21.6665  -26.7333   22.1249 H   0  0  0  0  0  0
  -19.6939  -25.6243   21.1316 H   0  0  0  0  0  0
  -19.6743  -27.3113   20.6706 H   0  0  0  0  0  0
  -17.4243  -26.6704   21.4012 H   0  0  0  0  0  0
  -18.0346  -26.0124   22.9029 H   0  0  0  0  0  0
  -19.8007  -30.7370   24.2119 H   0  0  0  0  0  0
  -17.5067  -31.6279   24.5168 H   0  0  0  0  0  0
  -15.5401  -30.2957   23.7742 H   0  0  0  0  0  0
  -15.8735  -28.0797   22.7145 H   0  0  0  0  0  0
  -24.5869  -30.7147   25.7525 H   0  0  0  0  0  0
  -24.8753  -32.3103   26.4342 H   0  0  0  0  0  0
  -25.7738  -30.9235   27.0212 H   0  0  0  0  0  0
  -26.3395  -29.6283   24.1828 H   0  0  0  0  0  0
  -27.3973  -29.7339   25.5640 H   0  0  0  0  0  0
  -27.9402  -30.3825   24.0419 H   0  0  0  0  0  0
  -27.2529  -33.3805   26.1761 H   0  0  0  0  0  0
  -28.3998  -32.6781   25.0450 H   0  0  0  0  0  0
  -28.0520  -31.8746   26.5683 H   0  0  0  0  0  0
  -28.2522  -38.0034   24.7514 H   0  0  0  0  0  0
  -28.1098  -36.2551   24.6296 H   0  0  0  0  0  0
  -27.2267  -37.1325   25.8867 H   0  0  0  0  0  0
  -20.9883  -29.8605   21.6354 H   0  0  0  0  0  0
  -26.0059  -38.2622   24.1426 H   0  0  0  0  0  0
  -29.2557  -20.4400   18.0259 H   0  0  0  0  0  0
  -28.1436  -19.0830   18.1621 H   0  0  0  0  0  0
  -29.8656  -18.7958   17.9165 H   0  0  0  0  0  0
  -27.1442  -23.0171   19.6970 H   0  0  0  0  0  0
  -28.6611  -23.2268   18.9385 H   0  0  0  0  0  0
  -30.4232  -19.5410   20.0583 H   0  0  0  0  0  0
  -28.4493  -17.2895   20.6238 H   0  0  0  0  0  0
  1 25  1  0  0  0
  1 30  2  0  0  0
  1 75  1  0  0  0
  2  3  1  0  0  0
  2 25  1  0  0  0
  2 77  1  0  0  0
  2 78  1  0  0  0
  3  4  1  0  0  0
  3 79  1  0  0  0
  3 80  1  0  0  0
  4  5  1  0  0  0
  4 81  1  0  0  0
  4 82  1  0  0  0
  5  6  1  0  0  0
  5 26  1  0  0  0
  5 83  1  0  0  0
  6 25  1  0  0  0
  6 84  1  0  0  0
  6 85  1  0  0  0
  7  8  2  0  0  0
  7 26  1  0  0  0
  7 29  1  0  0  0
  8  9  1  0  0  0
  8 22  1  0  0  0
  9 10  1  0  0  0
  9 27  2  0  0  0
 10 11  2  0  0  0
 10 15  1  0  0  0
 11 12  1  0  0  0
 11 86  1  0  0  0
 12 13  2  0  0  0
 12 87  1  0  0  0
 13 14  1  0  0  0
 13 31  1  0  0  0
 14 15  2  0  0  0
 14 88  1  0  0  0
 15 89  1  0  0  0
 16 17  2  0  0  0
 16 21  1  0  0  0
 16 31  1  0  0  0
 17 18  1  0  0  0
 17 90  1  0  0  0
 18 19  2  0  0  0
 18 91  1  0  0  0
 19 20  1  0  0  0
 19 24  1  0  0  0
 20 21  2  0  0  0
 20 92  1  0  0  0
 21 23  1  0  0  0
 22 28  1  0  0  0
 22 32  2  0  0  0
 26 27  1  0  0  0
 28 93  1  0  0  0
 28 94  1  0  0  0
 29 95  1  0  0  0
 29 96  1  0  0  0
 33 34  1  0  0  0
 33 66  1  0  0  0
 33 70  2  0  0  0
 34 36  1  0  0  0
 34 59  1  0  0  0
 34 97  1  0  0  0
 35 44  2  0  0  0
 35 45  1  0  0  0
 35 68  1  0  0  0
 36 56  1  0  0  0
 36 98  1  0  0  0
 37 39  1  0  0  0
 37 47  1  0  0  0
 37 66  1  0  0  0
 37 99  1  0  0  0
 38 43  2  0  0  0
 38 46  1  0  0  0
 38 47  1  0  0  0
 39 64  1  0  0  0
 39 67  2  0  0  0
 40 52  1  0  0  0
 40 53  2  0  0  0
 40 58  1  0  0  0
 41100  1  0  0  0
 41101  1  0  0  0
 41102  1  0  0  0
 41 48  1  0  0  0
 42 43  1  0  0  0
 42 66  1  0  0  0
 42103  1  0  0  0
 42104  1  0  0  0
 43 44  1  0  0  0
 44105  1  0  0  0
 45 46  2  0  0  0
 45106  1  0  0  0
 46107  1  0  0  0
 47108  1  0  0  0
 47109  1  0  0  0
 48 56  1  0  0  0
 48 65  1  0  0  0
 48110  1  0  0  0
 49 50  1  0  0  0
 49 53  1  0  0  0
 49 64  1  0  0  0
 49111  1  0  0  0
 50 51  1  0  0  0
 50112  1  0  0  0
 50113  1  0  0  0
 51 52  1  0  0  0
 51114  1  0  0  0
 51115  1  0  0  0
 52116  1  0  0  0
 52117  1  0  0  0
 53 54  1  0  0  0
 54 55  2  0  0  0
 54118  1  0  0  0
 55 57  1  0  0  0
 55119  1  0  0  0
 56 69  2  0  0  0
 57 58  2  0  0  0
 57120  1  0  0  0
 58121  1  0  0  0
 59 60  1  0  0  0
 59 61  1  0  0  0
 59 62  1  0  0  0
 60122  1  0  0  0
 60123  1  0  0  0
 60124  1  0  0  0
 61125  1  0  0  0
 61126  1  0  0  0
 61127  1  0  0  0
 62128  1  0  0  0
 62129  1  0  0  0
 62130  1  0  0  0
 63 65  1  0  0  0
 63131  1  0  0  0
 63132  1  0  0  0
 63133  1  0  0  0
 64134  1  0  0  0
 65135  1  0  0  0
 68 73  1  0  0  0
 71 73  1  0  0  0
 71 74  1  0  0  0
 71 76  2  0  0  0
 72136  1  0  0  0
 72137  1  0  0  0
 72138  1  0  0  0
 72 74  1  0  0  0
 73139  1  0  0  0
 73140  1  0  0  0
 74 75  1  0  0  0
 74141  1  0  0  0
 75142  1  0  0  0
M  ISO  4   1 100  68 101  73 101  75 100
M  END
> <chiral flag>
0

> <version>
0

> <s_m_source_file>
/data/baiqing/PycharmProjects/Reinvent-master-3.2/result/LINK_invent/BTK/process_docking_weight1_custom_product_contain_oxygen_bond_distance_aromatic_linkinvent_7_9_3/rearranged_h_0103.sdf

> <i_m_source_file_index>
18

> <r_mmod_Potential_Energy-OPLS-2005>
4275.1484375

> <r_mmod_Stretch_Energy-OPLS-2005>
1991.1728515625

> <r_mmod_Bend_Energy-OPLS-2005>
913.275573730469

> <r_mmod_Torsional_Energy-OPLS-2005>
216.660766601562

> <r_mmod_Improper_Torsional_Energy-OPLS-2005>
4.40711402893066

> <r_mmod_Van_der_Waal_Energy-OPLS-2005>
112.31356048584

> <r_mmod_Electrostatic_Energy-OPLS-2005>
-344.793060302734

> <r_mmod_Solvation_Energy-OPLS-2005>
-245.094390869141

> <b_mmod_Minimization_Converged-OPLS-2005>
0

> <r_mmod_RMS_Derivative-OPLS-2005>
0.100805401802063

$$$$
18
                    3D
 Structure written by MMmdl.
162171  0  0  1  0            999 V2000
  -30.6154  -14.7977   20.4627 C   0  0  0  0  0  0
  -30.4536  -12.4989   19.4627 C   0  0  0  0  0  0
  -29.5219  -12.5200   18.2306 C   0  0  0  0  0  0
  -28.0517  -12.3258   18.6551 C   0  0  0  0  0  0
  -27.6467  -13.2361   19.8467 C   0  0  2  0  0  0
  -28.6975  -13.2182   20.9782 C   0  0  0  0  0  0
  -25.2583  -13.8237   20.5719 C   0  0  0  0  0  0
  -24.1847  -13.0452   20.9236 C   0  0  0  0  0  0
  -24.6455  -11.6957   20.8780 C   0  0  0  0  0  0
  -23.9125  -10.4343   21.0475 C   0  0  0  0  0  0
  -24.3678   -9.4245   21.9242 C   0  0  0  0  0  0
  -23.6345   -8.2276   22.0807 C   0  0  0  0  0  0
  -22.4316   -8.0368   21.3597 C   0  0  0  0  0  0
  -21.9964   -9.0348   20.4684 C   0  0  0  0  0  0
  -22.7317  -10.2215   20.3101 C   0  0  0  0  0  0
  -21.6849   -6.0822   22.5311 C   0  0  0  0  0  0
  -21.4002   -6.5692   23.8258 C   0  0  0  0  0  0
  -21.3647   -5.6829   24.9209 C   0  0  0  0  0  0
  -21.6042   -4.3098   24.7232 C   0  0  0  0  0  0
  -21.8802   -3.8216   23.4336 C   0  0  0  0  0  0
  -21.9194   -4.7053   22.3411 C   0  0  0  0  0  0
  -22.7891  -13.5291   21.1861 C   0  0  0  0  0  0
  -22.1665   -4.2232   21.0992 F   0  0  0  0  0  0
  -21.5615   -3.4573   25.7733 F   0  0  0  0  0  0
  -29.9917  -13.5710   20.3753 N   0  0  0  0  0  0
  -26.3005  -12.9412   20.3305 N   0  0  0  0  0  0
  -25.9401  -11.6549   20.5797 N   0  0  0  0  0  0
  -22.0488  -12.8281   22.0391 N   0  0  0  0  0  0
  -25.4231  -15.1954   20.4171 N   0  0  0  0  0  0
  -31.8292  -14.8854   20.2594 O   0  0  0  0  0  0
  -21.6653   -6.8983   21.4292 O   0  0  0  0  0  0
  -22.3595  -14.5608   20.6744 O   0  0  0  0  0  0
  -24.6208  -31.8544   23.1998 C   0  0  0  0  0  0
  -25.9021  -32.4768   23.8311 C   0  0  1  0  0  0
  -27.2566  -27.3022   20.0966 C   0  0  0  0  0  0
  -25.5836  -33.8570   24.2257 N   0  0  0  0  0  0
  -23.4194  -30.4723   21.5410 C   0  0  2  0  0  0
  -24.8822  -28.9359   20.0988 C   0  0  0  0  0  0
  -22.7478  -29.4533   22.4946 C   0  0  0  0  0  0
  -18.0334  -28.1285   22.8481 C   0  0  0  0  0  0
  -24.1508  -36.7269   23.2648 C   0  0  0  0  0  0
  -25.9589  -30.7826   21.3801 C   0  0  0  0  0  0
  -26.0435  -29.4065   20.7190 C   0  0  0  0  0  0
  -27.2210  -28.5956   20.7223 C   0  0  0  0  0  0
  -26.0683  -26.8973   19.4444 C   0  0  0  0  0  0
  -24.8999  -27.6881   19.4547 C   0  0  0  0  0  0
  -23.6424  -29.8118   20.1532 C   0  0  0  0  0  0
  -25.4122  -36.3054   24.0349 C   0  0  1  0  0  0
  -20.5949  -28.3497   23.1447 C   0  0  2  0  0  0
  -20.6771  -26.9287   22.5401 C   0  0  0  0  0  0
  -19.5722  -26.6455   21.5128 C   0  0  0  0  0  0
  -18.1934  -26.7817   22.1596 C   0  0  0  0  0  0
  -19.1600  -28.8701   23.2968 C   0  0  0  0  0  0
  -18.9513  -30.1330   23.8943 C   0  0  0  0  0  0
  -17.6525  -30.6501   24.0564 C   0  0  0  0  0  0
  -25.9037  -34.9435   23.5097 C   0  0  0  0  0  0
  -16.5405  -29.8982   23.6374 C   0  0  0  0  0  0
  -16.7335  -28.6393   23.0389 C   0  0  0  0  0  0
  -26.4484  -31.6547   25.0641 C   0  0  0  0  0  0
  -25.3758  -31.3612   26.1386 C   0  0  0  0  0  0
  -27.0355  -30.2974   24.6077 C   0  0  0  0  0  0
  -27.6062  -32.4274   25.7389 C   0  0  0  0  0  0
  -27.5603  -37.1794   24.8480 C   0  0  0  0  0  0
  -21.4164  -29.2983   22.3888 N   0  0  0  0  0  0
  -26.4312  -37.3752   23.9435 N   0  0  0  0  0  0
  -24.6852  -31.0489   22.1001 N   0  0  0  0  0  0
  -23.4240  -28.8028   23.2956 O   0  0  0  0  0  0
  -28.4160  -26.4881   20.1373 O   0  0  0  0  0  0
  -26.5608  -34.8918   22.4672 O   0  0  0  0  0  0
  -23.5368  -32.1427   23.7258 O   0  0  0  0  0  0
  -29.7569  -19.8902   22.2324 C   0  0  0  0  0  0
  -30.1202  -17.4493   22.3159 C   0  0  0  0  0  0
  -29.7069  -18.5673   20.1956 C   0  0  0  0  0  0
  -29.9874  -18.6966   22.9727 C   0  0  0  0  0  0
  -29.6264  -19.8845   20.8221 C   0  0  0  0  0  0
  -29.9411  -17.3183   20.9247 C   0  0  0  0  0  0
  -27.2067  -22.0896   20.5353 C   0  0  0  0  0  0
  -30.1191  -18.7334   24.4704 C   0  0  0  0  0  0
  -26.4601  -23.2235   21.2087 C   0  0  0  0  0  0
  -27.6045  -24.0744   21.7571 C   0  0  0  0  0  0
  -28.7135  -23.8758   20.7110 C   0  0  2  0  0  0
  -29.5278  -21.2967   20.0431 C   0  0  0  0  0  0
  -28.5137  -25.0749   19.6319 C   0  0  0  0  0  0
  -28.4993  -22.3956   20.3511 N   0  0  0  0  0  0
  -29.2590  -19.5028   25.1235 N   0  0  0  0  0  0
  -29.8092  -15.9300   20.3986 N   0  0  0  0  0  0
  -26.6621  -21.0159   20.2645 O   0  0  0  0  0  0
  -30.9207  -18.0119   25.0617 O   0  0  0  0  0  0
  -31.4888  -12.6506   19.1466 H   0  0  0  0  0  0
  -30.4315  -11.5322   19.9653 H   0  0  0  0  0  0
  -29.8073  -11.7400   17.5234 H   0  0  0  0  0  0
  -29.6336  -13.4733   17.7079 H   0  0  0  0  0  0
  -27.9278  -11.2773   18.9275 H   0  0  0  0  0  0
  -27.3881  -12.5080   17.8092 H   0  0  0  0  0  0
  -27.6222  -14.2491   19.4466 H   0  0  0  0  0  0
  -28.7469  -12.2443   21.4662 H   0  0  0  0  0  0
  -28.4277  -13.9461   21.7471 H   0  0  0  0  0  0
  -25.2837   -9.5703   22.4813 H   0  0  0  0  0  0
  -24.0071   -7.4649   22.7491 H   0  0  0  0  0  0
  -21.0908   -8.8911   19.8951 H   0  0  0  0  0  0
  -22.3861  -10.9788   19.6203 H   0  0  0  0  0  0
  -21.1983   -7.6198   23.9780 H   0  0  0  0  0  0
  -21.1459   -6.0558   25.9105 H   0  0  0  0  0  0
  -22.0571   -2.7680   23.2814 H   0  0  0  0  0  0
  -22.4059  -11.9913   22.4731 H   0  0  0  0  0  0
  -21.1125  -13.1379   22.2584 H   0  0  0  0  0  0
  -24.6471  -15.8417   20.5173 H   0  0  0  0  0  0
  -26.2680  -15.6507   20.0950 H   0  0  0  0  0  0
  -26.7057  -32.5559   23.1050 H   0  0  0  0  0  0
  -24.9967  -33.9724   25.0376 H   0  0  0  0  0  0
  -22.7166  -31.2934   21.3887 H   0  0  0  0  0  0
  -23.3771  -35.9598   23.3287 H   0  0  0  0  0  0
  -24.3611  -36.8922   22.2069 H   0  0  0  0  0  0
  -23.7260  -37.6474   23.6680 H   0  0  0  0  0  0
  -26.0797  -31.5657   20.6293 H   0  0  0  0  0  0
  -26.8330  -30.8304   22.0156 H   0  0  0  0  0  0
  -28.0994  -28.9536   21.2426 H   0  0  0  0  0  0
  -26.0023  -25.9626   18.9083 H   0  0  0  0  0  0
  -24.0102  -27.3398   18.9493 H   0  0  0  0  0  0
  -23.7621  -30.5962   19.4023 H   0  0  0  0  0  0
  -22.7727  -29.2325   19.8367 H   0  0  0  0  0  0
  -25.1317  -36.1910   25.0851 H   0  0  0  0  0  0
  -21.0153  -28.2813   24.1542 H   0  0  0  0  0  0
  -20.5705  -26.2013   23.3460 H   0  0  0  0  0  0
  -21.6628  -26.7332   22.1175 H   0  0  0  0  0  0
  -19.6571  -27.3522   20.6861 H   0  0  0  0  0  0
  -19.6781  -25.6454   21.0910 H   0  0  0  0  0  0
  -17.4209  -26.6475   21.3996 H   0  0  0  0  0  0
  -18.0403  -25.9949   22.8974 H   0  0  0  0  0  0
  -19.7979  -30.7107   24.2370 H   0  0  0  0  0  0
  -17.5146  -31.6198   24.5108 H   0  0  0  0  0  0
  -15.5403  -30.2803   23.7810 H   0  0  0  0  0  0
  -15.8771  -28.0679   22.7090 H   0  0  0  0  0  0
  -24.5939  -30.6954   25.7695 H   0  0  0  0  0  0
  -24.8925  -32.2742   26.4881 H   0  0  0  0  0  0
  -25.8142  -30.8751   27.0106 H   0  0  0  0  0  0
  -26.2902  -29.6649   24.1232 H   0  0  0  0  0  0
  -27.4204  -29.7309   25.4570 H   0  0  0  0  0  0
  -27.8727  -30.4256   23.9200 H   0  0  0  0  0  0
  -27.2670  -33.3578   26.1949 H   0  0  0  0  0  0
  -28.3861  -32.6808   25.0179 H   0  0  0  0  0  0
  -28.0716  -31.8388   26.5318 H   0  0  0  0  0  0
  -28.2611  -38.0101   24.7525 H   0  0  0  0  0  0
  -28.1117  -36.2629   24.6298 H   0  0  0  0  0  0
  -27.2339  -37.1456   25.8893 H   0  0  0  0  0  0
  -20.9100  -29.8931   21.7492 H   0  0  0  0  0  0
  -26.0190  -38.2855   24.1379 H   0  0  0  0  0  0
  -29.7113  -20.8340   22.7596 H   0  0  0  0  0  0
  -30.2985  -16.5589   22.9049 H   0  0  0  0  0  0
  -29.5957  -18.5248   19.1179 H   0  0  0  0  0  0
  -25.7693  -22.8702   21.9742 H   0  0  0  0  0  0
  -25.9037  -23.7567   20.4380 H   0  0  0  0  0  0
  -27.9388  -23.6829   22.7217 H   0  0  0  0  0  0
  -27.3126  -25.1163   21.9162 H   0  0  0  0  0  0
  -29.6937  -23.9807   21.1712 H   0  0  0  0  0  0
  -29.4137  -21.0760   18.9843 H   0  0  0  0  0  0
  -30.5049  -21.7707   20.1337 H   0  0  0  0  0  0
  -27.7225  -24.8526   18.9249 H   0  0  0  0  0  0
  -29.3916  -25.0735   18.9794 H   0  0  0  0  0  0
  -28.5768  -20.0360   24.6090 H   0  0  0  0  0  0
  -29.2332  -19.4925   26.1327 H   0  0  0  0  0  0
  -28.8594  -15.6834   20.1736 H   0  0  0  0  0  0
  1 25  1  0  0  0
  1 30  2  0  0  0
  1 86  1  0  0  0
  2  3  1  0  0  0
  2 25  1  0  0  0
  2 89  1  0  0  0
  2 90  1  0  0  0
  3  4  1  0  0  0
  3 91  1  0  0  0
  3 92  1  0  0  0
  4  5  1  0  0  0
  4 93  1  0  0  0
  4 94  1  0  0  0
  5  6  1  0  0  0
  5 26  1  0  0  0
  5 95  1  0  0  0
  6 25  1  0  0  0
  6 96  1  0  0  0
  6 97  1  0  0  0
  7  8  2  0  0  0
  7 26  1  0  0  0
  7 29  1  0  0  0
  8  9  1  0  0  0
  8 22  1  0  0  0
  9 10  1  0  0  0
  9 27  2  0  0  0
 10 11  2  0  0  0
 10 15  1  0  0  0
 11 12  1  0  0  0
 11 98  1  0  0  0
 12 13  2  0  0  0
 12 99  1  0  0  0
 13 14  1  0  0  0
 13 31  1  0  0  0
 14 15  2  0  0  0
 14100  1  0  0  0
 15101  1  0  0  0
 16 17  2  0  0  0
 16 21  1  0  0  0
 16 31  1  0  0  0
 17 18  1  0  0  0
 17102  1  0  0  0
 18 19  2  0  0  0
 18103  1  0  0  0
 19 20  1  0  0  0
 19 24  1  0  0  0
 20 21  2  0  0  0
 20104  1  0  0  0
 21 23  1  0  0  0
 22 28  1  0  0  0
 22 32  2  0  0  0
 26 27  1  0  0  0
 28105  1  0  0  0
 28106  1  0  0  0
 29107  1  0  0  0
 29108  1  0  0  0
 33 34  1  0  0  0
 33 66  1  0  0  0
 33 70  2  0  0  0
 34 36  1  0  0  0
 34 59  1  0  0  0
 34109  1  0  0  0
 35 44  2  0  0  0
 35 45  1  0  0  0
 35 68  1  0  0  0
 36 56  1  0  0  0
 36110  1  0  0  0
 37 39  1  0  0  0
 37 47  1  0  0  0
 37 66  1  0  0  0
 37111  1  0  0  0
 38 43  2  0  0  0
 38 46  1  0  0  0
 38 47  1  0  0  0
 39 64  1  0  0  0
 39 67  2  0  0  0
 40 52  1  0  0  0
 40 53  2  0  0  0
 40 58  1  0  0  0
 41112  1  0  0  0
 41113  1  0  0  0
 41114  1  0  0  0
 41 48  1  0  0  0
 42 43  1  0  0  0
 42 66  1  0  0  0
 42115  1  0  0  0
 42116  1  0  0  0
 43 44  1  0  0  0
 44117  1  0  0  0
 45 46  2  0  0  0
 45118  1  0  0  0
 46119  1  0  0  0
 47120  1  0  0  0
 47121  1  0  0  0
 48 56  1  0  0  0
 48 65  1  0  0  0
 48122  1  0  0  0
 49 50  1  0  0  0
 49 53  1  0  0  0
 49 64  1  0  0  0
 49123  1  0  0  0
 50 51  1  0  0  0
 50124  1  0  0  0
 50125  1  0  0  0
 51 52  1  0  0  0
 51126  1  0  0  0
 51127  1  0  0  0
 52128  1  0  0  0
 52129  1  0  0  0
 53 54  1  0  0  0
 54 55  2  0  0  0
 54130  1  0  0  0
 55 57  1  0  0  0
 55131  1  0  0  0
 56 69  2  0  0  0
 57 58  2  0  0  0
 57132  1  0  0  0
 58133  1  0  0  0
 59 60  1  0  0  0
 59 61  1  0  0  0
 59 62  1  0  0  0
 60134  1  0  0  0
 60135  1  0  0  0
 60136  1  0  0  0
 61137  1  0  0  0
 61138  1  0  0  0
 61139  1  0  0  0
 62140  1  0  0  0
 62141  1  0  0  0
 62142  1  0  0  0
 63 65  1  0  0  0
 63143  1  0  0  0
 63144  1  0  0  0
 63145  1  0  0  0
 64146  1  0  0  0
 65147  1  0  0  0
 68 83  1  0  0  0
 71 74  2  0  0  0
 71 75  1  0  0  0
 71148  1  0  0  0
 72 74  1  0  0  0
 72 76  2  0  0  0
 72149  1  0  0  0
 73 75  2  0  0  0
 73 76  1  0  0  0
 73150  1  0  0  0
 74 78  1  0  0  0
 75 82  1  0  0  0
 76 86  1  0  0  0
 77 79  1  0  0  0
 77 84  1  0  0  0
 77 87  2  0  0  0
 78 85  1  0  0  0
 78 88  2  0  0  0
 79 80  1  0  0  0
 79151  1  0  0  0
 79152  1  0  0  0
 80 81  1  0  0  0
 80153  1  0  0  0
 80154  1  0  0  0
 81 83  1  0  0  0
 81 84  1  0  0  0
 81155  1  0  0  0
 82 84  1  0  0  0
 82156  1  0  0  0
 82157  1  0  0  0
 83158  1  0  0  0
 83159  1  0  0  0
 85160  1  0  0  0
 85161  1  0  0  0
 86162  1  0  0  0
M  ISO  4   1 100  68 101  83 101  86 100
M  END
> <chiral flag>
0

> <version>
0

> <s_m_source_file>
/data/baiqing/PycharmProjects/Reinvent-master-3.2/result/LINK_invent/BTK/process_docking_weight1_custom_product_contain_oxygen_bond_distance_aromatic_linkinvent_7_9_3/rearranged_h_0103.sdf

> <i_m_source_file_index>
19

> <r_mmod_Potential_Energy-OPLS-2005>
92.3486328125

> <r_mmod_Stretch_Energy-OPLS-2005>
139.512786865234

> <r_mmod_Bend_Energy-OPLS-2005>
231.885787963867

> <r_mmod_Torsional_Energy-OPLS-2005>
294.875366210938

> <r_mmod_Improper_Torsional_Energy-OPLS-2005>
13.4844417572021

> <r_mmod_Van_der_Waal_Energy-OPLS-2005>
124.274078369141

> <r_mmod_Electrostatic_Energy-OPLS-2005>
-531.297729492188

> <r_mmod_Solvation_Energy-OPLS-2005>
-270.095153808594

> <b_mmod_Minimization_Converged-OPLS-2005>
0

> <r_mmod_RMS_Derivative-OPLS-2005>
8.52943134307861

$$$$
19
                    3D
 Structure written by MMmdl.
157165  0  0  1  0            999 V2000
  -30.7125  -14.4618   20.5950 C   0  0  0  0  0  0
  -30.4268  -12.2885   19.4189 C   0  0  0  0  0  0
  -29.4957  -12.5139   18.2089 C   0  0  0  0  0  0
  -28.0155  -12.3717   18.6176 C   0  0  0  0  0  0
  -27.6620  -13.2047   19.8799 C   0  0  2  0  0  0
  -28.6953  -12.9706   21.0048 C   0  0  0  0  0  0
  -25.2582  -13.8156   20.5675 C   0  0  0  0  0  0
  -24.1826  -13.0439   20.9161 C   0  0  0  0  0  0
  -24.6374  -11.6903   20.8710 C   0  0  0  0  0  0
  -23.9050  -10.4286   21.0378 C   0  0  0  0  0  0
  -24.3606   -9.4208   21.9165 C   0  0  0  0  0  0
  -23.6290   -8.2246   22.0747 C   0  0  0  0  0  0
  -22.4274   -8.0274   21.3549 C   0  0  0  0  0  0
  -21.9895   -9.0234   20.4645 C   0  0  0  0  0  0
  -22.7213  -10.2120   20.3043 C   0  0  0  0  0  0
  -21.6858   -6.0735   22.5285 C   0  0  0  0  0  0
  -21.4012   -6.5642   23.8214 C   0  0  0  0  0  0
  -21.3658   -5.6800   24.9176 C   0  0  0  0  0  0
  -21.6043   -4.3062   24.7232 C   0  0  0  0  0  0
  -21.8819   -3.8151   23.4353 C   0  0  0  0  0  0
  -21.9189   -4.6964   22.3407 C   0  0  0  0  0  0
  -22.7853  -13.5245   21.1841 C   0  0  0  0  0  0
  -22.1654   -4.2152   21.0987 F   0  0  0  0  0  0
  -21.5634   -3.4539   25.7740 F   0  0  0  0  0  0
  -30.0347  -13.2406   20.4623 N   0  0  0  0  0  0
  -26.3015  -12.9325   20.3376 N   0  0  0  0  0  0
  -25.9301  -11.6485   20.5759 N   0  0  0  0  0  0
  -22.0506  -12.8221   22.0399 N   0  0  0  0  0  0
  -25.4328  -15.1871   20.4090 N   0  0  0  0  0  0
  -31.8007  -14.7287   20.0763 O   0  0  0  0  0  0
  -21.6647   -6.8869   21.4246 O   0  0  0  0  0  0
  -22.3534  -14.5544   20.6674 O   0  0  0  0  0  0
  -24.6167  -31.8684   23.2111 C   0  0  0  0  0  0
  -25.9056  -32.4825   23.8413 C   0  0  1  0  0  0
  -27.2384  -27.4380   20.0839 C   0  0  0  0  0  0
  -25.5919  -33.8623   24.2362 N   0  0  0  0  0  0
  -23.4040  -30.4938   21.5503 C   0  0  2  0  0  0
  -24.8478  -28.9557   20.1171 C   0  0  0  0  0  0
  -22.7416  -29.4669   22.4975 C   0  0  0  0  0  0
  -18.0282  -28.1385   22.8469 C   0  0  0  0  0  0
  -24.1492  -36.7305   23.2633 C   0  0  0  0  0  0
  -25.9329  -30.8340   21.3635 C   0  0  0  0  0  0
  -26.0068  -29.4683   20.7099 C   0  0  0  0  0  0
  -27.2018  -28.7158   20.6890 C   0  0  0  0  0  0
  -26.0494  -26.9252   19.5142 C   0  0  0  0  0  0
  -24.8609  -27.6822   19.5228 C   0  0  0  0  0  0
  -23.6135  -29.8277   20.1645 C   0  0  0  0  0  0
  -25.4111  -36.3113   24.0347 C   0  0  1  0  0  0
  -20.5868  -28.3680   23.1289 C   0  0  2  0  0  0
  -20.6781  -26.9417   22.5400 C   0  0  0  0  0  0
  -19.5760  -26.6381   21.5197 C   0  0  0  0  0  0
  -18.1933  -26.7929   22.1603 C   0  0  0  0  0  0
  -19.1530  -28.8844   23.2882 C   0  0  0  0  0  0
  -18.9454  -30.1445   23.8905 C   0  0  0  0  0  0
  -17.6456  -30.6579   24.0565 C   0  0  0  0  0  0
  -25.9032  -34.9473   23.5146 C   0  0  0  0  0  0
  -16.5347  -29.9080   23.6324 C   0  0  0  0  0  0
  -16.7272  -28.6501   23.0334 C   0  0  0  0  0  0
  -26.4485  -31.6595   25.0735 C   0  0  0  0  0  0
  -25.3756  -31.3692   26.1485 C   0  0  0  0  0  0
  -27.0319  -30.3047   24.6095 C   0  0  0  0  0  0
  -27.6087  -32.4293   25.7483 C   0  0  0  0  0  0
  -27.5593  -37.1809   24.8466 C   0  0  0  0  0  0
  -21.4144  -29.3045   22.3693 N   0  0  0  0  0  0
  -26.4307  -37.3789   23.9406 N   0  0  0  0  0  0
  -24.6693  -31.0797   22.1002 N   0  0  0  0  0  0
  -23.4184  -28.8205   23.3014 O   0  0  0  0  0  0
  -28.4424  -26.7597   20.0822 O   0  0  0  0  0  0
  -26.5570  -34.8911   22.4692 O   0  0  0  0  0  0
  -23.5351  -32.1431   23.7506 O   0  0  0  0  0  0
  -30.5507  -19.0799   21.3974 C   0  0  0  0  0  0
  -29.4667  -17.1409   19.6855 C   0  0  0  0  0  0
  -30.5519  -17.7186   21.7992 C   0  0  0  0  0  0
  -30.0170  -19.4746   20.1524 C   0  0  0  0  0  0
  -30.0189  -16.7271   20.9211 C   0  0  0  0  0  0
  -29.4744  -18.4936   19.3003 C   0  0  0  0  0  0
  -31.1761  -17.3795   23.1248 C   0  0  0  0  0  0
  -28.8426  -22.9751   19.5761 C   0  0  0  0  0  0
  -28.3711  -24.2809   20.2411 C   0  0  0  0  0  0
  -29.2628  -21.7894   20.4704 C   0  0  0  0  0  0
  -28.6005  -25.5315   19.3576 C   0  0  0  0  0  0
  -30.5301  -16.5161   23.8977 N   0  0  0  0  0  0
  -30.0474  -20.8073   19.7154 N   0  0  0  0  0  0
  -32.2066  -17.9337   23.5032 O   0  0  0  0  0  0
  -28.8832  -22.8607   18.3450 O   0  0  0  0  0  0
  -29.9457  -15.3841   21.2507 O   0  0  0  0  0  0
  -28.9562  -18.8585   18.1017 F   0  0  0  0  0  0
  -31.4716  -12.4065   19.1246 H   0  0  0  0  0  0
  -30.3311  -11.2689   19.7956 H   0  0  0  0  0  0
  -29.7354  -11.8063   17.4142 H   0  0  0  0  0  0
  -29.6648  -13.5090   17.7941 H   0  0  0  0  0  0
  -27.8227  -11.3137   18.8044 H   0  0  0  0  0  0
  -27.3653  -12.6539   17.7881 H   0  0  0  0  0  0
  -27.7103  -14.2557   19.5920 H   0  0  0  0  0  0
  -28.6526  -11.9370   21.3494 H   0  0  0  0  0  0
  -28.4607  -13.5780   21.8805 H   0  0  0  0  0  0
  -25.2742   -9.5696   22.4745 H   0  0  0  0  0  0
  -24.0005   -7.4639   22.7458 H   0  0  0  0  0  0
  -21.0831   -8.8728   19.8951 H   0  0  0  0  0  0
  -22.3648  -10.9650   19.6154 H   0  0  0  0  0  0
  -21.2009   -7.6149   23.9717 H   0  0  0  0  0  0
  -21.1483   -6.0533   25.9080 H   0  0  0  0  0  0
  -22.0602   -2.7618   23.2853 H   0  0  0  0  0  0
  -22.4119  -11.9873   22.4768 H   0  0  0  0  0  0
  -21.1127  -13.1230   22.2632 H   0  0  0  0  0  0
  -24.6704  -15.8465   20.5201 H   0  0  0  0  0  0
  -26.2999  -15.6244   20.1246 H   0  0  0  0  0  0
  -26.7131  -32.5537   23.1181 H   0  0  0  0  0  0
  -25.0173  -33.9797   25.0577 H   0  0  0  0  0  0
  -22.6936  -31.3110   21.4113 H   0  0  0  0  0  0
  -23.3763  -35.9631   23.3298 H   0  0  0  0  0  0
  -24.3610  -36.8903   22.2051 H   0  0  0  0  0  0
  -23.7224  -37.6503   23.6636 H   0  0  0  0  0  0
  -26.0489  -31.6024   20.5982 H   0  0  0  0  0  0
  -26.8197  -30.8850   21.9835 H   0  0  0  0  0  0
  -28.1025  -29.1159   21.1327 H   0  0  0  0  0  0
  -26.0095  -25.9428   19.0685 H   0  0  0  0  0  0
  -23.9630  -27.2772   19.0776 H   0  0  0  0  0  0
  -23.7317  -30.6055   19.4081 H   0  0  0  0  0  0
  -22.7366  -29.2541   19.8615 H   0  0  0  0  0  0
  -25.1291  -36.1995   25.0835 H   0  0  0  0  0  0
  -20.9969  -28.3248   24.1403 H   0  0  0  0  0  0
  -20.5682  -26.2290   23.3588 H   0  0  0  0  0  0
  -21.6653  -26.7454   22.1189 H   0  0  0  0  0  0
  -19.6930  -25.6284   21.1233 H   0  0  0  0  0  0
  -19.6715  -27.3182   20.6718 H   0  0  0  0  0  0
  -17.4213  -26.6671   21.3999 H   0  0  0  0  0  0
  -18.0345  -26.0075   22.9002 H   0  0  0  0  0  0
  -19.7929  -30.7263   24.2279 H   0  0  0  0  0  0
  -17.5008  -31.6265   24.5165 H   0  0  0  0  0  0
  -15.5352  -30.2993   23.7632 H   0  0  0  0  0  0
  -15.8672  -28.0831   22.7032 H   0  0  0  0  0  0
  -24.5918  -30.7061   25.7802 H   0  0  0  0  0  0
  -24.8968  -32.2847   26.4969 H   0  0  0  0  0  0
  -25.8100  -30.8816   27.0222 H   0  0  0  0  0  0
  -26.2858  -29.6795   24.1173 H   0  0  0  0  0  0
  -27.4138  -29.7288   25.4534 H   0  0  0  0  0  0
  -27.8671  -30.4389   23.9218 H   0  0  0  0  0  0
  -27.2749  -33.3586   26.2107 H   0  0  0  0  0  0
  -28.3871  -32.6848   25.0283 H   0  0  0  0  0  0
  -28.0789  -31.8383   26.5354 H   0  0  0  0  0  0
  -28.2600  -38.0114   24.7528 H   0  0  0  0  0  0
  -28.1098  -36.2649   24.6279 H   0  0  0  0  0  0
  -27.2320  -37.1436   25.8870 H   0  0  0  0  0  0
  -20.9309  -29.8776   21.6921 H   0  0  0  0  0  0
  -26.0202  -38.2869   24.1412 H   0  0  0  0  0  0
  -30.9844  -19.8261   22.0486 H   0  0  0  0  0  0
  -29.0352  -16.4141   19.0140 H   0  0  0  0  0  0
  -28.9123  -24.3968   21.1787 H   0  0  0  0  0  0
  -27.3163  -24.1881   20.4978 H   0  0  0  0  0  0
  -28.3612  -21.3182   20.8638 H   0  0  0  0  0  0
  -29.8376  -22.1635   21.3179 H   0  0  0  0  0  0
  -28.0076  -25.5011   18.4428 H   0  0  0  0  0  0
  -29.6346  -25.5234   19.0108 H   0  0  0  0  0  0
  -29.6628  -16.1020   23.5882 H   0  0  0  0  0  0
  -30.8932  -16.2892   24.8115 H   0  0  0  0  0  0
  -29.7988  -20.8876   18.7297 H   0  0  0  0  0  0
  1 25  1  0  0  0
  1 30  2  0  0  0
  1 86  1  0  0  0
  2  3  1  0  0  0
  2 25  1  0  0  0
  2 88  1  0  0  0
  2 89  1  0  0  0
  3  4  1  0  0  0
  3 90  1  0  0  0
  3 91  1  0  0  0
  4  5  1  0  0  0
  4 92  1  0  0  0
  4 93  1  0  0  0
  5  6  1  0  0  0
  5 26  1  0  0  0
  5 94  1  0  0  0
  6 25  1  0  0  0
  6 95  1  0  0  0
  6 96  1  0  0  0
  7  8  2  0  0  0
  7 26  1  0  0  0
  7 29  1  0  0  0
  8  9  1  0  0  0
  8 22  1  0  0  0
  9 10  1  0  0  0
  9 27  2  0  0  0
 10 11  2  0  0  0
 10 15  1  0  0  0
 11 12  1  0  0  0
 11 97  1  0  0  0
 12 13  2  0  0  0
 12 98  1  0  0  0
 13 14  1  0  0  0
 13 31  1  0  0  0
 14 15  2  0  0  0
 14 99  1  0  0  0
 15100  1  0  0  0
 16 17  2  0  0  0
 16 21  1  0  0  0
 16 31  1  0  0  0
 17 18  1  0  0  0
 17101  1  0  0  0
 18 19  2  0  0  0
 18102  1  0  0  0
 19 20  1  0  0  0
 19 24  1  0  0  0
 20 21  2  0  0  0
 20103  1  0  0  0
 21 23  1  0  0  0
 22 28  1  0  0  0
 22 32  2  0  0  0
 26 27  1  0  0  0
 28104  1  0  0  0
 28105  1  0  0  0
 29106  1  0  0  0
 29107  1  0  0  0
 33 34  1  0  0  0
 33 66  1  0  0  0
 33 70  2  0  0  0
 34 36  1  0  0  0
 34 59  1  0  0  0
 34108  1  0  0  0
 35 44  2  0  0  0
 35 45  1  0  0  0
 35 68  1  0  0  0
 36 56  1  0  0  0
 36109  1  0  0  0
 37 39  1  0  0  0
 37 47  1  0  0  0
 37 66  1  0  0  0
 37110  1  0  0  0
 38 43  2  0  0  0
 38 46  1  0  0  0
 38 47  1  0  0  0
 39 64  1  0  0  0
 39 67  2  0  0  0
 40 52  1  0  0  0
 40 53  2  0  0  0
 40 58  1  0  0  0
 41111  1  0  0  0
 41112  1  0  0  0
 41113  1  0  0  0
 41 48  1  0  0  0
 42 43  1  0  0  0
 42 66  1  0  0  0
 42114  1  0  0  0
 42115  1  0  0  0
 43 44  1  0  0  0
 44116  1  0  0  0
 45 46  2  0  0  0
 45117  1  0  0  0
 46118  1  0  0  0
 47119  1  0  0  0
 47120  1  0  0  0
 48 56  1  0  0  0
 48 65  1  0  0  0
 48121  1  0  0  0
 49 50  1  0  0  0
 49 53  1  0  0  0
 49 64  1  0  0  0
 49122  1  0  0  0
 50 51  1  0  0  0
 50123  1  0  0  0
 50124  1  0  0  0
 51 52  1  0  0  0
 51125  1  0  0  0
 51126  1  0  0  0
 52127  1  0  0  0
 52128  1  0  0  0
 53 54  1  0  0  0
 54 55  2  0  0  0
 54129  1  0  0  0
 55 57  1  0  0  0
 55130  1  0  0  0
 56 69  2  0  0  0
 57 58  2  0  0  0
 57131  1  0  0  0
 58132  1  0  0  0
 59 60  1  0  0  0
 59 61  1  0  0  0
 59 62  1  0  0  0
 60133  1  0  0  0
 60134  1  0  0  0
 60135  1  0  0  0
 61136  1  0  0  0
 61137  1  0  0  0
 61138  1  0  0  0
 62139  1  0  0  0
 62140  1  0  0  0
 62141  1  0  0  0
 63 65  1  0  0  0
 63142  1  0  0  0
 63143  1  0  0  0
 63144  1  0  0  0
 64145  1  0  0  0
 65146  1  0  0  0
 68 81  1  0  0  0
 71 73  2  0  0  0
 71 74  1  0  0  0
 71147  1  0  0  0
 72 75  2  0  0  0
 72 76  1  0  0  0
 72148  1  0  0  0
 73 75  1  0  0  0
 73 77  1  0  0  0
 74 76  2  0  0  0
 74 83  1  0  0  0
 75 86  1  0  0  0
 76 87  1  0  0  0
 77 82  1  0  0  0
 77 84  2  0  0  0
 78 79  1  0  0  0
 78 80  1  0  0  0
 78 85  2  0  0  0
 79 81  1  0  0  0
 79149  1  0  0  0
 79150  1  0  0  0
 80 83  1  0  0  0
 80151  1  0  0  0
 80152  1  0  0  0
 81153  1  0  0  0
 81154  1  0  0  0
 82155  1  0  0  0
 82156  1  0  0  0
 83157  1  0  0  0
M  ISO  4   1 100  68 101  81 101  86 100
M  END
> <chiral flag>
0

> <version>
0

> <s_m_source_file>
/data/baiqing/PycharmProjects/Reinvent-master-3.2/result/LINK_invent/BTK/process_docking_weight1_custom_product_contain_oxygen_bond_distance_aromatic_linkinvent_7_9_3/rearranged_h_0103.sdf

> <i_m_source_file_index>
20

> <r_mmod_Potential_Energy-OPLS-2005>
-176.127258300781

> <r_mmod_Stretch_Energy-OPLS-2005>
38.0896797180176

> <r_mmod_Bend_Energy-OPLS-2005>
102.246757507324

> <r_mmod_Torsional_Energy-OPLS-2005>
193.527481079102

> <r_mmod_Improper_Torsional_Energy-OPLS-2005>
9.28907680511475

> <r_mmod_Van_der_Waal_Energy-OPLS-2005>
150.987518310547

> <r_mmod_Electrostatic_Energy-OPLS-2005>
-428.116760253906

> <r_mmod_Solvation_Energy-OPLS-2005>
-252.66926574707

> <b_mmod_Minimization_Converged-OPLS-2005>
0

> <r_mmod_RMS_Derivative-OPLS-2005>
2.03309869766235

$$$$
20
                    3D
 Structure written by MMmdl.
165174  0  0  1  0            999 V2000
  -30.9220  -12.9785   19.1993 C   0  0  0  0  0  0
  -29.9100  -13.9656   20.5956 C   0  0  0  0  0  0
  -28.8119  -14.3815   19.4947 C   0  0  0  0  0  0
  -27.6560  -13.4530   19.0437 C   0  0  0  0  0  0
  -27.5508  -12.9714   20.3856 C   0  0  2  0  0  0
  -28.7875  -12.0250   20.7221 C   0  0  0  0  0  0
  -25.2054  -13.6675   20.7697 C   0  0  0  0  0  0
  -24.0970  -12.9251   21.0029 C   0  0  0  0  0  0
  -24.5648  -11.5794   20.9851 C   0  0  0  0  0  0
  -23.8520  -10.3391   21.1362 C   0  0  0  0  0  0
  -24.3022   -9.3394   22.0132 C   0  0  0  0  0  0
  -23.5792   -8.1458   22.1298 C   0  0  0  0  0  0
  -22.4228   -7.9385   21.3456 C   0  0  0  0  0  0
  -22.0027   -8.9329   20.4516 C   0  0  0  0  0  0
  -22.7088  -10.1462   20.3598 C   0  0  0  0  0  0
  -21.6629   -6.0130   22.5009 C   0  0  0  0  0  0
  -21.3731   -6.5222   23.7845 C   0  0  0  0  0  0
  -21.3769   -5.6670   24.8991 C   0  0  0  0  0  0
  -21.6115   -4.2906   24.7304 C   0  0  0  0  0  0
  -21.8787   -3.7824   23.4447 C   0  0  0  0  0  0
  -21.9257   -4.6376   22.3409 C   0  0  0  0  0  0
  -22.7539  -13.4723   21.2189 C   0  0  0  0  0  0
  -22.1843   -4.1327   21.1040 F   0  0  0  0  0  0
  -21.6128   -3.4746   25.8084 F   0  0  0  0  0  0
  -30.1428  -12.6608   20.3127 N   0  0  0  0  0  0
  -26.1917  -12.7111   20.6179 N   0  0  0  0  0  0
  -25.8412  -11.4452   20.7370 N   0  0  0  0  0  0
  -21.9942  -12.7818   22.0694 N   0  0  0  0  0  0
  -25.4309  -15.0279   20.7634 N   0  0  0  0  0  0
  -31.9728  -13.6729   19.2998 O   0  0  0  0  0  0
  -21.6319   -6.8144   21.4056 O   0  0  0  0  0  0
  -22.4013  -14.5103   20.6850 O   0  0  0  0  0  0
  -24.6360  -31.8636   23.2017 C   0  0  0  0  0  0
  -25.9225  -32.4761   23.8350 C   0  0  1  0  0  0
  -27.1671  -27.2371   20.0616 C   0  0  0  0  0  0
  -25.6059  -33.8572   24.2236 N   0  0  0  0  0  0
  -23.4253  -30.4903   21.5522 C   0  0  2  0  0  0
  -24.8581  -28.9515   20.1102 C   0  0  0  0  0  0
  -22.7515  -29.4617   22.4943 C   0  0  0  0  0  0
  -18.0302  -28.1458   22.8503 C   0  0  0  0  0  0
  -24.1468  -36.7177   23.2628 C   0  0  0  0  0  0
  -25.9823  -30.7656   21.3890 C   0  0  0  0  0  0
  -26.0474  -29.3923   20.7179 C   0  0  0  0  0  0
  -27.2091  -28.5389   20.6873 C   0  0  0  0  0  0
  -25.9377  -26.8893   19.4807 C   0  0  0  0  0  0
  -24.8075  -27.7042   19.4856 C   0  0  0  0  0  0
  -23.6396  -29.8340   20.1650 C   0  0  0  0  0  0
  -25.4123  -36.3059   24.0308 C   0  0  1  0  0  0
  -20.5888  -28.3701   23.1241 C   0  0  2  0  0  0
  -20.6775  -26.9460   22.5357 C   0  0  0  0  0  0
  -19.5694  -26.6431   21.5206 C   0  0  0  0  0  0
  -18.1891  -26.7956   22.1668 C   0  0  0  0  0  0
  -19.1597  -28.8911   23.2805 C   0  0  0  0  0  0
  -18.9504  -30.1525   23.8835 C   0  0  0  0  0  0
  -17.6514  -30.6634   24.0602 C   0  0  0  0  0  0
  -25.9122  -34.9448   23.5069 C   0  0  0  0  0  0
  -16.5379  -29.9153   23.6362 C   0  0  0  0  0  0
  -16.7291  -28.6581   23.0302 C   0  0  0  0  0  0
  -26.4566  -31.6500   25.0687 C   0  0  0  0  0  0
  -25.3733  -31.3670   26.1307 C   0  0  0  0  0  0
  -27.0327  -30.2887   24.6171 C   0  0  0  0  0  0
  -27.6131  -32.4116   25.7478 C   0  0  0  0  0  0
  -27.5558  -37.1734   24.8512 C   0  0  0  0  0  0
  -21.4221  -29.3076   22.3643 N   0  0  0  0  0  0
  -26.4286  -37.3769   23.9447 N   0  0  0  0  0  0
  -24.7073  -31.0513   22.1036 N   0  0  0  0  0  0
  -23.4182  -28.8173   23.3099 O   0  0  0  0  0  0
  -28.2217  -26.2891   19.9579 O   0  0  0  0  0  0
  -26.5655  -34.8955   22.4602 O   0  0  0  0  0  0
  -23.5473  -32.1559   23.7196 O   0  0  0  0  0  0
  -28.4902  -18.4767   16.2187 C   0  0  0  0  0  0
  -26.7462  -17.9778   17.7541 C   0  0  0  0  0  0
  -27.5141  -19.0147   17.1397 C   0  0  0  0  0  0
  -28.7364  -17.0604   16.0354 C   0  0  0  0  0  0
  -28.1405  -16.0389   16.8262 C   0  0  0  0  0  0
  -27.0172  -16.5951   17.5519 C   0  0  0  0  0  0
  -27.8006  -22.2159   18.5608 C   0  0  0  0  0  0
  -26.9186  -20.4458   16.8887 C   0  0  0  0  0  0
  -26.5603  -24.0623   17.7899 C   0  0  0  0  0  0
  -26.4746  -22.8951   16.7993 C   0  0  0  0  0  0
  -27.8532  -23.8219   18.5712 C   0  0  2  0  0  0
  -29.3099  -16.5754   14.7180 C   0  0  0  0  0  0
  -30.2365  -12.6836   17.7460 C   0  0  0  0  0  0
  -27.9519  -24.7703   19.9102 C   0  0  0  0  0  0
  -29.6436  -13.7512   16.5961 C   0  0  0  0  0  0
  -27.1282  -21.7146   17.4458 N   0  0  0  0  0  0
  -28.2788  -21.5108   19.4484 O   0  0  0  0  0  0
  -26.1180  -20.3761   15.9459 O   0  0  0  0  0  0
  -28.3856  -14.6142   16.6838 O   0  0  0  0  0  0
  -25.9811  -15.8783   18.0152 F   0  0  0  0  0  0
  -29.5161  -14.0890   21.6215 H   0  0  0  0  0  0
  -30.8074  -14.6304   20.7496 H   0  0  0  0  0  0
  -29.2193  -15.0783   18.8230 H   0  0  0  0  0  0
  -28.2834  -15.1208   20.1445 H   0  0  0  0  0  0
  -27.5691  -12.7233   18.2352 H   0  0  0  0  0  0
  -26.8290  -14.1572   18.8507 H   0  0  0  0  0  0
  -27.6143  -13.7441   21.1438 H   0  0  0  0  0  0
  -28.6358  -11.1502   20.0917 H   0  0  0  0  0  0
  -28.7996  -11.5615   21.7572 H   0  0  0  0  0  0
  -25.1575   -9.4620   22.6617 H   0  0  0  0  0  0
  -23.9052   -7.4047   22.8525 H   0  0  0  0  0  0
  -21.1143   -8.7901   19.8577 H   0  0  0  0  0  0
  -22.3907  -10.9469   19.7207 H   0  0  0  0  0  0
  -21.1285   -7.5664   23.8930 H   0  0  0  0  0  0
  -21.2015   -6.0643   25.8791 H   0  0  0  0  0  0
  -22.0696   -2.7206   23.3354 H   0  0  0  0  0  0
  -22.3117  -11.8649   22.3596 H   0  0  0  0  0  0
  -21.0708  -13.1390   22.2456 H   0  0  0  0  0  0
  -24.5926  -15.5992   20.6439 H   0  0  0  0  0  0
  -26.2942  -15.4798   20.5116 H   0  0  0  0  0  0
  -26.7308  -32.5414   23.1066 H   0  0  0  0  0  0
  -25.0299  -33.9725   25.0471 H   0  0  0  0  0  0
  -22.7244  -31.3109   21.4047 H   0  0  0  0  0  0
  -23.3808  -35.9442   23.3351 H   0  0  0  0  0  0
  -24.3520  -36.8744   22.2038 H   0  0  0  0  0  0
  -23.7155  -37.6347   23.6622 H   0  0  0  0  0  0
  -26.1358  -31.5436   20.6367 H   0  0  0  0  0  0
  -26.8494  -30.7929   22.0378 H   0  0  0  0  0  0
  -28.1202  -28.8386   21.1778 H   0  0  0  0  0  0
  -25.8098  -25.9567   18.9975 H   0  0  0  0  0  0
  -23.8871  -27.3627   19.0243 H   0  0  0  0  0  0
  -23.7617  -30.6014   19.3999 H   0  0  0  0  0  0
  -22.7511  -29.2666   19.8690 H   0  0  0  0  0  0
  -25.1300  -36.1898   25.0809 H   0  0  0  0  0  0
  -21.0002  -28.3364   24.1314 H   0  0  0  0  0  0
  -20.5690  -26.2374   23.3578 H   0  0  0  0  0  0
  -21.6609  -26.7484   22.1096 H   0  0  0  0  0  0
  -19.6830  -25.6341   21.1209 H   0  0  0  0  0  0
  -19.6545  -27.3274   20.6747 H   0  0  0  0  0  0
  -17.4106  -26.6658   21.4112 H   0  0  0  0  0  0
  -18.0336  -26.0119   22.9112 H   0  0  0  0  0  0
  -19.7982  -30.7389   24.2074 H   0  0  0  0  0  0
  -17.5058  -31.6273   24.5281 H   0  0  0  0  0  0
  -15.5365  -30.3041   23.7725 H   0  0  0  0  0  0
  -15.8652  -28.0952   22.6919 H   0  0  0  0  0  0
  -24.5915  -30.7058   25.7529 H   0  0  0  0  0  0
  -24.8938  -32.2855   26.4679 H   0  0  0  0  0  0
  -25.7978  -30.8770   27.0076 H   0  0  0  0  0  0
  -26.2895  -29.6546   24.1298 H   0  0  0  0  0  0
  -27.4082  -29.7194   25.4672 H   0  0  0  0  0  0
  -27.8736  -30.3968   23.9324 H   0  0  0  0  0  0
  -27.2751  -33.3284   26.2272 H   0  0  0  0  0  0
  -28.3865  -32.6829   25.0305 H   0  0  0  0  0  0
  -28.0900  -31.8081   26.5197 H   0  0  0  0  0  0
  -28.2648  -37.9974   24.7552 H   0  0  0  0  0  0
  -28.0964  -36.2487   24.6373 H   0  0  0  0  0  0
  -27.2207  -37.1442   25.8903 H   0  0  0  0  0  0
  -20.9539  -29.8759   21.6818 H   0  0  0  0  0  0
  -26.0131  -38.2809   24.1561 H   0  0  0  0  0  0
  -28.9094  -19.1643   15.4818 H   0  0  0  0  0  0
  -25.8450  -18.1387   18.3588 H   0  0  0  0  0  0
  -25.7534  -24.0152   18.5102 H   0  0  0  0  0  0
  -26.5390  -25.0326   17.2885 H   0  0  0  0  0  0
  -26.9312  -23.1533   15.8388 H   0  0  0  0  0  0
  -25.4046  -22.7350   16.5856 H   0  0  0  0  0  0
  -28.7007  -24.0884   17.9295 H   0  0  0  0  0  0
  -28.5271  -16.0850   14.1315 H   0  0  0  0  0  0
  -30.0592  -15.8319   14.9027 H   0  0  0  0  0  0
  -29.7485  -17.3345   14.0916 H   0  0  0  0  0  0
  -30.5755  -11.7098   17.4038 H   0  0  0  0  0  0
  -29.3055  -12.2449   18.0085 H   0  0  0  0  0  0
  -28.7727  -24.3163   20.4740 H   0  0  0  0  0  0
  -27.0600  -24.5644   20.5059 H   0  0  0  0  0  0
  -29.1505  -13.0347   15.9281 H   0  0  0  0  0  0
  -30.3464  -13.9827   15.8108 H   0  0  0  0  0  0
  1 25  1  0  0  0
  1 30  2  0  0  0
  1 83  1  0  0  0
  2  3  1  0  0  0
  2 25  1  0  0  0
  2 91  1  0  0  0
  2 92  1  0  0  0
  3  4  1  0  0  0
  3 93  1  0  0  0
  3 94  1  0  0  0
  4  5  1  0  0  0
  4 95  1  0  0  0
  4 96  1  0  0  0
  5  6  1  0  0  0
  5 26  1  0  0  0
  5 97  1  0  0  0
  6 25  1  0  0  0
  6 98  1  0  0  0
  6 99  1  0  0  0
  7  8  2  0  0  0
  7 26  1  0  0  0
  7 29  1  0  0  0
  8  9  1  0  0  0
  8 22  1  0  0  0
  9 10  1  0  0  0
  9 27  2  0  0  0
 10 11  2  0  0  0
 10 15  1  0  0  0
 11 12  1  0  0  0
 11100  1  0  0  0
 12 13  2  0  0  0
 12101  1  0  0  0
 13 14  1  0  0  0
 13 31  1  0  0  0
 14 15  2  0  0  0
 14102  1  0  0  0
 15103  1  0  0  0
 16 17  2  0  0  0
 16 21  1  0  0  0
 16 31  1  0  0  0
 17 18  1  0  0  0
 17104  1  0  0  0
 18 19  2  0  0  0
 18105  1  0  0  0
 19 20  1  0  0  0
 19 24  1  0  0  0
 20 21  2  0  0  0
 20106  1  0  0  0
 21 23  1  0  0  0
 22 28  1  0  0  0
 22 32  2  0  0  0
 26 27  1  0  0  0
 28107  1  0  0  0
 28108  1  0  0  0
 29109  1  0  0  0
 29110  1  0  0  0
 33 34  1  0  0  0
 33 66  1  0  0  0
 33 70  2  0  0  0
 34 36  1  0  0  0
 34 59  1  0  0  0
 34111  1  0  0  0
 35 44  2  0  0  0
 35 45  1  0  0  0
 35 68  1  0  0  0
 36 56  1  0  0  0
 36112  1  0  0  0
 37 39  1  0  0  0
 37 47  1  0  0  0
 37 66  1  0  0  0
 37113  1  0  0  0
 38 43  2  0  0  0
 38 46  1  0  0  0
 38 47  1  0  0  0
 39 64  1  0  0  0
 39 67  2  0  0  0
 40 52  1  0  0  0
 40 53  2  0  0  0
 40 58  1  0  0  0
 41114  1  0  0  0
 41115  1  0  0  0
 41116  1  0  0  0
 41 48  1  0  0  0
 42 43  1  0  0  0
 42 66  1  0  0  0
 42117  1  0  0  0
 42118  1  0  0  0
 43 44  1  0  0  0
 44119  1  0  0  0
 45 46  2  0  0  0
 45120  1  0  0  0
 46121  1  0  0  0
 47122  1  0  0  0
 47123  1  0  0  0
 48 56  1  0  0  0
 48 65  1  0  0  0
 48124  1  0  0  0
 49 50  1  0  0  0
 49 53  1  0  0  0
 49 64  1  0  0  0
 49125  1  0  0  0
 50 51  1  0  0  0
 50126  1  0  0  0
 50127  1  0  0  0
 51 52  1  0  0  0
 51128  1  0  0  0
 51129  1  0  0  0
 52130  1  0  0  0
 52131  1  0  0  0
 53 54  1  0  0  0
 54 55  2  0  0  0
 54132  1  0  0  0
 55 57  1  0  0  0
 55133  1  0  0  0
 56 69  2  0  0  0
 57 58  2  0  0  0
 57134  1  0  0  0
 58135  1  0  0  0
 59 60  1  0  0  0
 59 61  1  0  0  0
 59 62  1  0  0  0
 60136  1  0  0  0
 60137  1  0  0  0
 60138  1  0  0  0
 61139  1  0  0  0
 61140  1  0  0  0
 61141  1  0  0  0
 62142  1  0  0  0
 62143  1  0  0  0
 62144  1  0  0  0
 63 65  1  0  0  0
 63145  1  0  0  0
 63146  1  0  0  0
 63147  1  0  0  0
 64148  1  0  0  0
 65149  1  0  0  0
 68 84  1  0  0  0
 71 73  2  0  0  0
 71 74  1  0  0  0
 71150  1  0  0  0
 72 73  1  0  0  0
 72 76  2  0  0  0
 72151  1  0  0  0
 73 78  1  0  0  0
 74 75  2  0  0  0
 74 82  1  0  0  0
 75 76  1  0  0  0
 75 89  1  0  0  0
 76 90  1  0  0  0
 77 81  1  0  0  0
 77 86  1  0  0  0
 77 87  2  0  0  0
 78 86  1  0  0  0
 78 88  2  0  0  0
 79 80  1  0  0  0
 79 81  1  0  0  0
 79152  1  0  0  0
 79153  1  0  0  0
 80 86  1  0  0  0
 80154  1  0  0  0
 80155  1  0  0  0
 81 84  1  0  0  0
 81156  1  0  0  0
 82157  1  0  0  0
 82158  1  0  0  0
 82159  1  0  0  0
 83 85  1  0  0  0
 83160  1  0  0  0
 83161  1  0  0  0
 84162  1  0  0  0
 84163  1  0  0  0
 85 89  1  0  0  0
 85164  1  0  0  0
 85165  1  0  0  0
M  ISO  4   1 100  68 101  83 100  84 101
M  END
> <chiral flag>
0

> <version>
0

> <s_m_source_file>
/data/baiqing/PycharmProjects/Reinvent-master-3.2/result/LINK_invent/BTK/process_docking_weight1_custom_product_contain_oxygen_bond_distance_aromatic_linkinvent_7_9_3/rearranged_h_0103.sdf

> <i_m_source_file_index>
21

> <r_mmod_Potential_Energy-OPLS-2005>
3263.3330078125

> <r_mmod_Stretch_Energy-OPLS-2005>
289.124755859375

> <r_mmod_Bend_Energy-OPLS-2005>
758.507202148438

> <r_mmod_Torsional_Energy-OPLS-2005>
333.984588623047

> <r_mmod_Improper_Torsional_Energy-OPLS-2005>
30.6174850463867

> <r_mmod_Van_der_Waal_Energy-OPLS-2005>
429.078338623047

> <r_mmod_Electrostatic_Energy-OPLS-2005>
-361.382934570312

> <r_mmod_Solvation_Energy-OPLS-2005>
-221.174957275391

> <b_mmod_Minimization_Converged-OPLS-2005>
0

> <r_mmod_RMS_Derivative-OPLS-2005>
60.9966850280762

$$$$
21
                    3D
 Structure written by MMmdl.
157165  0  0  1  0            999 V2000
  -30.6289  -14.6546   20.6143 C   0  0  0  0  0  0
  -30.4444  -12.4262   19.4781 C   0  0  0  0  0  0
  -29.5263  -12.5222   18.2402 C   0  0  0  0  0  0
  -28.0448  -12.3570   18.6336 C   0  0  0  0  0  0
  -27.6548  -13.2190   19.8633 C   0  0  2  0  0  0
  -28.6803  -13.0542   20.9988 C   0  0  0  0  0  0
  -25.2563  -13.8177   20.5668 C   0  0  0  0  0  0
  -24.1846  -13.0440   20.9182 C   0  0  0  0  0  0
  -24.6418  -11.6908   20.8711 C   0  0  0  0  0  0
  -23.9069  -10.4297   21.0385 C   0  0  0  0  0  0
  -24.3620   -9.4206   21.9164 C   0  0  0  0  0  0
  -23.6294   -8.2257   22.0739 C   0  0  0  0  0  0
  -22.4276   -8.0282   21.3527 C   0  0  0  0  0  0
  -21.9912   -9.0260   20.4640 C   0  0  0  0  0  0
  -22.7248  -10.2142   20.3039 C   0  0  0  0  0  0
  -21.6858   -6.0728   22.5276 C   0  0  0  0  0  0
  -21.4040   -6.5633   23.8218 C   0  0  0  0  0  0
  -21.3655   -5.6781   24.9168 C   0  0  0  0  0  0
  -21.6050   -4.3045   24.7223 C   0  0  0  0  0  0
  -21.8818   -3.8136   23.4344 C   0  0  0  0  0  0
  -21.9208   -4.6958   22.3396 C   0  0  0  0  0  0
  -22.7862  -13.5242   21.1830 C   0  0  0  0  0  0
  -22.1660   -4.2139   21.0975 F   0  0  0  0  0  0
  -21.5615   -3.4524   25.7734 F   0  0  0  0  0  0
  -30.0012  -13.4358   20.4667 N   0  0  0  0  0  0
  -26.2985  -12.9357   20.3250 N   0  0  0  0  0  0
  -25.9338  -11.6515   20.5696 N   0  0  0  0  0  0
  -22.0493  -12.8261   22.0389 N   0  0  0  0  0  0
  -25.4263  -15.1909   20.4151 N   0  0  0  0  0  0
  -31.7197  -14.8611   20.0653 O   0  0  0  0  0  0
  -21.6647   -6.8872   21.4236 O   0  0  0  0  0  0
  -22.3542  -14.5528   20.6626 O   0  0  0  0  0  0
  -24.6230  -31.8614   23.1998 C   0  0  0  0  0  0
  -25.9096  -32.4787   23.8318 C   0  0  1  0  0  0
  -27.2111  -27.3046   20.1154 C   0  0  0  0  0  0
  -25.5921  -33.8577   24.2256 N   0  0  0  0  0  0
  -23.4167  -30.4864   21.5429 C   0  0  2  0  0  0
  -24.8615  -28.9445   20.1073 C   0  0  0  0  0  0
  -22.7456  -29.4654   22.4918 C   0  0  0  0  0  0
  -18.0299  -28.1385   22.8515 C   0  0  0  0  0  0
  -24.1498  -36.7294   23.2630 C   0  0  0  0  0  0
  -25.9584  -30.7880   21.3726 C   0  0  0  0  0  0
  -26.0288  -29.4123   20.7208 C   0  0  0  0  0  0
  -27.2028  -28.5990   20.7266 C   0  0  0  0  0  0
  -26.0264  -26.9131   19.4467 C   0  0  0  0  0  0
  -24.8625  -27.7021   19.4592 C   0  0  0  0  0  0
  -23.6303  -29.8255   20.1560 C   0  0  0  0  0  0
  -25.4120  -36.3083   24.0325 C   0  0  1  0  0  0
  -20.5900  -28.3696   23.1301 C   0  0  2  0  0  0
  -20.6794  -26.9428   22.5414 C   0  0  0  0  0  0
  -19.5763  -26.6390   21.5221 C   0  0  0  0  0  0
  -18.1940  -26.7940   22.1641 C   0  0  0  0  0  0
  -19.1549  -28.8860   23.2911 C   0  0  0  0  0  0
  -18.9471  -30.1462   23.8913 C   0  0  0  0  0  0
  -17.6462  -30.6590   24.0577 C   0  0  0  0  0  0
  -25.9059  -34.9455   23.5095 C   0  0  0  0  0  0
  -16.5358  -29.9095   23.6327 C   0  0  0  0  0  0
  -16.7280  -28.6511   23.0357 C   0  0  0  0  0  0
  -26.4483  -31.6564   25.0670 C   0  0  0  0  0  0
  -25.3722  -31.3704   26.1397 C   0  0  0  0  0  0
  -27.0291  -30.2980   24.6077 C   0  0  0  0  0  0
  -27.6039  -32.4277   25.7454 C   0  0  0  0  0  0
  -27.5589  -37.1789   24.8463 C   0  0  0  0  0  0
  -21.4175  -29.3054   22.3677 N   0  0  0  0  0  0
  -26.4291  -37.3780   23.9422 N   0  0  0  0  0  0
  -24.6852  -31.0630   22.0948 N   0  0  0  0  0  0
  -23.4188  -28.8190   23.2994 O   0  0  0  0  0  0
  -28.3237  -26.4466   20.2029 O   0  0  0  0  0  0
  -26.5632  -34.8927   22.4664 O   0  0  0  0  0  0
  -23.5401  -32.1425   23.7346 O   0  0  0  0  0  0
  -30.2313  -19.3608   20.3543 C   0  0  0  0  0  0
  -28.2109  -18.9812   21.5905 C   0  0  0  0  0  0
  -30.5072  -17.9500   20.3772 C   0  0  0  0  0  0
  -28.4743  -17.5835   21.5977 C   0  0  0  0  0  0
  -29.0969  -19.9211   21.0104 C   0  0  0  0  0  0
  -29.6590  -17.0200   21.0490 C   0  0  0  0  0  0
  -28.7947  -23.9189   20.7379 C   0  0  0  0  0  0
  -30.9153  -16.2751   23.6500 C   0  0  0  0  0  0
  -28.9847  -22.4286   20.2153 C   0  0  0  0  0  0
  -28.2170  -25.0244   19.7690 C   0  0  0  0  0  0
  -29.9855  -15.3452   22.8481 C   0  0  0  0  0  0
  -28.8455  -21.3205   21.2132 N   0  0  0  0  0  0
  -30.0122  -15.6242   21.3939 N   0  0  0  0  0  0
  -29.0636  -24.1955   21.9126 O   0  0  0  0  0  0
  -31.4873  -12.5669   19.1892 H   0  0  0  0  0  0
  -30.3946  -11.4291   19.9213 H   0  0  0  0  0  0
  -29.8077  -11.7581   17.5143 H   0  0  0  0  0  0
  -29.6783  -13.4833   17.7471 H   0  0  0  0  0  0
  -27.8819  -11.3022   18.8578 H   0  0  0  0  0  0
  -27.4050  -12.5951   17.7825 H   0  0  0  0  0  0
  -27.6817  -14.2630   19.5464 H   0  0  0  0  0  0
  -28.7036  -12.0236   21.3590 H   0  0  0  0  0  0
  -28.3608  -13.6485   21.8510 H   0  0  0  0  0  0
  -25.2776   -9.5701   22.4714 H   0  0  0  0  0  0
  -24.0012   -7.4659   22.7446 H   0  0  0  0  0  0
  -21.0834   -8.8780   19.8945 H   0  0  0  0  0  0
  -22.3698  -10.9665   19.6133 H   0  0  0  0  0  0
  -21.2040   -7.6144   23.9726 H   0  0  0  0  0  0
  -21.1469   -6.0496   25.9072 H   0  0  0  0  0  0
  -22.0601   -2.7595   23.2847 H   0  0  0  0  0  0
  -22.4113  -12.0016   22.4940 H   0  0  0  0  0  0
  -21.1074  -13.1235   22.2452 H   0  0  0  0  0  0
  -24.6534  -15.8369   20.5289 H   0  0  0  0  0  0
  -26.2767  -15.6420   20.1072 H   0  0  0  0  0  0
  -26.7166  -32.5459   23.1064 H   0  0  0  0  0  0
  -25.0063  -33.9730   25.0394 H   0  0  0  0  0  0
  -22.7117  -31.3075   21.4017 H   0  0  0  0  0  0
  -23.3760  -35.9624   23.3281 H   0  0  0  0  0  0
  -24.3607  -36.8911   22.2046 H   0  0  0  0  0  0
  -23.7240  -37.6489   23.6659 H   0  0  0  0  0  0
  -26.0879  -31.5473   20.6006 H   0  0  0  0  0  0
  -26.8418  -30.8416   21.9977 H   0  0  0  0  0  0
  -28.0934  -28.9464   21.2325 H   0  0  0  0  0  0
  -25.9495  -25.9906   18.8960 H   0  0  0  0  0  0
  -23.9730  -27.3512   18.9523 H   0  0  0  0  0  0
  -23.7437  -30.6013   19.3994 H   0  0  0  0  0  0
  -22.7512  -29.2529   19.8563 H   0  0  0  0  0  0
  -25.1293  -36.1921   25.0814 H   0  0  0  0  0  0
  -21.0022  -28.3263   24.1408 H   0  0  0  0  0  0
  -20.5721  -26.2290   23.3611 H   0  0  0  0  0  0
  -21.6658  -26.7465   22.1182 H   0  0  0  0  0  0
  -19.6920  -25.6298   21.1248 H   0  0  0  0  0  0
  -19.6687  -27.3216   20.6768 H   0  0  0  0  0  0
  -17.4213  -26.6703   21.4044 H   0  0  0  0  0  0
  -18.0341  -26.0071   22.9028 H   0  0  0  0  0  0
  -19.7934  -30.7295   24.2269 H   0  0  0  0  0  0
  -17.5013  -31.6274   24.5177 H   0  0  0  0  0  0
  -15.5363  -30.2999   23.7632 H   0  0  0  0  0  0
  -15.8691  -28.0828   22.7053 H   0  0  0  0  0  0
  -24.5929  -30.7013   25.7746 H   0  0  0  0  0  0
  -24.8883  -32.2872   26.4766 H   0  0  0  0  0  0
  -25.8051  -30.8934   27.0193 H   0  0  0  0  0  0
  -26.2824  -29.6771   24.1113 H   0  0  0  0  0  0
  -27.4024  -29.7192   25.4526 H   0  0  0  0  0  0
  -27.8690  -30.4273   23.9251 H   0  0  0  0  0  0
  -27.2637  -33.3573   26.2026 H   0  0  0  0  0  0
  -28.3856  -32.6818   25.0292 H   0  0  0  0  0  0
  -28.0692  -31.8390   26.5371 H   0  0  0  0  0  0
  -28.2568  -38.0126   24.7561 H   0  0  0  0  0  0
  -28.1117  -36.2648   24.6213 H   0  0  0  0  0  0
  -27.2327  -37.1355   25.8871 H   0  0  0  0  0  0
  -20.9328  -29.8750   21.6889 H   0  0  0  0  0  0
  -26.0164  -38.2846   24.1435 H   0  0  0  0  0  0
  -30.9518  -20.0229   19.8951 H   0  0  0  0  0  0
  -27.3171  -19.3280   22.0904 H   0  0  0  0  0  0
  -31.4333  -17.6006   19.9425 H   0  0  0  0  0  0
  -27.7639  -16.9417   22.0990 H   0  0  0  0  0  0
  -31.9375  -16.2305   23.2740 H   0  0  0  0  0  0
  -30.9376  -15.9843   24.7007 H   0  0  0  0  0  0
  -30.5891  -17.3140   23.6117 H   0  0  0  0  0  0
  -29.9677  -22.3589   19.7510 H   0  0  0  0  0  0
  -28.2503  -22.2594   19.4260 H   0  0  0  0  0  0
  -27.1859  -24.7087   19.6482 H   0  0  0  0  0  0
  -28.6916  -24.9146   18.7939 H   0  0  0  0  0  0
  -28.9664  -15.4368   23.2268 H   0  0  0  0  0  0
  -30.2738  -14.3155   23.0628 H   0  0  0  0  0  0
  -28.1343  -21.5272   21.9124 H   0  0  0  0  0  0
  1 25  1  0  0  0
  1 30  2  0  0  0
  1 83  1  0  0  0
  2  3  1  0  0  0
  2 25  1  0  0  0
  2 85  1  0  0  0
  2 86  1  0  0  0
  3  4  1  0  0  0
  3 87  1  0  0  0
  3 88  1  0  0  0
  4  5  1  0  0  0
  4 89  1  0  0  0
  4 90  1  0  0  0
  5  6  1  0  0  0
  5 26  1  0  0  0
  5 91  1  0  0  0
  6 25  1  0  0  0
  6 92  1  0  0  0
  6 93  1  0  0  0
  7  8  2  0  0  0
  7 26  1  0  0  0
  7 29  1  0  0  0
  8  9  1  0  0  0
  8 22  1  0  0  0
  9 10  1  0  0  0
  9 27  2  0  0  0
 10 11  2  0  0  0
 10 15  1  0  0  0
 11 12  1  0  0  0
 11 94  1  0  0  0
 12 13  2  0  0  0
 12 95  1  0  0  0
 13 14  1  0  0  0
 13 31  1  0  0  0
 14 15  2  0  0  0
 14 96  1  0  0  0
 15 97  1  0  0  0
 16 17  2  0  0  0
 16 21  1  0  0  0
 16 31  1  0  0  0
 17 18  1  0  0  0
 17 98  1  0  0  0
 18 19  2  0  0  0
 18 99  1  0  0  0
 19 20  1  0  0  0
 19 24  1  0  0  0
 20 21  2  0  0  0
 20100  1  0  0  0
 21 23  1  0  0  0
 22 28  1  0  0  0
 22 32  2  0  0  0
 26 27  1  0  0  0
 28101  1  0  0  0
 28102  1  0  0  0
 29103  1  0  0  0
 29104  1  0  0  0
 33 34  1  0  0  0
 33 66  1  0  0  0
 33 70  2  0  0  0
 34 36  1  0  0  0
 34 59  1  0  0  0
 34105  1  0  0  0
 35 44  2  0  0  0
 35 45  1  0  0  0
 35 68  1  0  0  0
 36 56  1  0  0  0
 36106  1  0  0  0
 37 39  1  0  0  0
 37 47  1  0  0  0
 37 66  1  0  0  0
 37107  1  0  0  0
 38 43  2  0  0  0
 38 46  1  0  0  0
 38 47  1  0  0  0
 39 64  1  0  0  0
 39 67  2  0  0  0
 40 52  1  0  0  0
 40 53  2  0  0  0
 40 58  1  0  0  0
 41108  1  0  0  0
 41109  1  0  0  0
 41110  1  0  0  0
 41 48  1  0  0  0
 42 43  1  0  0  0
 42 66  1  0  0  0
 42111  1  0  0  0
 42112  1  0  0  0
 43 44  1  0  0  0
 44113  1  0  0  0
 45 46  2  0  0  0
 45114  1  0  0  0
 46115  1  0  0  0
 47116  1  0  0  0
 47117  1  0  0  0
 48 56  1  0  0  0
 48 65  1  0  0  0
 48118  1  0  0  0
 49 50  1  0  0  0
 49 53  1  0  0  0
 49 64  1  0  0  0
 49119  1  0  0  0
 50 51  1  0  0  0
 50120  1  0  0  0
 50121  1  0  0  0
 51 52  1  0  0  0
 51122  1  0  0  0
 51123  1  0  0  0
 52124  1  0  0  0
 52125  1  0  0  0
 53 54  1  0  0  0
 54 55  2  0  0  0
 54126  1  0  0  0
 55 57  1  0  0  0
 55127  1  0  0  0
 56 69  2  0  0  0
 57 58  2  0  0  0
 57128  1  0  0  0
 58129  1  0  0  0
 59 60  1  0  0  0
 59 61  1  0  0  0
 59 62  1  0  0  0
 60130  1  0  0  0
 60131  1  0  0  0
 60132  1  0  0  0
 61133  1  0  0  0
 61134  1  0  0  0
 61135  1  0  0  0
 62136  1  0  0  0
 62137  1  0  0  0
 62138  1  0  0  0
 63 65  1  0  0  0
 63139  1  0  0  0
 63140  1  0  0  0
 63141  1  0  0  0
 64142  1  0  0  0
 65143  1  0  0  0
 68 80  1  0  0  0
 71 73  2  0  0  0
 71 75  1  0  0  0
 71144  1  0  0  0
 72 74  1  0  0  0
 72 75  2  0  0  0
 72145  1  0  0  0
 73 76  1  0  0  0
 73146  1  0  0  0
 74 76  2  0  0  0
 74147  1  0  0  0
 75 82  1  0  0  0
 76 83  1  0  0  0
 77 79  1  0  0  0
 77 80  1  0  0  0
 77 84  2  0  0  0
 78 81  1  0  0  0
 78148  1  0  0  0
 78149  1  0  0  0
 78150  1  0  0  0
 79 82  1  0  0  0
 79151  1  0  0  0
 79152  1  0  0  0
 80153  1  0  0  0
 80154  1  0  0  0
 81 83  1  0  0  0
 81155  1  0  0  0
 81156  1  0  0  0
 82157  1  0  0  0
M  ISO  4   1 100  68 101  80 101  83 100
M  END
> <chiral flag>
0

> <version>
0

> <s_m_source_file>
/data/baiqing/PycharmProjects/Reinvent-master-3.2/result/LINK_invent/BTK/process_docking_weight1_custom_product_contain_oxygen_bond_distance_aromatic_linkinvent_7_9_3/rearranged_h_0103.sdf

> <i_m_source_file_index>
22

> <r_mmod_Potential_Energy-OPLS-2005>
294.681884765625

> <r_mmod_Stretch_Energy-OPLS-2005>
91.8217926025391

> <r_mmod_Bend_Energy-OPLS-2005>
158.690612792969

> <r_mmod_Torsional_Energy-OPLS-2005>
302.396881103516

> <r_mmod_Improper_Torsional_Energy-OPLS-2005>
6.12564897537231

> <r_mmod_Van_der_Waal_Energy-OPLS-2005>
147.709045410156

> <r_mmod_Electrostatic_Energy-OPLS-2005>
-240.033126831055

> <r_mmod_Solvation_Energy-OPLS-2005>
-227.705581665039

> <b_mmod_Minimization_Converged-OPLS-2005>
0

> <r_mmod_RMS_Derivative-OPLS-2005>
3.48212575912476

$$$$
22
                    3D
 Structure written by MMmdl.
158167  0  0  1  0            999 V2000
  -30.7263  -14.5643   20.5136 C   0  0  0  0  0  0
  -30.4200  -12.3629   19.4242 C   0  0  0  0  0  0
  -29.4831  -12.4779   18.2061 C   0  0  0  0  0  0
  -28.0230  -12.2701   18.6431 C   0  0  0  0  0  0
  -27.6400  -13.1821   19.8352 C   0  0  2  0  0  0
  -28.6938  -13.1074   20.9680 C   0  0  0  0  0  0
  -25.2535  -13.8057   20.5559 C   0  0  0  0  0  0
  -24.1824  -13.0398   20.9210 C   0  0  0  0  0  0
  -24.6347  -11.6863   20.8812 C   0  0  0  0  0  0
  -23.9009  -10.4271   21.0460 C   0  0  0  0  0  0
  -24.3579   -9.4169   21.9214 C   0  0  0  0  0  0
  -23.6248   -8.2214   22.0787 C   0  0  0  0  0  0
  -22.4216   -8.0280   21.3584 C   0  0  0  0  0  0
  -21.9877   -9.0232   20.4649 C   0  0  0  0  0  0
  -22.7223  -10.2097   20.3065 C   0  0  0  0  0  0
  -21.6830   -6.0727   22.5297 C   0  0  0  0  0  0
  -21.3994   -6.5632   23.8216 C   0  0  0  0  0  0
  -21.3638   -5.6797   24.9190 C   0  0  0  0  0  0
  -21.6029   -4.3041   24.7248 C   0  0  0  0  0  0
  -21.8804   -3.8143   23.4360 C   0  0  0  0  0  0
  -21.9179   -4.6962   22.3418 C   0  0  0  0  0  0
  -22.7856  -13.5236   21.1843 C   0  0  0  0  0  0
  -22.1659   -4.2128   21.1008 F   0  0  0  0  0  0
  -21.5600   -3.4548   25.7754 F   0  0  0  0  0  0
  -30.0167  -13.4005   20.3949 N   0  0  0  0  0  0
  -26.2927  -12.9184   20.3189 N   0  0  0  0  0  0
  -25.9231  -11.6384   20.5750 N   0  0  0  0  0  0
  -22.0478  -12.8274   22.0360 N   0  0  0  0  0  0
  -25.4220  -15.1778   20.3759 N   0  0  0  0  0  0
  -31.9061  -14.6239   20.1588 O   0  0  0  0  0  0
  -21.6621   -6.8862   21.4240 O   0  0  0  0  0  0
  -22.3572  -14.5574   20.6700 O   0  0  0  0  0  0
  -24.6236  -31.8635   23.2097 C   0  0  0  0  0  0
  -25.8987  -32.4864   23.8502 C   0  0  1  0  0  0
  -27.2459  -27.3814   20.0819 C   0  0  0  0  0  0
  -25.5811  -33.8665   24.2396 N   0  0  0  0  0  0
  -23.4268  -30.4870   21.5515 C   0  0  2  0  0  0
  -24.8733  -28.9500   20.1099 C   0  0  0  0  0  0
  -22.7459  -29.4700   22.4951 C   0  0  0  0  0  0
  -18.0309  -28.1414   22.8468 C   0  0  0  0  0  0
  -24.1459  -36.7338   23.2680 C   0  0  0  0  0  0
  -25.9669  -30.8024   21.3865 C   0  0  0  0  0  0
  -26.0383  -29.4428   20.7103 C   0  0  0  0  0  0
  -27.2262  -28.6683   20.6799 C   0  0  0  0  0  0
  -26.0540  -26.9179   19.4720 C   0  0  0  0  0  0
  -24.8805  -27.6947   19.4823 C   0  0  0  0  0  0
  -23.6359  -29.8131   20.1679 C   0  0  0  0  0  0
  -25.4088  -36.3217   24.0407 C   0  0  1  0  0  0
  -20.5897  -28.3740   23.1212 C   0  0  2  0  0  0
  -20.6784  -26.9470   22.5387 C   0  0  0  0  0  0
  -19.5801  -26.6444   21.5160 C   0  0  0  0  0  0
  -18.1963  -26.7971   22.1562 C   0  0  0  0  0  0
  -19.1553  -28.8882   23.2867 C   0  0  0  0  0  0
  -18.9452  -30.1475   23.8919 C   0  0  0  0  0  0
  -17.6457  -30.6592   24.0611 C   0  0  0  0  0  0
  -25.9001  -34.9540   23.5230 C   0  0  0  0  0  0
  -16.5361  -29.9086   23.6351 C   0  0  0  0  0  0
  -16.7303  -28.6524   23.0336 C   0  0  0  0  0  0
  -26.4375  -31.6684   25.0861 C   0  0  0  0  0  0
  -25.3605  -31.3788   26.1602 C   0  0  0  0  0  0
  -27.0210  -30.3127   24.6283 C   0  0  0  0  0  0
  -27.6006  -32.4432   25.7530 C   0  0  0  0  0  0
  -27.5583  -37.1824   24.8460 C   0  0  0  0  0  0
  -21.4181  -29.3073   22.3588 N   0  0  0  0  0  0
  -26.4305  -37.3873   23.9435 N   0  0  0  0  0  0
  -24.6919  -31.0640   22.1087 N   0  0  0  0  0  0
  -23.4163  -28.8233   23.3039 O   0  0  0  0  0  0
  -28.4032  -26.6058   20.1076 O   0  0  0  0  0  0
  -26.5559  -34.8950   22.4790 O   0  0  0  0  0  0
  -23.5361  -32.1468   23.7311 O   0  0  0  0  0  0
  -30.4221  -19.4560   21.4422 C   0  0  0  0  0  0
  -28.4950  -20.1328   20.1165 C   0  0  0  0  0  0
  -30.1126  -18.1020   21.1488 C   0  0  0  0  0  0
  -29.0280  -17.7719   20.3657 C   0  0  0  0  0  0
  -28.1900  -18.7759   19.8313 C   0  0  0  0  0  0
  -29.6088  -20.5076   20.9230 C   0  0  0  0  0  0
  -30.8235  -16.8320   21.5841 C   0  0  0  0  0  0
  -28.9295  -16.2666   20.2420 C   0  0  0  0  0  0
  -26.9773  -18.4445   18.9769 C   0  0  0  0  0  0
  -29.4206  -24.2626   20.5816 C   0  0  0  0  0  0
  -28.2050  -25.1663   20.1900 C   0  0  0  0  0  0
  -28.9722  -22.8894   21.2002 C   0  0  0  0  0  0
  -30.0893  -15.6886   20.9607 N   0  0  0  0  0  0
  -29.9709  -21.8349   21.1784 O   0  0  0  0  0  0
  -31.4557  -12.4693   19.0986 H   0  0  0  0  0  0
  -30.3531  -11.3724   19.8777 H   0  0  0  0  0  0
  -29.7532  -11.7442   17.4445 H   0  0  0  0  0  0
  -29.5904  -13.4588   17.7375 H   0  0  0  0  0  0
  -27.9175  -11.2234   18.9350 H   0  0  0  0  0  0
  -27.3440  -12.4241   17.8046 H   0  0  0  0  0  0
  -27.6219  -14.1798   19.4091 H   0  0  0  0  0  0
  -28.6970  -12.1222   21.4326 H   0  0  0  0  0  0
  -28.4401  -13.8075   21.7636 H   0  0  0  0  0  0
  -25.2727   -9.5627   22.4778 H   0  0  0  0  0  0
  -23.9923   -7.4612   22.7526 H   0  0  0  0  0  0
  -21.0816   -8.8753   19.8961 H   0  0  0  0  0  0
  -22.3714  -10.9629   19.6148 H   0  0  0  0  0  0
  -21.1996   -7.6148   23.9698 H   0  0  0  0  0  0
  -21.1464   -6.0561   25.9083 H   0  0  0  0  0  0
  -22.0593   -2.7601   23.2897 H   0  0  0  0  0  0
  -22.4022  -11.9874   22.4716 H   0  0  0  0  0  0
  -21.1086  -13.1303   22.2542 H   0  0  0  0  0  0
  -24.6409  -15.8198   20.4547 H   0  0  0  0  0  0
  -26.2274  -15.5872   19.9302 H   0  0  0  0  0  0
  -26.7042  -32.5506   23.1272 H   0  0  0  0  0  0
  -24.9946  -33.9858   25.0523 H   0  0  0  0  0  0
  -22.7375  -31.3202   21.4021 H   0  0  0  0  0  0
  -23.3795  -35.9597   23.3366 H   0  0  0  0  0  0
  -24.3595  -36.8886   22.2092 H   0  0  0  0  0  0
  -23.7039  -37.6518   23.6591 H   0  0  0  0  0  0
  -26.0879  -31.5734   20.6280 H   0  0  0  0  0  0
  -26.8575  -30.8589   22.0054 H   0  0  0  0  0  0
  -28.1316  -29.0405   21.1390 H   0  0  0  0  0  0
  -26.0083  -25.9602   18.9725 H   0  0  0  0  0  0
  -23.9883  -27.3219   19.0039 H   0  0  0  0  0  0
  -23.7167  -30.5858   19.4016 H   0  0  0  0  0  0
  -22.7722  -29.2086   19.8914 H   0  0  0  0  0  0
  -25.1230  -36.2274   25.0908 H   0  0  0  0  0  0
  -21.0052  -28.3387   24.1331 H   0  0  0  0  0  0
  -20.5710  -26.2372   23.3587 H   0  0  0  0  0  0
  -21.6665  -26.7520   22.1169 H   0  0  0  0  0  0
  -19.6977  -25.6403   21.1144 H   0  0  0  0  0  0
  -19.6688  -27.3289   20.6736 H   0  0  0  0  0  0
  -17.4239  -26.6799   21.3940 H   0  0  0  0  0  0
  -18.0317  -26.0079   22.8892 H   0  0  0  0  0  0
  -19.7932  -30.7282   24.2324 H   0  0  0  0  0  0
  -17.5007  -31.6253   24.5238 H   0  0  0  0  0  0
  -15.5352  -30.3011   23.7647 H   0  0  0  0  0  0
  -15.8721  -28.0884   22.6986 H   0  0  0  0  0  0
  -24.5784  -30.7148   25.7899 H   0  0  0  0  0  0
  -24.8760  -32.2920   26.5082 H   0  0  0  0  0  0
  -25.7925  -30.8935   27.0359 H   0  0  0  0  0  0
  -26.2783  -29.6970   24.1213 H   0  0  0  0  0  0
  -27.3819  -29.7316   25.4773 H   0  0  0  0  0  0
  -27.8689  -30.4498   23.9576 H   0  0  0  0  0  0
  -27.2696  -33.3761   26.2121 H   0  0  0  0  0  0
  -28.3709  -32.6977   25.0228 H   0  0  0  0  0  0
  -28.0795  -31.8570   26.5390 H   0  0  0  0  0  0
  -28.2661  -38.0077   24.7575 H   0  0  0  0  0  0
  -28.1023  -36.2629   24.6242 H   0  0  0  0  0  0
  -27.2306  -37.1430   25.8860 H   0  0  0  0  0  0
  -20.9443  -29.8707   21.6663 H   0  0  0  0  0  0
  -26.0291  -38.3013   24.1402 H   0  0  0  0  0  0
  -31.2768  -19.6838   22.0608 H   0  0  0  0  0  0
  -27.8563  -20.8728   19.6641 H   0  0  0  0  0  0
  -30.7734  -16.7397   22.6688 H   0  0  0  0  0  0
  -31.8762  -16.8751   21.2962 H   0  0  0  0  0  0
  -28.9204  -15.9753   19.1901 H   0  0  0  0  0  0
  -28.0103  -15.9409   20.7206 H   0  0  0  0  0  0
  -26.0967  -18.3110   19.6063 H   0  0  0  0  0  0
  -27.1233  -17.5378   18.3858 H   0  0  0  0  0  0
  -26.7520  -19.2578   18.2841 H   0  0  0  0  0  0
  -30.0545  -24.7770   21.3035 H   0  0  0  0  0  0
  -30.0324  -24.0986   19.6901 H   0  0  0  0  0  0
  -27.8030  -24.8152   19.2415 H   0  0  0  0  0  0
  -27.4484  -24.9904   20.9501 H   0  0  0  0  0  0
  -28.7191  -23.0476   22.2538 H   0  0  0  0  0  0
  -28.0371  -22.6072   20.7269 H   0  0  0  0  0  0
  1 25  1  0  0  0
  1 30  2  0  0  0
  1 83  1  0  0  0
  2  3  1  0  0  0
  2 25  1  0  0  0
  2 85  1  0  0  0
  2 86  1  0  0  0
  3  4  1  0  0  0
  3 87  1  0  0  0
  3 88  1  0  0  0
  4  5  1  0  0  0
  4 89  1  0  0  0
  4 90  1  0  0  0
  5  6  1  0  0  0
  5 26  1  0  0  0
  5 91  1  0  0  0
  6 25  1  0  0  0
  6 92  1  0  0  0
  6 93  1  0  0  0
  7  8  2  0  0  0
  7 26  1  0  0  0
  7 29  1  0  0  0
  8  9  1  0  0  0
  8 22  1  0  0  0
  9 10  1  0  0  0
  9 27  2  0  0  0
 10 11  2  0  0  0
 10 15  1  0  0  0
 11 12  1  0  0  0
 11 94  1  0  0  0
 12 13  2  0  0  0
 12 95  1  0  0  0
 13 14  1  0  0  0
 13 31  1  0  0  0
 14 15  2  0  0  0
 14 96  1  0  0  0
 15 97  1  0  0  0
 16 17  2  0  0  0
 16 21  1  0  0  0
 16 31  1  0  0  0
 17 18  1  0  0  0
 17 98  1  0  0  0
 18 19  2  0  0  0
 18 99  1  0  0  0
 19 20  1  0  0  0
 19 24  1  0  0  0
 20 21  2  0  0  0
 20100  1  0  0  0
 21 23  1  0  0  0
 22 28  1  0  0  0
 22 32  2  0  0  0
 26 27  1  0  0  0
 28101  1  0  0  0
 28102  1  0  0  0
 29103  1  0  0  0
 29104  1  0  0  0
 33 34  1  0  0  0
 33 66  1  0  0  0
 33 70  2  0  0  0
 34 36  1  0  0  0
 34 59  1  0  0  0
 34105  1  0  0  0
 35 44  2  0  0  0
 35 45  1  0  0  0
 35 68  1  0  0  0
 36 56  1  0  0  0
 36106  1  0  0  0
 37 39  1  0  0  0
 37 47  1  0  0  0
 37 66  1  0  0  0
 37107  1  0  0  0
 38 43  2  0  0  0
 38 46  1  0  0  0
 38 47  1  0  0  0
 39 64  1  0  0  0
 39 67  2  0  0  0
 40 52  1  0  0  0
 40 53  2  0  0  0
 40 58  1  0  0  0
 41108  1  0  0  0
 41109  1  0  0  0
 41110  1  0  0  0
 41 48  1  0  0  0
 42 43  1  0  0  0
 42 66  1  0  0  0
 42111  1  0  0  0
 42112  1  0  0  0
 43 44  1  0  0  0
 44113  1  0  0  0
 45 46  2  0  0  0
 45114  1  0  0  0
 46115  1  0  0  0
 47116  1  0  0  0
 47117  1  0  0  0
 48 56  1  0  0  0
 48 65  1  0  0  0
 48118  1  0  0  0
 49 50  1  0  0  0
 49 53  1  0  0  0
 49 64  1  0  0  0
 49119  1  0  0  0
 50 51  1  0  0  0
 50120  1  0  0  0
 50121  1  0  0  0
 51 52  1  0  0  0
 51122  1  0  0  0
 51123  1  0  0  0
 52124  1  0  0  0
 52125  1  0  0  0
 53 54  1  0  0  0
 54 55  2  0  0  0
 54126  1  0  0  0
 55 57  1  0  0  0
 55127  1  0  0  0
 56 69  2  0  0  0
 57 58  2  0  0  0
 57128  1  0  0  0
 58129  1  0  0  0
 59 60  1  0  0  0
 59 61  1  0  0  0
 59 62  1  0  0  0
 60130  1  0  0  0
 60131  1  0  0  0
 60132  1  0  0  0
 61133  1  0  0  0
 61134  1  0  0  0
 61135  1  0  0  0
 62136  1  0  0  0
 62137  1  0  0  0
 62138  1  0  0  0
 63 65  1  0  0  0
 63139  1  0  0  0
 63140  1  0  0  0
 63141  1  0  0  0
 64142  1  0  0  0
 65143  1  0  0  0
 68 81  1  0  0  0
 71 73  2  0  0  0
 71 76  1  0  0  0
 71144  1  0  0  0
 72 75  1  0  0  0
 72 76  2  0  0  0
 72145  1  0  0  0
 73 74  1  0  0  0
 73 77  1  0  0  0
 74 75  2  0  0  0
 74 78  1  0  0  0
 75 79  1  0  0  0
 76 84  1  0  0  0
 77 83  1  0  0  0
 77146  1  0  0  0
 77147  1  0  0  0
 78 83  1  0  0  0
 78148  1  0  0  0
 78149  1  0  0  0
 79150  1  0  0  0
 79151  1  0  0  0
 79152  1  0  0  0
 80 81  1  0  0  0
 80 82  1  0  0  0
 80153  1  0  0  0
 80154  1  0  0  0
 81155  1  0  0  0
 81156  1  0  0  0
 82 84  1  0  0  0
 82157  1  0  0  0
 82158  1  0  0  0
M  ISO  4   1 100  68 101  81 101  83 100
M  END
> <chiral flag>
0

> <version>
0

> <s_m_source_file>
/data/baiqing/PycharmProjects/Reinvent-master-3.2/result/LINK_invent/BTK/process_docking_weight1_custom_product_contain_oxygen_bond_distance_aromatic_linkinvent_7_9_3/rearranged_h_0103.sdf

> <i_m_source_file_index>
23

> <r_mmod_Potential_Energy-OPLS-2005>
129.307571411133

> <r_mmod_Stretch_Energy-OPLS-2005>
56.1547813415527

> <r_mmod_Bend_Energy-OPLS-2005>
161.350219726562

> <r_mmod_Torsional_Energy-OPLS-2005>
269.077117919922

> <r_mmod_Improper_Torsional_Energy-OPLS-2005>
5.95776510238647

> <r_mmod_Van_der_Waal_Energy-OPLS-2005>
151.999938964844

> <r_mmod_Electrostatic_Energy-OPLS-2005>
-338.7275390625

> <r_mmod_Solvation_Energy-OPLS-2005>
-211.440811157227

> <b_mmod_Minimization_Converged-OPLS-2005>
0

> <r_mmod_RMS_Derivative-OPLS-2005>
8.93433666229248

$$$$
23
                    3D
 Structure written by MMmdl.
163171  0  0  1  0            999 V2000
  -30.7973  -14.3971   20.5586 C   0  0  0  0  0  0
  -30.3887  -12.2606   19.4314 C   0  0  0  0  0  0
  -29.4859  -12.4792   18.2048 C   0  0  0  0  0  0
  -28.0070  -12.3682   18.6133 C   0  0  0  0  0  0
  -27.6601  -13.2194   19.8682 C   0  0  2  0  0  0
  -28.7032  -13.0391   20.9982 C   0  0  0  0  0  0
  -25.2589  -13.8193   20.5698 C   0  0  0  0  0  0
  -24.1846  -13.0446   20.9173 C   0  0  0  0  0  0
  -24.6428  -11.6919   20.8733 C   0  0  0  0  0  0
  -23.9097  -10.4286   21.0383 C   0  0  0  0  0  0
  -24.3636   -9.4195   21.9159 C   0  0  0  0  0  0
  -23.6290   -8.2245   22.0737 C   0  0  0  0  0  0
  -22.4283   -8.0283   21.3541 C   0  0  0  0  0  0
  -21.9929   -9.0257   20.4644 C   0  0  0  0  0  0
  -22.7264  -10.2116   20.3039 C   0  0  0  0  0  0
  -21.6850   -6.0730   22.5261 C   0  0  0  0  0  0
  -21.4021   -6.5620   23.8199 C   0  0  0  0  0  0
  -21.3667   -5.6772   24.9168 C   0  0  0  0  0  0
  -21.6042   -4.3032   24.7210 C   0  0  0  0  0  0
  -21.8821   -3.8131   23.4330 C   0  0  0  0  0  0
  -21.9182   -4.6959   22.3387 C   0  0  0  0  0  0
  -22.7855  -13.5239   21.1804 C   0  0  0  0  0  0
  -22.1652   -4.2133   21.0967 F   0  0  0  0  0  0
  -21.5618   -3.4518   25.7736 F   0  0  0  0  0  0
  -30.0370  -13.2801   20.4310 N   0  0  0  0  0  0
  -26.3041  -12.9388   20.3357 N   0  0  0  0  0  0
  -25.9375  -11.6532   20.5819 N   0  0  0  0  0  0
  -22.0476  -12.8274   22.0360 N   0  0  0  0  0  0
  -25.4319  -15.1916   20.4149 N   0  0  0  0  0  0
  -31.9205  -14.4872   20.0593 O   0  0  0  0  0  0
  -21.6641   -6.8879   21.4233 O   0  0  0  0  0  0
  -22.3547  -14.5548   20.6627 O   0  0  0  0  0  0
  -24.6152  -31.8678   23.2149 C   0  0  0  0  0  0
  -25.9071  -32.4829   23.8423 C   0  0  1  0  0  0
  -27.2221  -27.4332   20.0650 C   0  0  0  0  0  0
  -25.5927  -33.8626   24.2330 N   0  0  0  0  0  0
  -23.4034  -30.4965   21.5536 C   0  0  2  0  0  0
  -24.8422  -28.9677   20.1135 C   0  0  0  0  0  0
  -22.7418  -29.4652   22.4954 C   0  0  0  0  0  0
  -18.0272  -28.1417   22.8469 C   0  0  0  0  0  0
  -24.1469  -36.7302   23.2635 C   0  0  0  0  0  0
  -25.9338  -30.8308   21.3689 C   0  0  0  0  0  0
  -26.0064  -29.4667   20.7091 C   0  0  0  0  0  0
  -27.1992  -28.7055   20.6847 C   0  0  0  0  0  0
  -26.0336  -26.9570   19.4603 C   0  0  0  0  0  0
  -24.8492  -27.7099   19.4910 C   0  0  0  0  0  0
  -23.6152  -29.8438   20.1627 C   0  0  0  0  0  0
  -25.4095  -36.3087   24.0319 C   0  0  1  0  0  0
  -20.5864  -28.3663   23.1317 C   0  0  2  0  0  0
  -20.6748  -26.9404   22.5401 C   0  0  0  0  0  0
  -19.5735  -26.6403   21.5188 C   0  0  0  0  0  0
  -18.1919  -26.7952   22.1609 C   0  0  0  0  0  0
  -19.1532  -28.8850   23.2893 C   0  0  0  0  0  0
  -18.9450  -30.1458   23.8894 C   0  0  0  0  0  0
  -17.6456  -30.6591   24.0567 C   0  0  0  0  0  0
  -25.9042  -34.9471   23.5099 C   0  0  0  0  0  0
  -16.5342  -29.9103   23.6332 C   0  0  0  0  0  0
  -16.7264  -28.6544   23.0309 C   0  0  0  0  0  0
  -26.4514  -31.6629   25.0760 C   0  0  0  0  0  0
  -25.3816  -31.3709   26.1539 C   0  0  0  0  0  0
  -27.0344  -30.3076   24.6139 C   0  0  0  0  0  0
  -27.6090  -32.4336   25.7524 C   0  0  0  0  0  0
  -27.5553  -37.1817   24.8464 C   0  0  0  0  0  0
  -21.4130  -29.3041   22.3730 N   0  0  0  0  0  0
  -26.4259  -37.3781   23.9419 N   0  0  0  0  0  0
  -24.6691  -31.0801   22.1039 N   0  0  0  0  0  0
  -23.4190  -28.8150   23.2946 O   0  0  0  0  0  0
  -28.3961  -26.7007   20.0705 O   0  0  0  0  0  0
  -26.5578  -34.8923   22.4642 O   0  0  0  0  0  0
  -23.5347  -32.1395   23.7572 O   0  0  0  0  0  0
  -30.5827  -18.5532   22.8123 C   0  0  0  0  0  0
  -29.4271  -20.6108   22.2003 C   0  0  0  0  0  0
  -30.1414  -19.8467   23.1491 C   0  0  0  0  0  0
  -30.3293  -18.0214   21.5359 C   0  0  0  0  0  0
  -29.1653  -20.1005   20.9027 C   0  0  0  0  0  0
  -29.6074  -18.7897   20.5887 C   0  0  0  0  0  0
  -31.0248  -16.7281   21.1482 C   0  0  0  0  0  0
  -30.5131  -20.4314   24.5049 C   0  0  0  0  0  0
  -29.5513  -24.5388   20.1460 C   0  0  0  0  0  0
  -29.5834  -23.0558   19.7087 C   0  0  0  0  0  0
  -28.3190  -25.3254   19.6678 C   0  0  0  0  0  0
  -28.3212  -22.2337   20.0584 C   0  0  0  0  0  0
  -30.2528  -15.4748   21.1429 N   0  0  0  0  0  0
  -31.8177  -21.0933   24.4190 N   0  3  0  0  0  0
  -28.5309  -20.8231   19.9057 O   0  0  0  0  0  0
  -29.3841  -18.2907   19.3471 F   0  0  0  0  0  0
  -31.4401  -12.2794   19.1416 H   0  0  0  0  0  0
  -30.2243  -11.2658   19.8492 H   0  0  0  0  0  0
  -29.7128  -11.7455   17.4300 H   0  0  0  0  0  0
  -29.6823  -13.4550   17.7588 H   0  0  0  0  0  0
  -27.8029  -11.3178   18.8160 H   0  0  0  0  0  0
  -27.3643  -12.6422   17.7779 H   0  0  0  0  0  0
  -27.7006  -14.2620   19.5507 H   0  0  0  0  0  0
  -28.6691  -12.0298   21.4087 H   0  0  0  0  0  0
  -28.4868  -13.7073   21.8327 H   0  0  0  0  0  0
  -25.2770   -9.5648   22.4746 H   0  0  0  0  0  0
  -23.9962   -7.4648   22.7480 H   0  0  0  0  0  0
  -21.0829   -8.8798   19.8990 H   0  0  0  0  0  0
  -22.3713  -10.9666   19.6146 H   0  0  0  0  0  0
  -21.2043   -7.6132   23.9704 H   0  0  0  0  0  0
  -21.1479   -6.0505   25.9070 H   0  0  0  0  0  0
  -22.0604   -2.7606   23.2817 H   0  0  0  0  0  0
  -22.4111  -11.9965   22.4802 H   0  0  0  0  0  0
  -21.1085  -13.1309   22.2537 H   0  0  0  0  0  0
  -24.6724  -15.8508   20.5447 H   0  0  0  0  0  0
  -26.2870  -15.6326   20.0995 H   0  0  0  0  0  0
  -26.7130  -32.5539   23.1176 H   0  0  0  0  0  0
  -25.0153  -33.9787   25.0528 H   0  0  0  0  0  0
  -22.6899  -31.3134   21.4229 H   0  0  0  0  0  0
  -23.3715  -35.9651   23.3319 H   0  0  0  0  0  0
  -24.3534  -36.8910   22.2037 H   0  0  0  0  0  0
  -23.7259  -37.6525   23.6651 H   0  0  0  0  0  0
  -26.0505  -31.6012   20.6043 H   0  0  0  0  0  0
  -26.8166  -30.8775   21.9937 H   0  0  0  0  0  0
  -28.0987  -29.0881   21.1436 H   0  0  0  0  0  0
  -25.9903  -26.0086   18.9442 H   0  0  0  0  0  0
  -23.9560  -27.3232   19.0203 H   0  0  0  0  0  0
  -23.7527  -30.6299   19.4184 H   0  0  0  0  0  0
  -22.7322  -29.2901   19.8396 H   0  0  0  0  0  0
  -25.1289  -36.1893   25.0805 H   0  0  0  0  0  0
  -20.9954  -28.3207   24.1442 H   0  0  0  0  0  0
  -20.5604  -26.2273   23.3583 H   0  0  0  0  0  0
  -21.6627  -26.7421   22.1235 H   0  0  0  0  0  0
  -19.6887  -25.6310   21.1224 H   0  0  0  0  0  0
  -19.6695  -27.3201   20.6706 H   0  0  0  0  0  0
  -17.4181  -26.6660   21.4025 H   0  0  0  0  0  0
  -18.0356  -26.0112   22.9022 H   0  0  0  0  0  0
  -19.7921  -30.7280   24.2259 H   0  0  0  0  0  0
  -17.5010  -31.6268   24.5185 H   0  0  0  0  0  0
  -15.5349  -30.3000   23.7679 H   0  0  0  0  0  0
  -15.8664  -28.0889   22.6987 H   0  0  0  0  0  0
  -24.5994  -30.7037   25.7921 H   0  0  0  0  0  0
  -24.9032  -32.2855   26.5038 H   0  0  0  0  0  0
  -25.8248  -30.8880   27.0260 H   0  0  0  0  0  0
  -26.2878  -29.6848   24.1215 H   0  0  0  0  0  0
  -27.4125  -29.7316   25.4597 H   0  0  0  0  0  0
  -27.8708  -30.4405   23.9282 H   0  0  0  0  0  0
  -27.2720  -33.3607   26.2154 H   0  0  0  0  0  0
  -28.3907  -32.6929   25.0383 H   0  0  0  0  0  0
  -28.0759  -31.8436   26.5419 H   0  0  0  0  0  0
  -28.2597  -38.0092   24.7489 H   0  0  0  0  0  0
  -28.1025  -36.2631   24.6307 H   0  0  0  0  0  0
  -27.2280  -37.1490   25.8871 H   0  0  0  0  0  0
  -20.9262  -29.8840   21.7053 H   0  0  0  0  0  0
  -26.0126  -38.2832   24.1479 H   0  0  0  0  0  0
  -31.1791  -17.9908   23.5190 H   0  0  0  0  0  0
  -29.1122  -21.6023   22.4862 H   0  0  0  0  0  0
  -31.8856  -16.5861   21.8055 H   0  0  0  0  0  0
  -31.4497  -16.9061   20.1589 H   0  0  0  0  0  0
  -30.5658  -19.6347   25.2503 H   0  0  0  0  0  0
  -29.7551  -21.1347   24.8531 H   0  0  0  0  0  0
  -30.4482  -25.0332   19.7670 H   0  0  0  0  0  0
  -29.6092  -24.5795   21.2343 H   0  0  0  0  0  0
  -30.4588  -22.5893   20.1638 H   0  0  0  0  0  0
  -29.7548  -23.0064   18.6339 H   0  0  0  0  0  0
  -27.4347  -24.8499   20.0946 H   0  0  0  0  0  0
  -28.2390  -25.2673   18.5815 H   0  0  0  0  0  0
  -27.5312  -22.5069   19.3572 H   0  0  0  0  0  0
  -27.9171  -22.4933   21.0367 H   0  0  0  0  0  0
  -29.3170  -15.4384   21.5142 H   0  0  0  0  0  0
  -31.7728  -21.8591   23.7732 H   0  0  0  0  0  0
  -32.5166  -20.4402   24.1139 H   0  0  0  0  0  0
  -32.0807  -21.4485   25.3194 H   0  0  0  0  0  0
  1 25  1  0  0  0
  1 30  2  0  0  0
  1 83  1  0  0  0
  2  3  1  0  0  0
  2 25  1  0  0  0
  2 87  1  0  0  0
  2 88  1  0  0  0
  3  4  1  0  0  0
  3 89  1  0  0  0
  3 90  1  0  0  0
  4  5  1  0  0  0
  4 91  1  0  0  0
  4 92  1  0  0  0
  5  6  1  0  0  0
  5 26  1  0  0  0
  5 93  1  0  0  0
  6 25  1  0  0  0
  6 94  1  0  0  0
  6 95  1  0  0  0
  7  8  2  0  0  0
  7 26  1  0  0  0
  7 29  1  0  0  0
  8  9  1  0  0  0
  8 22  1  0  0  0
  9 10  1  0  0  0
  9 27  2  0  0  0
 10 11  2  0  0  0
 10 15  1  0  0  0
 11 12  1  0  0  0
 11 96  1  0  0  0
 12 13  2  0  0  0
 12 97  1  0  0  0
 13 14  1  0  0  0
 13 31  1  0  0  0
 14 15  2  0  0  0
 14 98  1  0  0  0
 15 99  1  0  0  0
 16 17  2  0  0  0
 16 21  1  0  0  0
 16 31  1  0  0  0
 17 18  1  0  0  0
 17100  1  0  0  0
 18 19  2  0  0  0
 18101  1  0  0  0
 19 20  1  0  0  0
 19 24  1  0  0  0
 20 21  2  0  0  0
 20102  1  0  0  0
 21 23  1  0  0  0
 22 28  1  0  0  0
 22 32  2  0  0  0
 26 27  1  0  0  0
 28103  1  0  0  0
 28104  1  0  0  0
 29105  1  0  0  0
 29106  1  0  0  0
 33 34  1  0  0  0
 33 66  1  0  0  0
 33 70  2  0  0  0
 34 36  1  0  0  0
 34 59  1  0  0  0
 34107  1  0  0  0
 35 44  2  0  0  0
 35 45  1  0  0  0
 35 68  1  0  0  0
 36 56  1  0  0  0
 36108  1  0  0  0
 37 39  1  0  0  0
 37 47  1  0  0  0
 37 66  1  0  0  0
 37109  1  0  0  0
 38 43  2  0  0  0
 38 46  1  0  0  0
 38 47  1  0  0  0
 39 64  1  0  0  0
 39 67  2  0  0  0
 40 52  1  0  0  0
 40 53  2  0  0  0
 40 58  1  0  0  0
 41110  1  0  0  0
 41111  1  0  0  0
 41112  1  0  0  0
 41 48  1  0  0  0
 42 43  1  0  0  0
 42 66  1  0  0  0
 42113  1  0  0  0
 42114  1  0  0  0
 43 44  1  0  0  0
 44115  1  0  0  0
 45 46  2  0  0  0
 45116  1  0  0  0
 46117  1  0  0  0
 47118  1  0  0  0
 47119  1  0  0  0
 48 56  1  0  0  0
 48 65  1  0  0  0
 48120  1  0  0  0
 49 50  1  0  0  0
 49 53  1  0  0  0
 49 64  1  0  0  0
 49121  1  0  0  0
 50 51  1  0  0  0
 50122  1  0  0  0
 50123  1  0  0  0
 51 52  1  0  0  0
 51124  1  0  0  0
 51125  1  0  0  0
 52126  1  0  0  0
 52127  1  0  0  0
 53 54  1  0  0  0
 54 55  2  0  0  0
 54128  1  0  0  0
 55 57  1  0  0  0
 55129  1  0  0  0
 56 69  2  0  0  0
 57 58  2  0  0  0
 57130  1  0  0  0
 58131  1  0  0  0
 59 60  1  0  0  0
 59 61  1  0  0  0
 59 62  1  0  0  0
 60132  1  0  0  0
 60133  1  0  0  0
 60134  1  0  0  0
 61135  1  0  0  0
 61136  1  0  0  0
 61137  1  0  0  0
 62138  1  0  0  0
 62139  1  0  0  0
 62140  1  0  0  0
 63 65  1  0  0  0
 63141  1  0  0  0
 63142  1  0  0  0
 63143  1  0  0  0
 64144  1  0  0  0
 65145  1  0  0  0
 68 81  1  0  0  0
 71 73  2  0  0  0
 71 74  1  0  0  0
 71146  1  0  0  0
 72 73  1  0  0  0
 72 75  2  0  0  0
 72147  1  0  0  0
 73 78  1  0  0  0
 74 76  2  0  0  0
 74 77  1  0  0  0
 75 76  1  0  0  0
 75 85  1  0  0  0
 76 86  1  0  0  0
 77 83  1  0  0  0
 77148  1  0  0  0
 77149  1  0  0  0
 78 84  1  0  0  0
 78150  1  0  0  0
 78151  1  0  0  0
 79 80  1  0  0  0
 79 81  1  0  0  0
 79152  1  0  0  0
 79153  1  0  0  0
 80 82  1  0  0  0
 80154  1  0  0  0
 80155  1  0  0  0
 81156  1  0  0  0
 81157  1  0  0  0
 82 85  1  0  0  0
 82158  1  0  0  0
 82159  1  0  0  0
 83160  1  0  0  0
 84161  1  0  0  0
 84162  1  0  0  0
 84163  1  0  0  0
M  CHG  1  84   1
M  ISO  4   1 100  68 101  81 101  83 100
M  END
> <chiral flag>
0

> <version>
0

> <s_m_source_file>
/data/baiqing/PycharmProjects/Reinvent-master-3.2/result/LINK_invent/BTK/process_docking_weight1_custom_product_contain_oxygen_bond_distance_aromatic_linkinvent_7_9_3/rearranged_h_0103.sdf

> <i_m_source_file_index>
24

> <r_mmod_Potential_Energy-OPLS-2005>
-359.656433105469

> <r_mmod_Stretch_Energy-OPLS-2005>
36.7252960205078

> <r_mmod_Bend_Energy-OPLS-2005>
111.825401306152

> <r_mmod_Torsional_Energy-OPLS-2005>
192.537475585938

> <r_mmod_Improper_Torsional_Energy-OPLS-2005>
3.75642657279968

> <r_mmod_Van_der_Waal_Energy-OPLS-2005>
166.815124511719

> <r_mmod_Electrostatic_Energy-OPLS-2005>
-355.950927734375

> <r_mmod_Solvation_Energy-OPLS-2005>
-532.967041015625

> <b_mmod_Minimization_Converged-OPLS-2005>
0

> <r_mmod_RMS_Derivative-OPLS-2005>
4.27917337417603

$$$$
24
                    3D
 Structure written by MMmdl.
154162  0  0  1  0            999 V2000
  -30.7203  -14.4707   20.5866 C   0  0  0  0  0  0
  -30.4153  -12.3150   19.4205 C   0  0  0  0  0  0
  -29.4918  -12.5132   18.2030 C   0  0  0  0  0  0
  -28.0143  -12.3714   18.6166 C   0  0  0  0  0  0
  -27.6591  -13.2123   19.8727 C   0  0  2  0  0  0
  -28.7008  -13.0049   20.9948 C   0  0  0  0  0  0
  -25.2573  -13.8168   20.5675 C   0  0  0  0  0  0
  -24.1830  -13.0441   20.9180 C   0  0  0  0  0  0
  -24.6388  -11.6910   20.8727 C   0  0  0  0  0  0
  -23.9054  -10.4291   21.0393 C   0  0  0  0  0  0
  -24.3603   -9.4210   21.9175 C   0  0  0  0  0  0
  -23.6283   -8.2246   22.0748 C   0  0  0  0  0  0
  -22.4266   -8.0280   21.3546 C   0  0  0  0  0  0
  -21.9898   -9.0250   20.4645 C   0  0  0  0  0  0
  -22.7226  -10.2130   20.3046 C   0  0  0  0  0  0
  -21.6856   -6.0728   22.5278 C   0  0  0  0  0  0
  -21.4018   -6.5629   23.8211 C   0  0  0  0  0  0
  -21.3659   -5.6784   24.9173 C   0  0  0  0  0  0
  -21.6042   -4.3046   24.7227 C   0  0  0  0  0  0
  -21.8820   -3.8139   23.4349 C   0  0  0  0  0  0
  -21.9197   -4.6954   22.3403 C   0  0  0  0  0  0
  -22.7851  -13.5241   21.1843 C   0  0  0  0  0  0
  -22.1664   -4.2140   21.0983 F   0  0  0  0  0  0
  -21.5626   -3.4533   25.7739 F   0  0  0  0  0  0
  -30.0289  -13.3069   20.4377 N   0  0  0  0  0  0
  -26.3012  -12.9347   20.3355 N   0  0  0  0  0  0
  -25.9318  -11.6501   20.5748 N   0  0  0  0  0  0
  -22.0485  -12.8239   22.0391 N   0  0  0  0  0  0
  -25.4290  -15.1878   20.4056 N   0  0  0  0  0  0
  -31.8396  -14.6390   20.0960 O   0  0  0  0  0  0
  -21.6640   -6.8870   21.4239 O   0  0  0  0  0  0
  -22.3545  -14.5555   20.6696 O   0  0  0  0  0  0
  -24.6157  -31.8678   23.2095 C   0  0  0  0  0  0
  -25.9048  -32.4818   23.8396 C   0  0  1  0  0  0
  -27.2263  -27.4245   20.1028 C   0  0  0  0  0  0
  -25.5902  -33.8615   24.2333 N   0  0  0  0  0  0
  -23.4039  -30.4914   21.5503 C   0  0  2  0  0  0
  -24.8507  -28.9585   20.1117 C   0  0  0  0  0  0
  -22.7424  -29.4653   22.4985 C   0  0  0  0  0  0
  -18.0277  -28.1374   22.8490 C   0  0  0  0  0  0
  -24.1487  -36.7308   23.2637 C   0  0  0  0  0  0
  -25.9338  -30.8327   21.3625 C   0  0  0  0  0  0
  -26.0127  -29.4673   20.7070 C   0  0  0  0  0  0
  -27.2083  -28.7096   20.6945 C   0  0  0  0  0  0
  -26.0518  -26.9361   19.4936 C   0  0  0  0  0  0
  -24.8661  -27.6938   19.4986 C   0  0  0  0  0  0
  -23.6123  -29.8250   20.1642 C   0  0  0  0  0  0
  -25.4103  -36.3105   24.0344 C   0  0  1  0  0  0
  -20.5868  -28.3660   23.1316 C   0  0  2  0  0  0
  -20.6766  -26.9395   22.5416 C   0  0  0  0  0  0
  -19.5745  -26.6381   21.5209 C   0  0  0  0  0  0
  -18.1922  -26.7924   22.1615 C   0  0  0  0  0  0
  -19.1526  -28.8835   23.2899 C   0  0  0  0  0  0
  -18.9453  -30.1444   23.8903 C   0  0  0  0  0  0
  -17.6454  -30.6582   24.0559 C   0  0  0  0  0  0
  -25.9030  -34.9472   23.5133 C   0  0  0  0  0  0
  -16.5344  -29.9079   23.6324 C   0  0  0  0  0  0
  -16.7266  -28.6494   23.0347 C   0  0  0  0  0  0
  -26.4469  -31.6592   25.0724 C   0  0  0  0  0  0
  -25.3733  -31.3704   26.1474 C   0  0  0  0  0  0
  -27.0295  -30.3036   24.6093 C   0  0  0  0  0  0
  -27.6062  -32.4295   25.7477 C   0  0  0  0  0  0
  -27.5581  -37.1806   24.8459 C   0  0  0  0  0  0
  -21.4150  -29.3028   22.3729 N   0  0  0  0  0  0
  -26.4289  -37.3788   23.9411 N   0  0  0  0  0  0
  -24.6695  -31.0782   22.0992 N   0  0  0  0  0  0
  -23.4198  -28.8190   23.3023 O   0  0  0  0  0  0
  -28.3599  -26.6401   20.1229 O   0  0  0  0  0  0
  -26.5590  -34.8923   22.4693 O   0  0  0  0  0  0
  -23.5346  -32.1428   23.7488 O   0  0  0  0  0  0
  -28.3178  -19.7456   21.3645 C   0  0  0  0  0  0
  -28.6689  -18.4073   21.7539 C   0  0  0  0  0  0
  -29.9004  -18.0178   21.2740 C   0  0  0  0  0  0
  -29.2660  -20.3738   20.5942 C   0  0  0  0  0  0
  -28.7950  -24.1733   20.0971 C   0  0  0  0  0  0
  -27.8006  -17.5534   22.6308 C   0  0  0  0  0  0
  -30.7007  -16.7677   21.5798 C   0  0  0  0  0  0
  -28.5308  -22.7697   20.7036 C   0  0  0  0  0  0
  -28.1816  -25.3891   20.8292 C   0  0  0  0  0  0
  -29.2884  -21.6764   20.0705 N   0  0  0  0  0  0
  -30.0868  -15.4737   21.2272 N   0  0  0  0  0  0
  -29.4822  -24.3036   19.0766 O   0  0  0  0  0  0
  -30.6012  -19.2890   20.2879 S   0  0  0  0  0  0
  -31.4608  -12.4035   19.1201 H   0  0  0  0  0  0
  -30.3084  -11.3056   19.8214 H   0  0  0  0  0  0
  -29.7339  -11.7912   17.4221 H   0  0  0  0  0  0
  -29.6612  -13.5002   17.7695 H   0  0  0  0  0  0
  -27.8261  -11.3155   18.8140 H   0  0  0  0  0  0
  -27.3633  -12.6451   17.7852 H   0  0  0  0  0  0
  -27.7010  -14.2596   19.5724 H   0  0  0  0  0  0
  -28.6787  -11.9721   21.3463 H   0  0  0  0  0  0
  -28.4610  -13.6150   21.8661 H   0  0  0  0  0  0
  -25.2745   -9.5695   22.4754 H   0  0  0  0  0  0
  -23.9999   -7.4637   22.7464 H   0  0  0  0  0  0
  -21.0834   -8.8761   19.8951 H   0  0  0  0  0  0
  -22.3677  -10.9661   19.6152 H   0  0  0  0  0  0
  -21.2010   -7.6137   23.9713 H   0  0  0  0  0  0
  -21.1477   -6.0512   25.9077 H   0  0  0  0  0  0
  -22.0597   -2.7602   23.2855 H   0  0  0  0  0  0
  -22.4076  -11.9894   22.4785 H   0  0  0  0  0  0
  -21.1096  -13.1274   22.2569 H   0  0  0  0  0  0
  -24.6609  -15.8424   20.5021 H   0  0  0  0  0  0
  -26.2770  -15.6213   20.0625 H   0  0  0  0  0  0
  -26.7124  -32.5531   23.1166 H   0  0  0  0  0  0
  -25.0068  -33.9777   25.0489 H   0  0  0  0  0  0
  -22.6921  -31.3084   21.4127 H   0  0  0  0  0  0
  -23.3754  -35.9635   23.3297 H   0  0  0  0  0  0
  -24.3588  -36.8921   22.2052 H   0  0  0  0  0  0
  -23.7234  -37.6512   23.6650 H   0  0  0  0  0  0
  -26.0485  -31.6009   20.5964 H   0  0  0  0  0  0
  -26.8204  -30.8848   21.9827 H   0  0  0  0  0  0
  -28.1049  -29.0955   21.1591 H   0  0  0  0  0  0
  -26.0505  -25.9633   19.0216 H   0  0  0  0  0  0
  -23.9736  -27.2984   19.0334 H   0  0  0  0  0  0
  -23.7201  -30.6009   19.4054 H   0  0  0  0  0  0
  -22.7361  -29.2448   19.8689 H   0  0  0  0  0  0
  -25.1277  -36.1968   25.0836 H   0  0  0  0  0  0
  -20.9962  -28.3224   24.1436 H   0  0  0  0  0  0
  -20.5669  -26.2265   23.3600 H   0  0  0  0  0  0
  -21.6640  -26.7440   22.1210 H   0  0  0  0  0  0
  -19.6905  -25.6294   21.1232 H   0  0  0  0  0  0
  -19.6684  -27.3199   20.6746 H   0  0  0  0  0  0
  -17.4196  -26.6690   21.4008 H   0  0  0  0  0  0
  -18.0311  -26.0057   22.8998 H   0  0  0  0  0  0
  -19.7929  -30.7261   24.2272 H   0  0  0  0  0  0
  -17.5007  -31.6266   24.5154 H   0  0  0  0  0  0
  -15.5343  -30.2977   23.7641 H   0  0  0  0  0  0
  -15.8670  -28.0809   22.7055 H   0  0  0  0  0  0
  -24.5892  -30.7068   25.7808 H   0  0  0  0  0  0
  -24.8934  -32.2858   26.4943 H   0  0  0  0  0  0
  -25.8077  -30.8852   27.0221 H   0  0  0  0  0  0
  -26.2835  -29.6807   24.1142 H   0  0  0  0  0  0
  -27.4068  -29.7264   25.4544 H   0  0  0  0  0  0
  -27.8671  -30.4363   23.9239 H   0  0  0  0  0  0
  -27.2713  -33.3603   26.2064 H   0  0  0  0  0  0
  -28.3862  -32.6828   25.0285 H   0  0  0  0  0  0
  -28.0736  -31.8401   26.5374 H   0  0  0  0  0  0
  -28.2593  -38.0109   24.7521 H   0  0  0  0  0  0
  -28.1081  -36.2642   24.6257 H   0  0  0  0  0  0
  -27.2309  -37.1436   25.8865 H   0  0  0  0  0  0
  -20.9310  -29.8751   21.6953 H   0  0  0  0  0  0
  -26.0180  -38.2868   24.1406 H   0  0  0  0  0  0
  -27.3892  -20.1993   21.6812 H   0  0  0  0  0  0
  -27.0173  -18.1392   23.1134 H   0  0  0  0  0  0
  -28.3768  -17.0756   23.4237 H   0  0  0  0  0  0
  -27.3099  -16.7665   22.0582 H   0  0  0  0  0  0
  -30.8982  -16.7402   22.6519 H   0  0  0  0  0  0
  -31.6865  -16.8685   21.1222 H   0  0  0  0  0  0
  -27.4625  -22.5622   20.6286 H   0  0  0  0  0  0
  -28.7731  -22.8064   21.7666 H   0  0  0  0  0  0
  -28.6611  -25.4761   21.8043 H   0  0  0  0  0  0
  -27.1306  -25.1738   21.0255 H   0  0  0  0  0  0
  -30.0678  -21.9956   19.4969 H   0  0  0  0  0  0
  -29.1583  -15.2859   21.5712 H   0  0  0  0  0  0
  1 25  1  0  0  0
  1 30  2  0  0  0
  1 81  1  0  0  0
  2  3  1  0  0  0
  2 25  1  0  0  0
  2 84  1  0  0  0
  2 85  1  0  0  0
  3  4  1  0  0  0
  3 86  1  0  0  0
  3 87  1  0  0  0
  4  5  1  0  0  0
  4 88  1  0  0  0
  4 89  1  0  0  0
  5  6  1  0  0  0
  5 26  1  0  0  0
  5 90  1  0  0  0
  6 25  1  0  0  0
  6 91  1  0  0  0
  6 92  1  0  0  0
  7  8  2  0  0  0
  7 26  1  0  0  0
  7 29  1  0  0  0
  8  9  1  0  0  0
  8 22  1  0  0  0
  9 10  1  0  0  0
  9 27  2  0  0  0
 10 11  2  0  0  0
 10 15  1  0  0  0
 11 12  1  0  0  0
 11 93  1  0  0  0
 12 13  2  0  0  0
 12 94  1  0  0  0
 13 14  1  0  0  0
 13 31  1  0  0  0
 14 15  2  0  0  0
 14 95  1  0  0  0
 15 96  1  0  0  0
 16 17  2  0  0  0
 16 21  1  0  0  0
 16 31  1  0  0  0
 17 18  1  0  0  0
 17 97  1  0  0  0
 18 19  2  0  0  0
 18 98  1  0  0  0
 19 20  1  0  0  0
 19 24  1  0  0  0
 20 21  2  0  0  0
 20 99  1  0  0  0
 21 23  1  0  0  0
 22 28  1  0  0  0
 22 32  2  0  0  0
 26 27  1  0  0  0
 28100  1  0  0  0
 28101  1  0  0  0
 29102  1  0  0  0
 29103  1  0  0  0
 33 34  1  0  0  0
 33 66  1  0  0  0
 33 70  2  0  0  0
 34 36  1  0  0  0
 34 59  1  0  0  0
 34104  1  0  0  0
 35 44  2  0  0  0
 35 45  1  0  0  0
 35 68  1  0  0  0
 36 56  1  0  0  0
 36105  1  0  0  0
 37 39  1  0  0  0
 37 47  1  0  0  0
 37 66  1  0  0  0
 37106  1  0  0  0
 38 43  2  0  0  0
 38 46  1  0  0  0
 38 47  1  0  0  0
 39 64  1  0  0  0
 39 67  2  0  0  0
 40 52  1  0  0  0
 40 53  2  0  0  0
 40 58  1  0  0  0
 41107  1  0  0  0
 41108  1  0  0  0
 41109  1  0  0  0
 41 48  1  0  0  0
 42 43  1  0  0  0
 42 66  1  0  0  0
 42110  1  0  0  0
 42111  1  0  0  0
 43 44  1  0  0  0
 44112  1  0  0  0
 45 46  2  0  0  0
 45113  1  0  0  0
 46114  1  0  0  0
 47115  1  0  0  0
 47116  1  0  0  0
 48 56  1  0  0  0
 48 65  1  0  0  0
 48117  1  0  0  0
 49 50  1  0  0  0
 49 53  1  0  0  0
 49 64  1  0  0  0
 49118  1  0  0  0
 50 51  1  0  0  0
 50119  1  0  0  0
 50120  1  0  0  0
 51 52  1  0  0  0
 51121  1  0  0  0
 51122  1  0  0  0
 52123  1  0  0  0
 52124  1  0  0  0
 53 54  1  0  0  0
 54 55  2  0  0  0
 54125  1  0  0  0
 55 57  1  0  0  0
 55126  1  0  0  0
 56 69  2  0  0  0
 57 58  2  0  0  0
 57127  1  0  0  0
 58128  1  0  0  0
 59 60  1  0  0  0
 59 61  1  0  0  0
 59 62  1  0  0  0
 60129  1  0  0  0
 60130  1  0  0  0
 60131  1  0  0  0
 61132  1  0  0  0
 61133  1  0  0  0
 61134  1  0  0  0
 62135  1  0  0  0
 62136  1  0  0  0
 62137  1  0  0  0
 63 65  1  0  0  0
 63138  1  0  0  0
 63139  1  0  0  0
 63140  1  0  0  0
 64141  1  0  0  0
 65142  1  0  0  0
 68 79  1  0  0  0
 71 72  1  0  0  0
 71 74  2  0  0  0
 71143  1  0  0  0
 72 73  2  0  0  0
 72 76  1  0  0  0
 73 77  1  0  0  0
 73 83  1  0  0  0
 74 80  1  0  0  0
 74 83  1  0  0  0
 75 78  1  0  0  0
 75 79  1  0  0  0
 75 82  2  0  0  0
 76144  1  0  0  0
 76145  1  0  0  0
 76146  1  0  0  0
 77 81  1  0  0  0
 77147  1  0  0  0
 77148  1  0  0  0
 78 80  1  0  0  0
 78149  1  0  0  0
 78150  1  0  0  0
 79151  1  0  0  0
 79152  1  0  0  0
 80153  1  0  0  0
 81154  1  0  0  0
M  ISO  4   1 100  68 101  79 101  81 100
M  END
> <chiral flag>
0

> <version>
0

> <s_m_source_file>
/data/baiqing/PycharmProjects/Reinvent-master-3.2/result/LINK_invent/BTK/process_docking_weight1_custom_product_contain_oxygen_bond_distance_aromatic_linkinvent_7_9_3/rearranged_h_0103.sdf

> <i_m_source_file_index>
25

> <r_mmod_Potential_Energy-OPLS-2005>
-85.1548080444336

> <r_mmod_Stretch_Energy-OPLS-2005>
38.2424011230469

> <r_mmod_Bend_Energy-OPLS-2005>
99.5353240966797

> <r_mmod_Torsional_Energy-OPLS-2005>
216.497711181641

> <r_mmod_Improper_Torsional_Energy-OPLS-2005>
4.11951303482056

> <r_mmod_Van_der_Waal_Energy-OPLS-2005>
123.447547912598

> <r_mmod_Electrostatic_Energy-OPLS-2005>
-338.436126708984

> <r_mmod_Solvation_Energy-OPLS-2005>
-242.911560058594

> <b_mmod_Minimization_Converged-OPLS-2005>
0

> <r_mmod_RMS_Derivative-OPLS-2005>
0.951469242572784

$$$$
25
                    3D
 Structure written by MMmdl.
171180  0  0  1  0            999 V2000
  -30.7869  -14.4367   20.6000 C   0  0  0  0  0  0
  -30.4028  -12.2946   19.4279 C   0  0  0  0  0  0
  -29.4943  -12.5183   18.2020 C   0  0  0  0  0  0
  -28.0103  -12.4100   18.6013 C   0  0  0  0  0  0
  -27.6678  -13.2277   19.8758 C   0  0  2  0  0  0
  -28.7170  -13.0298   20.9988 C   0  0  0  0  0  0
  -25.2624  -13.8173   20.5724 C   0  0  0  0  0  0
  -24.1884  -13.0462   20.9157 C   0  0  0  0  0  0
  -24.6453  -11.6921   20.8728 C   0  0  0  0  0  0
  -23.9095  -10.4311   21.0379 C   0  0  0  0  0  0
  -24.3636   -9.4231   21.9175 C   0  0  0  0  0  0
  -23.6304   -8.2272   22.0763 C   0  0  0  0  0  0
  -22.4298   -8.0296   21.3539 C   0  0  0  0  0  0
  -21.9925   -9.0275   20.4659 C   0  0  0  0  0  0
  -22.7254  -10.2145   20.3049 C   0  0  0  0  0  0
  -21.6857   -6.0754   22.5281 C   0  0  0  0  0  0
  -21.4023   -6.5654   23.8219 C   0  0  0  0  0  0
  -21.3664   -5.6797   24.9174 C   0  0  0  0  0  0
  -21.6020   -4.3058   24.7214 C   0  0  0  0  0  0
  -21.8832   -3.8163   23.4341 C   0  0  0  0  0  0
  -21.9197   -4.6981   22.3400 C   0  0  0  0  0  0
  -22.7882  -13.5235   21.1790 C   0  0  0  0  0  0
  -22.1668   -4.2169   21.0973 F   0  0  0  0  0  0
  -21.5613   -3.4549   25.7725 F   0  0  0  0  0  0
  -30.0517  -13.2998   20.4427 N   0  0  0  0  0  0
  -26.3107  -12.9412   20.3433 N   0  0  0  0  0  0
  -25.9404  -11.6554   20.5794 N   0  0  0  0  0  0
  -22.0533  -12.8257   22.0349 N   0  0  0  0  0  0
  -25.4313  -15.1919   20.4125 N   0  0  0  0  0  0
  -31.8489  -14.6294   20.0121 O   0  0  0  0  0  0
  -21.6649   -6.8908   21.4245 O   0  0  0  0  0  0
  -22.3574  -14.5552   20.6623 O   0  0  0  0  0  0
  -24.6074  -31.8604   23.2297 C   0  0  0  0  0  0
  -25.9028  -32.4709   23.8553 C   0  0  1  0  0  0
  -27.2165  -27.4763   20.0631 C   0  0  0  0  0  0
  -25.5986  -33.8542   24.2462 N   0  0  0  0  0  0
  -23.3972  -30.4925   21.5561 C   0  0  2  0  0  0
  -24.8386  -28.9688   20.1116 C   0  0  0  0  0  0
  -22.7413  -29.4563   22.4957 C   0  0  0  0  0  0
  -18.0196  -28.1314   22.8449 C   0  0  0  0  0  0
  -24.1529  -36.7364   23.2592 C   0  0  0  0  0  0
  -25.9384  -30.8102   21.4167 C   0  0  0  0  0  0
  -25.9984  -29.4704   20.7250 C   0  0  0  0  0  0
  -27.1978  -28.7308   20.6930 C   0  0  0  0  0  0
  -26.0512  -26.9723   19.4502 C   0  0  0  0  0  0
  -24.8580  -27.7186   19.4655 C   0  0  0  0  0  0
  -23.6099  -29.8391   20.1632 C   0  0  0  0  0  0
  -25.4157  -36.3094   24.0320 C   0  0  1  0  0  0
  -20.5815  -28.3614   23.1291 C   0  0  2  0  0  0
  -20.6732  -26.9352   22.5355 C   0  0  0  0  0  0
  -19.5758  -26.6375   21.5122 C   0  0  0  0  0  0
  -18.1914  -26.7852   22.1532 C   0  0  0  0  0  0
  -19.1469  -28.8787   23.2851 C   0  0  0  0  0  0
  -18.9406  -30.1366   23.8885 C   0  0  0  0  0  0
  -17.6419  -30.6540   24.0534 C   0  0  0  0  0  0
  -25.9038  -34.9393   23.5169 C   0  0  0  0  0  0
  -16.5290  -29.9018   23.6345 C   0  0  0  0  0  0
  -16.7167  -28.6423   23.0374 C   0  0  0  0  0  0
  -26.4378  -31.6480   25.0950 C   0  0  0  0  0  0
  -25.3594  -31.3564   26.1614 C   0  0  0  0  0  0
  -27.0305  -30.2797   24.6706 C   0  0  0  0  0  0
  -27.5937  -32.4216   25.7701 C   0  0  0  0  0  0
  -27.5675  -37.1796   24.8479 C   0  0  0  0  0  0
  -21.4141  -29.2986   22.3738 N   0  0  0  0  0  0
  -26.4358  -37.3762   23.9394 N   0  0  0  0  0  0
  -24.6596  -31.0841   22.1115 N   0  0  0  0  0  0
  -23.4225  -28.7936   23.2833 O   0  0  0  0  0  0
  -28.3690  -26.7561   20.0056 O   0  0  0  0  0  0
  -26.5437  -34.8722   22.4656 O   0  0  0  0  0  0
  -23.5305  -32.1243   23.7839 O   0  0  0  0  0  0
  -29.5736  -17.9121   20.1199 C   0  0  0  0  0  0
  -29.9822  -20.2955   19.7232 C   0  0  0  0  0  0
  -31.4147  -19.0313   21.2341 C   0  0  0  0  0  0
  -29.2268  -19.1236   19.4871 C   0  0  0  0  0  0
  -30.6536  -17.8602   21.0234 C   0  0  0  0  0  0
  -31.0933  -20.2515   20.6046 C   0  0  0  0  0  0
  -30.3472  -25.0034   22.5104 C   0  0  0  0  0  0
  -30.8206  -27.0422   21.3691 C   0  0  0  0  0  0
  -31.9213  -26.0091   21.1244 C   0  0  0  0  0  0
  -29.6527  -26.2672   22.0245 C   0  0  1  0  0  0
  -28.0071  -19.1640   18.5813 C   0  0  0  0  0  0
  -32.2388  -22.9421   19.2023 C   0  0  0  0  0  0
  -30.9791  -16.5996   21.8312 C   0  0  0  0  0  0
  -28.5252  -25.8328   21.0644 C   0  0  0  0  0  0
  -32.1934  -23.5468   21.6860 C   0  0  0  0  0  0
  -31.5928  -22.6561   20.5663 C   0  0  2  0  0  0
  -31.4971  -24.8205   21.8447 N   0  0  0  0  0  0
  -30.2895  -15.3648   21.4332 N   0  0  0  0  0  0
  -29.8458  -24.2233   23.3241 O   0  0  0  0  0  0
  -31.9087  -21.3146   20.9394 O   0  0  0  0  0  0
  -31.4582  -12.3233   19.1506 H   0  0  0  0  0  0
  -30.2334  -11.2955   19.8407 H   0  0  0  0  0  0
  -29.7252  -11.7880   17.4248 H   0  0  0  0  0  0
  -29.6919  -13.5008   17.7676 H   0  0  0  0  0  0
  -27.7770  -11.3540   18.7528 H   0  0  0  0  0  0
  -27.3830  -12.7439   17.7767 H   0  0  0  0  0  0
  -27.7043  -14.2779   19.5829 H   0  0  0  0  0  0
  -28.6933  -12.0056   21.3800 H   0  0  0  0  0  0
  -28.4833  -13.6671   21.8540 H   0  0  0  0  0  0
  -25.2794   -9.5698   22.4749 H   0  0  0  0  0  0
  -24.0010   -7.4666   22.7495 H   0  0  0  0  0  0
  -21.0854   -8.8800   19.8968 H   0  0  0  0  0  0
  -22.3728  -10.9683   19.6157 H   0  0  0  0  0  0
  -21.2039   -7.6169   23.9722 H   0  0  0  0  0  0
  -21.1453   -6.0532   25.9067 H   0  0  0  0  0  0
  -22.0605   -2.7630   23.2832 H   0  0  0  0  0  0
  -22.4153  -11.9905   22.4727 H   0  0  0  0  0  0
  -21.1150  -13.1283   22.2535 H   0  0  0  0  0  0
  -24.6615  -15.8453   20.5165 H   0  0  0  0  0  0
  -26.2883  -15.6372   20.1120 H   0  0  0  0  0  0
  -26.7034  -32.5375   23.1243 H   0  0  0  0  0  0
  -25.0317  -33.9730   25.0749 H   0  0  0  0  0  0
  -22.6821  -31.3056   21.4198 H   0  0  0  0  0  0
  -23.3683  -35.9827   23.3299 H   0  0  0  0  0  0
  -24.3655  -36.8920   22.1994 H   0  0  0  0  0  0
  -23.7328  -37.6628   23.6542 H   0  0  0  0  0  0
  -26.1735  -31.6004   20.7048 H   0  0  0  0  0  0
  -26.7823  -30.7658   22.0962 H   0  0  0  0  0  0
  -28.1062  -29.1109   21.1448 H   0  0  0  0  0  0
  -26.0866  -26.0181   18.9394 H   0  0  0  0  0  0
  -23.9731  -27.3407   18.9623 H   0  0  0  0  0  0
  -23.7354  -30.6266   19.4157 H   0  0  0  0  0  0
  -22.7320  -29.2612   19.8564 H   0  0  0  0  0  0
  -25.1304  -36.2054   25.0820 H   0  0  0  0  0  0
  -20.9856  -28.3121   24.1426 H   0  0  0  0  0  0
  -20.5663  -26.2180   23.3520 H   0  0  0  0  0  0
  -21.6599  -26.7422   22.1108 H   0  0  0  0  0  0
  -19.7038  -25.6339   21.1033 H   0  0  0  0  0  0
  -19.6731  -27.3259   20.6717 H   0  0  0  0  0  0
  -17.4199  -26.6509   21.3901 H   0  0  0  0  0  0
  -18.0336  -25.9989   22.8953 H   0  0  0  0  0  0
  -19.7894  -30.7137   24.2303 H   0  0  0  0  0  0
  -17.4985  -31.6241   24.5101 H   0  0  0  0  0  0
  -15.5316  -30.2953   23.7726 H   0  0  0  0  0  0
  -15.8501  -28.0749   22.7180 H   0  0  0  0  0  0
  -24.6180  -30.6452   25.7983 H   0  0  0  0  0  0
  -24.8258  -32.2608   26.4564 H   0  0  0  0  0  0
  -25.7904  -30.9296   27.0698 H   0  0  0  0  0  0
  -26.3116  -29.6665   24.1289 H   0  0  0  0  0  0
  -27.3280  -29.6998   25.5453 H   0  0  0  0  0  0
  -27.9154  -30.3954   24.0477 H   0  0  0  0  0  0
  -27.2455  -33.3416   26.2530 H   0  0  0  0  0  0
  -28.3498  -32.7011   25.0374 H   0  0  0  0  0  0
  -28.0897  -31.8368   26.5481 H   0  0  0  0  0  0
  -28.2750  -38.0054   24.7605 H   0  0  0  0  0  0
  -28.1132  -36.2589   24.6286 H   0  0  0  0  0  0
  -27.2413  -37.1506   25.8897 H   0  0  0  0  0  0
  -20.9331  -29.8816   21.7073 H   0  0  0  0  0  0
  -26.0209  -38.2838   24.1484 H   0  0  0  0  0  0
  -28.9804  -17.0296   19.9365 H   0  0  0  0  0  0
  -29.6859  -21.2114   19.2276 H   0  0  0  0  0  0
  -32.2533  -19.0261   21.9177 H   0  0  0  0  0  0
  -30.5543  -27.5609   20.4433 H   0  0  0  0  0  0
  -31.1841  -27.8113   22.0568 H   0  0  0  0  0  0
  -32.8816  -26.3570   21.5046 H   0  0  0  0  0  0
  -32.0134  -25.8130   20.0580 H   0  0  0  0  0  0
  -29.2212  -26.8448   22.8455 H   0  0  0  0  0  0
  -27.9701  -18.2916   17.9239 H   0  0  0  0  0  0
  -28.0007  -20.0616   17.9585 H   0  0  0  0  0  0
  -27.0930  -19.1615   19.1811 H   0  0  0  0  0  0
  -32.0968  -23.9704   18.8739 H   0  0  0  0  0  0
  -31.8360  -22.2975   18.4249 H   0  0  0  0  0  0
  -33.3144  -22.7717   19.2527 H   0  0  0  0  0  0
  -30.6717  -16.8190   22.8581 H   0  0  0  0  0  0
  -32.0594  -16.4318   21.8716 H   0  0  0  0  0  0
  -27.5965  -25.6949   21.6312 H   0  0  0  0  0  0
  -28.7291  -24.8653   20.6022 H   0  0  0  0  0  0
  -33.2603  -23.7161   21.5299 H   0  0  0  0  0  0
  -32.1191  -23.0031   22.6237 H   0  0  0  0  0  0
  -30.5092  -22.8151   20.5275 H   0  0  0  0  0  0
  -29.4018  -15.1781   21.8692 H   0  0  0  0  0  0
  1 25  1  0  0  0
  1 30  2  0  0  0
  1 88  1  0  0  0
  2  3  1  0  0  0
  2 25  1  0  0  0
  2 91  1  0  0  0
  2 92  1  0  0  0
  3  4  1  0  0  0
  3 93  1  0  0  0
  3 94  1  0  0  0
  4  5  1  0  0  0
  4 95  1  0  0  0
  4 96  1  0  0  0
  5  6  1  0  0  0
  5 26  1  0  0  0
  5 97  1  0  0  0
  6 25  1  0  0  0
  6 98  1  0  0  0
  6 99  1  0  0  0
  7  8  2  0  0  0
  7 26  1  0  0  0
  7 29  1  0  0  0
  8  9  1  0  0  0
  8 22  1  0  0  0
  9 10  1  0  0  0
  9 27  2  0  0  0
 10 11  2  0  0  0
 10 15  1  0  0  0
 11 12  1  0  0  0
 11100  1  0  0  0
 12 13  2  0  0  0
 12101  1  0  0  0
 13 14  1  0  0  0
 13 31  1  0  0  0
 14 15  2  0  0  0
 14102  1  0  0  0
 15103  1  0  0  0
 16 17  2  0  0  0
 16 21  1  0  0  0
 16 31  1  0  0  0
 17 18  1  0  0  0
 17104  1  0  0  0
 18 19  2  0  0  0
 18105  1  0  0  0
 19 20  1  0  0  0
 19 24  1  0  0  0
 20 21  2  0  0  0
 20106  1  0  0  0
 21 23  1  0  0  0
 22 28  1  0  0  0
 22 32  2  0  0  0
 26 27  1  0  0  0
 28107  1  0  0  0
 28108  1  0  0  0
 29109  1  0  0  0
 29110  1  0  0  0
 33 34  1  0  0  0
 33 66  1  0  0  0
 33 70  2  0  0  0
 34 36  1  0  0  0
 34 59  1  0  0  0
 34111  1  0  0  0
 35 44  2  0  0  0
 35 45  1  0  0  0
 35 68  1  0  0  0
 36 56  1  0  0  0
 36112  1  0  0  0
 37 39  1  0  0  0
 37 47  1  0  0  0
 37 66  1  0  0  0
 37113  1  0  0  0
 38 43  2  0  0  0
 38 46  1  0  0  0
 38 47  1  0  0  0
 39 64  1  0  0  0
 39 67  2  0  0  0
 40 52  1  0  0  0
 40 53  2  0  0  0
 40 58  1  0  0  0
 41114  1  0  0  0
 41115  1  0  0  0
 41116  1  0  0  0
 41 48  1  0  0  0
 42 43  1  0  0  0
 42 66  1  0  0  0
 42117  1  0  0  0
 42118  1  0  0  0
 43 44  1  0  0  0
 44119  1  0  0  0
 45 46  2  0  0  0
 45120  1  0  0  0
 46121  1  0  0  0
 47122  1  0  0  0
 47123  1  0  0  0
 48 56  1  0  0  0
 48 65  1  0  0  0
 48124  1  0  0  0
 49 50  1  0  0  0
 49 53  1  0  0  0
 49 64  1  0  0  0
 49125  1  0  0  0
 50 51  1  0  0  0
 50126  1  0  0  0
 50127  1  0  0  0
 51 52  1  0  0  0
 51128  1  0  0  0
 51129  1  0  0  0
 52130  1  0  0  0
 52131  1  0  0  0
 53 54  1  0  0  0
 54 55  2  0  0  0
 54132  1  0  0  0
 55 57  1  0  0  0
 55133  1  0  0  0
 56 69  2  0  0  0
 57 58  2  0  0  0
 57134  1  0  0  0
 58135  1  0  0  0
 59 60  1  0  0  0
 59 61  1  0  0  0
 59 62  1  0  0  0
 60136  1  0  0  0
 60137  1  0  0  0
 60138  1  0  0  0
 61139  1  0  0  0
 61140  1  0  0  0
 61141  1  0  0  0
 62142  1  0  0  0
 62143  1  0  0  0
 62144  1  0  0  0
 63 65  1  0  0  0
 63145  1  0  0  0
 63146  1  0  0  0
 63147  1  0  0  0
 64148  1  0  0  0
 65149  1  0  0  0
 68 84  1  0  0  0
 71 74  2  0  0  0
 71 75  1  0  0  0
 71150  1  0  0  0
 72 74  1  0  0  0
 72 76  2  0  0  0
 72151  1  0  0  0
 73 75  2  0  0  0
 73 76  1  0  0  0
 73152  1  0  0  0
 74 81  1  0  0  0
 75 83  1  0  0  0
 76 90  1  0  0  0
 77 80  1  0  0  0
 77 87  1  0  0  0
 77 89  2  0  0  0
 78 79  1  0  0  0
 78 80  1  0  0  0
 78153  1  0  0  0
 78154  1  0  0  0
 79 87  1  0  0  0
 79155  1  0  0  0
 79156  1  0  0  0
 80 84  1  0  0  0
 80157  1  0  0  0
 81158  1  0  0  0
 81159  1  0  0  0
 81160  1  0  0  0
 82161  1  0  0  0
 82162  1  0  0  0
 82163  1  0  0  0
 82 86  1  0  0  0
 83 88  1  0  0  0
 83164  1  0  0  0
 83165  1  0  0  0
 84166  1  0  0  0
 84167  1  0  0  0
 85 86  1  0  0  0
 85 87  1  0  0  0
 85168  1  0  0  0
 85169  1  0  0  0
 86 90  1  0  0  0
 86170  1  0  0  0
 88171  1  0  0  0
M  ISO  4   1 100  68 101  84 101  88 100
M  END
> <chiral flag>
0

> <version>
0

> <s_m_source_file>
/data/baiqing/PycharmProjects/Reinvent-master-3.2/result/LINK_invent/BTK/process_docking_weight1_custom_product_contain_oxygen_bond_distance_aromatic_linkinvent_7_9_3/rearranged_h_0103.sdf

> <i_m_source_file_index>
26

> <r_mmod_Potential_Energy-OPLS-2005>
-64.9244232177734

> <r_mmod_Stretch_Energy-OPLS-2005>
37.3532981872559

> <r_mmod_Bend_Energy-OPLS-2005>
136.874542236328

> <r_mmod_Torsional_Energy-OPLS-2005>
280.008544921875

> <r_mmod_Improper_Torsional_Energy-OPLS-2005>
2.87614822387695

> <r_mmod_Van_der_Waal_Energy-OPLS-2005>
145.525390625

> <r_mmod_Electrostatic_Energy-OPLS-2005>
-442.392181396484

> <r_mmod_Solvation_Energy-OPLS-2005>
-238.753936767578

> <b_mmod_Minimization_Converged-OPLS-2005>
0

> <r_mmod_RMS_Derivative-OPLS-2005>
9.38614368438721

$$$$
26
                    3D
 Structure written by MMmdl.
165174  0  0  1  0            999 V2000
  -30.7215  -14.3256   20.6721 C   0  0  0  0  0  0
  -30.4306  -12.2658   19.3540 C   0  0  0  0  0  0
  -29.4840  -12.5230   18.1660 C   0  0  0  0  0  0
  -28.0112  -12.3666   18.5989 C   0  0  0  0  0  0
  -27.6742  -13.1769   19.8794 C   0  0  2  0  0  0
  -28.7083  -12.8526   20.9760 C   0  0  0  0  0  0
  -25.2708  -13.8093   20.5627 C   0  0  0  0  0  0
  -24.1932  -13.0427   20.9156 C   0  0  0  0  0  0
  -24.6446  -11.6879   20.8754 C   0  0  0  0  0  0
  -23.9102  -10.4293   21.0444 C   0  0  0  0  0  0
  -24.3650   -9.4192   21.9212 C   0  0  0  0  0  0
  -23.6304   -8.2231   22.0774 C   0  0  0  0  0  0
  -22.4275   -8.0301   21.3571 C   0  0  0  0  0  0
  -21.9933   -9.0287   20.4670 C   0  0  0  0  0  0
  -22.7285  -10.2154   20.3086 C   0  0  0  0  0  0
  -21.6851   -6.0754   22.5290 C   0  0  0  0  0  0
  -21.4002   -6.5644   23.8232 C   0  0  0  0  0  0
  -21.3647   -5.6786   24.9183 C   0  0  0  0  0  0
  -21.6051   -4.3056   24.7231 C   0  0  0  0  0  0
  -21.8817   -3.8157   23.4348 C   0  0  0  0  0  0
  -21.9198   -4.6978   22.3409 C   0  0  0  0  0  0
  -22.7973  -13.5276   21.1810 C   0  0  0  0  0  0
  -22.1665   -4.2171   21.0987 F   0  0  0  0  0  0
  -21.5634   -3.4531   25.7736 F   0  0  0  0  0  0
  -30.0477  -13.1743   20.4401 N   0  0  0  0  0  0
  -26.3103  -12.9198   20.3334 N   0  0  0  0  0  0
  -25.9350  -11.6387   20.5728 N   0  0  0  0  0  0
  -22.0588  -12.8296   22.0349 N   0  0  0  0  0  0
  -25.4507  -15.1789   20.4004 N   0  0  0  0  0  0
  -31.7705  -14.6451   20.1076 O   0  0  0  0  0  0
  -21.6635   -6.8905   21.4255 O   0  0  0  0  0  0
  -22.3702  -14.5607   20.6674 O   0  0  0  0  0  0
  -24.6203  -31.8661   23.2076 C   0  0  0  0  0  0
  -25.9096  -32.4795   23.8365 C   0  0  1  0  0  0
  -27.2249  -27.4139   20.1035 C   0  0  0  0  0  0
  -25.5956  -33.8598   24.2315 N   0  0  0  0  0  0
  -23.4078  -30.4896   21.5467 C   0  0  2  0  0  0
  -24.8514  -28.9497   20.1107 C   0  0  0  0  0  0
  -22.7439  -29.4687   22.4993 C   0  0  0  0  0  0
  -18.0292  -28.1361   22.8471 C   0  0  0  0  0  0
  -24.1500  -36.7311   23.2626 C   0  0  0  0  0  0
  -25.9380  -30.8256   21.3607 C   0  0  0  0  0  0
  -26.0119  -29.4587   20.7071 C   0  0  0  0  0  0
  -27.2044  -28.6987   20.6963 C   0  0  0  0  0  0
  -26.0543  -26.9257   19.4942 C   0  0  0  0  0  0
  -24.8656  -27.6826   19.4971 C   0  0  0  0  0  0
  -23.6133  -29.8178   20.1618 C   0  0  0  0  0  0
  -25.4105  -36.3096   24.0337 C   0  0  1  0  0  0
  -20.5879  -28.3667   23.1286 C   0  0  2  0  0  0
  -20.6783  -26.9398   22.5398 C   0  0  0  0  0  0
  -19.5763  -26.6381   21.5209 C   0  0  0  0  0  0
  -18.1943  -26.7914   22.1624 C   0  0  0  0  0  0
  -19.1528  -28.8839   23.2874 C   0  0  0  0  0  0
  -18.9463  -30.1457   23.8874 C   0  0  0  0  0  0
  -17.6449  -30.6560   24.0574 C   0  0  0  0  0  0
  -25.9032  -34.9467   23.5107 C   0  0  0  0  0  0
  -16.5348  -29.9047   23.6341 C   0  0  0  0  0  0
  -16.7284  -28.6482   23.0341 C   0  0  0  0  0  0
  -26.4495  -31.6562   25.0697 C   0  0  0  0  0  0
  -25.3779  -31.3697   26.1478 C   0  0  0  0  0  0
  -27.0246  -30.2967   24.6077 C   0  0  0  0  0  0
  -27.6084  -32.4269   25.7446 C   0  0  0  0  0  0
  -27.5576  -37.1804   24.8458 C   0  0  0  0  0  0
  -21.4177  -29.3047   22.3716 N   0  0  0  0  0  0
  -26.4290  -37.3770   23.9412 N   0  0  0  0  0  0
  -24.6747  -31.0751   22.0963 N   0  0  0  0  0  0
  -23.4201  -28.8258   23.3076 O   0  0  0  0  0  0
  -28.3687  -26.6423   20.1123 O   0  0  0  0  0  0
  -26.5576  -34.8933   22.4656 O   0  0  0  0  0  0
  -23.5403  -32.1402   23.7482 O   0  0  0  0  0  0
  -28.9436  -17.5488   20.5582 C   0  0  0  0  0  0
  -28.4149  -18.7130   19.9747 C   0  0  0  0  0  0
  -30.2502  -20.0126   20.8830 C   0  0  0  0  0  0
  -30.1115  -17.6027   21.3472 C   0  0  0  0  0  0
  -29.0306  -19.9767   20.1663 C   0  0  0  0  0  0
  -30.7868  -18.8419   21.4782 C   0  0  0  0  0  0
  -26.7794  -23.6024   20.1858 C   0  0  0  0  0  0
  -28.0082  -24.1579   20.1343 C   0  0  0  0  0  0
  -26.2686  -22.4490   19.3443 C   0  0  0  0  0  0
  -29.1984  -23.5825   19.3481 C   0  0  0  0  0  0
  -26.9624  -21.0993   19.5533 C   0  0  0  0  0  0
  -29.1676  -22.0970   18.8685 C   0  0  0  0  0  0
  -30.5796  -16.3613   22.1151 C   0  0  0  0  0  0
  -28.2957  -25.4471   20.9204 C   0  0  0  0  0  0
  -28.4127  -21.1756   19.7238 N   0  0  0  0  0  0
  -31.9595  -18.9213   22.2361 N   0  0  0  0  0  0
  -30.1223  -15.0924   21.5841 N   0  0  0  0  0  0
  -31.4719  -12.3838   19.0481 H   0  0  0  0  0  0
  -30.3351  -11.2322   19.6880 H   0  0  0  0  0  0
  -29.7098  -11.8288   17.3560 H   0  0  0  0  0  0
  -29.6496  -13.5225   17.7604 H   0  0  0  0  0  0
  -27.8389  -11.3057   18.7810 H   0  0  0  0  0  0
  -27.3410  -12.6450   17.7856 H   0  0  0  0  0  0
  -27.7523  -14.2371   19.6385 H   0  0  0  0  0  0
  -28.6666  -11.7905   21.2238 H   0  0  0  0  0  0
  -28.4502  -13.3550   21.9090 H   0  0  0  0  0  0
  -25.2825   -9.5630   22.4765 H   0  0  0  0  0  0
  -24.0006   -7.4624   22.7499 H   0  0  0  0  0  0
  -21.0867   -8.8867   19.8980 H   0  0  0  0  0  0
  -22.3816  -10.9715   19.6188 H   0  0  0  0  0  0
  -21.1971   -7.6151   23.9745 H   0  0  0  0  0  0
  -21.1463   -6.0509   25.9095 H   0  0  0  0  0  0
  -22.0603   -2.7621   23.2845 H   0  0  0  0  0  0
  -22.4158  -11.9911   22.4687 H   0  0  0  0  0  0
  -21.1242  -13.1402   22.2588 H   0  0  0  0  0  0
  -24.6895  -15.8390   20.5113 H   0  0  0  0  0  0
  -26.3050  -15.6075   20.0672 H   0  0  0  0  0  0
  -26.7190  -32.5499   23.1145 H   0  0  0  0  0  0
  -25.0245  -33.9739   25.0557 H   0  0  0  0  0  0
  -22.6996  -31.3086   21.4017 H   0  0  0  0  0  0
  -23.3763  -35.9654   23.3298 H   0  0  0  0  0  0
  -24.3598  -36.8885   22.2036 H   0  0  0  0  0  0
  -23.7248  -37.6525   23.6613 H   0  0  0  0  0  0
  -26.0526  -31.5931   20.5949 H   0  0  0  0  0  0
  -26.8283  -30.8712   21.9758 H   0  0  0  0  0  0
  -28.1043  -29.0845   21.1534 H   0  0  0  0  0  0
  -26.0614  -25.9603   19.0113 H   0  0  0  0  0  0
  -23.9787  -27.2820   19.0278 H   0  0  0  0  0  0
  -23.7226  -30.5908   19.3995 H   0  0  0  0  0  0
  -22.7382  -29.2348   19.8740 H   0  0  0  0  0  0
  -25.1274  -36.1947   25.0828 H   0  0  0  0  0  0
  -20.9946  -28.3223   24.1430 H   0  0  0  0  0  0
  -20.5674  -26.2305   23.3593 H   0  0  0  0  0  0
  -21.6644  -26.7436   22.1186 H   0  0  0  0  0  0
  -19.6913  -25.6303   21.1240 H   0  0  0  0  0  0
  -19.6674  -27.3201   20.6739 H   0  0  0  0  0  0
  -17.4203  -26.6686   21.4034 H   0  0  0  0  0  0
  -18.0319  -26.0048   22.9005 H   0  0  0  0  0  0
  -19.7936  -30.7295   24.2199 H   0  0  0  0  0  0
  -17.5005  -31.6244   24.5177 H   0  0  0  0  0  0
  -15.5343  -30.2943   23.7665 H   0  0  0  0  0  0
  -15.8706  -28.0812   22.7008 H   0  0  0  0  0  0
  -24.6002  -30.6934   25.7902 H   0  0  0  0  0  0
  -24.8938  -32.2850   26.4894 H   0  0  0  0  0  0
  -25.8213  -30.8967   27.0240 H   0  0  0  0  0  0
  -26.2731  -29.6807   24.1125 H   0  0  0  0  0  0
  -27.3920  -29.7135   25.4520 H   0  0  0  0  0  0
  -27.8647  -30.4214   23.9236 H   0  0  0  0  0  0
  -27.2691  -33.3566   26.2028 H   0  0  0  0  0  0
  -28.3888  -32.6814   25.0255 H   0  0  0  0  0  0
  -28.0759  -31.8379   26.5340 H   0  0  0  0  0  0
  -28.2587  -38.0110   24.7506 H   0  0  0  0  0  0
  -28.1053  -36.2632   24.6259 H   0  0  0  0  0  0
  -27.2303  -37.1423   25.8862 H   0  0  0  0  0  0
  -20.9345  -29.8767   21.6927 H   0  0  0  0  0  0
  -26.0182  -38.2848   24.1413 H   0  0  0  0  0  0
  -28.4021  -16.6241   20.4247 H   0  0  0  0  0  0
  -27.5026  -18.6015   19.4066 H   0  0  0  0  0  0
  -30.7388  -20.9674   21.0191 H   0  0  0  0  0  0
  -26.0231  -24.0608   20.8087 H   0  0  0  0  0  0
  -26.3473  -22.7518   18.2990 H   0  0  0  0  0  0
  -25.2008  -22.3238   19.5377 H   0  0  0  0  0  0
  -30.0737  -23.6829   19.9919 H   0  0  0  0  0  0
  -29.3958  -24.2390   18.5002 H   0  0  0  0  0  0
  -26.7132  -20.4532   18.7108 H   0  0  0  0  0  0
  -26.5433  -20.6252   20.4427 H   0  0  0  0  0  0
  -30.1890  -21.7373   18.7257 H   0  0  0  0  0  0
  -28.7291  -22.0660   17.8702 H   0  0  0  0  0  0
  -30.1660  -16.4421   23.1220 H   0  0  0  0  0  0
  -31.6631  -16.3294   22.2305 H   0  0  0  0  0  0
  -29.2432  -25.3247   21.4479 H   0  0  0  0  0  0
  -27.5519  -25.5729   21.7098 H   0  0  0  0  0  0
  -32.5146  -19.7693   22.2835 H   0  0  0  0  0  0
  -32.4626  -18.0804   22.5037 H   0  0  0  0  0  0
  -29.2656  -14.7155   21.9609 H   0  0  0  0  0  0
  1 25  1  0  0  0
  1 30  2  0  0  0
  1 87  1  0  0  0
  2  3  1  0  0  0
  2 25  1  0  0  0
  2 88  1  0  0  0
  2 89  1  0  0  0
  3  4  1  0  0  0
  3 90  1  0  0  0
  3 91  1  0  0  0
  4  5  1  0  0  0
  4 92  1  0  0  0
  4 93  1  0  0  0
  5  6  1  0  0  0
  5 26  1  0  0  0
  5 94  1  0  0  0
  6 25  1  0  0  0
  6 95  1  0  0  0
  6 96  1  0  0  0
  7  8  2  0  0  0
  7 26  1  0  0  0
  7 29  1  0  0  0
  8  9  1  0  0  0
  8 22  1  0  0  0
  9 10  1  0  0  0
  9 27  2  0  0  0
 10 11  2  0  0  0
 10 15  1  0  0  0
 11 12  1  0  0  0
 11 97  1  0  0  0
 12 13  2  0  0  0
 12 98  1  0  0  0
 13 14  1  0  0  0
 13 31  1  0  0  0
 14 15  2  0  0  0
 14 99  1  0  0  0
 15100  1  0  0  0
 16 17  2  0  0  0
 16 21  1  0  0  0
 16 31  1  0  0  0
 17 18  1  0  0  0
 17101  1  0  0  0
 18 19  2  0  0  0
 18102  1  0  0  0
 19 20  1  0  0  0
 19 24  1  0  0  0
 20 21  2  0  0  0
 20103  1  0  0  0
 21 23  1  0  0  0
 22 28  1  0  0  0
 22 32  2  0  0  0
 26 27  1  0  0  0
 28104  1  0  0  0
 28105  1  0  0  0
 29106  1  0  0  0
 29107  1  0  0  0
 33 34  1  0  0  0
 33 66  1  0  0  0
 33 70  2  0  0  0
 34 36  1  0  0  0
 34 59  1  0  0  0
 34108  1  0  0  0
 35 44  2  0  0  0
 35 45  1  0  0  0
 35 68  1  0  0  0
 36 56  1  0  0  0
 36109  1  0  0  0
 37 39  1  0  0  0
 37 47  1  0  0  0
 37 66  1  0  0  0
 37110  1  0  0  0
 38 43  2  0  0  0
 38 46  1  0  0  0
 38 47  1  0  0  0
 39 64  1  0  0  0
 39 67  2  0  0  0
 40 52  1  0  0  0
 40 53  2  0  0  0
 40 58  1  0  0  0
 41111  1  0  0  0
 41112  1  0  0  0
 41113  1  0  0  0
 41 48  1  0  0  0
 42 43  1  0  0  0
 42 66  1  0  0  0
 42114  1  0  0  0
 42115  1  0  0  0
 43 44  1  0  0  0
 44116  1  0  0  0
 45 46  2  0  0  0
 45117  1  0  0  0
 46118  1  0  0  0
 47119  1  0  0  0
 47120  1  0  0  0
 48 56  1  0  0  0
 48 65  1  0  0  0
 48121  1  0  0  0
 49 50  1  0  0  0
 49 53  1  0  0  0
 49 64  1  0  0  0
 49122  1  0  0  0
 50 51  1  0  0  0
 50123  1  0  0  0
 50124  1  0  0  0
 51 52  1  0  0  0
 51125  1  0  0  0
 51126  1  0  0  0
 52127  1  0  0  0
 52128  1  0  0  0
 53 54  1  0  0  0
 54 55  2  0  0  0
 54129  1  0  0  0
 55 57  1  0  0  0
 55130  1  0  0  0
 56 69  2  0  0  0
 57 58  2  0  0  0
 57131  1  0  0  0
 58132  1  0  0  0
 59 60  1  0  0  0
 59 61  1  0  0  0
 59 62  1  0  0  0
 60133  1  0  0  0
 60134  1  0  0  0
 60135  1  0  0  0
 61136  1  0  0  0
 61137  1  0  0  0
 61138  1  0  0  0
 62139  1  0  0  0
 62140  1  0  0  0
 62141  1  0  0  0
 63 65  1  0  0  0
 63142  1  0  0  0
 63143  1  0  0  0
 63144  1  0  0  0
 64145  1  0  0  0
 65146  1  0  0  0
 68 84  1  0  0  0
 71 72  2  0  0  0
 71 74  1  0  0  0
 71147  1  0  0  0
 72 75  1  0  0  0
 72148  1  0  0  0
 73 75  2  0  0  0
 73 76  1  0  0  0
 73149  1  0  0  0
 74 76  2  0  0  0
 74 83  1  0  0  0
 75 85  1  0  0  0
 76 86  1  0  0  0
 77 78  2  0  0  0
 77 79  1  0  0  0
 77150  1  0  0  0
 78 80  1  0  0  0
 78 84  1  0  0  0
 79 81  1  0  0  0
 79151  1  0  0  0
 79152  1  0  0  0
 80 82  1  0  0  0
 80153  1  0  0  0
 80154  1  0  0  0
 81 85  1  0  0  0
 81155  1  0  0  0
 81156  1  0  0  0
 82 85  1  0  0  0
 82157  1  0  0  0
 82158  1  0  0  0
 83 87  1  0  0  0
 83159  1  0  0  0
 83160  1  0  0  0
 84161  1  0  0  0
 84162  1  0  0  0
 86163  1  0  0  0
 86164  1  0  0  0
 87165  1  0  0  0
M  ISO  4   1 100  68 101  84 101  87 100
M  END
> <chiral flag>
0

> <version>
0

> <s_m_source_file>
/data/baiqing/PycharmProjects/Reinvent-master-3.2/result/LINK_invent/BTK/process_docking_weight1_custom_product_contain_oxygen_bond_distance_aromatic_linkinvent_7_9_3/rearranged_h_0103.sdf

> <i_m_source_file_index>
27

> <r_mmod_Potential_Energy-OPLS-2005>
-33.8025245666504

> <r_mmod_Stretch_Energy-OPLS-2005>
40.19189453125

> <r_mmod_Bend_Energy-OPLS-2005>
118.545402526855

> <r_mmod_Torsional_Energy-OPLS-2005>
241.555801391602

> <r_mmod_Improper_Torsional_Energy-OPLS-2005>
5.56853055953979

> <r_mmod_Van_der_Waal_Energy-OPLS-2005>
166.798858642578

> <r_mmod_Electrostatic_Energy-OPLS-2005>
-387.503967285156

> <r_mmod_Solvation_Energy-OPLS-2005>
-231.349014282227

> <b_mmod_Minimization_Converged-OPLS-2005>
0

> <r_mmod_RMS_Derivative-OPLS-2005>
5.1391339302063

$$$$
27
                    3D
 Structure written by MMmdl.
171180  0  0  1  0            999 V2000
  -30.7601  -14.4198   20.6631 C   0  0  0  0  0  0
  -30.4171  -12.3160   19.4036 C   0  0  0  0  0  0
  -29.4849  -12.5206   18.1946 C   0  0  0  0  0  0
  -28.0099  -12.3663   18.6067 C   0  0  0  0  0  0
  -27.6622  -13.1926   19.8740 C   0  0  2  0  0  0
  -28.7036  -12.9735   20.9914 C   0  0  0  0  0  0
  -25.2619  -13.8128   20.5623 C   0  0  0  0  0  0
  -24.1845  -13.0451   20.9130 C   0  0  0  0  0  0
  -24.6370  -11.6909   20.8725 C   0  0  0  0  0  0
  -23.9022  -10.4310   21.0412 C   0  0  0  0  0  0
  -24.3585   -9.4225   21.9195 C   0  0  0  0  0  0
  -23.6268   -8.2251   22.0763 C   0  0  0  0  0  0
  -22.4251   -8.0277   21.3537 C   0  0  0  0  0  0
  -21.9874   -9.0248   20.4643 C   0  0  0  0  0  0
  -22.7203  -10.2137   20.3058 C   0  0  0  0  0  0
  -21.6852   -6.0727   22.5270 C   0  0  0  0  0  0
  -21.4033   -6.5630   23.8208 C   0  0  0  0  0  0
  -21.3663   -5.6787   24.9172 C   0  0  0  0  0  0
  -21.6034   -4.3042   24.7223 C   0  0  0  0  0  0
  -21.8832   -3.8137   23.4346 C   0  0  0  0  0  0
  -21.9195   -4.6956   22.3395 C   0  0  0  0  0  0
  -22.7883  -13.5274   21.1780 C   0  0  0  0  0  0
  -22.1665   -4.2149   21.0972 F   0  0  0  0  0  0
  -21.5613   -3.4518   25.7726 F   0  0  0  0  0  0
  -30.0423  -13.2787   20.4518 N   0  0  0  0  0  0
  -26.3042  -12.9257   20.3368 N   0  0  0  0  0  0
  -25.9291  -11.6444   20.5779 N   0  0  0  0  0  0
  -22.0487  -12.8286   22.0336 N   0  0  0  0  0  0
  -25.4379  -15.1823   20.3934 N   0  0  0  0  0  0
  -31.8017  -14.6770   20.0447 O   0  0  0  0  0  0
  -21.6642   -6.8860   21.4226 O   0  0  0  0  0  0
  -22.3584  -14.5569   20.6601 O   0  0  0  0  0  0
  -24.6141  -31.8684   23.2107 C   0  0  0  0  0  0
  -25.9032  -32.4824   23.8398 C   0  0  1  0  0  0
  -27.2465  -27.4521   20.0703 C   0  0  0  0  0  0
  -25.5884  -33.8622   24.2321 N   0  0  0  0  0  0
  -23.4016  -30.4929   21.5501 C   0  0  2  0  0  0
  -24.8486  -28.9600   20.1143 C   0  0  0  0  0  0
  -22.7397  -29.4663   22.4983 C   0  0  0  0  0  0
  -18.0271  -28.1387   22.8487 C   0  0  0  0  0  0
  -24.1478  -36.7312   23.2637 C   0  0  0  0  0  0
  -25.9314  -30.8338   21.3669 C   0  0  0  0  0  0
  -26.0071  -29.4696   20.7128 C   0  0  0  0  0  0
  -27.2022  -28.7163   20.7001 C   0  0  0  0  0  0
  -26.0610  -26.9449   19.4894 C   0  0  0  0  0  0
  -24.8689  -27.6931   19.5068 C   0  0  0  0  0  0
  -23.6111  -29.8262   20.1641 C   0  0  0  0  0  0
  -25.4095  -36.3109   24.0337 C   0  0  1  0  0  0
  -20.5862  -28.3670   23.1317 C   0  0  2  0  0  0
  -20.6763  -26.9406   22.5421 C   0  0  0  0  0  0
  -19.5750  -26.6390   21.5210 C   0  0  0  0  0  0
  -18.1924  -26.7932   22.1617 C   0  0  0  0  0  0
  -19.1522  -28.8841   23.2905 C   0  0  0  0  0  0
  -18.9455  -30.1440   23.8930 C   0  0  0  0  0  0
  -17.6461  -30.6588   24.0572 C   0  0  0  0  0  0
  -25.9027  -34.9480   23.5126 C   0  0  0  0  0  0
  -16.5351  -29.9099   23.6325 C   0  0  0  0  0  0
  -16.7259  -28.6516   23.0343 C   0  0  0  0  0  0
  -26.4468  -31.6609   25.0729 C   0  0  0  0  0  0
  -25.3740  -31.3729   26.1484 C   0  0  0  0  0  0
  -27.0298  -30.3043   24.6130 C   0  0  0  0  0  0
  -27.6050  -32.4325   25.7480 C   0  0  0  0  0  0
  -27.5571  -37.1811   24.8455 C   0  0  0  0  0  0
  -21.4131  -29.3028   22.3710 N   0  0  0  0  0  0
  -26.4275  -37.3791   23.9409 N   0  0  0  0  0  0
  -24.6665  -31.0791   22.1003 N   0  0  0  0  0  0
  -23.4160  -28.8215   23.3039 O   0  0  0  0  0  0
  -28.4300  -26.7411   20.0950 O   0  0  0  0  0  0
  -26.5606  -34.8925   22.4696 O   0  0  0  0  0  0
  -23.5339  -32.1443   23.7508 O   0  0  0  0  0  0
  -28.6029  -18.2811   19.9457 C   0  0  0  0  0  0
  -29.8719  -17.6092   22.3312 C   0  0  0  0  0  0
  -28.5741  -19.2036   21.0104 C   0  0  0  0  0  0
  -29.2266  -17.0232   20.0661 C   0  0  0  0  0  0
  -29.8174  -16.6245   21.3064 C   0  0  0  0  0  0
  -29.2635  -18.8844   22.1985 C   0  0  0  0  0  0
  -29.3042  -23.4375   19.0418 C   0  0  0  0  0  0
  -29.1662  -23.0195   17.7258 C   0  0  0  0  0  0
  -28.9898  -22.5376   20.1673 C   0  0  0  0  0  0
  -28.5917  -21.6414   17.4493 C   0  0  0  0  0  0
  -27.5854  -21.3047   18.5501 C   0  0  0  0  0  0
  -30.5822  -14.8973   22.9910 C   0  0  0  0  0  0
  -30.3381  -19.7984   24.1393 C   0  0  0  0  0  0
  -27.7563  -20.5009   20.8947 C   0  0  0  0  0  0
  -29.8029  -24.8564   19.3489 C   0  0  0  0  0  0
  -28.7998  -25.9661   18.9514 C   0  0  0  0  0  0
  -28.2027  -21.4656   19.8709 N   0  0  0  0  0  0
  -29.1945  -16.2279   18.9210 N   0  0  0  0  0  0
  -30.2879  -15.2763   21.5962 N   0  0  0  0  0  0
  -29.3914  -23.6089   16.6430 O   0  5  0  0  0  0
  -29.4151  -22.7368   21.3073 O   0  0  0  0  0  0
  -29.2682  -19.8253   23.2057 O   0  0  0  0  0  0
  -31.4592  -12.4174   19.0961 H   0  0  0  0  0  0
  -30.3188  -11.2994   19.7903 H   0  0  0  0  0  0
  -29.7288  -11.8070   17.4063 H   0  0  0  0  0  0
  -29.6440  -13.5094   17.7627 H   0  0  0  0  0  0
  -27.8184  -11.3066   18.7836 H   0  0  0  0  0  0
  -27.3618  -12.6572   17.7799 H   0  0  0  0  0  0
  -27.7028  -14.2397   19.5897 H   0  0  0  0  0  0
  -28.6820  -11.9367   21.3272 H   0  0  0  0  0  0
  -28.4376  -13.5756   21.8596 H   0  0  0  0  0  0
  -25.2747   -9.5713   22.4753 H   0  0  0  0  0  0
  -23.9980   -7.4662   22.7503 H   0  0  0  0  0  0
  -21.0789   -8.8764   19.8963 H   0  0  0  0  0  0
  -22.3658  -10.9657   19.6149 H   0  0  0  0  0  0
  -21.2052   -7.6140   23.9699 H   0  0  0  0  0  0
  -21.1462   -6.0524   25.9069 H   0  0  0  0  0  0
  -22.0603   -2.7597   23.2853 H   0  0  0  0  0  0
  -22.4078  -11.9961   22.4764 H   0  0  0  0  0  0
  -21.1125  -13.1374   22.2532 H   0  0  0  0  0  0
  -24.6641  -15.8348   20.4417 H   0  0  0  0  0  0
  -26.2974  -15.5977   20.0530 H   0  0  0  0  0  0
  -26.7109  -32.5533   23.1171 H   0  0  0  0  0  0
  -25.0015  -33.9785   25.0453 H   0  0  0  0  0  0
  -22.6904  -31.3094   21.4108 H   0  0  0  0  0  0
  -23.3737  -35.9645   23.3303 H   0  0  0  0  0  0
  -24.3581  -36.8929   22.2051 H   0  0  0  0  0  0
  -23.7240  -37.6516   23.6663 H   0  0  0  0  0  0
  -26.0489  -31.6022   20.6014 H   0  0  0  0  0  0
  -26.8166  -30.8830   21.9890 H   0  0  0  0  0  0
  -28.0968  -29.1081   21.1637 H   0  0  0  0  0  0
  -26.0275  -25.9646   19.0387 H   0  0  0  0  0  0
  -23.9746  -27.2864   19.0547 H   0  0  0  0  0  0
  -23.7220  -30.6010   19.4045 H   0  0  0  0  0  0
  -22.7354  -29.2476   19.8659 H   0  0  0  0  0  0
  -25.1275  -36.1970   25.0830 H   0  0  0  0  0  0
  -20.9961  -28.3252   24.1435 H   0  0  0  0  0  0
  -20.5666  -26.2279   23.3608 H   0  0  0  0  0  0
  -21.6644  -26.7456   22.1234 H   0  0  0  0  0  0
  -19.6918  -25.6306   21.1231 H   0  0  0  0  0  0
  -19.6690  -27.3203   20.6747 H   0  0  0  0  0  0
  -17.4194  -26.6680   21.4017 H   0  0  0  0  0  0
  -18.0321  -26.0070   22.9010 H   0  0  0  0  0  0
  -19.7931  -30.7244   24.2321 H   0  0  0  0  0  0
  -17.5021  -31.6277   24.5164 H   0  0  0  0  0  0
  -15.5356  -30.3022   23.7630 H   0  0  0  0  0  0
  -15.8654  -28.0848   22.7054 H   0  0  0  0  0  0
  -24.5874  -30.7122   25.7824 H   0  0  0  0  0  0
  -24.8979  -32.2897   26.4968 H   0  0  0  0  0  0
  -25.8083  -30.8858   27.0223 H   0  0  0  0  0  0
  -26.2856  -29.6797   24.1179 H   0  0  0  0  0  0
  -27.4047  -29.7283   25.4603 H   0  0  0  0  0  0
  -27.8699  -30.4334   23.9300 H   0  0  0  0  0  0
  -27.2685  -33.3627   26.2065 H   0  0  0  0  0  0
  -28.3851  -32.6883   25.0298 H   0  0  0  0  0  0
  -28.0732  -31.8447   26.5387 H   0  0  0  0  0  0
  -28.2597  -38.0103   24.7510 H   0  0  0  0  0  0
  -28.1065  -36.2644   24.6270 H   0  0  0  0  0  0
  -27.2304  -37.1451   25.8862 H   0  0  0  0  0  0
  -20.9284  -29.8735   21.6929 H   0  0  0  0  0  0
  -26.0168  -38.2863   24.1423 H   0  0  0  0  0  0
  -28.1062  -18.5276   19.0210 H   0  0  0  0  0  0
  -30.3595  -17.3760   23.2642 H   0  0  0  0  0  0
  -29.3951  -20.9008   17.4424 H   0  0  0  0  0  0
  -28.1027  -21.5778   16.4748 H   0  0  0  0  0  0
  -27.1716  -20.3114   18.3939 H   0  0  0  0  0  0
  -26.7396  -21.9926   18.4942 H   0  0  0  0  0  0
  -31.5371  -15.3181   23.3081 H   0  0  0  0  0  0
  -30.6428  -13.8148   23.1333 H   0  0  0  0  0  0
  -29.8036  -15.2445   23.6717 H   0  0  0  0  0  0
  -30.3467  -20.7362   24.6983 H   0  0  0  0  0  0
  -31.3032  -19.7096   23.6373 H   0  0  0  0  0  0
  -30.2241  -18.9877   24.8593 H   0  0  0  0  0  0
  -27.6784  -20.9978   21.8626 H   0  0  0  0  0  0
  -26.7262  -20.2145   20.6787 H   0  0  0  0  0  0
  -30.7216  -25.0017   18.7774 H   0  0  0  0  0  0
  -30.0988  -24.9662   20.3938 H   0  0  0  0  0  0
  -27.9628  -25.5391   18.4046 H   0  0  0  0  0  0
  -29.2850  -26.6478   18.2522 H   0  0  0  0  0  0
  -28.8884  -16.6986   18.0760 H   0  0  0  0  0  0
  -30.0262  -15.6814   18.7322 H   0  0  0  0  0  0
  1 25  1  0  0  0
  1 30  2  0  0  0
  1 89  1  0  0  0
  2  3  1  0  0  0
  2 25  1  0  0  0
  2 93  1  0  0  0
  2 94  1  0  0  0
  3  4  1  0  0  0
  3 95  1  0  0  0
  3 96  1  0  0  0
  4  5  1  0  0  0
  4 97  1  0  0  0
  4 98  1  0  0  0
  5  6  1  0  0  0
  5 26  1  0  0  0
  5 99  1  0  0  0
  6 25  1  0  0  0
  6100  1  0  0  0
  6101  1  0  0  0
  7  8  2  0  0  0
  7 26  1  0  0  0
  7 29  1  0  0  0
  8  9  1  0  0  0
  8 22  1  0  0  0
  9 10  1  0  0  0
  9 27  2  0  0  0
 10 11  2  0  0  0
 10 15  1  0  0  0
 11 12  1  0  0  0
 11102  1  0  0  0
 12 13  2  0  0  0
 12103  1  0  0  0
 13 14  1  0  0  0
 13 31  1  0  0  0
 14 15  2  0  0  0
 14104  1  0  0  0
 15105  1  0  0  0
 16 17  2  0  0  0
 16 21  1  0  0  0
 16 31  1  0  0  0
 17 18  1  0  0  0
 17106  1  0  0  0
 18 19  2  0  0  0
 18107  1  0  0  0
 19 20  1  0  0  0
 19 24  1  0  0  0
 20 21  2  0  0  0
 20108  1  0  0  0
 21 23  1  0  0  0
 22 28  1  0  0  0
 22 32  2  0  0  0
 26 27  1  0  0  0
 28109  1  0  0  0
 28110  1  0  0  0
 29111  1  0  0  0
 29112  1  0  0  0
 33 34  1  0  0  0
 33 66  1  0  0  0
 33 70  2  0  0  0
 34 36  1  0  0  0
 34 59  1  0  0  0
 34113  1  0  0  0
 35 44  2  0  0  0
 35 45  1  0  0  0
 35 68  1  0  0  0
 36 56  1  0  0  0
 36114  1  0  0  0
 37 39  1  0  0  0
 37 47  1  0  0  0
 37 66  1  0  0  0
 37115  1  0  0  0
 38 43  2  0  0  0
 38 46  1  0  0  0
 38 47  1  0  0  0
 39 64  1  0  0  0
 39 67  2  0  0  0
 40 52  1  0  0  0
 40 53  2  0  0  0
 40 58  1  0  0  0
 41116  1  0  0  0
 41117  1  0  0  0
 41118  1  0  0  0
 41 48  1  0  0  0
 42 43  1  0  0  0
 42 66  1  0  0  0
 42119  1  0  0  0
 42120  1  0  0  0
 43 44  1  0  0  0
 44121  1  0  0  0
 45 46  2  0  0  0
 45122  1  0  0  0
 46123  1  0  0  0
 47124  1  0  0  0
 47125  1  0  0  0
 48 56  1  0  0  0
 48 65  1  0  0  0
 48126  1  0  0  0
 49 50  1  0  0  0
 49 53  1  0  0  0
 49 64  1  0  0  0
 49127  1  0  0  0
 50 51  1  0  0  0
 50128  1  0  0  0
 50129  1  0  0  0
 51 52  1  0  0  0
 51130  1  0  0  0
 51131  1  0  0  0
 52132  1  0  0  0
 52133  1  0  0  0
 53 54  1  0  0  0
 54 55  2  0  0  0
 54134  1  0  0  0
 55 57  1  0  0  0
 55135  1  0  0  0
 56 69  2  0  0  0
 57 58  2  0  0  0
 57136  1  0  0  0
 58137  1  0  0  0
 59 60  1  0  0  0
 59 61  1  0  0  0
 59 62  1  0  0  0
 60138  1  0  0  0
 60139  1  0  0  0
 60140  1  0  0  0
 61141  1  0  0  0
 61142  1  0  0  0
 61143  1  0  0  0
 62144  1  0  0  0
 62145  1  0  0  0
 62146  1  0  0  0
 63 65  1  0  0  0
 63147  1  0  0  0
 63148  1  0  0  0
 63149  1  0  0  0
 64150  1  0  0  0
 65151  1  0  0  0
 68 86  1  0  0  0
 71 73  2  0  0  0
 71 74  1  0  0  0
 71152  1  0  0  0
 72 75  1  0  0  0
 72 76  2  0  0  0
 72153  1  0  0  0
 73 76  1  0  0  0
 73 84  1  0  0  0
 74 75  2  0  0  0
 74 88  1  0  0  0
 75 89  1  0  0  0
 76 92  1  0  0  0
 77 78  2  0  0  0
 77 79  1  0  0  0
 77 85  1  0  0  0
 78 80  1  0  0  0
 78 90  1  0  0  0
 79 87  1  0  0  0
 79 91  2  0  0  0
 80 81  1  0  0  0
 80154  1  0  0  0
 80155  1  0  0  0
 81 87  1  0  0  0
 81156  1  0  0  0
 81157  1  0  0  0
 82 89  1  0  0  0
 82158  1  0  0  0
 82159  1  0  0  0
 82160  1  0  0  0
 83 92  1  0  0  0
 83161  1  0  0  0
 83162  1  0  0  0
 83163  1  0  0  0
 84 87  1  0  0  0
 84164  1  0  0  0
 84165  1  0  0  0
 85 86  1  0  0  0
 85166  1  0  0  0
 85167  1  0  0  0
 86168  1  0  0  0
 86169  1  0  0  0
 88170  1  0  0  0
 88171  1  0  0  0
M  CHG  1  90  -1
M  ISO  4   1 100  68 101  86 101  89 100
M  END
> <chiral flag>
0

> <version>
0

> <s_m_source_file>
/data/baiqing/PycharmProjects/Reinvent-master-3.2/result/LINK_invent/BTK/process_docking_weight1_custom_product_contain_oxygen_bond_distance_aromatic_linkinvent_7_9_3/rearranged_h_0103.sdf

> <i_m_source_file_index>
28

> <r_mmod_Potential_Energy-OPLS-2005>
-262.479095458984

> <r_mmod_Stretch_Energy-OPLS-2005>
48.2939491271973

> <r_mmod_Bend_Energy-OPLS-2005>
123.810371398926

> <r_mmod_Torsional_Energy-OPLS-2005>
327.957092285156

> <r_mmod_Improper_Torsional_Energy-OPLS-2005>
7.75175142288208

> <r_mmod_Van_der_Waal_Energy-OPLS-2005>
193.967315673828

> <r_mmod_Electrostatic_Energy-OPLS-2005>
-491.706176757812

> <r_mmod_Solvation_Energy-OPLS-2005>
-481.911987304688

> <b_mmod_Minimization_Converged-OPLS-2005>
0

> <r_mmod_RMS_Derivative-OPLS-2005>
3.06964635848999

$$$$
28
                    3D
 Structure written by MMmdl.
165174  0  0  1  0            999 V2000
  -30.6278  -14.6615   20.5020 C   0  0  0  0  0  0
  -30.4511  -12.4187   19.4498 C   0  0  0  0  0  0
  -29.5155  -12.5154   18.2244 C   0  0  0  0  0  0
  -28.0398  -12.3491   18.6395 C   0  0  0  0  0  0
  -27.6642  -13.2200   19.8694 C   0  0  2  0  0  0
  -28.7104  -13.0843   20.9962 C   0  0  0  0  0  0
  -25.2654  -13.8159   20.5652 C   0  0  0  0  0  0
  -24.1906  -13.0438   20.9075 C   0  0  0  0  0  0
  -24.6484  -11.6897   20.8720 C   0  0  0  0  0  0
  -23.9153  -10.4286   21.0423 C   0  0  0  0  0  0
  -24.3683   -9.4195   21.9210 C   0  0  0  0  0  0
  -23.6334   -8.2241   22.0763 C   0  0  0  0  0  0
  -22.4318   -8.0308   21.3547 C   0  0  0  0  0  0
  -21.9974   -9.0297   20.4668 C   0  0  0  0  0  0
  -22.7319  -10.2161   20.3079 C   0  0  0  0  0  0
  -21.6854   -6.0794   22.5280 C   0  0  0  0  0  0
  -21.4018   -6.5674   23.8219 C   0  0  0  0  0  0
  -21.3631   -5.6805   24.9164 C   0  0  0  0  0  0
  -21.6026   -4.3073   24.7204 C   0  0  0  0  0  0
  -21.8824   -3.8193   23.4309 C   0  0  0  0  0  0
  -21.9201   -4.7020   22.3389 C   0  0  0  0  0  0
  -22.7945  -13.5253   21.1767 C   0  0  0  0  0  0
  -22.1682   -4.2229   21.0959 F   0  0  0  0  0  0
  -21.5615   -3.4538   25.7698 F   0  0  0  0  0  0
  -30.0172  -13.4369   20.4289 N   0  0  0  0  0  0
  -26.3110  -12.9355   20.3389 N   0  0  0  0  0  0
  -25.9437  -11.6508   20.5807 N   0  0  0  0  0  0
  -22.0596  -12.8274   22.0315 N   0  0  0  0  0  0
  -25.4506  -15.1891   20.4178 N   0  0  0  0  0  0
  -31.7941  -14.7826   20.1147 O   0  0  0  0  0  0
  -21.6624   -6.8950   21.4257 O   0  0  0  0  0  0
  -22.3639  -14.5588   20.6665 O   0  0  0  0  0  0
  -24.6228  -31.8591   23.2032 C   0  0  0  0  0  0
  -25.9116  -32.4752   23.8345 C   0  0  1  0  0  0
  -27.2260  -27.3354   20.1433 C   0  0  0  0  0  0
  -25.5995  -33.8555   24.2281 N   0  0  0  0  0  0
  -23.4162  -30.4845   21.5355 C   0  0  2  0  0  0
  -24.8702  -28.9404   20.1086 C   0  0  0  0  0  0
  -22.7466  -29.4626   22.4836 C   0  0  0  0  0  0
  -18.0306  -28.1372   22.8518 C   0  0  0  0  0  0
  -24.1489  -36.7268   23.2622 C   0  0  0  0  0  0
  -25.9528  -30.7983   21.3729 C   0  0  0  0  0  0
  -26.0290  -29.4213   20.7313 C   0  0  0  0  0  0
  -27.2106  -28.6272   20.7483 C   0  0  0  0  0  0
  -26.0630  -26.9179   19.4689 C   0  0  0  0  0  0
  -24.8883  -27.6922   19.4671 C   0  0  0  0  0  0
  -23.6371  -29.8197   20.1488 C   0  0  0  0  0  0
  -25.4109  -36.3046   24.0318 C   0  0  1  0  0  0
  -20.5911  -28.3693   23.1275 C   0  0  2  0  0  0
  -20.6781  -26.9404   22.5409 C   0  0  0  0  0  0
  -19.5743  -26.6396   21.5215 C   0  0  0  0  0  0
  -18.1933  -26.7923   22.1637 C   0  0  0  0  0  0
  -19.1552  -28.8845   23.2909 C   0  0  0  0  0  0
  -18.9470  -30.1453   23.8907 C   0  0  0  0  0  0
  -17.6453  -30.6570   24.0587 C   0  0  0  0  0  0
  -25.9056  -34.9426   23.5074 C   0  0  0  0  0  0
  -16.5352  -29.9083   23.6327 C   0  0  0  0  0  0
  -16.7286  -28.6509   23.0349 C   0  0  0  0  0  0
  -26.4529  -31.6510   25.0675 C   0  0  0  0  0  0
  -25.3824  -31.3626   26.1442 C   0  0  0  0  0  0
  -27.0298  -30.2915   24.6069 C   0  0  0  0  0  0
  -27.6083  -32.4206   25.7501 C   0  0  0  0  0  0
  -27.5556  -37.1801   24.8468 C   0  0  0  0  0  0
  -21.4163  -29.3054   22.3634 N   0  0  0  0  0  0
  -26.4258  -37.3765   23.9419 N   0  0  0  0  0  0
  -24.6806  -31.0676   22.0931 N   0  0  0  0  0  0
  -23.4216  -28.8143   23.2884 O   0  0  0  0  0  0
  -28.3504  -26.5157   20.0900 O   0  0  0  0  0  0
  -26.5535  -34.8903   22.4587 O   0  0  0  0  0  0
  -23.5415  -32.1339   23.7437 O   0  0  0  0  0  0
  -30.1427  -19.4024   21.3409 C   0  0  0  0  0  0
  -29.7854  -20.7403   21.6678 C   0  0  0  0  0  0
  -28.2306  -20.7778   19.8374 C   0  0  0  0  0  0
  -29.5382  -18.6852   20.2749 C   0  0  0  0  0  0
  -28.5775  -19.4295   19.4999 C   0  0  0  0  0  0
  -28.7927  -21.4599   20.9461 C   0  0  0  0  0  0
  -27.5955  -22.7323   22.5956 C   0  0  0  0  0  0
  -26.3661  -23.6186   22.5498 C   0  0  0  0  0  0
  -26.2867  -23.9740   21.0710 C   0  0  0  0  0  0
  -27.7543  -23.9061   20.6042 C   0  0  2  0  0  0
  -30.0639  -17.2335   19.9229 C   0  0  0  0  0  0
  -27.8742  -18.8580   18.2675 C   0  0  0  0  0  0
  -29.8649  -15.9957   20.9077 C   0  0  0  0  0  0
  -28.4589  -25.3097   20.9335 C   0  0  0  0  0  0
  -28.2773  -22.7500   21.4273 N   0  0  0  0  0  0
  -26.5322  -18.3593   18.5970 N   0  3  0  0  0  0
  -27.8762  -22.0842   23.6076 O   0  0  0  0  0  0
  -31.4854  -12.5598   19.1301 H   0  0  0  0  0  0
  -30.4150  -11.4250   19.8963 H   0  0  0  0  0  0
  -29.7889  -11.7558   17.4887 H   0  0  0  0  0  0
  -29.6507  -13.4831   17.7344 H   0  0  0  0  0  0
  -27.8841  -11.2966   18.8759 H   0  0  0  0  0  0
  -27.3793  -12.5678   17.7995 H   0  0  0  0  0  0
  -27.6852  -14.2535   19.5222 H   0  0  0  0  0  0
  -28.7383  -12.0623   21.3774 H   0  0  0  0  0  0
  -28.4631  -13.7127   21.8522 H   0  0  0  0  0  0
  -25.2841   -9.5634   22.4783 H   0  0  0  0  0  0
  -24.0024   -7.4633   22.7485 H   0  0  0  0  0  0
  -21.0903   -8.8862   19.8994 H   0  0  0  0  0  0
  -22.3829  -10.9719   19.6187 H   0  0  0  0  0  0
  -21.2019   -7.6184   23.9749 H   0  0  0  0  0  0
  -21.1443   -6.0528   25.9069 H   0  0  0  0  0  0
  -22.0641   -2.7670   23.2772 H   0  0  0  0  0  0
  -22.4159  -11.9878   22.4634 H   0  0  0  0  0  0
  -21.1272  -13.1423   22.2561 H   0  0  0  0  0  0
  -24.7131  -15.8314   20.6818 H   0  0  0  0  0  0
  -26.3775  -15.5797   20.5048 H   0  0  0  0  0  0
  -26.7205  -32.5447   23.1120 H   0  0  0  0  0  0
  -25.0405  -33.9697   25.0605 H   0  0  0  0  0  0
  -22.7068  -31.3026   21.3910 H   0  0  0  0  0  0
  -23.3731  -35.9624   23.3280 H   0  0  0  0  0  0
  -24.3594  -36.8881   22.2038 H   0  0  0  0  0  0
  -23.7296  -37.6496   23.6634 H   0  0  0  0  0  0
  -26.0671  -31.5542   20.5934 H   0  0  0  0  0  0
  -26.8377  -30.8612   21.9941 H   0  0  0  0  0  0
  -28.0991  -28.9986   21.2394 H   0  0  0  0  0  0
  -26.0615  -25.9689   18.9532 H   0  0  0  0  0  0
  -24.0103  -27.3258   18.9524 H   0  0  0  0  0  0
  -23.7574  -30.5918   19.3878 H   0  0  0  0  0  0
  -22.7591  -29.2488   19.8457 H   0  0  0  0  0  0
  -25.1309  -36.1841   25.0811 H   0  0  0  0  0  0
  -21.0063  -28.3252   24.1366 H   0  0  0  0  0  0
  -20.5697  -26.2280   23.3604 H   0  0  0  0  0  0
  -21.6644  -26.7412   22.1179 H   0  0  0  0  0  0
  -19.6880  -25.6324   21.1210 H   0  0  0  0  0  0
  -19.6669  -27.3216   20.6747 H   0  0  0  0  0  0
  -17.4211  -26.6719   21.4025 H   0  0  0  0  0  0
  -18.0317  -26.0031   22.8994 H   0  0  0  0  0  0
  -19.7923  -30.7319   24.2232 H   0  0  0  0  0  0
  -17.4986  -31.6237   24.5197 H   0  0  0  0  0  0
  -15.5349  -30.2992   23.7608 H   0  0  0  0  0  0
  -15.8704  -28.0847   22.7010 H   0  0  0  0  0  0
  -24.6044  -30.6896   25.7818 H   0  0  0  0  0  0
  -24.9000  -32.2795   26.4830 H   0  0  0  0  0  0
  -25.8268  -30.8877   27.0208 H   0  0  0  0  0  0
  -26.2796  -29.6711   24.1155 H   0  0  0  0  0  0
  -27.4026  -29.7118   25.4520 H   0  0  0  0  0  0
  -27.8686  -30.4104   23.9207 H   0  0  0  0  0  0
  -27.2650  -33.3502   26.2043 H   0  0  0  0  0  0
  -28.3987  -32.6737   25.0422 H   0  0  0  0  0  0
  -28.0644  -31.8338   26.5481 H   0  0  0  0  0  0
  -28.2577  -38.0088   24.7497 H   0  0  0  0  0  0
  -28.1049  -36.2630   24.6319 H   0  0  0  0  0  0
  -27.2264  -37.1469   25.8862 H   0  0  0  0  0  0
  -20.9253  -29.8842   21.6949 H   0  0  0  0  0  0
  -26.0105  -38.2815   24.1469 H   0  0  0  0  0  0
  -30.9136  -18.9169   21.9226 H   0  0  0  0  0  0
  -30.2691  -21.2113   22.5160 H   0  0  0  0  0  0
  -27.4814  -21.2857   19.2436 H   0  0  0  0  0  0
  -26.5217  -24.5014   23.1710 H   0  0  0  0  0  0
  -25.4735  -23.1033   22.9056 H   0  0  0  0  0  0
  -25.8170  -24.9435   20.9640 H   0  0  0  0  0  0
  -25.6639  -23.2533   20.5355 H   0  0  0  0  0  0
  -27.8355  -23.6819   19.5402 H   0  0  0  0  0  0
  -31.1344  -17.3544   19.7470 H   0  0  0  0  0  0
  -29.6840  -16.9106   18.9580 H   0  0  0  0  0  0
  -28.4517  -18.0901   17.7583 H   0  0  0  0  0  0
  -27.7602  -19.6457   17.5211 H   0  0  0  0  0  0
  -28.8005  -15.8005   21.0026 H   0  0  0  0  0  0
  -30.2048  -16.2751   21.9065 H   0  0  0  0  0  0
  -29.5291  -25.1015   20.9726 H   0  0  0  0  0  0
  -28.2152  -25.6141   21.9513 H   0  0  0  0  0  0
  -26.5851  -17.5039   19.1161 H   0  0  0  0  0  0
  -26.0307  -18.1878   17.7445 H   0  0  0  0  0  0
  -26.0213  -19.0361   19.1342 H   0  0  0  0  0  0
  1 25  1  0  0  0
  1 30  2  0  0  0
  1 83  1  0  0  0
  2  3  1  0  0  0
  2 25  1  0  0  0
  2 88  1  0  0  0
  2 89  1  0  0  0
  3  4  1  0  0  0
  3 90  1  0  0  0
  3 91  1  0  0  0
  4  5  1  0  0  0
  4 92  1  0  0  0
  4 93  1  0  0  0
  5  6  1  0  0  0
  5 26  1  0  0  0
  5 94  1  0  0  0
  6 25  1  0  0  0
  6 95  1  0  0  0
  6 96  1  0  0  0
  7  8  2  0  0  0
  7 26  1  0  0  0
  7 29  1  0  0  0
  8  9  1  0  0  0
  8 22  1  0  0  0
  9 10  1  0  0  0
  9 27  2  0  0  0
 10 11  2  0  0  0
 10 15  1  0  0  0
 11 12  1  0  0  0
 11 97  1  0  0  0
 12 13  2  0  0  0
 12 98  1  0  0  0
 13 14  1  0  0  0
 13 31  1  0  0  0
 14 15  2  0  0  0
 14 99  1  0  0  0
 15100  1  0  0  0
 16 17  2  0  0  0
 16 21  1  0  0  0
 16 31  1  0  0  0
 17 18  1  0  0  0
 17101  1  0  0  0
 18 19  2  0  0  0
 18102  1  0  0  0
 19 20  1  0  0  0
 19 24  1  0  0  0
 20 21  2  0  0  0
 20103  1  0  0  0
 21 23  1  0  0  0
 22 28  1  0  0  0
 22 32  2  0  0  0
 26 27  1  0  0  0
 28104  1  0  0  0
 28105  1  0  0  0
 29106  1  0  0  0
 29107  1  0  0  0
 33 34  1  0  0  0
 33 66  1  0  0  0
 33 70  2  0  0  0
 34 36  1  0  0  0
 34 59  1  0  0  0
 34108  1  0  0  0
 35 44  2  0  0  0
 35 45  1  0  0  0
 35 68  1  0  0  0
 36 56  1  0  0  0
 36109  1  0  0  0
 37 39  1  0  0  0
 37 47  1  0  0  0
 37 66  1  0  0  0
 37110  1  0  0  0
 38 43  2  0  0  0
 38 46  1  0  0  0
 38 47  1  0  0  0
 39 64  1  0  0  0
 39 67  2  0  0  0
 40 52  1  0  0  0
 40 53  2  0  0  0
 40 58  1  0  0  0
 41111  1  0  0  0
 41112  1  0  0  0
 41113  1  0  0  0
 41 48  1  0  0  0
 42 43  1  0  0  0
 42 66  1  0  0  0
 42114  1  0  0  0
 42115  1  0  0  0
 43 44  1  0  0  0
 44116  1  0  0  0
 45 46  2  0  0  0
 45117  1  0  0  0
 46118  1  0  0  0
 47119  1  0  0  0
 47120  1  0  0  0
 48 56  1  0  0  0
 48 65  1  0  0  0
 48121  1  0  0  0
 49 50  1  0  0  0
 49 53  1  0  0  0
 49 64  1  0  0  0
 49122  1  0  0  0
 50 51  1  0  0  0
 50123  1  0  0  0
 50124  1  0  0  0
 51 52  1  0  0  0
 51125  1  0  0  0
 51126  1  0  0  0
 52127  1  0  0  0
 52128  1  0  0  0
 53 54  1  0  0  0
 54 55  2  0  0  0
 54129  1  0  0  0
 55 57  1  0  0  0
 55130  1  0  0  0
 56 69  2  0  0  0
 57 58  2  0  0  0
 57131  1  0  0  0
 58132  1  0  0  0
 59 60  1  0  0  0
 59 61  1  0  0  0
 59 62  1  0  0  0
 60133  1  0  0  0
 60134  1  0  0  0
 60135  1  0  0  0
 61136  1  0  0  0
 61137  1  0  0  0
 61138  1  0  0  0
 62139  1  0  0  0
 62140  1  0  0  0
 62141  1  0  0  0
 63 65  1  0  0  0
 63142  1  0  0  0
 63143  1  0  0  0
 63144  1  0  0  0
 64145  1  0  0  0
 65146  1  0  0  0
 68 84  1  0  0  0
 71 72  2  0  0  0
 71 74  1  0  0  0
 71147  1  0  0  0
 72 76  1  0  0  0
 72148  1  0  0  0
 73 75  1  0  0  0
 73 76  2  0  0  0
 73149  1  0  0  0
 74 75  2  0  0  0
 74 81  1  0  0  0
 75 82  1  0  0  0
 76 85  1  0  0  0
 77 78  1  0  0  0
 77 85  1  0  0  0
 77 87  2  0  0  0
 78 79  1  0  0  0
 78150  1  0  0  0
 78151  1  0  0  0
 79 80  1  0  0  0
 79152  1  0  0  0
 79153  1  0  0  0
 80 84  1  0  0  0
 80 85  1  0  0  0
 80154  1  0  0  0
 81 83  1  0  0  0
 81155  1  0  0  0
 81156  1  0  0  0
 82 86  1  0  0  0
 82157  1  0  0  0
 82158  1  0  0  0
 83159  1  0  0  0
 83160  1  0  0  0
 84161  1  0  0  0
 84162  1  0  0  0
 86163  1  0  0  0
 86164  1  0  0  0
 86165  1  0  0  0
M  CHG  1  86   1
M  ISO  4   1 100  68 101  83 100  84 101
M  END
> <chiral flag>
0

> <version>
0

> <s_m_source_file>
/data/baiqing/PycharmProjects/Reinvent-master-3.2/result/LINK_invent/BTK/process_docking_weight1_custom_product_contain_oxygen_bond_distance_aromatic_linkinvent_7_9_3/rearranged_h_0103.sdf

> <i_m_source_file_index>
29

> <r_mmod_Potential_Energy-OPLS-2005>
-83.4041519165039

> <r_mmod_Stretch_Energy-OPLS-2005>
88.2848052978516

> <r_mmod_Bend_Energy-OPLS-2005>
185.490417480469

> <r_mmod_Torsional_Energy-OPLS-2005>
281.302825927734

> <r_mmod_Improper_Torsional_Energy-OPLS-2005>
8.52663421630859

> <r_mmod_Van_der_Waal_Energy-OPLS-2005>
133.229904174805

> <r_mmod_Electrostatic_Energy-OPLS-2005>
-309.042907714844

> <r_mmod_Solvation_Energy-OPLS-2005>
-516.89501953125

> <b_mmod_Minimization_Converged-OPLS-2005>
0

> <r_mmod_RMS_Derivative-OPLS-2005>
4.65915870666504

$$$$
29
                    3D
 Structure written by MMmdl.
156164  0  0  1  0            999 V2000
  -30.6272  -14.7507   20.4624 C   0  0  0  0  0  0
  -30.4310  -12.4620   19.4739 C   0  0  0  0  0  0
  -29.5073  -12.5072   18.2369 C   0  0  0  0  0  0
  -28.0351  -12.3299   18.6551 C   0  0  0  0  0  0
  -27.6403  -13.2371   19.8524 C   0  0  2  0  0  0
  -28.6881  -13.1832   20.9855 C   0  0  0  0  0  0
  -25.2454  -13.8172   20.5661 C   0  0  0  0  0  0
  -24.1768  -13.0405   20.9163 C   0  0  0  0  0  0
  -24.6395  -11.6898   20.8738 C   0  0  0  0  0  0
  -23.9080  -10.4272   21.0401 C   0  0  0  0  0  0
  -24.3624   -9.4191   21.9181 C   0  0  0  0  0  0
  -23.6294   -8.2234   22.0752 C   0  0  0  0  0  0
  -22.4277   -8.0275   21.3542 C   0  0  0  0  0  0
  -21.9912   -9.0245   20.4646 C   0  0  0  0  0  0
  -22.7245  -10.2120   20.3051 C   0  0  0  0  0  0
  -21.6849   -6.0735   22.5282 C   0  0  0  0  0  0
  -21.4012   -6.5640   23.8215 C   0  0  0  0  0  0
  -21.3653   -5.6794   24.9177 C   0  0  0  0  0  0
  -21.6044   -4.3058   24.7227 C   0  0  0  0  0  0
  -21.8822   -3.8148   23.4350 C   0  0  0  0  0  0
  -21.9193   -4.6964   22.3406 C   0  0  0  0  0  0
  -22.7794  -13.5180   21.1854 C   0  0  0  0  0  0
  -22.1664   -4.2150   21.0986 F   0  0  0  0  0  0
  -21.5625   -3.4543   25.7741 F   0  0  0  0  0  0
  -29.9862  -13.5326   20.3964 N   0  0  0  0  0  0
  -26.2936  -12.9425   20.3331 N   0  0  0  0  0  0
  -25.9338  -11.6553   20.5787 N   0  0  0  0  0  0
  -22.0467  -12.8162   22.0427 N   0  0  0  0  0  0
  -25.4005  -15.1886   20.4089 N   0  0  0  0  0  0
  -31.8216  -14.8261   20.1642 O   0  0  0  0  0  0
  -21.6638   -6.8875   21.4243 O   0  0  0  0  0  0
  -22.3464  -14.5497   20.6729 O   0  0  0  0  0  0
  -24.6322  -31.8545   23.1982 C   0  0  0  0  0  0
  -25.9138  -32.4746   23.8329 C   0  0  1  0  0  0
  -27.2199  -27.2563   20.1295 C   0  0  0  0  0  0
  -25.5928  -33.8551   24.2262 N   0  0  0  0  0  0
  -23.4277  -30.4774   21.5427 C   0  0  2  0  0  0
  -24.8727  -28.9217   20.1130 C   0  0  0  0  0  0
  -22.7500  -29.4592   22.4924 C   0  0  0  0  0  0
  -18.0287  -28.1362   22.8482 C   0  0  0  0  0  0
  -24.1484  -36.7285   23.2643 C   0  0  0  0  0  0
  -25.9738  -30.7676   21.3753 C   0  0  0  0  0  0
  -26.0464  -29.3891   20.7174 C   0  0  0  0  0  0
  -27.2236  -28.5721   20.7085 C   0  0  0  0  0  0
  -26.0186  -26.8546   19.5019 C   0  0  0  0  0  0
  -24.8647  -27.6629   19.4938 C   0  0  0  0  0  0
  -23.6439  -29.8097   20.1589 C   0  0  0  0  0  0
  -25.4111  -36.3069   24.0332 C   0  0  1  0  0  0
  -20.5896  -28.3676   23.1266 C   0  0  2  0  0  0
  -20.6767  -26.9393   22.5401 C   0  0  0  0  0  0
  -19.5744  -26.6364   21.5197 C   0  0  0  0  0  0
  -18.1925  -26.7902   22.1613 C   0  0  0  0  0  0
  -19.1543  -28.8834   23.2861 C   0  0  0  0  0  0
  -18.9464  -30.1433   23.8877 C   0  0  0  0  0  0
  -17.6462  -30.6566   24.0547 C   0  0  0  0  0  0
  -25.9056  -34.9437   23.5100 C   0  0  0  0  0  0
  -16.5356  -29.9064   23.6313 C   0  0  0  0  0  0
  -16.7276  -28.6476   23.0352 C   0  0  0  0  0  0
  -26.4498  -31.6580   25.0725 C   0  0  0  0  0  0
  -25.3713  -31.3735   26.1441 C   0  0  0  0  0  0
  -27.0346  -30.2993   24.6222 C   0  0  0  0  0  0
  -27.6037  -32.4342   25.7490 C   0  0  0  0  0  0
  -27.5576  -37.1797   24.8469 C   0  0  0  0  0  0
  -21.4205  -29.3039   22.3668 N   0  0  0  0  0  0
  -26.4285  -37.3771   23.9413 N   0  0  0  0  0  0
  -24.6973  -31.0509   22.0952 N   0  0  0  0  0  0
  -23.4197  -28.8131   23.3028 O   0  0  0  0  0  0
  -28.3250  -26.3718   20.1765 O   0  0  0  0  0  0
  -26.5635  -34.8914   22.4677 O   0  0  0  0  0  0
  -23.5473  -32.1372   23.7277 O   0  0  0  0  0  0
  -27.7529  -21.0544   20.6271 C   0  0  0  0  0  0
  -29.9249  -20.0066   20.4164 C   0  0  0  0  0  0
  -29.1347  -21.2295   20.4379 C   0  0  0  0  0  0
  -27.1989  -19.7669   20.8364 C   0  0  0  0  0  0
  -29.4055  -18.6616   20.6085 C   0  0  0  0  0  0
  -28.0084  -18.5946   20.8532 C   0  0  0  0  0  0
  -29.7568  -22.6303   20.2834 C   0  0  0  0  0  0
  -29.4099  -23.9789   20.1808 C   0  0  0  0  0  0
  -25.7000  -19.6663   21.0768 C   0  0  0  0  0  0
  -30.3618  -17.3654   20.5746 C   0  0  0  0  0  0
  -28.1137  -24.8771   20.1303 C   0  0  0  0  0  0
  -27.4047  -17.3766   21.1584 N   0  0  0  0  0  0
  -29.8857  -15.9084   20.6486 N   0  0  0  0  0  0
  -31.4719  -12.5826   19.1688 H   0  0  0  0  0  0
  -30.3751  -11.4895   19.9660 H   0  0  0  0  0  0
  -29.7900  -11.7307   17.5251 H   0  0  0  0  0  0
  -29.6294  -13.4591   17.7180 H   0  0  0  0  0  0
  -27.8978  -11.2826   18.9263 H   0  0  0  0  0  0
  -27.3742  -12.5127   17.8072 H   0  0  0  0  0  0
  -27.6290  -14.2582   19.4684 H   0  0  0  0  0  0
  -28.7257  -12.1899   21.4351 H   0  0  0  0  0  0
  -28.4247  -13.8735   21.7885 H   0  0  0  0  0  0
  -25.2764   -9.5673   22.4758 H   0  0  0  0  0  0
  -24.0002   -7.4625   22.7468 H   0  0  0  0  0  0
  -21.0842   -8.8762   19.8951 H   0  0  0  0  0  0
  -22.3697  -10.9661   19.6163 H   0  0  0  0  0  0
  -21.2004   -7.6150   23.9717 H   0  0  0  0  0  0
  -21.1469   -6.0528   25.9081 H   0  0  0  0  0  0
  -22.0603   -2.7611   23.2854 H   0  0  0  0  0  0
  -22.4101  -11.9816   22.4791 H   0  0  0  0  0  0
  -21.1092  -13.1183   22.2670 H   0  0  0  0  0  0
  -24.6238  -15.8240   20.5455 H   0  0  0  0  0  0
  -26.2777  -15.6744   20.2386 H   0  0  0  0  0  0
  -26.7202  -32.5383   23.1072 H   0  0  0  0  0  0
  -25.0054  -33.9690   25.0388 H   0  0  0  0  0  0
  -22.7241  -31.3000   21.3973 H   0  0  0  0  0  0
  -23.3741  -35.9617   23.3300 H   0  0  0  0  0  0
  -24.3575  -36.8915   22.2057 H   0  0  0  0  0  0
  -23.7246  -37.6484   23.6672 H   0  0  0  0  0  0
  -26.1156  -31.5282   20.6060 H   0  0  0  0  0  0
  -26.8510  -30.8158   22.0089 H   0  0  0  0  0  0
  -28.1251  -28.9285   21.1869 H   0  0  0  0  0  0
  -25.9394  -25.8942   19.0165 H   0  0  0  0  0  0
  -23.9661  -27.3004   19.0145 H   0  0  0  0  0  0
  -23.7668  -30.5840   19.4017 H   0  0  0  0  0  0
  -22.7610  -29.2438   19.8557 H   0  0  0  0  0  0
  -25.1294  -36.1903   25.0824 H   0  0  0  0  0  0
  -20.9974  -28.3244   24.1394 H   0  0  0  0  0  0
  -20.5628  -26.2297   23.3616 H   0  0  0  0  0  0
  -21.6636  -26.7400   22.1220 H   0  0  0  0  0  0
  -19.6903  -25.6269   21.1238 H   0  0  0  0  0  0
  -19.6665  -27.3157   20.6711 H   0  0  0  0  0  0
  -17.4191  -26.6646   21.4021 H   0  0  0  0  0  0
  -18.0329  -26.0038   22.9003 H   0  0  0  0  0  0
  -19.7946  -30.7241   24.2248 H   0  0  0  0  0  0
  -17.5025  -31.6241   24.5147 H   0  0  0  0  0  0
  -15.5357  -30.2958   23.7639 H   0  0  0  0  0  0
  -15.8680  -28.0776   22.7095 H   0  0  0  0  0  0
  -24.5895  -30.7082   25.7773 H   0  0  0  0  0  0
  -24.8896  -32.2900   26.4846 H   0  0  0  0  0  0
  -25.8025  -30.8924   27.0233 H   0  0  0  0  0  0
  -26.2941  -29.6734   24.1236 H   0  0  0  0  0  0
  -27.4008  -29.7264   25.4753 H   0  0  0  0  0  0
  -27.8821  -30.4264   23.9490 H   0  0  0  0  0  0
  -27.2641  -33.3664   26.2019 H   0  0  0  0  0  0
  -28.3853  -32.6882   25.0319 H   0  0  0  0  0  0
  -28.0695  -31.8507   26.5442 H   0  0  0  0  0  0
  -28.2594  -38.0095   24.7510 H   0  0  0  0  0  0
  -28.1073  -36.2624   24.6291 H   0  0  0  0  0  0
  -27.2301  -37.1447   25.8877 H   0  0  0  0  0  0
  -20.9392  -29.8784   21.6890 H   0  0  0  0  0  0
  -26.0156  -38.2840   24.1399 H   0  0  0  0  0  0
  -27.1133  -21.9255   20.6429 H   0  0  0  0  0  0
  -30.9899  -20.1036   20.2588 H   0  0  0  0  0  0
  -30.8337  -22.5298   20.2550 H   0  0  0  0  0  0
  -30.2753  -24.6197   20.0866 H   0  0  0  0  0  0
  -25.2234  -20.6472   21.0673 H   0  0  0  0  0  0
  -25.4952  -19.2096   22.0455 H   0  0  0  0  0  0
  -25.2292  -19.0612   20.3010 H   0  0  0  0  0  0
  -31.0771  -17.4941   21.3874 H   0  0  0  0  0  0
  -30.9560  -17.4485   19.6634 H   0  0  0  0  0  0
  -27.4421  -24.5770   20.9357 H   0  0  0  0  0  0
  -27.6243  -24.6134   19.1941 H   0  0  0  0  0  0
  -26.4228  -17.4641   21.3933 H   0  0  0  0  0  0
  -27.8721  -16.8818   21.9087 H   0  0  0  0  0  0
  -28.8877  -15.7993   20.7631 H   0  0  0  0  0  0
  1 25  1  0  0  0
  1 30  2  0  0  0
  1 83  1  0  0  0
  2  3  1  0  0  0
  2 25  1  0  0  0
  2 84  1  0  0  0
  2 85  1  0  0  0
  3  4  1  0  0  0
  3 86  1  0  0  0
  3 87  1  0  0  0
  4  5  1  0  0  0
  4 88  1  0  0  0
  4 89  1  0  0  0
  5  6  1  0  0  0
  5 26  1  0  0  0
  5 90  1  0  0  0
  6 25  1  0  0  0
  6 91  1  0  0  0
  6 92  1  0  0  0
  7  8  2  0  0  0
  7 26  1  0  0  0
  7 29  1  0  0  0
  8  9  1  0  0  0
  8 22  1  0  0  0
  9 10  1  0  0  0
  9 27  2  0  0  0
 10 11  2  0  0  0
 10 15  1  0  0  0
 11 12  1  0  0  0
 11 93  1  0  0  0
 12 13  2  0  0  0
 12 94  1  0  0  0
 13 14  1  0  0  0
 13 31  1  0  0  0
 14 15  2  0  0  0
 14 95  1  0  0  0
 15 96  1  0  0  0
 16 17  2  0  0  0
 16 21  1  0  0  0
 16 31  1  0  0  0
 17 18  1  0  0  0
 17 97  1  0  0  0
 18 19  2  0  0  0
 18 98  1  0  0  0
 19 20  1  0  0  0
 19 24  1  0  0  0
 20 21  2  0  0  0
 20 99  1  0  0  0
 21 23  1  0  0  0
 22 28  1  0  0  0
 22 32  2  0  0  0
 26 27  1  0  0  0
 28100  1  0  0  0
 28101  1  0  0  0
 29102  1  0  0  0
 29103  1  0  0  0
 33 34  1  0  0  0
 33 66  1  0  0  0
 33 70  2  0  0  0
 34 36  1  0  0  0
 34 59  1  0  0  0
 34104  1  0  0  0
 35 44  2  0  0  0
 35 45  1  0  0  0
 35 68  1  0  0  0
 36 56  1  0  0  0
 36105  1  0  0  0
 37 39  1  0  0  0
 37 47  1  0  0  0
 37 66  1  0  0  0
 37106  1  0  0  0
 38 43  2  0  0  0
 38 46  1  0  0  0
 38 47  1  0  0  0
 39 64  1  0  0  0
 39 67  2  0  0  0
 40 52  1  0  0  0
 40 53  2  0  0  0
 40 58  1  0  0  0
 41107  1  0  0  0
 41108  1  0  0  0
 41109  1  0  0  0
 41 48  1  0  0  0
 42 43  1  0  0  0
 42 66  1  0  0  0
 42110  1  0  0  0
 42111  1  0  0  0
 43 44  1  0  0  0
 44112  1  0  0  0
 45 46  2  0  0  0
 45113  1  0  0  0
 46114  1  0  0  0
 47115  1  0  0  0
 47116  1  0  0  0
 48 56  1  0  0  0
 48 65  1  0  0  0
 48117  1  0  0  0
 49 50  1  0  0  0
 49 53  1  0  0  0
 49 64  1  0  0  0
 49118  1  0  0  0
 50 51  1  0  0  0
 50119  1  0  0  0
 50120  1  0  0  0
 51 52  1  0  0  0
 51121  1  0  0  0
 51122  1  0  0  0
 52123  1  0  0  0
 52124  1  0  0  0
 53 54  1  0  0  0
 54 55  2  0  0  0
 54125  1  0  0  0
 55 57  1  0  0  0
 55126  1  0  0  0
 56 69  2  0  0  0
 57 58  2  0  0  0
 57127  1  0  0  0
 58128  1  0  0  0
 59 60  1  0  0  0
 59 61  1  0  0  0
 59 62  1  0  0  0
 60129  1  0  0  0
 60130  1  0  0  0
 60131  1  0  0  0
 61132  1  0  0  0
 61133  1  0  0  0
 61134  1  0  0  0
 62135  1  0  0  0
 62136  1  0  0  0
 62137  1  0  0  0
 63 65  1  0  0  0
 63138  1  0  0  0
 63139  1  0  0  0
 63140  1  0  0  0
 64141  1  0  0  0
 65142  1  0  0  0
 68 81  1  0  0  0
 71 73  2  0  0  0
 71 74  1  0  0  0
 71143  1  0  0  0
 72 73  1  0  0  0
 72 75  2  0  0  0
 72144  1  0  0  0
 73 77  1  0  0  0
 74 76  2  0  0  0
 74 79  1  0  0  0
 75 76  1  0  0  0
 75 80  1  0  0  0
 76 82  1  0  0  0
 77 78  2  0  0  0
 77145  1  0  0  0
 78 81  1  0  0  0
 78146  1  0  0  0
 79147  1  0  0  0
 79148  1  0  0  0
 79149  1  0  0  0
 80 83  1  0  0  0
 80150  1  0  0  0
 80151  1  0  0  0
 81152  1  0  0  0
 81153  1  0  0  0
 82154  1  0  0  0
 82155  1  0  0  0
 83156  1  0  0  0
M  ISO  4   1 100  68 101  81 101  83 100
M  END
> <chiral flag>
0

> <version>
0

> <s_m_source_file>
/data/baiqing/PycharmProjects/Reinvent-master-3.2/result/LINK_invent/BTK/process_docking_weight1_custom_product_contain_oxygen_bond_distance_aromatic_linkinvent_7_9_3/rearranged_h_0103.sdf

> <i_m_source_file_index>
30

> <r_mmod_Potential_Energy-OPLS-2005>
104.398086547852

> <r_mmod_Stretch_Energy-OPLS-2005>
123.522453308105

> <r_mmod_Bend_Energy-OPLS-2005>
197.377685546875

> <r_mmod_Torsional_Energy-OPLS-2005>
216.205978393555

> <r_mmod_Improper_Torsional_Energy-OPLS-2005>
10.5034761428833

> <r_mmod_Van_der_Waal_Energy-OPLS-2005>
143.026779174805

> <r_mmod_Electrostatic_Energy-OPLS-2005>
-469.857849121094

> <r_mmod_Solvation_Energy-OPLS-2005>
-203.726593017578

> <b_mmod_Minimization_Converged-OPLS-2005>
0

> <r_mmod_RMS_Derivative-OPLS-2005>
1.43695223331451

$$$$
30
                    3D
 Structure written by MMmdl.
155164  0  0  1  0            999 V2000
  -30.5159  -15.1398   20.3728 C   0  0  0  0  0  0
  -30.4271  -12.7123   19.5362 C   0  0  0  0  0  0
  -29.5312  -12.5537   18.2847 C   0  0  0  0  0  0
  -28.0712  -12.3071   18.7003 C   0  0  0  0  0  0
  -27.6125  -13.2757   19.8202 C   0  0  2  0  0  0
  -28.6423  -13.4233   20.9580 C   0  0  0  0  0  0
  -25.2399  -13.8266   20.5740 C   0  0  0  0  0  0
  -24.1744  -13.0451   20.9236 C   0  0  0  0  0  0
  -24.6397  -11.6946   20.8745 C   0  0  0  0  0  0
  -23.9095  -10.4301   21.0398 C   0  0  0  0  0  0
  -24.3641   -9.4215   21.9178 C   0  0  0  0  0  0
  -23.6309   -8.2252   22.0752 C   0  0  0  0  0  0
  -22.4289   -8.0288   21.3545 C   0  0  0  0  0  0
  -21.9929   -9.0261   20.4646 C   0  0  0  0  0  0
  -22.7263  -10.2137   20.3050 C   0  0  0  0  0  0
  -21.6859   -6.0740   22.5279 C   0  0  0  0  0  0
  -21.4019   -6.5642   23.8212 C   0  0  0  0  0  0
  -21.3660   -5.6794   24.9174 C   0  0  0  0  0  0
  -21.6043   -4.3056   24.7224 C   0  0  0  0  0  0
  -21.8819   -3.8149   23.4346 C   0  0  0  0  0  0
  -21.9195   -4.6966   22.3402 C   0  0  0  0  0  0
  -22.7763  -13.5199   21.1896 C   0  0  0  0  0  0
  -22.1664   -4.2152   21.0980 F   0  0  0  0  0  0
  -21.5627   -3.4540   25.7737 F   0  0  0  0  0  0
  -29.9041  -13.8648   20.3517 N   0  0  0  0  0  0
  -26.2817  -12.9543   20.3192 N   0  0  0  0  0  0
  -25.9333  -11.6646   20.5701 N   0  0  0  0  0  0
  -22.0431  -12.8173   22.0452 N   0  0  0  0  0  0
  -25.4067  -15.2001   20.4229 N   0  0  0  0  0  0
  -31.7311  -15.0888   20.1390 O   0  0  0  0  0  0
  -21.6650   -6.8885   21.4242 O   0  0  0  0  0  0
  -22.3435  -14.5501   20.6743 O   0  0  0  0  0  0
  -24.6560  -31.8314   23.1777 C   0  0  0  0  0  0
  -25.9277  -32.4629   23.8210 C   0  0  1  0  0  0
  -27.2114  -27.0014   20.1727 C   0  0  0  0  0  0
  -25.5975  -33.8440   24.2119 N   0  0  0  0  0  0
  -23.4665  -30.4468   21.5256 C   0  0  2  0  0  0
  -24.9182  -28.8508   20.1096 C   0  0  0  0  0  0
  -22.7632  -29.4481   22.4809 C   0  0  0  0  0  0
  -18.0316  -28.1405   22.8470 C   0  0  0  0  0  0
  -24.1493  -36.7219   23.2645 C   0  0  0  0  0  0
  -26.0317  -30.6619   21.3975 C   0  0  0  0  0  0
  -26.1002  -29.2601   20.7397 C   0  0  0  0  0  0
  -27.2448  -28.3543   20.7502 C   0  0  0  0  0  0
  -26.0038  -26.7305   19.4915 C   0  0  0  0  0  0
  -24.8912  -27.6047   19.4661 C   0  0  0  0  0  0
  -23.7015  -29.7697   20.1484 C   0  0  0  0  0  0
  -25.4133  -36.2990   24.0304 C   0  0  1  0  0  0
  -20.5937  -28.3742   23.1206 C   0  0  2  0  0  0
  -20.6795  -26.9431   22.5405 C   0  0  0  0  0  0
  -19.5768  -26.6380   21.5214 C   0  0  0  0  0  0
  -18.1950  -26.7940   22.1623 C   0  0  0  0  0  0
  -19.1576  -28.8894   23.2826 C   0  0  0  0  0  0
  -18.9487  -30.1486   23.8858 C   0  0  0  0  0  0
  -17.6482  -30.6596   24.0557 C   0  0  0  0  0  0
  -25.9093  -34.9371   23.5027 C   0  0  0  0  0  0
  -16.5373  -29.9084   23.6342 C   0  0  0  0  0  0
  -16.7299  -28.6505   23.0360 C   0  0  0  0  0  0
  -26.4552  -31.6545   25.0708 C   0  0  0  0  0  0
  -25.3699  -31.3775   26.1377 C   0  0  0  0  0  0
  -27.0438  -30.2922   24.6388 C   0  0  0  0  0  0
  -27.6057  -32.4338   25.7506 C   0  0  0  0  0  0
  -27.5572  -37.1769   24.8466 C   0  0  0  0  0  0
  -21.4309  -29.3043   22.3560 N   0  0  0  0  0  0
  -26.4283  -37.3719   23.9407 N   0  0  0  0  0  0
  -24.7387  -31.0048   22.0876 N   0  0  0  0  0  0
  -23.4215  -28.8041   23.3016 O   0  0  0  0  0  0
  -28.2106  -25.9201   20.2618 O   0  0  0  0  0  0
  -26.5693  -34.8890   22.4616 O   0  0  0  0  0  0
  -23.5648  -32.1251   23.6917 O   0  0  0  0  0  0
  -29.5383  -17.4816   19.2673 C   0  0  0  0  0  0
  -29.4219  -18.9994   21.5655 C   0  0  0  0  0  0
  -29.8670  -16.6702   20.4306 C   0  0  0  0  0  0
  -29.1747  -18.9131   19.2787 C   0  0  0  0  0  0
  -29.0887  -19.7902   20.3929 C   0  0  0  0  0  0
  -29.8024  -17.5526   21.5945 C   0  0  0  0  0  0
  -28.8096  -22.9623   20.3976 C   0  0  0  0  0  0
  -28.7496  -19.7286   18.0655 C   0  0  0  0  0  0
  -28.4246  -21.2866   19.9799 C   0  0  1  0  0  0
  -30.1031  -17.6659   23.9889 C   0  0  0  0  0  0
  -27.8711  -24.3579   20.0145 C   0  0  0  0  0  0
  -28.5755  -21.1538   18.5032 N   0  3  0  0  0  0
  -29.8590  -23.1808   21.0116 O   0  0  0  0  0  0
  -30.1343  -16.9231   22.7769 O   0  0  0  0  0  0
  -31.4609  -12.8613   19.2225 H   0  0  0  0  0  0
  -30.4336  -11.7941   20.1258 H   0  0  0  0  0  0
  -29.8885  -11.7328   17.6616 H   0  0  0  0  0  0
  -29.5936  -13.4552   17.6734 H   0  0  0  0  0  0
  -28.0019  -11.2777   19.0542 H   0  0  0  0  0  0
  -27.4095  -12.3784   17.8363 H   0  0  0  0  0  0
  -27.5400  -14.2512   19.3376 H   0  0  0  0  0  0
  -28.7669  -12.4893   21.5078 H   0  0  0  0  0  0
  -28.3047  -14.1689   21.6798 H   0  0  0  0  0  0
  -25.2784   -9.5692   22.4756 H   0  0  0  0  0  0
  -24.0016   -7.4644   22.7475 H   0  0  0  0  0  0
  -21.0859   -8.8783   19.8953 H   0  0  0  0  0  0
  -22.3719  -10.9675   19.6160 H   0  0  0  0  0  0
  -21.2014   -7.6151   23.9717 H   0  0  0  0  0  0
  -21.1481   -6.0524   25.9077 H   0  0  0  0  0  0
  -22.0597   -2.7611   23.2846 H   0  0  0  0  0  0
  -22.4072  -11.9843   22.4837 H   0  0  0  0  0  0
  -21.1040  -13.1169   22.2660 H   0  0  0  0  0  0
  -24.6446  -15.8559   20.5554 H   0  0  0  0  0  0
  -26.2681  -15.6467   20.1345 H   0  0  0  0  0  0
  -26.7343  -32.5191   23.0927 H   0  0  0  0  0  0
  -25.0082  -33.9534   25.0242 H   0  0  0  0  0  0
  -22.7756  -31.2765   21.3620 H   0  0  0  0  0  0
  -23.3768  -35.9537   23.3285 H   0  0  0  0  0  0
  -24.3571  -36.8883   22.2063 H   0  0  0  0  0  0
  -23.7236  -37.6398   23.6708 H   0  0  0  0  0  0
  -26.2040  -31.4090   20.6216 H   0  0  0  0  0  0
  -26.8952  -30.7153   22.0487 H   0  0  0  0  0  0
  -28.1391  -28.6620   21.2740 H   0  0  0  0  0  0
  -25.8796  -25.7794   18.9959 H   0  0  0  0  0  0
  -23.9920  -27.2874   18.9558 H   0  0  0  0  0  0
  -23.8508  -30.5418   19.3926 H   0  0  0  0  0  0
  -22.8125  -29.2210   19.8324 H   0  0  0  0  0  0
  -25.1328  -36.1797   25.0796 H   0  0  0  0  0  0
  -21.0026  -28.3345   24.1329 H   0  0  0  0  0  0
  -20.5679  -26.2359   23.3637 H   0  0  0  0  0  0
  -21.6659  -26.7417   22.1208 H   0  0  0  0  0  0
  -19.6927  -25.6281   21.1267 H   0  0  0  0  0  0
  -19.6707  -27.3172   20.6728 H   0  0  0  0  0  0
  -17.4219  -26.6684   21.4027 H   0  0  0  0  0  0
  -18.0346  -26.0093   22.9031 H   0  0  0  0  0  0
  -19.7963  -30.7313   24.2212 H   0  0  0  0  0  0
  -17.5033  -31.6273   24.5165 H   0  0  0  0  0  0
  -15.5371  -30.2972   23.7689 H   0  0  0  0  0  0
  -15.8700  -28.0810   22.7098 H   0  0  0  0  0  0
  -24.5895  -30.7106   25.7692 H   0  0  0  0  0  0
  -24.8870  -32.2970   26.4697 H   0  0  0  0  0  0
  -25.7951  -30.9016   27.0223 H   0  0  0  0  0  0
  -26.3089  -29.6615   24.1374 H   0  0  0  0  0  0
  -27.3974  -29.7263   25.5017 H   0  0  0  0  0  0
  -27.9028  -30.4122   23.9785 H   0  0  0  0  0  0
  -27.2637  -33.3675   26.1982 H   0  0  0  0  0  0
  -28.3925  -32.6839   25.0376 H   0  0  0  0  0  0
  -28.0662  -31.8530   26.5509 H   0  0  0  0  0  0
  -28.2576  -38.0077   24.7513 H   0  0  0  0  0  0
  -28.1082  -36.2604   24.6297 H   0  0  0  0  0  0
  -27.2287  -37.1415   25.8868 H   0  0  0  0  0  0
  -20.9548  -29.8741   21.6707 H   0  0  0  0  0  0
  -26.0137  -38.2779   24.1418 H   0  0  0  0  0  0
  -29.5812  -16.9879   18.3062 H   0  0  0  0  0  0
  -29.3515  -19.5428   22.4957 H   0  0  0  0  0  0
  -27.8034  -19.3389   17.6893 H   0  0  0  0  0  0
  -29.4851  -19.6577   17.2640 H   0  0  0  0  0  0
  -27.3572  -21.1926   20.1813 H   0  0  0  0  0  0
  -30.3993  -17.0183   24.8140 H   0  0  0  0  0  0
  -29.0998  -18.0337   24.2079 H   0  0  0  0  0  0
  -30.8015  -18.5036   23.9654 H   0  0  0  0  0  0
  -26.9142  -24.1871   20.5079 H   0  0  0  0  0  0
  -27.6551  -24.2717   18.9501 H   0  0  0  0  0  0
  -27.8142  -21.5816   18.0055 H   0  0  0  0  0  0
  -29.4195  -21.6371   18.2478 H   0  0  0  0  0  0
  1 25  1  0  0  0
  1 30  2  0  0  0
  1 73  1  0  0  0
  2  3  1  0  0  0
  2 25  1  0  0  0
  2 85  1  0  0  0
  2 86  1  0  0  0
  3  4  1  0  0  0
  3 87  1  0  0  0
  3 88  1  0  0  0
  4  5  1  0  0  0
  4 89  1  0  0  0
  4 90  1  0  0  0
  5  6  1  0  0  0
  5 26  1  0  0  0
  5 91  1  0  0  0
  6 25  1  0  0  0
  6 92  1  0  0  0
  6 93  1  0  0  0
  7  8  2  0  0  0
  7 26  1  0  0  0
  7 29  1  0  0  0
  8  9  1  0  0  0
  8 22  1  0  0  0
  9 10  1  0  0  0
  9 27  2  0  0  0
 10 11  2  0  0  0
 10 15  1  0  0  0
 11 12  1  0  0  0
 11 94  1  0  0  0
 12 13  2  0  0  0
 12 95  1  0  0  0
 13 14  1  0  0  0
 13 31  1  0  0  0
 14 15  2  0  0  0
 14 96  1  0  0  0
 15 97  1  0  0  0
 16 17  2  0  0  0
 16 21  1  0  0  0
 16 31  1  0  0  0
 17 18  1  0  0  0
 17 98  1  0  0  0
 18 19  2  0  0  0
 18 99  1  0  0  0
 19 20  1  0  0  0
 19 24  1  0  0  0
 20 21  2  0  0  0
 20100  1  0  0  0
 21 23  1  0  0  0
 22 28  1  0  0  0
 22 32  2  0  0  0
 26 27  1  0  0  0
 28101  1  0  0  0
 28102  1  0  0  0
 29103  1  0  0  0
 29104  1  0  0  0
 33 34  1  0  0  0
 33 66  1  0  0  0
 33 70  2  0  0  0
 34 36  1  0  0  0
 34 59  1  0  0  0
 34105  1  0  0  0
 35 44  2  0  0  0
 35 45  1  0  0  0
 35 68  1  0  0  0
 36 56  1  0  0  0
 36106  1  0  0  0
 37 39  1  0  0  0
 37 47  1  0  0  0
 37 66  1  0  0  0
 37107  1  0  0  0
 38 43  2  0  0  0
 38 46  1  0  0  0
 38 47  1  0  0  0
 39 64  1  0  0  0
 39 67  2  0  0  0
 40 52  1  0  0  0
 40 53  2  0  0  0
 40 58  1  0  0  0
 41108  1  0  0  0
 41109  1  0  0  0
 41110  1  0  0  0
 41 48  1  0  0  0
 42 43  1  0  0  0
 42 66  1  0  0  0
 42111  1  0  0  0
 42112  1  0  0  0
 43 44  1  0  0  0
 44113  1  0  0  0
 45 46  2  0  0  0
 45114  1  0  0  0
 46115  1  0  0  0
 47116  1  0  0  0
 47117  1  0  0  0
 48 56  1  0  0  0
 48 65  1  0  0  0
 48118  1  0  0  0
 49 50  1  0  0  0
 49 53  1  0  0  0
 49 64  1  0  0  0
 49119  1  0  0  0
 50 51  1  0  0  0
 50120  1  0  0  0
 50121  1  0  0  0
 51 52  1  0  0  0
 51122  1  0  0  0
 51123  1  0  0  0
 52124  1  0  0  0
 52125  1  0  0  0
 53 54  1  0  0  0
 54 55  2  0  0  0
 54126  1  0  0  0
 55 57  1  0  0  0
 55127  1  0  0  0
 56 69  2  0  0  0
 57 58  2  0  0  0
 57128  1  0  0  0
 58129  1  0  0  0
 59 60  1  0  0  0
 59 61  1  0  0  0
 59 62  1  0  0  0
 60130  1  0  0  0
 60131  1  0  0  0
 60132  1  0  0  0
 61133  1  0  0  0
 61134  1  0  0  0
 61135  1  0  0  0
 62136  1  0  0  0
 62137  1  0  0  0
 62138  1  0  0  0
 63 65  1  0  0  0
 63139  1  0  0  0
 63140  1  0  0  0
 63141  1  0  0  0
 64142  1  0  0  0
 65143  1  0  0  0
 68 81  1  0  0  0
 71 73  2  0  0  0
 71 74  1  0  0  0
 71144  1  0  0  0
 72 75  1  0  0  0
 72 76  2  0  0  0
 72145  1  0  0  0
 73 76  1  0  0  0
 74 75  2  0  0  0
 74 78  1  0  0  0
 75 79  1  0  0  0
 76 84  1  0  0  0
 77 81  1  0  0  0
 77 83  2  0  0  0
 77 79  1  0  0  0
 78 82  1  0  0  0
 78146  1  0  0  0
 78147  1  0  0  0
 79 82  1  0  0  0
 79148  1  0  0  0
 80 84  1  0  0  0
 80149  1  0  0  0
 80150  1  0  0  0
 80151  1  0  0  0
 81152  1  0  0  0
 81153  1  0  0  0
 82154  1  0  0  0
 82155  1  0  0  0
M  CHG  1  82   1
M  ISO  4   1 100  68 101  73 100  81 101
M  END
> <chiral flag>
0

> <version>
0

> <s_m_source_file>
/data/baiqing/PycharmProjects/Reinvent-master-3.2/result/LINK_invent/BTK/process_docking_weight1_custom_product_contain_oxygen_bond_distance_aromatic_linkinvent_7_9_3/rearranged_h_0103.sdf

> <i_m_source_file_index>
31

> <r_mmod_Potential_Energy-OPLS-2005>
789.075988769531

> <r_mmod_Stretch_Energy-OPLS-2005>
424.821960449219

> <r_mmod_Bend_Energy-OPLS-2005>
454.835723876953

> <r_mmod_Torsional_Energy-OPLS-2005>
232.53581237793

> <r_mmod_Improper_Torsional_Energy-OPLS-2005>
7.73015451431274

> <r_mmod_Van_der_Waal_Energy-OPLS-2005>
128.634552001953

> <r_mmod_Electrostatic_Energy-OPLS-2005>
-253.845718383789

> <r_mmod_Solvation_Energy-OPLS-2005>
-550.73095703125

> <b_mmod_Minimization_Converged-OPLS-2005>
0

> <r_mmod_RMS_Derivative-OPLS-2005>
0.269205510616302

$$$$
31
                    3D
 Structure written by MMmdl.
157165  0  0  1  0            999 V2000
  -30.7113  -14.5525   20.5633 C   0  0  0  0  0  0
  -30.4142  -12.3560   19.4466 C   0  0  0  0  0  0
  -29.4925  -12.4921   18.2187 C   0  0  0  0  0  0
  -28.0184  -12.3396   18.6362 C   0  0  0  0  0  0
  -27.6482  -13.2174   19.8597 C   0  0  2  0  0  0
  -28.6881  -13.0814   20.9910 C   0  0  0  0  0  0
  -25.2555  -13.8200   20.5691 C   0  0  0  0  0  0
  -24.1812  -13.0453   20.9190 C   0  0  0  0  0  0
  -24.6375  -11.6927   20.8733 C   0  0  0  0  0  0
  -23.9056  -10.4303   21.0405 C   0  0  0  0  0  0
  -24.3619   -9.4228   21.9186 C   0  0  0  0  0  0
  -23.6299   -8.2259   22.0755 C   0  0  0  0  0  0
  -22.4283   -8.0284   21.3545 C   0  0  0  0  0  0
  -21.9914   -9.0256   20.4647 C   0  0  0  0  0  0
  -22.7232  -10.2142   20.3052 C   0  0  0  0  0  0
  -21.6863   -6.0743   22.5282 C   0  0  0  0  0  0
  -21.4024   -6.5646   23.8218 C   0  0  0  0  0  0
  -21.3658   -5.6794   24.9177 C   0  0  0  0  0  0
  -21.6035   -4.3054   24.7224 C   0  0  0  0  0  0
  -21.8828   -3.8152   23.4343 C   0  0  0  0  0  0
  -21.9202   -4.6971   22.3402 C   0  0  0  0  0  0
  -22.7842  -13.5245   21.1868 C   0  0  0  0  0  0
  -22.1673   -4.2151   21.0981 F   0  0  0  0  0  0
  -21.5620   -3.4536   25.7740 F   0  0  0  0  0  0
  -30.0148  -13.3813   20.4304 N   0  0  0  0  0  0
  -26.2962  -12.9368   20.3316 N   0  0  0  0  0  0
  -25.9301  -11.6523   20.5758 N   0  0  0  0  0  0
  -22.0499  -12.8202   22.0424 N   0  0  0  0  0  0
  -25.4282  -15.1910   20.4150 N   0  0  0  0  0  0
  -31.8318  -14.6968   20.0656 O   0  0  0  0  0  0
  -21.6648   -6.8874   21.4237 O   0  0  0  0  0  0
  -22.3524  -14.5551   20.6731 O   0  0  0  0  0  0
  -24.6164  -31.8648   23.2047 C   0  0  0  0  0  0
  -25.9045  -32.4816   23.8345 C   0  0  1  0  0  0
  -27.2240  -27.3822   20.1072 C   0  0  0  0  0  0
  -25.5893  -33.8610   24.2293 N   0  0  0  0  0  0
  -23.4067  -30.4855   21.5485 C   0  0  2  0  0  0
  -24.8508  -28.9494   20.1095 C   0  0  0  0  0  0
  -22.7417  -29.4618   22.4971 C   0  0  0  0  0  0
  -18.0265  -28.1324   22.8473 C   0  0  0  0  0  0
  -24.1501  -36.7310   23.2641 C   0  0  0  0  0  0
  -25.9387  -30.8144   21.3650 C   0  0  0  0  0  0
  -26.0138  -29.4466   20.7086 C   0  0  0  0  0  0
  -27.2029  -28.6725   20.7009 C   0  0  0  0  0  0
  -26.0400  -26.9146   19.4923 C   0  0  0  0  0  0
  -24.8602  -27.6855   19.4973 C   0  0  0  0  0  0
  -23.6141  -29.8195   20.1628 C   0  0  0  0  0  0
  -25.4123  -36.3105   24.0334 C   0  0  1  0  0  0
  -20.5864  -28.3637   23.1300 C   0  0  2  0  0  0
  -20.6774  -26.9375   22.5417 C   0  0  0  0  0  0
  -19.5764  -26.6358   21.5197 C   0  0  0  0  0  0
  -18.1938  -26.7878   22.1598 C   0  0  0  0  0  0
  -19.1514  -28.8793   23.2892 C   0  0  0  0  0  0
  -18.9453  -30.1389   23.8916 C   0  0  0  0  0  0
  -17.6464  -30.6568   24.0525 C   0  0  0  0  0  0
  -25.9048  -34.9477   23.5124 C   0  0  0  0  0  0
  -16.5347  -29.9058   23.6310 C   0  0  0  0  0  0
  -16.7254  -28.6452   23.0366 C   0  0  0  0  0  0
  -26.4468  -31.6591   25.0683 C   0  0  0  0  0  0
  -25.3731  -31.3686   26.1435 C   0  0  0  0  0  0
  -27.0301  -30.3031   24.6050 C   0  0  0  0  0  0
  -27.6029  -32.4330   25.7461 C   0  0  0  0  0  0
  -27.5603  -37.1810   24.8465 C   0  0  0  0  0  0
  -21.4145  -29.3005   22.3706 N   0  0  0  0  0  0
  -26.4310  -37.3780   23.9404 N   0  0  0  0  0  0
  -24.6718  -31.0711   22.0966 N   0  0  0  0  0  0
  -23.4192  -28.8157   23.3004 O   0  0  0  0  0  0
  -28.3802  -26.6134   20.1557 O   0  0  0  0  0  0
  -26.5624  -34.8928   22.4703 O   0  0  0  0  0  0
  -23.5346  -32.1408   23.7422 O   0  0  0  0  0  0
  -28.8213  -18.0007   18.5632 C   0  0  0  0  0  0
  -29.2171  -16.8152   19.2185 C   0  0  0  0  0  0
  -28.9605  -19.2582   19.1849 C   0  0  0  0  0  0
  -29.8969  -18.1438   21.1321 C   0  0  0  0  0  0
  -29.7565  -16.8487   20.5273 C   0  0  0  0  0  0
  -29.5068  -19.3567   20.4829 C   0  0  0  0  0  0
  -30.3696  -15.6383   22.6504 C   0  0  0  0  0  0
  -29.4990  -24.4414   20.6445 C   0  0  0  0  0  0
  -29.8408  -22.9566   20.2465 C   0  0  0  0  0  0
  -28.2706  -25.1686   20.0178 C   0  0  0  0  0  0
  -28.9708  -21.7834   20.8082 C   0  0  0  0  0  0
  -30.1132  -15.6028   21.2064 N   0  0  0  0  0  0
  -29.7242  -20.5779   21.1255 O   0  0  0  0  0  0
  -31.4590  -12.4442   19.1448 H   0  0  0  0  0  0
  -30.3199  -11.3622   19.8871 H   0  0  0  0  0  0
  -29.7459  -11.7359   17.4739 H   0  0  0  0  0  0
  -29.6470  -13.4594   17.7398 H   0  0  0  0  0  0
  -27.8546  -11.2881   18.8767 H   0  0  0  0  0  0
  -27.3607  -12.5628   17.7956 H   0  0  0  0  0  0
  -27.6665  -14.2497   19.5160 H   0  0  0  0  0  0
  -28.6777  -12.0762   21.4129 H   0  0  0  0  0  0
  -28.4245  -13.7508   21.8102 H   0  0  0  0  0  0
  -25.2762   -9.5719   22.4763 H   0  0  0  0  0  0
  -24.0020   -7.4657   22.7474 H   0  0  0  0  0  0
  -21.0850   -8.8763   19.8950 H   0  0  0  0  0  0
  -22.3680  -10.9679   19.6162 H   0  0  0  0  0  0
  -21.2021   -7.6158   23.9718 H   0  0  0  0  0  0
  -21.1468   -6.0527   25.9078 H   0  0  0  0  0  0
  -22.0604   -2.7611   23.2847 H   0  0  0  0  0  0
  -22.4133  -11.9853   22.4774 H   0  0  0  0  0  0
  -21.1128  -13.1222   22.2666 H   0  0  0  0  0  0
  -24.6675  -15.8511   20.5336 H   0  0  0  0  0  0
  -26.2946  -15.6326   20.1342 H   0  0  0  0  0  0
  -26.7108  -32.5501   23.1082 H   0  0  0  0  0  0
  -25.0016  -33.9761   25.0419 H   0  0  0  0  0  0
  -22.6945  -31.3022   21.4116 H   0  0  0  0  0  0
  -23.3781  -35.9635   23.3284 H   0  0  0  0  0  0
  -24.3579  -36.8920   22.2056 H   0  0  0  0  0  0
  -23.7248  -37.6502   23.6671 H   0  0  0  0  0  0
  -26.0641  -31.5809   20.5994 H   0  0  0  0  0  0
  -26.8212  -30.8601   21.9918 H   0  0  0  0  0  0
  -28.0993  -29.0456   21.1775 H   0  0  0  0  0  0
  -26.0013  -25.9499   19.0078 H   0  0  0  0  0  0
  -23.9624  -27.2965   19.0343 H   0  0  0  0  0  0
  -23.7215  -30.5956   19.4036 H   0  0  0  0  0  0
  -22.7351  -29.2409   19.8706 H   0  0  0  0  0  0
  -25.1305  -36.1970   25.0825 H   0  0  0  0  0  0
  -20.9940  -28.3214   24.1414 H   0  0  0  0  0  0
  -20.5659  -26.2237   23.3594 H   0  0  0  0  0  0
  -21.6648  -26.7406   22.1220 H   0  0  0  0  0  0
  -19.6945  -25.6282   21.1212 H   0  0  0  0  0  0
  -19.6727  -27.3173   20.6740 H   0  0  0  0  0  0
  -17.4212  -26.6600   21.3996 H   0  0  0  0  0  0
  -18.0330  -26.0011   22.8978 H   0  0  0  0  0  0
  -19.7941  -30.7162   24.2335 H   0  0  0  0  0  0
  -17.5037  -31.6257   24.5107 H   0  0  0  0  0  0
  -15.5352  -30.2976   23.7640 H   0  0  0  0  0  0
  -15.8637  -28.0772   22.7123 H   0  0  0  0  0  0
  -24.5917  -30.7021   25.7770 H   0  0  0  0  0  0
  -24.8927  -32.2835   26.4911 H   0  0  0  0  0  0
  -25.8095  -30.8847   27.0182 H   0  0  0  0  0  0
  -26.2820  -29.6783   24.1150 H   0  0  0  0  0  0
  -27.4106  -29.7273   25.4495 H   0  0  0  0  0  0
  -27.8648  -30.4338   23.9158 H   0  0  0  0  0  0
  -27.2629  -33.3632   26.2023 H   0  0  0  0  0  0
  -28.3849  -32.6860   25.0298 H   0  0  0  0  0  0
  -28.0678  -31.8463   26.5384 H   0  0  0  0  0  0
  -28.2613  -38.0116   24.7533 H   0  0  0  0  0  0
  -28.1105  -36.2646   24.6282 H   0  0  0  0  0  0
  -27.2308  -37.1419   25.8860 H   0  0  0  0  0  0
  -20.9308  -29.8728   21.6930 H   0  0  0  0  0  0
  -26.0212  -38.2865   24.1394 H   0  0  0  0  0  0
  -28.4090  -17.9464   17.5645 H   0  0  0  0  0  0
  -29.0884  -15.8787   18.6944 H   0  0  0  0  0  0
  -28.6693  -20.1410   18.6344 H   0  0  0  0  0  0
  -30.3236  -18.2352   22.1201 H   0  0  0  0  0  0
  -31.4153  -15.8858   22.8417 H   0  0  0  0  0  0
  -30.1703  -14.6702   23.1150 H   0  0  0  0  0  0
  -29.7416  -16.3642   23.1653 H   0  0  0  0  0  0
  -30.3711  -25.0384   20.3709 H   0  0  0  0  0  0
  -29.4322  -24.5169   21.7302 H   0  0  0  0  0  0
  -30.8516  -22.7917   20.6217 H   0  0  0  0  0  0
  -29.9310  -22.8729   19.1632 H   0  0  0  0  0  0
  -27.3740  -24.7978   20.5184 H   0  0  0  0  0  0
  -28.1813  -24.9164   18.9609 H   0  0  0  0  0  0
  -28.1061  -21.6001   20.1700 H   0  0  0  0  0  0
  -28.5471  -22.1073   21.7597 H   0  0  0  0  0  0
  1 25  1  0  0  0
  1 30  2  0  0  0
  1 82  1  0  0  0
  2  3  1  0  0  0
  2 25  1  0  0  0
  2 84  1  0  0  0
  2 85  1  0  0  0
  3  4  1  0  0  0
  3 86  1  0  0  0
  3 87  1  0  0  0
  4  5  1  0  0  0
  4 88  1  0  0  0
  4 89  1  0  0  0
  5  6  1  0  0  0
  5 26  1  0  0  0
  5 90  1  0  0  0
  6 25  1  0  0  0
  6 91  1  0  0  0
  6 92  1  0  0  0
  7  8  2  0  0  0
  7 26  1  0  0  0
  7 29  1  0  0  0
  8  9  1  0  0  0
  8 22  1  0  0  0
  9 10  1  0  0  0
  9 27  2  0  0  0
 10 11  2  0  0  0
 10 15  1  0  0  0
 11 12  1  0  0  0
 11 93  1  0  0  0
 12 13  2  0  0  0
 12 94  1  0  0  0
 13 14  1  0  0  0
 13 31  1  0  0  0
 14 15  2  0  0  0
 14 95  1  0  0  0
 15 96  1  0  0  0
 16 17  2  0  0  0
 16 21  1  0  0  0
 16 31  1  0  0  0
 17 18  1  0  0  0
 17 97  1  0  0  0
 18 19  2  0  0  0
 18 98  1  0  0  0
 19 20  1  0  0  0
 19 24  1  0  0  0
 20 21  2  0  0  0
 20 99  1  0  0  0
 21 23  1  0  0  0
 22 28  1  0  0  0
 22 32  2  0  0  0
 26 27  1  0  0  0
 28100  1  0  0  0
 28101  1  0  0  0
 29102  1  0  0  0
 29103  1  0  0  0
 33 34  1  0  0  0
 33 66  1  0  0  0
 33 70  2  0  0  0
 34 36  1  0  0  0
 34 59  1  0  0  0
 34104  1  0  0  0
 35 44  2  0  0  0
 35 45  1  0  0  0
 35 68  1  0  0  0
 36 56  1  0  0  0
 36105  1  0  0  0
 37 39  1  0  0  0
 37 47  1  0  0  0
 37 66  1  0  0  0
 37106  1  0  0  0
 38 43  2  0  0  0
 38 46  1  0  0  0
 38 47  1  0  0  0
 39 64  1  0  0  0
 39 67  2  0  0  0
 40 52  1  0  0  0
 40 53  2  0  0  0
 40 58  1  0  0  0
 41107  1  0  0  0
 41108  1  0  0  0
 41109  1  0  0  0
 41 48  1  0  0  0
 42 43  1  0  0  0
 42 66  1  0  0  0
 42110  1  0  0  0
 42111  1  0  0  0
 43 44  1  0  0  0
 44112  1  0  0  0
 45 46  2  0  0  0
 45113  1  0  0  0
 46114  1  0  0  0
 47115  1  0  0  0
 47116  1  0  0  0
 48 56  1  0  0  0
 48 65  1  0  0  0
 48117  1  0  0  0
 49 50  1  0  0  0
 49 53  1  0  0  0
 49 64  1  0  0  0
 49118  1  0  0  0
 50 51  1  0  0  0
 50119  1  0  0  0
 50120  1  0  0  0
 51 52  1  0  0  0
 51121  1  0  0  0
 51122  1  0  0  0
 52123  1  0  0  0
 52124  1  0  0  0
 53 54  1  0  0  0
 54 55  2  0  0  0
 54125  1  0  0  0
 55 57  1  0  0  0
 55126  1  0  0  0
 56 69  2  0  0  0
 57 58  2  0  0  0
 57127  1  0  0  0
 58128  1  0  0  0
 59 60  1  0  0  0
 59 61  1  0  0  0
 59 62  1  0  0  0
 60129  1  0  0  0
 60130  1  0  0  0
 60131  1  0  0  0
 61132  1  0  0  0
 61133  1  0  0  0
 61134  1  0  0  0
 62135  1  0  0  0
 62136  1  0  0  0
 62137  1  0  0  0
 63 65  1  0  0  0
 63138  1  0  0  0
 63139  1  0  0  0
 63140  1  0  0  0
 64141  1  0  0  0
 65142  1  0  0  0
 68 80  1  0  0  0
 71 72  2  0  0  0
 71 73  1  0  0  0
 71143  1  0  0  0
 72 75  1  0  0  0
 72144  1  0  0  0
 73 76  2  0  0  0
 73145  1  0  0  0
 74 75  2  0  0  0
 74 76  1  0  0  0
 74146  1  0  0  0
 75 82  1  0  0  0
 76 83  1  0  0  0
 77 82  1  0  0  0
 77147  1  0  0  0
 77148  1  0  0  0
 77149  1  0  0  0
 78 79  1  0  0  0
 78 80  1  0  0  0
 78150  1  0  0  0
 78151  1  0  0  0
 79 81  1  0  0  0
 79152  1  0  0  0
 79153  1  0  0  0
 80154  1  0  0  0
 80155  1  0  0  0
 81 83  1  0  0  0
 81156  1  0  0  0
 81157  1  0  0  0
M  ISO  4   1 100  68 101  80 101  82 100
M  END
> <chiral flag>
0

> <version>
0

> <s_m_source_file>
/data/baiqing/PycharmProjects/Reinvent-master-3.2/result/LINK_invent/BTK/process_docking_weight1_custom_product_contain_oxygen_bond_distance_aromatic_linkinvent_7_9_3/rearranged_h_0103.sdf

> <i_m_source_file_index>
32

> <r_mmod_Potential_Energy-OPLS-2005>
173.890197753906

> <r_mmod_Stretch_Energy-OPLS-2005>
58.6572227478027

> <r_mmod_Bend_Energy-OPLS-2005>
131.323348999023

> <r_mmod_Torsional_Energy-OPLS-2005>
291.590423583984

> <r_mmod_Improper_Torsional_Energy-OPLS-2005>
3.39532065391541

> <r_mmod_Van_der_Waal_Energy-OPLS-2005>
148.790176391602

> <r_mmod_Electrostatic_Energy-OPLS-2005>
-290.822296142578

> <r_mmod_Solvation_Energy-OPLS-2005>
-194.754669189453

> <b_mmod_Minimization_Converged-OPLS-2005>
0

> <r_mmod_RMS_Derivative-OPLS-2005>
2.82850742340088

$$$$
32
                    3D
 Structure written by MMmdl.
160169  0  0  1  0            999 V2000
  -30.6014  -14.7377   20.4333 C   0  0  0  0  0  0
  -30.4267  -12.4397   19.4806 C   0  0  0  0  0  0
  -29.5123  -12.5078   18.2375 C   0  0  0  0  0  0
  -28.0348  -12.3407   18.6433 C   0  0  0  0  0  0
  -27.6415  -13.2333   19.8510 C   0  0  2  0  0  0
  -28.6839  -13.1610   20.9885 C   0  0  0  0  0  0
  -25.2508  -13.8215   20.5690 C   0  0  0  0  0  0
  -24.1801  -13.0449   20.9194 C   0  0  0  0  0  0
  -24.6392  -11.6930   20.8728 C   0  0  0  0  0  0
  -23.9065  -10.4302   21.0403 C   0  0  0  0  0  0
  -24.3624   -9.4227   21.9192 C   0  0  0  0  0  0
  -23.6311   -8.2253   22.0764 C   0  0  0  0  0  0
  -22.4287   -8.0281   21.3548 C   0  0  0  0  0  0
  -21.9912   -9.0256   20.4650 C   0  0  0  0  0  0
  -22.7231  -10.2146   20.3063 C   0  0  0  0  0  0
  -21.6861   -6.0735   22.5277 C   0  0  0  0  0  0
  -21.4011   -6.5637   23.8206 C   0  0  0  0  0  0
  -21.3663   -5.6788   24.9175 C   0  0  0  0  0  0
  -21.6053   -4.3054   24.7222 C   0  0  0  0  0  0
  -21.8823   -3.8143   23.4336 C   0  0  0  0  0  0
  -21.9196   -4.6957   22.3396 C   0  0  0  0  0  0
  -22.7826  -13.5227   21.1863 C   0  0  0  0  0  0
  -22.1672   -4.2146   21.0977 F   0  0  0  0  0  0
  -21.5637   -3.4539   25.7736 F   0  0  0  0  0  0
  -29.9861  -13.5067   20.4092 N   0  0  0  0  0  0
  -26.2930  -12.9414   20.3272 N   0  0  0  0  0  0
  -25.9319  -11.6558   20.5732 N   0  0  0  0  0  0
  -22.0475  -12.8208   22.0417 N   0  0  0  0  0  0
  -25.4196  -15.1939   20.4121 N   0  0  0  0  0  0
  -31.7970  -14.8149   20.1351 O   0  0  0  0  0  0
  -21.6651   -6.8878   21.4240 O   0  0  0  0  0  0
  -22.3508  -14.5541   20.6727 O   0  0  0  0  0  0
  -24.6306  -31.8559   23.1981 C   0  0  0  0  0  0
  -25.9138  -32.4753   23.8328 C   0  0  1  0  0  0
  -27.2135  -27.2770   20.1398 C   0  0  0  0  0  0
  -25.5931  -33.8552   24.2252 N   0  0  0  0  0  0
  -23.4247  -30.4798   21.5406 C   0  0  2  0  0  0
  -24.8714  -28.9226   20.1156 C   0  0  0  0  0  0
  -22.7486  -29.4619   22.4902 C   0  0  0  0  0  0
  -18.0303  -28.1390   22.8497 C   0  0  0  0  0  0
  -24.1490  -36.7290   23.2635 C   0  0  0  0  0  0
  -25.9672  -30.7778   21.3705 C   0  0  0  0  0  0
  -26.0419  -29.3974   20.7211 C   0  0  0  0  0  0
  -27.2198  -28.5879   20.7195 C   0  0  0  0  0  0
  -26.0239  -26.8577   19.5111 C   0  0  0  0  0  0
  -24.8654  -27.6599   19.4999 C   0  0  0  0  0  0
  -23.6438  -29.8114   20.1575 C   0  0  0  0  0  0
  -25.4106  -36.3064   24.0327 C   0  0  1  0  0  0
  -20.5902  -28.3706   23.1269 C   0  0  2  0  0  0
  -20.6789  -26.9420   22.5410 C   0  0  0  0  0  0
  -19.5761  -26.6388   21.5215 C   0  0  0  0  0  0
  -18.1944  -26.7938   22.1629 C   0  0  0  0  0  0
  -19.1552  -28.8862   23.2889 C   0  0  0  0  0  0
  -18.9465  -30.1460   23.8920 C   0  0  0  0  0  0
  -17.6463  -30.6595   24.0561 C   0  0  0  0  0  0
  -25.9047  -34.9436   23.5087 C   0  0  0  0  0  0
  -16.5358  -29.9092   23.6317 C   0  0  0  0  0  0
  -16.7287  -28.6502   23.0357 C   0  0  0  0  0  0
  -26.4513  -31.6566   25.0705 C   0  0  0  0  0  0
  -25.3729  -31.3725   26.1415 C   0  0  0  0  0  0
  -27.0352  -30.2988   24.6162 C   0  0  0  0  0  0
  -27.6074  -32.4286   25.7502 C   0  0  0  0  0  0
  -27.5574  -37.1795   24.8461 C   0  0  0  0  0  0
  -21.4195  -29.3062   22.3659 N   0  0  0  0  0  0
  -26.4280  -37.3758   23.9415 N   0  0  0  0  0  0
  -24.6935  -31.0547   22.0946 N   0  0  0  0  0  0
  -23.4196  -28.8149   23.2984 O   0  0  0  0  0  0
  -28.3145  -26.4018   20.1381 O   0  0  0  0  0  0
  -26.5614  -34.8918   22.4656 O   0  0  0  0  0  0
  -23.5458  -32.1377   23.7282 O   0  0  0  0  0  0
  -31.1539  -18.8840   18.6751 C   0  0  0  0  0  0
  -30.3448  -19.9554   19.0961 C   0  0  0  0  0  0
  -30.9933  -17.5859   19.2006 C   0  0  0  0  0  0
  -29.2012  -18.4223   20.6045 C   0  0  0  0  0  0
  -29.3547  -19.7782   20.0811 C   0  0  0  0  0  0
  -30.0135  -17.2869   20.1783 C   0  0  0  0  0  0
  -31.0095  -23.5541   20.3161 C   0  0  0  0  0  0
  -29.9755  -23.9075   19.2443 C   0  0  0  0  0  0
  -30.3311  -22.5103   21.2190 C   0  0  0  0  0  0
  -28.6284  -23.6779   19.9361 C   0  0  2  0  0  0
  -28.4055  -21.0243   20.4022 C   0  0  0  0  0  0
  -28.1582  -25.0249   20.7146 C   0  0  0  0  0  0
  -29.8193  -15.8754   20.6252 N   0  0  0  0  0  0
  -28.9080  -22.4326   20.8052 N   0  3  1  0  0  0
  -31.4717  -12.5495   19.1874 H   0  0  0  0  0  0
  -30.3519  -11.4614   19.9595 H   0  0  0  0  0  0
  -29.7926  -11.7369   17.5182 H   0  0  0  0  0  0
  -29.6498  -13.4641   17.7297 H   0  0  0  0  0  0
  -27.8825  -11.2907   18.8951 H   0  0  0  0  0  0
  -27.3847  -12.5491   17.7920 H   0  0  0  0  0  0
  -27.6348  -14.2567   19.4753 H   0  0  0  0  0  0
  -28.7153  -12.1612   21.4249 H   0  0  0  0  0  0
  -28.4226  -13.8412   21.8012 H   0  0  0  0  0  0
  -25.2783   -9.5713   22.4753 H   0  0  0  0  0  0
  -24.0035   -7.4645   22.7477 H   0  0  0  0  0  0
  -21.0842   -8.8758   19.8948 H   0  0  0  0  0  0
  -22.3684  -10.9683   19.6165 H   0  0  0  0  0  0
  -21.1999   -7.6146   23.9703 H   0  0  0  0  0  0
  -21.1490   -6.0528   25.9078 H   0  0  0  0  0  0
  -22.0598   -2.7601   23.2839 H   0  0  0  0  0  0
  -22.4103  -11.9872   22.4803 H   0  0  0  0  0  0
  -21.1091  -13.1233   22.2620 H   0  0  0  0  0  0
  -24.6498  -15.8454   20.5200 H   0  0  0  0  0  0
  -26.2635  -15.6347   20.0694 H   0  0  0  0  0  0
  -26.7206  -32.5423   23.1073 H   0  0  0  0  0  0
  -25.0081  -33.9688   25.0403 H   0  0  0  0  0  0
  -22.7221  -31.3028   21.3923 H   0  0  0  0  0  0
  -23.3747  -35.9627   23.3278 H   0  0  0  0  0  0
  -24.3584  -36.8933   22.2054 H   0  0  0  0  0  0
  -23.7255  -37.6491   23.6674 H   0  0  0  0  0  0
  -26.0887  -31.5327   20.5925 H   0  0  0  0  0  0
  -26.8515  -30.8387   21.9934 H   0  0  0  0  0  0
  -28.1186  -28.9489   21.2005 H   0  0  0  0  0  0
  -25.9842  -25.8909   19.0307 H   0  0  0  0  0  0
  -23.9674  -27.2919   19.0221 H   0  0  0  0  0  0
  -23.7735  -30.5874   19.4023 H   0  0  0  0  0  0
  -22.7636  -29.2468   19.8468 H   0  0  0  0  0  0
  -25.1285  -36.1898   25.0818 H   0  0  0  0  0  0
  -21.0007  -28.3286   24.1380 H   0  0  0  0  0  0
  -20.5688  -26.2314   23.3616 H   0  0  0  0  0  0
  -21.6654  -26.7444   22.1191 H   0  0  0  0  0  0
  -19.6914  -25.6290   21.1262 H   0  0  0  0  0  0
  -19.6701  -27.3192   20.6738 H   0  0  0  0  0  0
  -17.4208  -26.6703   21.4034 H   0  0  0  0  0  0
  -18.0338  -26.0077   22.9021 H   0  0  0  0  0  0
  -19.7934  -30.7275   24.2311 H   0  0  0  0  0  0
  -17.5009  -31.6280   24.5150 H   0  0  0  0  0  0
  -15.5357  -30.2999   23.7614 H   0  0  0  0  0  0
  -15.8695  -28.0814   22.7068 H   0  0  0  0  0  0
  -24.5914  -30.7063   25.7738 H   0  0  0  0  0  0
  -24.8908  -32.2902   26.4794 H   0  0  0  0  0  0
  -25.8022  -30.8930   27.0219 H   0  0  0  0  0  0
  -26.2928  -29.6742   24.1173 H   0  0  0  0  0  0
  -27.4047  -29.7234   25.4663 H   0  0  0  0  0  0
  -27.8801  -30.4282   23.9391 H   0  0  0  0  0  0
  -27.2689  -33.3585   26.2085 H   0  0  0  0  0  0
  -28.3904  -32.6829   25.0346 H   0  0  0  0  0  0
  -28.0719  -31.8393   26.5419 H   0  0  0  0  0  0
  -28.2562  -38.0116   24.7493 H   0  0  0  0  0  0
  -28.1092  -36.2635   24.6284 H   0  0  0  0  0  0
  -27.2295  -37.1443   25.8866 H   0  0  0  0  0  0
  -20.9369  -29.8795   21.6883 H   0  0  0  0  0  0
  -26.0152  -38.2830   24.1418 H   0  0  0  0  0  0
  -31.8971  -19.0527   17.9087 H   0  0  0  0  0  0
  -30.4783  -20.9239   18.6350 H   0  0  0  0  0  0
  -31.6316  -16.8160   18.7934 H   0  0  0  0  0  0
  -28.4140  -18.2428   21.3223 H   0  0  0  0  0  0
  -31.2602  -24.4395   20.9029 H   0  0  0  0  0  0
  -31.9354  -23.1809   19.8775 H   0  0  0  0  0  0
  -30.0720  -23.2186   18.4035 H   0  0  0  0  0  0
  -30.1005  -24.9158   18.8473 H   0  0  0  0  0  0
  -30.3724  -22.8394   22.2579 H   0  0  0  0  0  0
  -30.8541  -21.5566   21.1878 H   0  0  0  0  0  0
  -27.8667  -23.4529   19.1885 H   0  0  0  0  0  0
  -27.7680  -20.7054   21.2270 H   0  0  0  0  0  0
  -27.7188  -21.1333   19.5625 H   0  0  0  0  0  0
  -28.7325  -25.0679   21.6409 H   0  0  0  0  0  0
  -27.1301  -24.8804   21.0460 H   0  0  0  0  0  0
  -28.9060  -15.6717   21.0005 H   0  0  0  0  0  0
  -28.3844  -22.5877   21.6542 H   0  0  0  0  0  0
  1 25  1  0  0  0
  1 30  2  0  0  0
  1 83  1  0  0  0
  2  3  1  0  0  0
  2 25  1  0  0  0
  2 85  1  0  0  0
  2 86  1  0  0  0
  3  4  1  0  0  0
  3 87  1  0  0  0
  3 88  1  0  0  0
  4  5  1  0  0  0
  4 89  1  0  0  0
  4 90  1  0  0  0
  5  6  1  0  0  0
  5 26  1  0  0  0
  5 91  1  0  0  0
  6 25  1  0  0  0
  6 92  1  0  0  0
  6 93  1  0  0  0
  7  8  2  0  0  0
  7 26  1  0  0  0
  7 29  1  0  0  0
  8  9  1  0  0  0
  8 22  1  0  0  0
  9 10  1  0  0  0
  9 27  2  0  0  0
 10 11  2  0  0  0
 10 15  1  0  0  0
 11 12  1  0  0  0
 11 94  1  0  0  0
 12 13  2  0  0  0
 12 95  1  0  0  0
 13 14  1  0  0  0
 13 31  1  0  0  0
 14 15  2  0  0  0
 14 96  1  0  0  0
 15 97  1  0  0  0
 16 17  2  0  0  0
 16 21  1  0  0  0
 16 31  1  0  0  0
 17 18  1  0  0  0
 17 98  1  0  0  0
 18 19  2  0  0  0
 18 99  1  0  0  0
 19 20  1  0  0  0
 19 24  1  0  0  0
 20 21  2  0  0  0
 20100  1  0  0  0
 21 23  1  0  0  0
 22 28  1  0  0  0
 22 32  2  0  0  0
 26 27  1  0  0  0
 28101  1  0  0  0
 28102  1  0  0  0
 29103  1  0  0  0
 29104  1  0  0  0
 33 34  1  0  0  0
 33 66  1  0  0  0
 33 70  2  0  0  0
 34 36  1  0  0  0
 34 59  1  0  0  0
 34105  1  0  0  0
 35 44  2  0  0  0
 35 45  1  0  0  0
 35 68  1  0  0  0
 36 56  1  0  0  0
 36106  1  0  0  0
 37 39  1  0  0  0
 37 47  1  0  0  0
 37 66  1  0  0  0
 37107  1  0  0  0
 38 43  2  0  0  0
 38 46  1  0  0  0
 38 47  1  0  0  0
 39 64  1  0  0  0
 39 67  2  0  0  0
 40 52  1  0  0  0
 40 53  2  0  0  0
 40 58  1  0  0  0
 41108  1  0  0  0
 41109  1  0  0  0
 41110  1  0  0  0
 41 48  1  0  0  0
 42 43  1  0  0  0
 42 66  1  0  0  0
 42111  1  0  0  0
 42112  1  0  0  0
 43 44  1  0  0  0
 44113  1  0  0  0
 45 46  2  0  0  0
 45114  1  0  0  0
 46115  1  0  0  0
 47116  1  0  0  0
 47117  1  0  0  0
 48 56  1  0  0  0
 48 65  1  0  0  0
 48118  1  0  0  0
 49 50  1  0  0  0
 49 53  1  0  0  0
 49 64  1  0  0  0
 49119  1  0  0  0
 50 51  1  0  0  0
 50120  1  0  0  0
 50121  1  0  0  0
 51 52  1  0  0  0
 51122  1  0  0  0
 51123  1  0  0  0
 52124  1  0  0  0
 52125  1  0  0  0
 53 54  1  0  0  0
 54 55  2  0  0  0
 54126  1  0  0  0
 55 57  1  0  0  0
 55127  1  0  0  0
 56 69  2  0  0  0
 57 58  2  0  0  0
 57128  1  0  0  0
 58129  1  0  0  0
 59 60  1  0  0  0
 59 61  1  0  0  0
 59 62  1  0  0  0
 60130  1  0  0  0
 60131  1  0  0  0
 60132  1  0  0  0
 61133  1  0  0  0
 61134  1  0  0  0
 61135  1  0  0  0
 62136  1  0  0  0
 62137  1  0  0  0
 62138  1  0  0  0
 63 65  1  0  0  0
 63139  1  0  0  0
 63140  1  0  0  0
 63141  1  0  0  0
 64142  1  0  0  0
 65143  1  0  0  0
 68 82  1  0  0  0
 71 72  2  0  0  0
 71 73  1  0  0  0
 71144  1  0  0  0
 72 75  1  0  0  0
 72145  1  0  0  0
 73 76  2  0  0  0
 73146  1  0  0  0
 74 75  2  0  0  0
 74 76  1  0  0  0
 74147  1  0  0  0
 75 81  1  0  0  0
 76 83  1  0  0  0
 77 78  1  0  0  0
 77 79  1  0  0  0
 77148  1  0  0  0
 77149  1  0  0  0
 78 80  1  0  0  0
 78150  1  0  0  0
 78151  1  0  0  0
 79 84  1  0  0  0
 79152  1  0  0  0
 79153  1  0  0  0
 80 82  1  0  0  0
 80 84  1  0  0  0
 80154  1  0  0  0
 81155  1  0  0  0
 81156  1  0  0  0
 81 84  1  0  0  0
 82157  1  0  0  0
 82158  1  0  0  0
 83159  1  0  0  0
 84160  1  0  0  0
M  CHG  1  84   1
M  ISO  4   1 100  68 101  82 101  83 100
M  END
> <chiral flag>
0

> <version>
0

> <s_m_source_file>
/data/baiqing/PycharmProjects/Reinvent-master-3.2/result/LINK_invent/BTK/process_docking_weight1_custom_product_contain_oxygen_bond_distance_aromatic_linkinvent_7_9_3/rearranged_h_0103.sdf

> <i_m_source_file_index>
33

> <r_mmod_Potential_Energy-OPLS-2005>
191.898483276367

> <r_mmod_Stretch_Energy-OPLS-2005>
124.205703735352

> <r_mmod_Bend_Energy-OPLS-2005>
194.54280090332

> <r_mmod_Torsional_Energy-OPLS-2005>
319.186462402344

> <r_mmod_Improper_Torsional_Energy-OPLS-2005>
4.85583925247192

> <r_mmod_Van_der_Waal_Energy-OPLS-2005>
134.893447875977

> <r_mmod_Electrostatic_Energy-OPLS-2005>
-224.660781860352

> <r_mmod_Solvation_Energy-OPLS-2005>
-439.208892822266

> <b_mmod_Minimization_Converged-OPLS-2005>
0

> <r_mmod_RMS_Derivative-OPLS-2005>
1.860347032547

$$$$
33
                    3D
 Structure written by MMmdl.
166175  0  0  1  0            999 V2000
  -30.7115  -14.4948   20.5916 C   0  0  0  0  0  0
  -30.4251  -12.3215   19.4325 C   0  0  0  0  0  0
  -29.4982  -12.4581   18.2083 C   0  0  0  0  0  0
  -28.0107  -12.3642   18.6120 C   0  0  0  0  0  0
  -27.6531  -13.2041   19.8678 C   0  0  2  0  0  0
  -28.6923  -12.9997   20.9829 C   0  0  0  0  0  0
  -25.2567  -13.8159   20.5678 C   0  0  0  0  0  0
  -24.1822  -13.0440   20.9170 C   0  0  0  0  0  0
  -24.6379  -11.6911   20.8747 C   0  0  0  0  0  0
  -23.9053  -10.4304   21.0414 C   0  0  0  0  0  0
  -24.3620   -9.4220   21.9182 C   0  0  0  0  0  0
  -23.6297   -8.2255   22.0756 C   0  0  0  0  0  0
  -22.4283   -8.0290   21.3541 C   0  0  0  0  0  0
  -21.9911   -9.0266   20.4643 C   0  0  0  0  0  0
  -22.7239  -10.2146   20.3056 C   0  0  0  0  0  0
  -21.6860   -6.0745   22.5276 C   0  0  0  0  0  0
  -21.4018   -6.5641   23.8216 C   0  0  0  0  0  0
  -21.3656   -5.6784   24.9171 C   0  0  0  0  0  0
  -21.6045   -4.3046   24.7216 C   0  0  0  0  0  0
  -21.8824   -3.8152   23.4334 C   0  0  0  0  0  0
  -21.9203   -4.6971   22.3390 C   0  0  0  0  0  0
  -22.7848  -13.5237   21.1827 C   0  0  0  0  0  0
  -22.1666   -4.2155   21.0965 F   0  0  0  0  0  0
  -21.5635   -3.4528   25.7731 F   0  0  0  0  0  0
  -30.0197  -13.3261   20.4303 N   0  0  0  0  0  0
  -26.2981  -12.9314   20.3343 N   0  0  0  0  0  0
  -25.9292  -11.6485   20.5759 N   0  0  0  0  0  0
  -22.0480  -12.8217   22.0364 N   0  0  0  0  0  0
  -25.4296  -15.1881   20.4107 N   0  0  0  0  0  0
  -31.8321  -14.6670   20.1025 O   0  0  0  0  0  0
  -21.6644   -6.8890   21.4242 O   0  0  0  0  0  0
  -22.3546  -14.5557   20.6693 O   0  0  0  0  0  0
  -24.6139  -31.8666   23.2085 C   0  0  0  0  0  0
  -25.9026  -32.4822   23.8383 C   0  0  1  0  0  0
  -27.2481  -27.4384   20.0772 C   0  0  0  0  0  0
  -25.5873  -33.8620   24.2320 N   0  0  0  0  0  0
  -23.4032  -30.4889   21.5481 C   0  0  2  0  0  0
  -24.8529  -28.9558   20.1095 C   0  0  0  0  0  0
  -22.7404  -29.4647   22.4969 C   0  0  0  0  0  0
  -18.0267  -28.1375   22.8496 C   0  0  0  0  0  0
  -24.1481  -36.7322   23.2637 C   0  0  0  0  0  0
  -25.9316  -30.8307   21.3630 C   0  0  0  0  0  0
  -26.0105  -29.4641   20.7110 C   0  0  0  0  0  0
  -27.2049  -28.7065   20.7035 C   0  0  0  0  0  0
  -26.0659  -26.9365   19.4877 C   0  0  0  0  0  0
  -24.8748  -27.6891   19.4988 C   0  0  0  0  0  0
  -23.6121  -29.8199   20.1621 C   0  0  0  0  0  0
  -25.4107  -36.3119   24.0335 C   0  0  1  0  0  0
  -20.5856  -28.3663   23.1316 C   0  0  2  0  0  0
  -20.6756  -26.9396   22.5420 C   0  0  0  0  0  0
  -19.5737  -26.6383   21.5212 C   0  0  0  0  0  0
  -18.1914  -26.7924   22.1623 C   0  0  0  0  0  0
  -19.1516  -28.8834   23.2904 C   0  0  0  0  0  0
  -18.9447  -30.1438   23.8917 C   0  0  0  0  0  0
  -17.6455  -30.6585   24.0569 C   0  0  0  0  0  0
  -25.9033  -34.9478   23.5133 C   0  0  0  0  0  0
  -16.5349  -29.9090   23.6325 C   0  0  0  0  0  0
  -16.7263  -28.6506   23.0352 C   0  0  0  0  0  0
  -26.4445  -31.6599   25.0714 C   0  0  0  0  0  0
  -25.3708  -31.3689   26.1455 C   0  0  0  0  0  0
  -27.0283  -30.3048   24.6085 C   0  0  0  0  0  0
  -27.6007  -32.4313   25.7506 C   0  0  0  0  0  0
  -27.5583  -37.1824   24.8460 C   0  0  0  0  0  0
  -21.4131  -29.3032   22.3717 N   0  0  0  0  0  0
  -26.4297  -37.3804   23.9404 N   0  0  0  0  0  0
  -24.6681  -31.0750   22.0995 N   0  0  0  0  0  0
  -23.4173  -28.8187   23.3013 O   0  0  0  0  0  0
  -28.4169  -26.7022   20.1179 O   0  0  0  0  0  0
  -26.5609  -34.8927   22.4703 O   0  0  0  0  0  0
  -23.5329  -32.1413   23.7478 O   0  0  0  0  0  0
  -29.3712  -19.2528   21.1858 C   0  0  0  0  0  0
  -29.6727  -17.9382   21.6083 C   0  0  0  0  0  0
  -29.3430  -18.4807   18.9065 C   0  0  0  0  0  0
  -29.2043  -19.5424   19.8197 C   0  0  0  0  0  0
  -29.6367  -17.1563   19.3142 C   0  0  0  0  0  0
  -29.8136  -16.8411   20.7048 C   0  0  0  0  0  0
  -30.8003  -22.2132   20.0849 C   0  0  0  0  0  0
  -28.8494  -23.3589   19.3265 C   0  0  0  0  0  0
  -31.4886  -23.5334   20.4923 C   0  0  0  0  0  0
  -30.5955  -24.7808   20.4201 C   0  0  0  0  0  0
  -29.6453  -24.6845   19.2274 C   0  0  2  0  0  0
  -29.7177  -16.1448   18.1827 C   0  0  0  0  0  0
  -30.1108  -15.3462   22.7210 C   0  0  0  0  0  0
  -28.7762  -20.9326   19.3023 C   0  0  0  0  0  0
  -28.8332  -25.9882   18.9433 C   0  0  0  0  0  0
  -29.5057  -22.1965   19.6452 N   0  0  0  0  0  0
  -30.0820  -15.5052   21.2548 N   0  0  0  0  0  0
  -31.5008  -21.2019   20.1696 O   0  0  0  0  0  0
  -27.6476  -23.3801   19.0309 O   0  0  0  0  0  0
  -31.4680  -12.4267   19.1284 H   0  0  0  0  0  0
  -30.3450  -11.3216   19.8614 H   0  0  0  0  0  0
  -29.7283  -11.6760   17.4840 H   0  0  0  0  0  0
  -29.6995  -13.3939   17.6918 H   0  0  0  0  0  0
  -27.7927  -11.3129   18.8028 H   0  0  0  0  0  0
  -27.3755  -12.6563   17.7749 H   0  0  0  0  0  0
  -27.6813  -14.2533   19.5867 H   0  0  0  0  0  0
  -28.6803  -11.9660   21.3328 H   0  0  0  0  0  0
  -28.4146  -13.5981   21.8477 H   0  0  0  0  0  0
  -25.2775   -9.5698   22.4737 H   0  0  0  0  0  0
  -24.0013   -7.4647   22.7473 H   0  0  0  0  0  0
  -21.0854   -8.8794   19.8921 H   0  0  0  0  0  0
  -22.3725  -10.9686   19.6157 H   0  0  0  0  0  0
  -21.1999   -7.6152   23.9722 H   0  0  0  0  0  0
  -21.1470   -6.0507   25.9073 H   0  0  0  0  0  0
  -22.0605   -2.7613   23.2832 H   0  0  0  0  0  0
  -22.4090  -11.9849   22.4705 H   0  0  0  0  0  0
  -21.1090  -13.1237   22.2558 H   0  0  0  0  0  0
  -24.6695  -15.8497   20.5258 H   0  0  0  0  0  0
  -26.2962  -15.6282   20.1284 H   0  0  0  0  0  0
  -26.7102  -32.5534   23.1148 H   0  0  0  0  0  0
  -24.9985  -33.9779   25.0442 H   0  0  0  0  0  0
  -22.6929  -31.3066   21.4078 H   0  0  0  0  0  0
  -23.3743  -35.9658   23.3304 H   0  0  0  0  0  0
  -24.3563  -36.8936   22.2050 H   0  0  0  0  0  0
  -23.7238  -37.6528   23.6651 H   0  0  0  0  0  0
  -26.0398  -31.5961   20.5930 H   0  0  0  0  0  0
  -26.8208  -30.8884   21.9794 H   0  0  0  0  0  0
  -28.0980  -29.0937   21.1728 H   0  0  0  0  0  0
  -26.0448  -25.9531   19.0401 H   0  0  0  0  0  0
  -23.9822  -27.2859   19.0411 H   0  0  0  0  0  0
  -23.7168  -30.5950   19.4010 H   0  0  0  0  0  0
  -22.7371  -29.2363   19.8686 H   0  0  0  0  0  0
  -25.1284  -36.1987   25.0830 H   0  0  0  0  0  0
  -20.9965  -28.3238   24.1429 H   0  0  0  0  0  0
  -20.5647  -26.2277   23.3609 H   0  0  0  0  0  0
  -21.6629  -26.7421   22.1227 H   0  0  0  0  0  0
  -19.6897  -25.6297   21.1234 H   0  0  0  0  0  0
  -19.6680  -27.3205   20.6751 H   0  0  0  0  0  0
  -17.4186  -26.6679   21.4024 H   0  0  0  0  0  0
  -18.0310  -26.0057   22.9007 H   0  0  0  0  0  0
  -19.7923  -30.7245   24.2306 H   0  0  0  0  0  0
  -17.5009  -31.6264   24.5171 H   0  0  0  0  0  0
  -15.5352  -30.3007   23.7619 H   0  0  0  0  0  0
  -15.8662  -28.0832   22.7061 H   0  0  0  0  0  0
  -24.5889  -30.7034   25.7779 H   0  0  0  0  0  0
  -24.8889  -32.2839   26.4908 H   0  0  0  0  0  0
  -25.8056  -30.8847   27.0210 H   0  0  0  0  0  0
  -26.2846  -29.6835   24.1085 H   0  0  0  0  0  0
  -27.4003  -29.7247   25.4540 H   0  0  0  0  0  0
  -27.8692  -30.4373   23.9275 H   0  0  0  0  0  0
  -27.2610  -33.3594   26.2115 H   0  0  0  0  0  0
  -28.3820  -32.6901   25.0351 H   0  0  0  0  0  0
  -28.0669  -31.8413   26.5406 H   0  0  0  0  0  0
  -28.2591  -38.0126   24.7506 H   0  0  0  0  0  0
  -28.1081  -36.2654   24.6286 H   0  0  0  0  0  0
  -27.2286  -37.1480   25.8856 H   0  0  0  0  0  0
  -20.9286  -29.8771   21.6959 H   0  0  0  0  0  0
  -26.0180  -38.2883   24.1396 H   0  0  0  0  0  0
  -29.2590  -20.0387   21.9190 H   0  0  0  0  0  0
  -29.7855  -17.8093   22.6729 H   0  0  0  0  0  0
  -29.1956  -18.6898   17.8555 H   0  0  0  0  0  0
  -32.3426  -23.6636   19.8263 H   0  0  0  0  0  0
  -31.9019  -23.4282   21.4957 H   0  0  0  0  0  0
  -31.2182  -25.6715   20.3355 H   0  0  0  0  0  0
  -30.0265  -24.8881   21.3449 H   0  0  0  0  0  0
  -30.2570  -24.5462   18.3339 H   0  0  0  0  0  0
  -29.4688  -16.5890   17.2184 H   0  0  0  0  0  0
  -29.0016  -15.3477   18.3390 H   0  0  0  0  0  0
  -30.7215  -15.7346   18.0816 H   0  0  0  0  0  0
  -30.9354  -15.9156   23.1523 H   0  0  0  0  0  0
  -30.2465  -14.3126   23.0495 H   0  0  0  0  0  0
  -29.1768  -15.6899   23.1674 H   0  0  0  0  0  0
  -27.7353  -21.0166   19.6189 H   0  0  0  0  0  0
  -28.7398  -20.8863   18.2119 H   0  0  0  0  0  0
  -28.0291  -25.7902   18.2362 H   0  0  0  0  0  0
  -29.4904  -26.6742   18.4072 H   0  0  0  0  0  0
  1 25  1  0  0  0
  1 30  2  0  0  0
  1 87  1  0  0  0
  2  3  1  0  0  0
  2 25  1  0  0  0
  2 90  1  0  0  0
  2 91  1  0  0  0
  3  4  1  0  0  0
  3 92  1  0  0  0
  3 93  1  0  0  0
  4  5  1  0  0  0
  4 94  1  0  0  0
  4 95  1  0  0  0
  5  6  1  0  0  0
  5 26  1  0  0  0
  5 96  1  0  0  0
  6 25  1  0  0  0
  6 97  1  0  0  0
  6 98  1  0  0  0
  7  8  2  0  0  0
  7 26  1  0  0  0
  7 29  1  0  0  0
  8  9  1  0  0  0
  8 22  1  0  0  0
  9 10  1  0  0  0
  9 27  2  0  0  0
 10 11  2  0  0  0
 10 15  1  0  0  0
 11 12  1  0  0  0
 11 99  1  0  0  0
 12 13  2  0  0  0
 12100  1  0  0  0
 13 14  1  0  0  0
 13 31  1  0  0  0
 14 15  2  0  0  0
 14101  1  0  0  0
 15102  1  0  0  0
 16 17  2  0  0  0
 16 21  1  0  0  0
 16 31  1  0  0  0
 17 18  1  0  0  0
 17103  1  0  0  0
 18 19  2  0  0  0
 18104  1  0  0  0
 19 20  1  0  0  0
 19 24  1  0  0  0
 20 21  2  0  0  0
 20105  1  0  0  0
 21 23  1  0  0  0
 22 28  1  0  0  0
 22 32  2  0  0  0
 26 27  1  0  0  0
 28106  1  0  0  0
 28107  1  0  0  0
 29108  1  0  0  0
 29109  1  0  0  0
 33 34  1  0  0  0
 33 66  1  0  0  0
 33 70  2  0  0  0
 34 36  1  0  0  0
 34 59  1  0  0  0
 34110  1  0  0  0
 35 44  2  0  0  0
 35 45  1  0  0  0
 35 68  1  0  0  0
 36 56  1  0  0  0
 36111  1  0  0  0
 37 39  1  0  0  0
 37 47  1  0  0  0
 37 66  1  0  0  0
 37112  1  0  0  0
 38 43  2  0  0  0
 38 46  1  0  0  0
 38 47  1  0  0  0
 39 64  1  0  0  0
 39 67  2  0  0  0
 40 52  1  0  0  0
 40 53  2  0  0  0
 40 58  1  0  0  0
 41113  1  0  0  0
 41114  1  0  0  0
 41115  1  0  0  0
 41 48  1  0  0  0
 42 43  1  0  0  0
 42 66  1  0  0  0
 42116  1  0  0  0
 42117  1  0  0  0
 43 44  1  0  0  0
 44118  1  0  0  0
 45 46  2  0  0  0
 45119  1  0  0  0
 46120  1  0  0  0
 47121  1  0  0  0
 47122  1  0  0  0
 48 56  1  0  0  0
 48 65  1  0  0  0
 48123  1  0  0  0
 49 50  1  0  0  0
 49 53  1  0  0  0
 49 64  1  0  0  0
 49124  1  0  0  0
 50 51  1  0  0  0
 50125  1  0  0  0
 50126  1  0  0  0
 51 52  1  0  0  0
 51127  1  0  0  0
 51128  1  0  0  0
 52129  1  0  0  0
 52130  1  0  0  0
 53 54  1  0  0  0
 54 55  2  0  0  0
 54131  1  0  0  0
 55 57  1  0  0  0
 55132  1  0  0  0
 56 69  2  0  0  0
 57 58  2  0  0  0
 57133  1  0  0  0
 58134  1  0  0  0
 59 60  1  0  0  0
 59 61  1  0  0  0
 59 62  1  0  0  0
 60135  1  0  0  0
 60136  1  0  0  0
 60137  1  0  0  0
 61138  1  0  0  0
 61139  1  0  0  0
 61140  1  0  0  0
 62141  1  0  0  0
 62142  1  0  0  0
 62143  1  0  0  0
 63 65  1  0  0  0
 63144  1  0  0  0
 63145  1  0  0  0
 63146  1  0  0  0
 64147  1  0  0  0
 65148  1  0  0  0
 68 85  1  0  0  0
 71 72  2  0  0  0
 71 74  1  0  0  0
 71149  1  0  0  0
 72 76  1  0  0  0
 72150  1  0  0  0
 73 74  2  0  0  0
 73 75  1  0  0  0
 73151  1  0  0  0
 74 84  1  0  0  0
 75 76  2  0  0  0
 75 82  1  0  0  0
 76 87  1  0  0  0
 77 79  1  0  0  0
 77 86  1  0  0  0
 77 88  2  0  0  0
 78 81  1  0  0  0
 78 86  1  0  0  0
 78 89  2  0  0  0
 79 80  1  0  0  0
 79152  1  0  0  0
 79153  1  0  0  0
 80 81  1  0  0  0
 80154  1  0  0  0
 80155  1  0  0  0
 81 85  1  0  0  0
 81156  1  0  0  0
 82157  1  0  0  0
 82158  1  0  0  0
 82159  1  0  0  0
 83 87  1  0  0  0
 83160  1  0  0  0
 83161  1  0  0  0
 83162  1  0  0  0
 84 86  1  0  0  0
 84163  1  0  0  0
 84164  1  0  0  0
 85165  1  0  0  0
 85166  1  0  0  0
M  ISO  4   1 100  68 101  85 101  87 100
M  END
> <chiral flag>
0

> <version>
0

> <s_m_source_file>
/data/baiqing/PycharmProjects/Reinvent-master-3.2/result/LINK_invent/BTK/process_docking_weight1_custom_product_contain_oxygen_bond_distance_aromatic_linkinvent_7_9_3/rearranged_h_0103.sdf

> <i_m_source_file_index>
34

> <r_mmod_Potential_Energy-OPLS-2005>
132.857025146484

> <r_mmod_Stretch_Energy-OPLS-2005>
59.3203544616699

> <r_mmod_Bend_Energy-OPLS-2005>
146.810775756836

> <r_mmod_Torsional_Energy-OPLS-2005>
291.261871337891

> <r_mmod_Improper_Torsional_Energy-OPLS-2005>
4.11343193054199

> <r_mmod_Van_der_Waal_Energy-OPLS-2005>
195.192474365234

> <r_mmod_Electrostatic_Energy-OPLS-2005>
-361.674041748047

> <r_mmod_Solvation_Energy-OPLS-2005>
-216.813629150391

> <b_mmod_Minimization_Converged-OPLS-2005>
0

> <r_mmod_RMS_Derivative-OPLS-2005>
1.80959630012512

$$$$
34
                    3D
 Structure written by MMmdl.
165174  0  0  1  0            999 V2000
  -30.7721  -14.3657   20.6457 C   0  0  0  0  0  0
  -30.4087  -12.2716   19.3985 C   0  0  0  0  0  0
  -29.4821  -12.5139   18.1927 C   0  0  0  0  0  0
  -28.0041  -12.3854   18.6093 C   0  0  0  0  0  0
  -27.6664  -13.2049   19.8841 C   0  0  2  0  0  0
  -28.7080  -12.9390   20.9928 C   0  0  0  0  0  0
  -25.2606  -13.8169   20.5719 C   0  0  0  0  0  0
  -24.1836  -13.0447   20.9186 C   0  0  0  0  0  0
  -24.6380  -11.6908   20.8727 C   0  0  0  0  0  0
  -23.9039  -10.4297   21.0396 C   0  0  0  0  0  0
  -24.3594   -9.4214   21.9174 C   0  0  0  0  0  0
  -23.6283   -8.2244   22.0740 C   0  0  0  0  0  0
  -22.4265   -8.0278   21.3535 C   0  0  0  0  0  0
  -21.9893   -9.0247   20.4631 C   0  0  0  0  0  0
  -22.7212  -10.2134   20.3044 C   0  0  0  0  0  0
  -21.6849   -6.0730   22.5276 C   0  0  0  0  0  0
  -21.4013   -6.5635   23.8210 C   0  0  0  0  0  0
  -21.3662   -5.6787   24.9173 C   0  0  0  0  0  0
  -21.6044   -4.3050   24.7227 C   0  0  0  0  0  0
  -21.8817   -3.8143   23.4348 C   0  0  0  0  0  0
  -21.9192   -4.6957   22.3403 C   0  0  0  0  0  0
  -22.7861  -13.5247   21.1867 C   0  0  0  0  0  0
  -22.1659   -4.2146   21.0978 F   0  0  0  0  0  0
  -21.5632   -3.4533   25.7738 F   0  0  0  0  0  0
  -30.0422  -13.2356   20.4484 N   0  0  0  0  0  0
  -26.3044  -12.9332   20.3426 N   0  0  0  0  0  0
  -25.9310  -11.6484   20.5769 N   0  0  0  0  0  0
  -22.0492  -12.8230   22.0410 N   0  0  0  0  0  0
  -25.4374  -15.1883   20.4177 N   0  0  0  0  0  0
  -31.8559  -14.5310   20.0732 O   0  0  0  0  0  0
  -21.6634   -6.8872   21.4235 O   0  0  0  0  0  0
  -22.3547  -14.5560   20.6728 O   0  0  0  0  0  0
  -24.6100  -31.8717   23.2137 C   0  0  0  0  0  0
  -25.9016  -32.4837   23.8415 C   0  0  1  0  0  0
  -27.2309  -27.4756   20.0895 C   0  0  0  0  0  0
  -25.5895  -33.8637   24.2356 N   0  0  0  0  0  0
  -23.3953  -30.4952   21.5532 C   0  0  2  0  0  0
  -24.8410  -28.9683   20.1132 C   0  0  0  0  0  0
  -22.7383  -29.4669   22.5007 C   0  0  0  0  0  0
  -18.0269  -28.1373   22.8495 C   0  0  0  0  0  0
  -24.1486  -36.7320   23.2636 C   0  0  0  0  0  0
  -25.9190  -30.8514   21.3588 C   0  0  0  0  0  0
  -25.9984  -29.4894   20.7045 C   0  0  0  0  0  0
  -27.1990  -28.7506   20.6880 C   0  0  0  0  0  0
  -26.0599  -26.9608   19.4883 C   0  0  0  0  0  0
  -24.8646  -27.7025   19.5012 C   0  0  0  0  0  0
  -23.6012  -29.8303   20.1658 C   0  0  0  0  0  0
  -25.4105  -36.3121   24.0344 C   0  0  1  0  0  0
  -20.5851  -28.3655   23.1333 C   0  0  2  0  0  0
  -20.6757  -26.9398   22.5420 C   0  0  0  0  0  0
  -19.5738  -26.6389   21.5209 C   0  0  0  0  0  0
  -18.1917  -26.7920   22.1624 C   0  0  0  0  0  0
  -19.1513  -28.8830   23.2912 C   0  0  0  0  0  0
  -18.9445  -30.1437   23.8923 C   0  0  0  0  0  0
  -17.6448  -30.6583   24.0567 C   0  0  0  0  0  0
  -25.9026  -34.9484   23.5143 C   0  0  0  0  0  0
  -16.5342  -29.9091   23.6316 C   0  0  0  0  0  0
  -16.7258  -28.6504   23.0343 C   0  0  0  0  0  0
  -26.4471  -31.6591   25.0716 C   0  0  0  0  0  0
  -25.3765  -31.3672   26.1482 C   0  0  0  0  0  0
  -27.0287  -30.3043   24.6040 C   0  0  0  0  0  0
  -27.6061  -32.4294   25.7479 C   0  0  0  0  0  0
  -27.5581  -37.1815   24.8469 C   0  0  0  0  0  0
  -21.4114  -29.3031   22.3748 N   0  0  0  0  0  0
  -26.4294  -37.3800   23.9410 N   0  0  0  0  0  0
  -24.6594  -31.0854   22.1015 N   0  0  0  0  0  0
  -23.4175  -28.8210   23.3033 O   0  0  0  0  0  0
  -28.4003  -26.7591   20.1091 O   0  0  0  0  0  0
  -26.5578  -34.8929   22.4695 O   0  0  0  0  0  0
  -23.5307  -32.1457   23.7551 O   0  0  0  0  0  0
  -31.6757  -21.0774   19.7539 C   0  0  0  0  0  0
  -31.7027  -19.8765   21.8684 C   0  0  0  0  0  0
  -31.6701  -22.2995   20.4485 C   0  0  0  0  0  0
  -31.6893  -21.1008   22.5624 C   0  0  0  0  0  0
  -31.6702  -19.8582   20.4560 C   0  0  0  0  0  0
  -31.6478  -22.3282   21.8645 C   0  0  0  0  0  0
  -30.6759  -25.3431   21.1408 C   0  0  0  0  0  0
  -29.4119  -24.9111   21.3150 C   0  0  0  0  0  0
  -30.2416  -16.7817   20.7418 C   0  0  0  0  0  0
  -31.8542  -24.7821   21.9207 C   0  0  0  0  0  0
  -29.0703  -23.8765   22.3822 C   0  0  0  0  0  0
  -30.2514  -23.5799   23.3310 C   0  0  0  0  0  0
  -31.6238  -18.5621   19.6613 C   0  0  0  0  0  0
  -28.2527  -25.3871   20.4635 C   0  0  0  0  0  0
  -30.2852  -15.4951   21.5791 C   0  0  0  0  0  0
  -31.5199  -23.5267   22.6007 N   0  0  0  0  0  0
  -31.4150  -17.3722   20.4723 N   0  0  0  0  0  0
  -29.1607  -17.2386   20.3598 O   0  0  0  0  0  0
  -31.4537  -12.3453   19.0919 H   0  0  0  0  0  0
  -30.2896  -11.2533   19.7711 H   0  0  0  0  0  0
  -29.7080  -11.8044   17.3967 H   0  0  0  0  0  0
  -29.6645  -13.5067   17.7785 H   0  0  0  0  0  0
  -27.7988  -11.3286   18.7848 H   0  0  0  0  0  0
  -27.3540  -12.6865   17.7869 H   0  0  0  0  0  0
  -27.7266  -14.2602   19.6167 H   0  0  0  0  0  0
  -28.6721  -11.8897   21.2870 H   0  0  0  0  0  0
  -28.4643  -13.4801   21.9030 H   0  0  0  0  0  0
  -25.2735   -9.5698   22.4750 H   0  0  0  0  0  0
  -23.9992   -7.4632   22.7452 H   0  0  0  0  0  0
  -21.0824   -8.8756   19.8936 H   0  0  0  0  0  0
  -22.3656  -10.9671   19.6154 H   0  0  0  0  0  0
  -21.2000   -7.6143   23.9714 H   0  0  0  0  0  0
  -21.1489   -6.0517   25.9076 H   0  0  0  0  0  0
  -22.0596   -2.7607   23.2847 H   0  0  0  0  0  0
  -22.4093  -11.9890   22.4803 H   0  0  0  0  0  0
  -21.1111  -13.1258   22.2610 H   0  0  0  0  0  0
  -24.6855  -15.8563   20.5495 H   0  0  0  0  0  0
  -26.3107  -15.6244   20.1458 H   0  0  0  0  0  0
  -26.7084  -32.5575   23.1182 H   0  0  0  0  0  0
  -25.0072  -33.9809   25.0520 H   0  0  0  0  0  0
  -22.6816  -31.3105   21.4171 H   0  0  0  0  0  0
  -23.3739  -35.9660   23.3317 H   0  0  0  0  0  0
  -24.3578  -36.8911   22.2044 H   0  0  0  0  0  0
  -23.7245  -37.6539   23.6632 H   0  0  0  0  0  0
  -26.0228  -31.6198   20.5913 H   0  0  0  0  0  0
  -26.8094  -30.9059   21.9732 H   0  0  0  0  0  0
  -28.0945  -29.1470   21.1466 H   0  0  0  0  0  0
  -26.0670  -25.9928   19.0072 H   0  0  0  0  0  0
  -23.9747  -27.2976   19.0388 H   0  0  0  0  0  0
  -23.7078  -30.6076   19.4079 H   0  0  0  0  0  0
  -22.7263  -29.2493   19.8694 H   0  0  0  0  0  0
  -25.1274  -36.1995   25.0836 H   0  0  0  0  0  0
  -20.9940  -28.3217   24.1454 H   0  0  0  0  0  0
  -20.5656  -26.2265   23.3600 H   0  0  0  0  0  0
  -21.6631  -26.7449   22.1214 H   0  0  0  0  0  0
  -19.6901  -25.6305   21.1227 H   0  0  0  0  0  0
  -19.6676  -27.3210   20.6744 H   0  0  0  0  0  0
  -17.4186  -26.6665   21.4031 H   0  0  0  0  0  0
  -18.0327  -26.0057   22.9016 H   0  0  0  0  0  0
  -19.7925  -30.7238   24.2309 H   0  0  0  0  0  0
  -17.5013  -31.6264   24.5166 H   0  0  0  0  0  0
  -15.5345  -30.3007   23.7624 H   0  0  0  0  0  0
  -15.8656  -28.0834   22.7045 H   0  0  0  0  0  0
  -24.5932  -30.7020   25.7830 H   0  0  0  0  0  0
  -24.8961  -32.2815   26.4978 H   0  0  0  0  0  0
  -25.8147  -30.8818   27.0211 H   0  0  0  0  0  0
  -26.2804  -29.6815   24.1118 H   0  0  0  0  0  0
  -27.4110  -29.7263   25.4465 H   0  0  0  0  0  0
  -27.8622  -30.4380   23.9136 H   0  0  0  0  0  0
  -27.2685  -33.3566   26.2122 H   0  0  0  0  0  0
  -28.3841  -32.6891   25.0289 H   0  0  0  0  0  0
  -28.0760  -31.8374   26.5343 H   0  0  0  0  0  0
  -28.2610  -38.0101   24.7501 H   0  0  0  0  0  0
  -28.1064  -36.2632   24.6309 H   0  0  0  0  0  0
  -27.2299  -37.1485   25.8874 H   0  0  0  0  0  0
  -20.9264  -29.8773   21.6993 H   0  0  0  0  0  0
  -26.0189  -38.2882   24.1406 H   0  0  0  0  0  0
  -31.6609  -21.0813   18.6725 H   0  0  0  0  0  0
  -31.7174  -18.9591   22.4393 H   0  0  0  0  0  0
  -31.6389  -23.2044   19.8602 H   0  0  0  0  0  0
  -31.6921  -21.0894   23.6432 H   0  0  0  0  0  0
  -30.9019  -26.0895   20.3912 H   0  0  0  0  0  0
  -32.1711  -25.5230   22.6563 H   0  0  0  0  0  0
  -32.7043  -24.6392   21.2519 H   0  0  0  0  0  0
  -28.7579  -22.9609   21.8772 H   0  0  0  0  0  0
  -28.2150  -24.2152   22.9680 H   0  0  0  0  0  0
  -30.0587  -22.6696   23.9009 H   0  0  0  0  0  0
  -30.3218  -24.3796   24.0703 H   0  0  0  0  0  0
  -32.5723  -18.4491   19.1342 H   0  0  0  0  0  0
  -30.8546  -18.6390   18.8906 H   0  0  0  0  0  0
  -27.3392  -25.2300   21.0409 H   0  0  0  0  0  0
  -28.1795  -24.7689   19.5686 H   0  0  0  0  0  0
  -30.9951  -15.6090   22.3982 H   0  0  0  0  0  0
  -29.3099  -15.3396   22.0278 H   0  0  0  0  0  0
  -32.2510  -16.9022   20.7941 H   0  0  0  0  0  0
  1 25  1  0  0  0
  1 30  2  0  0  0
  1 85  1  0  0  0
  2  3  1  0  0  0
  2 25  1  0  0  0
  2 89  1  0  0  0
  2 90  1  0  0  0
  3  4  1  0  0  0
  3 91  1  0  0  0
  3 92  1  0  0  0
  4  5  1  0  0  0
  4 93  1  0  0  0
  4 94  1  0  0  0
  5  6  1  0  0  0
  5 26  1  0  0  0
  5 95  1  0  0  0
  6 25  1  0  0  0
  6 96  1  0  0  0
  6 97  1  0  0  0
  7  8  2  0  0  0
  7 26  1  0  0  0
  7 29  1  0  0  0
  8  9  1  0  0  0
  8 22  1  0  0  0
  9 10  1  0  0  0
  9 27  2  0  0  0
 10 11  2  0  0  0
 10 15  1  0  0  0
 11 12  1  0  0  0
 11 98  1  0  0  0
 12 13  2  0  0  0
 12 99  1  0  0  0
 13 14  1  0  0  0
 13 31  1  0  0  0
 14 15  2  0  0  0
 14100  1  0  0  0
 15101  1  0  0  0
 16 17  2  0  0  0
 16 21  1  0  0  0
 16 31  1  0  0  0
 17 18  1  0  0  0
 17102  1  0  0  0
 18 19  2  0  0  0
 18103  1  0  0  0
 19 20  1  0  0  0
 19 24  1  0  0  0
 20 21  2  0  0  0
 20104  1  0  0  0
 21 23  1  0  0  0
 22 28  1  0  0  0
 22 32  2  0  0  0
 26 27  1  0  0  0
 28105  1  0  0  0
 28106  1  0  0  0
 29107  1  0  0  0
 29108  1  0  0  0
 33 34  1  0  0  0
 33 66  1  0  0  0
 33 70  2  0  0  0
 34 36  1  0  0  0
 34 59  1  0  0  0
 34109  1  0  0  0
 35 44  2  0  0  0
 35 45  1  0  0  0
 35 68  1  0  0  0
 36 56  1  0  0  0
 36110  1  0  0  0
 37 39  1  0  0  0
 37 47  1  0  0  0
 37 66  1  0  0  0
 37111  1  0  0  0
 38 43  2  0  0  0
 38 46  1  0  0  0
 38 47  1  0  0  0
 39 64  1  0  0  0
 39 67  2  0  0  0
 40 52  1  0  0  0
 40 53  2  0  0  0
 40 58  1  0  0  0
 41112  1  0  0  0
 41113  1  0  0  0
 41114  1  0  0  0
 41 48  1  0  0  0
 42 43  1  0  0  0
 42 66  1  0  0  0
 42115  1  0  0  0
 42116  1  0  0  0
 43 44  1  0  0  0
 44117  1  0  0  0
 45 46  2  0  0  0
 45118  1  0  0  0
 46119  1  0  0  0
 47120  1  0  0  0
 47121  1  0  0  0
 48 56  1  0  0  0
 48 65  1  0  0  0
 48122  1  0  0  0
 49 50  1  0  0  0
 49 53  1  0  0  0
 49 64  1  0  0  0
 49123  1  0  0  0
 50 51  1  0  0  0
 50124  1  0  0  0
 50125  1  0  0  0
 51 52  1  0  0  0
 51126  1  0  0  0
 51127  1  0  0  0
 52128  1  0  0  0
 52129  1  0  0  0
 53 54  1  0  0  0
 54 55  2  0  0  0
 54130  1  0  0  0
 55 57  1  0  0  0
 55131  1  0  0  0
 56 69  2  0  0  0
 57 58  2  0  0  0
 57132  1  0  0  0
 58133  1  0  0  0
 59 60  1  0  0  0
 59 61  1  0  0  0
 59 62  1  0  0  0
 60134  1  0  0  0
 60135  1  0  0  0
 60136  1  0  0  0
 61137  1  0  0  0
 61138  1  0  0  0
 61139  1  0  0  0
 62140  1  0  0  0
 62141  1  0  0  0
 62142  1  0  0  0
 63 65  1  0  0  0
 63143  1  0  0  0
 63144  1  0  0  0
 63145  1  0  0  0
 64146  1  0  0  0
 65147  1  0  0  0
 68 84  1  0  0  0
 71 73  2  0  0  0
 71 75  1  0  0  0
 71148  1  0  0  0
 72 74  1  0  0  0
 72 75  2  0  0  0
 72149  1  0  0  0
 73 76  1  0  0  0
 73150  1  0  0  0
 74 76  2  0  0  0
 74151  1  0  0  0
 75 83  1  0  0  0
 76 86  1  0  0  0
 77 78  2  0  0  0
 77 80  1  0  0  0
 77152  1  0  0  0
 78 81  1  0  0  0
 78 84  1  0  0  0
 79 85  1  0  0  0
 79 87  1  0  0  0
 79 88  2  0  0  0
 80 86  1  0  0  0
 80153  1  0  0  0
 80154  1  0  0  0
 81 82  1  0  0  0
 81155  1  0  0  0
 81156  1  0  0  0
 82 86  1  0  0  0
 82157  1  0  0  0
 82158  1  0  0  0
 83 87  1  0  0  0
 83159  1  0  0  0
 83160  1  0  0  0
 84161  1  0  0  0
 84162  1  0  0  0
 85163  1  0  0  0
 85164  1  0  0  0
 87165  1  0  0  0
M  ISO  4   1 100  68 101  84 101  85 100
M  END
> <chiral flag>
0

> <version>
0

> <s_m_source_file>
/data/baiqing/PycharmProjects/Reinvent-master-3.2/result/LINK_invent/BTK/process_docking_weight1_custom_product_contain_oxygen_bond_distance_aromatic_linkinvent_7_9_3/rearranged_h_0103.sdf

> <i_m_source_file_index>
35

> <r_mmod_Potential_Energy-OPLS-2005>
-113.586761474609

> <r_mmod_Stretch_Energy-OPLS-2005>
33.9989356994629

> <r_mmod_Bend_Energy-OPLS-2005>
96.8610076904297

> <r_mmod_Torsional_Energy-OPLS-2005>
185.020843505859

> <r_mmod_Improper_Torsional_Energy-OPLS-2005>
6.13962888717651

> <r_mmod_Van_der_Waal_Energy-OPLS-2005>
186.086959838867

> <r_mmod_Electrostatic_Energy-OPLS-2005>
-397.710662841797

> <r_mmod_Solvation_Energy-OPLS-2005>
-233.792343139648

> <b_mmod_Minimization_Converged-OPLS-2005>
0

> <r_mmod_RMS_Derivative-OPLS-2005>
1.33173298835754

$$$$
35
                    3D
 Structure written by MMmdl.
158166  0  0  1  0            999 V2000
  -30.6813  -14.6908   20.5888 C   0  0  0  0  0  0
  -30.3753  -12.4276   19.5560 C   0  0  0  0  0  0
  -29.5000  -12.4696   18.2847 C   0  0  0  0  0  0
  -28.0114  -12.3372   18.6592 C   0  0  0  0  0  0
  -27.6071  -13.2058   19.8835 C   0  0  2  0  0  0
  -28.6371  -13.2113   21.0380 C   0  0  0  0  0  0
  -25.2311  -13.8008   20.5872 C   0  0  0  0  0  0
  -24.1567  -13.0279   20.9318 C   0  0  0  0  0  0
  -24.6188  -11.6774   20.8839 C   0  0  0  0  0  0
  -23.8876  -10.4200   21.0476 C   0  0  0  0  0  0
  -24.3507   -9.4127   21.9217 C   0  0  0  0  0  0
  -23.6219   -8.2166   22.0767 C   0  0  0  0  0  0
  -22.4184   -8.0216   21.3582 C   0  0  0  0  0  0
  -21.9824   -9.0129   20.4654 C   0  0  0  0  0  0
  -22.7121  -10.2032   20.3069 C   0  0  0  0  0  0
  -21.6797   -6.0696   22.5276 C   0  0  0  0  0  0
  -21.4007   -6.5616   23.8233 C   0  0  0  0  0  0
  -21.3649   -5.6779   24.9183 C   0  0  0  0  0  0
  -21.6074   -4.3035   24.7223 C   0  0  0  0  0  0
  -21.8800   -3.8135   23.4354 C   0  0  0  0  0  0
  -21.9189   -4.6959   22.3414 C   0  0  0  0  0  0
  -22.7648  -13.5123   21.1957 C   0  0  0  0  0  0
  -22.1645   -4.2147   21.0984 F   0  0  0  0  0  0
  -21.5647   -3.4523   25.7746 F   0  0  0  0  0  0
  -29.9538  -13.5203   20.4764 N   0  0  0  0  0  0
  -26.2662  -12.9160   20.3478 N   0  0  0  0  0  0
  -25.9101  -11.6336   20.5915 N   0  0  0  0  0  0
  -22.0297  -12.8087   22.0520 N   0  0  0  0  0  0
  -25.4035  -15.1692   20.4396 N   0  0  0  0  0  0
  -31.7893  -14.7615   20.0487 O   0  0  0  0  0  0
  -21.6595   -6.8804   21.4233 O   0  0  0  0  0  0
  -22.3350  -14.5434   20.6811 O   0  0  0  0  0  0
  -24.6167  -31.8623   23.2141 C   0  0  0  0  0  0
  -25.9015  -32.4777   23.8437 C   0  0  1  0  0  0
  -27.1640  -27.3443   20.1221 C   0  0  0  0  0  0
  -25.5865  -33.8600   24.2280 N   0  0  0  0  0  0
  -23.3988  -30.4962   21.5536 C   0  0  2  0  0  0
  -24.8390  -28.9752   20.0995 C   0  0  0  0  0  0
  -22.7368  -29.4622   22.4962 C   0  0  0  0  0  0
  -18.0222  -28.1346   22.8542 C   0  0  0  0  0  0
  -24.1497  -36.7281   23.2660 C   0  0  0  0  0  0
  -25.9434  -30.8046   21.3819 C   0  0  0  0  0  0
  -26.0104  -29.4439   20.7116 C   0  0  0  0  0  0
  -27.1865  -28.6354   20.7189 C   0  0  0  0  0  0
  -25.9857  -26.9465   19.4543 C   0  0  0  0  0  0
  -24.8254  -27.7340   19.4609 C   0  0  0  0  0  0
  -23.6035  -29.8443   20.1640 C   0  0  0  0  0  0
  -25.4131  -36.3057   24.0324 C   0  0  1  0  0  0
  -20.5801  -28.3592   23.1334 C   0  0  2  0  0  0
  -20.6657  -26.9318   22.5405 C   0  0  0  0  0  0
  -19.5631  -26.6366   21.5199 C   0  0  0  0  0  0
  -18.1834  -26.7899   22.1635 C   0  0  0  0  0  0
  -19.1473  -28.8789   23.2936 C   0  0  0  0  0  0
  -18.9440  -30.1409   23.8929 C   0  0  0  0  0  0
  -17.6456  -30.6583   24.0561 C   0  0  0  0  0  0
  -25.9071  -34.9443   23.5114 C   0  0  0  0  0  0
  -16.5346  -29.9076   23.6358 C   0  0  0  0  0  0
  -16.7217  -28.6453   23.0455 C   0  0  0  0  0  0
  -26.4450  -31.6625   25.0817 C   0  0  0  0  0  0
  -25.3761  -31.3660   26.1577 C   0  0  0  0  0  0
  -27.0308  -30.3043   24.6280 C   0  0  0  0  0  0
  -27.6034  -32.4380   25.7573 C   0  0  0  0  0  0
  -27.5576  -37.1783   24.8478 C   0  0  0  0  0  0
  -21.4074  -29.2983   22.3745 N   0  0  0  0  0  0
  -26.4292  -37.3757   23.9444 N   0  0  0  0  0  0
  -24.6717  -31.0700   22.1063 N   0  0  0  0  0  0
  -23.4159  -28.8086   23.2939 O   0  0  0  0  0  0
  -28.2074  -26.4277   20.2649 O   0  0  0  0  0  0
  -26.5668  -34.8885   22.4688 O   0  0  0  0  0  0
  -23.5339  -32.1442   23.7490 O   0  0  0  0  0  0
  -27.1395  -17.7925   19.6644 C   0  0  0  0  0  0
  -26.8887  -18.8410   20.5575 C   0  0  0  0  0  0
  -28.7653  -18.0643   21.8862 C   0  0  0  0  0  0
  -29.0600  -16.9466   21.0143 C   0  0  0  0  0  0
  -28.2738  -16.9481   19.8062 C   0  0  0  0  0  0
  -27.7873  -19.0651   21.6071 C   0  0  0  0  0  0
  -30.2282  -15.9846   21.4105 C   0  0  0  0  0  0
  -28.6623  -16.2277   18.5244 C   0  0  0  0  0  0
  -27.7772  -22.7354   21.7083 C   0  0  0  0  0  0
  -28.6087  -23.9328   21.0981 C   0  0  0  0  0  0
  -28.4897  -21.3430   21.7873 C   0  0  0  0  0  0
  -27.7159  -25.0552   20.4865 C   0  0  0  0  0  0
  -31.0047  -16.3141   22.3803 N   0  0  0  0  0  0
  -27.6875  -20.2570   22.3144 O   0  0  0  0  0  0
  -31.4339  -12.4649   19.2978 H   0  0  0  0  0  0
  -30.2333  -11.4674   20.0541 H   0  0  0  0  0  0
  -29.7849  -11.6620   17.6110 H   0  0  0  0  0  0
  -29.6839  -13.3857   17.7260 H   0  0  0  0  0  0
  -27.8075  -11.2836   18.8586 H   0  0  0  0  0  0
  -27.3861  -12.5921   17.8025 H   0  0  0  0  0  0
  -27.5366  -14.2108   19.5069 H   0  0  0  0  0  0
  -28.6563  -12.2607   21.5662 H   0  0  0  0  0  0
  -28.3386  -13.9558   21.7822 H   0  0  0  0  0  0
  -25.2658   -9.5599   22.4756 H   0  0  0  0  0  0
  -23.9982   -7.4529   22.7382 H   0  0  0  0  0  0
  -21.0841   -8.8566   19.8881 H   0  0  0  0  0  0
  -22.3599  -10.9545   19.6138 H   0  0  0  0  0  0
  -21.1982   -7.6119   23.9705 H   0  0  0  0  0  0
  -21.1512   -6.0530   25.9084 H   0  0  0  0  0  0
  -22.0609   -2.7602   23.2846 H   0  0  0  0  0  0
  -22.3928  -11.9683   22.4762 H   0  0  0  0  0  0
  -21.0946  -13.1131   22.2842 H   0  0  0  0  0  0
  -24.6455  -15.8317   20.5583 H   0  0  0  0  0  0
  -26.2694  -15.6076   20.1545 H   0  0  0  0  0  0
  -26.7063  -32.5409   23.1167 H   0  0  0  0  0  0
  -24.9827  -33.9845   25.0279 H   0  0  0  0  0  0
  -22.6864  -31.3147   21.4193 H   0  0  0  0  0  0
  -23.3762  -35.9607   23.3320 H   0  0  0  0  0  0
  -24.3602  -36.8971   22.2082 H   0  0  0  0  0  0
  -23.7263  -37.6467   23.6755 H   0  0  0  0  0  0
  -26.0810  -31.5764   20.6228 H   0  0  0  0  0  0
  -26.8218  -30.8402   22.0121 H   0  0  0  0  0  0
  -28.0748  -28.9668   21.2369 H   0  0  0  0  0  0
  -25.8951  -25.9938   18.9551 H   0  0  0  0  0  0
  -23.9261  -27.3666   18.9823 H   0  0  0  0  0  0
  -23.6915  -30.6208   19.4049 H   0  0  0  0  0  0
  -22.7260  -29.2598   19.8734 H   0  0  0  0  0  0
  -25.1307  -36.1923   25.0808 H   0  0  0  0  0  0
  -20.9883  -28.3180   24.1464 H   0  0  0  0  0  0
  -20.5422  -26.2241   23.3631 H   0  0  0  0  0  0
  -21.6569  -26.7275   22.1305 H   0  0  0  0  0  0
  -19.6758  -25.6286   21.1204 H   0  0  0  0  0  0
  -19.6565  -27.3199   20.6757 H   0  0  0  0  0  0
  -17.4048  -26.6674   21.4072 H   0  0  0  0  0  0
  -18.0242  -26.0047   22.9026 H   0  0  0  0  0  0
  -19.7940  -30.7191   24.2342 H   0  0  0  0  0  0
  -17.5045  -31.6303   24.5095 H   0  0  0  0  0  0
  -15.5352  -30.2994   23.7683 H   0  0  0  0  0  0
  -15.8631  -28.0753   22.7249 H   0  0  0  0  0  0
  -24.5971  -30.6964   25.7913 H   0  0  0  0  0  0
  -24.8916  -32.2749   26.5110 H   0  0  0  0  0  0
  -25.8175  -30.8795   27.0270 H   0  0  0  0  0  0
  -26.2847  -29.6787   24.1330 H   0  0  0  0  0  0
  -27.3976  -29.7318   25.4821 H   0  0  0  0  0  0
  -27.8762  -30.4300   23.9511 H   0  0  0  0  0  0
  -27.2656  -33.3727   26.2062 H   0  0  0  0  0  0
  -28.3882  -32.6876   25.0413 H   0  0  0  0  0  0
  -28.0650  -31.8564   26.5563 H   0  0  0  0  0  0
  -28.2520  -38.0135   24.7578 H   0  0  0  0  0  0
  -28.1129  -36.2661   24.6243 H   0  0  0  0  0  0
  -27.2298  -37.1372   25.8877 H   0  0  0  0  0  0
  -20.9139  -29.8889   21.7201 H   0  0  0  0  0  0
  -26.0128  -38.2781   24.1572 H   0  0  0  0  0  0
  -26.4819  -17.7074   18.8081 H   0  0  0  0  0  0
  -26.0574  -19.5166   20.3855 H   0  0  0  0  0  0
  -29.3287  -18.2227   22.7927 H   0  0  0  0  0  0
  -29.4172  -16.8226   18.0165 H   0  0  0  0  0  0
  -27.8085  -16.1359   17.8479 H   0  0  0  0  0  0
  -29.0705  -15.2424   18.6504 H   0  0  0  0  0  0
  -26.8591  -22.6063   21.1357 H   0  0  0  0  0  0
  -27.4511  -23.0271   22.7075 H   0  0  0  0  0  0
  -29.2692  -23.5564   20.3150 H   0  0  0  0  0  0
  -29.2664  -24.3462   21.8625 H   0  0  0  0  0  0
  -29.3702  -21.4214   22.4236 H   0  0  0  0  0  0
  -28.8516  -21.0870   20.7882 H   0  0  0  0  0  0
  -26.8358  -25.1166   21.1291 H   0  0  0  0  0  0
  -27.3707  -24.6452   19.5370 H   0  0  0  0  0  0
  -30.8348  -17.1994   22.8455 H   0  0  0  0  0  0
  1 25  1  0  0  0
  1 30  2  0  0  0
  1 77  1  0  0  0
  2  3  1  0  0  0
  2 25  1  0  0  0
  2 85  1  0  0  0
  2 86  1  0  0  0
  3  4  1  0  0  0
  3 87  1  0  0  0
  3 88  1  0  0  0
  4  5  1  0  0  0
  4 89  1  0  0  0
  4 90  1  0  0  0
  5  6  1  0  0  0
  5 26  1  0  0  0
  5 91  1  0  0  0
  6 25  1  0  0  0
  6 92  1  0  0  0
  6 93  1  0  0  0
  7  8  2  0  0  0
  7 26  1  0  0  0
  7 29  1  0  0  0
  8  9  1  0  0  0
  8 22  1  0  0  0
  9 10  1  0  0  0
  9 27  2  0  0  0
 10 11  2  0  0  0
 10 15  1  0  0  0
 11 12  1  0  0  0
 11 94  1  0  0  0
 12 13  2  0  0  0
 12 95  1  0  0  0
 13 14  1  0  0  0
 13 31  1  0  0  0
 14 15  2  0  0  0
 14 96  1  0  0  0
 15 97  1  0  0  0
 16 17  2  0  0  0
 16 21  1  0  0  0
 16 31  1  0  0  0
 17 18  1  0  0  0
 17 98  1  0  0  0
 18 19  2  0  0  0
 18 99  1  0  0  0
 19 20  1  0  0  0
 19 24  1  0  0  0
 20 21  2  0  0  0
 20100  1  0  0  0
 21 23  1  0  0  0
 22 28  1  0  0  0
 22 32  2  0  0  0
 26 27  1  0  0  0
 28101  1  0  0  0
 28102  1  0  0  0
 29103  1  0  0  0
 29104  1  0  0  0
 33 34  1  0  0  0
 33 66  1  0  0  0
 33 70  2  0  0  0
 34 36  1  0  0  0
 34 59  1  0  0  0
 34105  1  0  0  0
 35 44  2  0  0  0
 35 45  1  0  0  0
 35 68  1  0  0  0
 36 56  1  0  0  0
 36106  1  0  0  0
 37 39  1  0  0  0
 37 47  1  0  0  0
 37 66  1  0  0  0
 37107  1  0  0  0
 38 43  2  0  0  0
 38 46  1  0  0  0
 38 47  1  0  0  0
 39 64  1  0  0  0
 39 67  2  0  0  0
 40 52  1  0  0  0
 40 53  2  0  0  0
 40 58  1  0  0  0
 41108  1  0  0  0
 41109  1  0  0  0
 41110  1  0  0  0
 41 48  1  0  0  0
 42 43  1  0  0  0
 42 66  1  0  0  0
 42111  1  0  0  0
 42112  1  0  0  0
 43 44  1  0  0  0
 44113  1  0  0  0
 45 46  2  0  0  0
 45114  1  0  0  0
 46115  1  0  0  0
 47116  1  0  0  0
 47117  1  0  0  0
 48 56  1  0  0  0
 48 65  1  0  0  0
 48118  1  0  0  0
 49 50  1  0  0  0
 49 53  1  0  0  0
 49 64  1  0  0  0
 49119  1  0  0  0
 50 51  1  0  0  0
 50120  1  0  0  0
 50121  1  0  0  0
 51 52  1  0  0  0
 51122  1  0  0  0
 51123  1  0  0  0
 52124  1  0  0  0
 52125  1  0  0  0
 53 54  1  0  0  0
 54 55  2  0  0  0
 54126  1  0  0  0
 55 57  1  0  0  0
 55127  1  0  0  0
 56 69  2  0  0  0
 57 58  2  0  0  0
 57128  1  0  0  0
 58129  1  0  0  0
 59 60  1  0  0  0
 59 61  1  0  0  0
 59 62  1  0  0  0
 60130  1  0  0  0
 60131  1  0  0  0
 60132  1  0  0  0
 61133  1  0  0  0
 61134  1  0  0  0
 61135  1  0  0  0
 62136  1  0  0  0
 62137  1  0  0  0
 62138  1  0  0  0
 63 65  1  0  0  0
 63139  1  0  0  0
 63140  1  0  0  0
 63141  1  0  0  0
 64142  1  0  0  0
 65143  1  0  0  0
 68 82  1  0  0  0
 71 72  2  0  0  0
 71 75  1  0  0  0
 71144  1  0  0  0
 72 76  1  0  0  0
 72145  1  0  0  0
 73 74  1  0  0  0
 73 76  2  0  0  0
 73146  1  0  0  0
 74 75  2  0  0  0
 74 77  1  0  0  0
 75 78  1  0  0  0
 76 84  1  0  0  0
 77 83  2  0  0  0
 78147  1  0  0  0
 78148  1  0  0  0
 78149  1  0  0  0
 79 80  1  0  0  0
 79 81  1  0  0  0
 79150  1  0  0  0
 79151  1  0  0  0
 80 82  1  0  0  0
 80152  1  0  0  0
 80153  1  0  0  0
 81 84  1  0  0  0
 81154  1  0  0  0
 81155  1  0  0  0
 82156  1  0  0  0
 82157  1  0  0  0
 83158  1  0  0  0
M  ISO  4   1 100  68 101  77 100  82 101
M  END
> <chiral flag>
0

> <version>
0

> <s_m_source_file>
/data/baiqing/PycharmProjects/Reinvent-master-3.2/result/LINK_invent/BTK/process_docking_weight1_custom_product_contain_oxygen_bond_distance_aromatic_linkinvent_7_9_3/rearranged_h_0103.sdf

> <i_m_source_file_index>
36

> <r_mmod_Potential_Energy-OPLS-2005>
360.904022216797

> <r_mmod_Stretch_Energy-OPLS-2005>
89.8916473388672

> <r_mmod_Bend_Energy-OPLS-2005>
174.261642456055

> <r_mmod_Torsional_Energy-OPLS-2005>
282.288177490234

> <r_mmod_Improper_Torsional_Energy-OPLS-2005>
5.07441091537476

> <r_mmod_Van_der_Waal_Energy-OPLS-2005>
164.095230102539

> <r_mmod_Electrostatic_Energy-OPLS-2005>
-227.05029296875

> <r_mmod_Solvation_Energy-OPLS-2005>
-202.253112792969

> <b_mmod_Minimization_Converged-OPLS-2005>
0

> <r_mmod_RMS_Derivative-OPLS-2005>
9.53245258331299

$$$$
36
                    3D
 Structure written by MMmdl.
160168  0  0  1  0            999 V2000
  -30.5738  -14.7749   20.4876 C   0  0  0  0  0  0
  -30.4057  -12.4790   19.4776 C   0  0  0  0  0  0
  -29.4964  -12.4807   18.2324 C   0  0  0  0  0  0
  -28.0276  -12.2865   18.6533 C   0  0  0  0  0  0
  -27.6154  -13.2132   19.8256 C   0  0  2  0  0  0
  -28.6427  -13.1992   20.9717 C   0  0  0  0  0  0
  -25.2437  -13.8166   20.5592 C   0  0  0  0  0  0
  -24.1742  -13.0433   20.9155 C   0  0  0  0  0  0
  -24.6299  -11.6894   20.8732 C   0  0  0  0  0  0
  -23.8993  -10.4294   21.0426 C   0  0  0  0  0  0
  -24.3576   -9.4220   21.9190 C   0  0  0  0  0  0
  -23.6272   -8.2246   22.0773 C   0  0  0  0  0  0
  -22.4262   -8.0264   21.3528 C   0  0  0  0  0  0
  -21.9852   -9.0243   20.4643 C   0  0  0  0  0  0
  -22.7175  -10.2130   20.3069 C   0  0  0  0  0  0
  -21.6858   -6.0751   22.5300 C   0  0  0  0  0  0
  -21.4030   -6.5658   23.8227 C   0  0  0  0  0  0
  -21.3634   -5.6802   24.9170 C   0  0  0  0  0  0
  -21.6012   -4.3059   24.7237 C   0  0  0  0  0  0
  -21.8813   -3.8160   23.4358 C   0  0  0  0  0  0
  -21.9200   -4.6981   22.3411 C   0  0  0  0  0  0
  -22.7786  -13.5235   21.1811 C   0  0  0  0  0  0
  -22.1649   -4.2154   21.0997 F   0  0  0  0  0  0
  -21.5594   -3.4549   25.7751 F   0  0  0  0  0  0
  -29.9359  -13.5549   20.3897 N   0  0  0  0  0  0
  -26.2761  -12.9290   20.3129 N   0  0  0  0  0  0
  -25.9193  -11.6468   20.5753 N   0  0  0  0  0  0
  -22.0447  -12.8248   22.0383 N   0  0  0  0  0  0
  -25.4215  -15.1875   20.3925 N   0  0  0  0  0  0
  -31.7554  -14.8411   20.1327 O   0  0  0  0  0  0
  -21.6599   -6.8886   21.4262 O   0  0  0  0  0  0
  -22.3493  -14.5563   20.6690 O   0  0  0  0  0  0
  -24.6327  -31.8516   23.2021 C   0  0  0  0  0  0
  -25.9126  -32.4763   23.8383 C   0  0  1  0  0  0
  -27.2025  -27.2170   20.1563 C   0  0  0  0  0  0
  -25.5910  -33.8568   24.2288 N   0  0  0  0  0  0
  -23.4323  -30.4726   21.5485 C   0  0  2  0  0  0
  -24.8775  -28.9097   20.1312 C   0  0  0  0  0  0
  -22.7534  -29.4519   22.4943 C   0  0  0  0  0  0
  -18.0284  -28.1371   22.8498 C   0  0  0  0  0  0
  -24.1475  -36.7255   23.2641 C   0  0  0  0  0  0
  -25.9827  -30.7514   21.3908 C   0  0  0  0  0  0
  -26.0525  -29.3680   20.7392 C   0  0  0  0  0  0
  -27.2241  -28.5385   20.7269 C   0  0  0  0  0  0
  -26.0019  -26.8313   19.5273 C   0  0  0  0  0  0
  -24.8577  -27.6506   19.5140 C   0  0  0  0  0  0
  -23.6551  -29.8070   20.1680 C   0  0  0  0  0  0
  -25.4104  -36.3081   24.0336 C   0  0  1  0  0  0
  -20.5911  -28.3659   23.1288 C   0  0  2  0  0  0
  -20.6751  -26.9364   22.5422 C   0  0  0  0  0  0
  -19.5722  -26.6348   21.5225 C   0  0  0  0  0  0
  -18.1916  -26.7912   22.1630 C   0  0  0  0  0  0
  -19.1549  -28.8831   23.2889 C   0  0  0  0  0  0
  -18.9452  -30.1449   23.8886 C   0  0  0  0  0  0
  -17.6456  -30.6580   24.0534 C   0  0  0  0  0  0
  -25.9031  -34.9452   23.5095 C   0  0  0  0  0  0
  -16.5344  -29.9065   23.6351 C   0  0  0  0  0  0
  -16.7275  -28.6478   23.0382 C   0  0  0  0  0  0
  -26.4518  -31.6630   25.0805 C   0  0  0  0  0  0
  -25.3717  -31.3819   26.1518 C   0  0  0  0  0  0
  -27.0370  -30.3034   24.6335 C   0  0  0  0  0  0
  -27.6037  -32.4424   25.7577 C   0  0  0  0  0  0
  -27.5577  -37.1802   24.8477 C   0  0  0  0  0  0
  -21.4247  -29.2998   22.3697 N   0  0  0  0  0  0
  -26.4300  -37.3770   23.9419 N   0  0  0  0  0  0
  -24.7021  -31.0457   22.0999 N   0  0  0  0  0  0
  -23.4241  -28.8049   23.3039 O   0  0  0  0  0  0
  -28.3002  -26.3235   20.1174 O   0  0  0  0  0  0
  -26.5619  -34.8918   22.4714 O   0  0  0  0  0  0
  -23.5476  -32.1332   23.7285 O   0  0  0  0  0  0
  -30.0628  -19.3113   20.9350 C   0  0  0  0  0  0
  -29.7541  -20.7321   20.7630 C   0  0  0  0  0  0
  -29.1452  -18.4006   20.4484 C   0  0  0  0  0  0
  -28.5031  -21.0082   20.2439 C   0  0  0  0  0  0
  -27.7511  -22.2801   19.9095 C   0  0  0  0  0  0
  -27.6143  -23.6758   20.0106 C   0  0  0  0  0  0
  -29.2032  -16.8512   20.1748 C   0  0  0  0  0  0
  -32.1670  -21.9887   17.4468 C   0  0  0  0  0  0
  -30.3701  -16.3364   22.2920 C   0  0  0  0  0  0
  -28.2801  -24.9305   20.7337 C   0  0  0  0  0  0
  -31.7240  -21.3001   18.7420 C   0  0  0  0  0  0
  -31.1848  -22.3032   19.7989 C   0  0  0  0  0  0
  -29.9217  -15.9293   20.9537 N   0  0  0  0  0  0
  -28.5787  -16.4597   19.1846 O   0  0  0  0  0  0
  -30.6785  -21.6885   20.9880 O   0  0  0  0  0  0
  -27.7849  -19.4023   19.8429 S   0  0  0  0  0  0
  -31.4423  -12.6186   19.1694 H   0  0  0  0  0  0
  -30.3607  -11.5095   19.9771 H   0  0  0  0  0  0
  -29.7947  -11.6868   17.5414 H   0  0  0  0  0  0
  -29.6071  -13.4190   17.6889 H   0  0  0  0  0  0
  -27.9107  -11.2451   18.9591 H   0  0  0  0  0  0
  -27.3626  -12.4321   17.8020 H   0  0  0  0  0  0
  -27.5853  -14.2149   19.4051 H   0  0  0  0  0  0
  -28.6708  -12.2202   21.4551 H   0  0  0  0  0  0
  -28.3446  -13.9201   21.7350 H   0  0  0  0  0  0
  -25.2745   -9.5697   22.4710 H   0  0  0  0  0  0
  -23.9980   -7.4668   22.7524 H   0  0  0  0  0  0
  -21.0755   -8.8768   19.8973 H   0  0  0  0  0  0
  -22.3643  -10.9660   19.6162 H   0  0  0  0  0  0
  -21.2041   -7.6183   23.9715 H   0  0  0  0  0  0
  -21.1427   -6.0546   25.9069 H   0  0  0  0  0  0
  -22.0604   -2.7634   23.2871 H   0  0  0  0  0  0
  -22.4101  -11.9955   22.4830 H   0  0  0  0  0  0
  -21.1104  -13.1341   22.2643 H   0  0  0  0  0  0
  -24.6484  -15.8432   20.4587 H   0  0  0  0  0  0
  -26.2516  -15.5952   19.9791 H   0  0  0  0  0  0
  -26.7188  -32.5417   23.1128 H   0  0  0  0  0  0
  -25.0096  -33.9717   25.0452 H   0  0  0  0  0  0
  -22.7288  -31.2969   21.4043 H   0  0  0  0  0  0
  -23.3762  -35.9573   23.3356 H   0  0  0  0  0  0
  -24.3487  -36.8810   22.2030 H   0  0  0  0  0  0
  -23.7213  -37.6459   23.6642 H   0  0  0  0  0  0
  -26.1318  -31.5078   20.6201 H   0  0  0  0  0  0
  -26.8541  -30.7981   22.0321 H   0  0  0  0  0  0
  -28.1417  -28.8852   21.1870 H   0  0  0  0  0  0
  -25.9347  -25.8808   19.0278 H   0  0  0  0  0  0
  -23.9582  -27.2916   19.0345 H   0  0  0  0  0  0
  -23.7987  -30.5829   19.4142 H   0  0  0  0  0  0
  -22.7722  -29.2503   19.8506 H   0  0  0  0  0  0
  -25.1297  -36.1936   25.0828 H   0  0  0  0  0  0
  -20.9981  -28.3204   24.1412 H   0  0  0  0  0  0
  -20.5614  -26.2244   23.3613 H   0  0  0  0  0  0
  -21.6615  -26.7348   22.1217 H   0  0  0  0  0  0
  -19.6835  -25.6257   21.1243 H   0  0  0  0  0  0
  -19.6663  -27.3167   20.6777 H   0  0  0  0  0  0
  -17.4167  -26.6699   21.4041 H   0  0  0  0  0  0
  -18.0287  -26.0047   22.9018 H   0  0  0  0  0  0
  -19.7925  -30.7291   24.2229 H   0  0  0  0  0  0
  -17.4988  -31.6262   24.5140 H   0  0  0  0  0  0
  -15.5331  -30.2945   23.7684 H   0  0  0  0  0  0
  -15.8675  -28.0776   22.7137 H   0  0  0  0  0  0
  -24.5850  -30.7231   25.7854 H   0  0  0  0  0  0
  -24.8971  -32.2993   26.4986 H   0  0  0  0  0  0
  -25.7966  -30.8949   27.0289 H   0  0  0  0  0  0
  -26.2984  -29.6809   24.1268 H   0  0  0  0  0  0
  -27.3915  -29.7305   25.4915 H   0  0  0  0  0  0
  -27.8941  -30.4309   23.9717 H   0  0  0  0  0  0
  -27.2607  -33.3702   26.2185 H   0  0  0  0  0  0
  -28.3828  -32.7026   25.0403 H   0  0  0  0  0  0
  -28.0761  -31.8561   26.5460 H   0  0  0  0  0  0
  -28.2640  -38.0059   24.7474 H   0  0  0  0  0  0
  -28.1036  -36.2576   24.6404 H   0  0  0  0  0  0
  -27.2270  -37.1567   25.8878 H   0  0  0  0  0  0
  -20.9443  -29.8744   21.6912 H   0  0  0  0  0  0
  -26.0182  -38.2856   24.1423 H   0  0  0  0  0  0
  -31.0197  -19.0063   21.3295 H   0  0  0  0  0  0
  -26.9199  -21.9562   19.2987 H   0  0  0  0  0  0
  -26.7429  -24.0191   19.4750 H   0  0  0  0  0  0
  -32.5367  -21.2583   16.7240 H   0  0  0  0  0  0
  -32.9631  -22.7048   17.6424 H   0  0  0  0  0  0
  -31.3381  -22.5225   16.9788 H   0  0  0  0  0  0
  -29.8791  -17.2310   22.6751 H   0  0  0  0  0  0
  -31.4499  -16.5039   22.3125 H   0  0  0  0  0  0
  -30.1402  -15.5466   23.0136 H   0  0  0  0  0  0
  -27.7882  -25.0224   21.7030 H   0  0  0  0  0  0
  -29.3099  -24.6495   20.9623 H   0  0  0  0  0  0
  -32.5513  -20.7208   19.1555 H   0  0  0  0  0  0
  -30.9654  -20.5682   18.4632 H   0  0  0  0  0  0
  -30.4148  -22.9322   19.3516 H   0  0  0  0  0  0
  -31.9835  -22.9790   20.1113 H   0  0  0  0  0  0
  1 25  1  0  0  0
  1 30  2  0  0  0
  1 83  1  0  0  0
  2  3  1  0  0  0
  2 25  1  0  0  0
  2 87  1  0  0  0
  2 88  1  0  0  0
  3  4  1  0  0  0
  3 89  1  0  0  0
  3 90  1  0  0  0
  4  5  1  0  0  0
  4 91  1  0  0  0
  4 92  1  0  0  0
  5  6  1  0  0  0
  5 26  1  0  0  0
  5 93  1  0  0  0
  6 25  1  0  0  0
  6 94  1  0  0  0
  6 95  1  0  0  0
  7  8  2  0  0  0
  7 26  1  0  0  0
  7 29  1  0  0  0
  8  9  1  0  0  0
  8 22  1  0  0  0
  9 10  1  0  0  0
  9 27  2  0  0  0
 10 11  2  0  0  0
 10 15  1  0  0  0
 11 12  1  0  0  0
 11 96  1  0  0  0
 12 13  2  0  0  0
 12 97  1  0  0  0
 13 14  1  0  0  0
 13 31  1  0  0  0
 14 15  2  0  0  0
 14 98  1  0  0  0
 15 99  1  0  0  0
 16 17  2  0  0  0
 16 21  1  0  0  0
 16 31  1  0  0  0
 17 18  1  0  0  0
 17100  1  0  0  0
 18 19  2  0  0  0
 18101  1  0  0  0
 19 20  1  0  0  0
 19 24  1  0  0  0
 20 21  2  0  0  0
 20102  1  0  0  0
 21 23  1  0  0  0
 22 28  1  0  0  0
 22 32  2  0  0  0
 26 27  1  0  0  0
 28103  1  0  0  0
 28104  1  0  0  0
 29105  1  0  0  0
 29106  1  0  0  0
 33 34  1  0  0  0
 33 66  1  0  0  0
 33 70  2  0  0  0
 34 36  1  0  0  0
 34 59  1  0  0  0
 34107  1  0  0  0
 35 44  2  0  0  0
 35 45  1  0  0  0
 35 68  1  0  0  0
 36 56  1  0  0  0
 36108  1  0  0  0
 37 39  1  0  0  0
 37 47  1  0  0  0
 37 66  1  0  0  0
 37109  1  0  0  0
 38 43  2  0  0  0
 38 46  1  0  0  0
 38 47  1  0  0  0
 39 64  1  0  0  0
 39 67  2  0  0  0
 40 52  1  0  0  0
 40 53  2  0  0  0
 40 58  1  0  0  0
 41110  1  0  0  0
 41111  1  0  0  0
 41112  1  0  0  0
 41 48  1  0  0  0
 42 43  1  0  0  0
 42 66  1  0  0  0
 42113  1  0  0  0
 42114  1  0  0  0
 43 44  1  0  0  0
 44115  1  0  0  0
 45 46  2  0  0  0
 45116  1  0  0  0
 46117  1  0  0  0
 47118  1  0  0  0
 47119  1  0  0  0
 48 56  1  0  0  0
 48 65  1  0  0  0
 48120  1  0  0  0
 49 50  1  0  0  0
 49 53  1  0  0  0
 49 64  1  0  0  0
 49121  1  0  0  0
 50 51  1  0  0  0
 50122  1  0  0  0
 50123  1  0  0  0
 51 52  1  0  0  0
 51124  1  0  0  0
 51125  1  0  0  0
 52126  1  0  0  0
 52127  1  0  0  0
 53 54  1  0  0  0
 54 55  2  0  0  0
 54128  1  0  0  0
 55 57  1  0  0  0
 55129  1  0  0  0
 56 69  2  0  0  0
 57 58  2  0  0  0
 57130  1  0  0  0
 58131  1  0  0  0
 59 60  1  0  0  0
 59 61  1  0  0  0
 59 62  1  0  0  0
 60132  1  0  0  0
 60133  1  0  0  0
 60134  1  0  0  0
 61135  1  0  0  0
 61136  1  0  0  0
 61137  1  0  0  0
 62138  1  0  0  0
 62139  1  0  0  0
 62140  1  0  0  0
 63 65  1  0  0  0
 63141  1  0  0  0
 63142  1  0  0  0
 63143  1  0  0  0
 64144  1  0  0  0
 65145  1  0  0  0
 68 80  1  0  0  0
 71 72  1  0  0  0
 71 73  2  0  0  0
 71146  1  0  0  0
 72 74  2  0  0  0
 72 85  1  0  0  0
 73 77  1  0  0  0
 73 86  1  0  0  0
 74 75  1  0  0  0
 74 86  1  0  0  0
 75 76  2  0  0  0
 75147  1  0  0  0
 76 80  1  0  0  0
 76148  1  0  0  0
 77 83  1  0  0  0
 77 84  2  0  0  0
 78 81  1  0  0  0
 78149  1  0  0  0
 78150  1  0  0  0
 78151  1  0  0  0
 79 83  1  0  0  0
 79152  1  0  0  0
 79153  1  0  0  0
 79154  1  0  0  0
 80155  1  0  0  0
 80156  1  0  0  0
 81 82  1  0  0  0
 81157  1  0  0  0
 81158  1  0  0  0
 82 85  1  0  0  0
 82159  1  0  0  0
 82160  1  0  0  0
M  ISO  4   1 100  68 101  80 101  83 100
M  END
> <chiral flag>
0

> <version>
0

> <s_m_source_file>
/data/baiqing/PycharmProjects/Reinvent-master-3.2/result/LINK_invent/BTK/process_docking_weight1_custom_product_contain_oxygen_bond_distance_aromatic_linkinvent_7_9_3/rearranged_h_0103.sdf

> <i_m_source_file_index>
37

> <r_mmod_Potential_Energy-OPLS-2005>
443.011474609375

> <r_mmod_Stretch_Energy-OPLS-2005>
141.963897705078

> <r_mmod_Bend_Energy-OPLS-2005>
264.942321777344

> <r_mmod_Torsional_Energy-OPLS-2005>
355.076568603516

> <r_mmod_Improper_Torsional_Energy-OPLS-2005>
4.6890025138855

> <r_mmod_Van_der_Waal_Energy-OPLS-2005>
116.779151916504

> <r_mmod_Electrostatic_Energy-OPLS-2005>
-360.119873046875

> <r_mmod_Solvation_Energy-OPLS-2005>
-185.042007446289

> <b_mmod_Minimization_Converged-OPLS-2005>
0

> <r_mmod_RMS_Derivative-OPLS-2005>
5.99887943267822

$$$$
37
                    3D
 Structure written by MMmdl.
160168  0  0  1  0            999 V2000
  -30.7010  -14.4694   20.4630 C   0  0  0  0  0  0
  -30.4177  -12.2736   19.4401 C   0  0  0  0  0  0
  -29.4976  -12.4646   18.2156 C   0  0  0  0  0  0
  -28.0163  -12.3419   18.6249 C   0  0  0  0  0  0
  -27.6576  -13.2023   19.8662 C   0  0  2  0  0  0
  -28.7025  -13.0314   20.9956 C   0  0  0  0  0  0
  -25.2583  -13.8140   20.5660 C   0  0  0  0  0  0
  -24.1835  -13.0429   20.9171 C   0  0  0  0  0  0
  -24.6378  -11.6894   20.8740 C   0  0  0  0  0  0
  -23.9045  -10.4285   21.0412 C   0  0  0  0  0  0
  -24.3597   -9.4197   21.9186 C   0  0  0  0  0  0
  -23.6281   -8.2229   22.0751 C   0  0  0  0  0  0
  -22.4265   -8.0270   21.3536 C   0  0  0  0  0  0
  -21.9897   -9.0245   20.4642 C   0  0  0  0  0  0
  -22.7220  -10.2127   20.3060 C   0  0  0  0  0  0
  -21.6850   -6.0731   22.5273 C   0  0  0  0  0  0
  -21.4010   -6.5634   23.8204 C   0  0  0  0  0  0
  -21.3657   -5.6788   24.9166 C   0  0  0  0  0  0
  -21.6048   -4.3052   24.7216 C   0  0  0  0  0  0
  -21.8824   -3.8142   23.4337 C   0  0  0  0  0  0
  -21.9192   -4.6961   22.3395 C   0  0  0  0  0  0
  -22.7864  -13.5245   21.1839 C   0  0  0  0  0  0
  -22.1659   -4.2141   21.0973 F   0  0  0  0  0  0
  -21.5630   -3.4542   25.7732 F   0  0  0  0  0  0
  -30.0357  -13.2880   20.4323 N   0  0  0  0  0  0
  -26.3007  -12.9302   20.3336 N   0  0  0  0  0  0
  -25.9300  -11.6468   20.5772 N   0  0  0  0  0  0
  -22.0501  -12.8242   22.0396 N   0  0  0  0  0  0
  -25.4321  -15.1847   20.4039 N   0  0  0  0  0  0
  -31.8929  -14.5794   20.1707 O   0  0  0  0  0  0
  -21.6627   -6.8869   21.4234 O   0  0  0  0  0  0
  -22.3559  -14.5559   20.6702 O   0  0  0  0  0  0
  -24.6122  -31.8691   23.2106 C   0  0  0  0  0  0
  -25.9025  -32.4830   23.8394 C   0  0  1  0  0  0
  -27.2360  -27.4579   20.1051 C   0  0  0  0  0  0
  -25.5889  -33.8626   24.2329 N   0  0  0  0  0  0
  -23.3984  -30.4922   21.5499 C   0  0  2  0  0  0
  -24.8453  -28.9583   20.1156 C   0  0  0  0  0  0
  -22.7391  -29.4667   22.4999 C   0  0  0  0  0  0
  -18.0265  -28.1385   22.8499 C   0  0  0  0  0  0
  -24.1481  -36.7315   23.2638 C   0  0  0  0  0  0
  -25.9228  -30.8466   21.3546 C   0  0  0  0  0  0
  -26.0028  -29.4811   20.7055 C   0  0  0  0  0  0
  -27.2037  -28.7406   20.6905 C   0  0  0  0  0  0
  -26.0641  -26.9394   19.5124 C   0  0  0  0  0  0
  -24.8698  -27.6865   19.5143 C   0  0  0  0  0  0
  -23.6048  -29.8213   20.1645 C   0  0  0  0  0  0
  -25.4104  -36.3118   24.0339 C   0  0  1  0  0  0
  -20.5854  -28.3665   23.1331 C   0  0  2  0  0  0
  -20.6756  -26.9403   22.5424 C   0  0  0  0  0  0
  -19.5736  -26.6393   21.5219 C   0  0  0  0  0  0
  -18.1914  -26.7933   22.1630 C   0  0  0  0  0  0
  -19.1514  -28.8842   23.2911 C   0  0  0  0  0  0
  -18.9447  -30.1450   23.8918 C   0  0  0  0  0  0
  -17.6451  -30.6593   24.0573 C   0  0  0  0  0  0
  -25.9032  -34.9482   23.5131 C   0  0  0  0  0  0
  -16.5340  -29.9100   23.6328 C   0  0  0  0  0  0
  -16.7255  -28.6516   23.0350 C   0  0  0  0  0  0
  -26.4466  -31.6602   25.0708 C   0  0  0  0  0  0
  -25.3749  -31.3705   26.1470 C   0  0  0  0  0  0
  -27.0282  -30.3048   24.6051 C   0  0  0  0  0  0
  -27.6047  -32.4322   25.7469 C   0  0  0  0  0  0
  -27.5575  -37.1815   24.8470 C   0  0  0  0  0  0
  -21.4123  -29.3032   22.3737 N   0  0  0  0  0  0
  -26.4292  -37.3798   23.9408 N   0  0  0  0  0  0
  -24.6626  -31.0831   22.0977 N   0  0  0  0  0  0
  -23.4179  -28.8211   23.3033 O   0  0  0  0  0  0
  -28.4105  -26.7450   20.1067 O   0  0  0  0  0  0
  -26.5593  -34.8930   22.4694 O   0  0  0  0  0  0
  -23.5321  -32.1424   23.7528 O   0  0  0  0  0  0
  -30.8243  -18.8738   19.8221 C   0  0  0  0  0  0
  -28.4668  -18.4663   19.3613 C   0  0  0  0  0  0
  -30.6227  -20.2740   19.7452 C   0  0  0  0  0  0
  -29.7692  -17.9719   19.5709 C   0  0  0  0  0  0
  -28.2476  -19.8558   19.2841 C   0  0  0  0  0  0
  -29.3253  -20.7603   19.4367 C   0  0  0  0  0  0
  -33.0089  -20.9112   20.2693 C   0  0  0  0  0  0
  -31.7463  -21.2190   19.9224 C   0  0  0  0  0  0
  -30.0798  -16.5064   19.3066 C   0  0  0  0  0  0
  -28.6527  -24.3630   19.6286 C   0  0  0  0  0  0
  -28.3485  -25.4372   20.6826 C   0  0  0  0  0  0
  -28.7361  -22.9356   20.2003 C   0  0  0  0  0  0
  -26.9767  -20.3396   18.9771 N   0  0  0  0  0  0
  -29.8980  -15.5454   20.4026 N   0  0  0  0  0  0
  -29.1276  -22.0875   19.1303 O   0  0  0  0  0  0
  -31.4645  -12.3508   19.1394 H   0  0  0  0  0  0
  -30.2994  -11.2737   19.8611 H   0  0  0  0  0  0
  -29.7341  -11.7222   17.4523 H   0  0  0  0  0  0
  -29.6780  -13.4400   17.7606 H   0  0  0  0  0  0
  -27.8207  -11.2905   18.8370 H   0  0  0  0  0  0
  -27.3699  -12.6061   17.7871 H   0  0  0  0  0  0
  -27.6839  -14.2389   19.5327 H   0  0  0  0  0  0
  -28.6651  -12.0201   21.4030 H   0  0  0  0  0  0
  -28.4890  -13.7032   21.8285 H   0  0  0  0  0  0
  -25.2739   -9.5676   22.4758 H   0  0  0  0  0  0
  -23.9996   -7.4624   22.7473 H   0  0  0  0  0  0
  -21.0824   -8.8763   19.8949 H   0  0  0  0  0  0
  -22.3678  -10.9670   19.6172 H   0  0  0  0  0  0
  -21.2000   -7.6140   23.9705 H   0  0  0  0  0  0
  -21.1480   -6.0515   25.9070 H   0  0  0  0  0  0
  -22.0611   -2.7603   23.2839 H   0  0  0  0  0  0
  -22.4115  -11.9903   22.4783 H   0  0  0  0  0  0
  -21.1126  -13.1280   22.2609 H   0  0  0  0  0  0
  -24.6685  -15.8424   20.5150 H   0  0  0  0  0  0
  -26.2772  -15.6177   20.0568 H   0  0  0  0  0  0
  -26.7098  -32.5557   23.1167 H   0  0  0  0  0  0
  -25.0045  -33.9790   25.0478 H   0  0  0  0  0  0
  -22.6860  -31.3078   21.4110 H   0  0  0  0  0  0
  -23.3734  -35.9659   23.3334 H   0  0  0  0  0  0
  -24.3569  -36.8894   22.2045 H   0  0  0  0  0  0
  -23.7246  -37.6537   23.6629 H   0  0  0  0  0  0
  -26.0259  -31.6128   20.5851 H   0  0  0  0  0  0
  -26.8145  -30.9057   21.9669 H   0  0  0  0  0  0
  -28.1005  -29.1437   21.1394 H   0  0  0  0  0  0
  -26.0732  -25.9645   19.0468 H   0  0  0  0  0  0
  -23.9797  -27.2799   19.0548 H   0  0  0  0  0  0
  -23.7084  -30.5939   19.4019 H   0  0  0  0  0  0
  -22.7307  -29.2364   19.8732 H   0  0  0  0  0  0
  -25.1282  -36.1985   25.0831 H   0  0  0  0  0  0
  -20.9948  -28.3230   24.1454 H   0  0  0  0  0  0
  -20.5665  -26.2270   23.3607 H   0  0  0  0  0  0
  -21.6626  -26.7456   22.1214 H   0  0  0  0  0  0
  -19.6895  -25.6310   21.1237 H   0  0  0  0  0  0
  -19.6679  -27.3214   20.6758 H   0  0  0  0  0  0
  -17.4183  -26.6682   21.4030 H   0  0  0  0  0  0
  -18.0315  -26.0073   22.9026 H   0  0  0  0  0  0
  -19.7923  -30.7259   24.2294 H   0  0  0  0  0  0
  -17.5012  -31.6274   24.5173 H   0  0  0  0  0  0
  -15.5347  -30.3016   23.7644 H   0  0  0  0  0  0
  -15.8651  -28.0850   22.7057 H   0  0  0  0  0  0
  -24.5905  -30.7069   25.7814 H   0  0  0  0  0  0
  -24.8963  -32.2864   26.4947 H   0  0  0  0  0  0
  -25.8119  -30.8853   27.0205 H   0  0  0  0  0  0
  -26.2803  -29.6826   24.1116 H   0  0  0  0  0  0
  -27.4077  -29.7269   25.4487 H   0  0  0  0  0  0
  -27.8630  -30.4376   23.9163 H   0  0  0  0  0  0
  -27.2656  -33.3598   26.2088 H   0  0  0  0  0  0
  -28.3829  -32.6919   25.0282 H   0  0  0  0  0  0
  -28.0739  -31.8420   26.5348 H   0  0  0  0  0  0
  -28.2620  -38.0085   24.7490 H   0  0  0  0  0  0
  -28.1041  -36.2620   24.6331 H   0  0  0  0  0  0
  -27.2291  -37.1513   25.8873 H   0  0  0  0  0  0
  -20.9281  -29.8753   21.6962 H   0  0  0  0  0  0
  -26.0184  -38.2878   24.1404 H   0  0  0  0  0  0
  -31.8145  -18.4727   19.9802 H   0  0  0  0  0  0
  -27.6575  -17.7759   19.1684 H   0  0  0  0  0  0
  -33.7537  -21.6894   20.3654 H   0  0  0  0  0  0
  -33.3367  -19.9015   20.4674 H   0  0  0  0  0  0
  -31.5245  -22.2629   19.7506 H   0  0  0  0  0  0
  -31.0869  -16.4680   18.8853 H   0  0  0  0  0  0
  -29.4384  -16.1752   18.4878 H   0  0  0  0  0  0
  -29.5998  -24.6051   19.1460 H   0  0  0  0  0  0
  -27.8937  -24.3955   18.8459 H   0  0  0  0  0  0
  -29.1011  -25.3911   21.4710 H   0  0  0  0  0  0
  -27.3925  -25.2358   21.1706 H   0  0  0  0  0  0
  -27.7711  -22.6262   20.6049 H   0  0  0  0  0  0
  -29.4669  -22.8877   21.0091 H   0  0  0  0  0  0
  -26.3200  -19.7153   18.5218 H   0  0  0  0  0  0
  -26.9340  -21.2876   18.6174 H   0  0  0  0  0  0
  -28.9485  -15.3980   20.7063 H   0  0  0  0  0  0
  1 25  1  0  0  0
  1 30  2  0  0  0
  1 84  1  0  0  0
  2  3  1  0  0  0
  2 25  1  0  0  0
  2 86  1  0  0  0
  2 87  1  0  0  0
  3  4  1  0  0  0
  3 88  1  0  0  0
  3 89  1  0  0  0
  4  5  1  0  0  0
  4 90  1  0  0  0
  4 91  1  0  0  0
  5  6  1  0  0  0
  5 26  1  0  0  0
  5 92  1  0  0  0
  6 25  1  0  0  0
  6 93  1  0  0  0
  6 94  1  0  0  0
  7  8  2  0  0  0
  7 26  1  0  0  0
  7 29  1  0  0  0
  8  9  1  0  0  0
  8 22  1  0  0  0
  9 10  1  0  0  0
  9 27  2  0  0  0
 10 11  2  0  0  0
 10 15  1  0  0  0
 11 12  1  0  0  0
 11 95  1  0  0  0
 12 13  2  0  0  0
 12 96  1  0  0  0
 13 14  1  0  0  0
 13 31  1  0  0  0
 14 15  2  0  0  0
 14 97  1  0  0  0
 15 98  1  0  0  0
 16 17  2  0  0  0
 16 21  1  0  0  0
 16 31  1  0  0  0
 17 18  1  0  0  0
 17 99  1  0  0  0
 18 19  2  0  0  0
 18100  1  0  0  0
 19 20  1  0  0  0
 19 24  1  0  0  0
 20 21  2  0  0  0
 20101  1  0  0  0
 21 23  1  0  0  0
 22 28  1  0  0  0
 22 32  2  0  0  0
 26 27  1  0  0  0
 28102  1  0  0  0
 28103  1  0  0  0
 29104  1  0  0  0
 29105  1  0  0  0
 33 34  1  0  0  0
 33 66  1  0  0  0
 33 70  2  0  0  0
 34 36  1  0  0  0
 34 59  1  0  0  0
 34106  1  0  0  0
 35 44  2  0  0  0
 35 45  1  0  0  0
 35 68  1  0  0  0
 36 56  1  0  0  0
 36107  1  0  0  0
 37 39  1  0  0  0
 37 47  1  0  0  0
 37 66  1  0  0  0
 37108  1  0  0  0
 38 43  2  0  0  0
 38 46  1  0  0  0
 38 47  1  0  0  0
 39 64  1  0  0  0
 39 67  2  0  0  0
 40 52  1  0  0  0
 40 53  2  0  0  0
 40 58  1  0  0  0
 41109  1  0  0  0
 41110  1  0  0  0
 41111  1  0  0  0
 41 48  1  0  0  0
 42 43  1  0  0  0
 42 66  1  0  0  0
 42112  1  0  0  0
 42113  1  0  0  0
 43 44  1  0  0  0
 44114  1  0  0  0
 45 46  2  0  0  0
 45115  1  0  0  0
 46116  1  0  0  0
 47117  1  0  0  0
 47118  1  0  0  0
 48 56  1  0  0  0
 48 65  1  0  0  0
 48119  1  0  0  0
 49 50  1  0  0  0
 49 53  1  0  0  0
 49 64  1  0  0  0
 49120  1  0  0  0
 50 51  1  0  0  0
 50121  1  0  0  0
 50122  1  0  0  0
 51 52  1  0  0  0
 51123  1  0  0  0
 51124  1  0  0  0
 52125  1  0  0  0
 52126  1  0  0  0
 53 54  1  0  0  0
 54 55  2  0  0  0
 54127  1  0  0  0
 55 57  1  0  0  0
 55128  1  0  0  0
 56 69  2  0  0  0
 57 58  2  0  0  0
 57129  1  0  0  0
 58130  1  0  0  0
 59 60  1  0  0  0
 59 61  1  0  0  0
 59 62  1  0  0  0
 60131  1  0  0  0
 60132  1  0  0  0
 60133  1  0  0  0
 61134  1  0  0  0
 61135  1  0  0  0
 61136  1  0  0  0
 62137  1  0  0  0
 62138  1  0  0  0
 62139  1  0  0  0
 63 65  1  0  0  0
 63140  1  0  0  0
 63141  1  0  0  0
 63142  1  0  0  0
 64143  1  0  0  0
 65144  1  0  0  0
 68 81  1  0  0  0
 71 73  2  0  0  0
 71 74  1  0  0  0
 71145  1  0  0  0
 72 74  2  0  0  0
 72 75  1  0  0  0
 72146  1  0  0  0
 73 76  1  0  0  0
 73 78  1  0  0  0
 74 79  1  0  0  0
 75 76  2  0  0  0
 75 83  1  0  0  0
 76 85  1  0  0  0
 77 78  2  0  0  0
 77147  1  0  0  0
 77148  1  0  0  0
 78149  1  0  0  0
 79 84  1  0  0  0
 79150  1  0  0  0
 79151  1  0  0  0
 80 81  1  0  0  0
 80 82  1  0  0  0
 80152  1  0  0  0
 80153  1  0  0  0
 81154  1  0  0  0
 81155  1  0  0  0
 82 85  1  0  0  0
 82156  1  0  0  0
 82157  1  0  0  0
 83158  1  0  0  0
 83159  1  0  0  0
 84160  1  0  0  0
M  ISO  4   1 100  68 101  81 101  84 100
M  END
> <chiral flag>
0

> <version>
0

> <s_m_source_file>
/data/baiqing/PycharmProjects/Reinvent-master-3.2/result/LINK_invent/BTK/process_docking_weight1_custom_product_contain_oxygen_bond_distance_aromatic_linkinvent_7_9_3/rearranged_h_0103.sdf

> <i_m_source_file_index>
38

> <r_mmod_Potential_Energy-OPLS-2005>
-49.0853958129883

> <r_mmod_Stretch_Energy-OPLS-2005>
33.1785583496094

> <r_mmod_Bend_Energy-OPLS-2005>
94.8878021240234

> <r_mmod_Torsional_Energy-OPLS-2005>
299.697875976562

> <r_mmod_Improper_Torsional_Energy-OPLS-2005>
20.8043613433838

> <r_mmod_Van_der_Waal_Energy-OPLS-2005>
151.752883911133

> <r_mmod_Electrostatic_Energy-OPLS-2005>
-447.784393310547

> <r_mmod_Solvation_Energy-OPLS-2005>
-220.189315795898

> <b_mmod_Minimization_Converged-OPLS-2005>
0

> <r_mmod_RMS_Derivative-OPLS-2005>
1.35523509979248

$$$$
38
                    3D
 Structure written by MMmdl.
168177  0  0  1  0            999 V2000
  -30.6337  -14.6633   20.5190 C   0  0  0  0  0  0
  -30.4348  -12.4172   19.4505 C   0  0  0  0  0  0
  -29.5033  -12.5184   18.2206 C   0  0  0  0  0  0
  -28.0233  -12.3611   18.6294 C   0  0  0  0  0  0
  -27.6497  -13.2189   19.8684 C   0  0  2  0  0  0
  -28.6970  -13.0388   20.9870 C   0  0  0  0  0  0
  -25.2524  -13.8182   20.5679 C   0  0  0  0  0  0
  -24.1798  -13.0439   20.9186 C   0  0  0  0  0  0
  -24.6382  -11.6911   20.8757 C   0  0  0  0  0  0
  -23.9066  -10.4296   21.0417 C   0  0  0  0  0  0
  -24.3620   -9.4208   21.9183 C   0  0  0  0  0  0
  -23.6293   -8.2246   22.0735 C   0  0  0  0  0  0
  -22.4268   -8.0294   21.3538 C   0  0  0  0  0  0
  -21.9908   -9.0264   20.4631 C   0  0  0  0  0  0
  -22.7247  -10.2141   20.3055 C   0  0  0  0  0  0
  -21.6854   -6.0751   22.5292 C   0  0  0  0  0  0
  -21.4017   -6.5653   23.8231 C   0  0  0  0  0  0
  -21.3643   -5.6792   24.9189 C   0  0  0  0  0  0
  -21.6041   -4.3057   24.7232 C   0  0  0  0  0  0
  -21.8815   -3.8162   23.4349 C   0  0  0  0  0  0
  -21.9182   -4.6978   22.3404 C   0  0  0  0  0  0
  -22.7821  -13.5221   21.1855 C   0  0  0  0  0  0
  -22.1639   -4.2172   21.0970 F   0  0  0  0  0  0
  -21.5634   -3.4527   25.7738 F   0  0  0  0  0  0
  -29.9960  -13.4431   20.4275 N   0  0  0  0  0  0
  -26.2963  -12.9372   20.3353 N   0  0  0  0  0  0
  -25.9310  -11.6523   20.5762 N   0  0  0  0  0  0
  -22.0473  -12.8211   22.0420 N   0  0  0  0  0  0
  -25.4205  -15.1900   20.4064 N   0  0  0  0  0  0
  -31.7962  -14.7639   20.1112 O   0  0  0  0  0  0
  -21.6629   -6.8896   21.4254 O   0  0  0  0  0  0
  -22.3499  -14.5522   20.6703 O   0  0  0  0  0  0
  -24.6253  -31.8600   23.2016 C   0  0  0  0  0  0
  -25.9105  -32.4782   23.8345 C   0  0  1  0  0  0
  -27.2262  -27.3211   20.1234 C   0  0  0  0  0  0
  -25.5917  -33.8579   24.2270 N   0  0  0  0  0  0
  -23.4189  -30.4817   21.5444 C   0  0  2  0  0  0
  -24.8660  -28.9321   20.1163 C   0  0  0  0  0  0
  -22.7468  -29.4623   22.4946 C   0  0  0  0  0  0
  -18.0283  -28.1386   22.8488 C   0  0  0  0  0  0
  -24.1484  -36.7291   23.2639 C   0  0  0  0  0  0
  -25.9592  -30.7916   21.3712 C   0  0  0  0  0  0
  -26.0346  -29.4169   20.7174 C   0  0  0  0  0  0
  -27.2197  -28.6243   20.7075 C   0  0  0  0  0  0
  -26.0374  -26.8863   19.4983 C   0  0  0  0  0  0
  -24.8688  -27.6718   19.4981 C   0  0  0  0  0  0
  -23.6336  -29.8121   20.1617 C   0  0  0  0  0  0
  -25.4112  -36.3085   24.0327 C   0  0  1  0  0  0
  -20.5883  -28.3684   23.1293 C   0  0  2  0  0  0
  -20.6773  -26.9409   22.5418 C   0  0  0  0  0  0
  -19.5748  -26.6383   21.5218 C   0  0  0  0  0  0
  -18.1926  -26.7929   22.1624 C   0  0  0  0  0  0
  -19.1536  -28.8852   23.2887 C   0  0  0  0  0  0
  -18.9460  -30.1455   23.8903 C   0  0  0  0  0  0
  -17.6461  -30.6588   24.0565 C   0  0  0  0  0  0
  -25.9052  -34.9455   23.5103 C   0  0  0  0  0  0
  -16.5353  -29.9090   23.6328 C   0  0  0  0  0  0
  -16.7271  -28.6507   23.0351 C   0  0  0  0  0  0
  -26.4486  -31.6595   25.0715 C   0  0  0  0  0  0
  -25.3722  -31.3732   26.1444 C   0  0  0  0  0  0
  -27.0327  -30.3019   24.6167 C   0  0  0  0  0  0
  -27.6046  -32.4331   25.7487 C   0  0  0  0  0  0
  -27.5580  -37.1796   24.8462 C   0  0  0  0  0  0
  -21.4185  -29.3039   22.3690 N   0  0  0  0  0  0
  -26.4287  -37.3784   23.9412 N   0  0  0  0  0  0
  -24.6866  -31.0612   22.0966 N   0  0  0  0  0  0
  -23.4194  -28.8172   23.3029 O   0  0  0  0  0  0
  -28.3563  -26.4936   20.1245 O   0  0  0  0  0  0
  -26.5627  -34.8924   22.4672 O   0  0  0  0  0  0
  -23.5421  -32.1395   23.7347 O   0  0  0  0  0  0
  -30.5196  -20.5539   21.5321 C   0  0  0  0  0  0
  -28.8240  -20.8241   19.8696 C   0  0  0  0  0  0
  -30.6155  -19.1592   21.2573 C   0  0  0  0  0  0
  -29.8012  -18.5436   20.2699 C   0  0  0  0  0  0
  -29.6460  -21.4509   20.8416 C   0  0  0  0  0  0
  -28.8794  -19.4091   19.5920 C   0  0  0  0  0  0
  -30.3415  -23.4517   22.1392 C   0  0  0  0  0  0
  -31.0185  -24.7541   21.7444 C   0  0  0  0  0  0
  -30.7172  -24.8229   20.2511 C   0  0  0  0  0  0
  -29.3951  -24.0487   20.1379 C   0  0  2  0  0  0
  -31.6511  -18.3495   22.0236 C   0  0  0  0  0  0
  -29.0289  -16.0204   21.8811 C   0  0  0  0  0  0
  -27.0025  -19.5788   18.0874 C   0  0  0  0  0  0
  -30.0209  -17.0370   19.8098 C   0  0  0  0  0  0
  -28.2052  -25.0645   20.5008 C   0  0  0  0  0  0
  -29.6408  -22.9147   21.1121 N   0  0  0  0  0  0
  -29.8775  -15.8180   20.7031 N   0  0  0  0  0  0
  -30.4277  -23.0046   23.2872 O   0  0  0  0  0  0
  -28.0733  -18.8205   18.6396 O   0  0  0  0  0  0
  -31.4736  -12.5464   19.1413 H   0  0  0  0  0  0
  -30.3883  -11.4199   19.8901 H   0  0  0  0  0  0
  -29.7659  -11.7607   17.4829 H   0  0  0  0  0  0
  -29.6501  -13.4829   17.7293 H   0  0  0  0  0  0
  -27.8501  -11.3053   18.8454 H   0  0  0  0  0  0
  -27.3728  -12.6079   17.7892 H   0  0  0  0  0  0
  -27.6728  -14.2604   19.5483 H   0  0  0  0  0  0
  -28.7324  -11.9921   21.2938 H   0  0  0  0  0  0
  -28.4241  -13.5732   21.8910 H   0  0  0  0  0  0
  -25.2758   -9.5682   22.4772 H   0  0  0  0  0  0
  -24.0019   -7.4638   22.7441 H   0  0  0  0  0  0
  -21.0843   -8.8799   19.8928 H   0  0  0  0  0  0
  -22.3722  -10.9699   19.6184 H   0  0  0  0  0  0
  -21.2027   -7.6162   23.9754 H   0  0  0  0  0  0
  -21.1456   -6.0514   25.9089 H   0  0  0  0  0  0
  -22.0603   -2.7627   23.2853 H   0  0  0  0  0  0
  -22.4078  -11.9871   22.4817 H   0  0  0  0  0  0
  -21.1101  -13.1265   22.2639 H   0  0  0  0  0  0
  -24.6530  -15.8437   20.5183 H   0  0  0  0  0  0
  -26.2755  -15.6329   20.0951 H   0  0  0  0  0  0
  -26.7173  -32.5453   23.1095 H   0  0  0  0  0  0
  -25.0049  -33.9724   25.0403 H   0  0  0  0  0  0
  -22.7126  -31.3019   21.3990 H   0  0  0  0  0  0
  -23.3756  -35.9615   23.3296 H   0  0  0  0  0  0
  -24.3573  -36.8918   22.2055 H   0  0  0  0  0  0
  -23.7231  -37.6485   23.6668 H   0  0  0  0  0  0
  -26.0879  -31.5533   20.6010 H   0  0  0  0  0  0
  -26.8409  -30.8437   21.9984 H   0  0  0  0  0  0
  -28.1207  -28.9955   21.1751 H   0  0  0  0  0  0
  -25.9977  -25.9309   18.9968 H   0  0  0  0  0  0
  -23.9745  -27.2959   19.0196 H   0  0  0  0  0  0
  -23.7522  -30.5855   19.4021 H   0  0  0  0  0  0
  -22.7541  -29.2396   19.8614 H   0  0  0  0  0  0
  -25.1295  -36.1931   25.0821 H   0  0  0  0  0  0
  -20.9972  -28.3260   24.1413 H   0  0  0  0  0  0
  -20.5674  -26.2296   23.3617 H   0  0  0  0  0  0
  -21.6644  -26.7441   22.1210 H   0  0  0  0  0  0
  -19.6912  -25.6294   21.1247 H   0  0  0  0  0  0
  -19.6691  -27.3196   20.6751 H   0  0  0  0  0  0
  -17.4202  -26.6683   21.4024 H   0  0  0  0  0  0
  -18.0320  -26.0069   22.9015 H   0  0  0  0  0  0
  -19.7938  -30.7271   24.2274 H   0  0  0  0  0  0
  -17.5016  -31.6267   24.5165 H   0  0  0  0  0  0
  -15.5356  -30.2996   23.7646 H   0  0  0  0  0  0
  -15.8669  -28.0830   22.7062 H   0  0  0  0  0  0
  -24.5893  -30.7086   25.7772 H   0  0  0  0  0  0
  -24.8918  -32.2900   26.4873 H   0  0  0  0  0  0
  -25.8044  -30.8905   27.0219 H   0  0  0  0  0  0
  -26.2898  -29.6773   24.1193 H   0  0  0  0  0  0
  -27.4030  -29.7270   25.4666 H   0  0  0  0  0  0
  -27.8764  -30.4306   23.9382 H   0  0  0  0  0  0
  -27.2655  -33.3629   26.2067 H   0  0  0  0  0  0
  -28.3855  -32.6899   25.0316 H   0  0  0  0  0  0
  -28.0719  -31.8459   26.5403 H   0  0  0  0  0  0
  -28.2592  -38.0100   24.7527 H   0  0  0  0  0  0
  -28.1082  -36.2634   24.6265 H   0  0  0  0  0  0
  -27.2300  -37.1418   25.8863 H   0  0  0  0  0  0
  -20.9366  -29.8758   21.6897 H   0  0  0  0  0  0
  -26.0168  -38.2852   24.1434 H   0  0  0  0  0  0
  -31.1965  -20.9312   22.2841 H   0  0  0  0  0  0
  -28.1460  -21.4636   19.3251 H   0  0  0  0  0  0
  -32.0893  -24.7341   21.9492 H   0  0  0  0  0  0
  -30.5680  -25.5855   22.2884 H   0  0  0  0  0  0
  -31.4994  -24.3086   19.6895 H   0  0  0  0  0  0
  -30.6781  -25.8439   19.8706 H   0  0  0  0  0  0
  -29.2718  -23.6775   19.1207 H   0  0  0  0  0  0
  -32.4220  -18.9921   22.4485 H   0  0  0  0  0  0
  -32.1539  -17.6265   21.3817 H   0  0  0  0  0  0
  -31.1845  -17.8100   22.8471 H   0  0  0  0  0  0
  -29.0481  -17.0440   22.2484 H   0  0  0  0  0  0
  -29.3511  -15.3951   22.7153 H   0  0  0  0  0  0
  -27.9905  -15.7910   21.6453 H   0  0  0  0  0  0
  -26.3959  -18.9314   17.4535 H   0  0  0  0  0  0
  -27.3651  -20.3982   17.4653 H   0  0  0  0  0  0
  -26.3474  -19.9771   18.8638 H   0  0  0  0  0  0
  -31.0167  -17.0265   19.3633 H   0  0  0  0  0  0
  -29.3641  -16.8329   18.9655 H   0  0  0  0  0  0
  -28.0585  -25.0685   21.5816 H   0  0  0  0  0  0
  -27.2873  -24.6369   20.1016 H   0  0  0  0  0  0
  1 25  1  0  0  0
  1 30  2  0  0  0
  1 87  1  0  0  0
  2  3  1  0  0  0
  2 25  1  0  0  0
  2 90  1  0  0  0
  2 91  1  0  0  0
  3  4  1  0  0  0
  3 92  1  0  0  0
  3 93  1  0  0  0
  4  5  1  0  0  0
  4 94  1  0  0  0
  4 95  1  0  0  0
  5  6  1  0  0  0
  5 26  1  0  0  0
  5 96  1  0  0  0
  6 25  1  0  0  0
  6 97  1  0  0  0
  6 98  1  0  0  0
  7  8  2  0  0  0
  7 26  1  0  0  0
  7 29  1  0  0  0
  8  9  1  0  0  0
  8 22  1  0  0  0
  9 10  1  0  0  0
  9 27  2  0  0  0
 10 11  2  0  0  0
 10 15  1  0  0  0
 11 12  1  0  0  0
 11 99  1  0  0  0
 12 13  2  0  0  0
 12100  1  0  0  0
 13 14  1  0  0  0
 13 31  1  0  0  0
 14 15  2  0  0  0
 14101  1  0  0  0
 15102  1  0  0  0
 16 17  2  0  0  0
 16 21  1  0  0  0
 16 31  1  0  0  0
 17 18  1  0  0  0
 17103  1  0  0  0
 18 19  2  0  0  0
 18104  1  0  0  0
 19 20  1  0  0  0
 19 24  1  0  0  0
 20 21  2  0  0  0
 20105  1  0  0  0
 21 23  1  0  0  0
 22 28  1  0  0  0
 22 32  2  0  0  0
 26 27  1  0  0  0
 28106  1  0  0  0
 28107  1  0  0  0
 29108  1  0  0  0
 29109  1  0  0  0
 33 34  1  0  0  0
 33 66  1  0  0  0
 33 70  2  0  0  0
 34 36  1  0  0  0
 34 59  1  0  0  0
 34110  1  0  0  0
 35 44  2  0  0  0
 35 45  1  0  0  0
 35 68  1  0  0  0
 36 56  1  0  0  0
 36111  1  0  0  0
 37 39  1  0  0  0
 37 47  1  0  0  0
 37 66  1  0  0  0
 37112  1  0  0  0
 38 43  2  0  0  0
 38 46  1  0  0  0
 38 47  1  0  0  0
 39 64  1  0  0  0
 39 67  2  0  0  0
 40 52  1  0  0  0
 40 53  2  0  0  0
 40 58  1  0  0  0
 41113  1  0  0  0
 41114  1  0  0  0
 41115  1  0  0  0
 41 48  1  0  0  0
 42 43  1  0  0  0
 42 66  1  0  0  0
 42116  1  0  0  0
 42117  1  0  0  0
 43 44  1  0  0  0
 44118  1  0  0  0
 45 46  2  0  0  0
 45119  1  0  0  0
 46120  1  0  0  0
 47121  1  0  0  0
 47122  1  0  0  0
 48 56  1  0  0  0
 48 65  1  0  0  0
 48123  1  0  0  0
 49 50  1  0  0  0
 49 53  1  0  0  0
 49 64  1  0  0  0
 49124  1  0  0  0
 50 51  1  0  0  0
 50125  1  0  0  0
 50126  1  0  0  0
 51 52  1  0  0  0
 51127  1  0  0  0
 51128  1  0  0  0
 52129  1  0  0  0
 52130  1  0  0  0
 53 54  1  0  0  0
 54 55  2  0  0  0
 54131  1  0  0  0
 55 57  1  0  0  0
 55132  1  0  0  0
 56 69  2  0  0  0
 57 58  2  0  0  0
 57133  1  0  0  0
 58134  1  0  0  0
 59 60  1  0  0  0
 59 61  1  0  0  0
 59 62  1  0  0  0
 60135  1  0  0  0
 60136  1  0  0  0
 60137  1  0  0  0
 61138  1  0  0  0
 61139  1  0  0  0
 61140  1  0  0  0
 62141  1  0  0  0
 62142  1  0  0  0
 62143  1  0  0  0
 63 65  1  0  0  0
 63144  1  0  0  0
 63145  1  0  0  0
 63146  1  0  0  0
 64147  1  0  0  0
 65148  1  0  0  0
 68 85  1  0  0  0
 71 73  2  0  0  0
 71 75  1  0  0  0
 71149  1  0  0  0
 72 75  2  0  0  0
 72 76  1  0  0  0
 72150  1  0  0  0
 73 74  1  0  0  0
 73 81  1  0  0  0
 74 76  2  0  0  0
 74 84  1  0  0  0
 75 86  1  0  0  0
 76 89  1  0  0  0
 77 78  1  0  0  0
 77 86  1  0  0  0
 77 88  2  0  0  0
 78 79  1  0  0  0
 78151  1  0  0  0
 78152  1  0  0  0
 79 80  1  0  0  0
 79153  1  0  0  0
 79154  1  0  0  0
 80 85  1  0  0  0
 80 86  1  0  0  0
 80155  1  0  0  0
 81156  1  0  0  0
 81157  1  0  0  0
 81158  1  0  0  0
 82 87  1  0  0  0
 82159  1  0  0  0
 82160  1  0  0  0
 82161  1  0  0  0
 83 89  1  0  0  0
 83162  1  0  0  0
 83163  1  0  0  0
 83164  1  0  0  0
 84 87  1  0  0  0
 84165  1  0  0  0
 84166  1  0  0  0
 85167  1  0  0  0
 85168  1  0  0  0
M  ISO  4   1 100  68 101  85 101  87 100
M  END
> <chiral flag>
0

> <version>
0

> <s_m_source_file>
/data/baiqing/PycharmProjects/Reinvent-master-3.2/result/LINK_invent/BTK/process_docking_weight1_custom_product_contain_oxygen_bond_distance_aromatic_linkinvent_7_9_3/rearranged_h_0103.sdf

> <i_m_source_file_index>
39

> <r_mmod_Potential_Energy-OPLS-2005>
352.593719482422

> <r_mmod_Stretch_Energy-OPLS-2005>
104.684944152832

> <r_mmod_Bend_Energy-OPLS-2005>
201.506927490234

> <r_mmod_Torsional_Energy-OPLS-2005>
352.701568603516

> <r_mmod_Improper_Torsional_Energy-OPLS-2005>
12.1514482498169

> <r_mmod_Van_der_Waal_Energy-OPLS-2005>
162.631683349609

> <r_mmod_Electrostatic_Energy-OPLS-2005>
-320.809143066406

> <r_mmod_Solvation_Energy-OPLS-2005>
-207.078994750977

> <b_mmod_Minimization_Converged-OPLS-2005>
0

> <r_mmod_RMS_Derivative-OPLS-2005>
1.542436003685

$$$$
39
                    3D
 Structure written by MMmdl.
158167  0  0  1  0            999 V2000
  -30.5825  -14.9128   20.5206 C   0  0  0  0  0  0
  -30.4448  -12.5467   19.6015 C   0  0  0  0  0  0
  -29.5753  -12.5278   18.3201 C   0  0  0  0  0  0
  -28.0962  -12.2998   18.6983 C   0  0  0  0  0  0
  -27.6438  -13.2395   19.8518 C   0  0  2  0  0  0
  -28.6559  -13.2678   21.0193 C   0  0  0  0  0  0
  -25.2479  -13.8189   20.5740 C   0  0  0  0  0  0
  -24.1782  -13.0461   20.9281 C   0  0  0  0  0  0
  -24.6396  -11.6938   20.8765 C   0  0  0  0  0  0
  -23.9103  -10.4322   21.0458 C   0  0  0  0  0  0
  -24.3650   -9.4217   21.9247 C   0  0  0  0  0  0
  -23.6350   -8.2226   22.0752 C   0  0  0  0  0  0
  -22.4318   -8.0301   21.3526 C   0  0  0  0  0  0
  -21.9962   -9.0296   20.4630 C   0  0  0  0  0  0
  -22.7284  -10.2184   20.3087 C   0  0  0  0  0  0
  -21.6887   -6.0745   22.5239 C   0  0  0  0  0  0
  -21.4067   -6.5629   23.8186 C   0  0  0  0  0  0
  -21.3648   -5.6753   24.9129 C   0  0  0  0  0  0
  -21.6048   -4.3019   24.7164 C   0  0  0  0  0  0
  -21.8827   -3.8128   23.4278 C   0  0  0  0  0  0
  -21.9205   -4.6967   22.3348 C   0  0  0  0  0  0
  -22.7789  -13.5229   21.1967 C   0  0  0  0  0  0
  -22.1655   -4.2144   21.0929 F   0  0  0  0  0  0
  -21.5640   -3.4497   25.7674 F   0  0  0  0  0  0
  -29.9650  -13.6594   20.4701 N   0  0  0  0  0  0
  -26.2931  -12.9443   20.3252 N   0  0  0  0  0  0
  -25.9320  -11.6574   20.5707 N   0  0  0  0  0  0
  -22.0417  -12.8224   22.0499 N   0  0  0  0  0  0
  -25.4189  -15.1933   20.4192 N   0  0  0  0  0  0
  -31.7122  -15.0086   20.0186 O   0  0  0  0  0  0
  -21.6693   -6.8885   21.4200 O   0  0  0  0  0  0
  -22.3506  -14.5575   20.6849 O   0  0  0  0  0  0
  -24.6431  -31.8447   23.1967 C   0  0  0  0  0  0
  -25.9239  -32.4681   23.8366 C   0  0  1  0  0  0
  -27.1829  -27.1113   20.1517 C   0  0  0  0  0  0
  -25.6039  -33.8509   24.2300 N   0  0  0  0  0  0
  -23.4472  -30.4729   21.5269 C   0  0  2  0  0  0
  -24.8895  -28.8962   20.0974 C   0  0  0  0  0  0
  -22.7541  -29.4580   22.4707 C   0  0  0  0  0  0
  -18.0348  -28.1304   22.8468 C   0  0  0  0  0  0
  -24.1458  -36.7121   23.2657 C   0  0  0  0  0  0
  -26.0069  -30.6981   21.4179 C   0  0  0  0  0  0
  -26.0641  -29.3215   20.7281 C   0  0  0  0  0  0
  -27.2070  -28.4387   20.7492 C   0  0  0  0  0  0
  -25.9884  -26.7867   19.4795 C   0  0  0  0  0  0
  -24.8687  -27.6440   19.4580 C   0  0  0  0  0  0
  -23.6778  -29.8149   20.1388 C   0  0  0  0  0  0
  -25.4140  -36.3051   24.0377 C   0  0  1  0  0  0
  -20.5966  -28.3723   23.1080 C   0  0  2  0  0  0
  -20.6804  -26.9393   22.5318 C   0  0  0  0  0  0
  -19.5758  -26.6310   21.5138 C   0  0  0  0  0  0
  -18.1963  -26.7858   22.1593 C   0  0  0  0  0  0
  -19.1628  -28.8824   23.2755 C   0  0  0  0  0  0
  -18.9555  -30.1415   23.8787 C   0  0  0  0  0  0
  -17.6586  -30.6516   24.0527 C   0  0  0  0  0  0
  -25.9128  -34.9418   23.5150 C   0  0  0  0  0  0
  -16.5452  -29.9031   23.6272 C   0  0  0  0  0  0
  -16.7366  -28.6396   23.0355 C   0  0  0  0  0  0
  -26.4625  -31.6606   25.0830 C   0  0  0  0  0  0
  -25.3813  -31.3717   26.1485 C   0  0  0  0  0  0
  -27.0602  -30.2995   24.6598 C   0  0  0  0  0  0
  -27.6186  -32.4434   25.7506 C   0  0  0  0  0  0
  -27.5566  -37.1724   24.8501 C   0  0  0  0  0  0
  -21.4257  -29.3060   22.3420 N   0  0  0  0  0  0
  -26.4270  -37.3780   23.9475 N   0  0  0  0  0  0
  -24.7152  -31.0294   22.0981 N   0  0  0  0  0  0
  -23.4167  -28.8113   23.2855 O   0  0  0  0  0  0
  -28.2207  -26.1244   20.2928 O   0  0  0  0  0  0
  -26.5612  -34.8913   22.4675 O   0  0  0  0  0  0
  -23.5545  -32.1376   23.7160 O   0  0  0  0  0  0
  -29.2183  -19.7920   22.0643 C   0  0  0  0  0  0
  -29.0375  -19.6951   19.7430 C   0  0  0  0  0  0
  -29.5737  -18.3975   22.1099 C   0  0  0  0  0  0
  -29.3480  -18.2482   19.7982 C   0  0  0  0  0  0
  -28.9561  -20.5836   20.8869 C   0  0  0  0  0  0
  -29.6839  -17.4989   21.0003 C   0  0  0  0  0  0
  -28.5128  -22.6768   22.2222 C   0  0  0  0  0  0
  -27.2427  -23.5214   22.3593 C   0  0  0  0  0  0
  -26.5684  -23.3516   20.9978 C   0  0  0  0  0  0
  -27.8067  -23.1369   20.1316 C   0  0  2  0  0  0
  -30.2002  -15.6563   22.6871 C   0  0  0  0  0  0
  -28.3083  -24.6964   19.6718 C   0  0  0  0  0  0
  -28.6404  -22.1187   20.9902 N   0  0  0  0  0  0
  -30.0044  -15.9895   21.2559 N   0  0  0  0  0  0
  -29.3132  -22.5817   23.1557 O   0  0  0  0  0  0
  -31.5088  -12.6384   19.3737 H   0  0  0  0  0  0
  -30.3533  -11.6049   20.1459 H   0  0  0  0  0  0
  -29.9398  -11.7549   17.6414 H   0  0  0  0  0  0
  -29.6776  -13.4811   17.7979 H   0  0  0  0  0  0
  -27.9935  -11.2599   19.0128 H   0  0  0  0  0  0
  -27.4543  -12.4174   17.8271 H   0  0  0  0  0  0
  -27.6191  -14.2388   19.4229 H   0  0  0  0  0  0
  -28.7090  -12.2929   21.5099 H   0  0  0  0  0  0
  -28.3207  -13.9690   21.7845 H   0  0  0  0  0  0
  -25.2775   -9.5700   22.4873 H   0  0  0  0  0  0
  -24.0048   -7.4582   22.7433 H   0  0  0  0  0  0
  -21.0929   -8.8856   19.8917 H   0  0  0  0  0  0
  -22.3784  -10.9779   19.6222 H   0  0  0  0  0  0
  -21.2119   -7.6143   23.9693 H   0  0  0  0  0  0
  -21.1480   -6.0482   25.9032 H   0  0  0  0  0  0
  -22.0648   -2.7600   23.2767 H   0  0  0  0  0  0
  -22.3982  -11.9882   22.4944 H   0  0  0  0  0  0
  -21.1027  -13.1249   22.2641 H   0  0  0  0  0  0
  -24.6662  -15.8528   20.5830 H   0  0  0  0  0  0
  -26.2743  -15.6389   20.1104 H   0  0  0  0  0  0
  -26.7291  -32.5223   23.1055 H   0  0  0  0  0  0
  -25.0467  -33.9672   25.0641 H   0  0  0  0  0  0
  -22.7528  -31.2984   21.3730 H   0  0  0  0  0  0
  -23.3887  -35.9264   23.3356 H   0  0  0  0  0  0
  -24.3470  -36.8682   22.2034 H   0  0  0  0  0  0
  -23.7001  -37.6262   23.6622 H   0  0  0  0  0  0
  -26.2224  -31.4818   20.6935 H   0  0  0  0  0  0
  -26.8443  -30.6884   22.1042 H   0  0  0  0  0  0
  -28.0887  -28.7481   21.2905 H   0  0  0  0  0  0
  -25.8677  -25.8195   19.0133 H   0  0  0  0  0  0
  -23.9664  -27.3066   18.9673 H   0  0  0  0  0  0
  -23.8362  -30.5957   19.3947 H   0  0  0  0  0  0
  -22.7873  -29.2744   19.8114 H   0  0  0  0  0  0
  -25.1310  -36.1926   25.0862 H   0  0  0  0  0  0
  -21.0151  -28.3340   24.1174 H   0  0  0  0  0  0
  -20.5582  -26.2399   23.3583 H   0  0  0  0  0  0
  -21.6656  -26.7221   22.1186 H   0  0  0  0  0  0
  -19.6903  -25.6190   21.1187 H   0  0  0  0  0  0
  -19.6639  -27.3060   20.6612 H   0  0  0  0  0  0
  -17.4210  -26.6618   21.4018 H   0  0  0  0  0  0
  -18.0382  -25.9959   22.8964 H   0  0  0  0  0  0
  -19.8078  -30.7223   24.2075 H   0  0  0  0  0  0
  -17.5157  -31.6183   24.5143 H   0  0  0  0  0  0
  -15.5447  -30.2937   23.7569 H   0  0  0  0  0  0
  -15.8773  -28.0650   22.7178 H   0  0  0  0  0  0
  -24.5987  -30.7130   25.7716 H   0  0  0  0  0  0
  -24.9040  -32.2859   26.5014 H   0  0  0  0  0  0
  -25.8083  -30.8740   27.0209 H   0  0  0  0  0  0
  -26.3338  -29.6554   24.1633 H   0  0  0  0  0  0
  -27.4188  -29.7434   25.5296 H   0  0  0  0  0  0
  -27.9234  -30.4240   24.0041 H   0  0  0  0  0  0
  -27.2872  -33.3810   26.1956 H   0  0  0  0  0  0
  -28.3954  -32.6891   25.0262 H   0  0  0  0  0  0
  -28.0932  -31.8687   26.5452 H   0  0  0  0  0  0
  -28.2646  -37.9984   24.7649 H   0  0  0  0  0  0
  -28.1006  -36.2534   24.6281 H   0  0  0  0  0  0
  -27.2214  -37.1288   25.8874 H   0  0  0  0  0  0
  -20.9447  -29.8853   21.6670 H   0  0  0  0  0  0
  -26.0184  -38.2827   24.1633 H   0  0  0  0  0  0
  -29.1343  -20.2311   23.0440 H   0  0  0  0  0  0
  -28.8341  -20.1141   18.7655 H   0  0  0  0  0  0
  -29.7457  -18.0352   23.1089 H   0  0  0  0  0  0
  -29.2863  -17.7098   18.8641 H   0  0  0  0  0  0
  -27.5204  -24.5591   22.5473 H   0  0  0  0  0  0
  -26.6159  -23.1843   23.1838 H   0  0  0  0  0  0
  -25.9639  -24.2076   20.7007 H   0  0  0  0  0  0
  -25.9091  -22.4819   20.9780 H   0  0  0  0  0  0
  -27.5269  -22.5971   19.2220 H   0  0  0  0  0  0
  -29.2615  -15.7477   23.2339 H   0  0  0  0  0  0
  -30.9432  -16.3091   23.1471 H   0  0  0  0  0  0
  -30.5663  -14.6475   22.9101 H   0  0  0  0  0  0
  -27.8501  -24.8187   18.6899 H   0  0  0  0  0  0
  -29.3676  -24.6001   19.4357 H   0  0  0  0  0  0
  1 25  1  0  0  0
  1 30  2  0  0  0
  1 84  1  0  0  0
  2  3  1  0  0  0
  2 25  1  0  0  0
  2 86  1  0  0  0
  2 87  1  0  0  0
  3  4  1  0  0  0
  3 88  1  0  0  0
  3 89  1  0  0  0
  4  5  1  0  0  0
  4 90  1  0  0  0
  4 91  1  0  0  0
  5  6  1  0  0  0
  5 26  1  0  0  0
  5 92  1  0  0  0
  6 25  1  0  0  0
  6 93  1  0  0  0
  6 94  1  0  0  0
  7  8  2  0  0  0
  7 26  1  0  0  0
  7 29  1  0  0  0
  8  9  1  0  0  0
  8 22  1  0  0  0
  9 10  1  0  0  0
  9 27  2  0  0  0
 10 11  2  0  0  0
 10 15  1  0  0  0
 11 12  1  0  0  0
 11 95  1  0  0  0
 12 13  2  0  0  0
 12 96  1  0  0  0
 13 14  1  0  0  0
 13 31  1  0  0  0
 14 15  2  0  0  0
 14 97  1  0  0  0
 15 98  1  0  0  0
 16 17  2  0  0  0
 16 21  1  0  0  0
 16 31  1  0  0  0
 17 18  1  0  0  0
 17 99  1  0  0  0
 18 19  2  0  0  0
 18100  1  0  0  0
 19 20  1  0  0  0
 19 24  1  0  0  0
 20 21  2  0  0  0
 20101  1  0  0  0
 21 23  1  0  0  0
 22 28  1  0  0  0
 22 32  2  0  0  0
 26 27  1  0  0  0
 28102  1  0  0  0
 28103  1  0  0  0
 29104  1  0  0  0
 29105  1  0  0  0
 33 34  1  0  0  0
 33 66  1  0  0  0
 33 70  2  0  0  0
 34 36  1  0  0  0
 34 59  1  0  0  0
 34106  1  0  0  0
 35 44  2  0  0  0
 35 45  1  0  0  0
 35 68  1  0  0  0
 36 56  1  0  0  0
 36107  1  0  0  0
 37 39  1  0  0  0
 37 47  1  0  0  0
 37 66  1  0  0  0
 37108  1  0  0  0
 38 43  2  0  0  0
 38 46  1  0  0  0
 38 47  1  0  0  0
 39 64  1  0  0  0
 39 67  2  0  0  0
 40 52  1  0  0  0
 40 53  2  0  0  0
 40 58  1  0  0  0
 41109  1  0  0  0
 41110  1  0  0  0
 41111  1  0  0  0
 41 48  1  0  0  0
 42 43  1  0  0  0
 42 66  1  0  0  0
 42112  1  0  0  0
 42113  1  0  0  0
 43 44  1  0  0  0
 44114  1  0  0  0
 45 46  2  0  0  0
 45115  1  0  0  0
 46116  1  0  0  0
 47117  1  0  0  0
 47118  1  0  0  0
 48 56  1  0  0  0
 48 65  1  0  0  0
 48119  1  0  0  0
 49 50  1  0  0  0
 49 53  1  0  0  0
 49 64  1  0  0  0
 49120  1  0  0  0
 50 51  1  0  0  0
 50121  1  0  0  0
 50122  1  0  0  0
 51 52  1  0  0  0
 51123  1  0  0  0
 51124  1  0  0  0
 52125  1  0  0  0
 52126  1  0  0  0
 53 54  1  0  0  0
 54 55  2  0  0  0
 54127  1  0  0  0
 55 57  1  0  0  0
 55128  1  0  0  0
 56 69  2  0  0  0
 57 58  2  0  0  0
 57129  1  0  0  0
 58130  1  0  0  0
 59 60  1  0  0  0
 59 61  1  0  0  0
 59 62  1  0  0  0
 60131  1  0  0  0
 60132  1  0  0  0
 60133  1  0  0  0
 61134  1  0  0  0
 61135  1  0  0  0
 61136  1  0  0  0
 62137  1  0  0  0
 62138  1  0  0  0
 62139  1  0  0  0
 63 65  1  0  0  0
 63140  1  0  0  0
 63141  1  0  0  0
 63142  1  0  0  0
 64143  1  0  0  0
 65144  1  0  0  0
 68 82  1  0  0  0
 71 73  2  0  0  0
 71 75  1  0  0  0
 71145  1  0  0  0
 72 74  1  0  0  0
 72 75  2  0  0  0
 72146  1  0  0  0
 73 76  1  0  0  0
 73147  1  0  0  0
 74 76  2  0  0  0
 74148  1  0  0  0
 75 83  1  0  0  0
 76 84  1  0  0  0
 77 78  1  0  0  0
 77 83  1  0  0  0
 77 85  2  0  0  0
 78 79  1  0  0  0
 78149  1  0  0  0
 78150  1  0  0  0
 79 80  1  0  0  0
 79151  1  0  0  0
 79152  1  0  0  0
 80 82  1  0  0  0
 80 83  1  0  0  0
 80153  1  0  0  0
 81 84  1  0  0  0
 81154  1  0  0  0
 81155  1  0  0  0
 81156  1  0  0  0
 82157  1  0  0  0
 82158  1  0  0  0
M  ISO  4   1 100  68 101  82 101  84 100
M  END
> <chiral flag>
0

> <version>
0

> <s_m_source_file>
/data/baiqing/PycharmProjects/Reinvent-master-3.2/result/LINK_invent/BTK/process_docking_weight1_custom_product_contain_oxygen_bond_distance_aromatic_linkinvent_7_9_3/rearranged_h_0103.sdf

> <i_m_source_file_index>
40

> <r_mmod_Potential_Energy-OPLS-2005>
904.963195800781

> <r_mmod_Stretch_Energy-OPLS-2005>
281.045989990234

> <r_mmod_Bend_Energy-OPLS-2005>
406.035522460938

> <r_mmod_Torsional_Energy-OPLS-2005>
352.921020507812

> <r_mmod_Improper_Torsional_Energy-OPLS-2005>
6.63455057144165

> <r_mmod_Van_der_Waal_Energy-OPLS-2005>
152.98486328125

> <r_mmod_Electrostatic_Energy-OPLS-2005>
-285.306640625

> <r_mmod_Solvation_Energy-OPLS-2005>
-207.217590332031

> <b_mmod_Minimization_Converged-OPLS-2005>
0

> <r_mmod_RMS_Derivative-OPLS-2005>
9.53279876708984

$$$$
40
                    3D
 Structure written by MMmdl.
163172  0  0  1  0            999 V2000
  -30.5975  -14.7370   20.5161 C   0  0  0  0  0  0
  -30.4540  -12.4789   19.4184 C   0  0  0  0  0  0
  -29.4818  -12.5007   18.2123 C   0  0  0  0  0  0
  -28.0294  -12.2270   18.6619 C   0  0  0  0  0  0
  -27.6423  -13.1202   19.8553 C   0  0  2  0  0  0
  -28.7202  -13.0129   20.9724 C   0  0  0  0  0  0
  -25.2495  -13.7890   20.5540 C   0  0  0  0  0  0
  -24.1738  -13.0263   20.9240 C   0  0  0  0  0  0
  -24.6281  -11.6751   20.8906 C   0  0  0  0  0  0
  -23.8952  -10.4204   21.0553 C   0  0  0  0  0  0
  -24.3541   -9.4126   21.9292 C   0  0  0  0  0  0
  -23.6220   -8.2165   22.0797 C   0  0  0  0  0  0
  -22.4208   -8.0255   21.3566 C   0  0  0  0  0  0
  -21.9856   -9.0215   20.4649 C   0  0  0  0  0  0
  -22.7189  -10.2093   20.3111 C   0  0  0  0  0  0
  -21.6837   -6.0716   22.5274 C   0  0  0  0  0  0
  -21.4041   -6.5638   23.8213 C   0  0  0  0  0  0
  -21.3660   -5.6783   24.9170 C   0  0  0  0  0  0
  -21.6028   -4.3044   24.7218 C   0  0  0  0  0  0
  -21.8804   -3.8140   23.4345 C   0  0  0  0  0  0
  -21.9171   -4.6947   22.3404 C   0  0  0  0  0  0
  -22.7801  -13.5173   21.1912 C   0  0  0  0  0  0
  -22.1653   -4.2151   21.0973 F   0  0  0  0  0  0
  -21.5603   -3.4530   25.7728 F   0  0  0  0  0  0
  -29.9786  -13.4987   20.3888 N   0  0  0  0  0  0
  -26.2897  -12.8894   20.3349 N   0  0  0  0  0  0
  -25.9171  -11.6198   20.5928 N   0  0  0  0  0  0
  -22.0442  -12.8171   22.0503 N   0  0  0  0  0  0
  -25.3926  -15.1589   20.3618 N   0  0  0  0  0  0
  -31.8065  -14.8028   20.2693 O   0  0  0  0  0  0
  -21.6589   -6.8858   21.4234 O   0  0  0  0  0  0
  -22.3492  -14.5475   20.6752 O   0  0  0  0  0  0
  -24.6189  -31.8621   23.2050 C   0  0  0  0  0  0
  -25.9090  -32.4793   23.8339 C   0  0  1  0  0  0
  -27.2156  -27.3390   20.1541 C   0  0  0  0  0  0
  -25.5914  -33.8609   24.2278 N   0  0  0  0  0  0
  -23.4140  -30.4778   21.5433 C   0  0  2  0  0  0
  -24.8643  -28.9421   20.1131 C   0  0  0  0  0  0
  -22.7437  -29.4594   22.4925 C   0  0  0  0  0  0
  -18.0277  -28.1367   22.8491 C   0  0  0  0  0  0
  -24.1486  -36.7307   23.2625 C   0  0  0  0  0  0
  -25.9477  -30.8088   21.3631 C   0  0  0  0  0  0
  -26.0293  -29.4344   20.7170 C   0  0  0  0  0  0
  -27.2154  -28.6495   20.7152 C   0  0  0  0  0  0
  -26.0346  -26.8875   19.5268 C   0  0  0  0  0  0
  -24.8700  -27.6773   19.5031 C   0  0  0  0  0  0
  -23.6283  -29.8149   20.1574 C   0  0  0  0  0  0
  -25.4124  -36.3109   24.0291 C   0  0  1  0  0  0
  -20.5861  -28.3667   23.1314 C   0  0  2  0  0  0
  -20.6762  -26.9398   22.5418 C   0  0  0  0  0  0
  -19.5739  -26.6366   21.5222 C   0  0  0  0  0  0
  -18.1919  -26.7906   22.1643 C   0  0  0  0  0  0
  -19.1516  -28.8845   23.2898 C   0  0  0  0  0  0
  -18.9437  -30.1438   23.8901 C   0  0  0  0  0  0
  -17.6437  -30.6577   24.0548 C   0  0  0  0  0  0
  -25.9056  -34.9467   23.5096 C   0  0  0  0  0  0
  -16.5344  -29.9053   23.6328 C   0  0  0  0  0  0
  -16.7264  -28.6480   23.0360 C   0  0  0  0  0  0
  -26.4507  -31.6584   25.0681 C   0  0  0  0  0  0
  -25.3723  -31.3730   26.1379 C   0  0  0  0  0  0
  -27.0271  -30.2975   24.6107 C   0  0  0  0  0  0
  -27.6042  -32.4319   25.7495 C   0  0  0  0  0  0
  -27.5591  -37.1832   24.8487 C   0  0  0  0  0  0
  -21.4163  -29.3031   22.3732 N   0  0  0  0  0  0
  -26.4323  -37.3780   23.9393 N   0  0  0  0  0  0
  -24.6783  -31.0662   22.0975 N   0  0  0  0  0  0
  -23.4183  -28.8121   23.2989 O   0  0  0  0  0  0
  -28.3347  -26.5121   20.1906 O   0  0  0  0  0  0
  -26.5626  -34.8922   22.4662 O   0  0  0  0  0  0
  -23.5366  -32.1442   23.7401 O   0  0  0  0  0  0
  -29.9421  -19.6268   21.4957 C   0  0  0  0  0  0
  -30.0201  -18.2112   21.6504 C   0  0  0  0  0  0
  -30.5257  -19.3578   19.1820 C   0  0  0  0  0  0
  -30.6265  -17.9390   19.3312 C   0  0  0  0  0  0
  -30.1726  -20.2494   20.2421 C   0  0  0  0  0  0
  -30.3120  -17.3145   20.5761 C   0  0  0  0  0  0
  -31.3450  -22.2575   19.5958 C   0  0  0  0  0  0
  -29.0608  -22.5349   20.2467 C   0  0  0  0  0  0
  -31.4026  -23.6732   19.0116 C   0  0  0  0  0  0
  -30.4577  -24.6349   19.7108 C   0  0  0  0  0  0
  -29.0418  -24.0698   19.8114 C   0  0  2  0  0  0
  -31.0653  -17.1418   18.1081 C   0  0  0  0  0  0
  -28.3815  -16.0104   20.7648 C   0  0  0  0  0  0
  -28.1685  -25.1055   20.6227 C   0  0  0  0  0  0
  -30.1718  -21.7200   20.0443 N   0  0  0  0  0  0
  -29.8494  -15.9213   20.6891 N   0  0  0  0  0  0
  -32.4178  -21.6428   19.6385 O   0  0  0  0  0  0
  -28.0238  -22.0830   20.7484 O   0  0  0  0  0  0
  -31.4735  -12.6697   19.0735 H   0  0  0  0  0  0
  -30.4884  -11.4890   19.8805 H   0  0  0  0  0  0
  -29.7803  -11.7793   17.4516 H   0  0  0  0  0  0
  -29.5314  -13.4814   17.7327 H   0  0  0  0  0  0
  -27.9428  -11.1781   18.9515 H   0  0  0  0  0  0
  -27.3340  -12.3732   17.8372 H   0  0  0  0  0  0
  -27.6177  -14.0881   19.3870 H   0  0  0  0  0  0
  -28.8268  -11.9692   21.2700 H   0  0  0  0  0  0
  -28.4887  -13.5036   21.9133 H   0  0  0  0  0  0
  -25.2687   -9.5586   22.4900 H   0  0  0  0  0  0
  -23.9940   -7.4515   22.7483 H   0  0  0  0  0  0
  -21.0830   -8.8728   19.8892 H   0  0  0  0  0  0
  -22.3717  -10.9657   19.6230 H   0  0  0  0  0  0
  -21.2112   -7.6163   23.9744 H   0  0  0  0  0  0
  -21.1489   -6.0513   25.9076 H   0  0  0  0  0  0
  -22.0594   -2.7608   23.2819 H   0  0  0  0  0  0
  -22.4018  -11.9783   22.4823 H   0  0  0  0  0  0
  -21.1115  -13.1241   22.2824 H   0  0  0  0  0  0
  -24.5901  -15.7770   20.4162 H   0  0  0  0  0  0
  -26.2043  -15.6001   19.9517 H   0  0  0  0  0  0
  -26.7136  -32.5448   23.1053 H   0  0  0  0  0  0
  -25.0052  -33.9790   25.0422 H   0  0  0  0  0  0
  -22.7077  -31.2940   21.3984 H   0  0  0  0  0  0
  -23.3738  -35.9660   23.3375 H   0  0  0  0  0  0
  -24.3569  -36.8861   22.2032 H   0  0  0  0  0  0
  -23.7272  -37.6537   23.6609 H   0  0  0  0  0  0
  -26.0742  -31.5748   20.5954 H   0  0  0  0  0  0
  -26.8307  -30.8586   21.9858 H   0  0  0  0  0  0
  -28.1186  -29.0296   21.1762 H   0  0  0  0  0  0
  -26.0134  -25.9116   19.0618 H   0  0  0  0  0  0
  -23.9760  -27.3006   19.0255 H   0  0  0  0  0  0
  -23.7408  -30.5912   19.3963 H   0  0  0  0  0  0
  -22.7516  -29.2344   19.8647 H   0  0  0  0  0  0
  -25.1333  -36.1955   25.0778 H   0  0  0  0  0  0
  -20.9965  -28.3201   24.1428 H   0  0  0  0  0  0
  -20.5684  -26.2253   23.3590 H   0  0  0  0  0  0
  -21.6621  -26.7415   22.1212 H   0  0  0  0  0  0
  -19.6908  -25.6287   21.1245 H   0  0  0  0  0  0
  -19.6681  -27.3171   20.6747 H   0  0  0  0  0  0
  -17.4198  -26.6656   21.4043 H   0  0  0  0  0  0
  -18.0317  -26.0025   22.9026 H   0  0  0  0  0  0
  -19.7907  -30.7246   24.2281 H   0  0  0  0  0  0
  -17.4994  -31.6259   24.5139 H   0  0  0  0  0  0
  -15.5355  -30.2964   23.7637 H   0  0  0  0  0  0
  -15.8662  -28.0791   22.7082 H   0  0  0  0  0  0
  -24.5929  -30.7039   25.7755 H   0  0  0  0  0  0
  -24.8839  -32.2853   26.4779 H   0  0  0  0  0  0
  -25.8002  -30.8968   27.0185 H   0  0  0  0  0  0
  -26.2762  -29.6796   24.1127 H   0  0  0  0  0  0
  -27.3944  -29.7203   25.4614 H   0  0  0  0  0  0
  -27.8696  -30.4287   23.9299 H   0  0  0  0  0  0
  -27.2638  -33.3628   26.2056 H   0  0  0  0  0  0
  -28.3861  -32.6859   25.0336 H   0  0  0  0  0  0
  -28.0651  -31.8419   26.5427 H   0  0  0  0  0  0
  -28.2662  -38.0083   24.7445 H   0  0  0  0  0  0
  -28.1015  -36.2592   24.6415 H   0  0  0  0  0  0
  -27.2266  -37.1614   25.8882 H   0  0  0  0  0  0
  -20.9334  -29.8773   21.6972 H   0  0  0  0  0  0
  -26.0206  -38.2867   24.1330 H   0  0  0  0  0  0
  -29.6813  -20.2328   22.3509 H   0  0  0  0  0  0
  -29.7086  -17.8027   22.6005 H   0  0  0  0  0  0
  -30.7342  -19.7757   18.2041 H   0  0  0  0  0  0
  -31.1649  -23.6121   17.9487 H   0  0  0  0  0  0
  -32.4223  -24.0577   19.0816 H   0  0  0  0  0  0
  -30.4403  -25.5728   19.1537 H   0  0  0  0  0  0
  -30.8361  -24.8763   20.7023 H   0  0  0  0  0  0
  -28.6068  -24.0729   18.8123 H   0  0  0  0  0  0
  -32.1572  -17.1589   18.0456 H   0  0  0  0  0  0
  -30.6763  -17.5940   17.1967 H   0  0  0  0  0  0
  -30.7337  -16.1059   18.1072 H   0  0  0  0  0  0
  -27.9948  -16.9415   21.1752 H   0  0  0  0  0  0
  -27.8763  -15.3084   21.4069 H   0  0  0  0  0  0
  -28.0082  -16.0143   19.7428 H   0  0  0  0  0  0
  -28.4709  -25.0615   21.6692 H   0  0  0  0  0  0
  -27.1275  -24.7818   20.6414 H   0  0  0  0  0  0
  1 25  1  0  0  0
  1 30  2  0  0  0
  1 86  1  0  0  0
  2  3  1  0  0  0
  2 25  1  0  0  0
  2 89  1  0  0  0
  2 90  1  0  0  0
  3  4  1  0  0  0
  3 91  1  0  0  0
  3 92  1  0  0  0
  4  5  1  0  0  0
  4 93  1  0  0  0
  4 94  1  0  0  0
  5  6  1  0  0  0
  5 26  1  0  0  0
  5 95  1  0  0  0
  6 25  1  0  0  0
  6 96  1  0  0  0
  6 97  1  0  0  0
  7  8  2  0  0  0
  7 26  1  0  0  0
  7 29  1  0  0  0
  8  9  1  0  0  0
  8 22  1  0  0  0
  9 10  1  0  0  0
  9 27  2  0  0  0
 10 11  2  0  0  0
 10 15  1  0  0  0
 11 12  1  0  0  0
 11 98  1  0  0  0
 12 13  2  0  0  0
 12 99  1  0  0  0
 13 14  1  0  0  0
 13 31  1  0  0  0
 14 15  2  0  0  0
 14100  1  0  0  0
 15101  1  0  0  0
 16 17  2  0  0  0
 16 21  1  0  0  0
 16 31  1  0  0  0
 17 18  1  0  0  0
 17102  1  0  0  0
 18 19  2  0  0  0
 18103  1  0  0  0
 19 20  1  0  0  0
 19 24  1  0  0  0
 20 21  2  0  0  0
 20104  1  0  0  0
 21 23  1  0  0  0
 22 28  1  0  0  0
 22 32  2  0  0  0
 26 27  1  0  0  0
 28105  1  0  0  0
 28106  1  0  0  0
 29107  1  0  0  0
 29108  1  0  0  0
 33 34  1  0  0  0
 33 66  1  0  0  0
 33 70  2  0  0  0
 34 36  1  0  0  0
 34 59  1  0  0  0
 34109  1  0  0  0
 35 44  2  0  0  0
 35 45  1  0  0  0
 35 68  1  0  0  0
 36 56  1  0  0  0
 36110  1  0  0  0
 37 39  1  0  0  0
 37 47  1  0  0  0
 37 66  1  0  0  0
 37111  1  0  0  0
 38 43  2  0  0  0
 38 46  1  0  0  0
 38 47  1  0  0  0
 39 64  1  0  0  0
 39 67  2  0  0  0
 40 52  1  0  0  0
 40 53  2  0  0  0
 40 58  1  0  0  0
 41112  1  0  0  0
 41113  1  0  0  0
 41114  1  0  0  0
 41 48  1  0  0  0
 42 43  1  0  0  0
 42 66  1  0  0  0
 42115  1  0  0  0
 42116  1  0  0  0
 43 44  1  0  0  0
 44117  1  0  0  0
 45 46  2  0  0  0
 45118  1  0  0  0
 46119  1  0  0  0
 47120  1  0  0  0
 47121  1  0  0  0
 48 56  1  0  0  0
 48 65  1  0  0  0
 48122  1  0  0  0
 49 50  1  0  0  0
 49 53  1  0  0  0
 49 64  1  0  0  0
 49123  1  0  0  0
 50 51  1  0  0  0
 50124  1  0  0  0
 50125  1  0  0  0
 51 52  1  0  0  0
 51126  1  0  0  0
 51127  1  0  0  0
 52128  1  0  0  0
 52129  1  0  0  0
 53 54  1  0  0  0
 54 55  2  0  0  0
 54130  1  0  0  0
 55 57  1  0  0  0
 55131  1  0  0  0
 56 69  2  0  0  0
 57 58  2  0  0  0
 57132  1  0  0  0
 58133  1  0  0  0
 59 60  1  0  0  0
 59 61  1  0  0  0
 59 62  1  0  0  0
 60134  1  0  0  0
 60135  1  0  0  0
 60136  1  0  0  0
 61137  1  0  0  0
 61138  1  0  0  0
 61139  1  0  0  0
 62140  1  0  0  0
 62141  1  0  0  0
 62142  1  0  0  0
 63 65  1  0  0  0
 63143  1  0  0  0
 63144  1  0  0  0
 63145  1  0  0  0
 64146  1  0  0  0
 65147  1  0  0  0
 68 84  1  0  0  0
 71 72  2  0  0  0
 71 75  1  0  0  0
 71148  1  0  0  0
 72 76  1  0  0  0
 72149  1  0  0  0
 73 74  1  0  0  0
 73 75  2  0  0  0
 73150  1  0  0  0
 74 76  2  0  0  0
 74 82  1  0  0  0
 75 85  1  0  0  0
 76 86  1  0  0  0
 77 79  1  0  0  0
 77 85  1  0  0  0
 77 87  2  0  0  0
 78 81  1  0  0  0
 78 85  1  0  0  0
 78 88  2  0  0  0
 79 80  1  0  0  0
 79151  1  0  0  0
 79152  1  0  0  0
 80 81  1  0  0  0
 80153  1  0  0  0
 80154  1  0  0  0
 81 84  1  0  0  0
 81155  1  0  0  0
 82156  1  0  0  0
 82157  1  0  0  0
 82158  1  0  0  0
 83 86  1  0  0  0
 83159  1  0  0  0
 83160  1  0  0  0
 83161  1  0  0  0
 84162  1  0  0  0
 84163  1  0  0  0
M  ISO  4   1 100  68 101  84 101  86 100
M  END
> <chiral flag>
0

> <version>
0

> <s_m_source_file>
/data/baiqing/PycharmProjects/Reinvent-master-3.2/result/LINK_invent/BTK/process_docking_weight1_custom_product_contain_oxygen_bond_distance_aromatic_linkinvent_7_9_3/rearranged_h_0103.sdf

> <i_m_source_file_index>
41

> <r_mmod_Potential_Energy-OPLS-2005>
433.023529052734

> <r_mmod_Stretch_Energy-OPLS-2005>
104.090057373047

> <r_mmod_Bend_Energy-OPLS-2005>
188.667358398438

> <r_mmod_Torsional_Energy-OPLS-2005>
379.325988769531

> <r_mmod_Improper_Torsional_Energy-OPLS-2005>
10.7633924484253

> <r_mmod_Van_der_Waal_Energy-OPLS-2005>
195.053161621094

> <r_mmod_Electrostatic_Energy-OPLS-2005>
-293.093566894531

> <r_mmod_Solvation_Energy-OPLS-2005>
-219.678573608398

> <b_mmod_Minimization_Converged-OPLS-2005>
0

> <r_mmod_RMS_Derivative-OPLS-2005>
6.75239372253418

$$$$
41
                    3D
 Structure written by MMmdl.
163171  0  0  1  0            999 V2000
  -30.8029  -14.3333   20.6836 C   0  0  0  0  0  0
  -30.3938  -12.2742   19.4007 C   0  0  0  0  0  0
  -29.4741  -12.5219   18.1937 C   0  0  0  0  0  0
  -27.9993  -12.3819   18.6097 C   0  0  0  0  0  0
  -27.6600  -13.2081   19.8787 C   0  0  2  0  0  0
  -28.6962  -12.9719   20.9995 C   0  0  0  0  0  0
  -25.2561  -13.8174   20.5685 C   0  0  0  0  0  0
  -24.1816  -13.0442   20.9179 C   0  0  0  0  0  0
  -24.6374  -11.6914   20.8729 C   0  0  0  0  0  0
  -23.9046  -10.4298   21.0399 C   0  0  0  0  0  0
  -24.3606   -9.4223   21.9184 C   0  0  0  0  0  0
  -23.6293   -8.2249   22.0749 C   0  0  0  0  0  0
  -22.4275   -8.0279   21.3540 C   0  0  0  0  0  0
  -21.9905   -9.0249   20.4641 C   0  0  0  0  0  0
  -22.7219  -10.2136   20.3051 C   0  0  0  0  0  0
  -21.6855   -6.0738   22.5280 C   0  0  0  0  0  0
  -21.4016   -6.5642   23.8216 C   0  0  0  0  0  0
  -21.3665   -5.6793   24.9176 C   0  0  0  0  0  0
  -21.6038   -4.3055   24.7223 C   0  0  0  0  0  0
  -21.8820   -3.8149   23.4347 C   0  0  0  0  0  0
  -21.9199   -4.6966   22.3405 C   0  0  0  0  0  0
  -22.7842  -13.5240   21.1847 C   0  0  0  0  0  0
  -22.1662   -4.2153   21.0981 F   0  0  0  0  0  0
  -21.5630   -3.4539   25.7736 F   0  0  0  0  0  0
  -30.0384  -13.2367   20.4547 N   0  0  0  0  0  0
  -26.3003  -12.9354   20.3385 N   0  0  0  0  0  0
  -25.9302  -11.6515   20.5770 N   0  0  0  0  0  0
  -22.0487  -12.8227   22.0400 N   0  0  0  0  0  0
  -25.4291  -15.1888   20.4107 N   0  0  0  0  0  0
  -31.8290  -14.5664   20.0416 O   0  0  0  0  0  0
  -21.6639   -6.8878   21.4239 O   0  0  0  0  0  0
  -22.3538  -14.5561   20.6712 O   0  0  0  0  0  0
  -24.6128  -31.8702   23.2122 C   0  0  0  0  0  0
  -25.9036  -32.4823   23.8400 C   0  0  1  0  0  0
  -27.2313  -27.4521   20.0903 C   0  0  0  0  0  0
  -25.5900  -33.8622   24.2328 N   0  0  0  0  0  0
  -23.3982  -30.4959   21.5516 C   0  0  2  0  0  0
  -24.8422  -28.9664   20.1142 C   0  0  0  0  0  0
  -22.7402  -29.4686   22.5002 C   0  0  0  0  0  0
  -18.0277  -28.1385   22.8516 C   0  0  0  0  0  0
  -24.1488  -36.7318   23.2636 C   0  0  0  0  0  0
  -25.9258  -30.8398   21.3634 C   0  0  0  0  0  0
  -25.9990  -29.4756   20.7131 C   0  0  0  0  0  0
  -27.1921  -28.7233   20.7035 C   0  0  0  0  0  0
  -26.0578  -26.9628   19.4684 C   0  0  0  0  0  0
  -24.8648  -27.7076   19.4913 C   0  0  0  0  0  0
  -23.6044  -29.8308   20.1649 C   0  0  0  0  0  0
  -25.4106  -36.3118   24.0335 C   0  0  1  0  0  0
  -20.5866  -28.3652   23.1341 C   0  0  2  0  0  0
  -20.6777  -26.9390   22.5424 C   0  0  0  0  0  0
  -19.5740  -26.6392   21.5238 C   0  0  0  0  0  0
  -18.1921  -26.7946   22.1641 C   0  0  0  0  0  0
  -19.1531  -28.8837   23.2932 C   0  0  0  0  0  0
  -18.9448  -30.1458   23.8910 C   0  0  0  0  0  0
  -17.6448  -30.6583   24.0580 C   0  0  0  0  0  0
  -25.9029  -34.9480   23.5122 C   0  0  0  0  0  0
  -16.5341  -29.9088   23.6324 C   0  0  0  0  0  0
  -16.7271  -28.6522   23.0325 C   0  0  0  0  0  0
  -26.4472  -31.6609   25.0733 C   0  0  0  0  0  0
  -25.3741  -31.3706   26.1477 C   0  0  0  0  0  0
  -27.0285  -30.3051   24.6087 C   0  0  0  0  0  0
  -27.6050  -32.4332   25.7493 C   0  0  0  0  0  0
  -27.5576  -37.1818   24.8461 C   0  0  0  0  0  0
  -21.4131  -29.3035   22.3747 N   0  0  0  0  0  0
  -26.4295  -37.3803   23.9398 N   0  0  0  0  0  0
  -24.6631  -31.0841   22.0992 N   0  0  0  0  0  0
  -23.4202  -28.8227   23.3024 O   0  0  0  0  0  0
  -28.4227  -26.7610   20.1092 O   0  0  0  0  0  0
  -26.5597  -34.8939   22.4689 O   0  0  0  0  0  0
  -23.5329  -32.1423   23.7547 O   0  0  0  0  0  0
  -31.1515  -19.6406   21.1455 C   0  0  0  0  0  0
  -30.5364  -19.6240   23.4925 C   0  0  0  0  0  0
  -31.2749  -18.2379   21.1537 C   0  0  0  0  0  0
  -30.6491  -18.2148   23.5197 C   0  0  0  0  0  0
  -31.0507  -17.5035   22.3532 C   0  0  0  0  0  0
  -30.8253  -20.3385   22.3171 C   0  0  0  0  0  0
  -29.5126  -23.2230   20.8643 C   0  0  0  0  0  0
  -31.7126  -17.5852   19.8563 C   0  0  0  0  0  0
  -30.3813  -17.5114   24.8415 C   0  0  0  0  0  0
  -31.3606  -15.9986   22.4268 C   0  0  0  0  0  0
  -29.2925  -24.7248   21.0560 C   0  0  0  0  0  0
  -29.5210  -22.3328   22.1120 C   0  0  0  0  0  0
  -28.4101  -25.3381   19.9576 C   0  0  0  0  0  0
  -30.8383  -21.7335   22.3038 N   0  0  0  0  0  0
  -30.4434  -15.0990   21.7226 N   0  0  0  0  0  0
  -29.7654  -22.7428   19.7559 O   0  0  0  0  0  0
  -31.4399  -12.3399   19.0977 H   0  0  0  0  0  0
  -30.2634  -11.2574   19.7743 H   0  0  0  0  0  0
  -29.7052  -11.8207   17.3905 H   0  0  0  0  0  0
  -29.6511  -13.5209   17.7920 H   0  0  0  0  0  0
  -27.8015  -11.3243   18.7886 H   0  0  0  0  0  0
  -27.3472  -12.6763   17.7865 H   0  0  0  0  0  0
  -27.7126  -14.2601   19.5982 H   0  0  0  0  0  0
  -28.6489  -11.9388   21.3478 H   0  0  0  0  0  0
  -28.4515  -13.5830   21.8682 H   0  0  0  0  0  0
  -25.2757   -9.5709   22.4754 H   0  0  0  0  0  0
  -24.0012   -7.4644   22.7467 H   0  0  0  0  0  0
  -21.0845   -8.8765   19.8945 H   0  0  0  0  0  0
  -22.3681  -10.9674   19.6157 H   0  0  0  0  0  0
  -21.2007   -7.6151   23.9721 H   0  0  0  0  0  0
  -21.1479   -6.0520   25.9079 H   0  0  0  0  0  0
  -22.0598   -2.7612   23.2843 H   0  0  0  0  0  0
  -22.4102  -11.9873   22.4763 H   0  0  0  0  0  0
  -21.1102  -13.1246   22.2603 H   0  0  0  0  0  0
  -24.6679  -15.8485   20.5258 H   0  0  0  0  0  0
  -26.2914  -15.6290   20.1132 H   0  0  0  0  0  0
  -26.7098  -32.5526   23.1161 H   0  0  0  0  0  0
  -25.0098  -33.9800   25.0500 H   0  0  0  0  0  0
  -22.6859  -31.3133   21.4164 H   0  0  0  0  0  0
  -23.3753  -35.9651   23.3326 H   0  0  0  0  0  0
  -24.3589  -36.8904   22.2048 H   0  0  0  0  0  0
  -23.7254  -37.6535   23.6630 H   0  0  0  0  0  0
  -26.0407  -31.6054   20.5946 H   0  0  0  0  0  0
  -26.8141  -30.8910   21.9806 H   0  0  0  0  0  0
  -28.0846  -29.1140   21.1714 H   0  0  0  0  0  0
  -26.0443  -26.0204   18.9421 H   0  0  0  0  0  0
  -23.9755  -27.3198   19.0128 H   0  0  0  0  0  0
  -23.7150  -30.6071   19.4071 H   0  0  0  0  0  0
  -22.7283  -29.2519   19.8680 H   0  0  0  0  0  0
  -25.1301  -36.1984   25.0834 H   0  0  0  0  0  0
  -20.9952  -28.3188   24.1465 H   0  0  0  0  0  0
  -20.5713  -26.2230   23.3594 H   0  0  0  0  0  0
  -21.6641  -26.7459   22.1182 H   0  0  0  0  0  0
  -19.6872  -25.6323   21.1219 H   0  0  0  0  0  0
  -19.6676  -27.3249   20.6816 H   0  0  0  0  0  0
  -17.4201  -26.6725   21.4033 H   0  0  0  0  0  0
  -18.0290  -26.0089   22.9028 H   0  0  0  0  0  0
  -19.7919  -30.7293   24.2259 H   0  0  0  0  0  0
  -17.4997  -31.6262   24.5188 H   0  0  0  0  0  0
  -15.5340  -30.2979   23.7663 H   0  0  0  0  0  0
  -15.8684  -28.0859   22.6978 H   0  0  0  0  0  0
  -24.5927  -30.7033   25.7817 H   0  0  0  0  0  0
  -24.8919  -32.2864   26.4915 H   0  0  0  0  0  0
  -25.8111  -30.8884   27.0233 H   0  0  0  0  0  0
  -26.2807  -29.6822   24.1148 H   0  0  0  0  0  0
  -27.4078  -29.7279   25.4534 H   0  0  0  0  0  0
  -27.8644  -30.4394   23.9214 H   0  0  0  0  0  0
  -27.2667  -33.3630   26.2082 H   0  0  0  0  0  0
  -28.3846  -32.6880   25.0307 H   0  0  0  0  0  0
  -28.0718  -31.8439   26.5397 H   0  0  0  0  0  0
  -28.2613  -38.0097   24.7510 H   0  0  0  0  0  0
  -28.1063  -36.2639   24.6300 H   0  0  0  0  0  0
  -27.2298  -37.1488   25.8867 H   0  0  0  0  0  0
  -20.9273  -29.8744   21.6967 H   0  0  0  0  0  0
  -26.0178  -38.2880   24.1400 H   0  0  0  0  0  0
  -31.3434  -20.1873   20.2326 H   0  0  0  0  0  0
  -30.2783  -20.1623   24.3943 H   0  0  0  0  0  0
  -31.9894  -18.3254   19.1057 H   0  0  0  0  0  0
  -30.9064  -16.9858   19.4351 H   0  0  0  0  0  0
  -32.5904  -16.9613   20.0123 H   0  0  0  0  0  0
  -29.9998  -18.2029   25.5930 H   0  0  0  0  0  0
  -31.3005  -17.0839   25.2426 H   0  0  0  0  0  0
  -29.6439  -16.7164   24.7232 H   0  0  0  0  0  0
  -31.3988  -15.6506   23.4566 H   0  0  0  0  0  0
  -32.3875  -15.8634   22.0842 H   0  0  0  0  0  0
  -30.2700  -25.2074   21.0635 H   0  0  0  0  0  0
  -28.8463  -24.9017   22.0341 H   0  0  0  0  0  0
  -28.7531  -21.5654   21.9899 H   0  0  0  0  0  0
  -29.2499  -22.9169   22.9919 H   0  0  0  0  0  0
  -27.4236  -24.8850   20.0533 H   0  0  0  0  0  0
  -28.7879  -25.0957   18.9635 H   0  0  0  0  0  0
  -31.4476  -22.0806   21.5652 H   0  0  0  0  0  0
  -29.5841  -14.8567   22.1919 H   0  0  0  0  0  0
  1 25  1  0  0  0
  1 30  2  0  0  0
  1 85  1  0  0  0
  2  3  1  0  0  0
  2 25  1  0  0  0
  2 87  1  0  0  0
  2 88  1  0  0  0
  3  4  1  0  0  0
  3 89  1  0  0  0
  3 90  1  0  0  0
  4  5  1  0  0  0
  4 91  1  0  0  0
  4 92  1  0  0  0
  5  6  1  0  0  0
  5 26  1  0  0  0
  5 93  1  0  0  0
  6 25  1  0  0  0
  6 94  1  0  0  0
  6 95  1  0  0  0
  7  8  2  0  0  0
  7 26  1  0  0  0
  7 29  1  0  0  0
  8  9  1  0  0  0
  8 22  1  0  0  0
  9 10  1  0  0  0
  9 27  2  0  0  0
 10 11  2  0  0  0
 10 15  1  0  0  0
 11 12  1  0  0  0
 11 96  1  0  0  0
 12 13  2  0  0  0
 12 97  1  0  0  0
 13 14  1  0  0  0
 13 31  1  0  0  0
 14 15  2  0  0  0
 14 98  1  0  0  0
 15 99  1  0  0  0
 16 17  2  0  0  0
 16 21  1  0  0  0
 16 31  1  0  0  0
 17 18  1  0  0  0
 17100  1  0  0  0
 18 19  2  0  0  0
 18101  1  0  0  0
 19 20  1  0  0  0
 19 24  1  0  0  0
 20 21  2  0  0  0
 20102  1  0  0  0
 21 23  1  0  0  0
 22 28  1  0  0  0
 22 32  2  0  0  0
 26 27  1  0  0  0
 28103  1  0  0  0
 28104  1  0  0  0
 29105  1  0  0  0
 29106  1  0  0  0
 33 34  1  0  0  0
 33 66  1  0  0  0
 33 70  2  0  0  0
 34 36  1  0  0  0
 34 59  1  0  0  0
 34107  1  0  0  0
 35 44  2  0  0  0
 35 45  1  0  0  0
 35 68  1  0  0  0
 36 56  1  0  0  0
 36108  1  0  0  0
 37 39  1  0  0  0
 37 47  1  0  0  0
 37 66  1  0  0  0
 37109  1  0  0  0
 38 43  2  0  0  0
 38 46  1  0  0  0
 38 47  1  0  0  0
 39 64  1  0  0  0
 39 67  2  0  0  0
 40 52  1  0  0  0
 40 53  2  0  0  0
 40 58  1  0  0  0
 41110  1  0  0  0
 41111  1  0  0  0
 41112  1  0  0  0
 41 48  1  0  0  0
 42 43  1  0  0  0
 42 66  1  0  0  0
 42113  1  0  0  0
 42114  1  0  0  0
 43 44  1  0  0  0
 44115  1  0  0  0
 45 46  2  0  0  0
 45116  1  0  0  0
 46117  1  0  0  0
 47118  1  0  0  0
 47119  1  0  0  0
 48 56  1  0  0  0
 48 65  1  0  0  0
 48120  1  0  0  0
 49 50  1  0  0  0
 49 53  1  0  0  0
 49 64  1  0  0  0
 49121  1  0  0  0
 50 51  1  0  0  0
 50122  1  0  0  0
 50123  1  0  0  0
 51 52  1  0  0  0
 51124  1  0  0  0
 51125  1  0  0  0
 52126  1  0  0  0
 52127  1  0  0  0
 53 54  1  0  0  0
 54 55  2  0  0  0
 54128  1  0  0  0
 55 57  1  0  0  0
 55129  1  0  0  0
 56 69  2  0  0  0
 57 58  2  0  0  0
 57130  1  0  0  0
 58131  1  0  0  0
 59 60  1  0  0  0
 59 61  1  0  0  0
 59 62  1  0  0  0
 60132  1  0  0  0
 60133  1  0  0  0
 60134  1  0  0  0
 61135  1  0  0  0
 61136  1  0  0  0
 61137  1  0  0  0
 62138  1  0  0  0
 62139  1  0  0  0
 62140  1  0  0  0
 63 65  1  0  0  0
 63141  1  0  0  0
 63142  1  0  0  0
 63143  1  0  0  0
 64144  1  0  0  0
 65145  1  0  0  0
 68 83  1  0  0  0
 71 73  2  0  0  0
 71 76  1  0  0  0
 71146  1  0  0  0
 72 74  1  0  0  0
 72 76  2  0  0  0
 72147  1  0  0  0
 73 75  1  0  0  0
 73 78  1  0  0  0
 74 75  2  0  0  0
 74 79  1  0  0  0
 75 80  1  0  0  0
 76 84  1  0  0  0
 77 81  1  0  0  0
 77 82  1  0  0  0
 77 86  2  0  0  0
 78148  1  0  0  0
 78149  1  0  0  0
 78150  1  0  0  0
 79151  1  0  0  0
 79152  1  0  0  0
 79153  1  0  0  0
 80 85  1  0  0  0
 80154  1  0  0  0
 80155  1  0  0  0
 81 83  1  0  0  0
 81156  1  0  0  0
 81157  1  0  0  0
 82 84  1  0  0  0
 82158  1  0  0  0
 82159  1  0  0  0
 83160  1  0  0  0
 83161  1  0  0  0
 84162  1  0  0  0
 85163  1  0  0  0
M  ISO  4   1 100  68 101  83 101  85 100
M  END
> <chiral flag>
0

> <version>
0

> <s_m_source_file>
/data/baiqing/PycharmProjects/Reinvent-master-3.2/result/LINK_invent/BTK/process_docking_weight1_custom_product_contain_oxygen_bond_distance_aromatic_linkinvent_7_9_3/rearranged_h_0103.sdf

> <i_m_source_file_index>
42

> <r_mmod_Potential_Energy-OPLS-2005>
-116.912956237793

> <r_mmod_Stretch_Energy-OPLS-2005>
34.2032241821289

> <r_mmod_Bend_Energy-OPLS-2005>
99.3697662353516

> <r_mmod_Torsional_Energy-OPLS-2005>
225.914215087891

> <r_mmod_Improper_Torsional_Energy-OPLS-2005>
10.177095413208

> <r_mmod_Van_der_Waal_Energy-OPLS-2005>
165.14323425293

> <r_mmod_Electrostatic_Energy-OPLS-2005>
-435.609039306641

> <r_mmod_Solvation_Energy-OPLS-2005>
-225.66813659668

> <b_mmod_Minimization_Converged-OPLS-2005>
0

> <r_mmod_RMS_Derivative-OPLS-2005>
2.19686102867126

$$$$
42
                    3D
 Structure written by MMmdl.
168177  0  0  1  0            999 V2000
  -30.7073  -14.4184   20.6782 C   0  0  0  0  0  0
  -30.4337  -12.3141   19.3878 C   0  0  0  0  0  0
  -29.4882  -12.5307   18.1888 C   0  0  0  0  0  0
  -28.0114  -12.3798   18.6076 C   0  0  0  0  0  0
  -27.6684  -13.1944   19.8827 C   0  0  2  0  0  0
  -28.7126  -12.9174   20.9881 C   0  0  0  0  0  0
  -25.2624  -13.8128   20.5677 C   0  0  0  0  0  0
  -24.1860  -13.0426   20.9172 C   0  0  0  0  0  0
  -24.6395  -11.6886   20.8731 C   0  0  0  0  0  0
  -23.9052  -10.4283   21.0405 C   0  0  0  0  0  0
  -24.3608   -9.4201   21.9184 C   0  0  0  0  0  0
  -23.6286   -8.2236   22.0756 C   0  0  0  0  0  0
  -22.4268   -8.0275   21.3545 C   0  0  0  0  0  0
  -21.9901   -9.0248   20.4645 C   0  0  0  0  0  0
  -22.7227  -10.2129   20.3055 C   0  0  0  0  0  0
  -21.6850   -6.0731   22.5280 C   0  0  0  0  0  0
  -21.4012   -6.5638   23.8214 C   0  0  0  0  0  0
  -21.3659   -5.6793   24.9177 C   0  0  0  0  0  0
  -21.6044   -4.3055   24.7228 C   0  0  0  0  0  0
  -21.8821   -3.8144   23.4350 C   0  0  0  0  0  0
  -21.9193   -4.6959   22.3404 C   0  0  0  0  0  0
  -22.7884  -13.5236   21.1837 C   0  0  0  0  0  0
  -22.1663   -4.2146   21.0980 F   0  0  0  0  0  0
  -21.5629   -3.4538   25.7742 F   0  0  0  0  0  0
  -30.0426  -13.2520   20.4498 N   0  0  0  0  0  0
  -26.3060  -12.9276   20.3397 N   0  0  0  0  0  0
  -25.9321  -11.6448   20.5765 N   0  0  0  0  0  0
  -22.0513  -12.8235   22.0391 N   0  0  0  0  0  0
  -25.4357  -15.1844   20.4069 N   0  0  0  0  0  0
  -31.7655  -14.6967   20.1011 O   0  0  0  0  0  0
  -21.6634   -6.8873   21.4242 O   0  0  0  0  0  0
  -22.3578  -14.5547   20.6685 O   0  0  0  0  0  0
  -24.6111  -31.8707   23.2125 C   0  0  0  0  0  0
  -25.9017  -32.4840   23.8415 C   0  0  1  0  0  0
  -27.2515  -27.4612   20.0989 C   0  0  0  0  0  0
  -25.5889  -33.8638   24.2347 N   0  0  0  0  0  0
  -23.3993  -30.4918   21.5516 C   0  0  2  0  0  0
  -24.8515  -28.9584   20.1203 C   0  0  0  0  0  0
  -22.7397  -29.4666   22.5011 C   0  0  0  0  0  0
  -18.0267  -28.1371   22.8494 C   0  0  0  0  0  0
  -24.1487  -36.7325   23.2638 C   0  0  0  0  0  0
  -25.9238  -30.8425   21.3645 C   0  0  0  0  0  0
  -26.0058  -29.4742   20.7233 C   0  0  0  0  0  0
  -27.2067  -28.7308   20.7244 C   0  0  0  0  0  0
  -26.0831  -26.9608   19.4902 C   0  0  0  0  0  0
  -24.8822  -27.6952   19.5047 C   0  0  0  0  0  0
  -23.6093  -29.8197   20.1676 C   0  0  0  0  0  0
  -25.4106  -36.3126   24.0343 C   0  0  1  0  0  0
  -20.5854  -28.3655   23.1328 C   0  0  2  0  0  0
  -20.6758  -26.9395   22.5421 C   0  0  0  0  0  0
  -19.5740  -26.6380   21.5212 C   0  0  0  0  0  0
  -18.1915  -26.7920   22.1619 C   0  0  0  0  0  0
  -19.1515  -28.8830   23.2907 C   0  0  0  0  0  0
  -18.9444  -30.1440   23.8912 C   0  0  0  0  0  0
  -17.6448  -30.6582   24.0562 C   0  0  0  0  0  0
  -25.9029  -34.9488   23.5140 C   0  0  0  0  0  0
  -16.5339  -29.9083   23.6322 C   0  0  0  0  0  0
  -16.7257  -28.6497   23.0348 C   0  0  0  0  0  0
  -26.4460  -31.6604   25.0725 C   0  0  0  0  0  0
  -25.3739  -31.3691   26.1478 C   0  0  0  0  0  0
  -27.0292  -30.3055   24.6067 C   0  0  0  0  0  0
  -27.6041  -32.4316   25.7488 C   0  0  0  0  0  0
  -27.5582  -37.1819   24.8464 C   0  0  0  0  0  0
  -21.4129  -29.3026   22.3742 N   0  0  0  0  0  0
  -26.4295  -37.3804   23.9408 N   0  0  0  0  0  0
  -24.6624  -31.0825   22.1017 N   0  0  0  0  0  0
  -23.4176  -28.8217   23.3054 O   0  0  0  0  0  0
  -28.3752  -26.6694   20.0068 O   0  0  0  0  0  0
  -26.5586  -34.8932   22.4698 O   0  0  0  0  0  0
  -23.5311  -32.1448   23.7532 O   0  0  0  0  0  0
  -31.8994  -21.0606   20.8024 C   0  0  0  0  0  0
  -31.7134  -19.6648   20.8417 C   0  0  0  0  0  0
  -29.5546  -21.3582   20.2432 C   0  0  0  0  0  0
  -29.3371  -19.9590   20.3103 C   0  0  0  0  0  0
  -30.8249  -21.9313   20.4980 C   0  0  0  0  0  0
  -30.4369  -19.1102   20.6090 C   0  0  0  0  0  0
  -31.2752  -26.0603   19.3686 C   0  0  0  0  0  0
  -30.2008  -24.3015   20.8839 C   0  0  0  0  0  0
  -27.0061  -20.0221   19.3576 C   0  0  0  0  0  0
  -27.9958  -19.4022   20.0244 C   0  0  0  0  0  0
  -30.6644  -16.8361   21.6089 C   0  0  0  0  0  0
  -32.1661  -24.9553   18.8140 C   0  0  0  0  0  0
  -32.3308  -23.7930   19.8056 C   0  0  0  0  0  0
  -30.5696  -25.8033   20.7135 C   0  0  2  0  0  0
  -30.0890  -15.4349   21.6685 C   0  0  0  0  0  0
  -29.4114  -26.8086   20.9782 C   0  0  0  0  0  0
  -31.0515  -23.3518   20.3882 N   0  0  0  0  0  0
  -30.2491  -17.6693   20.6172 N   0  0  0  0  0  0
  -31.4817  -17.2423   22.6057 N   0  3  0  0  0  0
  -31.1801  -27.1345   18.7652 O   0  0  0  0  0  0
  -29.1742  -24.0109   21.5115 O   0  0  0  0  0  0
  -31.4724  -12.4437   19.0787 H   0  0  0  0  0  0
  -30.3599  -11.2878   19.7509 H   0  0  0  0  0  0
  -29.7237  -11.8258   17.3905 H   0  0  0  0  0  0
  -29.6495  -13.5268   17.7734 H   0  0  0  0  0  0
  -27.8205  -11.3203   18.7833 H   0  0  0  0  0  0
  -27.3561  -12.6730   17.7868 H   0  0  0  0  0  0
  -27.7282  -14.2497   19.6169 H   0  0  0  0  0  0
  -28.6914  -11.8610   21.2612 H   0  0  0  0  0  0
  -28.4630  -13.4428   21.9089 H   0  0  0  0  0  0
  -25.2756   -9.5677   22.4755 H   0  0  0  0  0  0
  -23.9995   -7.4630   22.7478 H   0  0  0  0  0  0
  -21.0832   -8.8766   19.8952 H   0  0  0  0  0  0
  -22.3687  -10.9668   19.6162 H   0  0  0  0  0  0
  -21.2003   -7.6149   23.9715 H   0  0  0  0  0  0
  -21.1479   -6.0524   25.9080 H   0  0  0  0  0  0
  -22.0600   -2.7606   23.2853 H   0  0  0  0  0  0
  -22.4116  -11.9889   22.4774 H   0  0  0  0  0  0
  -21.1134  -13.1273   22.2592 H   0  0  0  0  0  0
  -24.6645  -15.8362   20.5027 H   0  0  0  0  0  0
  -26.2786  -15.6193   20.0557 H   0  0  0  0  0  0
  -26.7095  -32.5581   23.1196 H   0  0  0  0  0  0
  -25.0056  -33.9808   25.0503 H   0  0  0  0  0  0
  -22.6864  -31.3070   21.4112 H   0  0  0  0  0  0
  -23.3745  -35.9662   23.3315 H   0  0  0  0  0  0
  -24.3582  -36.8921   22.2050 H   0  0  0  0  0  0
  -23.7240  -37.6537   23.6638 H   0  0  0  0  0  0
  -26.0272  -31.6041   20.5901 H   0  0  0  0  0  0
  -26.8144  -30.9059   21.9774 H   0  0  0  0  0  0
  -28.0855  -29.1520   21.1895 H   0  0  0  0  0  0
  -26.1063  -25.9948   19.0053 H   0  0  0  0  0  0
  -23.9969  -27.2894   19.0346 H   0  0  0  0  0  0
  -23.7124  -30.5917   19.4045 H   0  0  0  0  0  0
  -22.7361  -29.2335   19.8753 H   0  0  0  0  0  0
  -25.1280  -36.2002   25.0837 H   0  0  0  0  0  0
  -20.9942  -28.3214   24.1450 H   0  0  0  0  0  0
  -20.5661  -26.2262   23.3604 H   0  0  0  0  0  0
  -21.6632  -26.7445   22.1216 H   0  0  0  0  0  0
  -19.6906  -25.6296   21.1232 H   0  0  0  0  0  0
  -19.6681  -27.3199   20.6750 H   0  0  0  0  0  0
  -17.4193  -26.6678   21.4013 H   0  0  0  0  0  0
  -18.0309  -26.0054   22.9004 H   0  0  0  0  0  0
  -19.7924  -30.7248   24.2290 H   0  0  0  0  0  0
  -17.5005  -31.6266   24.5158 H   0  0  0  0  0  0
  -15.5340  -30.2990   23.7637 H   0  0  0  0  0  0
  -15.8658  -28.0822   22.7053 H   0  0  0  0  0  0
  -24.5902  -30.7052   25.7808 H   0  0  0  0  0  0
  -24.8942  -32.2841   26.4963 H   0  0  0  0  0  0
  -25.8102  -30.8829   27.0211 H   0  0  0  0  0  0
  -26.2828  -29.6827   24.1119 H   0  0  0  0  0  0
  -27.4075  -29.7273   25.4507 H   0  0  0  0  0  0
  -27.8656  -30.4391   23.9202 H   0  0  0  0  0  0
  -27.2654  -33.3586   26.2127 H   0  0  0  0  0  0
  -28.3819  -32.6925   25.0300 H   0  0  0  0  0  0
  -28.0745  -31.8405   26.5355 H   0  0  0  0  0  0
  -28.2612  -38.0106   24.7510 H   0  0  0  0  0  0
  -28.1067  -36.2640   24.6293 H   0  0  0  0  0  0
  -27.2302  -37.1474   25.8868 H   0  0  0  0  0  0
  -20.9290  -29.8746   21.6962 H   0  0  0  0  0  0
  -26.0193  -38.2889   24.1401 H   0  0  0  0  0  0
  -32.8887  -21.4515   20.9957 H   0  0  0  0  0  0
  -32.5667  -19.0284   21.0254 H   0  0  0  0  0  0
  -28.7306  -22.0094   19.9936 H   0  0  0  0  0  0
  -26.0510  -19.5355   19.2169 H   0  0  0  0  0  0
  -27.1153  -21.0109   18.9368 H   0  0  0  0  0  0
  -27.7809  -18.4162   20.4108 H   0  0  0  0  0  0
  -33.1388  -25.3706   18.5505 H   0  0  0  0  0  0
  -31.7141  -24.5922   17.8909 H   0  0  0  0  0  0
  -33.0099  -24.0760   20.6115 H   0  0  0  0  0  0
  -32.8167  -22.9794   19.2669 H   0  0  0  0  0  0
  -31.3246  -25.9953   21.4754 H   0  0  0  0  0  0
  -29.0196  -15.5258   21.4813 H   0  0  0  0  0  0
  -30.1917  -15.0364   22.6779 H   0  0  0  0  0  0
  -29.8143  -27.8217   20.9614 H   0  0  0  0  0  0
  -28.9981  -26.6562   21.9765 H   0  0  0  0  0  0
  -29.5252  -17.2919   20.0205 H   0  0  0  0  0  0
  -31.7596  -16.6169   23.3513 H   0  0  0  0  0  0
  -31.8171  -18.1929   22.6647 H   0  0  0  0  0  0
  1 25  1  0  0  0
  1 30  2  0  0  0
  1 85  1  0  0  0
  2  3  1  0  0  0
  2 25  1  0  0  0
  2 92  1  0  0  0
  2 93  1  0  0  0
  3  4  1  0  0  0
  3 94  1  0  0  0
  3 95  1  0  0  0
  4  5  1  0  0  0
  4 96  1  0  0  0
  4 97  1  0  0  0
  5  6  1  0  0  0
  5 26  1  0  0  0
  5 98  1  0  0  0
  6 25  1  0  0  0
  6 99  1  0  0  0
  6100  1  0  0  0
  7  8  2  0  0  0
  7 26  1  0  0  0
  7 29  1  0  0  0
  8  9  1  0  0  0
  8 22  1  0  0  0
  9 10  1  0  0  0
  9 27  2  0  0  0
 10 11  2  0  0  0
 10 15  1  0  0  0
 11 12  1  0  0  0
 11101  1  0  0  0
 12 13  2  0  0  0
 12102  1  0  0  0
 13 14  1  0  0  0
 13 31  1  0  0  0
 14 15  2  0  0  0
 14103  1  0  0  0
 15104  1  0  0  0
 16 17  2  0  0  0
 16 21  1  0  0  0
 16 31  1  0  0  0
 17 18  1  0  0  0
 17105  1  0  0  0
 18 19  2  0  0  0
 18106  1  0  0  0
 19 20  1  0  0  0
 19 24  1  0  0  0
 20 21  2  0  0  0
 20107  1  0  0  0
 21 23  1  0  0  0
 22 28  1  0  0  0
 22 32  2  0  0  0
 26 27  1  0  0  0
 28108  1  0  0  0
 28109  1  0  0  0
 29110  1  0  0  0
 29111  1  0  0  0
 33 34  1  0  0  0
 33 66  1  0  0  0
 33 70  2  0  0  0
 34 36  1  0  0  0
 34 59  1  0  0  0
 34112  1  0  0  0
 35 44  2  0  0  0
 35 45  1  0  0  0
 35 68  1  0  0  0
 36 56  1  0  0  0
 36113  1  0  0  0
 37 39  1  0  0  0
 37 47  1  0  0  0
 37 66  1  0  0  0
 37114  1  0  0  0
 38 43  2  0  0  0
 38 46  1  0  0  0
 38 47  1  0  0  0
 39 64  1  0  0  0
 39 67  2  0  0  0
 40 52  1  0  0  0
 40 53  2  0  0  0
 40 58  1  0  0  0
 41115  1  0  0  0
 41116  1  0  0  0
 41117  1  0  0  0
 41 48  1  0  0  0
 42 43  1  0  0  0
 42 66  1  0  0  0
 42118  1  0  0  0
 42119  1  0  0  0
 43 44  1  0  0  0
 44120  1  0  0  0
 45 46  2  0  0  0
 45121  1  0  0  0
 46122  1  0  0  0
 47123  1  0  0  0
 47124  1  0  0  0
 48 56  1  0  0  0
 48 65  1  0  0  0
 48125  1  0  0  0
 49 50  1  0  0  0
 49 53  1  0  0  0
 49 64  1  0  0  0
 49126  1  0  0  0
 50 51  1  0  0  0
 50127  1  0  0  0
 50128  1  0  0  0
 51 52  1  0  0  0
 51129  1  0  0  0
 51130  1  0  0  0
 52131  1  0  0  0
 52132  1  0  0  0
 53 54  1  0  0  0
 54 55  2  0  0  0
 54133  1  0  0  0
 55 57  1  0  0  0
 55134  1  0  0  0
 56 69  2  0  0  0
 57 58  2  0  0  0
 57135  1  0  0  0
 58136  1  0  0  0
 59 60  1  0  0  0
 59 61  1  0  0  0
 59 62  1  0  0  0
 60137  1  0  0  0
 60138  1  0  0  0
 60139  1  0  0  0
 61140  1  0  0  0
 61141  1  0  0  0
 61142  1  0  0  0
 62143  1  0  0  0
 62144  1  0  0  0
 62145  1  0  0  0
 63 65  1  0  0  0
 63146  1  0  0  0
 63147  1  0  0  0
 63148  1  0  0  0
 64149  1  0  0  0
 65150  1  0  0  0
 68 86  1  0  0  0
 71 72  2  0  0  0
 71 75  1  0  0  0
 71151  1  0  0  0
 72 76  1  0  0  0
 72152  1  0  0  0
 73 74  1  0  0  0
 73 75  2  0  0  0
 73153  1  0  0  0
 74 76  2  0  0  0
 74 80  1  0  0  0
 75 87  1  0  0  0
 76 88  1  0  0  0
 77 82  1  0  0  0
 77 84  1  0  0  0
 77 90  2  0  0  0
 78 84  1  0  0  0
 78 87  1  0  0  0
 78 91  2  0  0  0
 79 80  2  0  0  0
 79154  1  0  0  0
 79155  1  0  0  0
 80156  1  0  0  0
 81 85  1  0  0  0
 81 88  1  0  0  0
 81 89  2  0  0  0
 82 83  1  0  0  0
 82157  1  0  0  0
 82158  1  0  0  0
 83 87  1  0  0  0
 83159  1  0  0  0
 83160  1  0  0  0
 84 86  1  0  0  0
 84161  1  0  0  0
 85162  1  0  0  0
 85163  1  0  0  0
 86164  1  0  0  0
 86165  1  0  0  0
 88166  1  0  0  0
 89167  1  0  0  0
 89168  1  0  0  0
M  CHG  1  89   1
M  ISO  4   1 100  68 101  85 100  86 101
M  END
> <chiral flag>
0

> <version>
0

> <s_m_source_file>
/data/baiqing/PycharmProjects/Reinvent-master-3.2/result/LINK_invent/BTK/process_docking_weight1_custom_product_contain_oxygen_bond_distance_aromatic_linkinvent_7_9_3/rearranged_h_0103.sdf

> <i_m_source_file_index>
43

> <r_mmod_Potential_Energy-OPLS-2005>
3.15606784820557

> <r_mmod_Stretch_Energy-OPLS-2005>
45.3479118347168

> <r_mmod_Bend_Energy-OPLS-2005>
113.63410949707

> <r_mmod_Torsional_Energy-OPLS-2005>
193.240325927734

> <r_mmod_Improper_Torsional_Energy-OPLS-2005>
4.55773878097534

> <r_mmod_Van_der_Waal_Energy-OPLS-2005>
180.980667114258

> <r_mmod_Electrostatic_Energy-OPLS-2005>
-73.4830856323242

> <r_mmod_Solvation_Energy-OPLS-2005>
-469.144439697266

> <b_mmod_Minimization_Converged-OPLS-2005>
0

> <r_mmod_RMS_Derivative-OPLS-2005>
0.458792150020599

$$$$
43
                    3D
 Structure written by MMmdl.
163171  0  0  1  0            999 V2000
  -30.7436  -14.3437   20.7002 C   0  0  0  0  0  0
  -30.4277  -12.2756   19.3896 C   0  0  0  0  0  0
  -29.4891  -12.5246   18.1929 C   0  0  0  0  0  0
  -28.0106  -12.3833   18.6058 C   0  0  0  0  0  0
  -27.6712  -13.1928   19.8843 C   0  0  2  0  0  0
  -28.7052  -12.8949   20.9924 C   0  0  0  0  0  0
  -25.2631  -13.8144   20.5675 C   0  0  0  0  0  0
  -24.1855  -13.0435   20.9181 C   0  0  0  0  0  0
  -24.6389  -11.6899   20.8730 C   0  0  0  0  0  0
  -23.9053  -10.4289   21.0397 C   0  0  0  0  0  0
  -24.3605   -9.4203   21.9171 C   0  0  0  0  0  0
  -23.6285   -8.2232   22.0740 C   0  0  0  0  0  0
  -22.4266   -8.0267   21.3527 C   0  0  0  0  0  0
  -21.9900   -9.0242   20.4631 C   0  0  0  0  0  0
  -22.7230  -10.2126   20.3044 C   0  0  0  0  0  0
  -21.6852   -6.0732   22.5283 C   0  0  0  0  0  0
  -21.4018   -6.5641   23.8216 C   0  0  0  0  0  0
  -21.3657   -5.6791   24.9176 C   0  0  0  0  0  0
  -21.6041   -4.3054   24.7233 C   0  0  0  0  0  0
  -21.8814   -3.8146   23.4357 C   0  0  0  0  0  0
  -21.9191   -4.6960   22.3410 C   0  0  0  0  0  0
  -22.7877  -13.5233   21.1842 C   0  0  0  0  0  0
  -22.1652   -4.2151   21.0982 F   0  0  0  0  0  0
  -21.5632   -3.4539   25.7748 F   0  0  0  0  0  0
  -30.0584  -13.1944   20.4734 N   0  0  0  0  0  0
  -26.3055  -12.9285   20.3382 N   0  0  0  0  0  0
  -25.9308  -11.6461   20.5758 N   0  0  0  0  0  0
  -22.0498  -12.8213   22.0384 N   0  0  0  0  0  0
  -25.4417  -15.1845   20.4060 N   0  0  0  0  0  0
  -31.7276  -14.7071   20.0475 O   0  0  0  0  0  0
  -21.6627   -6.8867   21.4240 O   0  0  0  0  0  0
  -22.3562  -14.5536   20.6691 O   0  0  0  0  0  0
  -24.6138  -31.8690   23.2135 C   0  0  0  0  0  0
  -25.9037  -32.4823   23.8413 C   0  0  1  0  0  0
  -27.2313  -27.4572   20.0804 C   0  0  0  0  0  0
  -25.5904  -33.8619   24.2354 N   0  0  0  0  0  0
  -23.3993  -30.4955   21.5541 C   0  0  2  0  0  0
  -24.8391  -28.9636   20.1177 C   0  0  0  0  0  0
  -22.7401  -29.4678   22.5017 C   0  0  0  0  0  0
  -18.0272  -28.1365   22.8490 C   0  0  0  0  0  0
  -24.1488  -36.7316   23.2638 C   0  0  0  0  0  0
  -25.9274  -30.8405   21.3633 C   0  0  0  0  0  0
  -25.9997  -29.4789   20.7063 C   0  0  0  0  0  0
  -27.1969  -28.7334   20.6811 C   0  0  0  0  0  0
  -26.0436  -26.9435   19.5060 C   0  0  0  0  0  0
  -24.8538  -27.6925   19.5199 C   0  0  0  0  0  0
  -23.6033  -29.8303   20.1678 C   0  0  0  0  0  0
  -25.4104  -36.3120   24.0353 C   0  0  1  0  0  0
  -20.5861  -28.3650   23.1322 C   0  0  2  0  0  0
  -20.6762  -26.9393   22.5415 C   0  0  0  0  0  0
  -19.5743  -26.6381   21.5210 C   0  0  0  0  0  0
  -18.1916  -26.7914   22.1613 C   0  0  0  0  0  0
  -19.1521  -28.8825   23.2899 C   0  0  0  0  0  0
  -18.9452  -30.1427   23.8912 C   0  0  0  0  0  0
  -17.6459  -30.6575   24.0554 C   0  0  0  0  0  0
  -25.9031  -34.9477   23.5149 C   0  0  0  0  0  0
  -16.5347  -29.9073   23.6327 C   0  0  0  0  0  0
  -16.7262  -28.6485   23.0359 C   0  0  0  0  0  0
  -26.4474  -31.6588   25.0730 C   0  0  0  0  0  0
  -25.3767  -31.3665   26.1500 C   0  0  0  0  0  0
  -27.0308  -30.3041   24.6087 C   0  0  0  0  0  0
  -27.6057  -32.4304   25.7483 C   0  0  0  0  0  0
  -27.5581  -37.1808   24.8469 C   0  0  0  0  0  0
  -21.4138  -29.3024   22.3736 N   0  0  0  0  0  0
  -26.4291  -37.3801   23.9416 N   0  0  0  0  0  0
  -24.6650  -31.0828   22.1014 N   0  0  0  0  0  0
  -23.4182  -28.8222   23.3055 O   0  0  0  0  0  0
  -28.4340  -26.7821   20.0729 O   0  0  0  0  0  0
  -26.5589  -34.8923   22.4712 O   0  0  0  0  0  0
  -23.5335  -32.1421   23.7553 O   0  0  0  0  0  0
  -29.1305  -19.4029   23.2736 C   0  0  0  0  0  0
  -27.7910  -18.7843   21.3301 C   0  0  0  0  0  0
  -28.6502  -18.4201   22.3875 C   0  0  0  0  0  0
  -28.7485  -20.7458   23.1005 C   0  0  0  0  0  0
  -27.3896  -20.1306   21.1485 C   0  0  0  0  0  0
  -27.8857  -21.1130   22.0437 C   0  0  0  0  0  0
  -26.0039  -19.5516   19.2614 C   0  0  0  0  0  0
  -29.0084  -16.9605   22.5858 C   0  0  0  0  0  0
  -27.9264  -24.5828   21.0024 C   0  0  0  0  0  0
  -30.2720  -16.5181   21.8239 C   0  0  0  0  0  0
  -28.4522  -25.3822   19.7994 C   0  0  0  0  0  0
  -27.8958  -23.0758   20.7350 C   0  0  0  0  0  0
  -29.2276  -21.7245   23.9710 N   0  0  0  0  0  0
  -30.2419  -15.0682   21.7018 N   0  0  0  0  0  0
  -26.5140  -20.5306   20.1589 O   0  0  0  0  0  0
  -27.5220  -22.4344   21.9463 O   0  0  0  0  0  0
  -31.4714  -12.3897   19.0879 H   0  0  0  0  0  0
  -30.3344  -11.2467   19.7391 H   0  0  0  0  0  0
  -29.7180  -11.8243   17.3878 H   0  0  0  0  0  0
  -29.6644  -13.5236   17.7910 H   0  0  0  0  0  0
  -27.8070  -11.3248   18.7725 H   0  0  0  0  0  0
  -27.3619  -12.6891   17.7845 H   0  0  0  0  0  0
  -27.7415  -14.2510   19.6321 H   0  0  0  0  0  0
  -28.6605  -11.8409   21.2692 H   0  0  0  0  0  0
  -28.4382  -13.4327   21.9024 H   0  0  0  0  0  0
  -25.2751   -9.5695   22.4745 H   0  0  0  0  0  0
  -24.0001   -7.4631   22.7462 H   0  0  0  0  0  0
  -21.0829   -8.8753   19.8939 H   0  0  0  0  0  0
  -22.3673  -10.9654   19.6149 H   0  0  0  0  0  0
  -21.2003   -7.6149   23.9731 H   0  0  0  0  0  0
  -21.1491   -6.0519   25.9081 H   0  0  0  0  0  0
  -22.0603   -2.7613   23.2860 H   0  0  0  0  0  0
  -22.4075  -11.9841   22.4739 H   0  0  0  0  0  0
  -21.1114  -13.1238   22.2575 H   0  0  0  0  0  0
  -24.6836  -15.8493   20.5095 H   0  0  0  0  0  0
  -26.2980  -15.6065   20.0709 H   0  0  0  0  0  0
  -26.7096  -32.5532   23.1164 H   0  0  0  0  0  0
  -25.0092  -33.9769   25.0527 H   0  0  0  0  0  0
  -22.6884  -31.3128   21.4168 H   0  0  0  0  0  0
  -23.3751  -35.9648   23.3321 H   0  0  0  0  0  0
  -24.3584  -36.8912   22.2047 H   0  0  0  0  0  0
  -23.7238  -37.6529   23.6632 H   0  0  0  0  0  0
  -26.0484  -31.6122   20.6015 H   0  0  0  0  0  0
  -26.8136  -30.8832   21.9851 H   0  0  0  0  0  0
  -28.0977  -29.1319   21.1265 H   0  0  0  0  0  0
  -26.0057  -25.9722   19.0389 H   0  0  0  0  0  0
  -23.9587  -27.2832   19.0715 H   0  0  0  0  0  0
  -23.7102  -30.6068   19.4096 H   0  0  0  0  0  0
  -22.7266  -29.2511   19.8716 H   0  0  0  0  0  0
  -25.1272  -36.1995   25.0846 H   0  0  0  0  0  0
  -20.9938  -28.3204   24.1446 H   0  0  0  0  0  0
  -20.5673  -26.2250   23.3593 H   0  0  0  0  0  0
  -21.6627  -26.7442   22.1198 H   0  0  0  0  0  0
  -19.6906  -25.6302   21.1212 H   0  0  0  0  0  0
  -19.6682  -27.3208   20.6756 H   0  0  0  0  0  0
  -17.4193  -26.6682   21.4006 H   0  0  0  0  0  0
  -18.0298  -26.0048   22.8996 H   0  0  0  0  0  0
  -19.7936  -30.7224   24.2293 H   0  0  0  0  0  0
  -17.5024  -31.6259   24.5145 H   0  0  0  0  0  0
  -15.5346  -30.2976   23.7652 H   0  0  0  0  0  0
  -15.8661  -28.0796   22.7088 H   0  0  0  0  0  0
  -24.5945  -30.6996   25.7861 H   0  0  0  0  0  0
  -24.8946  -32.2797   26.4991 H   0  0  0  0  0  0
  -25.8155  -30.8824   27.0236 H   0  0  0  0  0  0
  -26.2831  -29.6783   24.1196 H   0  0  0  0  0  0
  -27.4160  -29.7285   25.4511 H   0  0  0  0  0  0
  -27.8636  -30.4379   23.9179 H   0  0  0  0  0  0
  -27.2689  -33.3593   26.2096 H   0  0  0  0  0  0
  -28.3845  -32.6885   25.0295 H   0  0  0  0  0  0
  -28.0753  -31.8411   26.5366 H   0  0  0  0  0  0
  -28.2611  -38.0092   24.7513 H   0  0  0  0  0  0
  -28.1068  -36.2627   24.6304 H   0  0  0  0  0  0
  -27.2301  -37.1479   25.8872 H   0  0  0  0  0  0
  -20.9299  -29.8747   21.6958 H   0  0  0  0  0  0
  -26.0197  -38.2891   24.1405 H   0  0  0  0  0  0
  -29.7838  -19.1175   24.0869 H   0  0  0  0  0  0
  -27.4300  -18.0044   20.6756 H   0  0  0  0  0  0
  -25.3312  -20.0308   18.5502 H   0  0  0  0  0  0
  -25.4305  -18.7847   19.7838 H   0  0  0  0  0  0
  -26.8021  -19.0779   18.6870 H   0  0  0  0  0  0
  -28.1464  -16.3692   22.2673 H   0  0  0  0  0  0
  -29.1284  -16.7570   23.6514 H   0  0  0  0  0  0
  -26.9220  -24.9109   21.2721 H   0  0  0  0  0  0
  -28.5561  -24.7863   21.8690 H   0  0  0  0  0  0
  -31.1764  -16.8495   22.3357 H   0  0  0  0  0  0
  -30.2852  -16.9599   20.8253 H   0  0  0  0  0  0
  -27.9272  -25.1291   18.8787 H   0  0  0  0  0  0
  -29.4908  -25.1033   19.6191 H   0  0  0  0  0  0
  -28.8739  -22.7296   20.3957 H   0  0  0  0  0  0
  -27.1780  -22.8643   19.9430 H   0  0  0  0  0  0
  -29.4832  -21.4511   24.9140 H   0  0  0  0  0  0
  -28.7615  -22.6256   23.9299 H   0  0  0  0  0  0
  -29.5305  -14.5950   22.2388 H   0  0  0  0  0  0
  1 25  1  0  0  0
  1 30  2  0  0  0
  1 84  1  0  0  0
  2  3  1  0  0  0
  2 25  1  0  0  0
  2 87  1  0  0  0
  2 88  1  0  0  0
  3  4  1  0  0  0
  3 89  1  0  0  0
  3 90  1  0  0  0
  4  5  1  0  0  0
  4 91  1  0  0  0
  4 92  1  0  0  0
  5  6  1  0  0  0
  5 26  1  0  0  0
  5 93  1  0  0  0
  6 25  1  0  0  0
  6 94  1  0  0  0
  6 95  1  0  0  0
  7  8  2  0  0  0
  7 26  1  0  0  0
  7 29  1  0  0  0
  8  9  1  0  0  0
  8 22  1  0  0  0
  9 10  1  0  0  0
  9 27  2  0  0  0
 10 11  2  0  0  0
 10 15  1  0  0  0
 11 12  1  0  0  0
 11 96  1  0  0  0
 12 13  2  0  0  0
 12 97  1  0  0  0
 13 14  1  0  0  0
 13 31  1  0  0  0
 14 15  2  0  0  0
 14 98  1  0  0  0
 15 99  1  0  0  0
 16 17  2  0  0  0
 16 21  1  0  0  0
 16 31  1  0  0  0
 17 18  1  0  0  0
 17100  1  0  0  0
 18 19  2  0  0  0
 18101  1  0  0  0
 19 20  1  0  0  0
 19 24  1  0  0  0
 20 21  2  0  0  0
 20102  1  0  0  0
 21 23  1  0  0  0
 22 28  1  0  0  0
 22 32  2  0  0  0
 26 27  1  0  0  0
 28103  1  0  0  0
 28104  1  0  0  0
 29105  1  0  0  0
 29106  1  0  0  0
 33 34  1  0  0  0
 33 66  1  0  0  0
 33 70  2  0  0  0
 34 36  1  0  0  0
 34 59  1  0  0  0
 34107  1  0  0  0
 35 44  2  0  0  0
 35 45  1  0  0  0
 35 68  1  0  0  0
 36 56  1  0  0  0
 36108  1  0  0  0
 37 39  1  0  0  0
 37 47  1  0  0  0
 37 66  1  0  0  0
 37109  1  0  0  0
 38 43  2  0  0  0
 38 46  1  0  0  0
 38 47  1  0  0  0
 39 64  1  0  0  0
 39 67  2  0  0  0
 40 52  1  0  0  0
 40 53  2  0  0  0
 40 58  1  0  0  0
 41110  1  0  0  0
 41111  1  0  0  0
 41112  1  0  0  0
 41 48  1  0  0  0
 42 43  1  0  0  0
 42 66  1  0  0  0
 42113  1  0  0  0
 42114  1  0  0  0
 43 44  1  0  0  0
 44115  1  0  0  0
 45 46  2  0  0  0
 45116  1  0  0  0
 46117  1  0  0  0
 47118  1  0  0  0
 47119  1  0  0  0
 48 56  1  0  0  0
 48 65  1  0  0  0
 48120  1  0  0  0
 49 50  1  0  0  0
 49 53  1  0  0  0
 49 64  1  0  0  0
 49121  1  0  0  0
 50 51  1  0  0  0
 50122  1  0  0  0
 50123  1  0  0  0
 51 52  1  0  0  0
 51124  1  0  0  0
 51125  1  0  0  0
 52126  1  0  0  0
 52127  1  0  0  0
 53 54  1  0  0  0
 54 55  2  0  0  0
 54128  1  0  0  0
 55 57  1  0  0  0
 55129  1  0  0  0
 56 69  2  0  0  0
 57 58  2  0  0  0
 57130  1  0  0  0
 58131  1  0  0  0
 59 60  1  0  0  0
 59 61  1  0  0  0
 59 62  1  0  0  0
 60132  1  0  0  0
 60133  1  0  0  0
 60134  1  0  0  0
 61135  1  0  0  0
 61136  1  0  0  0
 61137  1  0  0  0
 62138  1  0  0  0
 62139  1  0  0  0
 62140  1  0  0  0
 63 65  1  0  0  0
 63141  1  0  0  0
 63142  1  0  0  0
 63143  1  0  0  0
 64144  1  0  0  0
 65145  1  0  0  0
 68 81  1  0  0  0
 71 73  2  0  0  0
 71 74  1  0  0  0
 71146  1  0  0  0
 72 73  1  0  0  0
 72 75  2  0  0  0
 72147  1  0  0  0
 73 78  1  0  0  0
 74 76  2  0  0  0
 74 83  1  0  0  0
 75 76  1  0  0  0
 75 85  1  0  0  0
 76 86  1  0  0  0
 77 85  1  0  0  0
 77148  1  0  0  0
 77149  1  0  0  0
 77150  1  0  0  0
 78 80  1  0  0  0
 78151  1  0  0  0
 78152  1  0  0  0
 79 81  1  0  0  0
 79 82  1  0  0  0
 79153  1  0  0  0
 79154  1  0  0  0
 80 84  1  0  0  0
 80155  1  0  0  0
 80156  1  0  0  0
 81157  1  0  0  0
 81158  1  0  0  0
 82 86  1  0  0  0
 82159  1  0  0  0
 82160  1  0  0  0
 83161  1  0  0  0
 83162  1  0  0  0
 84163  1  0  0  0
M  ISO  4   1 100  68 101  81 101  84 100
M  END
> <chiral flag>
0

> <version>
0

> <s_m_source_file>
/data/baiqing/PycharmProjects/Reinvent-master-3.2/result/LINK_invent/BTK/process_docking_weight1_custom_product_contain_oxygen_bond_distance_aromatic_linkinvent_7_9_3/rearranged_h_0103.sdf

> <i_m_source_file_index>
44

> <r_mmod_Potential_Energy-OPLS-2005>
-84.5935134887695

> <r_mmod_Stretch_Energy-OPLS-2005>
32.8816604614258

> <r_mmod_Bend_Energy-OPLS-2005>
102.66178894043

> <r_mmod_Torsional_Energy-OPLS-2005>
226.467956542969

> <r_mmod_Improper_Torsional_Energy-OPLS-2005>
6.67683744430542

> <r_mmod_Van_der_Waal_Energy-OPLS-2005>
160.701400756836

> <r_mmod_Electrostatic_Energy-OPLS-2005>
-391.289733886719

> <r_mmod_Solvation_Energy-OPLS-2005>
-231.301605224609

> <b_mmod_Minimization_Converged-OPLS-2005>
0

> <r_mmod_RMS_Derivative-OPLS-2005>
1.6998987197876

$$$$
44
                    3D
 Structure written by MMmdl.
162171  0  0  1  0            999 V2000
  -30.7411  -14.4679   20.6663 C   0  0  0  0  0  0
  -30.4110  -12.3382   19.4387 C   0  0  0  0  0  0
  -29.4927  -12.5553   18.2225 C   0  0  0  0  0  0
  -28.0189  -12.3813   18.6311 C   0  0  0  0  0  0
  -27.6617  -13.2150   19.8899 C   0  0  2  0  0  0
  -28.6960  -12.9958   21.0180 C   0  0  0  0  0  0
  -25.2561  -13.8170   20.5696 C   0  0  0  0  0  0
  -24.1828  -13.0432   20.9195 C   0  0  0  0  0  0
  -24.6395  -11.6900   20.8744 C   0  0  0  0  0  0
  -23.9060  -10.4280   21.0408 C   0  0  0  0  0  0
  -24.3597   -9.4193   21.9193 C   0  0  0  0  0  0
  -23.6278   -8.2232   22.0754 C   0  0  0  0  0  0
  -22.4268   -8.0256   21.3534 C   0  0  0  0  0  0
  -21.9913   -9.0229   20.4632 C   0  0  0  0  0  0
  -22.7240  -10.2115   20.3042 C   0  0  0  0  0  0
  -21.6850   -6.0709   22.5275 C   0  0  0  0  0  0
  -21.4020   -6.5615   23.8209 C   0  0  0  0  0  0
  -21.3668   -5.6767   24.9173 C   0  0  0  0  0  0
  -21.6046   -4.3024   24.7233 C   0  0  0  0  0  0
  -21.8818   -3.8116   23.4353 C   0  0  0  0  0  0
  -21.9187   -4.6935   22.3400 C   0  0  0  0  0  0
  -22.7840  -13.5205   21.1867 C   0  0  0  0  0  0
  -22.1671   -4.2114   21.0983 F   0  0  0  0  0  0
  -21.5629   -3.4512   25.7752 F   0  0  0  0  0  0
  -30.0317  -13.3119   20.4797 N   0  0  0  0  0  0
  -26.3021  -12.9365   20.3429 N   0  0  0  0  0  0
  -25.9336  -11.6510   20.5818 N   0  0  0  0  0  0
  -22.0450  -12.8166   22.0374 N   0  0  0  0  0  0
  -25.4281  -15.1889   20.4081 N   0  0  0  0  0  0
  -31.7558  -14.7383   20.0126 O   0  0  0  0  0  0
  -21.6630   -6.8854   21.4235 O   0  0  0  0  0  0
  -22.3531  -14.5542   20.6755 O   0  0  0  0  0  0
  -24.6191  -31.8640   23.2111 C   0  0  0  0  0  0
  -25.9086  -32.4778   23.8400 C   0  0  1  0  0  0
  -27.2184  -27.3867   20.1067 C   0  0  0  0  0  0
  -25.5966  -33.8578   24.2360 N   0  0  0  0  0  0
  -23.4082  -30.4910   21.5482 C   0  0  2  0  0  0
  -24.8532  -28.9546   20.1108 C   0  0  0  0  0  0
  -22.7445  -29.4664   22.4970 C   0  0  0  0  0  0
  -18.0288  -28.1399   22.8465 C   0  0  0  0  0  0
  -24.1470  -36.7273   23.2633 C   0  0  0  0  0  0
  -25.9395  -30.8151   21.3698 C   0  0  0  0  0  0
  -26.0139  -29.4441   20.7223 C   0  0  0  0  0  0
  -27.2015  -28.6662   20.7206 C   0  0  0  0  0  0
  -26.0553  -26.9509   19.4428 C   0  0  0  0  0  0
  -24.8727  -27.7106   19.4611 C   0  0  0  0  0  0
  -23.6170  -29.8249   20.1620 C   0  0  0  0  0  0
  -25.4097  -36.3080   24.0344 C   0  0  1  0  0  0
  -20.5881  -28.3679   23.1292 C   0  0  2  0  0  0
  -20.6779  -26.9406   22.5407 C   0  0  0  0  0  0
  -19.5745  -26.6390   21.5216 C   0  0  0  0  0  0
  -18.1919  -26.7942   22.1610 C   0  0  0  0  0  0
  -19.1538  -28.8855   23.2865 C   0  0  0  0  0  0
  -18.9469  -30.1464   23.8870 C   0  0  0  0  0  0
  -17.6472  -30.6587   24.0561 C   0  0  0  0  0  0
  -25.9034  -34.9443   23.5134 C   0  0  0  0  0  0
  -16.5360  -29.9078   23.6347 C   0  0  0  0  0  0
  -16.7280  -28.6509   23.0342 C   0  0  0  0  0  0
  -26.4511  -31.6554   25.0724 C   0  0  0  0  0  0
  -25.3781  -31.3658   26.1469 C   0  0  0  0  0  0
  -27.0359  -30.3007   24.6115 C   0  0  0  0  0  0
  -27.6081  -32.4260   25.7518 C   0  0  0  0  0  0
  -27.5564  -37.1787   24.8486 C   0  0  0  0  0  0
  -21.4174  -29.3032   22.3696 N   0  0  0  0  0  0
  -26.4283  -37.3769   23.9421 N   0  0  0  0  0  0
  -24.6736  -31.0721   22.1011 N   0  0  0  0  0  0
  -23.4198  -28.8202   23.3027 O   0  0  0  0  0  0
  -28.3508  -26.5887   20.0928 O   0  0  0  0  0  0
  -26.5545  -34.8887   22.4663 O   0  0  0  0  0  0
  -23.5386  -32.1395   23.7510 O   0  0  0  0  0  0
  -27.4224  -17.7843   22.0606 C   0  0  0  0  0  0
  -28.2039  -16.6156   22.0867 C   0  0  0  0  0  0
  -27.9530  -18.9836   21.5526 C   0  0  0  0  0  0
  -30.0440  -17.8282   21.0567 C   0  0  0  0  0  0
  -29.5299  -16.6104   21.5997 C   0  0  0  0  0  0
  -29.2645  -19.0277   21.0265 C   0  0  0  0  0  0
  -27.9534  -21.2137   19.1233 C   0  0  0  0  0  0
  -30.3473  -15.3699   21.8451 C   0  0  0  0  0  0
  -26.9060  -22.2914   18.8236 C   0  0  0  0  0  0
  -26.8681  -23.4125   19.8677 C   0  0  0  0  0  0
  -29.1275  -22.8084   20.6611 C   0  0  0  0  0  0
  -28.2786  -23.9884   20.0515 C   0  0  2  0  0  0
  -29.8454  -20.3540   20.4588 C   0  0  0  0  0  0
  -28.3060  -25.3453   20.8557 C   0  0  0  0  0  0
  -30.6850  -15.0729   23.0321 N   0  0  0  0  0  0
  -28.9008  -21.4477   20.0693 N   0  0  0  0  0  0
  -27.8796  -20.1545   18.4963 O   0  0  0  0  0  0
  -31.4611  -12.4231   19.1530 H   0  0  0  0  0  0
  -30.2936  -11.3235   19.8241 H   0  0  0  0  0  0
  -29.7532  -11.8654   17.4189 H   0  0  0  0  0  0
  -29.6498  -13.5597   17.8274 H   0  0  0  0  0  0
  -27.8479  -11.3215   18.8286 H   0  0  0  0  0  0
  -27.3621  -12.6469   17.8020 H   0  0  0  0  0  0
  -27.7065  -14.2667   19.6030 H   0  0  0  0  0  0
  -28.6770  -11.9597   21.3588 H   0  0  0  0  0  0
  -28.4241  -13.5824   21.8943 H   0  0  0  0  0  0
  -25.2741   -9.5671   22.4774 H   0  0  0  0  0  0
  -23.9953   -7.4647   22.7524 H   0  0  0  0  0  0
  -21.0834   -8.8765   19.8965 H   0  0  0  0  0  0
  -22.3707  -10.9635   19.6132 H   0  0  0  0  0  0
  -21.2029   -7.6127   23.9708 H   0  0  0  0  0  0
  -21.1505   -6.0504   25.9083 H   0  0  0  0  0  0
  -22.0602   -2.7571   23.2872 H   0  0  0  0  0  0
  -22.3962  -11.9713   22.4622 H   0  0  0  0  0  0
  -21.1133  -13.1277   22.2693 H   0  0  0  0  0  0
  -24.6712  -15.8520   20.5352 H   0  0  0  0  0  0
  -26.2898  -15.6295   20.1111 H   0  0  0  0  0  0
  -26.7132  -32.5459   23.1131 H   0  0  0  0  0  0
  -25.0303  -33.9745   25.0642 H   0  0  0  0  0  0
  -22.7017  -31.3116   21.4081 H   0  0  0  0  0  0
  -23.3732  -35.9598   23.3305 H   0  0  0  0  0  0
  -24.3556  -36.8869   22.2039 H   0  0  0  0  0  0
  -23.7211  -37.6482   23.6631 H   0  0  0  0  0  0
  -26.0550  -31.5753   20.5960 H   0  0  0  0  0  0
  -26.8273  -30.8704   21.9854 H   0  0  0  0  0  0
  -28.0953  -29.0354   21.2028 H   0  0  0  0  0  0
  -26.0640  -26.0417   18.8689 H   0  0  0  0  0  0
  -23.9935  -27.3491   18.9460 H   0  0  0  0  0  0
  -23.7222  -30.5985   19.4008 H   0  0  0  0  0  0
  -22.7401  -29.2453   19.8677 H   0  0  0  0  0  0
  -25.1257  -36.1955   25.0835 H   0  0  0  0  0  0
  -20.9962  -28.3217   24.1416 H   0  0  0  0  0  0
  -20.5729  -26.2259   23.3589 H   0  0  0  0  0  0
  -21.6639  -26.7471   22.1159 H   0  0  0  0  0  0
  -19.6909  -25.6314   21.1208 H   0  0  0  0  0  0
  -19.6689  -27.3230   20.6771 H   0  0  0  0  0  0
  -17.4209  -26.6721   21.3993 H   0  0  0  0  0  0
  -18.0269  -26.0111   22.9021 H   0  0  0  0  0  0
  -19.7958  -30.7287   24.2201 H   0  0  0  0  0  0
  -17.5035  -31.6260   24.5172 H   0  0  0  0  0  0
  -15.5357  -30.2956   23.7714 H   0  0  0  0  0  0
  -15.8687  -28.0830   22.7047 H   0  0  0  0  0  0
  -24.5994  -30.6953   25.7823 H   0  0  0  0  0  0
  -24.8919  -32.2794   26.4902 H   0  0  0  0  0  0
  -25.8140  -30.8870   27.0246 H   0  0  0  0  0  0
  -26.2908  -29.6730   24.1215 H   0  0  0  0  0  0
  -27.4181  -29.7291   25.4584 H   0  0  0  0  0  0
  -27.8704  -30.4335   23.9223 H   0  0  0  0  0  0
  -27.2744  -33.3593   26.2072 H   0  0  0  0  0  0
  -28.3943  -32.6747   25.0378 H   0  0  0  0  0  0
  -28.0672  -31.8360   26.5466 H   0  0  0  0  0  0
  -28.2602  -38.0070   24.7541 H   0  0  0  0  0  0
  -28.1040  -36.2602   24.6315 H   0  0  0  0  0  0
  -27.2271  -37.1449   25.8888 H   0  0  0  0  0  0
  -20.9366  -29.8742   21.6888 H   0  0  0  0  0  0
  -26.0158  -38.2830   24.1466 H   0  0  0  0  0  0
  -26.4150  -17.7589   22.4518 H   0  0  0  0  0  0
  -27.7828  -15.7233   22.5266 H   0  0  0  0  0  0
  -27.3307  -19.8682   21.5666 H   0  0  0  0  0  0
  -31.0641  -17.8475   20.6979 H   0  0  0  0  0  0
  -25.9242  -21.8233   18.7447 H   0  0  0  0  0  0
  -27.1335  -22.7062   17.8418 H   0  0  0  0  0  0
  -26.4957  -23.0235   20.8185 H   0  0  0  0  0  0
  -26.1441  -24.1533   19.5587 H   0  0  0  0  0  0
  -28.9193  -22.7402   21.7289 H   0  0  0  0  0  0
  -30.1862  -23.0551   20.5692 H   0  0  0  0  0  0
  -28.6934  -24.2104   19.0668 H   0  0  0  0  0  0
  -30.4341  -20.1008   19.5756 H   0  0  0  0  0  0
  -30.5643  -20.7366   21.1852 H   0  0  0  0  0  0
  -29.2193  -25.3544   21.4527 H   0  0  0  0  0  0
  -27.4966  -25.3694   21.5892 H   0  0  0  0  0  0
  -30.3417  -15.7725   23.6797 H   0  0  0  0  0  0
  1 25  1  0  0  0
  1 30  2  0  0  0
  1 78  1  0  0  0
  2  3  1  0  0  0
  2 25  1  0  0  0
  2 88  1  0  0  0
  2 89  1  0  0  0
  3  4  1  0  0  0
  3 90  1  0  0  0
  3 91  1  0  0  0
  4  5  1  0  0  0
  4 92  1  0  0  0
  4 93  1  0  0  0
  5  6  1  0  0  0
  5 26  1  0  0  0
  5 94  1  0  0  0
  6 25  1  0  0  0
  6 95  1  0  0  0
  6 96  1  0  0  0
  7  8  2  0  0  0
  7 26  1  0  0  0
  7 29  1  0  0  0
  8  9  1  0  0  0
  8 22  1  0  0  0
  9 10  1  0  0  0
  9 27  2  0  0  0
 10 11  2  0  0  0
 10 15  1  0  0  0
 11 12  1  0  0  0
 11 97  1  0  0  0
 12 13  2  0  0  0
 12 98  1  0  0  0
 13 14  1  0  0  0
 13 31  1  0  0  0
 14 15  2  0  0  0
 14 99  1  0  0  0
 15100  1  0  0  0
 16 17  2  0  0  0
 16 21  1  0  0  0
 16 31  1  0  0  0
 17 18  1  0  0  0
 17101  1  0  0  0
 18 19  2  0  0  0
 18102  1  0  0  0
 19 20  1  0  0  0
 19 24  1  0  0  0
 20 21  2  0  0  0
 20103  1  0  0  0
 21 23  1  0  0  0
 22 28  1  0  0  0
 22 32  2  0  0  0
 26 27  1  0  0  0
 28104  1  0  0  0
 28105  1  0  0  0
 29106  1  0  0  0
 29107  1  0  0  0
 33 34  1  0  0  0
 33 66  1  0  0  0
 33 70  2  0  0  0
 34 36  1  0  0  0
 34 59  1  0  0  0
 34108  1  0  0  0
 35 44  2  0  0  0
 35 45  1  0  0  0
 35 68  1  0  0  0
 36 56  1  0  0  0
 36109  1  0  0  0
 37 39  1  0  0  0
 37 47  1  0  0  0
 37 66  1  0  0  0
 37110  1  0  0  0
 38 43  2  0  0  0
 38 46  1  0  0  0
 38 47  1  0  0  0
 39 64  1  0  0  0
 39 67  2  0  0  0
 40 52  1  0  0  0
 40 53  2  0  0  0
 40 58  1  0  0  0
 41111  1  0  0  0
 41112  1  0  0  0
 41113  1  0  0  0
 41 48  1  0  0  0
 42 43  1  0  0  0
 42 66  1  0  0  0
 42114  1  0  0  0
 42115  1  0  0  0
 43 44  1  0  0  0
 44116  1  0  0  0
 45 46  2  0  0  0
 45117  1  0  0  0
 46118  1  0  0  0
 47119  1  0  0  0
 47120  1  0  0  0
 48 56  1  0  0  0
 48 65  1  0  0  0
 48121  1  0  0  0
 49 50  1  0  0  0
 49 53  1  0  0  0
 49 64  1  0  0  0
 49122  1  0  0  0
 50 51  1  0  0  0
 50123  1  0  0  0
 50124  1  0  0  0
 51 52  1  0  0  0
 51125  1  0  0  0
 51126  1  0  0  0
 52127  1  0  0  0
 52128  1  0  0  0
 53 54  1  0  0  0
 54 55  2  0  0  0
 54129  1  0  0  0
 55 57  1  0  0  0
 55130  1  0  0  0
 56 69  2  0  0  0
 57 58  2  0  0  0
 57131  1  0  0  0
 58132  1  0  0  0
 59 60  1  0  0  0
 59 61  1  0  0  0
 59 62  1  0  0  0
 60133  1  0  0  0
 60134  1  0  0  0
 60135  1  0  0  0
 61136  1  0  0  0
 61137  1  0  0  0
 61138  1  0  0  0
 62139  1  0  0  0
 62140  1  0  0  0
 62141  1  0  0  0
 63 65  1  0  0  0
 63142  1  0  0  0
 63143  1  0  0  0
 63144  1  0  0  0
 64145  1  0  0  0
 65146  1  0  0  0
 68 84  1  0  0  0
 71 72  2  0  0  0
 71 73  1  0  0  0
 71147  1  0  0  0
 72 75  1  0  0  0
 72148  1  0  0  0
 73 76  2  0  0  0
 73149  1  0  0  0
 74 75  2  0  0  0
 74 76  1  0  0  0
 74150  1  0  0  0
 75 78  1  0  0  0
 76 83  1  0  0  0
 77 79  1  0  0  0
 77 86  1  0  0  0
 77 87  2  0  0  0
 78 85  2  0  0  0
 79 80  1  0  0  0
 79151  1  0  0  0
 79152  1  0  0  0
 80 82  1  0  0  0
 80153  1  0  0  0
 80154  1  0  0  0
 81 82  1  0  0  0
 81 86  1  0  0  0
 81155  1  0  0  0
 81156  1  0  0  0
 82 84  1  0  0  0
 82157  1  0  0  0
 83 86  1  0  0  0
 83158  1  0  0  0
 83159  1  0  0  0
 84160  1  0  0  0
 84161  1  0  0  0
 85162  1  0  0  0
M  ISO  4   1 100  68 101  78 100  84 101
M  END
> <chiral flag>
0

> <version>
0

> <s_m_source_file>
/data/baiqing/PycharmProjects/Reinvent-master-3.2/result/LINK_invent/BTK/process_docking_weight1_custom_product_contain_oxygen_bond_distance_aromatic_linkinvent_7_9_3/rearranged_h_0103.sdf

> <i_m_source_file_index>
45

> <r_mmod_Potential_Energy-OPLS-2005>
200.525192260742

> <r_mmod_Stretch_Energy-OPLS-2005>
61.1755523681641

> <r_mmod_Bend_Energy-OPLS-2005>
123.437767028809

> <r_mmod_Torsional_Energy-OPLS-2005>
277.756408691406

> <r_mmod_Improper_Torsional_Energy-OPLS-2005>
3.85442519187927

> <r_mmod_Van_der_Waal_Energy-OPLS-2005>
149.738220214844

> <r_mmod_Electrostatic_Energy-OPLS-2005>
-215.625625610352

> <r_mmod_Solvation_Energy-OPLS-2005>
-217.449783325195

> <b_mmod_Minimization_Converged-OPLS-2005>
0

> <r_mmod_RMS_Derivative-OPLS-2005>
2.98802757263184

$$$$
45
                    3D
 Structure written by MMmdl.
162171  0  0  1  0            999 V2000
  -30.6573  -14.6490   20.4839 C   0  0  0  0  0  0
  -30.4175  -12.3944   19.4758 C   0  0  0  0  0  0
  -29.5063  -12.5023   18.2349 C   0  0  0  0  0  0
  -28.0319  -12.3311   18.6485 C   0  0  0  0  0  0
  -27.6436  -13.2273   19.8560 C   0  0  2  0  0  0
  -28.6833  -13.1399   20.9954 C   0  0  0  0  0  0
  -25.2514  -13.8197   20.5703 C   0  0  0  0  0  0
  -24.1802  -13.0452   20.9214 C   0  0  0  0  0  0
  -24.6390  -11.6923   20.8759 C   0  0  0  0  0  0
  -23.9075  -10.4303   21.0423 C   0  0  0  0  0  0
  -24.3628   -9.4213   21.9193 C   0  0  0  0  0  0
  -23.6304   -8.2248   22.0750 C   0  0  0  0  0  0
  -22.4280   -8.0302   21.3550 C   0  0  0  0  0  0
  -21.9931   -9.0273   20.4643 C   0  0  0  0  0  0
  -22.7260  -10.2146   20.3060 C   0  0  0  0  0  0
  -21.6858   -6.0765   22.5288 C   0  0  0  0  0  0
  -21.4016   -6.5659   23.8227 C   0  0  0  0  0  0
  -21.3653   -5.6801   24.9185 C   0  0  0  0  0  0
  -21.6040   -4.3066   24.7220 C   0  0  0  0  0  0
  -21.8817   -3.8172   23.4341 C   0  0  0  0  0  0
  -21.9194   -4.6994   22.3407 C   0  0  0  0  0  0
  -22.7827  -13.5233   21.1895 C   0  0  0  0  0  0
  -22.1658   -4.2188   21.0979 F   0  0  0  0  0  0
  -21.5625   -3.4536   25.7723 F   0  0  0  0  0  0
  -29.9959  -13.4514   20.4198 N   0  0  0  0  0  0
  -26.2938  -12.9399   20.3306 N   0  0  0  0  0  0
  -25.9315  -11.6545   20.5764 N   0  0  0  0  0  0
  -22.0469  -12.8205   22.0431 N   0  0  0  0  0  0
  -25.4231  -15.1924   20.4117 N   0  0  0  0  0  0
  -31.8430  -14.7242   20.1499 O   0  0  0  0  0  0
  -21.6641   -6.8906   21.4247 O   0  0  0  0  0  0
  -22.3514  -14.5553   20.6758 O   0  0  0  0  0  0
  -24.6241  -31.8632   23.2069 C   0  0  0  0  0  0
  -25.9096  -32.4807   23.8385 C   0  0  1  0  0  0
  -27.2148  -27.3173   20.1066 C   0  0  0  0  0  0
  -25.5930  -33.8608   24.2311 N   0  0  0  0  0  0
  -23.4189  -30.4892   21.5486 C   0  0  2  0  0  0
  -24.8622  -28.9493   20.1142 C   0  0  0  0  0  0
  -22.7478  -29.4643   22.4933 C   0  0  0  0  0  0
  -18.0284  -28.1396   22.8482 C   0  0  0  0  0  0
  -24.1479  -36.7266   23.2642 C   0  0  0  0  0  0
  -25.9636  -30.7891   21.3855 C   0  0  0  0  0  0
  -26.0324  -29.4186   20.7214 C   0  0  0  0  0  0
  -27.2093  -28.6130   20.7118 C   0  0  0  0  0  0
  -26.0228  -26.9182   19.4534 C   0  0  0  0  0  0
  -24.8588  -27.7033   19.4755 C   0  0  0  0  0  0
  -23.6362  -29.8343   20.1613 C   0  0  0  0  0  0
  -25.4112  -36.3100   24.0338 C   0  0  1  0  0  0
  -20.5889  -28.3697   23.1277 C   0  0  2  0  0  0
  -20.6780  -26.9424   22.5402 C   0  0  0  0  0  0
  -19.5755  -26.6398   21.5207 C   0  0  0  0  0  0
  -18.1932  -26.7934   22.1621 C   0  0  0  0  0  0
  -19.1540  -28.8861   23.2874 C   0  0  0  0  0  0
  -18.9473  -30.1464   23.8889 C   0  0  0  0  0  0
  -17.6476  -30.6596   24.0571 C   0  0  0  0  0  0
  -25.9050  -34.9470   23.5115 C   0  0  0  0  0  0
  -16.5362  -29.9100   23.6344 C   0  0  0  0  0  0
  -16.7275  -28.6521   23.0353 C   0  0  0  0  0  0
  -26.4473  -31.6623   25.0757 C   0  0  0  0  0  0
  -25.3707  -31.3767   26.1492 C   0  0  0  0  0  0
  -27.0305  -30.3038   24.6219 C   0  0  0  0  0  0
  -27.6035  -32.4366   25.7523 C   0  0  0  0  0  0
  -27.5572  -37.1799   24.8474 C   0  0  0  0  0  0
  -21.4192  -29.3058   22.3677 N   0  0  0  0  0  0
  -26.4285  -37.3805   23.9418 N   0  0  0  0  0  0
  -24.6871  -31.0641   22.1028 N   0  0  0  0  0  0
  -23.4203  -28.8172   23.3004 O   0  0  0  0  0  0
  -28.3412  -26.4785   20.1609 O   0  0  0  0  0  0
  -26.5617  -34.8928   22.4676 O   0  0  0  0  0  0
  -23.5402  -32.1439   23.7389 O   0  0  0  0  0  0
  -29.4916  -19.1413   21.8417 C   0  0  0  0  0  0
  -29.0127  -20.4762   21.9532 C   0  0  0  0  0  0
  -29.0051  -20.6926   19.5578 C   0  0  0  0  0  0
  -29.7549  -18.5379   20.5876 C   0  0  0  0  0  0
  -28.7556  -21.2978   20.8195 C   0  0  0  0  0  0
  -29.4893  -19.3397   19.4320 C   0  0  0  0  0  0
  -26.9632  -22.6641   21.6912 C   0  0  0  0  0  0
  -26.8774  -23.9137   22.5495 C   0  0  0  0  0  0
  -28.2696  -24.5172   22.3861 C   0  0  0  0  0  0
  -28.7434  -23.9893   21.0200 C   0  0  2  0  0  0
  -29.3938  -19.4421   17.0220 C   0  0  0  0  0  0
  -30.5411  -17.1702   20.5019 C   0  0  0  0  0  0
  -28.2227  -25.0142   19.9135 C   0  0  0  0  0  0
  -28.1087  -22.6129   20.9780 N   0  0  0  0  0  0
  -29.9427  -15.8016   20.7060 N   0  0  0  0  0  0
  -26.0633  -21.8184   21.6807 O   0  0  0  0  0  0
  -29.7511  -18.7500   18.2118 O   0  0  0  0  0  0
  -31.4668  -12.4792   19.1888 H   0  0  0  0  0  0
  -30.3157  -11.4126   19.9422 H   0  0  0  0  0  0
  -29.7805  -11.7486   17.4950 H   0  0  0  0  0  0
  -29.6451  -13.4716   17.7525 H   0  0  0  0  0  0
  -27.8906  -11.2820   18.9101 H   0  0  0  0  0  0
  -27.3712  -12.5234   17.8021 H   0  0  0  0  0  0
  -27.6456  -14.2519   19.4832 H   0  0  0  0  0  0
  -28.6937  -12.1428   21.4388 H   0  0  0  0  0  0
  -28.4321  -13.8296   21.8040 H   0  0  0  0  0  0
  -25.2766   -9.5693   22.4781 H   0  0  0  0  0  0
  -24.0028   -7.4633   22.7454 H   0  0  0  0  0  0
  -21.0879   -8.8785   19.8940 H   0  0  0  0  0  0
  -22.3726  -10.9688   19.6174 H   0  0  0  0  0  0
  -21.2002   -7.6162   23.9746 H   0  0  0  0  0  0
  -21.1474   -6.0522   25.9087 H   0  0  0  0  0  0
  -22.0600   -2.7637   23.2818 H   0  0  0  0  0  0
  -22.4071  -11.9837   22.4775 H   0  0  0  0  0  0
  -21.1090  -13.1235   22.2658 H   0  0  0  0  0  0
  -24.6517  -15.8436   20.5125 H   0  0  0  0  0  0
  -26.2736  -15.6347   20.0874 H   0  0  0  0  0  0
  -26.7158  -32.5457   23.1129 H   0  0  0  0  0  0
  -25.0130  -33.9784   25.0487 H   0  0  0  0  0  0
  -22.7117  -31.3092   21.4081 H   0  0  0  0  0  0
  -23.3780  -35.9563   23.3324 H   0  0  0  0  0  0
  -24.3563  -36.8855   22.2051 H   0  0  0  0  0  0
  -23.7192  -37.6454   23.6643 H   0  0  0  0  0  0
  -26.1081  -31.5609   20.6286 H   0  0  0  0  0  0
  -26.8382  -30.8247   22.0228 H   0  0  0  0  0  0
  -28.1071  -28.9724   21.1949 H   0  0  0  0  0  0
  -25.9432  -26.0009   18.8939 H   0  0  0  0  0  0
  -23.9647  -27.3462   18.9825 H   0  0  0  0  0  0
  -23.7678  -30.6164   19.4117 H   0  0  0  0  0  0
  -22.7555  -29.2701   19.8503 H   0  0  0  0  0  0
  -25.1293  -36.1959   25.0835 H   0  0  0  0  0  0
  -20.9967  -28.3260   24.1403 H   0  0  0  0  0  0
  -20.5695  -26.2300   23.3592 H   0  0  0  0  0  0
  -21.6641  -26.7467   22.1182 H   0  0  0  0  0  0
  -19.6916  -25.6311   21.1234 H   0  0  0  0  0  0
  -19.6683  -27.3214   20.6739 H   0  0  0  0  0  0
  -17.4197  -26.6681   21.4028 H   0  0  0  0  0  0
  -18.0329  -26.0082   22.9018 H   0  0  0  0  0  0
  -19.7957  -30.7279   24.2242 H   0  0  0  0  0  0
  -17.5045  -31.6275   24.5183 H   0  0  0  0  0  0
  -15.5368  -30.3008   23.7683 H   0  0  0  0  0  0
  -15.8668  -28.0854   22.7062 H   0  0  0  0  0  0
  -24.5907  -30.7076   25.7838 H   0  0  0  0  0  0
  -24.8867  -32.2932   26.4879 H   0  0  0  0  0  0
  -25.8049  -30.8996   27.0288 H   0  0  0  0  0  0
  -26.2876  -29.6824   24.1207 H   0  0  0  0  0  0
  -27.3947  -29.7270   25.4728 H   0  0  0  0  0  0
  -27.8777  -30.4315   23.9482 H   0  0  0  0  0  0
  -27.2646  -33.3682   26.2067 H   0  0  0  0  0  0
  -28.3859  -32.6905   25.0362 H   0  0  0  0  0  0
  -28.0678  -31.8512   26.5469 H   0  0  0  0  0  0
  -28.2611  -38.0080   24.7539 H   0  0  0  0  0  0
  -28.1051  -36.2618   24.6295 H   0  0  0  0  0  0
  -27.2285  -37.1436   25.8876 H   0  0  0  0  0  0
  -20.9359  -29.8787   21.6903 H   0  0  0  0  0  0
  -26.0168  -38.2869   24.1458 H   0  0  0  0  0  0
  -29.6976  -18.5867   22.7470 H   0  0  0  0  0  0
  -28.8253  -20.8692   22.9435 H   0  0  0  0  0  0
  -28.8018  -21.2933   18.6837 H   0  0  0  0  0  0
  -26.6593  -23.6730   23.5901 H   0  0  0  0  0  0
  -26.0973  -24.5715   22.1676 H   0  0  0  0  0  0
  -28.9241  -24.1522   23.1781 H   0  0  0  0  0  0
  -28.2557  -25.6048   22.4616 H   0  0  0  0  0  0
  -29.8329  -23.9323   20.9943 H   0  0  0  0  0  0
  -28.3221  -19.6403   16.9821 H   0  0  0  0  0  0
  -29.6394  -18.8182   16.1620 H   0  0  0  0  0  0
  -29.9417  -20.3797   16.9186 H   0  0  0  0  0  0
  -31.3516  -17.2517   21.2274 H   0  0  0  0  0  0
  -31.0516  -17.1545   19.5387 H   0  0  0  0  0  0
  -27.1993  -24.7129   19.7287 H   0  0  0  0  0  0
  -28.7396  -24.8033   18.9766 H   0  0  0  0  0  0
  -28.9635  -15.7307   20.9394 H   0  0  0  0  0  0
  1 25  1  0  0  0
  1 30  2  0  0  0
  1 85  1  0  0  0
  2  3  1  0  0  0
  2 25  1  0  0  0
  2 88  1  0  0  0
  2 89  1  0  0  0
  3  4  1  0  0  0
  3 90  1  0  0  0
  3 91  1  0  0  0
  4  5  1  0  0  0
  4 92  1  0  0  0
  4 93  1  0  0  0
  5  6  1  0  0  0
  5 26  1  0  0  0
  5 94  1  0  0  0
  6 25  1  0  0  0
  6 95  1  0  0  0
  6 96  1  0  0  0
  7  8  2  0  0  0
  7 26  1  0  0  0
  7 29  1  0  0  0
  8  9  1  0  0  0
  8 22  1  0  0  0
  9 10  1  0  0  0
  9 27  2  0  0  0
 10 11  2  0  0  0
 10 15  1  0  0  0
 11 12  1  0  0  0
 11 97  1  0  0  0
 12 13  2  0  0  0
 12 98  1  0  0  0
 13 14  1  0  0  0
 13 31  1  0  0  0
 14 15  2  0  0  0
 14 99  1  0  0  0
 15100  1  0  0  0
 16 17  2  0  0  0
 16 21  1  0  0  0
 16 31  1  0  0  0
 17 18  1  0  0  0
 17101  1  0  0  0
 18 19  2  0  0  0
 18102  1  0  0  0
 19 20  1  0  0  0
 19 24  1  0  0  0
 20 21  2  0  0  0
 20103  1  0  0  0
 21 23  1  0  0  0
 22 28  1  0  0  0
 22 32  2  0  0  0
 26 27  1  0  0  0
 28104  1  0  0  0
 28105  1  0  0  0
 29106  1  0  0  0
 29107  1  0  0  0
 33 34  1  0  0  0
 33 66  1  0  0  0
 33 70  2  0  0  0
 34 36  1  0  0  0
 34 59  1  0  0  0
 34108  1  0  0  0
 35 44  2  0  0  0
 35 45  1  0  0  0
 35 68  1  0  0  0
 36 56  1  0  0  0
 36109  1  0  0  0
 37 39  1  0  0  0
 37 47  1  0  0  0
 37 66  1  0  0  0
 37110  1  0  0  0
 38 43  2  0  0  0
 38 46  1  0  0  0
 38 47  1  0  0  0
 39 64  1  0  0  0
 39 67  2  0  0  0
 40 52  1  0  0  0
 40 53  2  0  0  0
 40 58  1  0  0  0
 41111  1  0  0  0
 41112  1  0  0  0
 41113  1  0  0  0
 41 48  1  0  0  0
 42 43  1  0  0  0
 42 66  1  0  0  0
 42114  1  0  0  0
 42115  1  0  0  0
 43 44  1  0  0  0
 44116  1  0  0  0
 45 46  2  0  0  0
 45117  1  0  0  0
 46118  1  0  0  0
 47119  1  0  0  0
 47120  1  0  0  0
 48 56  1  0  0  0
 48 65  1  0  0  0
 48121  1  0  0  0
 49 50  1  0  0  0
 49 53  1  0  0  0
 49 64  1  0  0  0
 49122  1  0  0  0
 50 51  1  0  0  0
 50123  1  0  0  0
 50124  1  0  0  0
 51 52  1  0  0  0
 51125  1  0  0  0
 51126  1  0  0  0
 52127  1  0  0  0
 52128  1  0  0  0
 53 54  1  0  0  0
 54 55  2  0  0  0
 54129  1  0  0  0
 55 57  1  0  0  0
 55130  1  0  0  0
 56 69  2  0  0  0
 57 58  2  0  0  0
 57131  1  0  0  0
 58132  1  0  0  0
 59 60  1  0  0  0
 59 61  1  0  0  0
 59 62  1  0  0  0
 60133  1  0  0  0
 60134  1  0  0  0
 60135  1  0  0  0
 61136  1  0  0  0
 61137  1  0  0  0
 61138  1  0  0  0
 62139  1  0  0  0
 62140  1  0  0  0
 62141  1  0  0  0
 63 65  1  0  0  0
 63142  1  0  0  0
 63143  1  0  0  0
 63144  1  0  0  0
 64145  1  0  0  0
 65146  1  0  0  0
 68 83  1  0  0  0
 71 72  2  0  0  0
 71 74  1  0  0  0
 71147  1  0  0  0
 72 75  1  0  0  0
 72148  1  0  0  0
 73 75  2  0  0  0
 73 76  1  0  0  0
 73149  1  0  0  0
 74 76  2  0  0  0
 74 82  1  0  0  0
 75 84  1  0  0  0
 76 87  1  0  0  0
 77 78  1  0  0  0
 77 84  1  0  0  0
 77 86  2  0  0  0
 78 79  1  0  0  0
 78150  1  0  0  0
 78151  1  0  0  0
 79 80  1  0  0  0
 79152  1  0  0  0
 79153  1  0  0  0
 80 83  1  0  0  0
 80 84  1  0  0  0
 80154  1  0  0  0
 81 87  1  0  0  0
 81155  1  0  0  0
 81156  1  0  0  0
 81157  1  0  0  0
 82 85  1  0  0  0
 82158  1  0  0  0
 82159  1  0  0  0
 83160  1  0  0  0
 83161  1  0  0  0
 85162  1  0  0  0
M  ISO  4   1 100  68 101  83 101  85 100
M  END
> <chiral flag>
0

> <version>
0

> <s_m_source_file>
/data/baiqing/PycharmProjects/Reinvent-master-3.2/result/LINK_invent/BTK/process_docking_weight1_custom_product_contain_oxygen_bond_distance_aromatic_linkinvent_7_9_3/rearranged_h_0103.sdf

> <i_m_source_file_index>
46

> <r_mmod_Potential_Energy-OPLS-2005>
184.85009765625

> <r_mmod_Stretch_Energy-OPLS-2005>
89.3598785400391

> <r_mmod_Bend_Energy-OPLS-2005>
189.528900146484

> <r_mmod_Torsional_Energy-OPLS-2005>
311.722778320312

> <r_mmod_Improper_Torsional_Energy-OPLS-2005>
8.24344158172607

> <r_mmod_Van_der_Waal_Energy-OPLS-2005>
154.018081665039

> <r_mmod_Electrostatic_Energy-OPLS-2005>
-396.776458740234

> <r_mmod_Solvation_Energy-OPLS-2005>
-224.580383300781

> <b_mmod_Minimization_Converged-OPLS-2005>
0

> <r_mmod_RMS_Derivative-OPLS-2005>
2.51061654090881

$$$$
46
                    3D
 Structure written by MMmdl.
162170  0  0  1  0            999 V2000
  -30.7479  -14.4356   20.6272 C   0  0  0  0  0  0
  -30.4173  -12.2907   19.4112 C   0  0  0  0  0  0
  -29.4894  -12.5290   18.2070 C   0  0  0  0  0  0
  -28.0148  -12.3746   18.6229 C   0  0  0  0  0  0
  -27.6638  -13.2086   19.8844 C   0  0  2  0  0  0
  -28.6964  -12.9790   21.0079 C   0  0  0  0  0  0
  -25.2597  -13.8181   20.5703 C   0  0  0  0  0  0
  -24.1839  -13.0461   20.9163 C   0  0  0  0  0  0
  -24.6386  -11.6920   20.8719 C   0  0  0  0  0  0
  -23.9068  -10.4288   21.0373 C   0  0  0  0  0  0
  -24.3625   -9.4201   21.9163 C   0  0  0  0  0  0
  -23.6293   -8.2237   22.0745 C   0  0  0  0  0  0
  -22.4269   -8.0277   21.3536 C   0  0  0  0  0  0
  -21.9906   -9.0246   20.4627 C   0  0  0  0  0  0
  -22.7237  -10.2119   20.3022 C   0  0  0  0  0  0
  -21.6856   -6.0731   22.5275 C   0  0  0  0  0  0
  -21.4016   -6.5634   23.8208 C   0  0  0  0  0  0
  -21.3653   -5.6784   24.9169 C   0  0  0  0  0  0
  -21.6061   -4.3050   24.7219 C   0  0  0  0  0  0
  -21.8821   -3.8141   23.4335 C   0  0  0  0  0  0
  -21.9192   -4.6961   22.3392 C   0  0  0  0  0  0
  -22.7853  -13.5239   21.1821 C   0  0  0  0  0  0
  -22.1662   -4.2141   21.0970 F   0  0  0  0  0  0
  -21.5622   -3.4532   25.7732 F   0  0  0  0  0  0
  -30.0334  -13.2410   20.4579 N   0  0  0  0  0  0
  -26.3038  -12.9352   20.3415 N   0  0  0  0  0  0
  -25.9314  -11.6500   20.5772 N   0  0  0  0  0  0
  -22.0511  -12.8205   22.0373 N   0  0  0  0  0  0
  -25.4363  -15.1898   20.4136 N   0  0  0  0  0  0
  -31.8175  -14.6987   20.0722 O   0  0  0  0  0  0
  -21.6646   -6.8862   21.4228 O   0  0  0  0  0  0
  -22.3521  -14.5543   20.6668 O   0  0  0  0  0  0
  -24.6114  -31.8696   23.2115 C   0  0  0  0  0  0
  -25.9019  -32.4833   23.8409 C   0  0  1  0  0  0
  -27.2429  -27.4578   20.0733 C   0  0  0  0  0  0
  -25.5861  -33.8630   24.2334 N   0  0  0  0  0  0
  -23.3989  -30.4926   21.5516 C   0  0  2  0  0  0
  -24.8411  -28.9583   20.1191 C   0  0  0  0  0  0
  -22.7404  -29.4687   22.5020 C   0  0  0  0  0  0
  -18.0319  -28.1334   22.8469 C   0  0  0  0  0  0
  -24.1479  -36.7335   23.2645 C   0  0  0  0  0  0
  -25.9232  -30.8380   21.3607 C   0  0  0  0  0  0
  -25.9997  -29.4722   20.7122 C   0  0  0  0  0  0
  -27.1988  -28.7274   20.6906 C   0  0  0  0  0  0
  -26.0551  -26.9454   19.4985 C   0  0  0  0  0  0
  -24.8620  -27.6890   19.5163 C   0  0  0  0  0  0
  -23.6038  -29.8245   20.1666 C   0  0  0  0  0  0
  -25.4100  -36.3125   24.0344 C   0  0  1  0  0  0
  -20.5891  -28.3668   23.1377 C   0  0  2  0  0  0
  -20.6809  -26.9400   22.5519 C   0  0  0  0  0  0
  -19.5872  -26.6423   21.5235 C   0  0  0  0  0  0
  -18.2012  -26.7908   22.1579 C   0  0  0  0  0  0
  -19.1537  -28.8798   23.2932 C   0  0  0  0  0  0
  -18.9445  -30.1390   23.8941 C   0  0  0  0  0  0
  -17.6458  -30.6547   24.0509 C   0  0  0  0  0  0
  -25.9034  -34.9486   23.5142 C   0  0  0  0  0  0
  -16.5375  -29.9076   23.6227 C   0  0  0  0  0  0
  -16.7314  -28.6497   23.0258 C   0  0  0  0  0  0
  -26.4451  -31.6590   25.0722 C   0  0  0  0  0  0
  -25.3729  -31.3677   26.1487 C   0  0  0  0  0  0
  -27.0290  -30.3050   24.6049 C   0  0  0  0  0  0
  -27.6020  -32.4318   25.7480 C   0  0  0  0  0  0
  -27.5583  -37.1817   24.8463 C   0  0  0  0  0  0
  -21.4127  -29.3046   22.3754 N   0  0  0  0  0  0
  -26.4294  -37.3790   23.9408 N   0  0  0  0  0  0
  -24.6622  -31.0811   22.1003 N   0  0  0  0  0  0
  -23.4176  -28.8256   23.3068 O   0  0  0  0  0  0
  -28.4522  -26.7932   20.0521 O   0  0  0  0  0  0
  -26.5608  -34.8918   22.4707 O   0  0  0  0  0  0
  -23.5324  -32.1446   23.7549 O   0  0  0  0  0  0
  -27.4011  -18.4481   23.0310 C   0  0  0  0  0  0
  -27.4077  -19.6526   22.3059 C   0  0  0  0  0  0
  -29.3549  -18.8796   21.0797 C   0  0  0  0  0  0
  -28.3741  -17.4527   22.8000 C   0  0  0  0  0  0
  -29.3625  -17.6619   21.7979 C   0  0  0  0  0  0
  -28.3954  -19.8828   21.3206 C   0  0  0  0  0  0
  -28.3086  -16.1994   23.6565 C   0  0  0  0  0  0
  -31.6410  -16.8746   22.5319 C   0  0  0  0  0  0
  -28.0950  -24.4060   20.3836 C   0  0  0  0  0  0
  -27.6769  -23.1215   19.6537 C   0  0  0  0  0  0
  -28.5464  -25.5166   19.4219 C   0  0  0  0  0  0
  -27.3966  -21.9525   20.6098 C   0  0  0  0  0  0
  -30.5052  -16.6828   21.5097 C   0  0  1  0  0  0
  -28.4939  -21.0446   20.5816 O   0  0  0  0  0  0
  -30.0810  -15.3163   21.4172 O   0  0  0  0  0  0
  -31.4624  -12.3993   19.1191 H   0  0  0  0  0  0
  -30.3117  -11.2708   19.7855 H   0  0  0  0  0  0
  -29.7292  -11.8326   17.4022 H   0  0  0  0  0  0
  -29.6532  -13.5311   17.8057 H   0  0  0  0  0  0
  -27.8274  -11.3171   18.8136 H   0  0  0  0  0  0
  -27.3599  -12.6541   17.7979 H   0  0  0  0  0  0
  -27.7150  -14.2576   19.5957 H   0  0  0  0  0  0
  -28.6577  -11.9493   21.3607 H   0  0  0  0  0  0
  -28.4658  -13.5905   21.8783 H   0  0  0  0  0  0
  -25.2759   -9.5689   22.4752 H   0  0  0  0  0  0
  -23.9999   -7.4626   22.7470 H   0  0  0  0  0  0
  -21.0837   -8.8754   19.8932 H   0  0  0  0  0  0
  -22.3685  -10.9660   19.6133 H   0  0  0  0  0  0
  -21.2016   -7.6144   23.9710 H   0  0  0  0  0  0
  -21.1479   -6.0511   25.9072 H   0  0  0  0  0  0
  -22.0612   -2.7604   23.2838 H   0  0  0  0  0  0
  -22.4116  -11.9858   22.4761 H   0  0  0  0  0  0
  -21.1121  -13.1179   22.2584 H   0  0  0  0  0  0
  -24.6834  -15.8571   20.5402 H   0  0  0  0  0  0
  -26.3148  -15.6264   20.1657 H   0  0  0  0  0  0
  -26.7118  -32.5559   23.1214 H   0  0  0  0  0  0
  -24.9989  -33.9785   25.0466 H   0  0  0  0  0  0
  -22.6864  -31.3071   21.4185 H   0  0  0  0  0  0
  -23.3713  -35.9696   23.3320 H   0  0  0  0  0  0
  -24.3577  -36.8932   22.2057 H   0  0  0  0  0  0
  -23.7248  -37.6559   23.6647 H   0  0  0  0  0  0
  -26.0244  -31.5996   20.5873 H   0  0  0  0  0  0
  -26.8164  -30.8993   21.9709 H   0  0  0  0  0  0
  -28.0978  -29.1272   21.1365 H   0  0  0  0  0  0
  -26.0213  -25.9773   19.0270 H   0  0  0  0  0  0
  -23.9718  -27.2828   19.0546 H   0  0  0  0  0  0
  -23.7126  -30.5987   19.4059 H   0  0  0  0  0  0
  -22.7269  -29.2445   19.8788 H   0  0  0  0  0  0
  -25.1268  -36.2012   25.0836 H   0  0  0  0  0  0
  -21.0004  -28.3188   24.1502 H   0  0  0  0  0  0
  -20.5641  -26.2260   23.3696 H   0  0  0  0  0  0
  -21.6718  -26.7429   22.1364 H   0  0  0  0  0  0
  -19.7108  -25.6369   21.1185 H   0  0  0  0  0  0
  -19.6867  -27.3296   20.6838 H   0  0  0  0  0  0
  -17.4349  -26.6623   21.3927 H   0  0  0  0  0  0
  -18.0428  -26.0037   22.8975 H   0  0  0  0  0  0
  -19.7896  -30.7207   24.2349 H   0  0  0  0  0  0
  -17.5020  -31.6255   24.5068 H   0  0  0  0  0  0
  -15.5413  -30.3056   23.7493 H   0  0  0  0  0  0
  -15.8736  -28.0886   22.6843 H   0  0  0  0  0  0
  -24.5877  -30.7049   25.7825 H   0  0  0  0  0  0
  -24.8937  -32.2840   26.4987 H   0  0  0  0  0  0
  -25.8100  -30.8820   27.0220 H   0  0  0  0  0  0
  -26.2827  -29.6817   24.1113 H   0  0  0  0  0  0
  -27.4124  -29.7283   25.4472 H   0  0  0  0  0  0
  -27.8634  -30.4414   23.9152 H   0  0  0  0  0  0
  -27.2620  -33.3584   26.2117 H   0  0  0  0  0  0
  -28.3793  -32.6922   25.0286 H   0  0  0  0  0  0
  -28.0727  -31.8401   26.5351 H   0  0  0  0  0  0
  -28.2606  -38.0105   24.7475 H   0  0  0  0  0  0
  -28.1059  -36.2628   24.6319 H   0  0  0  0  0  0
  -27.2289  -37.1501   25.8861 H   0  0  0  0  0  0
  -20.9276  -29.8791   21.7009 H   0  0  0  0  0  0
  -26.0197  -38.2879   24.1381 H   0  0  0  0  0  0
  -26.6460  -18.3010   23.7898 H   0  0  0  0  0  0
  -26.6516  -20.3887   22.5411 H   0  0  0  0  0  0
  -30.1151  -19.0638   20.3337 H   0  0  0  0  0  0
  -27.8924  -16.4306   24.6388 H   0  0  0  0  0  0
  -29.2822  -15.7475   23.8319 H   0  0  0  0  0  0
  -27.6646  -15.4582   23.1856 H   0  0  0  0  0  0
  -31.9596  -17.9184   22.5572 H   0  0  0  0  0  0
  -32.5146  -16.2721   22.2784 H   0  0  0  0  0  0
  -31.3320  -16.6115   23.5410 H   0  0  0  0  0  0
  -28.9019  -24.1952   21.0886 H   0  0  0  0  0  0
  -27.2534  -24.7522   20.9861 H   0  0  0  0  0  0
  -28.4309  -22.8336   18.9199 H   0  0  0  0  0  0
  -26.7704  -23.3340   19.0815 H   0  0  0  0  0  0
  -28.0190  -25.4947   18.4675 H   0  0  0  0  0  0
  -29.5921  -25.3483   19.1642 H   0  0  0  0  0  0
  -26.4945  -21.4267   20.2930 H   0  0  0  0  0  0
  -27.2205  -22.3318   21.6183 H   0  0  0  0  0  0
  -30.8988  -16.9658   20.5323 H   0  0  0  0  0  0
  1 25  1  0  0  0
  1 30  2  0  0  0
  1 85  1  0  0  0
  2  3  1  0  0  0
  2 25  1  0  0  0
  2 86  1  0  0  0
  2 87  1  0  0  0
  3  4  1  0  0  0
  3 88  1  0  0  0
  3 89  1  0  0  0
  4  5  1  0  0  0
  4 90  1  0  0  0
  4 91  1  0  0  0
  5  6  1  0  0  0
  5 26  1  0  0  0
  5 92  1  0  0  0
  6 25  1  0  0  0
  6 93  1  0  0  0
  6 94  1  0  0  0
  7  8  2  0  0  0
  7 26  1  0  0  0
  7 29  1  0  0  0
  8  9  1  0  0  0
  8 22  1  0  0  0
  9 10  1  0  0  0
  9 27  2  0  0  0
 10 11  2  0  0  0
 10 15  1  0  0  0
 11 12  1  0  0  0
 11 95  1  0  0  0
 12 13  2  0  0  0
 12 96  1  0  0  0
 13 14  1  0  0  0
 13 31  1  0  0  0
 14 15  2  0  0  0
 14 97  1  0  0  0
 15 98  1  0  0  0
 16 17  2  0  0  0
 16 21  1  0  0  0
 16 31  1  0  0  0
 17 18  1  0  0  0
 17 99  1  0  0  0
 18 19  2  0  0  0
 18100  1  0  0  0
 19 20  1  0  0  0
 19 24  1  0  0  0
 20 21  2  0  0  0
 20101  1  0  0  0
 21 23  1  0  0  0
 22 28  1  0  0  0
 22 32  2  0  0  0
 26 27  1  0  0  0
 28102  1  0  0  0
 28103  1  0  0  0
 29104  1  0  0  0
 29105  1  0  0  0
 33 34  1  0  0  0
 33 66  1  0  0  0
 33 70  2  0  0  0
 34 36  1  0  0  0
 34 59  1  0  0  0
 34106  1  0  0  0
 35 44  2  0  0  0
 35 45  1  0  0  0
 35 68  1  0  0  0
 36 56  1  0  0  0
 36107  1  0  0  0
 37 39  1  0  0  0
 37 47  1  0  0  0
 37 66  1  0  0  0
 37108  1  0  0  0
 38 43  2  0  0  0
 38 46  1  0  0  0
 38 47  1  0  0  0
 39 64  1  0  0  0
 39 67  2  0  0  0
 40 52  1  0  0  0
 40 53  2  0  0  0
 40 58  1  0  0  0
 41109  1  0  0  0
 41110  1  0  0  0
 41111  1  0  0  0
 41 48  1  0  0  0
 42 43  1  0  0  0
 42 66  1  0  0  0
 42112  1  0  0  0
 42113  1  0  0  0
 43 44  1  0  0  0
 44114  1  0  0  0
 45 46  2  0  0  0
 45115  1  0  0  0
 46116  1  0  0  0
 47117  1  0  0  0
 47118  1  0  0  0
 48 56  1  0  0  0
 48 65  1  0  0  0
 48119  1  0  0  0
 49 50  1  0  0  0
 49 53  1  0  0  0
 49 64  1  0  0  0
 49120  1  0  0  0
 50 51  1  0  0  0
 50121  1  0  0  0
 50122  1  0  0  0
 51 52  1  0  0  0
 51123  1  0  0  0
 51124  1  0  0  0
 52125  1  0  0  0
 52126  1  0  0  0
 53 54  1  0  0  0
 54 55  2  0  0  0
 54127  1  0  0  0
 55 57  1  0  0  0
 55128  1  0  0  0
 56 69  2  0  0  0
 57 58  2  0  0  0
 57129  1  0  0  0
 58130  1  0  0  0
 59 60  1  0  0  0
 59 61  1  0  0  0
 59 62  1  0  0  0
 60131  1  0  0  0
 60132  1  0  0  0
 60133  1  0  0  0
 61134  1  0  0  0
 61135  1  0  0  0
 61136  1  0  0  0
 62137  1  0  0  0
 62138  1  0  0  0
 62139  1  0  0  0
 63 65  1  0  0  0
 63140  1  0  0  0
 63141  1  0  0  0
 63142  1  0  0  0
 64143  1  0  0  0
 65144  1  0  0  0
 68 81  1  0  0  0
 71 72  2  0  0  0
 71 74  1  0  0  0
 71145  1  0  0  0
 72 76  1  0  0  0
 72146  1  0  0  0
 73 75  1  0  0  0
 73 76  2  0  0  0
 73147  1  0  0  0
 74 75  2  0  0  0
 74 77  1  0  0  0
 75 83  1  0  0  0
 76 84  1  0  0  0
 77148  1  0  0  0
 77149  1  0  0  0
 77150  1  0  0  0
 78151  1  0  0  0
 78152  1  0  0  0
 78153  1  0  0  0
 78 83  1  0  0  0
 79 80  1  0  0  0
 79 81  1  0  0  0
 79154  1  0  0  0
 79155  1  0  0  0
 80 82  1  0  0  0
 80156  1  0  0  0
 80157  1  0  0  0
 81158  1  0  0  0
 81159  1  0  0  0
 82 84  1  0  0  0
 82160  1  0  0  0
 82161  1  0  0  0
 83 85  1  0  0  0
 83162  1  0  0  0
M  ISO  4   1 100  68 101  81 101  85 100
M  END
> <chiral flag>
0

> <version>
0

> <s_m_source_file>
/data/baiqing/PycharmProjects/Reinvent-master-3.2/result/LINK_invent/BTK/process_docking_weight1_custom_product_contain_oxygen_bond_distance_aromatic_linkinvent_7_9_3/rearranged_h_0103.sdf

> <i_m_source_file_index>
47

> <r_mmod_Potential_Energy-OPLS-2005>
-71.0208206176758

> <r_mmod_Stretch_Energy-OPLS-2005>
34.0786323547363

> <r_mmod_Bend_Energy-OPLS-2005>
104.025207519531

> <r_mmod_Torsional_Energy-OPLS-2005>
163.511825561523

> <r_mmod_Improper_Torsional_Energy-OPLS-2005>
2.36135172843933

> <r_mmod_Van_der_Waal_Energy-OPLS-2005>
157.970977783203

> <r_mmod_Electrostatic_Energy-OPLS-2005>
-355.815368652344

> <r_mmod_Solvation_Energy-OPLS-2005>
-185.739669799805

> <b_mmod_Minimization_Converged-OPLS-2005>
0

> <r_mmod_RMS_Derivative-OPLS-2005>
4.21320915222168

$$$$
47
                    3D
 Structure written by MMmdl.
165174  0  0  1  0            999 V2000
  -29.9100  -16.8664   20.2667 C   0  0  0  0  0  0
  -30.2502  -14.0406   19.4939 C   0  0  0  0  0  0
  -29.5596  -13.0696   18.4332 C   0  0  0  0  0  0
  -28.2709  -12.4400   18.9531 C   0  0  0  0  0  0
  -27.5742  -13.4834   19.8312 C   0  0  2  0  0  0
  -28.4883  -14.3171   20.8342 C   0  0  0  0  0  0
  -25.2120  -13.8604   20.6034 C   0  0  0  0  0  0
  -24.1678  -13.0509   20.9375 C   0  0  0  0  0  0
  -24.6627  -11.7101   20.8753 C   0  0  0  0  0  0
  -23.9345  -10.4353   21.0320 C   0  0  0  0  0  0
  -24.3798   -9.4255   21.9137 C   0  0  0  0  0  0
  -23.6402   -8.2319   22.0744 C   0  0  0  0  0  0
  -22.4375   -8.0359   21.3546 C   0  0  0  0  0  0
  -22.0072   -9.0345   20.4631 C   0  0  0  0  0  0
  -22.7475  -10.2189   20.3006 C   0  0  0  0  0  0
  -21.6895   -6.0788   22.5274 C   0  0  0  0  0  0
  -21.4048   -6.5672   23.8213 C   0  0  0  0  0  0
  -21.3669   -5.6812   24.9166 C   0  0  0  0  0  0
  -21.6042   -4.3074   24.7208 C   0  0  0  0  0  0
  -21.8814   -3.8178   23.4324 C   0  0  0  0  0  0
  -21.9205   -4.7007   22.3388 C   0  0  0  0  0  0
  -22.7627  -13.5071   21.1937 C   0  0  0  0  0  0
  -22.1666   -4.2191   21.0965 F   0  0  0  0  0  0
  -21.5618   -3.4548   25.7714 F   0  0  0  0  0  0
  -29.4209  -15.3190   20.0905 N   0  0  0  0  0  0
  -26.2870  -13.0334   20.3655 N   0  0  0  0  0  0
  -25.9670  -11.7185   20.5717 N   0  0  0  0  0  0
  -22.0349  -12.7996   22.0491 N   0  0  0  0  0  0
  -25.3363  -15.2365   20.4414 N   0  0  0  0  0  0
  -31.1203  -16.4301   20.3316 O   0  0  0  0  0  0
  -21.6704   -6.8964   21.4251 O   0  0  0  0  0  0
  -22.3226  -14.5336   20.6764 O   0  0  0  0  0  0
  -24.7624  -31.6979   23.0915 C   0  0  0  0  0  0
  -25.9791  -32.3978   23.7745 C   0  0  1  0  0  0
  -27.2553  -25.8551   20.2682 C   0  0  0  0  0  0
  -25.6019  -33.7861   24.1506 N   0  0  0  0  0  0
  -23.6278  -30.2626   21.4638 C   0  0  2  0  0  0
  -25.1038  -28.4427   20.1389 C   0  0  0  0  0  0
  -22.8123  -29.3751   22.4501 C   0  0  0  0  0  0
  -18.0398  -28.1448   22.8402 C   0  0  0  0  0  0
  -24.1495  -36.6951   23.2676 C   0  0  0  0  0  0
  -26.2309  -30.1387   21.5034 C   0  0  0  0  0  0
  -26.2888  -28.6113   20.8650 C   0  0  0  0  0  0
  -27.3006  -27.3747   20.8969 C   0  0  0  0  0  0
  -26.1097  -26.1905   19.4109 C   0  0  0  0  0  0
  -25.1093  -27.2590   19.3773 C   0  0  0  0  0  0
  -23.9327  -29.4903   20.1325 C   0  0  0  0  0  0
  -25.4172  -36.2612   24.0225 C   0  0  1  0  0  0
  -20.6063  -28.3838   23.0978 C   0  0  2  0  0  0
  -20.6819  -26.9414   22.5421 C   0  0  0  0  0  0
  -19.5814  -26.6293   21.5231 C   0  0  0  0  0  0
  -18.1993  -26.7949   22.1606 C   0  0  0  0  0  0
  -19.1681  -28.8988   23.2643 C   0  0  0  0  0  0
  -18.9576  -30.1551   23.8721 C   0  0  0  0  0  0
  -17.6555  -30.6610   24.0513 C   0  0  0  0  0  0
  -25.9194  -34.9021   23.4765 C   0  0  0  0  0  0
  -16.5437  -29.9073   23.6360 C   0  0  0  0  0  0
  -16.7372  -28.6498   23.0376 C   0  0  0  0  0  0
  -26.4724  -31.6393   25.0710 C   0  0  0  0  0  0
  -25.3577  -31.3947   26.1163 C   0  0  0  0  0  0
  -27.0796  -30.2647   24.7253 C   0  0  0  0  0  0
  -27.6003  -32.4470   25.7557 C   0  0  0  0  0  0
  -27.5527  -37.1636   24.8475 C   0  0  0  0  0  0
  -21.4701  -29.2920   22.3215 N   0  0  0  0  0  0
  -26.4238  -37.3453   23.9392 N   0  0  0  0  0  0
  -24.9084  -30.7541   22.0693 N   0  0  0  0  0  0
  -23.4153  -28.7489   23.3236 O   0  0  0  0  0  0
  -27.9433  -24.1299   20.3051 O   0  0  0  0  0  0
  -26.5957  -34.8751   22.4470 O   0  0  0  0  0  0
  -23.6467  -32.0457   23.5297 O   0  0  0  0  0  0
  -27.0848  -22.9441   21.8812 C   0  0  0  0  0  0
  -28.1723  -21.7989   19.0487 C   0  0  0  0  0  0
  -28.3846  -21.7627   21.5786 C   0  0  0  0  0  0
  -25.9746  -23.5193   20.5149 C   0  0  0  0  0  0
  -28.7214  -20.6647   20.2702 C   0  0  0  0  0  0
  -26.7971  -22.9437   18.9443 C   0  0  0  0  0  0
  -24.7692  -21.3969   20.4415 C   0  0  0  0  0  0
  -24.0694  -21.2569   19.2449 C   0  0  0  0  0  0
  -24.2641  -22.4340   21.3301 C   0  0  0  0  0  0
  -23.0892  -22.4136   18.9299 C   0  0  0  0  0  0
  -23.6257  -23.7645   19.5516 C   0  0  0  0  0  0
  -29.0563  -21.3258   22.8620 C   0  0  0  0  0  0
  -31.3337  -20.5149   19.4471 C   0  0  0  0  0  0
  -26.3546  -21.3565   20.4636 C   0  0  0  0  0  0
  -30.9710  -19.0622   19.8238 C   0  0  0  0  0  0
  -24.5539  -23.5758   20.7022 N   0  0  0  0  0  0
  -29.5585  -18.7166   20.1589 N   0  0  0  0  0  0
  -24.2925  -20.5955   18.2057 O   0  5  0  0  0  0
  -23.8885  -22.3137   22.4972 O   0  0  0  0  0  0
  -26.3140  -23.3027   17.7280 F   0  0  0  0  0  0
  -31.1079  -14.4495   18.9584 H   0  0  0  0  0  0
  -30.7185  -13.4625   20.2928 H   0  0  0  0  0  0
  -30.2557  -12.2934   18.1155 H   0  0  0  0  0  0
  -29.3290  -13.6537   17.5409 H   0  0  0  0  0  0
  -28.5156  -11.5636   19.5548 H   0  0  0  0  0  0
  -27.6330  -12.1019   18.1348 H   0  0  0  0  0  0
  -27.2851  -14.2303   19.0892 H   0  0  0  0  0  0
  -29.0006  -13.6744   21.5525 H   0  0  0  0  0  0
  -27.8458  -14.9380   21.4580 H   0  0  0  0  0  0
  -25.2925   -9.5712   22.4747 H   0  0  0  0  0  0
  -24.0080   -7.4721   22.7497 H   0  0  0  0  0  0
  -21.0994   -8.8905   19.8936 H   0  0  0  0  0  0
  -22.3939  -10.9729   19.6113 H   0  0  0  0  0  0
  -21.2061   -7.6182   23.9731 H   0  0  0  0  0  0
  -21.1487   -6.0536   25.9071 H   0  0  0  0  0  0
  -22.0580   -2.7640   23.2808 H   0  0  0  0  0  0
  -22.4073  -11.9720   22.4898 H   0  0  0  0  0  0
  -21.0923  -13.0895   22.2671 H   0  0  0  0  0  0
  -24.5467  -15.8663   20.5364 H   0  0  0  0  0  0
  -26.1783  -15.6989   20.1221 H   0  0  0  0  0  0
  -26.7994  -32.4296   23.0556 H   0  0  0  0  0  0
  -24.9940  -33.8764   24.9510 H   0  0  0  0  0  0
  -23.0049  -31.1207   21.2050 H   0  0  0  0  0  0
  -23.3766  -35.9271   23.3269 H   0  0  0  0  0  0
  -24.3526  -36.8729   22.2105 H   0  0  0  0  0  0
  -23.7274  -37.6089   23.6868 H   0  0  0  0  0  0
  -26.5212  -30.8031   20.6882 H   0  0  0  0  0  0
  -27.0545  -30.2274   22.1954 H   0  0  0  0  0  0
  -28.1443  -27.5377   21.5528 H   0  0  0  0  0  0
  -25.8839  -25.4247   18.6911 H   0  0  0  0  0  0
  -24.2850  -27.1194   18.6890 H   0  0  0  0  0  0
  -24.1680  -30.2193   19.3561 H   0  0  0  0  0  0
  -23.0249  -28.9922   19.7874 H   0  0  0  0  0  0
  -25.1425  -36.1272   25.0714 H   0  0  0  0  0  0
  -21.0110  -28.3532   24.1122 H   0  0  0  0  0  0
  -20.5591  -26.2496   23.3769 H   0  0  0  0  0  0
  -21.6678  -26.7213   22.1309 H   0  0  0  0  0  0
  -19.6955  -25.6145   21.1410 H   0  0  0  0  0  0
  -19.6792  -27.2976   20.6665 H   0  0  0  0  0  0
  -17.4267  -26.6684   21.4008 H   0  0  0  0  0  0
  -18.0359  -26.0136   22.9044 H   0  0  0  0  0  0
  -19.8054  -30.7403   24.2023 H   0  0  0  0  0  0
  -17.5106  -31.6275   24.5141 H   0  0  0  0  0  0
  -15.5430  -30.2926   23.7773 H   0  0  0  0  0  0
  -15.8774  -28.0758   22.7194 H   0  0  0  0  0  0
  -24.5846  -30.7213   25.7452 H   0  0  0  0  0  0
  -24.8681  -32.3234   26.4097 H   0  0  0  0  0  0
  -25.7554  -30.9438   27.0262 H   0  0  0  0  0  0
  -26.3649  -29.5957   24.2462 H   0  0  0  0  0  0
  -27.4065  -29.7490   25.6294 H   0  0  0  0  0  0
  -27.9689  -30.3576   24.1021 H   0  0  0  0  0  0
  -27.2438  -33.3948   26.1598 H   0  0  0  0  0  0
  -28.4073  -32.6749   25.0585 H   0  0  0  0  0  0
  -28.0395  -31.8992   26.5902 H   0  0  0  0  0  0
  -28.2496  -37.9963   24.7445 H   0  0  0  0  0  0
  -28.1059  -36.2466   24.6396 H   0  0  0  0  0  0
  -27.2225  -37.1370   25.8873 H   0  0  0  0  0  0
  -21.0194  -29.8463   21.6063 H   0  0  0  0  0  0
  -25.9994  -38.2474   24.1366 H   0  0  0  0  0  0
  -26.8427  -23.2049   22.9019 H   0  0  0  0  0  0
  -28.4732  -21.4948   18.0572 H   0  0  0  0  0  0
  -22.1114  -22.1791   19.3552 H   0  0  0  0  0  0
  -22.9228  -22.5556   17.8589 H   0  0  0  0  0  0
  -22.7887  -24.3865   19.8728 H   0  0  0  0  0  0
  -24.1182  -24.3219   18.7627 H   0  0  0  0  0  0
  -28.9066  -20.2576   23.0170 H   0  0  0  0  0  0
  -28.6439  -21.8485   23.7248 H   0  0  0  0  0  0
  -30.1280  -21.5219   22.8189 H   0  0  0  0  0  0
  -32.3897  -20.5750   19.1812 H   0  0  0  0  0  0
  -31.2010  -21.2140   20.2738 H   0  0  0  0  0  0
  -30.7827  -20.8663   18.5758 H   0  0  0  0  0  0
  -26.4114  -20.5684   19.6927 H   0  0  0  0  0  0
  -26.3797  -20.7214   21.3663 H   0  0  0  0  0  0
  -31.3044  -18.4692   18.9687 H   0  0  0  0  0  0
  -31.6078  -18.8086   20.6736 H   0  0  0  0  0  0
  1 25  1  0  0  0
  1 30  2  0  0  0
  1 87  1  0  0  0
  2  3  1  0  0  0
  2 25  1  0  0  0
  2 91  1  0  0  0
  2 92  1  0  0  0
  3  4  1  0  0  0
  3 93  1  0  0  0
  3 94  1  0  0  0
  4  5  1  0  0  0
  4 95  1  0  0  0
  4 96  1  0  0  0
  5  6  1  0  0  0
  5 26  1  0  0  0
  5 97  1  0  0  0
  6 25  1  0  0  0
  6 98  1  0  0  0
  6 99  1  0  0  0
  7  8  2  0  0  0
  7 26  1  0  0  0
  7 29  1  0  0  0
  8  9  1  0  0  0
  8 22  1  0  0  0
  9 10  1  0  0  0
  9 27  2  0  0  0
 10 11  2  0  0  0
 10 15  1  0  0  0
 11 12  1  0  0  0
 11100  1  0  0  0
 12 13  2  0  0  0
 12101  1  0  0  0
 13 14  1  0  0  0
 13 31  1  0  0  0
 14 15  2  0  0  0
 14102  1  0  0  0
 15103  1  0  0  0
 16 17  2  0  0  0
 16 21  1  0  0  0
 16 31  1  0  0  0
 17 18  1  0  0  0
 17104  1  0  0  0
 18 19  2  0  0  0
 18105  1  0  0  0
 19 20  1  0  0  0
 19 24  1  0  0  0
 20 21  2  0  0  0
 20106  1  0  0  0
 21 23  1  0  0  0
 22 28  1  0  0  0
 22 32  2  0  0  0
 26 27  1  0  0  0
 28107  1  0  0  0
 28108  1  0  0  0
 29109  1  0  0  0
 29110  1  0  0  0
 33 34  1  0  0  0
 33 66  1  0  0  0
 33 70  2  0  0  0
 34 36  1  0  0  0
 34 59  1  0  0  0
 34111  1  0  0  0
 35 44  2  0  0  0
 35 45  1  0  0  0
 35 68  1  0  0  0
 36 56  1  0  0  0
 36112  1  0  0  0
 37 39  1  0  0  0
 37 47  1  0  0  0
 37 66  1  0  0  0
 37113  1  0  0  0
 38 43  2  0  0  0
 38 46  1  0  0  0
 38 47  1  0  0  0
 39 64  1  0  0  0
 39 67  2  0  0  0
 40 52  1  0  0  0
 40 53  2  0  0  0
 40 58  1  0  0  0
 41114  1  0  0  0
 41115  1  0  0  0
 41116  1  0  0  0
 41 48  1  0  0  0
 42 43  1  0  0  0
 42 66  1  0  0  0
 42117  1  0  0  0
 42118  1  0  0  0
 43 44  1  0  0  0
 44119  1  0  0  0
 45 46  2  0  0  0
 45120  1  0  0  0
 46121  1  0  0  0
 47122  1  0  0  0
 47123  1  0  0  0
 48 56  1  0  0  0
 48 65  1  0  0  0
 48124  1  0  0  0
 49 50  1  0  0  0
 49 53  1  0  0  0
 49 64  1  0  0  0
 49125  1  0  0  0
 50 51  1  0  0  0
 50126  1  0  0  0
 50127  1  0  0  0
 51 52  1  0  0  0
 51128  1  0  0  0
 51129  1  0  0  0
 52130  1  0  0  0
 52131  1  0  0  0
 53 54  1  0  0  0
 54 55  2  0  0  0
 54132  1  0  0  0
 55 57  1  0  0  0
 55133  1  0  0  0
 56 69  2  0  0  0
 57 58  2  0  0  0
 57134  1  0  0  0
 58135  1  0  0  0
 59 60  1  0  0  0
 59 61  1  0  0  0
 59 62  1  0  0  0
 60136  1  0  0  0
 60137  1  0  0  0
 60138  1  0  0  0
 61139  1  0  0  0
 61140  1  0  0  0
 61141  1  0  0  0
 62142  1  0  0  0
 62143  1  0  0  0
 62144  1  0  0  0
 63 65  1  0  0  0
 63145  1  0  0  0
 63146  1  0  0  0
 63147  1  0  0  0
 64148  1  0  0  0
 65149  1  0  0  0
 68 84  1  0  0  0
 71 73  2  0  0  0
 71 74  1  0  0  0
 71150  1  0  0  0
 72 75  2  0  0  0
 72 76  1  0  0  0
 72151  1  0  0  0
 73 75  1  0  0  0
 73 82  1  0  0  0
 74 76  2  0  0  0
 74 86  1  0  0  0
 75 87  1  0  0  0
 76 90  1  0  0  0
 77 78  2  0  0  0
 77 79  1  0  0  0
 77 84  1  0  0  0
 78 80  1  0  0  0
 78 88  1  0  0  0
 79 86  1  0  0  0
 79 89  2  0  0  0
 80 81  1  0  0  0
 80152  1  0  0  0
 80153  1  0  0  0
 81 86  1  0  0  0
 81154  1  0  0  0
 81155  1  0  0  0
 82156  1  0  0  0
 82157  1  0  0  0
 82158  1  0  0  0
 83 85  1  0  0  0
 83159  1  0  0  0
 83160  1  0  0  0
 83161  1  0  0  0
 84162  1  0  0  0
 84163  1  0  0  0
 85 87  1  0  0  0
 85164  1  0  0  0
 85165  1  0  0  0
M  CHG  1  88  -1
M  ISO  4   1 100  68 101  84 101  87 100
M  END
> <chiral flag>
0

> <version>
0

> <s_m_source_file>
/data/baiqing/PycharmProjects/Reinvent-master-3.2/result/LINK_invent/BTK/process_docking_weight1_custom_product_contain_oxygen_bond_distance_aromatic_linkinvent_7_9_3/rearranged_h_0103.sdf

> <i_m_source_file_index>
48

> <r_mmod_Potential_Energy-OPLS-2005>
15640.3896484375

> <r_mmod_Stretch_Energy-OPLS-2005>
8627.89453125

> <r_mmod_Bend_Energy-OPLS-2005>
1281.3173828125

> <r_mmod_Torsional_Energy-OPLS-2005>
643.081176757812

> <r_mmod_Improper_Torsional_Energy-OPLS-2005>
45.0153999328613

> <r_mmod_Van_der_Waal_Energy-OPLS-2005>
2154.69409179688

> <r_mmod_Electrostatic_Energy-OPLS-2005>
-372.116455078125

> <r_mmod_Solvation_Energy-OPLS-2005>
-442.032470703125

> <b_mmod_Minimization_Converged-OPLS-2005>
0

> <r_mmod_RMS_Derivative-OPLS-2005>
4.5501880645752

$$$$
48
                    3D
 Structure written by MMmdl.
152160  0  0  1  0            999 V2000
  -30.6159  -14.6570   20.4799 C   0  0  0  0  0  0
  -30.4421  -12.4004   19.4473 C   0  0  0  0  0  0
  -29.5061  -12.5032   18.2218 C   0  0  0  0  0  0
  -28.0297  -12.3397   18.6380 C   0  0  0  0  0  0
  -27.6510  -13.2166   19.8610 C   0  0  2  0  0  0
  -28.7012  -13.0846   20.9874 C   0  0  0  0  0  0
  -25.2548  -13.8172   20.5721 C   0  0  0  0  0  0
  -24.1813  -13.0420   20.9174 C   0  0  0  0  0  0
  -24.6393  -11.6896   20.8729 C   0  0  0  0  0  0
  -23.9065  -10.4280   21.0399 C   0  0  0  0  0  0
  -24.3614   -9.4199   21.9181 C   0  0  0  0  0  0
  -23.6290   -8.2235   22.0754 C   0  0  0  0  0  0
  -22.4273   -8.0274   21.3543 C   0  0  0  0  0  0
  -21.9908   -9.0246   20.4643 C   0  0  0  0  0  0
  -22.7236  -10.2124   20.3051 C   0  0  0  0  0  0
  -21.6850   -6.0733   22.5280 C   0  0  0  0  0  0
  -21.4011   -6.5637   23.8213 C   0  0  0  0  0  0
  -21.3661   -5.6791   24.9176 C   0  0  0  0  0  0
  -21.6046   -4.3055   24.7226 C   0  0  0  0  0  0
  -21.8820   -3.8145   23.4348 C   0  0  0  0  0  0
  -21.9191   -4.6960   22.3403 C   0  0  0  0  0  0
  -22.7835  -13.5208   21.1849 C   0  0  0  0  0  0
  -22.1661   -4.2146   21.0980 F   0  0  0  0  0  0
  -21.5631   -3.4539   25.7739 F   0  0  0  0  0  0
  -30.0130  -13.4276   20.4148 N   0  0  0  0  0  0
  -26.2986  -12.9359   20.3342 N   0  0  0  0  0  0
  -25.9325  -11.6507   20.5762 N   0  0  0  0  0  0
  -22.0490  -12.8195   22.0411 N   0  0  0  0  0  0
  -25.4172  -15.1919   20.4262 N   0  0  0  0  0  0
  -31.7976  -14.8150   20.1594 O   0  0  0  0  0  0
  -21.6634   -6.8874   21.4242 O   0  0  0  0  0  0
  -22.3508  -14.5517   20.6709 O   0  0  0  0  0  0
  -24.6271  -31.8597   23.2030 C   0  0  0  0  0  0
  -25.9116  -32.4779   23.8359 C   0  0  1  0  0  0
  -27.2242  -27.3119   20.1123 C   0  0  0  0  0  0
  -25.5931  -33.8580   24.2283 N   0  0  0  0  0  0
  -23.4211  -30.4846   21.5461 C   0  0  2  0  0  0
  -24.8677  -28.9419   20.1107 C   0  0  0  0  0  0
  -22.7479  -29.4626   22.4933 C   0  0  0  0  0  0
  -18.0289  -28.1386   22.8488 C   0  0  0  0  0  0
  -24.1491  -36.7293   23.2638 C   0  0  0  0  0  0
  -25.9642  -30.7876   21.3767 C   0  0  0  0  0  0
  -26.0383  -29.4154   20.7166 C   0  0  0  0  0  0
  -27.2191  -28.6123   20.7090 C   0  0  0  0  0  0
  -26.0280  -26.8994   19.4766 C   0  0  0  0  0  0
  -24.8650  -27.6892   19.4824 C   0  0  0  0  0  0
  -23.6363  -29.8223   20.1608 C   0  0  0  0  0  0
  -25.4116  -36.3084   24.0329 C   0  0  1  0  0  0
  -20.5890  -28.3694   23.1280 C   0  0  2  0  0  0
  -20.6777  -26.9416   22.5408 C   0  0  0  0  0  0
  -19.5750  -26.6386   21.5213 C   0  0  0  0  0  0
  -18.1931  -26.7928   22.1628 C   0  0  0  0  0  0
  -19.1541  -28.8856   23.2879 C   0  0  0  0  0  0
  -18.9463  -30.1459   23.8894 C   0  0  0  0  0  0
  -17.6464  -30.6588   24.0564 C   0  0  0  0  0  0
  -25.9052  -34.9452   23.5105 C   0  0  0  0  0  0
  -16.5355  -29.9086   23.6331 C   0  0  0  0  0  0
  -16.7276  -28.6504   23.0352 C   0  0  0  0  0  0
  -26.4498  -31.6588   25.0729 C   0  0  0  0  0  0
  -25.3734  -31.3731   26.1460 C   0  0  0  0  0  0
  -27.0336  -30.3006   24.6191 C   0  0  0  0  0  0
  -27.6059  -32.4320   25.7500 C   0  0  0  0  0  0
  -27.5581  -37.1803   24.8464 C   0  0  0  0  0  0
  -21.4192  -29.3047   22.3674 N   0  0  0  0  0  0
  -26.4293  -37.3778   23.9408 N   0  0  0  0  0  0
  -24.6898  -31.0603   22.0987 N   0  0  0  0  0  0
  -23.4198  -28.8160   23.3012 O   0  0  0  0  0  0
  -28.3315  -26.4445   20.1692 O   0  0  0  0  0  0
  -26.5619  -34.8918   22.4670 O   0  0  0  0  0  0
  -23.5432  -32.1402   23.7350 O   0  0  0  0  0  0
  -28.7794  -19.3454   20.1109 C   0  0  0  0  0  0
  -31.0236  -17.9144   21.0182 C   0  0  0  0  0  0
  -28.7925  -17.9144   20.1134 C   0  0  0  0  0  0
  -29.9051  -17.1617   20.5821 C   0  0  0  0  0  0
  -29.8909  -20.1057   20.5670 C   0  0  0  0  0  0
  -31.0118  -19.3429   21.0083 C   0  0  0  0  0  0
  -29.1620  -23.9515   20.3732 C   0  0  0  0  0  0
  -28.0616  -24.9985   19.9417 C   0  0  0  0  0  0
  -28.8601  -22.3997   20.2121 C   0  0  0  0  0  0
  -27.6895  -17.2164   19.6200 N   0  0  0  0  0  0
  -29.7662  -15.7089   20.6895 N   0  0  0  0  0  0
  -30.2449  -24.3369   20.8300 O   0  0  0  0  0  0
  -29.9653  -21.5195   20.6127 O   0  0  0  0  0  0
  -32.1099  -19.9993   21.4553 F   0  0  0  0  0  0
  -31.4812  -12.5335   19.1410 H   0  0  0  0  0  0
  -30.3846  -11.4081   19.8975 H   0  0  0  0  0  0
  -29.7701  -11.7474   17.4812 H   0  0  0  0  0  0
  -29.6432  -13.4695   17.7338 H   0  0  0  0  0  0
  -27.8700  -11.2875   18.8762 H   0  0  0  0  0  0
  -27.3726  -12.5624   17.7966 H   0  0  0  0  0  0
  -27.6591  -14.2475   19.5095 H   0  0  0  0  0  0
  -28.7173  -12.0674   21.3816 H   0  0  0  0  0  0
  -28.4514  -13.7291   21.8319 H   0  0  0  0  0  0
  -25.2760   -9.5673   22.4754 H   0  0  0  0  0  0
  -23.9998   -7.4626   22.7475 H   0  0  0  0  0  0
  -21.0839   -8.8762   19.8949 H   0  0  0  0  0  0
  -22.3695  -10.9662   19.6159 H   0  0  0  0  0  0
  -21.2005   -7.6145   23.9715 H   0  0  0  0  0  0
  -21.1485   -6.0523   25.9079 H   0  0  0  0  0  0
  -22.0600   -2.7607   23.2849 H   0  0  0  0  0  0
  -22.4116  -11.9855   22.4788 H   0  0  0  0  0  0
  -21.1117  -13.1224   22.2643 H   0  0  0  0  0  0
  -24.6412  -15.8288   20.5674 H   0  0  0  0  0  0
  -26.2776  -15.6865   20.1995 H   0  0  0  0  0  0
  -26.7184  -32.5447   23.1107 H   0  0  0  0  0  0
  -25.0081  -33.9726   25.0430 H   0  0  0  0  0  0
  -22.7151  -31.3055   21.4040 H   0  0  0  0  0  0
  -23.3754  -35.9625   23.3301 H   0  0  0  0  0  0
  -24.3581  -36.8912   22.2052 H   0  0  0  0  0  0
  -23.7243  -37.6495   23.6661 H   0  0  0  0  0  0
  -26.0981  -31.5522   20.6102 H   0  0  0  0  0  0
  -26.8437  -30.8342   22.0073 H   0  0  0  0  0  0
  -28.1153  -28.9699   21.1968 H   0  0  0  0  0  0
  -25.9542  -25.9474   18.9731 H   0  0  0  0  0  0
  -23.9690  -27.3219   19.0010 H   0  0  0  0  0  0
  -23.7562  -30.6003   19.4060 H   0  0  0  0  0  0
  -22.7559  -29.2529   19.8570 H   0  0  0  0  0  0
  -25.1296  -36.1936   25.0821 H   0  0  0  0  0  0
  -20.9983  -28.3270   24.1400 H   0  0  0  0  0  0
  -20.5686  -26.2302   23.3608 H   0  0  0  0  0  0
  -21.6645  -26.7447   22.1198 H   0  0  0  0  0  0
  -19.6912  -25.6298   21.1240 H   0  0  0  0  0  0
  -19.6683  -27.3197   20.6743 H   0  0  0  0  0  0
  -17.4200  -26.6677   21.4032 H   0  0  0  0  0  0
  -18.0332  -26.0072   22.9024 H   0  0  0  0  0  0
  -19.7939  -30.7277   24.2259 H   0  0  0  0  0  0
  -17.5018  -31.6266   24.5169 H   0  0  0  0  0  0
  -15.5355  -30.2988   23.7655 H   0  0  0  0  0  0
  -15.8676  -28.0822   22.7067 H   0  0  0  0  0  0
  -24.5887  -30.7107   25.7786 H   0  0  0  0  0  0
  -24.8955  -32.2904   26.4909 H   0  0  0  0  0  0
  -25.8058  -30.8881   27.0221 H   0  0  0  0  0  0
  -26.2908  -29.6759   24.1216 H   0  0  0  0  0  0
  -27.4025  -29.7261   25.4698 H   0  0  0  0  0  0
  -27.8785  -30.4281   23.9420 H   0  0  0  0  0  0
  -27.2671  -33.3622   26.2074 H   0  0  0  0  0  0
  -28.3873  -32.6876   25.0331 H   0  0  0  0  0  0
  -28.0723  -31.8446   26.5420 H   0  0  0  0  0  0
  -28.2598  -38.0101   24.7512 H   0  0  0  0  0  0
  -28.1078  -36.2631   24.6293 H   0  0  0  0  0  0
  -27.2297  -37.1453   25.8867 H   0  0  0  0  0  0
  -20.9369  -29.8775   21.6888 H   0  0  0  0  0  0
  -26.0175  -38.2853   24.1411 H   0  0  0  0  0  0
  -27.9034  -19.8621   19.7490 H   0  0  0  0  0  0
  -31.8962  -17.4048   21.3979 H   0  0  0  0  0  0
  -27.1514  -24.7205   20.4743 H   0  0  0  0  0  0
  -27.8691  -24.8433   18.8799 H   0  0  0  0  0  0
  -28.6068  -22.2035   19.1702 H   0  0  0  0  0  0
  -27.9792  -22.1580   20.8072 H   0  0  0  0  0  0
  -26.9931  -17.7940   19.1608 H   0  0  0  0  0  0
  -27.9465  -16.4506   19.0078 H   0  0  0  0  0  0
  -28.8045  -15.4232   20.7903 H   0  0  0  0  0  0
  1 25  1  0  0  0
  1 30  2  0  0  0
  1 81  1  0  0  0
  2  3  1  0  0  0
  2 25  1  0  0  0
  2 85  1  0  0  0
  2 86  1  0  0  0
  3  4  1  0  0  0
  3 87  1  0  0  0
  3 88  1  0  0  0
  4  5  1  0  0  0
  4 89  1  0  0  0
  4 90  1  0  0  0
  5  6  1  0  0  0
  5 26  1  0  0  0
  5 91  1  0  0  0
  6 25  1  0  0  0
  6 92  1  0  0  0
  6 93  1  0  0  0
  7  8  2  0  0  0
  7 26  1  0  0  0
  7 29  1  0  0  0
  8  9  1  0  0  0
  8 22  1  0  0  0
  9 10  1  0  0  0
  9 27  2  0  0  0
 10 11  2  0  0  0
 10 15  1  0  0  0
 11 12  1  0  0  0
 11 94  1  0  0  0
 12 13  2  0  0  0
 12 95  1  0  0  0
 13 14  1  0  0  0
 13 31  1  0  0  0
 14 15  2  0  0  0
 14 96  1  0  0  0
 15 97  1  0  0  0
 16 17  2  0  0  0
 16 21  1  0  0  0
 16 31  1  0  0  0
 17 18  1  0  0  0
 17 98  1  0  0  0
 18 19  2  0  0  0
 18 99  1  0  0  0
 19 20  1  0  0  0
 19 24  1  0  0  0
 20 21  2  0  0  0
 20100  1  0  0  0
 21 23  1  0  0  0
 22 28  1  0  0  0
 22 32  2  0  0  0
 26 27  1  0  0  0
 28101  1  0  0  0
 28102  1  0  0  0
 29103  1  0  0  0
 29104  1  0  0  0
 33 34  1  0  0  0
 33 66  1  0  0  0
 33 70  2  0  0  0
 34 36  1  0  0  0
 34 59  1  0  0  0
 34105  1  0  0  0
 35 44  2  0  0  0
 35 45  1  0  0  0
 35 68  1  0  0  0
 36 56  1  0  0  0
 36106  1  0  0  0
 37 39  1  0  0  0
 37 47  1  0  0  0
 37 66  1  0  0  0
 37107  1  0  0  0
 38 43  2  0  0  0
 38 46  1  0  0  0
 38 47  1  0  0  0
 39 64  1  0  0  0
 39 67  2  0  0  0
 40 52  1  0  0  0
 40 53  2  0  0  0
 40 58  1  0  0  0
 41108  1  0  0  0
 41109  1  0  0  0
 41110  1  0  0  0
 41 48  1  0  0  0
 42 43  1  0  0  0
 42 66  1  0  0  0
 42111  1  0  0  0
 42112  1  0  0  0
 43 44  1  0  0  0
 44113  1  0  0  0
 45 46  2  0  0  0
 45114  1  0  0  0
 46115  1  0  0  0
 47116  1  0  0  0
 47117  1  0  0  0
 48 56  1  0  0  0
 48 65  1  0  0  0
 48118  1  0  0  0
 49 50  1  0  0  0
 49 53  1  0  0  0
 49 64  1  0  0  0
 49119  1  0  0  0
 50 51  1  0  0  0
 50120  1  0  0  0
 50121  1  0  0  0
 51 52  1  0  0  0
 51122  1  0  0  0
 51123  1  0  0  0
 52124  1  0  0  0
 52125  1  0  0  0
 53 54  1  0  0  0
 54 55  2  0  0  0
 54126  1  0  0  0
 55 57  1  0  0  0
 55127  1  0  0  0
 56 69  2  0  0  0
 57 58  2  0  0  0
 57128  1  0  0  0
 58129  1  0  0  0
 59 60  1  0  0  0
 59 61  1  0  0  0
 59 62  1  0  0  0
 60130  1  0  0  0
 60131  1  0  0  0
 60132  1  0  0  0
 61133  1  0  0  0
 61134  1  0  0  0
 61135  1  0  0  0
 62136  1  0  0  0
 62137  1  0  0  0
 62138  1  0  0  0
 63 65  1  0  0  0
 63139  1  0  0  0
 63140  1  0  0  0
 63141  1  0  0  0
 64142  1  0  0  0
 65143  1  0  0  0
 68 78  1  0  0  0
 71 73  2  0  0  0
 71 75  1  0  0  0
 71144  1  0  0  0
 72 74  2  0  0  0
 72 76  1  0  0  0
 72145  1  0  0  0
 73 74  1  0  0  0
 73 80  1  0  0  0
 74 81  1  0  0  0
 75 76  2  0  0  0
 75 83  1  0  0  0
 76 84  1  0  0  0
 77 78  1  0  0  0
 77 79  1  0  0  0
 77 82  2  0  0  0
 78146  1  0  0  0
 78147  1  0  0  0
 79 83  1  0  0  0
 79148  1  0  0  0
 79149  1  0  0  0
 80150  1  0  0  0
 80151  1  0  0  0
 81152  1  0  0  0
M  ISO  4   1 100  68 101  78 101  81 100
M  END
> <chiral flag>
0

> <version>
0

> <s_m_source_file>
/data/baiqing/PycharmProjects/Reinvent-master-3.2/result/LINK_invent/BTK/process_docking_weight1_custom_product_contain_oxygen_bond_distance_aromatic_linkinvent_7_9_3/rearranged_h_0103.sdf

> <i_m_source_file_index>
49

> <r_mmod_Potential_Energy-OPLS-2005>
-10.3286323547363

> <r_mmod_Stretch_Energy-OPLS-2005>
81.8266372680664

> <r_mmod_Bend_Energy-OPLS-2005>
142.448944091797

> <r_mmod_Torsional_Energy-OPLS-2005>
225.003067016602

> <r_mmod_Improper_Torsional_Energy-OPLS-2005>
11.3029003143311

> <r_mmod_Van_der_Waal_Energy-OPLS-2005>
145.595733642578

> <r_mmod_Electrostatic_Energy-OPLS-2005>
-419.073547363281

> <r_mmod_Solvation_Energy-OPLS-2005>
-252.859924316406

> <b_mmod_Minimization_Converged-OPLS-2005>
0

> <r_mmod_RMS_Derivative-OPLS-2005>
0.414081603288651

$$$$
49
                    3D
 Structure written by MMmdl.
158167  0  0  1  0            999 V2000
  -30.5825  -14.9128   20.5206 C   0  0  0  0  0  0
  -30.4448  -12.5467   19.6015 C   0  0  0  0  0  0
  -29.5753  -12.5278   18.3201 C   0  0  0  0  0  0
  -28.0962  -12.2998   18.6983 C   0  0  0  0  0  0
  -27.6438  -13.2395   19.8518 C   0  0  2  0  0  0
  -28.6559  -13.2678   21.0193 C   0  0  0  0  0  0
  -25.2479  -13.8189   20.5740 C   0  0  0  0  0  0
  -24.1782  -13.0461   20.9281 C   0  0  0  0  0  0
  -24.6396  -11.6938   20.8765 C   0  0  0  0  0  0
  -23.9103  -10.4322   21.0458 C   0  0  0  0  0  0
  -24.3650   -9.4217   21.9247 C   0  0  0  0  0  0
  -23.6350   -8.2226   22.0752 C   0  0  0  0  0  0
  -22.4318   -8.0301   21.3526 C   0  0  0  0  0  0
  -21.9962   -9.0296   20.4630 C   0  0  0  0  0  0
  -22.7284  -10.2184   20.3087 C   0  0  0  0  0  0
  -21.6887   -6.0745   22.5239 C   0  0  0  0  0  0
  -21.4067   -6.5629   23.8186 C   0  0  0  0  0  0
  -21.3648   -5.6753   24.9129 C   0  0  0  0  0  0
  -21.6048   -4.3019   24.7164 C   0  0  0  0  0  0
  -21.8827   -3.8128   23.4278 C   0  0  0  0  0  0
  -21.9205   -4.6967   22.3348 C   0  0  0  0  0  0
  -22.7789  -13.5229   21.1967 C   0  0  0  0  0  0
  -22.1655   -4.2144   21.0929 F   0  0  0  0  0  0
  -21.5640   -3.4497   25.7674 F   0  0  0  0  0  0
  -29.9650  -13.6594   20.4701 N   0  0  0  0  0  0
  -26.2931  -12.9443   20.3252 N   0  0  0  0  0  0
  -25.9320  -11.6574   20.5707 N   0  0  0  0  0  0
  -22.0417  -12.8224   22.0499 N   0  0  0  0  0  0
  -25.4189  -15.1933   20.4192 N   0  0  0  0  0  0
  -31.7122  -15.0086   20.0186 O   0  0  0  0  0  0
  -21.6693   -6.8885   21.4200 O   0  0  0  0  0  0
  -22.3506  -14.5575   20.6849 O   0  0  0  0  0  0
  -24.6431  -31.8447   23.1967 C   0  0  0  0  0  0
  -25.9239  -32.4681   23.8366 C   0  0  1  0  0  0
  -27.1829  -27.1113   20.1517 C   0  0  0  0  0  0
  -25.6039  -33.8509   24.2300 N   0  0  0  0  0  0
  -23.4472  -30.4729   21.5269 C   0  0  2  0  0  0
  -24.8895  -28.8962   20.0974 C   0  0  0  0  0  0
  -22.7541  -29.4580   22.4707 C   0  0  0  0  0  0
  -18.0348  -28.1304   22.8468 C   0  0  0  0  0  0
  -24.1458  -36.7121   23.2657 C   0  0  0  0  0  0
  -26.0069  -30.6981   21.4179 C   0  0  0  0  0  0
  -26.0641  -29.3215   20.7281 C   0  0  0  0  0  0
  -27.2070  -28.4387   20.7492 C   0  0  0  0  0  0
  -25.9884  -26.7867   19.4795 C   0  0  0  0  0  0
  -24.8687  -27.6440   19.4580 C   0  0  0  0  0  0
  -23.6778  -29.8149   20.1388 C   0  0  0  0  0  0
  -25.4140  -36.3051   24.0377 C   0  0  1  0  0  0
  -20.5966  -28.3723   23.1080 C   0  0  2  0  0  0
  -20.6804  -26.9393   22.5318 C   0  0  0  0  0  0
  -19.5758  -26.6310   21.5138 C   0  0  0  0  0  0
  -18.1963  -26.7858   22.1593 C   0  0  0  0  0  0
  -19.1628  -28.8824   23.2755 C   0  0  0  0  0  0
  -18.9555  -30.1415   23.8787 C   0  0  0  0  0  0
  -17.6586  -30.6516   24.0527 C   0  0  0  0  0  0
  -25.9128  -34.9418   23.5150 C   0  0  0  0  0  0
  -16.5452  -29.9031   23.6272 C   0  0  0  0  0  0
  -16.7366  -28.6396   23.0355 C   0  0  0  0  0  0
  -26.4625  -31.6606   25.0830 C   0  0  0  0  0  0
  -25.3813  -31.3717   26.1485 C   0  0  0  0  0  0
  -27.0602  -30.2995   24.6598 C   0  0  0  0  0  0
  -27.6186  -32.4434   25.7506 C   0  0  0  0  0  0
  -27.5566  -37.1724   24.8501 C   0  0  0  0  0  0
  -21.4257  -29.3060   22.3420 N   0  0  0  0  0  0
  -26.4270  -37.3780   23.9475 N   0  0  0  0  0  0
  -24.7152  -31.0294   22.0981 N   0  0  0  0  0  0
  -23.4167  -28.8113   23.2855 O   0  0  0  0  0  0
  -28.2207  -26.1244   20.2928 O   0  0  0  0  0  0
  -26.5612  -34.8913   22.4675 O   0  0  0  0  0  0
  -23.5545  -32.1376   23.7160 O   0  0  0  0  0  0
  -29.2183  -19.7920   22.0643 C   0  0  0  0  0  0
  -29.0375  -19.6951   19.7430 C   0  0  0  0  0  0
  -29.5737  -18.3975   22.1099 C   0  0  0  0  0  0
  -29.3480  -18.2482   19.7982 C   0  0  0  0  0  0
  -28.9561  -20.5836   20.8869 C   0  0  0  0  0  0
  -29.6839  -17.4989   21.0003 C   0  0  0  0  0  0
  -28.5128  -22.6768   22.2222 C   0  0  0  0  0  0
  -27.2427  -23.5214   22.3593 C   0  0  0  0  0  0
  -26.5684  -23.3516   20.9978 C   0  0  0  0  0  0
  -27.8067  -23.1369   20.1316 C   0  0  2  0  0  0
  -30.2002  -15.6563   22.6871 C   0  0  0  0  0  0
  -28.3083  -24.6964   19.6718 C   0  0  0  0  0  0
  -28.6404  -22.1187   20.9902 N   0  0  0  0  0  0
  -30.0044  -15.9895   21.2559 N   0  0  0  0  0  0
  -29.3132  -22.5817   23.1557 O   0  0  0  0  0  0
  -31.5088  -12.6384   19.3737 H   0  0  0  0  0  0
  -30.3533  -11.6049   20.1459 H   0  0  0  0  0  0
  -29.9398  -11.7549   17.6414 H   0  0  0  0  0  0
  -29.6776  -13.4811   17.7979 H   0  0  0  0  0  0
  -27.9935  -11.2599   19.0128 H   0  0  0  0  0  0
  -27.4543  -12.4174   17.8271 H   0  0  0  0  0  0
  -27.6191  -14.2388   19.4229 H   0  0  0  0  0  0
  -28.7090  -12.2929   21.5099 H   0  0  0  0  0  0
  -28.3207  -13.9690   21.7845 H   0  0  0  0  0  0
  -25.2775   -9.5700   22.4873 H   0  0  0  0  0  0
  -24.0048   -7.4582   22.7433 H   0  0  0  0  0  0
  -21.0929   -8.8856   19.8917 H   0  0  0  0  0  0
  -22.3784  -10.9779   19.6222 H   0  0  0  0  0  0
  -21.2119   -7.6143   23.9693 H   0  0  0  0  0  0
  -21.1480   -6.0482   25.9032 H   0  0  0  0  0  0
  -22.0648   -2.7600   23.2767 H   0  0  0  0  0  0
  -22.3982  -11.9882   22.4944 H   0  0  0  0  0  0
  -21.1027  -13.1249   22.2641 H   0  0  0  0  0  0
  -24.6662  -15.8528   20.5830 H   0  0  0  0  0  0
  -26.2743  -15.6389   20.1104 H   0  0  0  0  0  0
  -26.7291  -32.5223   23.1055 H   0  0  0  0  0  0
  -25.0467  -33.9672   25.0641 H   0  0  0  0  0  0
  -22.7528  -31.2984   21.3730 H   0  0  0  0  0  0
  -23.3887  -35.9264   23.3356 H   0  0  0  0  0  0
  -24.3470  -36.8682   22.2034 H   0  0  0  0  0  0
  -23.7001  -37.6262   23.6622 H   0  0  0  0  0  0
  -26.2224  -31.4818   20.6935 H   0  0  0  0  0  0
  -26.8443  -30.6884   22.1042 H   0  0  0  0  0  0
  -28.0887  -28.7481   21.2905 H   0  0  0  0  0  0
  -25.8677  -25.8195   19.0133 H   0  0  0  0  0  0
  -23.9664  -27.3066   18.9673 H   0  0  0  0  0  0
  -23.8362  -30.5957   19.3947 H   0  0  0  0  0  0
  -22.7873  -29.2744   19.8114 H   0  0  0  0  0  0
  -25.1310  -36.1926   25.0862 H   0  0  0  0  0  0
  -21.0151  -28.3340   24.1174 H   0  0  0  0  0  0
  -20.5582  -26.2399   23.3583 H   0  0  0  0  0  0
  -21.6656  -26.7221   22.1186 H   0  0  0  0  0  0
  -19.6903  -25.6190   21.1187 H   0  0  0  0  0  0
  -19.6639  -27.3060   20.6612 H   0  0  0  0  0  0
  -17.4210  -26.6618   21.4018 H   0  0  0  0  0  0
  -18.0382  -25.9959   22.8964 H   0  0  0  0  0  0
  -19.8078  -30.7223   24.2075 H   0  0  0  0  0  0
  -17.5157  -31.6183   24.5143 H   0  0  0  0  0  0
  -15.5447  -30.2937   23.7569 H   0  0  0  0  0  0
  -15.8773  -28.0650   22.7178 H   0  0  0  0  0  0
  -24.5987  -30.7130   25.7716 H   0  0  0  0  0  0
  -24.9040  -32.2859   26.5014 H   0  0  0  0  0  0
  -25.8083  -30.8740   27.0209 H   0  0  0  0  0  0
  -26.3338  -29.6554   24.1633 H   0  0  0  0  0  0
  -27.4188  -29.7434   25.5296 H   0  0  0  0  0  0
  -27.9234  -30.4240   24.0041 H   0  0  0  0  0  0
  -27.2872  -33.3810   26.1956 H   0  0  0  0  0  0
  -28.3954  -32.6891   25.0262 H   0  0  0  0  0  0
  -28.0932  -31.8687   26.5452 H   0  0  0  0  0  0
  -28.2646  -37.9984   24.7649 H   0  0  0  0  0  0
  -28.1006  -36.2534   24.6281 H   0  0  0  0  0  0
  -27.2214  -37.1288   25.8874 H   0  0  0  0  0  0
  -20.9447  -29.8853   21.6670 H   0  0  0  0  0  0
  -26.0184  -38.2827   24.1633 H   0  0  0  0  0  0
  -29.1343  -20.2311   23.0440 H   0  0  0  0  0  0
  -28.8341  -20.1141   18.7655 H   0  0  0  0  0  0
  -29.7457  -18.0352   23.1089 H   0  0  0  0  0  0
  -29.2863  -17.7098   18.8641 H   0  0  0  0  0  0
  -27.5204  -24.5591   22.5473 H   0  0  0  0  0  0
  -26.6159  -23.1843   23.1838 H   0  0  0  0  0  0
  -25.9639  -24.2076   20.7007 H   0  0  0  0  0  0
  -25.9091  -22.4819   20.9780 H   0  0  0  0  0  0
  -27.5269  -22.5971   19.2220 H   0  0  0  0  0  0
  -29.2615  -15.7477   23.2339 H   0  0  0  0  0  0
  -30.9432  -16.3091   23.1471 H   0  0  0  0  0  0
  -30.5663  -14.6475   22.9101 H   0  0  0  0  0  0
  -27.8501  -24.8187   18.6899 H   0  0  0  0  0  0
  -29.3676  -24.6001   19.4357 H   0  0  0  0  0  0
  1 25  1  0  0  0
  1 30  2  0  0  0
  1 84  1  0  0  0
  2  3  1  0  0  0
  2 25  1  0  0  0
  2 86  1  0  0  0
  2 87  1  0  0  0
  3  4  1  0  0  0
  3 88  1  0  0  0
  3 89  1  0  0  0
  4  5  1  0  0  0
  4 90  1  0  0  0
  4 91  1  0  0  0
  5  6  1  0  0  0
  5 26  1  0  0  0
  5 92  1  0  0  0
  6 25  1  0  0  0
  6 93  1  0  0  0
  6 94  1  0  0  0
  7  8  2  0  0  0
  7 26  1  0  0  0
  7 29  1  0  0  0
  8  9  1  0  0  0
  8 22  1  0  0  0
  9 10  1  0  0  0
  9 27  2  0  0  0
 10 11  2  0  0  0
 10 15  1  0  0  0
 11 12  1  0  0  0
 11 95  1  0  0  0
 12 13  2  0  0  0
 12 96  1  0  0  0
 13 14  1  0  0  0
 13 31  1  0  0  0
 14 15  2  0  0  0
 14 97  1  0  0  0
 15 98  1  0  0  0
 16 17  2  0  0  0
 16 21  1  0  0  0
 16 31  1  0  0  0
 17 18  1  0  0  0
 17 99  1  0  0  0
 18 19  2  0  0  0
 18100  1  0  0  0
 19 20  1  0  0  0
 19 24  1  0  0  0
 20 21  2  0  0  0
 20101  1  0  0  0
 21 23  1  0  0  0
 22 28  1  0  0  0
 22 32  2  0  0  0
 26 27  1  0  0  0
 28102  1  0  0  0
 28103  1  0  0  0
 29104  1  0  0  0
 29105  1  0  0  0
 33 34  1  0  0  0
 33 66  1  0  0  0
 33 70  2  0  0  0
 34 36  1  0  0  0
 34 59  1  0  0  0
 34106  1  0  0  0
 35 44  2  0  0  0
 35 45  1  0  0  0
 35 68  1  0  0  0
 36 56  1  0  0  0
 36107  1  0  0  0
 37 39  1  0  0  0
 37 47  1  0  0  0
 37 66  1  0  0  0
 37108  1  0  0  0
 38 43  2  0  0  0
 38 46  1  0  0  0
 38 47  1  0  0  0
 39 64  1  0  0  0
 39 67  2  0  0  0
 40 52  1  0  0  0
 40 53  2  0  0  0
 40 58  1  0  0  0
 41109  1  0  0  0
 41110  1  0  0  0
 41111  1  0  0  0
 41 48  1  0  0  0
 42 43  1  0  0  0
 42 66  1  0  0  0
 42112  1  0  0  0
 42113  1  0  0  0
 43 44  1  0  0  0
 44114  1  0  0  0
 45 46  2  0  0  0
 45115  1  0  0  0
 46116  1  0  0  0
 47117  1  0  0  0
 47118  1  0  0  0
 48 56  1  0  0  0
 48 65  1  0  0  0
 48119  1  0  0  0
 49 50  1  0  0  0
 49 53  1  0  0  0
 49 64  1  0  0  0
 49120  1  0  0  0
 50 51  1  0  0  0
 50121  1  0  0  0
 50122  1  0  0  0
 51 52  1  0  0  0
 51123  1  0  0  0
 51124  1  0  0  0
 52125  1  0  0  0
 52126  1  0  0  0
 53 54  1  0  0  0
 54 55  2  0  0  0
 54127  1  0  0  0
 55 57  1  0  0  0
 55128  1  0  0  0
 56 69  2  0  0  0
 57 58  2  0  0  0
 57129  1  0  0  0
 58130  1  0  0  0
 59 60  1  0  0  0
 59 61  1  0  0  0
 59 62  1  0  0  0
 60131  1  0  0  0
 60132  1  0  0  0
 60133  1  0  0  0
 61134  1  0  0  0
 61135  1  0  0  0
 61136  1  0  0  0
 62137  1  0  0  0
 62138  1  0  0  0
 62139  1  0  0  0
 63 65  1  0  0  0
 63140  1  0  0  0
 63141  1  0  0  0
 63142  1  0  0  0
 64143  1  0  0  0
 65144  1  0  0  0
 68 82  1  0  0  0
 71 73  2  0  0  0
 71 75  1  0  0  0
 71145  1  0  0  0
 72 74  1  0  0  0
 72 75  2  0  0  0
 72146  1  0  0  0
 73 76  1  0  0  0
 73147  1  0  0  0
 74 76  2  0  0  0
 74148  1  0  0  0
 75 83  1  0  0  0
 76 84  1  0  0  0
 77 78  1  0  0  0
 77 83  1  0  0  0
 77 85  2  0  0  0
 78 79  1  0  0  0
 78149  1  0  0  0
 78150  1  0  0  0
 79 80  1  0  0  0
 79151  1  0  0  0
 79152  1  0  0  0
 80 82  1  0  0  0
 80 83  1  0  0  0
 80153  1  0  0  0
 81 84  1  0  0  0
 81154  1  0  0  0
 81155  1  0  0  0
 81156  1  0  0  0
 82157  1  0  0  0
 82158  1  0  0  0
M  ISO  4   1 100  68 101  82 101  84 100
M  END
> <chiral flag>
0

> <version>
0

> <s_m_source_file>
/data/baiqing/PycharmProjects/Reinvent-master-3.2/result/LINK_invent/BTK/process_docking_weight1_custom_product_contain_oxygen_bond_distance_aromatic_linkinvent_7_9_3/rearranged_h_0103.sdf

> <i_m_source_file_index>
50

> <r_mmod_Potential_Energy-OPLS-2005>
904.963195800781

> <r_mmod_Stretch_Energy-OPLS-2005>
281.045989990234

> <r_mmod_Bend_Energy-OPLS-2005>
406.035522460938

> <r_mmod_Torsional_Energy-OPLS-2005>
352.921020507812

> <r_mmod_Improper_Torsional_Energy-OPLS-2005>
6.63455057144165

> <r_mmod_Van_der_Waal_Energy-OPLS-2005>
152.98486328125

> <r_mmod_Electrostatic_Energy-OPLS-2005>
-285.306640625

> <r_mmod_Solvation_Energy-OPLS-2005>
-207.217590332031

> <b_mmod_Minimization_Converged-OPLS-2005>
0

> <r_mmod_RMS_Derivative-OPLS-2005>
9.53279876708984

$$$$
50
                    3D
 Structure written by MMmdl.
162171  0  0  1  0            999 V2000
  -30.7227  -14.4512   20.5623 C   0  0  0  0  0  0
  -30.4121  -12.2869   19.4262 C   0  0  0  0  0  0
  -29.4919  -12.4975   18.2071 C   0  0  0  0  0  0
  -28.0132  -12.3631   18.6187 C   0  0  0  0  0  0
  -27.6602  -13.2101   19.8707 C   0  0  2  0  0  0
  -28.7032  -13.0075   20.9938 C   0  0  0  0  0  0
  -25.2585  -13.8172   20.5686 C   0  0  0  0  0  0
  -24.1836  -13.0443   20.9174 C   0  0  0  0  0  0
  -24.6396  -11.6908   20.8728 C   0  0  0  0  0  0
  -23.9061  -10.4291   21.0396 C   0  0  0  0  0  0
  -24.3613   -9.4208   21.9179 C   0  0  0  0  0  0
  -23.6289   -8.2241   22.0753 C   0  0  0  0  0  0
  -22.4271   -8.0274   21.3541 C   0  0  0  0  0  0
  -21.9902   -9.0246   20.4645 C   0  0  0  0  0  0
  -22.7227  -10.2130   20.3049 C   0  0  0  0  0  0
  -21.6858   -6.0732   22.5280 C   0  0  0  0  0  0
  -21.4014   -6.5638   23.8213 C   0  0  0  0  0  0
  -21.3662   -5.6790   24.9177 C   0  0  0  0  0  0
  -21.6046   -4.3051   24.7227 C   0  0  0  0  0  0
  -21.8821   -3.8143   23.4348 C   0  0  0  0  0  0
  -21.9195   -4.6959   22.3403 C   0  0  0  0  0  0
  -22.7851  -13.5229   21.1846 C   0  0  0  0  0  0
  -22.1664   -4.2147   21.0981 F   0  0  0  0  0  0
  -21.5630   -3.4535   25.7741 F   0  0  0  0  0  0
  -30.0346  -13.2842   20.4394 N   0  0  0  0  0  0
  -26.3024  -12.9349   20.3367 N   0  0  0  0  0  0
  -25.9323  -11.6504   20.5760 N   0  0  0  0  0  0
  -22.0500  -12.8212   22.0403 N   0  0  0  0  0  0
  -25.4315  -15.1893   20.4116 N   0  0  0  0  0  0
  -31.8548  -14.5786   20.0874 O   0  0  0  0  0  0
  -21.6638   -6.8871   21.4238 O   0  0  0  0  0  0
  -22.3528  -14.5537   20.6707 O   0  0  0  0  0  0
  -24.6128  -31.8689   23.2113 C   0  0  0  0  0  0
  -25.9026  -32.4833   23.8405 C   0  0  1  0  0  0
  -27.2395  -27.4661   20.0813 C   0  0  0  0  0  0
  -25.5890  -33.8628   24.2340 N   0  0  0  0  0  0
  -23.4011  -30.4924   21.5511 C   0  0  2  0  0  0
  -24.8516  -28.9669   20.1102 C   0  0  0  0  0  0
  -22.7411  -29.4657   22.4991 C   0  0  0  0  0  0
  -18.0271  -28.1374   22.8492 C   0  0  0  0  0  0
  -24.1488  -36.7321   23.2640 C   0  0  0  0  0  0
  -25.9280  -30.8463   21.3596 C   0  0  0  0  0  0
  -26.0118  -29.4853   20.7019 C   0  0  0  0  0  0
  -27.2143  -28.7427   20.6872 C   0  0  0  0  0  0
  -26.0632  -26.9504   19.5051 C   0  0  0  0  0  0
  -24.8711  -27.6971   19.5078 C   0  0  0  0  0  0
  -23.6089  -29.8267   20.1645 C   0  0  0  0  0  0
  -25.4108  -36.3118   24.0342 C   0  0  1  0  0  0
  -20.5862  -28.3653   23.1320 C   0  0  2  0  0  0
  -20.6761  -26.9389   22.5418 C   0  0  0  0  0  0
  -19.5739  -26.6381   21.5212 C   0  0  0  0  0  0
  -18.1915  -26.7921   22.1619 C   0  0  0  0  0  0
  -19.1520  -28.8829   23.2903 C   0  0  0  0  0  0
  -18.9450  -30.1439   23.8909 C   0  0  0  0  0  0
  -17.6452  -30.6579   24.0564 C   0  0  0  0  0  0
  -25.9030  -34.9478   23.5138 C   0  0  0  0  0  0
  -16.5345  -29.9081   23.6325 C   0  0  0  0  0  0
  -16.7261  -28.6499   23.0346 C   0  0  0  0  0  0
  -26.4467  -31.6597   25.0717 C   0  0  0  0  0  0
  -25.3742  -31.3688   26.1472 C   0  0  0  0  0  0
  -27.0294  -30.3044   24.6061 C   0  0  0  0  0  0
  -27.6053  -32.4300   25.7473 C   0  0  0  0  0  0
  -27.5582  -37.1814   24.8465 C   0  0  0  0  0  0
  -21.4139  -29.3024   22.3731 N   0  0  0  0  0  0
  -26.4298  -37.3797   23.9409 N   0  0  0  0  0  0
  -24.6654  -31.0817   22.0999 N   0  0  0  0  0  0
  -23.4187  -28.8204   23.3032 O   0  0  0  0  0  0
  -28.3305  -26.6368   20.1114 O   0  0  0  0  0  0
  -26.5592  -34.8926   22.4700 O   0  0  0  0  0  0
  -23.5326  -32.1426   23.7521 O   0  0  0  0  0  0
  -30.4221  -20.5857   21.3126 C   0  0  0  0  0  0
  -31.9566  -21.8420   19.9000 C   0  0  0  0  0  0
  -31.5226  -19.4841   19.4501 C   0  0  0  0  0  0
  -31.0585  -21.8145   20.9903 C   0  0  0  0  0  0
  -30.6629  -19.4038   20.5742 C   0  0  0  0  0  0
  -32.1631  -20.6921   19.1195 C   0  0  0  0  0  0
  -30.5930  -24.8012   20.2881 C   0  0  0  0  0  0
  -30.9224  -22.9933   21.9307 C   0  0  0  0  0  0
  -30.8670  -26.7003   21.7530 C   0  0  0  0  0  0
  -31.0353  -25.3702   22.4925 C   0  0  0  0  0  0
  -30.7147  -26.3320   20.2778 C   0  0  2  0  0  0
  -30.0649  -15.7168   21.1644 C   0  0  0  0  0  0
  -29.5641  -27.0892   19.5751 C   0  0  0  0  0  0
  -30.6080  -17.0034   20.4874 C   0  0  0  0  0  0
  -30.8574  -24.2913   21.5125 N   0  0  0  0  0  0
  -30.2759  -24.1784   19.2702 O   0  0  0  0  0  0
  -30.9046  -22.7287   23.1394 O   0  0  0  0  0  0
  -30.0708  -18.2253   21.0070 O   0  0  0  0  0  0
  -33.0099  -20.7374   18.0635 F   0  0  0  0  0  0
  -31.4594  -12.3567   19.1281 H   0  0  0  0  0  0
  -30.2890  -11.2804   19.8300 H   0  0  0  0  0  0
  -29.7274  -11.7723   17.4271 H   0  0  0  0  0  0
  -29.6692  -13.4835   17.7739 H   0  0  0  0  0  0
  -27.8222  -11.3086   18.8212 H   0  0  0  0  0  0
  -27.3640  -12.6361   17.7866 H   0  0  0  0  0  0
  -27.7012  -14.2539   19.5615 H   0  0  0  0  0  0
  -28.6681  -11.9802   21.3601 H   0  0  0  0  0  0
  -28.4806  -13.6348   21.8568 H   0  0  0  0  0  0
  -25.2762   -9.5683   22.4746 H   0  0  0  0  0  0
  -24.0012   -7.4625   22.7457 H   0  0  0  0  0  0
  -21.0843   -8.8744   19.8936 H   0  0  0  0  0  0
  -22.3683  -10.9658   19.6146 H   0  0  0  0  0  0
  -21.2002   -7.6146   23.9716 H   0  0  0  0  0  0
  -21.1485   -6.0522   25.9082 H   0  0  0  0  0  0
  -22.0599   -2.7603   23.2852 H   0  0  0  0  0  0
  -22.4134  -11.9890   22.4807 H   0  0  0  0  0  0
  -21.1110  -13.1214   22.2612 H   0  0  0  0  0  0
  -24.6674  -15.8471   20.5224 H   0  0  0  0  0  0
  -26.2925  -15.6278   20.1084 H   0  0  0  0  0  0
  -26.7106  -32.5562   23.1181 H   0  0  0  0  0  0
  -25.0042  -33.9795   25.0485 H   0  0  0  0  0  0
  -22.6883  -31.3078   21.4135 H   0  0  0  0  0  0
  -23.3742  -35.9661   23.3314 H   0  0  0  0  0  0
  -24.3583  -36.8923   22.2052 H   0  0  0  0  0  0
  -23.7247  -37.6534   23.6644 H   0  0  0  0  0  0
  -26.0359  -31.6167   20.5948 H   0  0  0  0  0  0
  -26.8166  -30.8996   21.9771 H   0  0  0  0  0  0
  -28.1021  -29.1333   21.1639 H   0  0  0  0  0  0
  -26.0722  -25.9644   19.0609 H   0  0  0  0  0  0
  -23.9780  -27.2876   19.0554 H   0  0  0  0  0  0
  -23.7100  -30.6024   19.4045 H   0  0  0  0  0  0
  -22.7356  -29.2416   19.8717 H   0  0  0  0  0  0
  -25.1283  -36.1989   25.0834 H   0  0  0  0  0  0
  -20.9952  -28.3214   24.1442 H   0  0  0  0  0  0
  -20.5662  -26.2259   23.3603 H   0  0  0  0  0  0
  -21.6632  -26.7434   22.1211 H   0  0  0  0  0  0
  -19.6900  -25.6295   21.1232 H   0  0  0  0  0  0
  -19.6682  -27.3202   20.6752 H   0  0  0  0  0  0
  -17.4191  -26.6678   21.4017 H   0  0  0  0  0  0
  -18.0309  -26.0058   22.9008 H   0  0  0  0  0  0
  -19.7928  -30.7255   24.2283 H   0  0  0  0  0  0
  -17.5008  -31.6261   24.5160 H   0  0  0  0  0  0
  -15.5346  -30.2989   23.7641 H   0  0  0  0  0  0
  -15.8661  -28.0828   22.7049 H   0  0  0  0  0  0
  -24.5907  -30.7045   25.7806 H   0  0  0  0  0  0
  -24.8941  -32.2841   26.4944 H   0  0  0  0  0  0
  -25.8101  -30.8836   27.0213 H   0  0  0  0  0  0
  -26.2830  -29.6809   24.1126 H   0  0  0  0  0  0
  -27.4097  -29.7270   25.4499 H   0  0  0  0  0  0
  -27.8650  -30.4380   23.9184 H   0  0  0  0  0  0
  -27.2683  -33.3584   26.2091 H   0  0  0  0  0  0
  -28.3838  -32.6877   25.0281 H   0  0  0  0  0  0
  -28.0744  -31.8393   26.5351 H   0  0  0  0  0  0
  -28.2609  -38.0102   24.7505 H   0  0  0  0  0  0
  -28.1068  -36.2635   24.6299 H   0  0  0  0  0  0
  -27.2302  -37.1477   25.8869 H   0  0  0  0  0  0
  -20.9295  -29.8742   21.6954 H   0  0  0  0  0  0
  -26.0190  -38.2880   24.1398 H   0  0  0  0  0  0
  -29.7789  -20.5355   22.1806 H   0  0  0  0  0  0
  -32.5066  -22.7393   19.6575 H   0  0  0  0  0  0
  -31.7330  -18.6263   18.8305 H   0  0  0  0  0  0
  -31.7272  -27.3524   21.9102 H   0  0  0  0  0  0
  -29.9893  -27.2314   22.1242 H   0  0  0  0  0  0
  -30.2996  -25.2913   23.2959 H   0  0  0  0  0  0
  -32.0265  -25.3061   22.9459 H   0  0  0  0  0  0
  -31.6474  -26.5669   19.7631 H   0  0  0  0  0  0
  -28.9840  -15.6902   21.0371 H   0  0  0  0  0  0
  -30.2632  -15.7380   22.2358 H   0  0  0  0  0  0
  -29.5761  -26.8915   18.5022 H   0  0  0  0  0  0
  -29.6962  -28.1652   19.7000 H   0  0  0  0  0  0
  -30.3948  -16.9482   19.4180 H   0  0  0  0  0  0
  -31.6926  -17.0369   20.6072 H   0  0  0  0  0  0
  1 25  1  0  0  0
  1 30  2  0  0  0
  1 82  1  0  0  0
  2  3  1  0  0  0
  2 25  1  0  0  0
  2 90  1  0  0  0
  2 91  1  0  0  0
  3  4  1  0  0  0
  3 92  1  0  0  0
  3 93  1  0  0  0
  4  5  1  0  0  0
  4 94  1  0  0  0
  4 95  1  0  0  0
  5  6  1  0  0  0
  5 26  1  0  0  0
  5 96  1  0  0  0
  6 25  1  0  0  0
  6 97  1  0  0  0
  6 98  1  0  0  0
  7  8  2  0  0  0
  7 26  1  0  0  0
  7 29  1  0  0  0
  8  9  1  0  0  0
  8 22  1  0  0  0
  9 10  1  0  0  0
  9 27  2  0  0  0
 10 11  2  0  0  0
 10 15  1  0  0  0
 11 12  1  0  0  0
 11 99  1  0  0  0
 12 13  2  0  0  0
 12100  1  0  0  0
 13 14  1  0  0  0
 13 31  1  0  0  0
 14 15  2  0  0  0
 14101  1  0  0  0
 15102  1  0  0  0
 16 17  2  0  0  0
 16 21  1  0  0  0
 16 31  1  0  0  0
 17 18  1  0  0  0
 17103  1  0  0  0
 18 19  2  0  0  0
 18104  1  0  0  0
 19 20  1  0  0  0
 19 24  1  0  0  0
 20 21  2  0  0  0
 20105  1  0  0  0
 21 23  1  0  0  0
 22 28  1  0  0  0
 22 32  2  0  0  0
 26 27  1  0  0  0
 28106  1  0  0  0
 28107  1  0  0  0
 29108  1  0  0  0
 29109  1  0  0  0
 33 34  1  0  0  0
 33 66  1  0  0  0
 33 70  2  0  0  0
 34 36  1  0  0  0
 34 59  1  0  0  0
 34110  1  0  0  0
 35 44  2  0  0  0
 35 45  1  0  0  0
 35 68  1  0  0  0
 36 56  1  0  0  0
 36111  1  0  0  0
 37 39  1  0  0  0
 37 47  1  0  0  0
 37 66  1  0  0  0
 37112  1  0  0  0
 38 43  2  0  0  0
 38 46  1  0  0  0
 38 47  1  0  0  0
 39 64  1  0  0  0
 39 67  2  0  0  0
 40 52  1  0  0  0
 40 53  2  0  0  0
 40 58  1  0  0  0
 41113  1  0  0  0
 41114  1  0  0  0
 41115  1  0  0  0
 41 48  1  0  0  0
 42 43  1  0  0  0
 42 66  1  0  0  0
 42116  1  0  0  0
 42117  1  0  0  0
 43 44  1  0  0  0
 44118  1  0  0  0
 45 46  2  0  0  0
 45119  1  0  0  0
 46120  1  0  0  0
 47121  1  0  0  0
 47122  1  0  0  0
 48 56  1  0  0  0
 48 65  1  0  0  0
 48123  1  0  0  0
 49 50  1  0  0  0
 49 53  1  0  0  0
 49 64  1  0  0  0
 49124  1  0  0  0
 50 51  1  0  0  0
 50125  1  0  0  0
 50126  1  0  0  0
 51 52  1  0  0  0
 51127  1  0  0  0
 51128  1  0  0  0
 52129  1  0  0  0
 52130  1  0  0  0
 53 54  1  0  0  0
 54 55  2  0  0  0
 54131  1  0  0  0
 55 57  1  0  0  0
 55132  1  0  0  0
 56 69  2  0  0  0
 57 58  2  0  0  0
 57133  1  0  0  0
 58134  1  0  0  0
 59 60  1  0  0  0
 59 61  1  0  0  0
 59 62  1  0  0  0
 60135  1  0  0  0
 60136  1  0  0  0
 60137  1  0  0  0
 61138  1  0  0  0
 61139  1  0  0  0
 61140  1  0  0  0
 62141  1  0  0  0
 62142  1  0  0  0
 62143  1  0  0  0
 63 65  1  0  0  0
 63144  1  0  0  0
 63145  1  0  0  0
 63146  1  0  0  0
 64147  1  0  0  0
 65148  1  0  0  0
 68 83  1  0  0  0
 71 74  2  0  0  0
 71 75  1  0  0  0
 71149  1  0  0  0
 72 74  1  0  0  0
 72 76  2  0  0  0
 72150  1  0  0  0
 73 75  2  0  0  0
 73 76  1  0  0  0
 73151  1  0  0  0
 74 78  1  0  0  0
 75 88  1  0  0  0
 76 89  1  0  0  0
 77 81  1  0  0  0
 77 85  1  0  0  0
 77 86  2  0  0  0
 78 85  1  0  0  0
 78 87  2  0  0  0
 79 80  1  0  0  0
 79 81  1  0  0  0
 79152  1  0  0  0
 79153  1  0  0  0
 80 85  1  0  0  0
 80154  1  0  0  0
 80155  1  0  0  0
 81 83  1  0  0  0
 81156  1  0  0  0
 82 84  1  0  0  0
 82157  1  0  0  0
 82158  1  0  0  0
 83159  1  0  0  0
 83160  1  0  0  0
 84 88  1  0  0  0
 84161  1  0  0  0
 84162  1  0  0  0
M  ISO  4   1 100  68 101  82 100  83 101
M  END
> <chiral flag>
0

> <version>
0

> <s_m_source_file>
/data/baiqing/PycharmProjects/Reinvent-master-3.2/result/LINK_invent/BTK/process_docking_weight1_custom_product_contain_oxygen_bond_distance_aromatic_linkinvent_7_9_3/rearranged_h_0103.sdf

> <i_m_source_file_index>
51

> <r_mmod_Potential_Energy-OPLS-2005>
-12.0524282455444

> <r_mmod_Stretch_Energy-OPLS-2005>
39.1176414489746

> <r_mmod_Bend_Energy-OPLS-2005>
138.643859863281

> <r_mmod_Torsional_Energy-OPLS-2005>
240.638259887695

> <r_mmod_Improper_Torsional_Energy-OPLS-2005>
4.31523990631104

> <r_mmod_Van_der_Waal_Energy-OPLS-2005>
165.229202270508

> <r_mmod_Electrostatic_Energy-OPLS-2005>
-400.108001708984

> <r_mmod_Solvation_Energy-OPLS-2005>
-213.49983215332

> <b_mmod_Minimization_Converged-OPLS-2005>
0

> <r_mmod_RMS_Derivative-OPLS-2005>
1.23873174190521

$$$$
51
                    3D
 Structure written by MMmdl.
154162  0  0  1  0            999 V2000
  -30.7504  -14.4424   20.6531 C   0  0  0  0  0  0
  -30.4158  -12.3243   19.4160 C   0  0  0  0  0  0
  -29.4891  -12.5254   18.2028 C   0  0  0  0  0  0
  -28.0133  -12.3756   18.6163 C   0  0  0  0  0  0
  -27.6601  -13.2132   19.8739 C   0  0  2  0  0  0
  -28.6999  -13.0004   20.9969 C   0  0  0  0  0  0
  -25.2523  -13.8156   20.5607 C   0  0  0  0  0  0
  -24.1814  -13.0433   20.9187 C   0  0  0  0  0  0
  -24.6392  -11.6903   20.8753 C   0  0  0  0  0  0
  -23.9067  -10.4293   21.0409 C   0  0  0  0  0  0
  -24.3617   -9.4205   21.9184 C   0  0  0  0  0  0
  -23.6288   -8.2242   22.0762 C   0  0  0  0  0  0
  -22.4271   -8.0282   21.3549 C   0  0  0  0  0  0
  -21.9906   -9.0259   20.4654 C   0  0  0  0  0  0
  -22.7239  -10.2134   20.3058 C   0  0  0  0  0  0
  -21.6847   -6.0730   22.5279 C   0  0  0  0  0  0
  -21.4013   -6.5635   23.8214 C   0  0  0  0  0  0
  -21.3658   -5.6789   24.9175 C   0  0  0  0  0  0
  -21.6039   -4.3054   24.7224 C   0  0  0  0  0  0
  -21.8820   -3.8141   23.4349 C   0  0  0  0  0  0
  -21.9196   -4.6956   22.3402 C   0  0  0  0  0  0
  -22.7834  -13.5225   21.1850 C   0  0  0  0  0  0
  -22.1661   -4.2144   21.0978 F   0  0  0  0  0  0
  -21.5628   -3.4536   25.7739 F   0  0  0  0  0  0
  -30.0353  -13.2986   20.4546 N   0  0  0  0  0  0
  -26.3005  -12.9359   20.3342 N   0  0  0  0  0  0
  -25.9323  -11.6513   20.5770 N   0  0  0  0  0  0
  -22.0467  -12.8230   22.0406 N   0  0  0  0  0  0
  -25.4138  -15.1854   20.3835 N   0  0  0  0  0  0
  -31.8015  -14.6813   20.0535 O   0  0  0  0  0  0
  -21.6638   -6.8875   21.4242 O   0  0  0  0  0  0
  -22.3513  -14.5522   20.6690 O   0  0  0  0  0  0
  -24.6155  -31.8672   23.2079 C   0  0  0  0  0  0
  -25.9039  -32.4817   23.8376 C   0  0  1  0  0  0
  -27.2335  -27.4283   20.1030 C   0  0  0  0  0  0
  -25.5890  -33.8617   24.2300 N   0  0  0  0  0  0
  -23.4039  -30.4912   21.5481 C   0  0  2  0  0  0
  -24.8519  -28.9524   20.1159 C   0  0  0  0  0  0
  -22.7420  -29.4669   22.4986 C   0  0  0  0  0  0
  -18.0284  -28.1384   22.8498 C   0  0  0  0  0  0
  -24.1488  -36.7318   23.2642 C   0  0  0  0  0  0
  -25.9331  -30.8329   21.3596 C   0  0  0  0  0  0
  -26.0128  -29.4651   20.7108 C   0  0  0  0  0  0
  -27.2100  -28.7107   20.7001 C   0  0  0  0  0  0
  -26.0603  -26.9289   19.5042 C   0  0  0  0  0  0
  -24.8706  -27.6836   19.5082 C   0  0  0  0  0  0
  -23.6129  -29.8200   20.1634 C   0  0  0  0  0  0
  -25.4110  -36.3109   24.0333 C   0  0  1  0  0  0
  -20.5877  -28.3672   23.1318 C   0  0  2  0  0  0
  -20.6779  -26.9410   22.5421 C   0  0  0  0  0  0
  -19.5749  -26.6402   21.5220 C   0  0  0  0  0  0
  -18.1925  -26.7934   22.1629 C   0  0  0  0  0  0
  -19.1535  -28.8843   23.2908 C   0  0  0  0  0  0
  -18.9461  -30.1455   23.8912 C   0  0  0  0  0  0
  -17.6463  -30.6588   24.0574 C   0  0  0  0  0  0
  -25.9036  -34.9478   23.5115 C   0  0  0  0  0  0
  -16.5352  -29.9092   23.6332 C   0  0  0  0  0  0
  -16.7274  -28.6511   23.0342 C   0  0  0  0  0  0
  -26.4462  -31.6607   25.0716 C   0  0  0  0  0  0
  -25.3727  -31.3729   26.1469 C   0  0  0  0  0  0
  -27.0274  -30.3045   24.6082 C   0  0  0  0  0  0
  -27.6034  -32.4331   25.7472 C   0  0  0  0  0  0
  -27.5578  -37.1816   24.8468 C   0  0  0  0  0  0
  -21.4149  -29.3034   22.3719 N   0  0  0  0  0  0
  -26.4293  -37.3798   23.9410 N   0  0  0  0  0  0
  -24.6694  -31.0782   22.0972 N   0  0  0  0  0  0
  -23.4196  -28.8228   23.3039 O   0  0  0  0  0  0
  -28.3763  -26.6588   20.0952 O   0  0  0  0  0  0
  -26.5614  -34.8929   22.4688 O   0  0  0  0  0  0
  -23.5346  -32.1409   23.7484 O   0  0  0  0  0  0
  -30.0917  -19.0019   21.4397 C   0  0  0  0  0  0
  -30.6357  -17.6941   21.4436 C   0  0  0  0  0  0
  -28.3999  -16.7575   21.4424 C   0  0  0  0  0  0
  -28.6901  -19.2109   21.4689 C   0  0  0  0  0  0
  -29.7955  -16.5559   21.4584 C   0  0  0  0  0  0
  -27.8517  -18.0628   21.4439 C   0  0  0  0  0  0
  -28.1103  -20.5970   21.6973 C   0  0  0  0  0  0
  -28.5479  -24.1564   20.4530 C   0  0  0  0  0  0
  -28.4643  -23.0637   21.5562 C   0  0  0  0  0  0
  -28.3758  -25.5827   21.0521 C   0  0  0  0  0  0
  -30.3531  -15.2524   21.6511 N   0  0  0  0  0  0
  -28.7141  -21.6664   21.1320 N   0  0  0  0  0  0
  -27.1231  -20.7319   22.4256 O   0  0  0  0  0  0
  -26.5023  -18.1885   21.4608 F   0  0  0  0  0  0
  -31.4594  -12.4208   19.1119 H   0  0  0  0  0  0
  -30.3170  -11.3098   19.8065 H   0  0  0  0  0  0
  -29.7340  -11.8072   17.4192 H   0  0  0  0  0  0
  -29.6551  -13.5150   17.7731 H   0  0  0  0  0  0
  -27.8280  -11.3183   18.8089 H   0  0  0  0  0  0
  -27.3616  -12.6513   17.7867 H   0  0  0  0  0  0
  -27.7039  -14.2616   19.5785 H   0  0  0  0  0  0
  -28.6729  -11.9677   21.3470 H   0  0  0  0  0  0
  -28.4509  -13.6100   21.8654 H   0  0  0  0  0  0
  -25.2765   -9.5676   22.4754 H   0  0  0  0  0  0
  -24.0001   -7.4628   22.7474 H   0  0  0  0  0  0
  -21.0842   -8.8775   19.8954 H   0  0  0  0  0  0
  -22.3701  -10.9675   19.6165 H   0  0  0  0  0  0
  -21.2000   -7.6142   23.9716 H   0  0  0  0  0  0
  -21.1481   -6.0517   25.9078 H   0  0  0  0  0  0
  -22.0602   -2.7605   23.2851 H   0  0  0  0  0  0
  -22.4101  -11.9922   22.4849 H   0  0  0  0  0  0
  -21.1088  -13.1270   22.2615 H   0  0  0  0  0  0
  -24.6428  -15.8351   20.4903 H   0  0  0  0  0  0
  -26.2473  -15.6237   20.0161 H   0  0  0  0  0  0
  -26.7114  -32.5523   23.1144 H   0  0  0  0  0  0
  -25.0040  -33.9770   25.0442 H   0  0  0  0  0  0
  -22.6952  -31.3095   21.4066 H   0  0  0  0  0  0
  -23.3734  -35.9666   23.3320 H   0  0  0  0  0  0
  -24.3589  -36.8927   22.2055 H   0  0  0  0  0  0
  -23.7254  -37.6535   23.6647 H   0  0  0  0  0  0
  -26.0461  -31.5986   20.5897 H   0  0  0  0  0  0
  -26.8215  -30.8895   21.9764 H   0  0  0  0  0  0
  -28.1069  -29.1017   21.1610 H   0  0  0  0  0  0
  -26.0689  -25.9538   19.0378 H   0  0  0  0  0  0
  -23.9785  -27.2835   19.0457 H   0  0  0  0  0  0
  -23.7231  -30.5939   19.4031 H   0  0  0  0  0  0
  -22.7354  -29.2434   19.8648 H   0  0  0  0  0  0
  -25.1287  -36.1969   25.0826 H   0  0  0  0  0  0
  -20.9976  -28.3237   24.1437 H   0  0  0  0  0  0
  -20.5706  -26.2272   23.3602 H   0  0  0  0  0  0
  -21.6639  -26.7471   22.1190 H   0  0  0  0  0  0
  -19.6908  -25.6324   21.1225 H   0  0  0  0  0  0
  -19.6676  -27.3234   20.6762 H   0  0  0  0  0  0
  -17.4202  -26.6708   21.4024 H   0  0  0  0  0  0
  -18.0305  -26.0068   22.9011 H   0  0  0  0  0  0
  -19.7938  -30.7274   24.2271 H   0  0  0  0  0  0
  -17.5015  -31.6261   24.5186 H   0  0  0  0  0  0
  -15.5350  -30.2994   23.7642 H   0  0  0  0  0  0
  -15.8679  -28.0841   22.7024 H   0  0  0  0  0  0
  -24.5873  -30.7105   25.7804 H   0  0  0  0  0  0
  -24.8946  -32.2899   26.4929 H   0  0  0  0  0  0
  -25.8076  -30.8879   27.0216 H   0  0  0  0  0  0
  -26.2801  -29.6841   24.1114 H   0  0  0  0  0  0
  -27.4025  -29.7254   25.4529 H   0  0  0  0  0  0
  -27.8648  -30.4365   23.9228 H   0  0  0  0  0  0
  -27.2638  -33.3619   26.2071 H   0  0  0  0  0  0
  -28.3817  -32.6930   25.0288 H   0  0  0  0  0  0
  -28.0719  -31.8452   26.5375 H   0  0  0  0  0  0
  -28.2607  -38.0103   24.7502 H   0  0  0  0  0  0
  -28.1062  -36.2637   24.6295 H   0  0  0  0  0  0
  -27.2305  -37.1471   25.8876 H   0  0  0  0  0  0
  -20.9309  -29.8743   21.6929 H   0  0  0  0  0  0
  -26.0179  -38.2876   24.1405 H   0  0  0  0  0  0
  -30.7643  -19.8466   21.4829 H   0  0  0  0  0  0
  -31.7104  -17.5721   21.4757 H   0  0  0  0  0  0
  -27.7339  -15.9110   21.4984 H   0  0  0  0  0  0
  -27.7765  -23.9794   19.7043 H   0  0  0  0  0  0
  -29.5039  -24.0956   19.9327 H   0  0  0  0  0  0
  -27.4854  -23.1484   22.0304 H   0  0  0  0  0  0
  -29.1875  -23.2931   22.3402 H   0  0  0  0  0  0
  -29.1982  -25.7731   21.7436 H   0  0  0  0  0  0
  -27.4728  -25.6074   21.6650 H   0  0  0  0  0  0
  -31.1295  -15.3143   22.2930 H   0  0  0  0  0  0
  -29.5026  -21.4884   20.5254 H   0  0  0  0  0  0
  1 25  1  0  0  0
  1 30  2  0  0  0
  1 81  1  0  0  0
  2  3  1  0  0  0
  2 25  1  0  0  0
  2 85  1  0  0  0
  2 86  1  0  0  0
  3  4  1  0  0  0
  3 87  1  0  0  0
  3 88  1  0  0  0
  4  5  1  0  0  0
  4 89  1  0  0  0
  4 90  1  0  0  0
  5  6  1  0  0  0
  5 26  1  0  0  0
  5 91  1  0  0  0
  6 25  1  0  0  0
  6 92  1  0  0  0
  6 93  1  0  0  0
  7  8  2  0  0  0
  7 26  1  0  0  0
  7 29  1  0  0  0
  8  9  1  0  0  0
  8 22  1  0  0  0
  9 10  1  0  0  0
  9 27  2  0  0  0
 10 11  2  0  0  0
 10 15  1  0  0  0
 11 12  1  0  0  0
 11 94  1  0  0  0
 12 13  2  0  0  0
 12 95  1  0  0  0
 13 14  1  0  0  0
 13 31  1  0  0  0
 14 15  2  0  0  0
 14 96  1  0  0  0
 15 97  1  0  0  0
 16 17  2  0  0  0
 16 21  1  0  0  0
 16 31  1  0  0  0
 17 18  1  0  0  0
 17 98  1  0  0  0
 18 19  2  0  0  0
 18 99  1  0  0  0
 19 20  1  0  0  0
 19 24  1  0  0  0
 20 21  2  0  0  0
 20100  1  0  0  0
 21 23  1  0  0  0
 22 28  1  0  0  0
 22 32  2  0  0  0
 26 27  1  0  0  0
 28101  1  0  0  0
 28102  1  0  0  0
 29103  1  0  0  0
 29104  1  0  0  0
 33 34  1  0  0  0
 33 66  1  0  0  0
 33 70  2  0  0  0
 34 36  1  0  0  0
 34 59  1  0  0  0
 34105  1  0  0  0
 35 44  2  0  0  0
 35 45  1  0  0  0
 35 68  1  0  0  0
 36 56  1  0  0  0
 36106  1  0  0  0
 37 39  1  0  0  0
 37 47  1  0  0  0
 37 66  1  0  0  0
 37107  1  0  0  0
 38 43  2  0  0  0
 38 46  1  0  0  0
 38 47  1  0  0  0
 39 64  1  0  0  0
 39 67  2  0  0  0
 40 52  1  0  0  0
 40 53  2  0  0  0
 40 58  1  0  0  0
 41108  1  0  0  0
 41109  1  0  0  0
 41110  1  0  0  0
 41 48  1  0  0  0
 42 43  1  0  0  0
 42 66  1  0  0  0
 42111  1  0  0  0
 42112  1  0  0  0
 43 44  1  0  0  0
 44113  1  0  0  0
 45 46  2  0  0  0
 45114  1  0  0  0
 46115  1  0  0  0
 47116  1  0  0  0
 47117  1  0  0  0
 48 56  1  0  0  0
 48 65  1  0  0  0
 48118  1  0  0  0
 49 50  1  0  0  0
 49 53  1  0  0  0
 49 64  1  0  0  0
 49119  1  0  0  0
 50 51  1  0  0  0
 50120  1  0  0  0
 50121  1  0  0  0
 51 52  1  0  0  0
 51122  1  0  0  0
 51123  1  0  0  0
 52124  1  0  0  0
 52125  1  0  0  0
 53 54  1  0  0  0
 54 55  2  0  0  0
 54126  1  0  0  0
 55 57  1  0  0  0
 55127  1  0  0  0
 56 69  2  0  0  0
 57 58  2  0  0  0
 57128  1  0  0  0
 58129  1  0  0  0
 59 60  1  0  0  0
 59 61  1  0  0  0
 59 62  1  0  0  0
 60130  1  0  0  0
 60131  1  0  0  0
 60132  1  0  0  0
 61133  1  0  0  0
 61134  1  0  0  0
 61135  1  0  0  0
 62136  1  0  0  0
 62137  1  0  0  0
 62138  1  0  0  0
 63 65  1  0  0  0
 63139  1  0  0  0
 63140  1  0  0  0
 63141  1  0  0  0
 64142  1  0  0  0
 65143  1  0  0  0
 68 80  1  0  0  0
 71 72  2  0  0  0
 71 74  1  0  0  0
 71144  1  0  0  0
 72 75  1  0  0  0
 72145  1  0  0  0
 73 75  2  0  0  0
 73 76  1  0  0  0
 73146  1  0  0  0
 74 76  2  0  0  0
 74 77  1  0  0  0
 75 81  1  0  0  0
 76 84  1  0  0  0
 77 82  1  0  0  0
 77 83  2  0  0  0
 78 79  1  0  0  0
 78 80  1  0  0  0
 78147  1  0  0  0
 78148  1  0  0  0
 79 82  1  0  0  0
 79149  1  0  0  0
 79150  1  0  0  0
 80151  1  0  0  0
 80152  1  0  0  0
 81153  1  0  0  0
 82154  1  0  0  0
M  ISO  4   1 100  68 101  80 101  81 100
M  END
> <chiral flag>
0

> <version>
0

> <s_m_source_file>
/data/baiqing/PycharmProjects/Reinvent-master-3.2/result/LINK_invent/BTK/process_docking_weight1_custom_product_contain_oxygen_bond_distance_aromatic_linkinvent_7_9_3/rearranged_h_0103.sdf

> <i_m_source_file_index>
52

> <r_mmod_Potential_Energy-OPLS-2005>
21.9414215087891

> <r_mmod_Stretch_Energy-OPLS-2005>
40.9112396240234

> <r_mmod_Bend_Energy-OPLS-2005>
106.40217590332

> <r_mmod_Torsional_Energy-OPLS-2005>
307.336486816406

> <r_mmod_Improper_Torsional_Energy-OPLS-2005>
10.3106174468994

> <r_mmod_Van_der_Waal_Energy-OPLS-2005>
141.815414428711

> <r_mmod_Electrostatic_Energy-OPLS-2005>
-371.860229492188

> <r_mmod_Solvation_Energy-OPLS-2005>
-224.117111206055

> <b_mmod_Minimization_Converged-OPLS-2005>
0

> <r_mmod_RMS_Derivative-OPLS-2005>
1.62689161300659

$$$$
52
                    3D
 Structure written by MMmdl.
153161  0  0  1  0            999 V2000
  -30.6137  -14.6518   20.5187 C   0  0  0  0  0  0
  -30.4439  -12.4029   19.4578 C   0  0  0  0  0  0
  -29.5128  -12.5159   18.2290 C   0  0  0  0  0  0
  -28.0367  -12.3438   18.6406 C   0  0  0  0  0  0
  -27.6575  -13.2145   19.8687 C   0  0  2  0  0  0
  -28.7003  -13.0632   21.0000 C   0  0  0  0  0  0
  -25.2583  -13.8163   20.5687 C   0  0  0  0  0  0
  -24.1841  -13.0438   20.9176 C   0  0  0  0  0  0
  -24.6404  -11.6906   20.8735 C   0  0  0  0  0  0
  -23.9071  -10.4293   21.0405 C   0  0  0  0  0  0
  -24.3621   -9.4208   21.9186 C   0  0  0  0  0  0
  -23.6294   -8.2246   22.0755 C   0  0  0  0  0  0
  -22.4277   -8.0283   21.3547 C   0  0  0  0  0  0
  -21.9914   -9.0259   20.4650 C   0  0  0  0  0  0
  -22.7242  -10.2136   20.3058 C   0  0  0  0  0  0
  -21.6855   -6.0739   22.5281 C   0  0  0  0  0  0
  -21.4013   -6.5643   23.8213 C   0  0  0  0  0  0
  -21.3660   -5.6795   24.9177 C   0  0  0  0  0  0
  -21.6044   -4.3058   24.7227 C   0  0  0  0  0  0
  -21.8819   -3.8149   23.4349 C   0  0  0  0  0  0
  -21.9191   -4.6967   22.3404 C   0  0  0  0  0  0
  -22.7865  -13.5238   21.1844 C   0  0  0  0  0  0
  -22.1660   -4.2153   21.0982 F   0  0  0  0  0  0
  -21.5629   -3.4540   25.7739 F   0  0  0  0  0  0
  -30.0171  -13.4179   20.4438 N   0  0  0  0  0  0
  -26.3014  -12.9342   20.3339 N   0  0  0  0  0  0
  -25.9337  -11.6499   20.5768 N   0  0  0  0  0  0
  -22.0504  -12.8235   22.0399 N   0  0  0  0  0  0
  -25.4308  -15.1884   20.4111 N   0  0  0  0  0  0
  -31.7507  -14.8424   20.0752 O   0  0  0  0  0  0
  -21.6640   -6.8883   21.4244 O   0  0  0  0  0  0
  -22.3557  -14.5550   20.6693 O   0  0  0  0  0  0
  -24.6269  -31.8586   23.2032 C   0  0  0  0  0  0
  -25.9116  -32.4768   23.8361 C   0  0  1  0  0  0
  -27.2254  -27.3123   20.1162 C   0  0  0  0  0  0
  -25.5933  -33.8571   24.2284 N   0  0  0  0  0  0
  -23.4210  -30.4840   21.5448 C   0  0  2  0  0  0
  -24.8686  -28.9411   20.1090 C   0  0  0  0  0  0
  -22.7476  -29.4617   22.4923 C   0  0  0  0  0  0
  -18.0287  -28.1372   22.8493 C   0  0  0  0  0  0
  -24.1494  -36.7290   23.2636 C   0  0  0  0  0  0
  -25.9638  -30.7881   21.3769 C   0  0  0  0  0  0
  -26.0375  -29.4158   20.7170 C   0  0  0  0  0  0
  -27.2176  -28.6123   20.7131 C   0  0  0  0  0  0
  -26.0345  -26.8998   19.4733 C   0  0  0  0  0  0
  -24.8692  -27.6885   19.4785 C   0  0  0  0  0  0
  -23.6368  -29.8214   20.1593 C   0  0  0  0  0  0
  -25.4117  -36.3074   24.0325 C   0  0  1  0  0  0
  -20.5889  -28.3682   23.1277 C   0  0  2  0  0  0
  -20.6772  -26.9404   22.5406 C   0  0  0  0  0  0
  -19.5745  -26.6380   21.5210 C   0  0  0  0  0  0
  -18.1927  -26.7919   22.1625 C   0  0  0  0  0  0
  -19.1540  -28.8844   23.2884 C   0  0  0  0  0  0
  -18.9459  -30.1447   23.8899 C   0  0  0  0  0  0
  -17.6457  -30.6577   24.0562 C   0  0  0  0  0  0
  -25.9051  -34.9443   23.5103 C   0  0  0  0  0  0
  -16.5349  -29.9074   23.6330 C   0  0  0  0  0  0
  -16.7274  -28.6490   23.0357 C   0  0  0  0  0  0
  -26.4514  -31.6576   25.0724 C   0  0  0  0  0  0
  -25.3755  -31.3705   26.1454 C   0  0  0  0  0  0
  -27.0357  -30.2996   24.6178 C   0  0  0  0  0  0
  -27.6070  -32.4311   25.7501 C   0  0  0  0  0  0
  -27.5578  -37.1797   24.8461 C   0  0  0  0  0  0
  -21.4186  -29.3036   22.3666 N   0  0  0  0  0  0
  -26.4292  -37.3770   23.9404 N   0  0  0  0  0  0
  -24.6892  -31.0601   22.0982 N   0  0  0  0  0  0
  -23.4201  -28.8150   23.2998 O   0  0  0  0  0  0
  -28.3396  -26.4537   20.1816 O   0  0  0  0  0  0
  -26.5615  -34.8910   22.4667 O   0  0  0  0  0  0
  -23.5431  -32.1383   23.7360 O   0  0  0  0  0  0
  -29.8950  -17.8854   19.7459 C   0  0  0  0  0  0
  -29.7833  -19.3177   19.7475 C   0  0  0  0  0  0
  -29.8296  -17.8792   22.1506 C   0  0  0  0  0  0
  -29.9199  -17.1260   20.9518 C   0  0  0  0  0  0
  -29.7518  -19.3020   22.1532 C   0  0  0  0  0  0
  -29.7131  -20.0670   20.9565 C   0  0  0  0  0  0
  -29.1712  -23.9352   20.5236 C   0  0  0  0  0  0
  -28.1409  -24.9997   19.9368 C   0  0  0  0  0  0
  -28.9791  -22.3820   20.1735 C   0  0  0  0  0  0
  -29.6874  -19.9810   23.3697 N   0  0  0  0  0  0
  -29.8351  -15.6645   21.0163 N   0  0  0  0  0  0
  -29.6866  -21.4764   21.0794 O   0  0  0  0  0  0
  -31.4851  -12.5331   19.1573 H   0  0  0  0  0  0
  -30.3836  -11.4058   19.8963 H   0  0  0  0  0  0
  -29.7820  -11.7696   17.4804 H   0  0  0  0  0  0
  -29.6485  -13.4880   17.7526 H   0  0  0  0  0  0
  -27.8810  -11.2898   18.8748 H   0  0  0  0  0  0
  -27.3806  -12.5667   17.7986 H   0  0  0  0  0  0
  -27.6789  -14.2512   19.5315 H   0  0  0  0  0  0
  -28.7167  -12.0377   21.3718 H   0  0  0  0  0  0
  -28.4370  -13.6807   21.8599 H   0  0  0  0  0  0
  -25.2769   -9.5684   22.4758 H   0  0  0  0  0  0
  -24.0001   -7.4641   22.7478 H   0  0  0  0  0  0
  -21.0843   -8.8786   19.8960 H   0  0  0  0  0  0
  -22.3706  -10.9679   19.6166 H   0  0  0  0  0  0
  -21.2005   -7.6150   23.9719 H   0  0  0  0  0  0
  -21.1483   -6.0525   25.9080 H   0  0  0  0  0  0
  -22.0595   -2.7611   23.2848 H   0  0  0  0  0  0
  -22.4115  -11.9894   22.4786 H   0  0  0  0  0  0
  -21.1128  -13.1276   22.2613 H   0  0  0  0  0  0
  -24.6656  -15.8448   20.5227 H   0  0  0  0  0  0
  -26.2869  -15.6291   20.0987 H   0  0  0  0  0  0
  -26.7189  -32.5446   23.1116 H   0  0  0  0  0  0
  -25.0098  -33.9732   25.0440 H   0  0  0  0  0  0
  -22.7144  -31.3043   21.4022 H   0  0  0  0  0  0
  -23.3750  -35.9630   23.3300 H   0  0  0  0  0  0
  -24.3590  -36.8906   22.2050 H   0  0  0  0  0  0
  -23.7259  -37.6496   23.6661 H   0  0  0  0  0  0
  -26.0977  -31.5529   20.6103 H   0  0  0  0  0  0
  -26.8434  -30.8349   22.0076 H   0  0  0  0  0  0
  -28.1124  -28.9695   21.2036 H   0  0  0  0  0  0
  -25.9734  -25.9484   18.9666 H   0  0  0  0  0  0
  -23.9751  -27.3199   18.9944 H   0  0  0  0  0  0
  -23.7562  -30.5986   19.4033 H   0  0  0  0  0  0
  -22.7576  -29.2501   19.8567 H   0  0  0  0  0  0
  -25.1301  -36.1922   25.0817 H   0  0  0  0  0  0
  -21.0000  -28.3263   24.1389 H   0  0  0  0  0  0
  -20.5664  -26.2295   23.3608 H   0  0  0  0  0  0
  -21.6641  -26.7419   22.1201 H   0  0  0  0  0  0
  -19.6901  -25.6296   21.1227 H   0  0  0  0  0  0
  -19.6674  -27.3202   20.6750 H   0  0  0  0  0  0
  -17.4193  -26.6672   21.4027 H   0  0  0  0  0  0
  -18.0321  -26.0055   22.9015 H   0  0  0  0  0  0
  -19.7936  -30.7262   24.2269 H   0  0  0  0  0  0
  -17.5009  -31.6260   24.5155 H   0  0  0  0  0  0
  -15.5348  -30.2972   23.7647 H   0  0  0  0  0  0
  -15.8676  -28.0804   22.7074 H   0  0  0  0  0  0
  -24.5951  -30.7026   25.7791 H   0  0  0  0  0  0
  -24.8931  -32.2865   26.4875 H   0  0  0  0  0  0
  -25.8099  -30.8900   27.0230 H   0  0  0  0  0  0
  -26.2929  -29.6738   24.1212 H   0  0  0  0  0  0
  -27.4060  -29.7257   25.4685 H   0  0  0  0  0  0
  -27.8806  -30.4274   23.9404 H   0  0  0  0  0  0
  -27.2678  -33.3611   26.2085 H   0  0  0  0  0  0
  -28.3891  -32.6865   25.0336 H   0  0  0  0  0  0
  -28.0733  -31.8424   26.5414 H   0  0  0  0  0  0
  -28.2587  -38.0101   24.7510 H   0  0  0  0  0  0
  -28.1079  -36.2627   24.6288 H   0  0  0  0  0  0
  -27.2293  -37.1450   25.8863 H   0  0  0  0  0  0
  -20.9344  -29.8783   21.6909 H   0  0  0  0  0  0
  -26.0163  -38.2839   24.1413 H   0  0  0  0  0  0
  -29.9260  -17.3690   18.7967 H   0  0  0  0  0  0
  -29.7696  -19.8394   18.8020 H   0  0  0  0  0  0
  -29.8122  -17.3509   23.0938 H   0  0  0  0  0  0
  -30.1792  -24.2237   20.2248 H   0  0  0  0  0  0
  -29.1493  -24.0346   21.6087 H   0  0  0  0  0  0
  -28.0758  -24.8525   18.8580 H   0  0  0  0  0  0
  -27.1726  -24.7085   20.3456 H   0  0  0  0  0  0
  -29.2952  -22.1986   19.1461 H   0  0  0  0  0  0
  -27.9188  -22.1313   20.2208 H   0  0  0  0  0  0
  -29.3915  -20.9509   23.3092 H   0  0  0  0  0  0
  -29.2757  -19.4992   24.1621 H   0  0  0  0  0  0
  -29.0110  -15.3168   21.4832 H   0  0  0  0  0  0
  1 25  1  0  0  0
  1 30  2  0  0  0
  1 81  1  0  0  0
  2  3  1  0  0  0
  2 25  1  0  0  0
  2 83  1  0  0  0
  2 84  1  0  0  0
  3  4  1  0  0  0
  3 85  1  0  0  0
  3 86  1  0  0  0
  4  5  1  0  0  0
  4 87  1  0  0  0
  4 88  1  0  0  0
  5  6  1  0  0  0
  5 26  1  0  0  0
  5 89  1  0  0  0
  6 25  1  0  0  0
  6 90  1  0  0  0
  6 91  1  0  0  0
  7  8  2  0  0  0
  7 26  1  0  0  0
  7 29  1  0  0  0
  8  9  1  0  0  0
  8 22  1  0  0  0
  9 10  1  0  0  0
  9 27  2  0  0  0
 10 11  2  0  0  0
 10 15  1  0  0  0
 11 12  1  0  0  0
 11 92  1  0  0  0
 12 13  2  0  0  0
 12 93  1  0  0  0
 13 14  1  0  0  0
 13 31  1  0  0  0
 14 15  2  0  0  0
 14 94  1  0  0  0
 15 95  1  0  0  0
 16 17  2  0  0  0
 16 21  1  0  0  0
 16 31  1  0  0  0
 17 18  1  0  0  0
 17 96  1  0  0  0
 18 19  2  0  0  0
 18 97  1  0  0  0
 19 20  1  0  0  0
 19 24  1  0  0  0
 20 21  2  0  0  0
 20 98  1  0  0  0
 21 23  1  0  0  0
 22 28  1  0  0  0
 22 32  2  0  0  0
 26 27  1  0  0  0
 28 99  1  0  0  0
 28100  1  0  0  0
 29101  1  0  0  0
 29102  1  0  0  0
 33 34  1  0  0  0
 33 66  1  0  0  0
 33 70  2  0  0  0
 34 36  1  0  0  0
 34 59  1  0  0  0
 34103  1  0  0  0
 35 44  2  0  0  0
 35 45  1  0  0  0
 35 68  1  0  0  0
 36 56  1  0  0  0
 36104  1  0  0  0
 37 39  1  0  0  0
 37 47  1  0  0  0
 37 66  1  0  0  0
 37105  1  0  0  0
 38 43  2  0  0  0
 38 46  1  0  0  0
 38 47  1  0  0  0
 39 64  1  0  0  0
 39 67  2  0  0  0
 40 52  1  0  0  0
 40 53  2  0  0  0
 40 58  1  0  0  0
 41106  1  0  0  0
 41107  1  0  0  0
 41108  1  0  0  0
 41 48  1  0  0  0
 42 43  1  0  0  0
 42 66  1  0  0  0
 42109  1  0  0  0
 42110  1  0  0  0
 43 44  1  0  0  0
 44111  1  0  0  0
 45 46  2  0  0  0
 45112  1  0  0  0
 46113  1  0  0  0
 47114  1  0  0  0
 47115  1  0  0  0
 48 56  1  0  0  0
 48 65  1  0  0  0
 48116  1  0  0  0
 49 50  1  0  0  0
 49 53  1  0  0  0
 49 64  1  0  0  0
 49117  1  0  0  0
 50 51  1  0  0  0
 50118  1  0  0  0
 50119  1  0  0  0
 51 52  1  0  0  0
 51120  1  0  0  0
 51121  1  0  0  0
 52122  1  0  0  0
 52123  1  0  0  0
 53 54  1  0  0  0
 54 55  2  0  0  0
 54124  1  0  0  0
 55 57  1  0  0  0
 55125  1  0  0  0
 56 69  2  0  0  0
 57 58  2  0  0  0
 57126  1  0  0  0
 58127  1  0  0  0
 59 60  1  0  0  0
 59 61  1  0  0  0
 59 62  1  0  0  0
 60128  1  0  0  0
 60129  1  0  0  0
 60130  1  0  0  0
 61131  1  0  0  0
 61132  1  0  0  0
 61133  1  0  0  0
 62134  1  0  0  0
 62135  1  0  0  0
 62136  1  0  0  0
 63 65  1  0  0  0
 63137  1  0  0  0
 63138  1  0  0  0
 63139  1  0  0  0
 64140  1  0  0  0
 65141  1  0  0  0
 68 78  1  0  0  0
 71 72  2  0  0  0
 71 74  1  0  0  0
 71142  1  0  0  0
 72 76  1  0  0  0
 72143  1  0  0  0
 73 74  2  0  0  0
 73 75  1  0  0  0
 73144  1  0  0  0
 74 81  1  0  0  0
 75 76  2  0  0  0
 75 80  1  0  0  0
 76 82  1  0  0  0
 77 78  1  0  0  0
 77 79  1  0  0  0
 77145  1  0  0  0
 77146  1  0  0  0
 78147  1  0  0  0
 78148  1  0  0  0
 79 82  1  0  0  0
 79149  1  0  0  0
 79150  1  0  0  0
 80151  1  0  0  0
 80152  1  0  0  0
 81153  1  0  0  0
M  ISO  4   1 100  68 101  78 101  81 100
M  END
> <chiral flag>
0

> <version>
0

> <s_m_source_file>
/data/baiqing/PycharmProjects/Reinvent-master-3.2/result/LINK_invent/BTK/process_docking_weight1_custom_product_contain_oxygen_bond_distance_aromatic_linkinvent_7_9_3/rearranged_h_0103.sdf

> <i_m_source_file_index>
53

> <r_mmod_Potential_Energy-OPLS-2005>
66.8887023925781

> <r_mmod_Stretch_Energy-OPLS-2005>
82.94677734375

> <r_mmod_Bend_Energy-OPLS-2005>
149.46403503418

> <r_mmod_Torsional_Energy-OPLS-2005>
245.477020263672

> <r_mmod_Improper_Torsional_Energy-OPLS-2005>
7.72417879104614

> <r_mmod_Van_der_Waal_Energy-OPLS-2005>
142.917083740234

> <r_mmod_Electrostatic_Energy-OPLS-2005>
-385.364990234375

> <r_mmod_Solvation_Energy-OPLS-2005>
-228.714752197266

> <b_mmod_Minimization_Converged-OPLS-2005>
0

> <r_mmod_RMS_Derivative-OPLS-2005>
0.953903317451477

$$$$
53
                    3D
 Structure written by MMmdl.
162170  0  0  1  0            999 V2000
  -30.7319  -14.4970   20.5872 C   0  0  0  0  0  0
  -30.4166  -12.3342   19.4259 C   0  0  0  0  0  0
  -29.4900  -12.5084   18.2072 C   0  0  0  0  0  0
  -28.0154  -12.3486   18.6231 C   0  0  0  0  0  0
  -27.6520  -13.2041   19.8647 C   0  0  2  0  0  0
  -28.6981  -13.0328   20.9910 C   0  0  0  0  0  0
  -25.2554  -13.8140   20.5676 C   0  0  0  0  0  0
  -24.1815  -13.0424   20.9203 C   0  0  0  0  0  0
  -24.6370  -11.6892   20.8755 C   0  0  0  0  0  0
  -23.9038  -10.4283   21.0414 C   0  0  0  0  0  0
  -24.3597   -9.4200   21.9190 C   0  0  0  0  0  0
  -23.6282   -8.2232   22.0752 C   0  0  0  0  0  0
  -22.4267   -8.0267   21.3539 C   0  0  0  0  0  0
  -21.9895   -9.0237   20.4643 C   0  0  0  0  0  0
  -22.7215  -10.2121   20.3057 C   0  0  0  0  0  0
  -21.6848   -6.0724   22.5280 C   0  0  0  0  0  0
  -21.4005   -6.5629   23.8209 C   0  0  0  0  0  0
  -21.3658   -5.6786   24.9175 C   0  0  0  0  0  0
  -21.6046   -4.3047   24.7227 C   0  0  0  0  0  0
  -21.8822   -3.8134   23.4349 C   0  0  0  0  0  0
  -21.9192   -4.6952   22.3406 C   0  0  0  0  0  0
  -22.7842  -13.5233   21.1861 C   0  0  0  0  0  0
  -22.1664   -4.2136   21.0983 F   0  0  0  0  0  0
  -21.5635   -3.4530   25.7741 F   0  0  0  0  0  0
  -30.0256  -13.3379   20.4325 N   0  0  0  0  0  0
  -26.2974  -12.9302   20.3332 N   0  0  0  0  0  0
  -25.9291  -11.6467   20.5768 N   0  0  0  0  0  0
  -22.0472  -12.8231   22.0414 N   0  0  0  0  0  0
  -25.4248  -15.1856   20.4044 N   0  0  0  0  0  0
  -31.8583  -14.6413   20.1018 O   0  0  0  0  0  0
  -21.6635   -6.8861   21.4238 O   0  0  0  0  0  0
  -22.3541  -14.5541   20.6705 O   0  0  0  0  0  0
  -24.6166  -31.8668   23.2090 C   0  0  0  0  0  0
  -25.9051  -32.4817   23.8387 C   0  0  1  0  0  0
  -27.2290  -27.4093   20.0960 C   0  0  0  0  0  0
  -25.5909  -33.8615   24.2315 N   0  0  0  0  0  0
  -23.4046  -30.4920   21.5506 C   0  0  2  0  0  0
  -24.8488  -28.9580   20.1125 C   0  0  0  0  0  0
  -22.7425  -29.4655   22.4983 C   0  0  0  0  0  0
  -18.0275  -28.1376   22.8494 C   0  0  0  0  0  0
  -24.1485  -36.7304   23.2640 C   0  0  0  0  0  0
  -25.9368  -30.8260   21.3645 C   0  0  0  0  0  0
  -26.0121  -29.4600   20.7080 C   0  0  0  0  0  0
  -27.2048  -28.6956   20.6922 C   0  0  0  0  0  0
  -26.0418  -26.9312   19.4915 C   0  0  0  0  0  0
  -24.8605  -27.6947   19.4995 C   0  0  0  0  0  0
  -23.6127  -29.8275   20.1642 C   0  0  0  0  0  0
  -25.4108  -36.3108   24.0340 C   0  0  1  0  0  0
  -20.5867  -28.3664   23.1317 C   0  0  2  0  0  0
  -20.6760  -26.9398   22.5420 C   0  0  0  0  0  0
  -19.5743  -26.6381   21.5214 C   0  0  0  0  0  0
  -18.1920  -26.7925   22.1620 C   0  0  0  0  0  0
  -19.1525  -28.8836   23.2901 C   0  0  0  0  0  0
  -18.9451  -30.1443   23.8906 C   0  0  0  0  0  0
  -17.6455  -30.6584   24.0564 C   0  0  0  0  0  0
  -25.9043  -34.9476   23.5126 C   0  0  0  0  0  0
  -16.5345  -29.9086   23.6328 C   0  0  0  0  0  0
  -16.7264  -28.6503   23.0348 C   0  0  0  0  0  0
  -26.4471  -31.6599   25.0721 C   0  0  0  0  0  0
  -25.3735  -31.3709   26.1470 C   0  0  0  0  0  0
  -27.0292  -30.3040   24.6096 C   0  0  0  0  0  0
  -27.6051  -32.4312   25.7480 C   0  0  0  0  0  0
  -27.5580  -37.1807   24.8466 C   0  0  0  0  0  0
  -21.4150  -29.3030   22.3723 N   0  0  0  0  0  0
  -26.4288  -37.3798   23.9419 N   0  0  0  0  0  0
  -24.6713  -31.0761   22.0995 N   0  0  0  0  0  0
  -23.4196  -28.8197   23.3027 O   0  0  0  0  0  0
  -28.3945  -26.6572   20.1233 O   0  0  0  0  0  0
  -26.5603  -34.8933   22.4687 O   0  0  0  0  0  0
  -23.5358  -32.1424   23.7482 O   0  0  0  0  0  0
  -28.5890  -18.5756   21.8994 C   0  0  0  0  0  0
  -29.8177  -20.0492   19.8560 C   0  0  0  0  0  0
  -29.2111  -17.8727   20.8431 C   0  0  0  0  0  0
  -29.8491  -18.6294   19.8238 C   0  0  0  0  0  0
  -28.5649  -19.9884   21.9275 C   0  0  0  0  0  0
  -29.1614  -20.7541   20.8985 C   0  0  0  0  0  0
  -30.5464  -17.9365   18.6654 C   0  0  0  0  0  0
  -31.0136  -16.1442   22.3457 C   0  0  0  0  0  0
  -29.0844  -16.3307   20.7842 C   0  0  0  0  0  0
  -29.5956  -24.4839   20.2732 C   0  0  0  0  0  0
  -28.2844  -25.2296   19.9217 C   0  0  0  0  0  0
  -29.6385  -22.9586   19.9544 C   0  0  0  0  0  0
  -27.9281  -20.6447   22.9794 N   0  0  0  0  0  0
  -30.1794  -15.4919   21.3323 N   0  0  0  0  0  0
  -29.0564  -22.1427   20.9805 O   0  0  0  0  0  0
  -31.4606  -12.4261   19.1198 H   0  0  0  0  0  0
  -30.3201  -11.3296   19.8407 H   0  0  0  0  0  0
  -29.7413  -11.7806   17.4344 H   0  0  0  0  0  0
  -29.6443  -13.4927   17.7625 H   0  0  0  0  0  0
  -27.8435  -11.2934   18.8374 H   0  0  0  0  0  0
  -27.3590  -12.5988   17.7888 H   0  0  0  0  0  0
  -27.6707  -14.2382   19.5308 H   0  0  0  0  0  0
  -28.6860  -12.0094   21.3687 H   0  0  0  0  0  0
  -28.4518  -13.6624   21.8465 H   0  0  0  0  0  0
  -25.2740   -9.5683   22.4768 H   0  0  0  0  0  0
  -23.9992   -7.4620   22.7464 H   0  0  0  0  0  0
  -21.0827   -8.8736   19.8955 H   0  0  0  0  0  0
  -22.3658  -10.9652   19.6163 H   0  0  0  0  0  0
  -21.1986   -7.6140   23.9705 H   0  0  0  0  0  0
  -21.1486   -6.0520   25.9077 H   0  0  0  0  0  0
  -22.0605   -2.7597   23.2847 H   0  0  0  0  0  0
  -22.4064  -11.9883   22.4804 H   0  0  0  0  0  0
  -21.1092  -13.1274   22.2614 H   0  0  0  0  0  0
  -24.6518  -15.8341   20.5056 H   0  0  0  0  0  0
  -26.2633  -15.6241   20.0485 H   0  0  0  0  0  0
  -26.7121  -32.5517   23.1150 H   0  0  0  0  0  0
  -25.0070  -33.9774   25.0467 H   0  0  0  0  0  0
  -22.6935  -31.3095   21.4133 H   0  0  0  0  0  0
  -23.3757  -35.9625   23.3299 H   0  0  0  0  0  0
  -24.3582  -36.8920   22.2056 H   0  0  0  0  0  0
  -23.7220  -37.6503   23.6654 H   0  0  0  0  0  0
  -26.0525  -31.5933   20.5976 H   0  0  0  0  0  0
  -26.8237  -30.8762   21.9843 H   0  0  0  0  0  0
  -28.1022  -29.0818   21.1552 H   0  0  0  0  0  0
  -26.0026  -25.9672   19.0065 H   0  0  0  0  0  0
  -23.9672  -27.3034   19.0322 H   0  0  0  0  0  0
  -23.7229  -30.6038   19.4062 H   0  0  0  0  0  0
  -22.7355  -29.2498   19.8673 H   0  0  0  0  0  0
  -25.1286  -36.1969   25.0834 H   0  0  0  0  0  0
  -20.9956  -28.3217   24.1439 H   0  0  0  0  0  0
  -20.5656  -26.2270   23.3607 H   0  0  0  0  0  0
  -21.6628  -26.7439   22.1213 H   0  0  0  0  0  0
  -19.6903  -25.6295   21.1232 H   0  0  0  0  0  0
  -19.6688  -27.3196   20.6747 H   0  0  0  0  0  0
  -17.4199  -26.6689   21.4010 H   0  0  0  0  0  0
  -18.0309  -26.0055   22.9002 H   0  0  0  0  0  0
  -19.7930  -30.7254   24.2273 H   0  0  0  0  0  0
  -17.5015  -31.6265   24.5165 H   0  0  0  0  0  0
  -15.5347  -30.2995   23.7649 H   0  0  0  0  0  0
  -15.8662  -28.0832   22.7049 H   0  0  0  0  0  0
  -24.5910  -30.7055   25.7809 H   0  0  0  0  0  0
  -24.8925  -32.2863   26.4923 H   0  0  0  0  0  0
  -25.8088  -30.8877   27.0226 H   0  0  0  0  0  0
  -26.2828  -29.6809   24.1154 H   0  0  0  0  0  0
  -27.4066  -29.7270   25.4548 H   0  0  0  0  0  0
  -27.8664  -30.4358   23.9237 H   0  0  0  0  0  0
  -27.2681  -33.3611   26.2070 H   0  0  0  0  0  0
  -28.3855  -32.6869   25.0300 H   0  0  0  0  0  0
  -28.0722  -31.8422   26.5384 H   0  0  0  0  0  0
  -28.2604  -38.0100   24.7524 H   0  0  0  0  0  0
  -28.1070  -36.2636   24.6275 H   0  0  0  0  0  0
  -27.2306  -37.1434   25.8870 H   0  0  0  0  0  0
  -20.9308  -29.8768   21.6959 H   0  0  0  0  0  0
  -26.0177  -38.2875   24.1425 H   0  0  0  0  0  0
  -28.0982  -18.0158   22.6835 H   0  0  0  0  0  0
  -30.2940  -20.5896   19.0514 H   0  0  0  0  0  0
  -31.1054  -18.6430   18.0510 H   0  0  0  0  0  0
  -29.8197  -17.4405   18.0218 H   0  0  0  0  0  0
  -31.2525  -17.1908   19.0300 H   0  0  0  0  0  0
  -30.3991  -16.6178   23.1115 H   0  0  0  0  0  0
  -31.6499  -16.9059   21.8927 H   0  0  0  0  0  0
  -31.6606  -15.4251   22.8515 H   0  0  0  0  0  0
  -28.8984  -16.0649   19.7436 H   0  0  0  0  0  0
  -28.1732  -16.0495   21.3121 H   0  0  0  0  0  0
  -29.8489  -24.6480   21.3206 H   0  0  0  0  0  0
  -30.3930  -24.9584   19.7000 H   0  0  0  0  0  0
  -27.4754  -24.8225   20.5308 H   0  0  0  0  0  0
  -28.0394  -25.0346   18.8768 H   0  0  0  0  0  0
  -30.6879  -22.6775   19.8529 H   0  0  0  0  0  0
  -29.1607  -22.7584   18.9938 H   0  0  0  0  0  0
  -27.8463  -20.1590   23.8662 H   0  0  0  0  0  0
  -28.1577  -21.6280   23.0860 H   0  0  0  0  0  0
  1 25  1  0  0  0
  1 30  2  0  0  0
  1 84  1  0  0  0
  2  3  1  0  0  0
  2 25  1  0  0  0
  2 86  1  0  0  0
  2 87  1  0  0  0
  3  4  1  0  0  0
  3 88  1  0  0  0
  3 89  1  0  0  0
  4  5  1  0  0  0
  4 90  1  0  0  0
  4 91  1  0  0  0
  5  6  1  0  0  0
  5 26  1  0  0  0
  5 92  1  0  0  0
  6 25  1  0  0  0
  6 93  1  0  0  0
  6 94  1  0  0  0
  7  8  2  0  0  0
  7 26  1  0  0  0
  7 29  1  0  0  0
  8  9  1  0  0  0
  8 22  1  0  0  0
  9 10  1  0  0  0
  9 27  2  0  0  0
 10 11  2  0  0  0
 10 15  1  0  0  0
 11 12  1  0  0  0
 11 95  1  0  0  0
 12 13  2  0  0  0
 12 96  1  0  0  0
 13 14  1  0  0  0
 13 31  1  0  0  0
 14 15  2  0  0  0
 14 97  1  0  0  0
 15 98  1  0  0  0
 16 17  2  0  0  0
 16 21  1  0  0  0
 16 31  1  0  0  0
 17 18  1  0  0  0
 17 99  1  0  0  0
 18 19  2  0  0  0
 18100  1  0  0  0
 19 20  1  0  0  0
 19 24  1  0  0  0
 20 21  2  0  0  0
 20101  1  0  0  0
 21 23  1  0  0  0
 22 28  1  0  0  0
 22 32  2  0  0  0
 26 27  1  0  0  0
 28102  1  0  0  0
 28103  1  0  0  0
 29104  1  0  0  0
 29105  1  0  0  0
 33 34  1  0  0  0
 33 66  1  0  0  0
 33 70  2  0  0  0
 34 36  1  0  0  0
 34 59  1  0  0  0
 34106  1  0  0  0
 35 44  2  0  0  0
 35 45  1  0  0  0
 35 68  1  0  0  0
 36 56  1  0  0  0
 36107  1  0  0  0
 37 39  1  0  0  0
 37 47  1  0  0  0
 37 66  1  0  0  0
 37108  1  0  0  0
 38 43  2  0  0  0
 38 46  1  0  0  0
 38 47  1  0  0  0
 39 64  1  0  0  0
 39 67  2  0  0  0
 40 52  1  0  0  0
 40 53  2  0  0  0
 40 58  1  0  0  0
 41109  1  0  0  0
 41110  1  0  0  0
 41111  1  0  0  0
 41 48  1  0  0  0
 42 43  1  0  0  0
 42 66  1  0  0  0
 42112  1  0  0  0
 42113  1  0  0  0
 43 44  1  0  0  0
 44114  1  0  0  0
 45 46  2  0  0  0
 45115  1  0  0  0
 46116  1  0  0  0
 47117  1  0  0  0
 47118  1  0  0  0
 48 56  1  0  0  0
 48 65  1  0  0  0
 48119  1  0  0  0
 49 50  1  0  0  0
 49 53  1  0  0  0
 49 64  1  0  0  0
 49120  1  0  0  0
 50 51  1  0  0  0
 50121  1  0  0  0
 50122  1  0  0  0
 51 52  1  0  0  0
 51123  1  0  0  0
 51124  1  0  0  0
 52125  1  0  0  0
 52126  1  0  0  0
 53 54  1  0  0  0
 54 55  2  0  0  0
 54127  1  0  0  0
 55 57  1  0  0  0
 55128  1  0  0  0
 56 69  2  0  0  0
 57 58  2  0  0  0
 57129  1  0  0  0
 58130  1  0  0  0
 59 60  1  0  0  0
 59 61  1  0  0  0
 59 62  1  0  0  0
 60131  1  0  0  0
 60132  1  0  0  0
 60133  1  0  0  0
 61134  1  0  0  0
 61135  1  0  0  0
 61136  1  0  0  0
 62137  1  0  0  0
 62138  1  0  0  0
 62139  1  0  0  0
 63 65  1  0  0  0
 63140  1  0  0  0
 63141  1  0  0  0
 63142  1  0  0  0
 64143  1  0  0  0
 65144  1  0  0  0
 68 81  1  0  0  0
 71 73  2  0  0  0
 71 75  1  0  0  0
 71145  1  0  0  0
 72 74  2  0  0  0
 72 76  1  0  0  0
 72146  1  0  0  0
 73 74  1  0  0  0
 73 79  1  0  0  0
 74 77  1  0  0  0
 75 76  2  0  0  0
 75 83  1  0  0  0
 76 85  1  0  0  0
 77147  1  0  0  0
 77148  1  0  0  0
 77149  1  0  0  0
 78 84  1  0  0  0
 78150  1  0  0  0
 78151  1  0  0  0
 78152  1  0  0  0
 79 84  1  0  0  0
 79153  1  0  0  0
 79154  1  0  0  0
 80 81  1  0  0  0
 80 82  1  0  0  0
 80155  1  0  0  0
 80156  1  0  0  0
 81157  1  0  0  0
 81158  1  0  0  0
 82 85  1  0  0  0
 82159  1  0  0  0
 82160  1  0  0  0
 83161  1  0  0  0
 83162  1  0  0  0
M  ISO  4   1 100  68 101  81 101  84 100
M  END
> <chiral flag>
0

> <version>
0

> <s_m_source_file>
/data/baiqing/PycharmProjects/Reinvent-master-3.2/result/LINK_invent/BTK/process_docking_weight1_custom_product_contain_oxygen_bond_distance_aromatic_linkinvent_7_9_3/rearranged_h_0103.sdf

> <i_m_source_file_index>
54

> <r_mmod_Potential_Energy-OPLS-2005>
33.9683876037598

> <r_mmod_Stretch_Energy-OPLS-2005>
46.2821655273438

> <r_mmod_Bend_Energy-OPLS-2005>
113.616065979004

> <r_mmod_Torsional_Energy-OPLS-2005>
271.874664306641

> <r_mmod_Improper_Torsional_Energy-OPLS-2005>
7.72936010360718

> <r_mmod_Van_der_Waal_Energy-OPLS-2005>
153.338745117188

> <r_mmod_Electrostatic_Energy-OPLS-2005>
-366.372314453125

> <r_mmod_Solvation_Energy-OPLS-2005>
-209.861862182617

> <b_mmod_Minimization_Converged-OPLS-2005>
0

> <r_mmod_RMS_Derivative-OPLS-2005>
0.869728863239288

$$$$
54
                    3D
 Structure written by MMmdl.
164172  0  0  1  0            999 V2000
  -30.6313  -14.6552   20.5075 C   0  0  0  0  0  0
  -30.4515  -12.4083   19.4495 C   0  0  0  0  0  0
  -29.5184  -12.5142   18.2233 C   0  0  0  0  0  0
  -28.0396  -12.3488   18.6345 C   0  0  0  0  0  0
  -27.6575  -13.2209   19.8595 C   0  0  2  0  0  0
  -28.7033  -13.0845   20.9893 C   0  0  0  0  0  0
  -25.2557  -13.8172   20.5648 C   0  0  0  0  0  0
  -24.1832  -13.0440   20.9193 C   0  0  0  0  0  0
  -24.6405  -11.6919   20.8727 C   0  0  0  0  0  0
  -23.9068  -10.4295   21.0397 C   0  0  0  0  0  0
  -24.3609   -9.4217   21.9178 C   0  0  0  0  0  0
  -23.6293   -8.2244   22.0752 C   0  0  0  0  0  0
  -22.4277   -8.0273   21.3548 C   0  0  0  0  0  0
  -21.9904   -9.0247   20.4656 C   0  0  0  0  0  0
  -22.7222  -10.2130   20.3059 C   0  0  0  0  0  0
  -21.6854   -6.0719   22.5276 C   0  0  0  0  0  0
  -21.4005   -6.5619   23.8200 C   0  0  0  0  0  0
  -21.3669   -5.6782   24.9164 C   0  0  0  0  0  0
  -21.6058   -4.3046   24.7227 C   0  0  0  0  0  0
  -21.8820   -3.8126   23.4349 C   0  0  0  0  0  0
  -21.9190   -4.6938   22.3410 C   0  0  0  0  0  0
  -22.7851  -13.5249   21.1856 C   0  0  0  0  0  0
  -22.1668   -4.2126   21.0988 F   0  0  0  0  0  0
  -21.5641   -3.4536   25.7745 F   0  0  0  0  0  0
  -30.0215  -13.4273   20.4281 N   0  0  0  0  0  0
  -26.3013  -12.9376   20.3281 N   0  0  0  0  0  0
  -25.9333  -11.6524   20.5715 N   0  0  0  0  0  0
  -22.0460  -12.8267   22.0414 N   0  0  0  0  0  0
  -25.4239  -15.1888   20.4009 N   0  0  0  0  0  0
  -31.7915  -14.8234   20.1252 O   0  0  0  0  0  0
  -21.6640   -6.8861   21.4241 O   0  0  0  0  0  0
  -22.3550  -14.5548   20.6683 O   0  0  0  0  0  0
  -24.6265  -31.8579   23.2045 C   0  0  0  0  0  0
  -25.9121  -32.4762   23.8349 C   0  0  1  0  0  0
  -27.2087  -27.3221   20.1296 C   0  0  0  0  0  0
  -25.5925  -33.8564   24.2245 N   0  0  0  0  0  0
  -23.4161  -30.4879   21.5474 C   0  0  2  0  0  0
  -24.8610  -28.9520   20.1083 C   0  0  0  0  0  0
  -22.7462  -29.4620   22.4932 C   0  0  0  0  0  0
  -18.0271  -28.1384   22.8479 C   0  0  0  0  0  0
  -24.1479  -36.7303   23.2632 C   0  0  0  0  0  0
  -25.9572  -30.7990   21.3698 C   0  0  0  0  0  0
  -26.0307  -29.4280   20.7121 C   0  0  0  0  0  0
  -27.2106  -28.6253   20.7125 C   0  0  0  0  0  0
  -26.0180  -26.9058   19.4885 C   0  0  0  0  0  0
  -24.8581  -27.6976   19.4808 C   0  0  0  0  0  0
  -23.6284  -29.8289   20.1600 C   0  0  0  0  0  0
  -25.4091  -36.3062   24.0316 C   0  0  1  0  0  0
  -20.5871  -28.3675   23.1297 C   0  0  2  0  0  0
  -20.6751  -26.9399   22.5422 C   0  0  0  0  0  0
  -19.5736  -26.6378   21.5207 C   0  0  0  0  0  0
  -18.1909  -26.7930   22.1615 C   0  0  0  0  0  0
  -19.1525  -28.8846   23.2882 C   0  0  0  0  0  0
  -18.9459  -30.1448   23.8885 C   0  0  0  0  0  0
  -17.6460  -30.6590   24.0561 C   0  0  0  0  0  0
  -25.9038  -34.9444   23.5070 C   0  0  0  0  0  0
  -16.5345  -29.9086   23.6342 C   0  0  0  0  0  0
  -16.7259  -28.6515   23.0342 C   0  0  0  0  0  0
  -26.4509  -31.6581   25.0729 C   0  0  0  0  0  0
  -25.3748  -31.3767   26.1470 C   0  0  0  0  0  0
  -27.0327  -30.2984   24.6195 C   0  0  0  0  0  0
  -27.6066  -32.4303   25.7519 C   0  0  0  0  0  0
  -27.5578  -37.1766   24.8427 C   0  0  0  0  0  0
  -21.4179  -29.3030   22.3697 N   0  0  0  0  0  0
  -26.4241  -37.3784   23.9446 N   0  0  0  0  0  0
  -24.6856  -31.0621   22.0984 N   0  0  0  0  0  0
  -23.4205  -28.8129   23.2978 O   0  0  0  0  0  0
  -28.3110  -26.4574   20.2043 O   0  0  0  0  0  0
  -26.5617  -34.8932   22.4637 O   0  0  0  0  0  0
  -23.5436  -32.1367   23.7389 O   0  0  0  0  0  0
  -31.0941  -17.9187   20.6960 C   0  0  0  0  0  0
  -28.6945  -17.9059   20.8044 C   0  0  0  0  0  0
  -31.0681  -19.3503   20.6673 C   0  0  0  0  0  0
  -29.9006  -17.1542   20.7683 C   0  0  0  0  0  0
  -28.6512  -19.3346   20.7544 C   0  0  0  0  0  0
  -29.8531  -20.0996   20.6763 C   0  0  0  0  0  0
  -32.3837  -20.1114   20.6653 C   0  0  0  0  0  0
  -24.5270  -20.6113   23.0740 C   0  0  0  0  0  0
  -25.3885  -20.6403   21.8045 C   0  0  0  0  0  0
  -29.1896  -23.9774   20.5512 C   0  0  0  0  0  0
  -26.5920  -19.6898   21.8713 C   0  0  0  0  0  0
  -28.0233  -25.0044   20.2417 C   0  0  0  0  0  0
  -28.8204  -22.4275   20.5287 C   0  0  0  0  0  0
  -29.8115  -15.6938   20.8670 N   0  0  0  0  0  0
  -27.4360  -19.9773   20.7615 O   0  0  0  0  0  0
  -29.9550  -21.5107   20.6419 O   0  0  0  0  0  0
  -31.4900  -12.5453   19.1403 H   0  0  0  0  0  0
  -30.4019  -11.4130   19.8934 H   0  0  0  0  0  0
  -29.7895  -11.7609   17.4808 H   0  0  0  0  0  0
  -29.6583  -13.4817   17.7405 H   0  0  0  0  0  0
  -27.8765  -11.2965   18.8691 H   0  0  0  0  0  0
  -27.3883  -12.5777   17.7907 H   0  0  0  0  0  0
  -27.6738  -14.2552   19.5138 H   0  0  0  0  0  0
  -28.7169  -12.0682   21.3829 H   0  0  0  0  0  0
  -28.4430  -13.7218   21.8368 H   0  0  0  0  0  0
  -25.2748   -9.5704   22.4752 H   0  0  0  0  0  0
  -24.0017   -7.4639   22.7466 H   0  0  0  0  0  0
  -21.0830   -8.8749   19.8982 H   0  0  0  0  0  0
  -22.3659  -10.9654   19.6165 H   0  0  0  0  0  0
  -21.1981   -7.6126   23.9697 H   0  0  0  0  0  0
  -21.1508   -6.0507   25.9072 H   0  0  0  0  0  0
  -22.0595   -2.7591   23.2838 H   0  0  0  0  0  0
  -22.4049  -11.9941   22.4853 H   0  0  0  0  0  0
  -21.1080  -13.1319   22.2591 H   0  0  0  0  0  0
  -24.6336  -15.8207   20.4629 H   0  0  0  0  0  0
  -26.2370  -15.6083   19.9702 H   0  0  0  0  0  0
  -26.7199  -32.5438   23.1111 H   0  0  0  0  0  0
  -25.0039  -33.9684   25.0369 H   0  0  0  0  0  0
  -22.7074  -31.3073   21.4085 H   0  0  0  0  0  0
  -23.3742  -35.9627   23.3198 H   0  0  0  0  0  0
  -24.3611  -36.9025   22.2072 H   0  0  0  0  0  0
  -23.7220  -37.6465   23.6727 H   0  0  0  0  0  0
  -26.0744  -31.5633   20.5999 H   0  0  0  0  0  0
  -26.8427  -30.8510   21.9920 H   0  0  0  0  0  0
  -28.1062  -28.9835   21.1991 H   0  0  0  0  0  0
  -25.9457  -25.9498   18.9941 H   0  0  0  0  0  0
  -23.9644  -27.3284   18.9951 H   0  0  0  0  0  0
  -23.7451  -30.6058   19.4036 H   0  0  0  0  0  0
  -22.7488  -29.2575   19.8589 H   0  0  0  0  0  0
  -25.1258  -36.1867   25.0800 H   0  0  0  0  0  0
  -20.9953  -28.3239   24.1422 H   0  0  0  0  0  0
  -20.5621  -26.2278   23.3614 H   0  0  0  0  0  0
  -21.6626  -26.7407   22.1243 H   0  0  0  0  0  0
  -19.6894  -25.6277   21.1251 H   0  0  0  0  0  0
  -19.6704  -27.3183   20.6734 H   0  0  0  0  0  0
  -17.4188  -26.6676   21.4004 H   0  0  0  0  0  0
  -18.0314  -26.0073   22.9019 H   0  0  0  0  0  0
  -19.7939  -30.7266   24.2253 H   0  0  0  0  0  0
  -17.5021  -31.6270   24.5154 H   0  0  0  0  0  0
  -15.5341  -30.2978   23.7686 H   0  0  0  0  0  0
  -15.8658  -28.0841   22.7035 H   0  0  0  0  0  0
  -24.5900  -30.7120   25.7837 H   0  0  0  0  0  0
  -24.8984  -32.2972   26.4856 H   0  0  0  0  0  0
  -25.8086  -30.8987   27.0264 H   0  0  0  0  0  0
  -26.2902  -29.6749   24.1203 H   0  0  0  0  0  0
  -27.3970  -29.7228   25.4715 H   0  0  0  0  0  0
  -27.8804  -30.4219   23.9450 H   0  0  0  0  0  0
  -27.2655  -33.3575   26.2135 H   0  0  0  0  0  0
  -28.3896  -32.6891   25.0379 H   0  0  0  0  0  0
  -28.0728  -31.8404   26.5423 H   0  0  0  0  0  0
  -28.2485  -38.0170   24.7591 H   0  0  0  0  0  0
  -28.1164  -36.2697   24.6045 H   0  0  0  0  0  0
  -27.2339  -37.1183   25.8836 H   0  0  0  0  0  0
  -20.9322  -29.8802   21.6976 H   0  0  0  0  0  0
  -26.0086  -38.2816   24.1562 H   0  0  0  0  0  0
  -32.0489  -17.4127   20.6880 H   0  0  0  0  0  0
  -27.7604  -17.3657   20.8586 H   0  0  0  0  0  0
  -33.2472  -19.4465   20.6378 H   0  0  0  0  0  0
  -32.4584  -20.7174   21.5693 H   0  0  0  0  0  0
  -32.4434  -20.7830   19.8083 H   0  0  0  0  0  0
  -23.6423  -21.2390   22.9595 H   0  0  0  0  0  0
  -25.0860  -20.9801   23.9349 H   0  0  0  0  0  0
  -24.1857  -19.6002   23.3001 H   0  0  0  0  0  0
  -25.7337  -21.6604   21.6344 H   0  0  0  0  0  0
  -24.7749  -20.3761   20.9433 H   0  0  0  0  0  0
  -29.6080  -24.2140   21.5306 H   0  0  0  0  0  0
  -29.9885  -24.1496   19.8327 H   0  0  0  0  0  0
  -26.2441  -18.6568   21.8531 H   0  0  0  0  0  0
  -27.1432  -19.8405   22.8012 H   0  0  0  0  0  0
  -27.2339  -24.8333   20.9784 H   0  0  0  0  0  0
  -27.6136  -24.7054   19.2773 H   0  0  0  0  0  0
  -28.2915  -22.2020   19.6020 H   0  0  0  0  0  0
  -28.1325  -22.2367   21.3513 H   0  0  0  0  0  0
  -28.8966  -15.3640   21.1298 H   0  0  0  0  0  0
  1 25  1  0  0  0
  1 30  2  0  0  0
  1 84  1  0  0  0
  2  3  1  0  0  0
  2 25  1  0  0  0
  2 87  1  0  0  0
  2 88  1  0  0  0
  3  4  1  0  0  0
  3 89  1  0  0  0
  3 90  1  0  0  0
  4  5  1  0  0  0
  4 91  1  0  0  0
  4 92  1  0  0  0
  5  6  1  0  0  0
  5 26  1  0  0  0
  5 93  1  0  0  0
  6 25  1  0  0  0
  6 94  1  0  0  0
  6 95  1  0  0  0
  7  8  2  0  0  0
  7 26  1  0  0  0
  7 29  1  0  0  0
  8  9  1  0  0  0
  8 22  1  0  0  0
  9 10  1  0  0  0
  9 27  2  0  0  0
 10 11  2  0  0  0
 10 15  1  0  0  0
 11 12  1  0  0  0
 11 96  1  0  0  0
 12 13  2  0  0  0
 12 97  1  0  0  0
 13 14  1  0  0  0
 13 31  1  0  0  0
 14 15  2  0  0  0
 14 98  1  0  0  0
 15 99  1  0  0  0
 16 17  2  0  0  0
 16 21  1  0  0  0
 16 31  1  0  0  0
 17 18  1  0  0  0
 17100  1  0  0  0
 18 19  2  0  0  0
 18101  1  0  0  0
 19 20  1  0  0  0
 19 24  1  0  0  0
 20 21  2  0  0  0
 20102  1  0  0  0
 21 23  1  0  0  0
 22 28  1  0  0  0
 22 32  2  0  0  0
 26 27  1  0  0  0
 28103  1  0  0  0
 28104  1  0  0  0
 29105  1  0  0  0
 29106  1  0  0  0
 33 34  1  0  0  0
 33 66  1  0  0  0
 33 70  2  0  0  0
 34 36  1  0  0  0
 34 59  1  0  0  0
 34107  1  0  0  0
 35 44  2  0  0  0
 35 45  1  0  0  0
 35 68  1  0  0  0
 36 56  1  0  0  0
 36108  1  0  0  0
 37 39  1  0  0  0
 37 47  1  0  0  0
 37 66  1  0  0  0
 37109  1  0  0  0
 38 43  2  0  0  0
 38 46  1  0  0  0
 38 47  1  0  0  0
 39 64  1  0  0  0
 39 67  2  0  0  0
 40 52  1  0  0  0
 40 53  2  0  0  0
 40 58  1  0  0  0
 41110  1  0  0  0
 41111  1  0  0  0
 41112  1  0  0  0
 41 48  1  0  0  0
 42 43  1  0  0  0
 42 66  1  0  0  0
 42113  1  0  0  0
 42114  1  0  0  0
 43 44  1  0  0  0
 44115  1  0  0  0
 45 46  2  0  0  0
 45116  1  0  0  0
 46117  1  0  0  0
 47118  1  0  0  0
 47119  1  0  0  0
 48 56  1  0  0  0
 48 65  1  0  0  0
 48120  1  0  0  0
 49 50  1  0  0  0
 49 53  1  0  0  0
 49 64  1  0  0  0
 49121  1  0  0  0
 50 51  1  0  0  0
 50122  1  0  0  0
 50123  1  0  0  0
 51 52  1  0  0  0
 51124  1  0  0  0
 51125  1  0  0  0
 52126  1  0  0  0
 52127  1  0  0  0
 53 54  1  0  0  0
 54 55  2  0  0  0
 54128  1  0  0  0
 55 57  1  0  0  0
 55129  1  0  0  0
 56 69  2  0  0  0
 57 58  2  0  0  0
 57130  1  0  0  0
 58131  1  0  0  0
 59 60  1  0  0  0
 59 61  1  0  0  0
 59 62  1  0  0  0
 60132  1  0  0  0
 60133  1  0  0  0
 60134  1  0  0  0
 61135  1  0  0  0
 61136  1  0  0  0
 61137  1  0  0  0
 62138  1  0  0  0
 62139  1  0  0  0
 62140  1  0  0  0
 63 65  1  0  0  0
 63141  1  0  0  0
 63142  1  0  0  0
 63143  1  0  0  0
 64144  1  0  0  0
 65145  1  0  0  0
 68 82  1  0  0  0
 71 73  2  0  0  0
 71 74  1  0  0  0
 71146  1  0  0  0
 72 74  2  0  0  0
 72 75  1  0  0  0
 72147  1  0  0  0
 73 76  1  0  0  0
 73 77  1  0  0  0
 74 84  1  0  0  0
 75 76  2  0  0  0
 75 85  1  0  0  0
 76 86  1  0  0  0
 77148  1  0  0  0
 77149  1  0  0  0
 77150  1  0  0  0
 78 79  1  0  0  0
 78151  1  0  0  0
 78152  1  0  0  0
 78153  1  0  0  0
 79 81  1  0  0  0
 79154  1  0  0  0
 79155  1  0  0  0
 80 82  1  0  0  0
 80 83  1  0  0  0
 80156  1  0  0  0
 80157  1  0  0  0
 81 85  1  0  0  0
 81158  1  0  0  0
 81159  1  0  0  0
 82160  1  0  0  0
 82161  1  0  0  0
 83 86  1  0  0  0
 83162  1  0  0  0
 83163  1  0  0  0
 84164  1  0  0  0
M  ISO  4   1 100  68 101  82 101  84 100
M  END
> <chiral flag>
0

> <version>
0

> <s_m_source_file>
/data/baiqing/PycharmProjects/Reinvent-master-3.2/result/LINK_invent/BTK/process_docking_weight1_custom_product_contain_oxygen_bond_distance_aromatic_linkinvent_7_9_3/rearranged_h_0103.sdf

> <i_m_source_file_index>
55

> <r_mmod_Potential_Energy-OPLS-2005>
81.858039855957

> <r_mmod_Stretch_Energy-OPLS-2005>
78.7187271118164

> <r_mmod_Bend_Energy-OPLS-2005>
149.862976074219

> <r_mmod_Torsional_Energy-OPLS-2005>
237.449615478516

> <r_mmod_Improper_Torsional_Energy-OPLS-2005>
5.03165626525879

> <r_mmod_Van_der_Waal_Energy-OPLS-2005>
143.449523925781

> <r_mmod_Electrostatic_Energy-OPLS-2005>
-376.515289306641

> <r_mmod_Solvation_Energy-OPLS-2005>
-209.448028564453

> <b_mmod_Minimization_Converged-OPLS-2005>
0

> <r_mmod_RMS_Derivative-OPLS-2005>
3.33214783668518

$$$$
55
                    3D
 Structure written by MMmdl.
156165  0  0  1  0            999 V2000
  -30.7319  -14.6450   20.4925 C   0  0  0  0  0  0
  -30.4155  -12.3857   19.4860 C   0  0  0  0  0  0
  -29.5069  -12.5071   18.2458 C   0  0  0  0  0  0
  -28.0327  -12.3563   18.6542 C   0  0  0  0  0  0
  -27.6542  -13.2474   19.8668 C   0  0  2  0  0  0
  -28.7054  -13.1839   21.0016 C   0  0  0  0  0  0
  -25.2556  -13.8247   20.5780 C   0  0  0  0  0  0
  -24.1834  -13.0431   20.9243 C   0  0  0  0  0  0
  -24.6453  -11.6935   20.8763 C   0  0  0  0  0  0
  -23.9128  -10.4291   21.0403 C   0  0  0  0  0  0
  -24.3665   -9.4201   21.9179 C   0  0  0  0  0  0
  -23.6333   -8.2240   22.0751 C   0  0  0  0  0  0
  -22.4315   -8.0285   21.3534 C   0  0  0  0  0  0
  -21.9981   -9.0260   20.4611 C   0  0  0  0  0  0
  -22.7315  -10.2136   20.3030 C   0  0  0  0  0  0
  -21.6868   -6.0746   22.5272 C   0  0  0  0  0  0
  -21.4021   -6.5634   23.8214 C   0  0  0  0  0  0
  -21.3662   -5.6774   24.9170 C   0  0  0  0  0  0
  -21.6042   -4.3036   24.7210 C   0  0  0  0  0  0
  -21.8829   -3.8147   23.4320 C   0  0  0  0  0  0
  -21.9207   -4.6976   22.3384 C   0  0  0  0  0  0
  -22.7839  -13.5188   21.1884 C   0  0  0  0  0  0
  -22.1658   -4.2170   21.0956 F   0  0  0  0  0  0
  -21.5653   -3.4508   25.7723 F   0  0  0  0  0  0
  -30.0297  -13.4631   20.4294 N   0  0  0  0  0  0
  -26.3035  -12.9487   20.3424 N   0  0  0  0  0  0
  -25.9414  -11.6606   20.5849 N   0  0  0  0  0  0
  -22.0497  -12.8133   22.0422 N   0  0  0  0  0  0
  -25.4201  -15.1970   20.4221 N   0  0  0  0  0  0
  -31.8773  -14.6433   20.0418 O   0  0  0  0  0  0
  -21.6643   -6.8897   21.4233 O   0  0  0  0  0  0
  -22.3492  -14.5468   20.6720 O   0  0  0  0  0  0
  -24.6308  -31.8580   23.2066 C   0  0  0  0  0  0
  -25.9171  -32.4743   23.8375 C   0  0  1  0  0  0
  -27.2056  -27.2761   20.1150 C   0  0  0  0  0  0
  -25.6002  -33.8542   24.2286 N   0  0  0  0  0  0
  -23.4224  -30.4908   21.5474 C   0  0  2  0  0  0
  -24.8670  -28.9526   20.1040 C   0  0  0  0  0  0
  -22.7480  -29.4653   22.4883 C   0  0  0  0  0  0
  -18.0286  -28.1409   22.8480 C   0  0  0  0  0  0
  -24.1481  -36.7215   23.2633 C   0  0  0  0  0  0
  -25.9727  -30.7668   21.3983 C   0  0  0  0  0  0
  -26.0371  -29.3977   20.7306 C   0  0  0  0  0  0
  -27.2028  -28.5670   20.7372 C   0  0  0  0  0  0
  -26.0185  -26.9241   19.4197 C   0  0  0  0  0  0
  -24.8641  -27.7223   19.4385 C   0  0  0  0  0  0
  -23.6394  -29.8373   20.1583 C   0  0  0  0  0  0
  -25.4109  -36.3018   24.0318 C   0  0  1  0  0  0
  -20.5889  -28.3739   23.1239 C   0  0  2  0  0  0
  -20.6762  -26.9452   22.5400 C   0  0  0  0  0  0
  -19.5746  -26.6400   21.5193 C   0  0  0  0  0  0
  -18.1913  -26.7967   22.1579 C   0  0  0  0  0  0
  -19.1539  -28.8892   23.2854 C   0  0  0  0  0  0
  -18.9460  -30.1483   23.8885 C   0  0  0  0  0  0
  -17.6477  -30.6631   24.0563 C   0  0  0  0  0  0
  -25.9074  -34.9413   23.5085 C   0  0  0  0  0  0
  -16.5364  -29.9122   23.6353 C   0  0  0  0  0  0
  -16.7277  -28.6518   23.0396 C   0  0  0  0  0  0
  -26.4543  -31.6586   25.0769 C   0  0  0  0  0  0
  -25.3769  -31.3707   26.1492 C   0  0  0  0  0  0
  -27.0438  -30.3002   24.6332 C   0  0  0  0  0  0
  -27.6068  -32.4370   25.7550 C   0  0  0  0  0  0
  -27.5581  -37.1735   24.8443 C   0  0  0  0  0  0
  -21.4191  -29.3083   22.3608 N   0  0  0  0  0  0
  -26.4237  -37.3759   23.9456 N   0  0  0  0  0  0
  -24.6927  -31.0563   22.1049 N   0  0  0  0  0  0
  -23.4184  -28.8180   23.2960 O   0  0  0  0  0  0
  -28.2841  -26.3595   20.2254 O   0  0  0  0  0  0
  -26.5612  -34.8879   22.4628 O   0  0  0  0  0  0
  -23.5467  -32.1436   23.7365 O   0  0  0  0  0  0
  -28.4035  -21.5756   21.6112 C   0  0  0  0  0  0
  -28.1842  -22.9710   21.3916 C   0  0  0  0  0  0
  -29.6267  -22.8792   19.4603 C   0  0  0  0  0  0
  -29.1988  -20.7929   20.7284 C   0  0  0  0  0  0
  -29.8637  -21.4846   19.6939 C   0  0  0  0  0  0
  -28.7337  -23.6498   20.2650 C   0  0  0  0  0  0
  -30.9927  -17.3224   20.6675 C   0  0  0  0  0  0
  -30.7742  -20.6694   18.7869 C   0  0  0  0  0  0
  -29.2666  -19.2247   20.8066 C   0  0  0  0  0  0
  -31.4106  -19.4386   19.4905 C   0  0  0  0  0  0
  -28.0712  -24.9738   19.7118 C   0  0  0  0  0  0
  -30.1076  -16.0335   20.9970 C   0  0  0  0  0  0
  -30.4943  -18.5542   20.2692 N   0  0  0  0  0  0
  -32.2245  -17.2207   20.7633 O   0  0  0  0  0  0
  -31.4625  -12.4286   19.1839 H   0  0  0  0  0  0
  -30.2905  -11.4130   19.9649 H   0  0  0  0  0  0
  -29.7690  -11.7496   17.5071 H   0  0  0  0  0  0
  -29.6642  -13.4747   17.7675 H   0  0  0  0  0  0
  -27.8637  -11.3074   18.8988 H   0  0  0  0  0  0
  -27.3819  -12.5787   17.8095 H   0  0  0  0  0  0
  -27.6539  -14.2717   19.4977 H   0  0  0  0  0  0
  -28.7044  -12.2052   21.4840 H   0  0  0  0  0  0
  -28.4669  -13.9138   21.7775 H   0  0  0  0  0  0
  -25.2813   -9.5665   22.4754 H   0  0  0  0  0  0
  -24.0036   -7.4633   22.7473 H   0  0  0  0  0  0
  -21.0942   -8.8770   19.8898 H   0  0  0  0  0  0
  -22.3790  -10.9671   19.6121 H   0  0  0  0  0  0
  -21.1971   -7.6136   23.9723 H   0  0  0  0  0  0
  -21.1496   -6.0490   25.9082 H   0  0  0  0  0  0
  -22.0605   -2.7603   23.2813 H   0  0  0  0  0  0
  -22.4153  -11.9804   22.4780 H   0  0  0  0  0  0
  -21.1090  -13.1102   22.2620 H   0  0  0  0  0  0
  -24.6542  -15.8522   20.5384 H   0  0  0  0  0  0
  -26.2735  -15.6422   20.1099 H   0  0  0  0  0  0
  -26.7223  -32.5402   23.1081 H   0  0  0  0  0  0
  -25.0258  -33.9681   25.0513 H   0  0  0  0  0  0
  -22.7158  -31.3134   21.4102 H   0  0  0  0  0  0
  -23.3774  -35.9511   23.3215 H   0  0  0  0  0  0
  -24.3582  -36.8948   22.2068 H   0  0  0  0  0  0
  -23.7195  -37.6352   23.6746 H   0  0  0  0  0  0
  -26.1297  -31.5303   20.6360 H   0  0  0  0  0  0
  -26.8406  -30.7953   22.0450 H   0  0  0  0  0  0
  -28.0868  -28.8902   21.2701 H   0  0  0  0  0  0
  -25.9179  -26.0164   18.8474 H   0  0  0  0  0  0
  -23.9760  -27.3885   18.9195 H   0  0  0  0  0  0
  -23.7663  -30.6229   19.4125 H   0  0  0  0  0  0
  -22.7568  -29.2776   19.8428 H   0  0  0  0  0  0
  -25.1274  -36.1808   25.0803 H   0  0  0  0  0  0
  -20.9990  -28.3361   24.1356 H   0  0  0  0  0  0
  -20.5676  -26.2353   23.3605 H   0  0  0  0  0  0
  -21.6628  -26.7500   22.1193 H   0  0  0  0  0  0
  -19.6897  -25.6295   21.1266 H   0  0  0  0  0  0
  -19.6699  -27.3155   20.6679 H   0  0  0  0  0  0
  -17.4197  -26.6758   21.3957 H   0  0  0  0  0  0
  -18.0297  -26.0115   22.8974 H   0  0  0  0  0  0
  -19.7941  -30.7284   24.2265 H   0  0  0  0  0  0
  -17.5044  -31.6310   24.5178 H   0  0  0  0  0  0
  -15.5369  -30.3024   23.7724 H   0  0  0  0  0  0
  -15.8658  -28.0843   22.7173 H   0  0  0  0  0  0
  -24.5970  -30.7029   25.7800 H   0  0  0  0  0  0
  -24.8928  -32.2869   26.4894 H   0  0  0  0  0  0
  -25.8115  -30.8907   27.0278 H   0  0  0  0  0  0
  -26.3056  -29.6690   24.1377 H   0  0  0  0  0  0
  -27.4098  -29.7336   25.4898 H   0  0  0  0  0  0
  -27.8952  -30.4205   23.9623 H   0  0  0  0  0  0
  -27.2654  -33.3728   26.1981 H   0  0  0  0  0  0
  -28.3957  -32.6858   25.0432 H   0  0  0  0  0  0
  -28.0655  -31.8616   26.5597 H   0  0  0  0  0  0
  -28.2453  -38.0175   24.7719 H   0  0  0  0  0  0
  -28.1245  -36.2723   24.6010 H   0  0  0  0  0  0
  -27.2335  -37.1073   25.8846 H   0  0  0  0  0  0
  -20.9374  -29.8807   21.6814 H   0  0  0  0  0  0
  -26.0082  -38.2773   24.1657 H   0  0  0  0  0  0
  -27.8941  -21.1019   22.4437 H   0  0  0  0  0  0
  -27.4892  -23.4872   22.0416 H   0  0  0  0  0  0
  -30.0584  -23.3275   18.5757 H   0  0  0  0  0  0
  -31.5752  -21.3053   18.4047 H   0  0  0  0  0  0
  -30.2138  -20.3476   17.9076 H   0  0  0  0  0  0
  -28.4150  -18.8450   20.2339 H   0  0  0  0  0  0
  -29.0921  -18.9080   21.8377 H   0  0  0  0  0  0
  -32.1892  -19.8016   20.1659 H   0  0  0  0  0  0
  -31.9296  -18.8573   18.7231 H   0  0  0  0  0  0
  -27.0342  -24.6920   19.8655 H   0  0  0  0  0  0
  -28.2224  -24.9971   18.6318 H   0  0  0  0  0  0
  -29.1085  -16.1596   20.5823 H   0  0  0  0  0  0
  -30.0056  -15.9801   22.0807 H   0  0  0  0  0  0
  1 25  1  0  0  0
  1 30  2  0  0  0
  1 82  1  0  0  0
  2  3  1  0  0  0
  2 25  1  0  0  0
  2 85  1  0  0  0
  2 86  1  0  0  0
  3  4  1  0  0  0
  3 87  1  0  0  0
  3 88  1  0  0  0
  4  5  1  0  0  0
  4 89  1  0  0  0
  4 90  1  0  0  0
  5  6  1  0  0  0
  5 26  1  0  0  0
  5 91  1  0  0  0
  6 25  1  0  0  0
  6 92  1  0  0  0
  6 93  1  0  0  0
  7  8  2  0  0  0
  7 26  1  0  0  0
  7 29  1  0  0  0
  8  9  1  0  0  0
  8 22  1  0  0  0
  9 10  1  0  0  0
  9 27  2  0  0  0
 10 11  2  0  0  0
 10 15  1  0  0  0
 11 12  1  0  0  0
 11 94  1  0  0  0
 12 13  2  0  0  0
 12 95  1  0  0  0
 13 14  1  0  0  0
 13 31  1  0  0  0
 14 15  2  0  0  0
 14 96  1  0  0  0
 15 97  1  0  0  0
 16 17  2  0  0  0
 16 21  1  0  0  0
 16 31  1  0  0  0
 17 18  1  0  0  0
 17 98  1  0  0  0
 18 19  2  0  0  0
 18 99  1  0  0  0
 19 20  1  0  0  0
 19 24  1  0  0  0
 20 21  2  0  0  0
 20100  1  0  0  0
 21 23  1  0  0  0
 22 28  1  0  0  0
 22 32  2  0  0  0
 26 27  1  0  0  0
 28101  1  0  0  0
 28102  1  0  0  0
 29103  1  0  0  0
 29104  1  0  0  0
 33 34  1  0  0  0
 33 66  1  0  0  0
 33 70  2  0  0  0
 34 36  1  0  0  0
 34 59  1  0  0  0
 34105  1  0  0  0
 35 44  2  0  0  0
 35 45  1  0  0  0
 35 68  1  0  0  0
 36 56  1  0  0  0
 36106  1  0  0  0
 37 39  1  0  0  0
 37 47  1  0  0  0
 37 66  1  0  0  0
 37107  1  0  0  0
 38 43  2  0  0  0
 38 46  1  0  0  0
 38 47  1  0  0  0
 39 64  1  0  0  0
 39 67  2  0  0  0
 40 52  1  0  0  0
 40 53  2  0  0  0
 40 58  1  0  0  0
 41108  1  0  0  0
 41109  1  0  0  0
 41110  1  0  0  0
 41 48  1  0  0  0
 42 43  1  0  0  0
 42 66  1  0  0  0
 42111  1  0  0  0
 42112  1  0  0  0
 43 44  1  0  0  0
 44113  1  0  0  0
 45 46  2  0  0  0
 45114  1  0  0  0
 46115  1  0  0  0
 47116  1  0  0  0
 47117  1  0  0  0
 48 56  1  0  0  0
 48 65  1  0  0  0
 48118  1  0  0  0
 49 50  1  0  0  0
 49 53  1  0  0  0
 49 64  1  0  0  0
 49119  1  0  0  0
 50 51  1  0  0  0
 50120  1  0  0  0
 50121  1  0  0  0
 51 52  1  0  0  0
 51122  1  0  0  0
 51123  1  0  0  0
 52124  1  0  0  0
 52125  1  0  0  0
 53 54  1  0  0  0
 54 55  2  0  0  0
 54126  1  0  0  0
 55 57  1  0  0  0
 55127  1  0  0  0
 56 69  2  0  0  0
 57 58  2  0  0  0
 57128  1  0  0  0
 58129  1  0  0  0
 59 60  1  0  0  0
 59 61  1  0  0  0
 59 62  1  0  0  0
 60130  1  0  0  0
 60131  1  0  0  0
 60132  1  0  0  0
 61133  1  0  0  0
 61134  1  0  0  0
 61135  1  0  0  0
 62136  1  0  0  0
 62137  1  0  0  0
 62138  1  0  0  0
 63 65  1  0  0  0
 63139  1  0  0  0
 63140  1  0  0  0
 63141  1  0  0  0
 64142  1  0  0  0
 65143  1  0  0  0
 68 81  1  0  0  0
 71 72  2  0  0  0
 71 74  1  0  0  0
 71144  1  0  0  0
 72 76  1  0  0  0
 72145  1  0  0  0
 73 75  1  0  0  0
 73 76  2  0  0  0
 73146  1  0  0  0
 74 75  2  0  0  0
 74 79  1  0  0  0
 75 78  1  0  0  0
 76 81  1  0  0  0
 77 82  1  0  0  0
 77 83  1  0  0  0
 77 84  2  0  0  0
 78 80  1  0  0  0
 78147  1  0  0  0
 78148  1  0  0  0
 79 83  1  0  0  0
 79149  1  0  0  0
 79150  1  0  0  0
 80 83  1  0  0  0
 80151  1  0  0  0
 80152  1  0  0  0
 81153  1  0  0  0
 81154  1  0  0  0
 82155  1  0  0  0
 82156  1  0  0  0
M  ISO  4   1 100  68 101  81 101  82 100
M  END
> <chiral flag>
0

> <version>
0

> <s_m_source_file>
/data/baiqing/PycharmProjects/Reinvent-master-3.2/result/LINK_invent/BTK/process_docking_weight1_custom_product_contain_oxygen_bond_distance_aromatic_linkinvent_7_9_3/rearranged_h_0103.sdf

> <i_m_source_file_index>
56

> <r_mmod_Potential_Energy-OPLS-2005>
221.070495605469

> <r_mmod_Stretch_Energy-OPLS-2005>
101.240341186523

> <r_mmod_Bend_Energy-OPLS-2005>
166.559936523438

> <r_mmod_Torsional_Energy-OPLS-2005>
256.746887207031

> <r_mmod_Improper_Torsional_Energy-OPLS-2005>
7.29404926300049

> <r_mmod_Van_der_Waal_Energy-OPLS-2005>
168.362808227539

> <r_mmod_Electrostatic_Energy-OPLS-2005>
-307.653594970703

> <r_mmod_Solvation_Energy-OPLS-2005>
-241.606109619141

> <b_mmod_Minimization_Converged-OPLS-2005>
0

> <r_mmod_RMS_Derivative-OPLS-2005>
4.83519697189331

$$$$
56
                    3D
 Structure written by MMmdl.
158166  0  0  1  0            999 V2000
  -30.5467  -14.6330   20.3432 C   0  0  0  0  0  0
  -30.4358  -12.3576   19.4000 C   0  0  0  0  0  0
  -29.4867  -12.4435   18.1847 C   0  0  0  0  0  0
  -28.0115  -12.3007   18.6132 C   0  0  0  0  0  0
  -27.6356  -13.1892   19.8254 C   0  0  2  0  0  0
  -28.6905  -13.0745   20.9527 C   0  0  0  0  0  0
  -25.2582  -13.8139   20.5658 C   0  0  0  0  0  0
  -24.1841  -13.0400   20.9211 C   0  0  0  0  0  0
  -24.6382  -11.6873   20.8780 C   0  0  0  0  0  0
  -23.9065  -10.4266   21.0465 C   0  0  0  0  0  0
  -24.3633   -9.4162   21.9207 C   0  0  0  0  0  0
  -23.6294   -8.2189   22.0753 C   0  0  0  0  0  0
  -22.4287   -8.0254   21.3542 C   0  0  0  0  0  0
  -21.9931   -9.0240   20.4635 C   0  0  0  0  0  0
  -22.7258  -10.2109   20.3071 C   0  0  0  0  0  0
  -21.6826   -6.0755   22.5292 C   0  0  0  0  0  0
  -21.3954   -6.5616   23.8245 C   0  0  0  0  0  0
  -21.3690   -5.6787   24.9171 C   0  0  0  0  0  0
  -21.6075   -4.3048   24.7232 C   0  0  0  0  0  0
  -21.8796   -3.8134   23.4348 C   0  0  0  0  0  0
  -21.9173   -4.6985   22.3385 C   0  0  0  0  0  0
  -22.7859  -13.5168   21.1845 C   0  0  0  0  0  0
  -22.1633   -4.2153   21.0984 F   0  0  0  0  0  0
  -21.5684   -3.4521   25.7744 F   0  0  0  0  0  0
  -30.0030  -13.3878   20.3626 N   0  0  0  0  0  0
  -26.2925  -12.9215   20.3136 N   0  0  0  0  0  0
  -25.9282  -11.6408   20.5743 N   0  0  0  0  0  0
  -22.0485  -12.8199   22.0455 N   0  0  0  0  0  0
  -25.4261  -15.1865   20.4045 N   0  0  0  0  0  0
  -31.7420  -14.8222   20.0853 O   0  0  0  0  0  0
  -21.6605   -6.8893   21.4256 O   0  0  0  0  0  0
  -22.3557  -14.5494   20.6711 O   0  0  0  0  0  0
  -24.6276  -31.8588   23.1992 C   0  0  0  0  0  0
  -25.9119  -32.4775   23.8334 C   0  0  1  0  0  0
  -27.2511  -27.3609   20.0876 C   0  0  0  0  0  0
  -25.5940  -33.8568   24.2262 N   0  0  0  0  0  0
  -23.4203  -30.4781   21.5371 C   0  0  2  0  0  0
  -24.8685  -28.9231   20.1161 C   0  0  0  0  0  0
  -22.7468  -29.4605   22.4902 C   0  0  0  0  0  0
  -18.0297  -28.1390   22.8465 C   0  0  0  0  0  0
  -24.1498  -36.7309   23.2632 C   0  0  0  0  0  0
  -25.9561  -30.7984   21.3613 C   0  0  0  0  0  0
  -26.0326  -29.4228   20.7137 C   0  0  0  0  0  0
  -27.2218  -28.6466   20.6966 C   0  0  0  0  0  0
  -26.0606  -26.8876   19.4955 C   0  0  0  0  0  0
  -24.8808  -27.6559   19.5078 C   0  0  0  0  0  0
  -23.6411  -29.8041   20.1550 C   0  0  0  0  0  0
  -25.4114  -36.3066   24.0322 C   0  0  1  0  0  0
  -20.5896  -28.3713   23.1266 C   0  0  2  0  0  0
  -20.6775  -26.9433   22.5402 C   0  0  0  0  0  0
  -19.5759  -26.6396   21.5189 C   0  0  0  0  0  0
  -18.1942  -26.7932   22.1596 C   0  0  0  0  0  0
  -19.1549  -28.8856   23.2860 C   0  0  0  0  0  0
  -18.9470  -30.1457   23.8903 C   0  0  0  0  0  0
  -17.6477  -30.6587   24.0576 C   0  0  0  0  0  0
  -25.9047  -34.9445   23.5073 C   0  0  0  0  0  0
  -16.5361  -29.9102   23.6319 C   0  0  0  0  0  0
  -16.7281  -28.6520   23.0320 C   0  0  0  0  0  0
  -26.4499  -31.6569   25.0696 C   0  0  0  0  0  0
  -25.3759  -31.3706   26.1444 C   0  0  0  0  0  0
  -27.0319  -30.3003   24.6096 C   0  0  0  0  0  0
  -27.6045  -32.4299   25.7477 C   0  0  0  0  0  0
  -27.5570  -37.1815   24.8455 C   0  0  0  0  0  0
  -21.4195  -29.3067   22.3657 N   0  0  0  0  0  0
  -26.4280  -37.3769   23.9398 N   0  0  0  0  0  0
  -24.6855  -31.0619   22.0915 N   0  0  0  0  0  0
  -23.4204  -28.8158   23.2970 O   0  0  0  0  0  0
  -28.4257  -26.6113   20.1146 O   0  0  0  0  0  0
  -26.5575  -34.8909   22.4636 O   0  0  0  0  0  0
  -23.5435  -32.1331   23.7339 O   0  0  0  0  0  0
  -28.2722  -17.1194   18.0478 C   0  0  0  0  0  0
  -27.3569  -17.7021   17.1363 C   0  0  0  0  0  0
  -27.6427  -19.8354   18.2374 C   0  0  0  0  0  0
  -28.8581  -17.8629   19.1111 C   0  0  0  0  0  0
  -27.0421  -19.0680   17.2272 C   0  0  0  0  0  0
  -28.5428  -19.2758   19.1844 C   0  0  0  0  0  0
  -29.7934  -17.1268   20.1351 C   0  0  0  0  0  0
  -28.2494  -24.0235   20.3114 C   0  0  0  0  0  0
  -28.8416  -22.6734   19.7542 C   0  0  0  0  0  0
  -28.5578  -25.3103   19.4632 C   0  0  0  0  0  0
  -28.4237  -21.3593   20.5146 C   0  0  0  0  0  0
  -29.6323  -15.6485   20.3517 N   0  0  0  0  0  0
  -26.1647  -19.6723   16.3705 O   0  0  0  0  0  0
  -29.0989  -20.1119   20.1468 O   0  0  0  0  0  0
  -31.4656  -12.5060   19.0745 H   0  0  0  0  0  0
  -30.3950  -11.3642   19.8454 H   0  0  0  0  0  0
  -29.7286  -11.6681   17.4565 H   0  0  0  0  0  0
  -29.6292  -13.3947   17.6610 H   0  0  0  0  0  0
  -27.8409  -11.2525   18.8668 H   0  0  0  0  0  0
  -27.3541  -12.5223   17.7726 H   0  0  0  0  0  0
  -27.6221  -14.2091   19.4369 H   0  0  0  0  0  0
  -28.6958  -12.0753   21.3895 H   0  0  0  0  0  0
  -28.4664  -13.7621   21.7711 H   0  0  0  0  0  0
  -25.2806   -9.5603   22.4775 H   0  0  0  0  0  0
  -24.0020   -7.4578   22.7458 H   0  0  0  0  0  0
  -21.0871   -8.8784   19.8922 H   0  0  0  0  0  0
  -22.3773  -10.9691   19.6183 H   0  0  0  0  0  0
  -21.1884   -7.6113   23.9719 H   0  0  0  0  0  0
  -21.1550   -6.0502   25.9102 H   0  0  0  0  0  0
  -22.0558   -2.7601   23.2820 H   0  0  0  0  0  0
  -22.4067  -11.9836   22.4916 H   0  0  0  0  0  0
  -21.1071  -13.1235   22.2556 H   0  0  0  0  0  0
  -24.6548  -15.8276   20.5344 H   0  0  0  0  0  0
  -26.2544  -15.6533   20.0604 H   0  0  0  0  0  0
  -26.7191  -32.5440   23.1093 H   0  0  0  0  0  0
  -25.0207  -33.9695   25.0471 H   0  0  0  0  0  0
  -22.7164  -31.2984   21.3826 H   0  0  0  0  0  0
  -23.3726  -35.9674   23.3289 H   0  0  0  0  0  0
  -24.3591  -36.8932   22.2042 H   0  0  0  0  0  0
  -23.7281  -37.6532   23.6652 H   0  0  0  0  0  0
  -26.0682  -31.5520   20.5790 H   0  0  0  0  0  0
  -26.8469  -30.8640   21.9772 H   0  0  0  0  0  0
  -28.1238  -29.0252   21.1550 H   0  0  0  0  0  0
  -26.0203  -25.9171   19.0232 H   0  0  0  0  0  0
  -23.9816  -27.2613   19.0536 H   0  0  0  0  0  0
  -23.7833  -30.5744   19.3953 H   0  0  0  0  0  0
  -22.7625  -29.2396   19.8389 H   0  0  0  0  0  0
  -25.1297  -36.1912   25.0811 H   0  0  0  0  0  0
  -20.9991  -28.3284   24.1376 H   0  0  0  0  0  0
  -20.5654  -26.2313   23.3601 H   0  0  0  0  0  0
  -21.6640  -26.7431   22.1199 H   0  0  0  0  0  0
  -19.6910  -25.6303   21.1217 H   0  0  0  0  0  0
  -19.6694  -27.3198   20.6716 H   0  0  0  0  0  0
  -17.4196  -26.6674   21.4014 H   0  0  0  0  0  0
  -18.0352  -26.0090   22.9010 H   0  0  0  0  0  0
  -19.7946  -30.7270   24.2271 H   0  0  0  0  0  0
  -17.5024  -31.6262   24.5195 H   0  0  0  0  0  0
  -15.5353  -30.3007   23.7640 H   0  0  0  0  0  0
  -15.8675  -28.0862   22.6998 H   0  0  0  0  0  0
  -24.5938  -30.7037   25.7799 H   0  0  0  0  0  0
  -24.8960  -32.2879   26.4872 H   0  0  0  0  0  0
  -25.8138  -30.8904   27.0207 H   0  0  0  0  0  0
  -26.2847  -29.6770   24.1180 H   0  0  0  0  0  0
  -27.4085  -29.7249   25.4557 H   0  0  0  0  0  0
  -27.8691  -30.4276   23.9232 H   0  0  0  0  0  0
  -27.2632  -33.3577   26.2084 H   0  0  0  0  0  0
  -28.3874  -32.6910   25.0340 H   0  0  0  0  0  0
  -28.0708  -31.8421   26.5389 H   0  0  0  0  0  0
  -28.2587  -38.0114   24.7491 H   0  0  0  0  0  0
  -28.1074  -36.2642   24.6299 H   0  0  0  0  0  0
  -27.2295  -37.1488   25.8864 H   0  0  0  0  0  0
  -20.9364  -29.8849   21.6934 H   0  0  0  0  0  0
  -26.0157  -38.2844   24.1409 H   0  0  0  0  0  0
  -28.4960  -16.0729   17.9223 H   0  0  0  0  0  0
  -26.8876  -17.0889   16.3755 H   0  0  0  0  0  0
  -27.3710  -20.8828   18.2677 H   0  0  0  0  0  0
  -29.6145  -17.6076   21.1037 H   0  0  0  0  0  0
  -30.8305  -17.3421   19.8705 H   0  0  0  0  0  0
  -28.6527  -24.1621   21.3134 H   0  0  0  0  0  0
  -27.1710  -23.9257   20.4289 H   0  0  0  0  0  0
  -29.9283  -22.7488   19.7767 H   0  0  0  0  0  0
  -28.5762  -22.6003   18.7000 H   0  0  0  0  0  0
  -28.0389  -25.2813   18.5052 H   0  0  0  0  0  0
  -29.6089  -25.2472   19.1831 H   0  0  0  0  0  0
  -27.3431  -21.2251   20.4576 H   0  0  0  0  0  0
  -28.6101  -21.5067   21.5813 H   0  0  0  0  0  0
  -28.6876  -15.3234   20.4828 H   0  0  0  0  0  0
  -25.8667  -19.1253   15.6545 H   0  0  0  0  0  0
  1 25  1  0  0  0
  1 30  2  0  0  0
  1 82  1  0  0  0
  2  3  1  0  0  0
  2 25  1  0  0  0
  2 85  1  0  0  0
  2 86  1  0  0  0
  3  4  1  0  0  0
  3 87  1  0  0  0
  3 88  1  0  0  0
  4  5  1  0  0  0
  4 89  1  0  0  0
  4 90  1  0  0  0
  5  6  1  0  0  0
  5 26  1  0  0  0
  5 91  1  0  0  0
  6 25  1  0  0  0
  6 92  1  0  0  0
  6 93  1  0  0  0
  7  8  2  0  0  0
  7 26  1  0  0  0
  7 29  1  0  0  0
  8  9  1  0  0  0
  8 22  1  0  0  0
  9 10  1  0  0  0
  9 27  2  0  0  0
 10 11  2  0  0  0
 10 15  1  0  0  0
 11 12  1  0  0  0
 11 94  1  0  0  0
 12 13  2  0  0  0
 12 95  1  0  0  0
 13 14  1  0  0  0
 13 31  1  0  0  0
 14 15  2  0  0  0
 14 96  1  0  0  0
 15 97  1  0  0  0
 16 17  2  0  0  0
 16 21  1  0  0  0
 16 31  1  0  0  0
 17 18  1  0  0  0
 17 98  1  0  0  0
 18 19  2  0  0  0
 18 99  1  0  0  0
 19 20  1  0  0  0
 19 24  1  0  0  0
 20 21  2  0  0  0
 20100  1  0  0  0
 21 23  1  0  0  0
 22 28  1  0  0  0
 22 32  2  0  0  0
 26 27  1  0  0  0
 28101  1  0  0  0
 28102  1  0  0  0
 29103  1  0  0  0
 29104  1  0  0  0
 33 34  1  0  0  0
 33 66  1  0  0  0
 33 70  2  0  0  0
 34 36  1  0  0  0
 34 59  1  0  0  0
 34105  1  0  0  0
 35 44  2  0  0  0
 35 45  1  0  0  0
 35 68  1  0  0  0
 36 56  1  0  0  0
 36106  1  0  0  0
 37 39  1  0  0  0
 37 47  1  0  0  0
 37 66  1  0  0  0
 37107  1  0  0  0
 38 43  2  0  0  0
 38 46  1  0  0  0
 38 47  1  0  0  0
 39 64  1  0  0  0
 39 67  2  0  0  0
 40 52  1  0  0  0
 40 53  2  0  0  0
 40 58  1  0  0  0
 41108  1  0  0  0
 41109  1  0  0  0
 41110  1  0  0  0
 41 48  1  0  0  0
 42 43  1  0  0  0
 42 66  1  0  0  0
 42111  1  0  0  0
 42112  1  0  0  0
 43 44  1  0  0  0
 44113  1  0  0  0
 45 46  2  0  0  0
 45114  1  0  0  0
 46115  1  0  0  0
 47116  1  0  0  0
 47117  1  0  0  0
 48 56  1  0  0  0
 48 65  1  0  0  0
 48118  1  0  0  0
 49 50  1  0  0  0
 49 53  1  0  0  0
 49 64  1  0  0  0
 49119  1  0  0  0
 50 51  1  0  0  0
 50120  1  0  0  0
 50121  1  0  0  0
 51 52  1  0  0  0
 51122  1  0  0  0
 51123  1  0  0  0
 52124  1  0  0  0
 52125  1  0  0  0
 53 54  1  0  0  0
 54 55  2  0  0  0
 54126  1  0  0  0
 55 57  1  0  0  0
 55127  1  0  0  0
 56 69  2  0  0  0
 57 58  2  0  0  0
 57128  1  0  0  0
 58129  1  0  0  0
 59 60  1  0  0  0
 59 61  1  0  0  0
 59 62  1  0  0  0
 60130  1  0  0  0
 60131  1  0  0  0
 60132  1  0  0  0
 61133  1  0  0  0
 61134  1  0  0  0
 61135  1  0  0  0
 62136  1  0  0  0
 62137  1  0  0  0
 62138  1  0  0  0
 63 65  1  0  0  0
 63139  1  0  0  0
 63140  1  0  0  0
 63141  1  0  0  0
 64142  1  0  0  0
 65143  1  0  0  0
 68 80  1  0  0  0
 71 72  2  0  0  0
 71 74  1  0  0  0
 71144  1  0  0  0
 72 75  1  0  0  0
 72145  1  0  0  0
 73 75  2  0  0  0
 73 76  1  0  0  0
 73146  1  0  0  0
 74 76  2  0  0  0
 74 77  1  0  0  0
 75 83  1  0  0  0
 76 84  1  0  0  0
 77 82  1  0  0  0
 77147  1  0  0  0
 77148  1  0  0  0
 78 79  1  0  0  0
 78 80  1  0  0  0
 78149  1  0  0  0
 78150  1  0  0  0
 79 81  1  0  0  0
 79151  1  0  0  0
 79152  1  0  0  0
 80153  1  0  0  0
 80154  1  0  0  0
 81 84  1  0  0  0
 81155  1  0  0  0
 81156  1  0  0  0
 82157  1  0  0  0
 83158  1  0  0  0
M  ISO  4   1 100  68 101  80 101  82 100
M  END
> <chiral flag>
0

> <version>
0

> <s_m_source_file>
/data/baiqing/PycharmProjects/Reinvent-master-3.2/result/LINK_invent/BTK/process_docking_weight1_custom_product_contain_oxygen_bond_distance_aromatic_linkinvent_7_9_3/rearranged_h_0103.sdf

> <i_m_source_file_index>
57

> <r_mmod_Potential_Energy-OPLS-2005>
-35.1669425964355

> <r_mmod_Stretch_Energy-OPLS-2005>
67.452880859375

> <r_mmod_Bend_Energy-OPLS-2005>
136.698944091797

> <r_mmod_Torsional_Energy-OPLS-2005>
201.122085571289

> <r_mmod_Improper_Torsional_Energy-OPLS-2005>
7.00702905654907

> <r_mmod_Van_der_Waal_Energy-OPLS-2005>
143.309448242188

> <r_mmod_Electrostatic_Energy-OPLS-2005>
-408.317535400391

> <r_mmod_Solvation_Energy-OPLS-2005>
-232.545486450195

> <b_mmod_Minimization_Converged-OPLS-2005>
0

> <r_mmod_RMS_Derivative-OPLS-2005>
9.42498111724854

$$$$
57
                    3D
 Structure written by MMmdl.
161170  0  0  1  0            999 V2000
  -30.7087  -14.5839   20.5618 C   0  0  0  0  0  0
  -30.4206  -12.3788   19.4458 C   0  0  0  0  0  0
  -29.4952  -12.4937   18.2160 C   0  0  0  0  0  0
  -28.0164  -12.3244   18.6184 C   0  0  0  0  0  0
  -27.6452  -13.1874   19.8469 C   0  0  2  0  0  0
  -28.6929  -13.0133   20.9709 C   0  0  0  0  0  0
  -25.2543  -13.8099   20.5637 C   0  0  0  0  0  0
  -24.1819  -13.0395   20.9224 C   0  0  0  0  0  0
  -24.6364  -11.6866   20.8769 C   0  0  0  0  0  0
  -23.9031  -10.4266   21.0458 C   0  0  0  0  0  0
  -24.3594   -9.4172   21.9210 C   0  0  0  0  0  0
  -23.6279   -8.2209   22.0767 C   0  0  0  0  0  0
  -22.4256   -8.0267   21.3557 C   0  0  0  0  0  0
  -21.9896   -9.0244   20.4648 C   0  0  0  0  0  0
  -22.7229  -10.2119   20.3082 C   0  0  0  0  0  0
  -21.6833   -6.0734   22.5289 C   0  0  0  0  0  0
  -21.3980   -6.5651   23.8225 C   0  0  0  0  0  0
  -21.3663   -5.6815   24.9202 C   0  0  0  0  0  0
  -21.6061   -4.3068   24.7253 C   0  0  0  0  0  0
  -21.8812   -3.8156   23.4361 C   0  0  0  0  0  0
  -21.9173   -4.6960   22.3412 C   0  0  0  0  0  0
  -22.7838  -13.5175   21.1903 C   0  0  0  0  0  0
  -22.1652   -4.2147   21.0992 F   0  0  0  0  0  0
  -21.5640   -3.4555   25.7768 F   0  0  0  0  0  0
  -30.0002  -13.4087   20.4253 N   0  0  0  0  0  0
  -26.2935  -12.9228   20.3221 N   0  0  0  0  0  0
  -25.9263  -11.6408   20.5736 N   0  0  0  0  0  0
  -22.0481  -12.8167   22.0448 N   0  0  0  0  0  0
  -25.4186  -15.1820   20.3959 N   0  0  0  0  0  0
  -31.8620  -14.6218   20.1213 O   0  0  0  0  0  0
  -21.6612   -6.8875   21.4256 O   0  0  0  0  0  0
  -22.3513  -14.5486   20.6759 O   0  0  0  0  0  0
  -24.6177  -31.8709   23.2141 C   0  0  0  0  0  0
  -25.9086  -32.4825   23.8424 C   0  0  1  0  0  0
  -27.2274  -27.4228   20.0856 C   0  0  0  0  0  0
  -25.5936  -33.8622   24.2363 N   0  0  0  0  0  0
  -23.4030  -30.4994   21.5556 C   0  0  2  0  0  0
  -24.8479  -28.9754   20.1075 C   0  0  0  0  0  0
  -22.7458  -29.4662   22.4996 C   0  0  0  0  0  0
  -18.0268  -28.1350   22.8472 C   0  0  0  0  0  0
  -24.1497  -36.7317   23.2633 C   0  0  0  0  0  0
  -25.9368  -30.8314   21.3736 C   0  0  0  0  0  0
  -26.0118  -29.4683   20.7130 C   0  0  0  0  0  0
  -27.1997  -28.6973   20.7059 C   0  0  0  0  0  0
  -26.0422  -26.9677   19.4530 C   0  0  0  0  0  0
  -24.8587  -27.7234   19.4779 C   0  0  0  0  0  0
  -23.6107  -29.8439   20.1667 C   0  0  0  0  0  0
  -25.4112  -36.3135   24.0350 C   0  0  1  0  0  0
  -20.5868  -28.3654   23.1297 C   0  0  2  0  0  0
  -20.6769  -26.9387   22.5397 C   0  0  0  0  0  0
  -19.5752  -26.6373   21.5193 C   0  0  0  0  0  0
  -18.1914  -26.7894   22.1597 C   0  0  0  0  0  0
  -19.1517  -28.8814   23.2871 C   0  0  0  0  0  0
  -18.9451  -30.1406   23.8902 C   0  0  0  0  0  0
  -17.6456  -30.6561   24.0551 C   0  0  0  0  0  0
  -25.9040  -34.9486   23.5154 C   0  0  0  0  0  0
  -16.5349  -29.9059   23.6327 C   0  0  0  0  0  0
  -16.7256  -28.6474   23.0355 C   0  0  0  0  0  0
  -26.4510  -31.6607   25.0752 C   0  0  0  0  0  0
  -25.3763  -31.3663   26.1493 C   0  0  0  0  0  0
  -27.0378  -30.3059   24.6131 C   0  0  0  0  0  0
  -27.6096  -32.4331   25.7486 C   0  0  0  0  0  0
  -27.5593  -37.1805   24.8466 C   0  0  0  0  0  0
  -21.4177  -29.3024   22.3739 N   0  0  0  0  0  0
  -26.4303  -37.3810   23.9413 N   0  0  0  0  0  0
  -24.6701  -31.0824   22.1038 N   0  0  0  0  0  0
  -23.4237  -28.8192   23.3020 O   0  0  0  0  0  0
  -28.3913  -26.6629   20.1247 O   0  0  0  0  0  0
  -26.5602  -34.8946   22.4715 O   0  0  0  0  0  0
  -23.5385  -32.1478   23.7551 O   0  0  0  0  0  0
  -29.1731  -18.9394   18.0743 C   0  0  0  0  0  0
  -29.6952  -17.8963   18.8633 C   0  0  0  0  0  0
  -29.2555  -20.2776   18.5072 C   0  0  0  0  0  0
  -30.4057  -19.5384   20.5172 C   0  0  0  0  0  0
  -30.3125  -18.1824   20.0998 C   0  0  0  0  0  0
  -29.8755  -20.6015   19.7401 C   0  0  0  0  0  0
  -28.4339  -15.7982   22.9655 C   0  0  0  0  0  0
  -28.3447  -17.1598   22.3390 C   0  0  0  0  0  0
  -28.7869  -15.9624   21.4974 C   0  0  0  0  0  0
  -30.9118  -17.0494   20.9606 C   0  0  0  0  0  0
  -29.3849  -24.3318   20.1971 C   0  0  0  0  0  0
  -28.3240  -25.3085   19.6358 C   0  0  0  0  0  0
  -29.2675  -22.9357   19.5313 C   0  0  0  0  0  0
  -30.1467  -15.7604   21.0384 N   0  0  0  0  0  0
  -29.9966  -21.9036   20.2140 O   0  0  0  0  0  0
  -31.4607  -12.4784   19.1285 H   0  0  0  0  0  0
  -30.3576  -11.3819   19.8844 H   0  0  0  0  0  0
  -29.7634  -11.7432   17.4707 H   0  0  0  0  0  0
  -29.6384  -13.4642   17.7385 H   0  0  0  0  0  0
  -27.8455  -11.2694   18.8345 H   0  0  0  0  0  0
  -27.3707  -12.5735   17.7767 H   0  0  0  0  0  0
  -27.6590  -14.2054   19.4695 H   0  0  0  0  0  0
  -28.7217  -11.9675   21.2786 H   0  0  0  0  0  0
  -28.4239  -13.5333   21.8813 H   0  0  0  0  0  0
  -25.2757   -9.5639   22.4749 H   0  0  0  0  0  0
  -24.0011   -7.4588   22.7457 H   0  0  0  0  0  0
  -21.0852   -8.8768   19.8910 H   0  0  0  0  0  0
  -22.3739  -10.9667   19.6177 H   0  0  0  0  0  0
  -21.1946   -7.6160   23.9731 H   0  0  0  0  0  0
  -21.1504   -6.0548   25.9113 H   0  0  0  0  0  0
  -22.0573   -2.7609   23.2879 H   0  0  0  0  0  0
  -22.4101  -11.9820   22.4832 H   0  0  0  0  0  0
  -21.1084  -13.1163   22.2629 H   0  0  0  0  0  0
  -24.6483  -15.8311   20.5079 H   0  0  0  0  0  0
  -26.2553  -15.6216   20.0348 H   0  0  0  0  0  0
  -26.7162  -32.5571   23.1208 H   0  0  0  0  0  0
  -25.0139  -33.9760   25.0546 H   0  0  0  0  0  0
  -22.6895  -31.3145   21.4229 H   0  0  0  0  0  0
  -23.3780  -35.9624   23.3294 H   0  0  0  0  0  0
  -24.3594  -36.8922   22.2043 H   0  0  0  0  0  0
  -23.7203  -37.6493   23.6660 H   0  0  0  0  0  0
  -26.0594  -31.6050   20.6149 H   0  0  0  0  0  0
  -26.8206  -30.8734   21.9978 H   0  0  0  0  0  0
  -28.0919  -29.0692   21.1936 H   0  0  0  0  0  0
  -25.9911  -26.0306   18.9224 H   0  0  0  0  0  0
  -23.9713  -27.3403   18.9941 H   0  0  0  0  0  0
  -23.7144  -30.6262   19.4138 H   0  0  0  0  0  0
  -22.7338  -29.2647   19.8718 H   0  0  0  0  0  0
  -25.1275  -36.2017   25.0835 H   0  0  0  0  0  0
  -20.9908  -28.3250   24.1436 H   0  0  0  0  0  0
  -20.5702  -26.2270   23.3590 H   0  0  0  0  0  0
  -21.6647  -26.7471   22.1168 H   0  0  0  0  0  0
  -19.6946  -25.6301   21.1189 H   0  0  0  0  0  0
  -19.6692  -27.3229   20.6757 H   0  0  0  0  0  0
  -17.4201  -26.6643   21.3985 H   0  0  0  0  0  0
  -18.0290  -26.0020   22.8971 H   0  0  0  0  0  0
  -19.7948  -30.7156   24.2337 H   0  0  0  0  0  0
  -17.5042  -31.6258   24.5123 H   0  0  0  0  0  0
  -15.5358  -30.2960   23.7636 H   0  0  0  0  0  0
  -15.8658  -28.0783   22.7089 H   0  0  0  0  0  0
  -24.5958  -30.7003   25.7799 H   0  0  0  0  0  0
  -24.8934  -32.2781   26.5011 H   0  0  0  0  0  0
  -25.8098  -30.8779   27.0227 H   0  0  0  0  0  0
  -26.2938  -29.6734   24.1273 H   0  0  0  0  0  0
  -27.4243  -29.7371   25.4590 H   0  0  0  0  0  0
  -27.8740  -30.4375   23.9253 H   0  0  0  0  0  0
  -27.2757  -33.3650   26.2074 H   0  0  0  0  0  0
  -28.3894  -32.6840   25.0278 H   0  0  0  0  0  0
  -28.0813  -31.8446   26.5375 H   0  0  0  0  0  0
  -28.2601  -38.0121   24.7570 H   0  0  0  0  0  0
  -28.1087  -36.2639   24.6240 H   0  0  0  0  0  0
  -27.2312  -37.1419   25.8869 H   0  0  0  0  0  0
  -20.9366  -29.8751   21.6948 H   0  0  0  0  0  0
  -26.0218  -38.2891   24.1413 H   0  0  0  0  0  0
  -28.7124  -18.7148   17.1225 H   0  0  0  0  0  0
  -29.6307  -16.8774   18.5058 H   0  0  0  0  0  0
  -28.8431  -21.0375   17.8587 H   0  0  0  0  0  0
  -30.8890  -19.7727   21.4545 H   0  0  0  0  0  0
  -27.4971  -15.2906   23.2001 H   0  0  0  0  0  0
  -29.2401  -15.6330   23.6752 H   0  0  0  0  0  0
  -29.0565  -17.9015   22.6932 H   0  0  0  0  0  0
  -27.3464  -17.5529   22.1552 H   0  0  0  0  0  0
  -28.0296  -15.7565   20.7578 H   0  0  0  0  0  0
  -31.0750  -17.4089   21.9769 H   0  0  0  0  0  0
  -31.9266  -16.9209   20.5827 H   0  0  0  0  0  0
  -29.2394  -24.2307   21.2728 H   0  0  0  0  0  0
  -30.3893  -24.7306   20.0495 H   0  0  0  0  0  0
  -27.3740  -24.8464   19.9013 H   0  0  0  0  0  0
  -28.3806  -25.3386   18.5462 H   0  0  0  0  0  0
  -29.6206  -23.0175   18.5018 H   0  0  0  0  0  0
  -28.2134  -22.6496   19.4932 H   0  0  0  0  0  0
  1 25  1  0  0  0
  1 30  2  0  0  0
  1 84  1  0  0  0
  2  3  1  0  0  0
  2 25  1  0  0  0
  2 86  1  0  0  0
  2 87  1  0  0  0
  3  4  1  0  0  0
  3 88  1  0  0  0
  3 89  1  0  0  0
  4  5  1  0  0  0
  4 90  1  0  0  0
  4 91  1  0  0  0
  5  6  1  0  0  0
  5 26  1  0  0  0
  5 92  1  0  0  0
  6 25  1  0  0  0
  6 93  1  0  0  0
  6 94  1  0  0  0
  7  8  2  0  0  0
  7 26  1  0  0  0
  7 29  1  0  0  0
  8  9  1  0  0  0
  8 22  1  0  0  0
  9 10  1  0  0  0
  9 27  2  0  0  0
 10 11  2  0  0  0
 10 15  1  0  0  0
 11 12  1  0  0  0
 11 95  1  0  0  0
 12 13  2  0  0  0
 12 96  1  0  0  0
 13 14  1  0  0  0
 13 31  1  0  0  0
 14 15  2  0  0  0
 14 97  1  0  0  0
 15 98  1  0  0  0
 16 17  2  0  0  0
 16 21  1  0  0  0
 16 31  1  0  0  0
 17 18  1  0  0  0
 17 99  1  0  0  0
 18 19  2  0  0  0
 18100  1  0  0  0
 19 20  1  0  0  0
 19 24  1  0  0  0
 20 21  2  0  0  0
 20101  1  0  0  0
 21 23  1  0  0  0
 22 28  1  0  0  0
 22 32  2  0  0  0
 26 27  1  0  0  0
 28102  1  0  0  0
 28103  1  0  0  0
 29104  1  0  0  0
 29105  1  0  0  0
 33 34  1  0  0  0
 33 66  1  0  0  0
 33 70  2  0  0  0
 34 36  1  0  0  0
 34 59  1  0  0  0
 34106  1  0  0  0
 35 44  2  0  0  0
 35 45  1  0  0  0
 35 68  1  0  0  0
 36 56  1  0  0  0
 36107  1  0  0  0
 37 39  1  0  0  0
 37 47  1  0  0  0
 37 66  1  0  0  0
 37108  1  0  0  0
 38 43  2  0  0  0
 38 46  1  0  0  0
 38 47  1  0  0  0
 39 64  1  0  0  0
 39 67  2  0  0  0
 40 52  1  0  0  0
 40 53  2  0  0  0
 40 58  1  0  0  0
 41109  1  0  0  0
 41110  1  0  0  0
 41111  1  0  0  0
 41 48  1  0  0  0
 42 43  1  0  0  0
 42 66  1  0  0  0
 42112  1  0  0  0
 42113  1  0  0  0
 43 44  1  0  0  0
 44114  1  0  0  0
 45 46  2  0  0  0
 45115  1  0  0  0
 46116  1  0  0  0
 47117  1  0  0  0
 47118  1  0  0  0
 48 56  1  0  0  0
 48 65  1  0  0  0
 48119  1  0  0  0
 49 50  1  0  0  0
 49 53  1  0  0  0
 49 64  1  0  0  0
 49120  1  0  0  0
 50 51  1  0  0  0
 50121  1  0  0  0
 50122  1  0  0  0
 51 52  1  0  0  0
 51123  1  0  0  0
 51124  1  0  0  0
 52125  1  0  0  0
 52126  1  0  0  0
 53 54  1  0  0  0
 54 55  2  0  0  0
 54127  1  0  0  0
 55 57  1  0  0  0
 55128  1  0  0  0
 56 69  2  0  0  0
 57 58  2  0  0  0
 57129  1  0  0  0
 58130  1  0  0  0
 59 60  1  0  0  0
 59 61  1  0  0  0
 59 62  1  0  0  0
 60131  1  0  0  0
 60132  1  0  0  0
 60133  1  0  0  0
 61134  1  0  0  0
 61135  1  0  0  0
 61136  1  0  0  0
 62137  1  0  0  0
 62138  1  0  0  0
 62139  1  0  0  0
 63 65  1  0  0  0
 63140  1  0  0  0
 63141  1  0  0  0
 63142  1  0  0  0
 64143  1  0  0  0
 65144  1  0  0  0
 68 82  1  0  0  0
 71 72  2  0  0  0
 71 73  1  0  0  0
 71145  1  0  0  0
 72 75  1  0  0  0
 72146  1  0  0  0
 73 76  2  0  0  0
 73147  1  0  0  0
 74 75  2  0  0  0
 74 76  1  0  0  0
 74148  1  0  0  0
 75 80  1  0  0  0
 76 85  1  0  0  0
 77 78  1  0  0  0
 77 79  1  0  0  0
 77149  1  0  0  0
 77150  1  0  0  0
 78 79  1  0  0  0
 78151  1  0  0  0
 78152  1  0  0  0
 79 84  1  0  0  0
 79153  1  0  0  0
 80 84  1  0  0  0
 80154  1  0  0  0
 80155  1  0  0  0
 81 82  1  0  0  0
 81 83  1  0  0  0
 81156  1  0  0  0
 81157  1  0  0  0
 82158  1  0  0  0
 82159  1  0  0  0
 83 85  1  0  0  0
 83160  1  0  0  0
 83161  1  0  0  0
M  ISO  4   1 100  68 101  82 101  84 100
M  END
> <chiral flag>
0

> <version>
0

> <s_m_source_file>
/data/baiqing/PycharmProjects/Reinvent-master-3.2/result/LINK_invent/BTK/process_docking_weight1_custom_product_contain_oxygen_bond_distance_aromatic_linkinvent_7_9_3/rearranged_h_0103.sdf

> <i_m_source_file_index>
58

> <r_mmod_Potential_Energy-OPLS-2005>
198.186294555664

> <r_mmod_Stretch_Energy-OPLS-2005>
54.6394577026367

> <r_mmod_Bend_Energy-OPLS-2005>
141.628509521484

> <r_mmod_Torsional_Energy-OPLS-2005>
308.921173095703

> <r_mmod_Improper_Torsional_Energy-OPLS-2005>
3.11941504478455

> <r_mmod_Van_der_Waal_Energy-OPLS-2005>
179.718826293945

> <r_mmod_Electrostatic_Energy-OPLS-2005>
-315.564544677734

> <r_mmod_Solvation_Energy-OPLS-2005>
-200.438095092773

> <b_mmod_Minimization_Converged-OPLS-2005>
0

> <r_mmod_RMS_Derivative-OPLS-2005>
3.7162184715271

$$$$
58
                    3D
 Structure written by MMmdl.
164173  0  0  1  0            999 V2000
  -30.7443  -14.6542   20.4782 C   0  0  0  0  0  0
  -30.4122  -12.4198   19.4411 C   0  0  0  0  0  0
  -29.4916  -12.5071   18.2089 C   0  0  0  0  0  0
  -28.0215  -12.3480   18.6384 C   0  0  0  0  0  0
  -27.6445  -13.2445   19.8484 C   0  0  2  0  0  0
  -28.7008  -13.1976   20.9752 C   0  0  0  0  0  0
  -25.2538  -13.8253   20.5774 C   0  0  0  0  0  0
  -24.1825  -13.0473   20.9277 C   0  0  0  0  0  0
  -24.6414  -11.6946   20.8756 C   0  0  0  0  0  0
  -23.9091  -10.4308   21.0403 C   0  0  0  0  0  0
  -24.3627   -9.4217   21.9184 C   0  0  0  0  0  0
  -23.6321   -8.2247   22.0753 C   0  0  0  0  0  0
  -22.4299   -8.0288   21.3557 C   0  0  0  0  0  0
  -21.9929   -9.0263   20.4643 C   0  0  0  0  0  0
  -22.7253  -10.2152   20.3054 C   0  0  0  0  0  0
  -21.6852   -6.0736   22.5272 C   0  0  0  0  0  0
  -21.3982   -6.5642   23.8200 C   0  0  0  0  0  0
  -21.3644   -5.6804   24.9166 C   0  0  0  0  0  0
  -21.6044   -4.3070   24.7218 C   0  0  0  0  0  0
  -21.8832   -3.8155   23.4341 C   0  0  0  0  0  0
  -21.9206   -4.6963   22.3395 C   0  0  0  0  0  0
  -22.7830  -13.5258   21.1921 C   0  0  0  0  0  0
  -22.1685   -4.2146   21.0978 F   0  0  0  0  0  0
  -21.5648   -3.4538   25.7736 F   0  0  0  0  0  0
  -30.0030  -13.5022   20.3677 N   0  0  0  0  0  0
  -26.2990  -12.9475   20.3334 N   0  0  0  0  0  0
  -25.9368  -11.6590   20.5781 N   0  0  0  0  0  0
  -22.0443  -12.8228   22.0420 N   0  0  0  0  0  0
  -25.4333  -15.1964   20.4238 N   0  0  0  0  0  0
  -31.9368  -14.6050   20.1740 O   0  0  0  0  0  0
  -21.6651   -6.8889   21.4245 O   0  0  0  0  0  0
  -22.3517  -14.5565   20.6756 O   0  0  0  0  0  0
  -24.6414  -31.8452   23.1913 C   0  0  0  0  0  0
  -25.9269  -32.4660   23.8244 C   0  0  1  0  0  0
  -27.2458  -27.2738   20.0825 C   0  0  0  0  0  0
  -25.6156  -33.8479   24.2213 N   0  0  0  0  0  0
  -23.4287  -30.4559   21.5338 C   0  0  2  0  0  0
  -24.8757  -28.9018   20.0834 C   0  0  0  0  0  0
  -22.7519  -29.4461   22.4903 C   0  0  0  0  0  0
  -18.0269  -28.1368   22.8481 C   0  0  0  0  0  0
  -24.1496  -36.7195   23.2616 C   0  0  0  0  0  0
  -25.9701  -30.7448   21.3664 C   0  0  0  0  0  0
  -26.0305  -29.3665   20.7195 C   0  0  0  0  0  0
  -27.2065  -28.5532   20.7220 C   0  0  0  0  0  0
  -26.0878  -26.8938   19.3722 C   0  0  0  0  0  0
  -24.9125  -27.6771   19.3880 C   0  0  0  0  0  0
  -23.6371  -29.7773   20.1499 C   0  0  0  0  0  0
  -25.4124  -36.2965   24.0312 C   0  0  1  0  0  0
  -20.5877  -28.3640   23.1320 C   0  0  2  0  0  0
  -20.6751  -26.9366   22.5436 C   0  0  0  0  0  0
  -19.5749  -26.6369   21.5214 C   0  0  0  0  0  0
  -18.1914  -26.7899   22.1607 C   0  0  0  0  0  0
  -19.1534  -28.8833   23.2867 C   0  0  0  0  0  0
  -18.9435  -30.1432   23.8860 C   0  0  0  0  0  0
  -17.6438  -30.6569   24.0521 C   0  0  0  0  0  0
  -25.9109  -34.9372   23.5008 C   0  0  0  0  0  0
  -16.5327  -29.9048   23.6338 C   0  0  0  0  0  0
  -16.7261  -28.6476   23.0373 C   0  0  0  0  0  0
  -26.4624  -31.6508   25.0651 C   0  0  0  0  0  0
  -25.3871  -31.3718   26.1397 C   0  0  0  0  0  0
  -27.0460  -30.2931   24.6080 C   0  0  0  0  0  0
  -27.6131  -32.4241   25.7550 C   0  0  0  0  0  0
  -27.5535  -37.1747   24.8498 C   0  0  0  0  0  0
  -21.4222  -29.2972   22.3719 N   0  0  0  0  0  0
  -26.4235  -37.3712   23.9443 N   0  0  0  0  0  0
  -24.6979  -31.0383   22.0856 N   0  0  0  0  0  0
  -23.4263  -28.8019   23.2996 O   0  0  0  0  0  0
  -28.3936  -26.4639   20.2154 O   0  0  0  0  0  0
  -26.5530  -34.8908   22.4477 O   0  0  0  0  0  0
  -23.5576  -32.1297   23.7225 O   0  0  0  0  0  0
  -31.1539  -19.4686   20.1162 C   0  0  0  0  0  0
  -30.7992  -20.8160   19.8506 C   0  0  0  0  0  0
  -28.5614  -20.3280   20.5741 C   0  0  0  0  0  0
  -30.2331  -18.4866   20.5865 C   0  0  0  0  0  0
  -29.4774  -21.2759   20.0384 C   0  0  0  0  0  0
  -28.9121  -18.9592   20.8554 C   0  0  0  0  0  0
  -28.5560  -22.3537   18.1811 C   0  0  0  0  0  0
  -30.7927  -17.0728   20.8952 C   0  0  0  0  0  0
  -27.1550  -22.9180   18.0468 C   0  0  0  0  0  0
  -26.8639  -23.3494   19.4924 C   0  0  0  0  0  0
  -28.2516  -23.6729   20.0535 C   0  0  2  0  0  0
  -27.8262  -18.3296   23.7194 C   0  0  0  0  0  0
  -28.7085  -25.1536   19.5683 C   0  0  0  0  0  0
  -27.1112  -18.5260   22.3811 C   0  0  0  0  0  0
  -29.0412  -22.5375   19.4273 N   0  0  0  0  0  0
  -30.1272  -15.8799   20.6642 N   0  0  0  0  0  0
  -29.1220  -21.7629   17.2533 O   0  0  0  0  0  0
  -31.9527  -17.0785   21.3280 O   0  0  0  0  0  0
  -27.9744  -18.0723   21.3345 O   0  0  0  0  0  0
  -31.4554  -12.4913   19.1203 H   0  0  0  0  0  0
  -30.3210  -11.4483   19.9264 H   0  0  0  0  0  0
  -29.7527  -11.7291   17.4898 H   0  0  0  0  0  0
  -29.6351  -13.4632   17.6997 H   0  0  0  0  0  0
  -27.8693  -11.3009   18.8976 H   0  0  0  0  0  0
  -27.3571  -12.5527   17.8004 H   0  0  0  0  0  0
  -27.6357  -14.2650   19.4667 H   0  0  0  0  0  0
  -28.7235  -12.2194   21.4560 H   0  0  0  0  0  0
  -28.4577  -13.9243   21.7538 H   0  0  0  0  0  0
  -25.2750   -9.5691   22.4770 H   0  0  0  0  0  0
  -24.0022   -7.4626   22.7447 H   0  0  0  0  0  0
  -21.0876   -8.8782   19.8933 H   0  0  0  0  0  0
  -22.3714  -10.9699   19.6166 H   0  0  0  0  0  0
  -21.1925   -7.6134   23.9692 H   0  0  0  0  0  0
  -21.1463   -6.0520   25.9069 H   0  0  0  0  0  0
  -22.0619   -2.7615   23.2831 H   0  0  0  0  0  0
  -22.4067  -11.9877   22.4784 H   0  0  0  0  0  0
  -21.1053  -13.1238   22.2602 H   0  0  0  0  0  0
  -24.6799  -15.8645   20.5293 H   0  0  0  0  0  0
  -26.3052  -15.6211   20.1371 H   0  0  0  0  0  0
  -26.7281  -32.5255   23.0930 H   0  0  0  0  0  0
  -25.0859  -33.9650   25.0708 H   0  0  0  0  0  0
  -22.7285  -31.2782   21.3870 H   0  0  0  0  0  0
  -23.3756  -35.9515   23.3276 H   0  0  0  0  0  0
  -24.3604  -36.8795   22.2028 H   0  0  0  0  0  0
  -23.7278  -37.6415   23.6632 H   0  0  0  0  0  0
  -26.1033  -31.4802   20.5743 H   0  0  0  0  0  0
  -26.8598  -30.8056   21.9831 H   0  0  0  0  0  0
  -28.0903  -28.8957   21.2326 H   0  0  0  0  0  0
  -26.0738  -25.9999   18.7731 H   0  0  0  0  0  0
  -24.0561  -27.3469   18.8142 H   0  0  0  0  0  0
  -23.7316  -30.5457   19.3843 H   0  0  0  0  0  0
  -22.7601  -29.1907   19.8622 H   0  0  0  0  0  0
  -25.1285  -36.1709   25.0789 H   0  0  0  0  0  0
  -20.9942  -28.3140   24.1453 H   0  0  0  0  0  0
  -20.5652  -26.2214   23.3607 H   0  0  0  0  0  0
  -21.6603  -26.7378   22.1219 H   0  0  0  0  0  0
  -19.6910  -25.6282   21.1238 H   0  0  0  0  0  0
  -19.6717  -27.3155   20.6725 H   0  0  0  0  0  0
  -17.4209  -26.6668   21.3980 H   0  0  0  0  0  0
  -18.0260  -26.0014   22.8962 H   0  0  0  0  0  0
  -19.7934  -30.7242   24.2208 H   0  0  0  0  0  0
  -17.5023  -31.6267   24.5081 H   0  0  0  0  0  0
  -15.5333  -30.2938   23.7739 H   0  0  0  0  0  0
  -15.8664  -28.0809   22.7126 H   0  0  0  0  0  0
  -24.6151  -30.6875   25.7860 H   0  0  0  0  0  0
  -24.8981  -32.2906   26.4638 H   0  0  0  0  0  0
  -25.8301  -30.9188   27.0273 H   0  0  0  0  0  0
  -26.2974  -29.6668   24.1216 H   0  0  0  0  0  0
  -27.4275  -29.7191   25.4534 H   0  0  0  0  0  0
  -27.8808  -30.4235   23.9196 H   0  0  0  0  0  0
  -27.2690  -33.3595   26.1996 H   0  0  0  0  0  0
  -28.4144  -32.6654   25.0553 H   0  0  0  0  0  0
  -28.0528  -31.8420   26.5672 H   0  0  0  0  0  0
  -28.2523  -38.0063   24.7494 H   0  0  0  0  0  0
  -28.1042  -36.2582   24.6319 H   0  0  0  0  0  0
  -27.2283  -37.1373   25.8913 H   0  0  0  0  0  0
  -20.9409  -29.8772   21.7000 H   0  0  0  0  0  0
  -26.0068  -38.2736   24.1478 H   0  0  0  0  0  0
  -32.1763  -19.1779   19.9305 H   0  0  0  0  0  0
  -31.5431  -21.4822   19.4312 H   0  0  0  0  0  0
  -27.5370  -20.6465   20.6831 H   0  0  0  0  0  0
  -26.4521  -22.1612   17.6949 H   0  0  0  0  0  0
  -27.1629  -23.7396   17.3294 H   0  0  0  0  0  0
  -26.4372  -22.5145   20.0471 H   0  0  0  0  0  0
  -26.1502  -24.1563   19.5843 H   0  0  0  0  0  0
  -28.2605  -23.5975   21.1451 H   0  0  0  0  0  0
  -27.1509  -18.5158   24.5560 H   0  0  0  0  0  0
  -28.6737  -19.0086   23.8130 H   0  0  0  0  0  0
  -28.1985  -17.3082   23.8050 H   0  0  0  0  0  0
  -28.6188  -25.2554   18.4847 H   0  0  0  0  0  0
  -29.7881  -25.1188   19.7146 H   0  0  0  0  0  0
  -26.7773  -19.5590   22.2904 H   0  0  0  0  0  0
  -26.1994  -17.9286   22.3578 H   0  0  0  0  0  0
  -29.1290  -15.9271   20.5527 H   0  0  0  0  0  0
  1 25  1  0  0  0
  1 30  2  0  0  0
  1 86  1  0  0  0
  2  3  1  0  0  0
  2 25  1  0  0  0
  2 90  1  0  0  0
  2 91  1  0  0  0
  3  4  1  0  0  0
  3 92  1  0  0  0
  3 93  1  0  0  0
  4  5  1  0  0  0
  4 94  1  0  0  0
  4 95  1  0  0  0
  5  6  1  0  0  0
  5 26  1  0  0  0
  5 96  1  0  0  0
  6 25  1  0  0  0
  6 97  1  0  0  0
  6 98  1  0  0  0
  7  8  2  0  0  0
  7 26  1  0  0  0
  7 29  1  0  0  0
  8  9  1  0  0  0
  8 22  1  0  0  0
  9 10  1  0  0  0
  9 27  2  0  0  0
 10 11  2  0  0  0
 10 15  1  0  0  0
 11 12  1  0  0  0
 11 99  1  0  0  0
 12 13  2  0  0  0
 12100  1  0  0  0
 13 14  1  0  0  0
 13 31  1  0  0  0
 14 15  2  0  0  0
 14101  1  0  0  0
 15102  1  0  0  0
 16 17  2  0  0  0
 16 21  1  0  0  0
 16 31  1  0  0  0
 17 18  1  0  0  0
 17103  1  0  0  0
 18 19  2  0  0  0
 18104  1  0  0  0
 19 20  1  0  0  0
 19 24  1  0  0  0
 20 21  2  0  0  0
 20105  1  0  0  0
 21 23  1  0  0  0
 22 28  1  0  0  0
 22 32  2  0  0  0
 26 27  1  0  0  0
 28106  1  0  0  0
 28107  1  0  0  0
 29108  1  0  0  0
 29109  1  0  0  0
 33 34  1  0  0  0
 33 66  1  0  0  0
 33 70  2  0  0  0
 34 36  1  0  0  0
 34 59  1  0  0  0
 34110  1  0  0  0
 35 44  2  0  0  0
 35 45  1  0  0  0
 35 68  1  0  0  0
 36 56  1  0  0  0
 36111  1  0  0  0
 37 39  1  0  0  0
 37 47  1  0  0  0
 37 66  1  0  0  0
 37112  1  0  0  0
 38 43  2  0  0  0
 38 46  1  0  0  0
 38 47  1  0  0  0
 39 64  1  0  0  0
 39 67  2  0  0  0
 40 52  1  0  0  0
 40 53  2  0  0  0
 40 58  1  0  0  0
 41113  1  0  0  0
 41114  1  0  0  0
 41115  1  0  0  0
 41 48  1  0  0  0
 42 43  1  0  0  0
 42 66  1  0  0  0
 42116  1  0  0  0
 42117  1  0  0  0
 43 44  1  0  0  0
 44118  1  0  0  0
 45 46  2  0  0  0
 45119  1  0  0  0
 46120  1  0  0  0
 47121  1  0  0  0
 47122  1  0  0  0
 48 56  1  0  0  0
 48 65  1  0  0  0
 48123  1  0  0  0
 49 50  1  0  0  0
 49 53  1  0  0  0
 49 64  1  0  0  0
 49124  1  0  0  0
 50 51  1  0  0  0
 50125  1  0  0  0
 50126  1  0  0  0
 51 52  1  0  0  0
 51127  1  0  0  0
 51128  1  0  0  0
 52129  1  0  0  0
 52130  1  0  0  0
 53 54  1  0  0  0
 54 55  2  0  0  0
 54131  1  0  0  0
 55 57  1  0  0  0
 55132  1  0  0  0
 56 69  2  0  0  0
 57 58  2  0  0  0
 57133  1  0  0  0
 58134  1  0  0  0
 59 60  1  0  0  0
 59 61  1  0  0  0
 59 62  1  0  0  0
 60135  1  0  0  0
 60136  1  0  0  0
 60137  1  0  0  0
 61138  1  0  0  0
 61139  1  0  0  0
 61140  1  0  0  0
 62141  1  0  0  0
 62142  1  0  0  0
 62143  1  0  0  0
 63 65  1  0  0  0
 63144  1  0  0  0
 63145  1  0  0  0
 63146  1  0  0  0
 64147  1  0  0  0
 65148  1  0  0  0
 68 83  1  0  0  0
 71 72  2  0  0  0
 71 74  1  0  0  0
 71149  1  0  0  0
 72 75  1  0  0  0
 72150  1  0  0  0
 73 75  2  0  0  0
 73 76  1  0  0  0
 73151  1  0  0  0
 74 76  2  0  0  0
 74 78  1  0  0  0
 75 85  1  0  0  0
 76 89  1  0  0  0
 77 79  1  0  0  0
 77 85  1  0  0  0
 77 87  2  0  0  0
 78 86  1  0  0  0
 78 88  2  0  0  0
 79 80  1  0  0  0
 79152  1  0  0  0
 79153  1  0  0  0
 80 81  1  0  0  0
 80154  1  0  0  0
 80155  1  0  0  0
 81 83  1  0  0  0
 81 85  1  0  0  0
 81156  1  0  0  0
 82 84  1  0  0  0
 82157  1  0  0  0
 82158  1  0  0  0
 82159  1  0  0  0
 83160  1  0  0  0
 83161  1  0  0  0
 84 89  1  0  0  0
 84162  1  0  0  0
 84163  1  0  0  0
 86164  1  0  0  0
M  ISO  4   1 100  68 101  83 101  86 100
M  END
> <chiral flag>
0

> <version>
0

> <s_m_source_file>
/data/baiqing/PycharmProjects/Reinvent-master-3.2/result/LINK_invent/BTK/process_docking_weight1_custom_product_contain_oxygen_bond_distance_aromatic_linkinvent_7_9_3/rearranged_h_0103.sdf

> <i_m_source_file_index>
59

> <r_mmod_Potential_Energy-OPLS-2005>
308.183776855469

> <r_mmod_Stretch_Energy-OPLS-2005>
101.550849914551

> <r_mmod_Bend_Energy-OPLS-2005>
255.565795898438

> <r_mmod_Torsional_Energy-OPLS-2005>
345.418975830078

> <r_mmod_Improper_Torsional_Energy-OPLS-2005>
11.5054941177368

> <r_mmod_Van_der_Waal_Energy-OPLS-2005>
148.995025634766

> <r_mmod_Electrostatic_Energy-OPLS-2005>
-396.069396972656

> <r_mmod_Solvation_Energy-OPLS-2005>
-233.235565185547

> <b_mmod_Minimization_Converged-OPLS-2005>
0

> <r_mmod_RMS_Derivative-OPLS-2005>
7.05931091308594

$$$$
59
                    3D
 Structure written by MMmdl.
166175  0  0  1  0            999 V2000
  -30.6316  -14.7082   20.3479 C   0  0  0  0  0  0
  -30.4292  -12.4091   19.4411 C   0  0  0  0  0  0
  -29.4876  -12.4102   18.2178 C   0  0  0  0  0  0
  -28.0160  -12.2763   18.6523 C   0  0  0  0  0  0
  -27.6354  -13.2069   19.8356 C   0  0  2  0  0  0
  -28.6953  -13.1772   20.9521 C   0  0  0  0  0  0
  -25.2544  -13.8162   20.5747 C   0  0  0  0  0  0
  -24.1790  -13.0459   20.9182 C   0  0  0  0  0  0
  -24.6326  -11.6911   20.8762 C   0  0  0  0  0  0
  -23.9020  -10.4303   21.0447 C   0  0  0  0  0  0
  -24.3584   -9.4208   21.9217 C   0  0  0  0  0  0
  -23.6268   -8.2238   22.0774 C   0  0  0  0  0  0
  -22.4262   -8.0268   21.3555 C   0  0  0  0  0  0
  -21.9893   -9.0244   20.4661 C   0  0  0  0  0  0
  -22.7205  -10.2137   20.3079 C   0  0  0  0  0  0
  -21.6830   -6.0731   22.5281 C   0  0  0  0  0  0
  -21.3999   -6.5640   23.8209 C   0  0  0  0  0  0
  -21.3655   -5.6795   24.9178 C   0  0  0  0  0  0
  -21.6036   -4.3058   24.7218 C   0  0  0  0  0  0
  -21.8820   -3.8155   23.4344 C   0  0  0  0  0  0
  -21.9189   -4.6970   22.3407 C   0  0  0  0  0  0
  -22.7822  -13.5269   21.1831 C   0  0  0  0  0  0
  -22.1659   -4.2164   21.0974 F   0  0  0  0  0  0
  -21.5639   -3.4537   25.7734 F   0  0  0  0  0  0
  -29.9820  -13.5008   20.3250 N   0  0  0  0  0  0
  -26.2921  -12.9306   20.3324 N   0  0  0  0  0  0
  -25.9255  -11.6489   20.5817 N   0  0  0  0  0  0
  -22.0437  -12.8263   22.0365 N   0  0  0  0  0  0
  -25.4341  -15.1885   20.4267 N   0  0  0  0  0  0
  -31.8665  -14.7280   20.3692 O   0  0  0  0  0  0
  -21.6619   -6.8883   21.4246 O   0  0  0  0  0  0
  -22.3509  -14.5565   20.6652 O   0  0  0  0  0  0
  -24.6260  -31.8571   23.2001 C   0  0  0  0  0  0
  -25.9100  -32.4772   23.8332 C   0  0  1  0  0  0
  -27.2250  -27.3010   20.1267 C   0  0  0  0  0  0
  -25.5930  -33.8574   24.2260 N   0  0  0  0  0  0
  -23.4192  -30.4739   21.5455 C   0  0  2  0  0  0
  -24.8674  -28.9241   20.1097 C   0  0  0  0  0  0
  -22.7461  -29.4572   22.4982 C   0  0  0  0  0  0
  -18.0276  -28.1364   22.8505 C   0  0  0  0  0  0
  -24.1474  -36.7282   23.2641 C   0  0  0  0  0  0
  -25.9580  -30.7848   21.3663 C   0  0  0  0  0  0
  -26.0330  -29.4065   20.7174 C   0  0  0  0  0  0
  -27.2117  -28.6050   20.7154 C   0  0  0  0  0  0
  -26.0349  -26.8658   19.5014 C   0  0  0  0  0  0
  -24.8739  -27.6632   19.4896 C   0  0  0  0  0  0
  -23.6308  -29.8011   20.1617 C   0  0  0  0  0  0
  -25.4108  -36.3082   24.0329 C   0  0  1  0  0  0
  -20.5876  -28.3633   23.1343 C   0  0  2  0  0  0
  -20.6749  -26.9360   22.5433 C   0  0  0  0  0  0
  -19.5726  -26.6357   21.5221 C   0  0  0  0  0  0
  -18.1909  -26.7922   22.1627 C   0  0  0  0  0  0
  -19.1529  -28.8821   23.2911 C   0  0  0  0  0  0
  -18.9445  -30.1441   23.8893 C   0  0  0  0  0  0
  -17.6441  -30.6574   24.0545 C   0  0  0  0  0  0
  -25.9045  -34.9456   23.5089 C   0  0  0  0  0  0
  -16.5336  -29.9057   23.6343 C   0  0  0  0  0  0
  -16.7262  -28.6479   23.0367 C   0  0  0  0  0  0
  -26.4479  -31.6617   25.0720 C   0  0  0  0  0  0
  -25.3700  -31.3734   26.1432 C   0  0  0  0  0  0
  -27.0342  -30.3081   24.6132 C   0  0  0  0  0  0
  -27.6047  -32.4345   25.7488 C   0  0  0  0  0  0
  -27.5579  -37.1782   24.8466 C   0  0  0  0  0  0
  -21.4178  -29.2995   22.3752 N   0  0  0  0  0  0
  -26.4279  -37.3788   23.9431 N   0  0  0  0  0  0
  -24.6882  -31.0555   22.0947 N   0  0  0  0  0  0
  -23.4195  -28.8106   23.3038 O   0  0  0  0  0  0
  -28.3703  -26.4936   20.1963 O   0  0  0  0  0  0
  -26.5599  -34.8925   22.4641 O   0  0  0  0  0  0
  -23.5431  -32.1369   23.7329 O   0  0  0  0  0  0
  -29.9241  -19.2296   21.2776 C   0  0  0  0  0  0
  -30.2537  -17.8574   21.0229 C   0  0  0  0  0  0
  -28.1360  -19.0988   19.6882 C   0  0  0  0  0  0
  -28.4565  -17.7350   19.4202 C   0  0  0  0  0  0
  -28.8589  -19.8975   20.6082 C   0  0  0  0  0  0
  -29.5417  -17.0588   20.0811 C   0  0  0  0  0  0
  -27.4459  -21.3088   21.9446 C   0  0  0  0  0  0
  -28.8209  -22.4209   20.3261 C   0  0  0  0  0  0
  -26.7299  -22.6192   22.3081 C   0  0  0  0  0  0
  -26.8939  -23.7295   21.2649 C   0  0  0  0  0  0
  -28.3518  -23.8781   20.8119 C   0  0  1  0  0  0
  -27.5953  -17.0636   18.3602 C   0  0  0  0  0  0
  -29.2674  -24.2799   21.9937 C   0  0  0  0  0  0
  -30.5637  -15.8331   18.2594 C   0  0  0  0  0  0
  -28.4405  -25.0775   19.7442 C   0  0  0  0  0  0
  -28.3933  -21.2572   20.9604 N   0  0  0  0  0  0
  -30.0116  -15.7280   19.6306 N   0  0  0  0  0  0
  -27.1240  -20.3136   22.6082 O   0  0  0  0  0  0
  -29.5975  -22.3628   19.3657 O   0  0  0  0  0  0
  -31.4620  -12.5401   19.1123 H   0  0  0  0  0  0
  -30.3934  -11.4533   19.9665 H   0  0  0  0  0  0
  -29.7490  -11.5906   17.5465 H   0  0  0  0  0  0
  -29.6081  -13.3194   17.6338 H   0  0  0  0  0  0
  -27.8623  -11.2366   18.9406 H   0  0  0  0  0  0
  -27.3532  -12.4523   17.8039 H   0  0  0  0  0  0
  -27.6192  -14.2128   19.4317 H   0  0  0  0  0  0
  -28.7343  -12.1957   21.4267 H   0  0  0  0  0  0
  -28.4505  -13.9014   21.7322 H   0  0  0  0  0  0
  -25.2735   -9.5678   22.4786 H   0  0  0  0  0  0
  -23.9982   -7.4633   22.7472 H   0  0  0  0  0  0
  -21.0850   -8.8740   19.8946 H   0  0  0  0  0  0
  -22.3666  -10.9668   19.6185 H   0  0  0  0  0  0
  -21.1963   -7.6142   23.9720 H   0  0  0  0  0  0
  -21.1481   -6.0519   25.9077 H   0  0  0  0  0  0
  -22.0600   -2.7611   23.2827 H   0  0  0  0  0  0
  -22.4036  -11.9923   22.4754 H   0  0  0  0  0  0
  -21.1056  -13.1307   22.2541 H   0  0  0  0  0  0
  -24.6844  -15.8541   20.5753 H   0  0  0  0  0  0
  -26.3183  -15.6317   20.2144 H   0  0  0  0  0  0
  -26.7163  -32.5421   23.1075 H   0  0  0  0  0  0
  -25.0158  -33.9719   25.0466 H   0  0  0  0  0  0
  -22.7160  -31.2968   21.4013 H   0  0  0  0  0  0
  -23.3758  -35.9587   23.3283 H   0  0  0  0  0  0
  -24.3592  -36.8919   22.2060 H   0  0  0  0  0  0
  -23.7183  -37.6461   23.6676 H   0  0  0  0  0  0
  -26.0834  -31.5404   20.5892 H   0  0  0  0  0  0
  -26.8409  -30.8459   21.9915 H   0  0  0  0  0  0
  -28.1094  -28.9672   21.1994 H   0  0  0  0  0  0
  -25.9639  -25.8996   19.0295 H   0  0  0  0  0  0
  -23.9808  -27.2941   19.0063 H   0  0  0  0  0  0
  -23.7362  -30.5724   19.3984 H   0  0  0  0  0  0
  -22.7531  -29.2219   19.8694 H   0  0  0  0  0  0
  -25.1278  -36.1929   25.0818 H   0  0  0  0  0  0
  -20.9960  -28.3154   24.1468 H   0  0  0  0  0  0
  -20.5654  -26.2197   23.3596 H   0  0  0  0  0  0
  -21.6611  -26.7391   22.1207 H   0  0  0  0  0  0
  -19.6871  -25.6268   21.1240 H   0  0  0  0  0  0
  -19.6694  -27.3166   20.6750 H   0  0  0  0  0  0
  -17.4184  -26.6709   21.4015 H   0  0  0  0  0  0
  -18.0284  -26.0050   22.8997 H   0  0  0  0  0  0
  -19.7915  -30.7267   24.2256 H   0  0  0  0  0  0
  -17.4986  -31.6266   24.5109 H   0  0  0  0  0  0
  -15.5337  -30.2924   23.7687 H   0  0  0  0  0  0
  -15.8674  -28.0785   22.7090 H   0  0  0  0  0  0
  -24.5916  -30.7039   25.7757 H   0  0  0  0  0  0
  -24.8815  -32.2858   26.4843 H   0  0  0  0  0  0
  -25.7994  -30.8945   27.0227 H   0  0  0  0  0  0
  -26.2920  -29.6850   24.1121 H   0  0  0  0  0  0
  -27.4075  -29.7331   25.4610 H   0  0  0  0  0  0
  -27.8749  -30.4464   23.9336 H   0  0  0  0  0  0
  -27.2718  -33.3698   26.1998 H   0  0  0  0  0  0
  -28.3873  -32.6802   25.0302 H   0  0  0  0  0  0
  -28.0667  -31.8490   26.5444 H   0  0  0  0  0  0
  -28.2555  -38.0123   24.7588 H   0  0  0  0  0  0
  -28.1111  -36.2659   24.6186 H   0  0  0  0  0  0
  -27.2318  -37.1288   25.8871 H   0  0  0  0  0  0
  -20.9361  -29.8770   21.7022 H   0  0  0  0  0  0
  -26.0160  -38.2852   24.1478 H   0  0  0  0  0  0
  -30.5011  -19.7651   22.0179 H   0  0  0  0  0  0
  -31.1112  -17.4412   21.5349 H   0  0  0  0  0  0
  -27.2943  -19.5452   19.1766 H   0  0  0  0  0  0
  -27.1089  -22.9468   23.2764 H   0  0  0  0  0  0
  -25.6665  -22.4172   22.4457 H   0  0  0  0  0  0
  -26.5108  -24.6680   21.6677 H   0  0  0  0  0  0
  -26.2651  -23.5014   20.4017 H   0  0  0  0  0  0
  -26.5348  -17.2423   18.5444 H   0  0  0  0  0  0
  -27.7393  -15.9906   18.3055 H   0  0  0  0  0  0
  -27.8330  -17.4810   17.3809 H   0  0  0  0  0  0
  -29.4422  -23.4647   22.6957 H   0  0  0  0  0  0
  -28.8461  -25.1077   22.5633 H   0  0  0  0  0  0
  -30.2468  -24.5984   21.6344 H   0  0  0  0  0  0
  -31.2676  -16.6650   18.2049 H   0  0  0  0  0  0
  -29.7981  -16.0030   17.5069 H   0  0  0  0  0  0
  -31.1109  -14.9507   17.9235 H   0  0  0  0  0  0
  -27.7848  -24.8831   18.8987 H   0  0  0  0  0  0
  -29.4334  -25.0125   19.2977 H   0  0  0  0  0  0
  1 25  1  0  0  0
  1 30  2  0  0  0
  1 87  1  0  0  0
  2  3  1  0  0  0
  2 25  1  0  0  0
  2 90  1  0  0  0
  2 91  1  0  0  0
  3  4  1  0  0  0
  3 92  1  0  0  0
  3 93  1  0  0  0
  4  5  1  0  0  0
  4 94  1  0  0  0
  4 95  1  0  0  0
  5  6  1  0  0  0
  5 26  1  0  0  0
  5 96  1  0  0  0
  6 25  1  0  0  0
  6 97  1  0  0  0
  6 98  1  0  0  0
  7  8  2  0  0  0
  7 26  1  0  0  0
  7 29  1  0  0  0
  8  9  1  0  0  0
  8 22  1  0  0  0
  9 10  1  0  0  0
  9 27  2  0  0  0
 10 11  2  0  0  0
 10 15  1  0  0  0
 11 12  1  0  0  0
 11 99  1  0  0  0
 12 13  2  0  0  0
 12100  1  0  0  0
 13 14  1  0  0  0
 13 31  1  0  0  0
 14 15  2  0  0  0
 14101  1  0  0  0
 15102  1  0  0  0
 16 17  2  0  0  0
 16 21  1  0  0  0
 16 31  1  0  0  0
 17 18  1  0  0  0
 17103  1  0  0  0
 18 19  2  0  0  0
 18104  1  0  0  0
 19 20  1  0  0  0
 19 24  1  0  0  0
 20 21  2  0  0  0
 20105  1  0  0  0
 21 23  1  0  0  0
 22 28  1  0  0  0
 22 32  2  0  0  0
 26 27  1  0  0  0
 28106  1  0  0  0
 28107  1  0  0  0
 29108  1  0  0  0
 29109  1  0  0  0
 33 34  1  0  0  0
 33 66  1  0  0  0
 33 70  2  0  0  0
 34 36  1  0  0  0
 34 59  1  0  0  0
 34110  1  0  0  0
 35 44  2  0  0  0
 35 45  1  0  0  0
 35 68  1  0  0  0
 36 56  1  0  0  0
 36111  1  0  0  0
 37 39  1  0  0  0
 37 47  1  0  0  0
 37 66  1  0  0  0
 37112  1  0  0  0
 38 43  2  0  0  0
 38 46  1  0  0  0
 38 47  1  0  0  0
 39 64  1  0  0  0
 39 67  2  0  0  0
 40 52  1  0  0  0
 40 53  2  0  0  0
 40 58  1  0  0  0
 41113  1  0  0  0
 41114  1  0  0  0
 41115  1  0  0  0
 41 48  1  0  0  0
 42 43  1  0  0  0
 42 66  1  0  0  0
 42116  1  0  0  0
 42117  1  0  0  0
 43 44  1  0  0  0
 44118  1  0  0  0
 45 46  2  0  0  0
 45119  1  0  0  0
 46120  1  0  0  0
 47121  1  0  0  0
 47122  1  0  0  0
 48 56  1  0  0  0
 48 65  1  0  0  0
 48123  1  0  0  0
 49 50  1  0  0  0
 49 53  1  0  0  0
 49 64  1  0  0  0
 49124  1  0  0  0
 50 51  1  0  0  0
 50125  1  0  0  0
 50126  1  0  0  0
 51 52  1  0  0  0
 51127  1  0  0  0
 51128  1  0  0  0
 52129  1  0  0  0
 52130  1  0  0  0
 53 54  1  0  0  0
 54 55  2  0  0  0
 54131  1  0  0  0
 55 57  1  0  0  0
 55132  1  0  0  0
 56 69  2  0  0  0
 57 58  2  0  0  0
 57133  1  0  0  0
 58134  1  0  0  0
 59 60  1  0  0  0
 59 61  1  0  0  0
 59 62  1  0  0  0
 60135  1  0  0  0
 60136  1  0  0  0
 60137  1  0  0  0
 61138  1  0  0  0
 61139  1  0  0  0
 61140  1  0  0  0
 62141  1  0  0  0
 62142  1  0  0  0
 62143  1  0  0  0
 63 65  1  0  0  0
 63144  1  0  0  0
 63145  1  0  0  0
 63146  1  0  0  0
 64147  1  0  0  0
 65148  1  0  0  0
 68 85  1  0  0  0
 71 72  2  0  0  0
 71 75  1  0  0  0
 71149  1  0  0  0
 72 76  1  0  0  0
 72150  1  0  0  0
 73 74  1  0  0  0
 73 75  2  0  0  0
 73151  1  0  0  0
 74 76  2  0  0  0
 74 82  1  0  0  0
 75 86  1  0  0  0
 76 87  1  0  0  0
 77 79  1  0  0  0
 77 86  1  0  0  0
 77 88  2  0  0  0
 78 81  1  0  0  0
 78 86  1  0  0  0
 78 89  2  0  0  0
 79 80  1  0  0  0
 79152  1  0  0  0
 79153  1  0  0  0
 80 81  1  0  0  0
 80154  1  0  0  0
 80155  1  0  0  0
 81 83  1  0  0  0
 81 85  1  0  0  0
 82156  1  0  0  0
 82157  1  0  0  0
 82158  1  0  0  0
 83159  1  0  0  0
 83160  1  0  0  0
 83161  1  0  0  0
 84 87  1  0  0  0
 84162  1  0  0  0
 84163  1  0  0  0
 84164  1  0  0  0
 85165  1  0  0  0
 85166  1  0  0  0
M  ISO  4   1 100  68 101  85 101  87 100
M  END
> <chiral flag>
0

> <version>
0

> <s_m_source_file>
/data/baiqing/PycharmProjects/Reinvent-master-3.2/result/LINK_invent/BTK/process_docking_weight1_custom_product_contain_oxygen_bond_distance_aromatic_linkinvent_7_9_3/rearranged_h_0103.sdf

> <i_m_source_file_index>
60

> <r_mmod_Potential_Energy-OPLS-2005>
427.263916015625

> <r_mmod_Stretch_Energy-OPLS-2005>
107.441719055176

> <r_mmod_Bend_Energy-OPLS-2005>
182.84521484375

> <r_mmod_Torsional_Energy-OPLS-2005>
375.841613769531

> <r_mmod_Improper_Torsional_Energy-OPLS-2005>
33.4492988586426

> <r_mmod_Van_der_Waal_Energy-OPLS-2005>
156.953674316406

> <r_mmod_Electrostatic_Energy-OPLS-2005>
-297.831512451172

> <r_mmod_Solvation_Energy-OPLS-2005>
-215.363906860352

> <b_mmod_Minimization_Converged-OPLS-2005>
0

> <r_mmod_RMS_Derivative-OPLS-2005>
3.27248859405518

$$$$
60
                    3D
 Structure written by MMmdl.
160169  0  0  1  0            999 V2000
  -30.6148  -14.6367   20.5008 C   0  0  0  0  0  0
  -30.4436  -12.3881   19.4529 C   0  0  0  0  0  0
  -29.5094  -12.4985   18.2261 C   0  0  0  0  0  0
  -28.0329  -12.3331   18.6410 C   0  0  0  0  0  0
  -27.6560  -13.2082   19.8652 C   0  0  2  0  0  0
  -28.7013  -13.0580   20.9945 C   0  0  0  0  0  0
  -25.2578  -13.8157   20.5653 C   0  0  0  0  0  0
  -24.1842  -13.0441   20.9198 C   0  0  0  0  0  0
  -24.6393  -11.6907   20.8763 C   0  0  0  0  0  0
  -23.9055  -10.4295   21.0428 C   0  0  0  0  0  0
  -24.3610   -9.4204   21.9198 C   0  0  0  0  0  0
  -23.6285   -8.2238   22.0758 C   0  0  0  0  0  0
  -22.4266   -8.0281   21.3545 C   0  0  0  0  0  0
  -21.9897   -9.0263   20.4654 C   0  0  0  0  0  0
  -22.7225  -10.2147   20.3075 C   0  0  0  0  0  0
  -21.6853   -6.0735   22.5276 C   0  0  0  0  0  0
  -21.4017   -6.5635   23.8207 C   0  0  0  0  0  0
  -21.3658   -5.6791   24.9168 C   0  0  0  0  0  0
  -21.6043   -4.3052   24.7220 C   0  0  0  0  0  0
  -21.8823   -3.8141   23.4340 C   0  0  0  0  0  0
  -21.9190   -4.6961   22.3399 C   0  0  0  0  0  0
  -22.7867  -13.5247   21.1851 C   0  0  0  0  0  0
  -22.1660   -4.2141   21.0975 F   0  0  0  0  0  0
  -21.5624   -3.4539   25.7735 F   0  0  0  0  0  0
  -30.0180  -13.4048   20.4332 N   0  0  0  0  0  0
  -26.3000  -12.9320   20.3315 N   0  0  0  0  0  0
  -25.9322  -11.6489   20.5789 N   0  0  0  0  0  0
  -22.0496  -12.8265   22.0414 N   0  0  0  0  0  0
  -25.4309  -15.1866   20.3974 N   0  0  0  0  0  0
  -31.7746  -14.8147   20.1149 O   0  0  0  0  0  0
  -21.6637   -6.8878   21.4238 O   0  0  0  0  0  0
  -22.3569  -14.5556   20.6680 O   0  0  0  0  0  0
  -24.6237  -31.8600   23.2022 C   0  0  0  0  0  0
  -25.9086  -32.4785   23.8352 C   0  0  1  0  0  0
  -27.2344  -27.3312   20.1217 C   0  0  0  0  0  0
  -25.5907  -33.8581   24.2275 N   0  0  0  0  0  0
  -23.4198  -30.4806   21.5446 C   0  0  2  0  0  0
  -24.8695  -28.9346   20.1145 C   0  0  0  0  0  0
  -22.7474  -29.4609   22.4940 C   0  0  0  0  0  0
  -18.0290  -28.1387   22.8489 C   0  0  0  0  0  0
  -24.1490  -36.7301   23.2632 C   0  0  0  0  0  0
  -25.9591  -30.7934   21.3743 C   0  0  0  0  0  0
  -26.0366  -29.4202   20.7190 C   0  0  0  0  0  0
  -27.2235  -28.6305   20.7125 C   0  0  0  0  0  0
  -26.0488  -26.8959   19.4900 C   0  0  0  0  0  0
  -24.8763  -27.6761   19.4915 C   0  0  0  0  0  0
  -23.6359  -29.8132   20.1610 C   0  0  0  0  0  0
  -25.4109  -36.3084   24.0327 C   0  0  1  0  0  0
  -20.5889  -28.3691   23.1292 C   0  0  2  0  0  0
  -20.6782  -26.9415   22.5418 C   0  0  0  0  0  0
  -19.5756  -26.6389   21.5219 C   0  0  0  0  0  0
  -18.1934  -26.7929   22.1628 C   0  0  0  0  0  0
  -19.1543  -28.8854   23.2885 C   0  0  0  0  0  0
  -18.9462  -30.1457   23.8901 C   0  0  0  0  0  0
  -17.6463  -30.6590   24.0569 C   0  0  0  0  0  0
  -25.9048  -34.9456   23.5105 C   0  0  0  0  0  0
  -16.5355  -29.9091   23.6329 C   0  0  0  0  0  0
  -16.7279  -28.6511   23.0347 C   0  0  0  0  0  0
  -26.4472  -31.6591   25.0718 C   0  0  0  0  0  0
  -25.3711  -31.3773   26.1461 C   0  0  0  0  0  0
  -27.0291  -30.3000   24.6180 C   0  0  0  0  0  0
  -27.6048  -32.4322   25.7464 C   0  0  0  0  0  0
  -27.5595  -37.1779   24.8445 C   0  0  0  0  0  0
  -21.4192  -29.3038   22.3680 N   0  0  0  0  0  0
  -26.4282  -37.3785   23.9426 N   0  0  0  0  0  0
  -24.6859  -31.0614   22.0975 N   0  0  0  0  0  0
  -23.4193  -28.8157   23.3027 O   0  0  0  0  0  0
  -28.3558  -26.4907   20.1324 O   0  0  0  0  0  0
  -26.5629  -34.8920   22.4677 O   0  0  0  0  0  0
  -23.5402  -32.1393   23.7353 O   0  0  0  0  0  0
  -30.8785  -19.3165   20.2547 C   0  0  0  0  0  0
  -30.9617  -17.8970   20.3840 C   0  0  0  0  0  0
  -28.6079  -17.8389   20.8324 C   0  0  0  0  0  0
  -29.6638  -20.0533   20.4030 C   0  0  0  0  0  0
  -29.8185  -17.1152   20.6817 C   0  0  0  0  0  0
  -28.5051  -19.2644   20.6851 C   0  0  0  0  0  0
  -30.4504  -23.7747   20.3498 C   0  0  0  0  0  0
  -30.8440  -22.3014   20.0730 C   0  0  0  0  0  0
  -28.4892  -22.4303   20.3945 C   0  0  0  0  0  0
  -28.9603  -23.8824   19.9962 C   0  0  1  0  0  0
  -26.1002  -19.1551   20.7897 C   0  0  0  0  0  0
  -28.1626  -25.1099   20.6317 C   0  0  0  0  0  0
  -29.6374  -21.4968   20.2612 N   0  0  0  0  0  0
  -29.7836  -15.6628   20.8627 N   0  0  0  0  0  0
  -27.2979  -19.9206   20.8156 O   0  0  0  0  0  0
  -31.4839  -12.5181   19.1506 H   0  0  0  0  0  0
  -30.3840  -11.3925   19.8966 H   0  0  0  0  0  0
  -29.7729  -11.7430   17.4843 H   0  0  0  0  0  0
  -29.6477  -13.4661   17.7411 H   0  0  0  0  0  0
  -27.8775  -11.2807   18.8825 H   0  0  0  0  0  0
  -27.3748  -12.5512   17.7993 H   0  0  0  0  0  0
  -27.6759  -14.2423   19.5218 H   0  0  0  0  0  0
  -28.7142  -12.0338   21.3699 H   0  0  0  0  0  0
  -28.4453  -13.6805   21.8531 H   0  0  0  0  0  0
  -25.2766   -9.5669   22.4760 H   0  0  0  0  0  0
  -23.9988   -7.4635   22.7487 H   0  0  0  0  0  0
  -21.0812   -8.8801   19.8977 H   0  0  0  0  0  0
  -22.3692  -10.9693   19.6188 H   0  0  0  0  0  0
  -21.2022   -7.6149   23.9709 H   0  0  0  0  0  0
  -21.1473   -6.0521   25.9067 H   0  0  0  0  0  0
  -22.0601   -2.7601   23.2853 H   0  0  0  0  0  0
  -22.4098  -11.9932   22.4825 H   0  0  0  0  0  0
  -21.1126  -13.1337   22.2616 H   0  0  0  0  0  0
  -24.6455  -15.8252   20.4502 H   0  0  0  0  0  0
  -26.2434  -15.5936   19.9533 H   0  0  0  0  0  0
  -26.7156  -32.5458   23.1106 H   0  0  0  0  0  0
  -25.0022  -33.9730   25.0397 H   0  0  0  0  0  0
  -22.7129  -31.2999   21.4000 H   0  0  0  0  0  0
  -23.3748  -35.9635   23.3269 H   0  0  0  0  0  0
  -24.3591  -36.8943   22.2051 H   0  0  0  0  0  0
  -23.7237  -37.6494   23.6664 H   0  0  0  0  0  0
  -26.0908  -31.5569   20.6063 H   0  0  0  0  0  0
  -26.8386  -30.8417   22.0050 H   0  0  0  0  0  0
  -28.1205  -28.9997   21.1907 H   0  0  0  0  0  0
  -26.0220  -25.9363   18.9933 H   0  0  0  0  0  0
  -23.9846  -27.2994   19.0099 H   0  0  0  0  0  0
  -23.7562  -30.5890   19.4040 H   0  0  0  0  0  0
  -22.7568  -29.2421   19.8567 H   0  0  0  0  0  0
  -25.1277  -36.1935   25.0817 H   0  0  0  0  0  0
  -20.9980  -28.3272   24.1414 H   0  0  0  0  0  0
  -20.5694  -26.2300   23.3617 H   0  0  0  0  0  0
  -21.6650  -26.7451   22.1206 H   0  0  0  0  0  0
  -19.6923  -25.6304   21.1240 H   0  0  0  0  0  0
  -19.6693  -27.3212   20.6757 H   0  0  0  0  0  0
  -17.4205  -26.6677   21.4029 H   0  0  0  0  0  0
  -18.0333  -26.0073   22.9027 H   0  0  0  0  0  0
  -19.7936  -30.7271   24.2272 H   0  0  0  0  0  0
  -17.5016  -31.6264   24.5180 H   0  0  0  0  0  0
  -15.5356  -30.2995   23.7644 H   0  0  0  0  0  0
  -15.8682  -28.0834   22.7052 H   0  0  0  0  0  0
  -24.5865  -30.7133   25.7813 H   0  0  0  0  0  0
  -24.8930  -32.2965   26.4861 H   0  0  0  0  0  0
  -25.8028  -30.8968   27.0249 H   0  0  0  0  0  0
  -26.2858  -29.6772   24.1185 H   0  0  0  0  0  0
  -27.3946  -29.7239   25.4691 H   0  0  0  0  0  0
  -27.8754  -30.4261   23.9425 H   0  0  0  0  0  0
  -27.2660  -33.3603   26.2080 H   0  0  0  0  0  0
  -28.3820  -32.6914   25.0262 H   0  0  0  0  0  0
  -28.0760  -31.8432   26.5342 H   0  0  0  0  0  0
  -28.2564  -38.0126   24.7565 H   0  0  0  0  0  0
  -28.1136  -36.2663   24.6153 H   0  0  0  0  0  0
  -27.2334  -37.1290   25.8850 H   0  0  0  0  0  0
  -20.9372  -29.8745   21.6875 H   0  0  0  0  0  0
  -26.0160  -38.2845   24.1483 H   0  0  0  0  0  0
  -31.7971  -19.8371   20.0299 H   0  0  0  0  0  0
  -31.9240  -17.4197   20.2626 H   0  0  0  0  0  0
  -27.7295  -17.2614   21.0728 H   0  0  0  0  0  0
  -31.0670  -24.4797   19.7907 H   0  0  0  0  0  0
  -30.5902  -23.9896   21.4100 H   0  0  0  0  0  0
  -31.6541  -21.9899   20.7343 H   0  0  0  0  0  0
  -31.1907  -22.1864   19.0443 H   0  0  0  0  0  0
  -27.6524  -22.1226   19.7662 H   0  0  0  0  0  0
  -28.1473  -22.4157   21.4304 H   0  0  0  0  0  0
  -28.8789  -23.9625   18.9114 H   0  0  0  0  0  0
  -25.2447  -19.8257   20.7129 H   0  0  0  0  0  0
  -25.9791  -18.5719   21.7033 H   0  0  0  0  0  0
  -26.0666  -18.4877   19.9270 H   0  0  0  0  0  0
  -28.3914  -25.1385   21.6974 H   0  0  0  0  0  0
  -27.1084  -24.8381   20.5989 H   0  0  0  0  0  0
  -28.8906  -15.3100   21.1726 H   0  0  0  0  0  0
  1 25  1  0  0  0
  1 30  2  0  0  0
  1 84  1  0  0  0
  2  3  1  0  0  0
  2 25  1  0  0  0
  2 86  1  0  0  0
  2 87  1  0  0  0
  3  4  1  0  0  0
  3 88  1  0  0  0
  3 89  1  0  0  0
  4  5  1  0  0  0
  4 90  1  0  0  0
  4 91  1  0  0  0
  5  6  1  0  0  0
  5 26  1  0  0  0
  5 92  1  0  0  0
  6 25  1  0  0  0
  6 93  1  0  0  0
  6 94  1  0  0  0
  7  8  2  0  0  0
  7 26  1  0  0  0
  7 29  1  0  0  0
  8  9  1  0  0  0
  8 22  1  0  0  0
  9 10  1  0  0  0
  9 27  2  0  0  0
 10 11  2  0  0  0
 10 15  1  0  0  0
 11 12  1  0  0  0
 11 95  1  0  0  0
 12 13  2  0  0  0
 12 96  1  0  0  0
 13 14  1  0  0  0
 13 31  1  0  0  0
 14 15  2  0  0  0
 14 97  1  0  0  0
 15 98  1  0  0  0
 16 17  2  0  0  0
 16 21  1  0  0  0
 16 31  1  0  0  0
 17 18  1  0  0  0
 17 99  1  0  0  0
 18 19  2  0  0  0
 18100  1  0  0  0
 19 20  1  0  0  0
 19 24  1  0  0  0
 20 21  2  0  0  0
 20101  1  0  0  0
 21 23  1  0  0  0
 22 28  1  0  0  0
 22 32  2  0  0  0
 26 27  1  0  0  0
 28102  1  0  0  0
 28103  1  0  0  0
 29104  1  0  0  0
 29105  1  0  0  0
 33 34  1  0  0  0
 33 66  1  0  0  0
 33 70  2  0  0  0
 34 36  1  0  0  0
 34 59  1  0  0  0
 34106  1  0  0  0
 35 44  2  0  0  0
 35 45  1  0  0  0
 35 68  1  0  0  0
 36 56  1  0  0  0
 36107  1  0  0  0
 37 39  1  0  0  0
 37 47  1  0  0  0
 37 66  1  0  0  0
 37108  1  0  0  0
 38 43  2  0  0  0
 38 46  1  0  0  0
 38 47  1  0  0  0
 39 64  1  0  0  0
 39 67  2  0  0  0
 40 52  1  0  0  0
 40 53  2  0  0  0
 40 58  1  0  0  0
 41109  1  0  0  0
 41110  1  0  0  0
 41111  1  0  0  0
 41 48  1  0  0  0
 42 43  1  0  0  0
 42 66  1  0  0  0
 42112  1  0  0  0
 42113  1  0  0  0
 43 44  1  0  0  0
 44114  1  0  0  0
 45 46  2  0  0  0
 45115  1  0  0  0
 46116  1  0  0  0
 47117  1  0  0  0
 47118  1  0  0  0
 48 56  1  0  0  0
 48 65  1  0  0  0
 48119  1  0  0  0
 49 50  1  0  0  0
 49 53  1  0  0  0
 49 64  1  0  0  0
 49120  1  0  0  0
 50 51  1  0  0  0
 50121  1  0  0  0
 50122  1  0  0  0
 51 52  1  0  0  0
 51123  1  0  0  0
 51124  1  0  0  0
 52125  1  0  0  0
 52126  1  0  0  0
 53 54  1  0  0  0
 54 55  2  0  0  0
 54127  1  0  0  0
 55 57  1  0  0  0
 55128  1  0  0  0
 56 69  2  0  0  0
 57 58  2  0  0  0
 57129  1  0  0  0
 58130  1  0  0  0
 59 60  1  0  0  0
 59 61  1  0  0  0
 59 62  1  0  0  0
 60131  1  0  0  0
 60132  1  0  0  0
 60133  1  0  0  0
 61134  1  0  0  0
 61135  1  0  0  0
 61136  1  0  0  0
 62137  1  0  0  0
 62138  1  0  0  0
 62139  1  0  0  0
 63 65  1  0  0  0
 63140  1  0  0  0
 63141  1  0  0  0
 63142  1  0  0  0
 64143  1  0  0  0
 65144  1  0  0  0
 68 82  1  0  0  0
 71 72  2  0  0  0
 71 74  1  0  0  0
 71145  1  0  0  0
 72 75  1  0  0  0
 72146  1  0  0  0
 73 75  2  0  0  0
 73 76  1  0  0  0
 73147  1  0  0  0
 74 76  2  0  0  0
 74 83  1  0  0  0
 75 84  1  0  0  0
 76 85  1  0  0  0
 77 78  1  0  0  0
 77 80  1  0  0  0
 77148  1  0  0  0
 77149  1  0  0  0
 78 83  1  0  0  0
 78150  1  0  0  0
 78151  1  0  0  0
 79 80  1  0  0  0
 79 83  1  0  0  0
 79152  1  0  0  0
 79153  1  0  0  0
 80 82  1  0  0  0
 80154  1  0  0  0
 81 85  1  0  0  0
 81155  1  0  0  0
 81156  1  0  0  0
 81157  1  0  0  0
 82158  1  0  0  0
 82159  1  0  0  0
 84160  1  0  0  0
M  ISO  4   1 100  68 101  82 101  84 100
M  END
> <chiral flag>
0

> <version>
0

> <s_m_source_file>
/data/baiqing/PycharmProjects/Reinvent-master-3.2/result/LINK_invent/BTK/process_docking_weight1_custom_product_contain_oxygen_bond_distance_aromatic_linkinvent_7_9_3/rearranged_h_0103.sdf

> <i_m_source_file_index>
61

> <r_mmod_Potential_Energy-OPLS-2005>
152.836181640625

> <r_mmod_Stretch_Energy-OPLS-2005>
77.893684387207

> <r_mmod_Bend_Energy-OPLS-2005>
190.498382568359

> <r_mmod_Torsional_Energy-OPLS-2005>
276.856048583984

> <r_mmod_Improper_Torsional_Energy-OPLS-2005>
5.03113794326782

> <r_mmod_Van_der_Waal_Energy-OPLS-2005>
149.812210083008

> <r_mmod_Electrostatic_Energy-OPLS-2005>
-358.050445556641

> <r_mmod_Solvation_Energy-OPLS-2005>
-234.516174316406

> <b_mmod_Minimization_Converged-OPLS-2005>
0

> <r_mmod_RMS_Derivative-OPLS-2005>
1.53498148918152

$$$$
61
                    3D
 Structure written by MMmdl.
163171  0  0  1  0            999 V2000
  -30.6241  -14.7932   20.4586 C   0  0  0  0  0  0
  -30.4484  -12.5015   19.4421 C   0  0  0  0  0  0
  -29.4989  -12.4786   18.2228 C   0  0  0  0  0  0
  -28.0409  -12.2266   18.6616 C   0  0  0  0  0  0
  -27.6322  -13.1361   19.8398 C   0  0  2  0  0  0
  -28.7060  -13.1218   20.9653 C   0  0  0  0  0  0
  -25.2470  -13.7880   20.5648 C   0  0  0  0  0  0
  -24.1730  -13.0249   20.9233 C   0  0  0  0  0  0
  -24.6261  -11.6727   20.8817 C   0  0  0  0  0  0
  -23.8935  -10.4177   21.0465 C   0  0  0  0  0  0
  -24.3525   -9.4110   21.9224 C   0  0  0  0  0  0
  -23.6222   -8.2147   22.0758 C   0  0  0  0  0  0
  -22.4208   -8.0211   21.3542 C   0  0  0  0  0  0
  -21.9829   -9.0176   20.4645 C   0  0  0  0  0  0
  -22.7138  -10.2058   20.3076 C   0  0  0  0  0  0
  -21.6811   -6.0701   22.5286 C   0  0  0  0  0  0
  -21.3984   -6.5621   23.8215 C   0  0  0  0  0  0
  -21.3647   -5.6778   24.9183 C   0  0  0  0  0  0
  -21.6042   -4.3042   24.7232 C   0  0  0  0  0  0
  -21.8821   -3.8129   23.4356 C   0  0  0  0  0  0
  -21.9178   -4.6939   22.3410 C   0  0  0  0  0  0
  -22.7784  -13.5136   21.1883 C   0  0  0  0  0  0
  -22.1652   -4.2130   21.0984 F   0  0  0  0  0  0
  -21.5633   -3.4528   25.7747 F   0  0  0  0  0  0
  -29.9748  -13.5665   20.3620 N   0  0  0  0  0  0
  -26.2854  -12.8926   20.3299 N   0  0  0  0  0  0
  -25.9159  -11.6183   20.5855 N   0  0  0  0  0  0
  -22.0407  -12.8180   22.0463 N   0  0  0  0  0  0
  -25.3976  -15.1593   20.3965 N   0  0  0  0  0  0
  -31.8349  -14.8251   20.2174 O   0  0  0  0  0  0
  -21.6572   -6.8822   21.4243 O   0  0  0  0  0  0
  -22.3511  -14.5455   20.6722 O   0  0  0  0  0  0
  -24.6262  -31.8592   23.2007 C   0  0  0  0  0  0
  -25.9110  -32.4778   23.8345 C   0  0  1  0  0  0
  -27.2475  -27.3289   20.1210 C   0  0  0  0  0  0
  -25.5923  -33.8576   24.2274 N   0  0  0  0  0  0
  -23.4216  -30.4803   21.5422 C   0  0  2  0  0  0
  -24.8727  -28.9313   20.1142 C   0  0  0  0  0  0
  -22.7479  -29.4626   22.4932 C   0  0  0  0  0  0
  -18.0291  -28.1389   22.8489 C   0  0  0  0  0  0
  -24.1487  -36.7296   23.2639 C   0  0  0  0  0  0
  -25.9608  -30.7943   21.3689 C   0  0  0  0  0  0
  -26.0395  -29.4210   20.7135 C   0  0  0  0  0  0
  -27.2279  -28.6334   20.7028 C   0  0  0  0  0  0
  -26.0521  -26.8845   19.5067 C   0  0  0  0  0  0
  -24.8802  -27.6676   19.5027 C   0  0  0  0  0  0
  -23.6377  -29.8085   20.1601 C   0  0  0  0  0  0
  -25.4111  -36.3082   24.0331 C   0  0  1  0  0  0
  -20.5893  -28.3699   23.1278 C   0  0  2  0  0  0
  -20.6778  -26.9421   22.5410 C   0  0  0  0  0  0
  -19.5752  -26.6388   21.5216 C   0  0  0  0  0  0
  -18.1934  -26.7933   22.1627 C   0  0  0  0  0  0
  -19.1544  -28.8859   23.2879 C   0  0  0  0  0  0
  -18.9466  -30.1460   23.8896 C   0  0  0  0  0  0
  -17.6466  -30.6590   24.0568 C   0  0  0  0  0  0
  -25.9049  -34.9453   23.5105 C   0  0  0  0  0  0
  -16.5358  -29.9091   23.6330 C   0  0  0  0  0  0
  -16.7278  -28.6509   23.0350 C   0  0  0  0  0  0
  -26.4495  -31.6586   25.0716 C   0  0  0  0  0  0
  -25.3729  -31.3729   26.1445 C   0  0  0  0  0  0
  -27.0340  -30.3010   24.6170 C   0  0  0  0  0  0
  -27.6052  -32.4324   25.7489 C   0  0  0  0  0  0
  -27.5579  -37.1799   24.8465 C   0  0  0  0  0  0
  -21.4194  -29.3049   22.3669 N   0  0  0  0  0  0
  -26.4289  -37.3778   23.9412 N   0  0  0  0  0  0
  -24.6884  -31.0610   22.0949 N   0  0  0  0  0  0
  -23.4197  -28.8174   23.3021 O   0  0  0  0  0  0
  -28.3910  -26.5113   20.1682 O   0  0  0  0  0  0
  -26.5624  -34.8923   22.4674 O   0  0  0  0  0  0
  -23.5423  -32.1386   23.7335 O   0  0  0  0  0  0
  -30.8582  -18.1006   19.5576 C   0  0  0  0  0  0
  -30.1721  -18.1588   21.8604 C   0  0  0  0  0  0
  -30.8450  -19.5310   19.5193 C   0  0  0  0  0  0
  -30.1556  -19.5877   21.8304 C   0  0  0  0  0  0
  -30.4708  -17.3697   20.7132 C   0  0  0  0  0  0
  -30.4468  -20.3111   20.6414 C   0  0  0  0  0  0
  -31.2207  -20.2354   18.2296 C   0  0  0  0  0  0
  -29.7776  -20.3414   23.0921 C   0  0  0  0  0  0
  -28.1555  -16.4233   18.8658 C   0  0  0  0  0  0
  -29.4731  -24.0999   20.4033 C   0  0  0  0  0  0
  -28.4768  -16.1972   20.3644 C   0  0  0  0  0  0
  -28.2312  -25.0420   20.0692 C   0  0  0  0  0  0
  -29.2765  -22.5122   20.3509 C   0  0  0  0  0  0
  -29.9202  -16.0105   20.6020 N   0  0  0  0  0  0
  -30.4826  -21.7206   20.6099 O   0  0  0  0  0  0
  -31.4712  -12.6711   19.1029 H   0  0  0  0  0  0
  -30.4632  -11.5328   19.9438 H   0  0  0  0  0  0
  -29.8131  -11.7087   17.5167 H   0  0  0  0  0  0
  -29.5632  -13.4266   17.6877 H   0  0  0  0  0  0
  -27.9521  -11.1808   18.9582 H   0  0  0  0  0  0
  -27.3611  -12.3615   17.8190 H   0  0  0  0  0  0
  -27.5740  -14.0881   19.3496 H   0  0  0  0  0  0
  -28.8100  -12.1117   21.3648 H   0  0  0  0  0  0
  -28.4366  -13.7274   21.8296 H   0  0  0  0  0  0
  -25.2667   -9.5586   22.4798 H   0  0  0  0  0  0
  -23.9935   -7.4520   22.7459 H   0  0  0  0  0  0
  -21.0766   -8.8680   19.8944 H   0  0  0  0  0  0
  -22.3609  -10.9604   19.6185 H   0  0  0  0  0  0
  -21.1969   -7.6126   23.9713 H   0  0  0  0  0  0
  -21.1470   -6.0510   25.9082 H   0  0  0  0  0  0
  -22.0617   -2.7594   23.2858 H   0  0  0  0  0  0
  -22.3986  -11.9835   22.4868 H   0  0  0  0  0  0
  -21.1040  -13.1250   22.2666 H   0  0  0  0  0  0
  -24.6231  -15.8036   20.5113 H   0  0  0  0  0  0
  -26.2452  -15.6075   20.0749 H   0  0  0  0  0  0
  -26.7183  -32.5453   23.1098 H   0  0  0  0  0  0
  -25.0065  -33.9718   25.0415 H   0  0  0  0  0  0
  -22.7159  -31.3004   21.3948 H   0  0  0  0  0  0
  -23.3749  -35.9629   23.3300 H   0  0  0  0  0  0
  -24.3579  -36.8918   22.2055 H   0  0  0  0  0  0
  -23.7238  -37.6497   23.6660 H   0  0  0  0  0  0
  -26.0882  -31.5569   20.5995 H   0  0  0  0  0  0
  -26.8422  -30.8458   21.9965 H   0  0  0  0  0  0
  -28.1244  -29.0111   21.1744 H   0  0  0  0  0  0
  -25.9988  -25.9175   19.0301 H   0  0  0  0  0  0
  -23.9845  -27.2845   19.0332 H   0  0  0  0  0  0
  -23.7548  -30.5811   19.3992 H   0  0  0  0  0  0
  -22.7599  -29.2330   19.8609 H   0  0  0  0  0  0
  -25.1287  -36.1935   25.0824 H   0  0  0  0  0  0
  -20.9989  -28.3277   24.1396 H   0  0  0  0  0  0
  -20.5682  -26.2314   23.3616 H   0  0  0  0  0  0
  -21.6646  -26.7450   22.1201 H   0  0  0  0  0  0
  -19.6916  -25.6298   21.1247 H   0  0  0  0  0  0
  -19.6685  -27.3198   20.6745 H   0  0  0  0  0  0
  -17.4206  -26.6687   21.4026 H   0  0  0  0  0  0
  -18.0331  -26.0071   22.9018 H   0  0  0  0  0  0
  -19.7943  -30.7279   24.2258 H   0  0  0  0  0  0
  -17.5022  -31.6267   24.5177 H   0  0  0  0  0  0
  -15.5357  -30.2996   23.7648 H   0  0  0  0  0  0
  -15.8680  -28.0831   22.7056 H   0  0  0  0  0  0
  -24.5900  -30.7083   25.7775 H   0  0  0  0  0  0
  -24.8928  -32.2900   26.4868 H   0  0  0  0  0  0
  -25.8055  -30.8908   27.0221 H   0  0  0  0  0  0
  -26.2915  -29.6756   24.1202 H   0  0  0  0  0  0
  -27.4048  -29.7269   25.4671 H   0  0  0  0  0  0
  -27.8776  -30.4293   23.9384 H   0  0  0  0  0  0
  -27.2657  -33.3623   26.2064 H   0  0  0  0  0  0
  -28.3865  -32.6890   25.0323 H   0  0  0  0  0  0
  -28.0720  -31.8457   26.5409 H   0  0  0  0  0  0
  -28.2594  -38.0099   24.7517 H   0  0  0  0  0  0
  -28.1077  -36.2633   24.6279 H   0  0  0  0  0  0
  -27.2304  -37.1436   25.8869 H   0  0  0  0  0  0
  -20.9380  -29.8760   21.6865 H   0  0  0  0  0  0
  -26.0172  -38.2855   24.1411 H   0  0  0  0  0  0
  -31.0545  -17.5564   18.6443 H   0  0  0  0  0  0
  -29.8319  -17.6579   22.7562 H   0  0  0  0  0  0
  -31.7420  -19.5666   17.5442 H   0  0  0  0  0  0
  -31.8753  -21.0835   18.4315 H   0  0  0  0  0  0
  -30.3260  -20.6073   17.7300 H   0  0  0  0  0  0
  -29.9845  -19.7493   23.9837 H   0  0  0  0  0  0
  -28.7147  -20.5826   23.0827 H   0  0  0  0  0  0
  -30.3392  -21.2720   23.1763 H   0  0  0  0  0  0
  -27.0831  -16.4041   18.6732 H   0  0  0  0  0  0
  -28.6235  -15.6770   18.2235 H   0  0  0  0  0  0
  -28.5022  -17.3974   18.5230 H   0  0  0  0  0  0
  -29.8358  -24.3602   21.3973 H   0  0  0  0  0  0
  -30.2822  -24.3621   19.7214 H   0  0  0  0  0  0
  -27.8765  -15.4626   20.8671 H   0  0  0  0  0  0
  -28.1033  -17.0864   20.8740 H   0  0  0  0  0  0
  -27.4114  -24.7483   20.7267 H   0  0  0  0  0  0
  -27.9118  -24.8054   19.0539 H   0  0  0  0  0  0
  -28.8950  -22.2317   19.3682 H   0  0  0  0  0  0
  -28.5095  -22.2221   21.0699 H   0  0  0  0  0  0
  1 25  1  0  0  0
  1 30  2  0  0  0
  1 84  1  0  0  0
  2  3  1  0  0  0
  2 25  1  0  0  0
  2 86  1  0  0  0
  2 87  1  0  0  0
  3  4  1  0  0  0
  3 88  1  0  0  0
  3 89  1  0  0  0
  4  5  1  0  0  0
  4 90  1  0  0  0
  4 91  1  0  0  0
  5  6  1  0  0  0
  5 26  1  0  0  0
  5 92  1  0  0  0
  6 25  1  0  0  0
  6 93  1  0  0  0
  6 94  1  0  0  0
  7  8  2  0  0  0
  7 26  1  0  0  0
  7 29  1  0  0  0
  8  9  1  0  0  0
  8 22  1  0  0  0
  9 10  1  0  0  0
  9 27  2  0  0  0
 10 11  2  0  0  0
 10 15  1  0  0  0
 11 12  1  0  0  0
 11 95  1  0  0  0
 12 13  2  0  0  0
 12 96  1  0  0  0
 13 14  1  0  0  0
 13 31  1  0  0  0
 14 15  2  0  0  0
 14 97  1  0  0  0
 15 98  1  0  0  0
 16 17  2  0  0  0
 16 21  1  0  0  0
 16 31  1  0  0  0
 17 18  1  0  0  0
 17 99  1  0  0  0
 18 19  2  0  0  0
 18100  1  0  0  0
 19 20  1  0  0  0
 19 24  1  0  0  0
 20 21  2  0  0  0
 20101  1  0  0  0
 21 23  1  0  0  0
 22 28  1  0  0  0
 22 32  2  0  0  0
 26 27  1  0  0  0
 28102  1  0  0  0
 28103  1  0  0  0
 29104  1  0  0  0
 29105  1  0  0  0
 33 34  1  0  0  0
 33 66  1  0  0  0
 33 70  2  0  0  0
 34 36  1  0  0  0
 34 59  1  0  0  0
 34106  1  0  0  0
 35 44  2  0  0  0
 35 45  1  0  0  0
 35 68  1  0  0  0
 36 56  1  0  0  0
 36107  1  0  0  0
 37 39  1  0  0  0
 37 47  1  0  0  0
 37 66  1  0  0  0
 37108  1  0  0  0
 38 43  2  0  0  0
 38 46  1  0  0  0
 38 47  1  0  0  0
 39 64  1  0  0  0
 39 67  2  0  0  0
 40 52  1  0  0  0
 40 53  2  0  0  0
 40 58  1  0  0  0
 41109  1  0  0  0
 41110  1  0  0  0
 41111  1  0  0  0
 41 48  1  0  0  0
 42 43  1  0  0  0
 42 66  1  0  0  0
 42112  1  0  0  0
 42113  1  0  0  0
 43 44  1  0  0  0
 44114  1  0  0  0
 45 46  2  0  0  0
 45115  1  0  0  0
 46116  1  0  0  0
 47117  1  0  0  0
 47118  1  0  0  0
 48 56  1  0  0  0
 48 65  1  0  0  0
 48119  1  0  0  0
 49 50  1  0  0  0
 49 53  1  0  0  0
 49 64  1  0  0  0
 49120  1  0  0  0
 50 51  1  0  0  0
 50121  1  0  0  0
 50122  1  0  0  0
 51 52  1  0  0  0
 51123  1  0  0  0
 51124  1  0  0  0
 52125  1  0  0  0
 52126  1  0  0  0
 53 54  1  0  0  0
 54 55  2  0  0  0
 54127  1  0  0  0
 55 57  1  0  0  0
 55128  1  0  0  0
 56 69  2  0  0  0
 57 58  2  0  0  0
 57129  1  0  0  0
 58130  1  0  0  0
 59 60  1  0  0  0
 59 61  1  0  0  0
 59 62  1  0  0  0
 60131  1  0  0  0
 60132  1  0  0  0
 60133  1  0  0  0
 61134  1  0  0  0
 61135  1  0  0  0
 61136  1  0  0  0
 62137  1  0  0  0
 62138  1  0  0  0
 62139  1  0  0  0
 63 65  1  0  0  0
 63140  1  0  0  0
 63141  1  0  0  0
 63142  1  0  0  0
 64143  1  0  0  0
 65144  1  0  0  0
 68 82  1  0  0  0
 71 73  2  0  0  0
 71 75  1  0  0  0
 71145  1  0  0  0
 72 74  1  0  0  0
 72 75  2  0  0  0
 72146  1  0  0  0
 73 76  1  0  0  0
 73 77  1  0  0  0
 74 76  2  0  0  0
 74 78  1  0  0  0
 75 84  1  0  0  0
 76 85  1  0  0  0
 77147  1  0  0  0
 77148  1  0  0  0
 77149  1  0  0  0
 78150  1  0  0  0
 78151  1  0  0  0
 78152  1  0  0  0
 79 81  1  0  0  0
 79153  1  0  0  0
 79154  1  0  0  0
 79155  1  0  0  0
 80 82  1  0  0  0
 80 83  1  0  0  0
 80156  1  0  0  0
 80157  1  0  0  0
 81 84  1  0  0  0
 81158  1  0  0  0
 81159  1  0  0  0
 82160  1  0  0  0
 82161  1  0  0  0
 83 85  1  0  0  0
 83162  1  0  0  0
 83163  1  0  0  0
M  ISO  4   1 100  68 101  82 101  84 100
M  END
> <chiral flag>
0

> <version>
0

> <s_m_source_file>
/data/baiqing/PycharmProjects/Reinvent-master-3.2/result/LINK_invent/BTK/process_docking_weight1_custom_product_contain_oxygen_bond_distance_aromatic_linkinvent_7_9_3/rearranged_h_0103.sdf

> <i_m_source_file_index>
62

> <r_mmod_Potential_Energy-OPLS-2005>
389.435333251953

> <r_mmod_Stretch_Energy-OPLS-2005>
96.7680740356445

> <r_mmod_Bend_Energy-OPLS-2005>
177.98616027832

> <r_mmod_Torsional_Energy-OPLS-2005>
350.044769287109

> <r_mmod_Improper_Torsional_Energy-OPLS-2005>
11.1869277954102

> <r_mmod_Van_der_Waal_Energy-OPLS-2005>
163.090667724609

> <r_mmod_Electrostatic_Energy-OPLS-2005>
-300.358612060547

> <r_mmod_Solvation_Energy-OPLS-2005>
-191.137298583984

> <b_mmod_Minimization_Converged-OPLS-2005>
0

> <r_mmod_RMS_Derivative-OPLS-2005>
0.864596664905548

$$$$
62
                    3D
 Structure written by MMmdl.
162171  0  0  1  0            999 V2000
  -29.2314  -15.8825   20.7654 C   0  0  0  0  0  0
  -30.2140  -13.4408   19.7392 C   0  0  0  0  0  0
  -29.5263  -12.8013   18.4735 C   0  0  0  0  0  0
  -28.1237  -12.2694   18.8121 C   0  0  0  0  0  0
  -27.4724  -13.2361   19.8168 C   0  0  2  0  0  0
  -28.3099  -13.4823   21.0588 C   0  0  0  0  0  0
  -25.1657  -13.7991   20.5476 C   0  0  0  0  0  0
  -24.1164  -13.0242   20.9231 C   0  0  0  0  0  0
  -24.5856  -11.6741   20.8749 C   0  0  0  0  0  0
  -23.8720  -10.4156   21.0482 C   0  0  0  0  0  0
  -24.3422   -9.4124   21.9216 C   0  0  0  0  0  0
  -23.6179   -8.2129   22.0755 C   0  0  0  0  0  0
  -22.4167   -8.0153   21.3541 C   0  0  0  0  0  0
  -21.9733   -9.0081   20.4644 C   0  0  0  0  0  0
  -22.6967  -10.1985   20.3077 C   0  0  0  0  0  0
  -21.6808   -6.0658   22.5293 C   0  0  0  0  0  0
  -21.3975   -6.5588   23.8219 C   0  0  0  0  0  0
  -21.3644   -5.6754   24.9190 C   0  0  0  0  0  0
  -21.6051   -4.3020   24.7246 C   0  0  0  0  0  0
  -21.8825   -3.8095   23.4373 C   0  0  0  0  0  0
  -21.9184   -4.6899   22.3423 C   0  0  0  0  0  0
  -22.7312  -13.5100   21.2020 C   0  0  0  0  0  0
  -22.1657   -4.2087   21.1002 F   0  0  0  0  0  0
  -21.5643   -3.4520   25.7768 F   0  0  0  0  0  0
  -29.2712  -14.4072   20.5537 N   0  0  0  0  0  0
  -26.1703  -12.9042   20.2577 N   0  0  0  0  0  0
  -25.8632  -11.6250   20.5399 N   0  0  0  0  0  0
  -22.0026  -12.8129   22.0637 N   0  0  0  0  0  0
  -25.3430  -15.1725   20.3997 N   0  0  0  0  0  0
  -30.4804  -16.0807   20.5578 O   0  0  0  0  0  0
  -21.6569   -6.8749   21.4235 O   0  0  0  0  0  0
  -22.3088  -14.5464   20.6908 O   0  0  0  0  0  0
  -24.7003  -31.9597   23.2063 C   0  0  0  0  0  0
  -25.9786  -32.5138   23.8665 C   0  0  1  0  0  0
  -26.2344  -27.0679   20.6713 C   0  0  0  0  0  0
  -25.6602  -33.8871   24.2682 N   0  0  0  0  0  0
  -23.5146  -30.7529   21.4614 C   0  0  2  0  0  0
  -24.8276  -29.1709   19.9376 C   0  0  0  0  0  0
  -22.8880  -29.7838   22.4382 C   0  0  0  0  0  0
  -19.3818  -26.7883   23.3959 C   0  0  0  0  0  0
  -24.1525  -36.7313   23.2592 C   0  0  0  0  0  0
  -26.0286  -30.8153   21.4011 C   0  0  0  0  0  0
  -25.9315  -29.4403   20.7531 C   0  0  0  0  0  0
  -26.7431  -28.3410   21.0934 C   0  0  0  0  0  0
  -25.7499  -26.9989   19.3820 C   0  0  0  0  0  0
  -24.7896  -27.9915   19.1602 C   0  0  0  0  0  0
  -23.6981  -30.1607   20.0231 C   0  0  0  0  0  0
  -25.4163  -36.3199   24.0322 C   0  0  1  0  0  0
  -21.0336  -28.4326   22.4570 C   0  0  2  0  0  0
  -21.2068  -27.7798   20.8937 C   0  0  0  0  0  0
  -20.8467  -26.1918   20.2881 C   0  0  0  0  0  0
  -19.9394  -25.2596   21.4193 C   0  0  0  0  0  0
  -19.8575  -28.2493   23.3821 C   0  0  0  0  0  0
  -19.3130  -29.5705   23.8109 C   0  0  0  0  0  0
  -17.9586  -29.8650   23.9804 C   0  0  0  0  0  0
  -25.9235  -34.9618   23.5183 C   0  0  0  0  0  0
  -17.2340  -28.6862   23.9102 C   0  0  0  0  0  0
  -17.9285  -27.3659   23.7992 C   0  0  0  0  0  0
  -26.4635  -31.6628   25.0979 C   0  0  0  0  0  0
  -25.3623  -31.3889   26.1490 C   0  0  0  0  0  0
  -27.0289  -30.2986   24.6381 C   0  0  0  0  0  0
  -27.6217  -32.4110   25.7960 C   0  0  0  0  0  0
  -27.5628  -37.1863   24.8450 C   0  0  0  0  0  0
  -21.5799  -29.7048   22.3186 N   0  0  0  0  0  0
  -26.4307  -37.3920   23.9446 N   0  0  0  0  0  0
  -24.7728  -31.2263   22.0608 N   0  0  0  0  0  0
  -23.5607  -29.1351   23.2560 O   0  0  0  0  0  0
  -25.3238  -26.2446   21.4496 O   0  0  0  0  0  0
  -26.5526  -34.8983   22.4586 O   0  0  0  0  0  0
  -23.6147  -32.2406   23.7433 O   0  0  0  0  0  0
  -24.3420  -20.6031   21.0756 C   0  0  0  0  0  0
  -25.2628  -21.0101   22.8823 C   0  0  0  0  0  0
  -25.5601  -19.9373   21.7880 C   0  0  0  0  0  0
  -23.0195  -22.8626   22.4358 C   0  0  0  0  0  0
  -23.2967  -21.8085   21.3190 C   0  0  0  0  0  0
  -24.2261  -22.2081   23.1766 C   0  0  0  0  0  0
  -18.4273  -24.2852   23.0904 C   0  0  0  0  0  0
  -26.9380  -18.4580   21.4990 C   0  0  0  0  0  0
  -27.8199  -17.1144   21.0271 C   0  0  0  0  0  0
  -17.7030  -25.6323   21.9414 C   0  0  0  0  0  0
  -20.2498  -23.8176   23.4379 C   0  0  0  0  0  0
  -18.9247  -27.1373   21.2692 C   0  0  0  0  0  0
  -21.7209  -25.9778   22.4766 C   0  0  2  0  0  0
  -23.6218  -26.5211   21.9606 C   0  0  0  0  0  0
  -21.8266  -24.1506   22.7443 N   0  0  0  0  0  0
  -22.4153  -21.9680   20.2495 N   0  0  0  0  0  0
  -17.5833  -23.6003   23.6735 O   0  0  0  0  0  0
  -24.4621  -22.7937   24.3776 F   0  0  0  0  0  0
  -31.0920  -13.9936   19.4005 H   0  0  0  0  0  0
  -30.6126  -12.6616   20.3897 H   0  0  0  0  0  0
  -30.1537  -12.0199   18.0397 H   0  0  0  0  0  0
  -29.4333  -13.5742   17.7106 H   0  0  0  0  0  0
  -28.2284  -11.2848   19.2700 H   0  0  0  0  0  0
  -27.5139  -12.1427   17.9158 H   0  0  0  0  0  0
  -27.3472  -14.1612   19.2489 H   0  0  0  0  0  0
  -28.7191  -12.5714   21.5006 H   0  0  0  0  0  0
  -27.7379  -13.9785   21.8468 H   0  0  0  0  0  0
  -25.2567   -9.5674   22.4771 H   0  0  0  0  0  0
  -23.9932   -7.4524   22.7457 H   0  0  0  0  0  0
  -21.0674   -8.8537   19.8951 H   0  0  0  0  0  0
  -22.3394  -10.9519   19.6194 H   0  0  0  0  0  0
  -21.1936   -7.6092   23.9701 H   0  0  0  0  0  0
  -21.1475   -6.0490   25.9091 H   0  0  0  0  0  0
  -22.0625   -2.7559   23.2894 H   0  0  0  0  0  0
  -22.3636  -11.9766   22.4969 H   0  0  0  0  0  0
  -21.0683  -13.1218   22.2931 H   0  0  0  0  0  0
  -24.5778  -15.8250   20.5293 H   0  0  0  0  0  0
  -26.1862  -15.6156   20.0618 H   0  0  0  0  0  0
  -26.7992  -32.5632   23.1540 H   0  0  0  0  0  0
  -25.0880  -34.0026   25.0925 H   0  0  0  0  0  0
  -22.8475  -31.6101   21.3647 H   0  0  0  0  0  0
  -23.3864  -35.9567   23.3184 H   0  0  0  0  0  0
  -24.3633  -36.9019   22.2024 H   0  0  0  0  0  0
  -23.7158  -37.6439   23.6656 H   0  0  0  0  0  0
  -26.2632  -31.5508   20.6287 H   0  0  0  0  0  0
  -26.8895  -30.7878   22.0583 H   0  0  0  0  0  0
  -27.3668  -28.4253   21.9707 H   0  0  0  0  0  0
  -25.5107  -26.0361   18.9521 H   0  0  0  0  0  0
  -23.9957  -27.8183   18.4479 H   0  0  0  0  0  0
  -23.9652  -30.9820   19.3558 H   0  0  0  0  0  0
  -22.7718  -29.7948   19.5916 H   0  0  0  0  0  0
  -25.1303  -36.2053   25.0810 H   0  0  0  0  0  0
  -21.6420  -28.0557   23.2577 H   0  0  0  0  0  0
  -22.1149  -28.0412   20.3886 H   0  0  0  0  0  0
  -20.6189  -28.4603   20.2736 H   0  0  0  0  0  0
  -21.7776  -25.6656   20.0602 H   0  0  0  0  0  0
  -20.3913  -26.2105   19.2953 H   0  0  0  0  0  0
  -19.2754  -24.9678   20.5896 H   0  0  0  0  0  0
  -20.1628  -24.2036   21.2678 H   0  0  0  0  0  0
  -19.9422  -30.4480   23.8250 H   0  0  0  0  0  0
  -17.5424  -30.8451   24.1738 H   0  0  0  0  0  0
  -16.1718  -28.7192   24.1133 H   0  0  0  0  0  0
  -17.2066  -26.6024   24.0499 H   0  0  0  0  0  0
  -24.5619  -30.7623   25.7542 H   0  0  0  0  0  0
  -24.9075  -32.3153   26.5016 H   0  0  0  0  0  0
  -25.7601  -30.8729   27.0235 H   0  0  0  0  0  0
  -26.2858  -29.7009   24.1087 H   0  0  0  0  0  0
  -27.3557  -29.7003   25.4895 H   0  0  0  0  0  0
  -27.8983  -30.4182   23.9911 H   0  0  0  0  0  0
  -27.2937  -33.3432   26.2573 H   0  0  0  0  0  0
  -28.4166  -32.6586   25.0918 H   0  0  0  0  0  0
  -28.0658  -31.8077   26.5888 H   0  0  0  0  0  0
  -28.2521  -38.0281   24.7699 H   0  0  0  0  0  0
  -28.1248  -36.2827   24.6037 H   0  0  0  0  0  0
  -27.2359  -37.1211   25.8841 H   0  0  0  0  0  0
  -21.0925  -30.3721   21.7358 H   0  0  0  0  0  0
  -26.0155  -38.2954   24.1578 H   0  0  0  0  0  0
  -24.1519  -20.0987   20.1391 H   0  0  0  0  0  0
  -25.9615  -20.9104   23.6994 H   0  0  0  0  0  0
  -26.1769  -18.0017   20.8784 H   0  0  0  0  0  0
  -28.5229  -17.5023   21.7491 H   0  0  0  0  0  0
  -16.7265  -25.9993   22.2581 H   0  0  0  0  0  0
  -17.3615  -25.0811   21.0639 H   0  0  0  0  0  0
  -20.2147  -22.7289   23.4472 H   0  0  0  0  0  0
  -20.3589  -24.0759   24.4921 H   0  0  0  0  0  0
  -18.5625  -28.1523   21.4525 H   0  0  0  0  0  0
  -18.7343  -27.1503   20.1896 H   0  0  0  0  0  0
  -21.7351  -26.1432   23.5573 H   0  0  0  0  0  0
  -23.5774  -27.4672   21.4832 H   0  0  0  0  0  0
  -23.9208  -26.7816   22.9710 H   0  0  0  0  0  0
  -22.5013  -21.3396   19.4599 H   0  0  0  0  0  0
  -21.4549  -22.1895   20.4853 H   0  0  0  0  0  0
  1 25  1  0  0  0
  1 30  2  0  0  0
  1 79  1  0  0  0
  2  3  1  0  0  0
  2 25  1  0  0  0
  2 89  1  0  0  0
  2 90  1  0  0  0
  3  4  1  0  0  0
  3 91  1  0  0  0
  3 92  1  0  0  0
  4  5  1  0  0  0
  4 93  1  0  0  0
  4 94  1  0  0  0
  5  6  1  0  0  0
  5 26  1  0  0  0
  5 95  1  0  0  0
  6 25  1  0  0  0
  6 96  1  0  0  0
  6 97  1  0  0  0
  7  8  2  0  0  0
  7 26  1  0  0  0
  7 29  1  0  0  0
  8  9  1  0  0  0
  8 22  1  0  0  0
  9 10  1  0  0  0
  9 27  2  0  0  0
 10 11  2  0  0  0
 10 15  1  0  0  0
 11 12  1  0  0  0
 11 98  1  0  0  0
 12 13  2  0  0  0
 12 99  1  0  0  0
 13 14  1  0  0  0
 13 31  1  0  0  0
 14 15  2  0  0  0
 14100  1  0  0  0
 15101  1  0  0  0
 16 17  2  0  0  0
 16 21  1  0  0  0
 16 31  1  0  0  0
 17 18  1  0  0  0
 17102  1  0  0  0
 18 19  2  0  0  0
 18103  1  0  0  0
 19 20  1  0  0  0
 19 24  1  0  0  0
 20 21  2  0  0  0
 20104  1  0  0  0
 21 23  1  0  0  0
 22 28  1  0  0  0
 22 32  2  0  0  0
 26 27  1  0  0  0
 28105  1  0  0  0
 28106  1  0  0  0
 29107  1  0  0  0
 29108  1  0  0  0
 33 34  1  0  0  0
 33 66  1  0  0  0
 33 70  2  0  0  0
 34 36  1  0  0  0
 34 59  1  0  0  0
 34109  1  0  0  0
 35 44  2  0  0  0
 35 45  1  0  0  0
 35 68  1  0  0  0
 36 56  1  0  0  0
 36110  1  0  0  0
 37 39  1  0  0  0
 37 47  1  0  0  0
 37 66  1  0  0  0
 37111  1  0  0  0
 38 43  2  0  0  0
 38 46  1  0  0  0
 38 47  1  0  0  0
 39 64  1  0  0  0
 39 67  2  0  0  0
 40 52  1  0  0  0
 40 53  2  0  0  0
 40 58  1  0  0  0
 41112  1  0  0  0
 41113  1  0  0  0
 41114  1  0  0  0
 41 48  1  0  0  0
 42 43  1  0  0  0
 42 66  1  0  0  0
 42115  1  0  0  0
 42116  1  0  0  0
 43 44  1  0  0  0
 44117  1  0  0  0
 45 46  2  0  0  0
 45118  1  0  0  0
 46119  1  0  0  0
 47120  1  0  0  0
 47121  1  0  0  0
 48 56  1  0  0  0
 48 65  1  0  0  0
 48122  1  0  0  0
 49 50  1  0  0  0
 49 53  1  0  0  0
 49 64  1  0  0  0
 49123  1  0  0  0
 50 51  1  0  0  0
 50124  1  0  0  0
 50125  1  0  0  0
 51 52  1  0  0  0
 51126  1  0  0  0
 51127  1  0  0  0
 52128  1  0  0  0
 52129  1  0  0  0
 53 54  1  0  0  0
 54 55  2  0  0  0
 54130  1  0  0  0
 55 57  1  0  0  0
 55131  1  0  0  0
 56 69  2  0  0  0
 57 58  2  0  0  0
 57132  1  0  0  0
 58133  1  0  0  0
 59 60  1  0  0  0
 59 61  1  0  0  0
 59 62  1  0  0  0
 60134  1  0  0  0
 60135  1  0  0  0
 60136  1  0  0  0
 61137  1  0  0  0
 61138  1  0  0  0
 61139  1  0  0  0
 62140  1  0  0  0
 62141  1  0  0  0
 62142  1  0  0  0
 63 65  1  0  0  0
 63143  1  0  0  0
 63144  1  0  0  0
 63145  1  0  0  0
 64146  1  0  0  0
 65147  1  0  0  0
 68 84  1  0  0  0
 71 73  2  0  0  0
 71 75  1  0  0  0
 71148  1  0  0  0
 72 73  1  0  0  0
 72 76  2  0  0  0
 72149  1  0  0  0
 73 78  1  0  0  0
 74 75  2  0  0  0
 74 76  1  0  0  0
 74 85  1  0  0  0
 75 86  1  0  0  0
 76 88  1  0  0  0
 77 80  1  0  0  0
 77 81  1  0  0  0
 77 87  2  0  0  0
 78 79  2  0  0  0
 78150  1  0  0  0
 79151  1  0  0  0
 80 82  1  0  0  0
 80152  1  0  0  0
 80153  1  0  0  0
 81 85  1  0  0  0
 81154  1  0  0  0
 81155  1  0  0  0
 82 83  1  0  0  0
 82156  1  0  0  0
 82157  1  0  0  0
 83 84  1  0  0  0
 83 85  1  0  0  0
 83158  1  0  0  0
 84159  1  0  0  0
 84160  1  0  0  0
 86161  1  0  0  0
 86162  1  0  0  0
M  ISO  4   1 100  68 101  79 100  84 101
M  END
> <chiral flag>
0

> <version>
0

> <s_m_source_file>
/data/baiqing/PycharmProjects/Reinvent-master-3.2/result/LINK_invent/BTK/process_docking_weight1_custom_product_contain_oxygen_bond_distance_aromatic_linkinvent_7_9_3/rearranged_h_0103.sdf

> <i_m_source_file_index>
63

> <r_mmod_Potential_Energy-OPLS-2005>
18789.568359375

> <r_mmod_Stretch_Energy-OPLS-2005>
8590.619140625

> <r_mmod_Bend_Energy-OPLS-2005>
2191.02001953125

> <r_mmod_Torsional_Energy-OPLS-2005>
635.487976074219

> <r_mmod_Improper_Torsional_Energy-OPLS-2005>
59.6836128234863

> <r_mmod_Van_der_Waal_Energy-OPLS-2005>
2477.52758789062

> <r_mmod_Electrostatic_Energy-OPLS-2005>
-293.723449707031

> <r_mmod_Solvation_Energy-OPLS-2005>
-225.387710571289

> <b_mmod_Minimization_Converged-OPLS-2005>
0

> <r_mmod_RMS_Derivative-OPLS-2005>
8.33759784698486

$$$$
63
                    3D
 Structure written by MMmdl.
158167  0  0  1  0            999 V2000
  -30.6030  -14.8088   20.4388 C   0  0  0  0  0  0
  -30.4263  -12.4927   19.4884 C   0  0  0  0  0  0
  -29.5079  -12.5079   18.2471 C   0  0  0  0  0  0
  -28.0383  -12.3211   18.6653 C   0  0  0  0  0  0
  -27.6346  -13.2399   19.8479 C   0  0  2  0  0  0
  -28.6785  -13.2179   20.9854 C   0  0  0  0  0  0
  -25.2483  -13.8220   20.5725 C   0  0  0  0  0  0
  -24.1789  -13.0446   20.9243 C   0  0  0  0  0  0
  -24.6392  -11.6929   20.8779 C   0  0  0  0  0  0
  -23.9076  -10.4295   21.0424 C   0  0  0  0  0  0
  -24.3624   -9.4203   21.9198 C   0  0  0  0  0  0
  -23.6295   -8.2238   22.0758 C   0  0  0  0  0  0
  -22.4276   -8.0289   21.3546 C   0  0  0  0  0  0
  -21.9918   -9.0264   20.4648 C   0  0  0  0  0  0
  -22.7253  -10.2141   20.3065 C   0  0  0  0  0  0
  -21.6855   -6.0739   22.5278 C   0  0  0  0  0  0
  -21.4009   -6.5640   23.8215 C   0  0  0  0  0  0
  -21.3663   -5.6797   24.9179 C   0  0  0  0  0  0
  -21.6046   -4.3055   24.7225 C   0  0  0  0  0  0
  -21.8820   -3.8147   23.4346 C   0  0  0  0  0  0
  -21.9187   -4.6966   22.3400 C   0  0  0  0  0  0
  -22.7806  -13.5221   21.1885 C   0  0  0  0  0  0
  -22.1663   -4.2148   21.0979 F   0  0  0  0  0  0
  -21.5626   -3.4541   25.7737 F   0  0  0  0  0  0
  -29.9706  -13.5804   20.3919 N   0  0  0  0  0  0
  -26.2906  -12.9432   20.3297 N   0  0  0  0  0  0
  -25.9325  -11.6566   20.5787 N   0  0  0  0  0  0
  -22.0457  -12.8205   22.0444 N   0  0  0  0  0  0
  -25.4151  -15.1947   20.4131 N   0  0  0  0  0  0
  -31.8014  -14.8434   20.1460 O   0  0  0  0  0  0
  -21.6643   -6.8884   21.4241 O   0  0  0  0  0  0
  -22.3495  -14.5529   20.6746 O   0  0  0  0  0  0
  -24.6345  -31.8502   23.1948 C   0  0  0  0  0  0
  -25.9159  -32.4723   23.8289 C   0  0  1  0  0  0
  -27.2174  -27.2217   20.1317 C   0  0  0  0  0  0
  -25.5925  -33.8526   24.2206 N   0  0  0  0  0  0
  -23.4324  -30.4708   21.5386 C   0  0  2  0  0  0
  -24.8799  -28.9124   20.1009 C   0  0  0  0  0  0
  -22.7524  -29.4568   22.4913 C   0  0  0  0  0  0
  -18.0286  -28.1371   22.8472 C   0  0  0  0  0  0
  -24.1499  -36.7284   23.2643 C   0  0  0  0  0  0
  -25.9798  -30.7514   21.3790 C   0  0  0  0  0  0
  -26.0510  -29.3706   20.7177 C   0  0  0  0  0  0
  -27.2194  -28.5361   20.7230 C   0  0  0  0  0  0
  -26.0231  -26.8389   19.4827 C   0  0  0  0  0  0
  -24.8738  -27.6575   19.4703 C   0  0  0  0  0  0
  -23.6503  -29.8020   20.1540 C   0  0  0  0  0  0
  -25.4125  -36.3059   24.0322 C   0  0  1  0  0  0
  -20.5885  -28.3694   23.1260 C   0  0  2  0  0  0
  -20.6778  -26.9411   22.5398 C   0  0  0  0  0  0
  -19.5757  -26.6361   21.5204 C   0  0  0  0  0  0
  -18.1937  -26.7911   22.1614 C   0  0  0  0  0  0
  -19.1541  -28.8850   23.2854 C   0  0  0  0  0  0
  -18.9479  -30.1454   23.8862 C   0  0  0  0  0  0
  -17.6479  -30.6584   24.0548 C   0  0  0  0  0  0
  -25.9062  -34.9434   23.5083 C   0  0  0  0  0  0
  -16.5366  -29.9069   23.6332 C   0  0  0  0  0  0
  -16.7272  -28.6482   23.0347 C   0  0  0  0  0  0
  -26.4503  -31.6569   25.0702 C   0  0  0  0  0  0
  -25.3708  -31.3727   26.1411 C   0  0  0  0  0  0
  -27.0373  -30.2980   24.6227 C   0  0  0  0  0  0
  -27.6034  -32.4334   25.7476 C   0  0  0  0  0  0
  -27.5592  -37.1798   24.8461 C   0  0  0  0  0  0
  -21.4225  -29.3035   22.3659 N   0  0  0  0  0  0
  -26.4297  -37.3760   23.9413 N   0  0  0  0  0  0
  -24.7020  -31.0430   22.0938 N   0  0  0  0  0  0
  -23.4214  -28.8129   23.3043 O   0  0  0  0  0  0
  -28.2873  -26.2942   20.2573 O   0  0  0  0  0  0
  -26.5653  -34.8931   22.4665 O   0  0  0  0  0  0
  -23.5488  -32.1324   23.7233 O   0  0  0  0  0  0
  -29.2336  -18.5780   20.5337 C   0  0  0  0  0  0
  -30.9761  -20.2439   20.2421 C   0  0  0  0  0  0
  -31.5389  -17.8525   20.3370 C   0  0  0  0  0  0
  -29.6000  -19.9964   20.4051 C   0  0  0  0  0  0
  -30.1858  -17.4566   20.4879 C   0  0  0  0  0  0
  -31.9355  -19.2112   20.2160 C   0  0  0  0  0  0
  -28.5632  -23.7207   20.2461 C   0  0  0  0  0  0
  -28.2814  -24.9747   19.6881 C   0  0  0  0  0  0
  -28.8025  -23.3668   21.6945 C   0  0  0  0  0  0
  -28.7118  -22.3271   19.5315 C   0  0  0  0  0  0
  -28.6557  -21.8103   21.8233 C   0  0  0  0  0  0
  -34.2737  -18.6354   20.1312 C   0  0  0  0  0  0
  -28.7213  -21.1663   20.5005 N   0  0  0  0  0  0
  -29.8444  -15.9844   20.6015 N   0  0  0  0  0  0
  -33.2466  -19.6174   20.0754 O   0  0  0  0  0  0
  -31.4672  -12.6121   19.1839 H   0  0  0  0  0  0
  -30.3751  -11.5290   19.9978 H   0  0  0  0  0  0
  -29.7999  -11.7223   17.5494 H   0  0  0  0  0  0
  -29.6214  -13.4519   17.7121 H   0  0  0  0  0  0
  -27.9141  -11.2770   18.9550 H   0  0  0  0  0  0
  -27.3741  -12.4803   17.8155 H   0  0  0  0  0  0
  -27.6153  -14.2518   19.4431 H   0  0  0  0  0  0
  -28.7306  -12.2340   21.4534 H   0  0  0  0  0  0
  -28.4065  -13.9193   21.7760 H   0  0  0  0  0  0
  -25.2758   -9.5680   22.4795 H   0  0  0  0  0  0
  -23.9995   -7.4628   22.7482 H   0  0  0  0  0  0
  -21.0846   -8.8795   19.8956 H   0  0  0  0  0  0
  -22.3711  -10.9693   19.6189 H   0  0  0  0  0  0
  -21.2009   -7.6150   23.9718 H   0  0  0  0  0  0
  -21.1485   -6.0527   25.9085 H   0  0  0  0  0  0
  -22.0593   -2.7606   23.2848 H   0  0  0  0  0  0
  -22.4061  -11.9845   22.4793 H   0  0  0  0  0  0
  -21.1094  -13.1252   22.2688 H   0  0  0  0  0  0
  -24.6411  -15.8429   20.5156 H   0  0  0  0  0  0
  -26.2517  -15.6332   20.0507 H   0  0  0  0  0  0
  -26.7222  -32.5350   23.1024 H   0  0  0  0  0  0
  -25.0040  -33.9624   25.0331 H   0  0  0  0  0  0
  -22.7295  -31.2940   21.3913 H   0  0  0  0  0  0
  -23.3772  -35.9607   23.3279 H   0  0  0  0  0  0
  -24.3566  -36.8925   22.2054 H   0  0  0  0  0  0
  -23.7257  -37.6480   23.6686 H   0  0  0  0  0  0
  -26.1237  -31.5155   20.6123 H   0  0  0  0  0  0
  -26.8548  -30.7968   22.0148 H   0  0  0  0  0  0
  -28.1121  -28.8718   21.2323 H   0  0  0  0  0  0
  -25.9459  -25.8679   19.0163 H   0  0  0  0  0  0
  -23.9775  -27.2981   18.9840 H   0  0  0  0  0  0
  -23.7691  -30.5766   19.3953 H   0  0  0  0  0  0
  -22.7677  -29.2327   19.8548 H   0  0  0  0  0  0
  -25.1320  -36.1887   25.0810 H   0  0  0  0  0  0
  -20.9964  -28.3278   24.1384 H   0  0  0  0  0  0
  -20.5682  -26.2315   23.3605 H   0  0  0  0  0  0
  -21.6653  -26.7420   22.1213 H   0  0  0  0  0  0
  -19.6929  -25.6264   21.1237 H   0  0  0  0  0  0
  -19.6691  -27.3187   20.6740 H   0  0  0  0  0  0
  -17.4213  -26.6650   21.4012 H   0  0  0  0  0  0
  -18.0323  -26.0050   22.8991 H   0  0  0  0  0  0
  -19.7969  -30.7263   24.2210 H   0  0  0  0  0  0
  -17.5050  -31.6259   24.5177 H   0  0  0  0  0  0
  -15.5376  -30.2972   23.7685 H   0  0  0  0  0  0
  -15.8656  -28.0807   22.7065 H   0  0  0  0  0  0
  -24.5888  -30.7070   25.7736 H   0  0  0  0  0  0
  -24.8907  -32.2903   26.4820 H   0  0  0  0  0  0
  -25.8012  -30.8905   27.0193 H   0  0  0  0  0  0
  -26.2973  -29.6691   24.1263 H   0  0  0  0  0  0
  -27.4041  -29.7270   25.4764 H   0  0  0  0  0  0
  -27.8854  -30.4238   23.9496 H   0  0  0  0  0  0
  -27.2613  -33.3638   26.2015 H   0  0  0  0  0  0
  -28.3858  -32.6875   25.0316 H   0  0  0  0  0  0
  -28.0692  -31.8489   26.5417 H   0  0  0  0  0  0
  -28.2593  -38.0113   24.7524 H   0  0  0  0  0  0
  -28.1100  -36.2636   24.6270 H   0  0  0  0  0  0
  -27.2288  -37.1411   25.8855 H   0  0  0  0  0  0
  -20.9441  -29.8747   21.6836 H   0  0  0  0  0  0
  -26.0176  -38.2830   24.1409 H   0  0  0  0  0  0
  -28.1875  -18.3461   20.6723 H   0  0  0  0  0  0
  -31.3249  -21.2641   20.1686 H   0  0  0  0  0  0
  -32.3051  -17.0987   20.3208 H   0  0  0  0  0  0
  -28.1299  -25.0469   18.6198 H   0  0  0  0  0  0
  -28.1232  -23.9048   22.3561 H   0  0  0  0  0  0
  -29.8194  -23.6631   21.9530 H   0  0  0  0  0  0
  -29.6311  -22.3349   18.9454 H   0  0  0  0  0  0
  -27.8905  -22.2050   18.8244 H   0  0  0  0  0  0
  -27.6807  -21.5784   22.2569 H   0  0  0  0  0  0
  -29.4041  -21.4071   22.5079 H   0  0  0  0  0  0
  -35.2462  -19.1169   20.0288 H   0  0  0  0  0  0
  -34.1796  -17.9138   19.3185 H   0  0  0  0  0  0
  -34.2662  -18.1092   21.0871 H   0  0  0  0  0  0
  -28.8692  -15.7942   20.7765 H   0  0  0  0  0  0
  1 25  1  0  0  0
  1 30  2  0  0  0
  1 84  1  0  0  0
  2  3  1  0  0  0
  2 25  1  0  0  0
  2 86  1  0  0  0
  2 87  1  0  0  0
  3  4  1  0  0  0
  3 88  1  0  0  0
  3 89  1  0  0  0
  4  5  1  0  0  0
  4 90  1  0  0  0
  4 91  1  0  0  0
  5  6  1  0  0  0
  5 26  1  0  0  0
  5 92  1  0  0  0
  6 25  1  0  0  0
  6 93  1  0  0  0
  6 94  1  0  0  0
  7  8  2  0  0  0
  7 26  1  0  0  0
  7 29  1  0  0  0
  8  9  1  0  0  0
  8 22  1  0  0  0
  9 10  1  0  0  0
  9 27  2  0  0  0
 10 11  2  0  0  0
 10 15  1  0  0  0
 11 12  1  0  0  0
 11 95  1  0  0  0
 12 13  2  0  0  0
 12 96  1  0  0  0
 13 14  1  0  0  0
 13 31  1  0  0  0
 14 15  2  0  0  0
 14 97  1  0  0  0
 15 98  1  0  0  0
 16 17  2  0  0  0
 16 21  1  0  0  0
 16 31  1  0  0  0
 17 18  1  0  0  0
 17 99  1  0  0  0
 18 19  2  0  0  0
 18100  1  0  0  0
 19 20  1  0  0  0
 19 24  1  0  0  0
 20 21  2  0  0  0
 20101  1  0  0  0
 21 23  1  0  0  0
 22 28  1  0  0  0
 22 32  2  0  0  0
 26 27  1  0  0  0
 28102  1  0  0  0
 28103  1  0  0  0
 29104  1  0  0  0
 29105  1  0  0  0
 33 34  1  0  0  0
 33 66  1  0  0  0
 33 70  2  0  0  0
 34 36  1  0  0  0
 34 59  1  0  0  0
 34106  1  0  0  0
 35 44  2  0  0  0
 35 45  1  0  0  0
 35 68  1  0  0  0
 36 56  1  0  0  0
 36107  1  0  0  0
 37 39  1  0  0  0
 37 47  1  0  0  0
 37 66  1  0  0  0
 37108  1  0  0  0
 38 43  2  0  0  0
 38 46  1  0  0  0
 38 47  1  0  0  0
 39 64  1  0  0  0
 39 67  2  0  0  0
 40 52  1  0  0  0
 40 53  2  0  0  0
 40 58  1  0  0  0
 41109  1  0  0  0
 41110  1  0  0  0
 41111  1  0  0  0
 41 48  1  0  0  0
 42 43  1  0  0  0
 42 66  1  0  0  0
 42112  1  0  0  0
 42113  1  0  0  0
 43 44  1  0  0  0
 44114  1  0  0  0
 45 46  2  0  0  0
 45115  1  0  0  0
 46116  1  0  0  0
 47117  1  0  0  0
 47118  1  0  0  0
 48 56  1  0  0  0
 48 65  1  0  0  0
 48119  1  0  0  0
 49 50  1  0  0  0
 49 53  1  0  0  0
 49 64  1  0  0  0
 49120  1  0  0  0
 50 51  1  0  0  0
 50121  1  0  0  0
 50122  1  0  0  0
 51 52  1  0  0  0
 51123  1  0  0  0
 51124  1  0  0  0
 52125  1  0  0  0
 52126  1  0  0  0
 53 54  1  0  0  0
 54 55  2  0  0  0
 54127  1  0  0  0
 55 57  1  0  0  0
 55128  1  0  0  0
 56 69  2  0  0  0
 57 58  2  0  0  0
 57129  1  0  0  0
 58130  1  0  0  0
 59 60  1  0  0  0
 59 61  1  0  0  0
 59 62  1  0  0  0
 60131  1  0  0  0
 60132  1  0  0  0
 60133  1  0  0  0
 61134  1  0  0  0
 61135  1  0  0  0
 61136  1  0  0  0
 62137  1  0  0  0
 62138  1  0  0  0
 62139  1  0  0  0
 63 65  1  0  0  0
 63140  1  0  0  0
 63141  1  0  0  0
 63142  1  0  0  0
 64143  1  0  0  0
 65144  1  0  0  0
 68 78  1  0  0  0
 71 74  2  0  0  0
 71 75  1  0  0  0
 71145  1  0  0  0
 72 74  1  0  0  0
 72 76  2  0  0  0
 72146  1  0  0  0
 73 75  2  0  0  0
 73 76  1  0  0  0
 73147  1  0  0  0
 74 83  1  0  0  0
 75 84  1  0  0  0
 76 85  1  0  0  0
 77 78  2  0  0  0
 77 79  1  0  0  0
 77 80  1  0  0  0
 78148  1  0  0  0
 79 81  1  0  0  0
 79149  1  0  0  0
 79150  1  0  0  0
 80 83  1  0  0  0
 80151  1  0  0  0
 80152  1  0  0  0
 81 83  1  0  0  0
 81153  1  0  0  0
 81154  1  0  0  0
 82 85  1  0  0  0
 82155  1  0  0  0
 82156  1  0  0  0
 82157  1  0  0  0
 84158  1  0  0  0
M  ISO  4   1 100  68 101  78 101  84 100
M  END
> <chiral flag>
0

> <version>
0

> <s_m_source_file>
/data/baiqing/PycharmProjects/Reinvent-master-3.2/result/LINK_invent/BTK/process_docking_weight1_custom_product_contain_oxygen_bond_distance_aromatic_linkinvent_7_9_3/rearranged_h_0103.sdf

> <i_m_source_file_index>
64

> <r_mmod_Potential_Energy-OPLS-2005>
333.764801025391

> <r_mmod_Stretch_Energy-OPLS-2005>
144.413528442383

> <r_mmod_Bend_Energy-OPLS-2005>
211.32893371582

> <r_mmod_Torsional_Energy-OPLS-2005>
261.650573730469

> <r_mmod_Improper_Torsional_Energy-OPLS-2005>
9.95819759368896

> <r_mmod_Van_der_Waal_Energy-OPLS-2005>
144.57844543457

> <r_mmod_Electrostatic_Energy-OPLS-2005>
-326.537780761719

> <r_mmod_Solvation_Energy-OPLS-2005>
-228.877777099609

> <b_mmod_Minimization_Converged-OPLS-2005>
0

> <r_mmod_RMS_Derivative-OPLS-2005>
1.84845590591431

$$$$
64
                    3D
 Structure written by MMmdl.
161170  0  0  1  0            999 V2000
  -30.5936  -14.7421   20.5406 C   0  0  0  0  0  0
  -30.4565  -12.4683   19.4876 C   0  0  0  0  0  0
  -29.5308  -12.5311   18.2514 C   0  0  0  0  0  0
  -28.0517  -12.3625   18.6497 C   0  0  0  0  0  0
  -27.6580  -13.2319   19.8741 C   0  0  2  0  0  0
  -28.6972  -13.1049   21.0114 C   0  0  0  0  0  0
  -25.2473  -13.8124   20.5499 C   0  0  0  0  0  0
  -24.1807  -13.0395   20.9152 C   0  0  0  0  0  0
  -24.6433  -11.6882   20.8760 C   0  0  0  0  0  0
  -23.9105  -10.4275   21.0430 C   0  0  0  0  0  0
  -24.3625   -9.4183   21.9211 C   0  0  0  0  0  0
  -23.6277   -8.2246   22.0783 C   0  0  0  0  0  0
  -22.4262   -8.0311   21.3561 C   0  0  0  0  0  0
  -21.9913   -9.0294   20.4663 C   0  0  0  0  0  0
  -22.7274  -10.2140   20.3071 C   0  0  0  0  0  0
  -21.6859   -6.0731   22.5276 C   0  0  0  0  0  0
  -21.4018   -6.5617   23.8215 C   0  0  0  0  0  0
  -21.3654   -5.6762   24.9166 C   0  0  0  0  0  0
  -21.6044   -4.3028   24.7217 C   0  0  0  0  0  0
  -21.8822   -3.8133   23.4330 C   0  0  0  0  0  0
  -21.9187   -4.6959   22.3388 C   0  0  0  0  0  0
  -22.7824  -13.5217   21.1806 C   0  0  0  0  0  0
  -22.1664   -4.2138   21.0966 F   0  0  0  0  0  0
  -21.5616   -3.4509   25.7726 F   0  0  0  0  0  0
  -30.0106  -13.4904   20.4680 N   0  0  0  0  0  0
  -26.3009  -12.9384   20.3311 N   0  0  0  0  0  0
  -25.9391  -11.6523   20.5808 N   0  0  0  0  0  0
  -22.0434  -12.8275   22.0375 N   0  0  0  0  0  0
  -25.3925  -15.1798   20.3617 N   0  0  0  0  0  0
  -31.6841  -14.9463   20.0008 O   0  0  0  0  0  0
  -21.6637   -6.8903   21.4256 O   0  0  0  0  0  0
  -22.3524  -14.5532   20.6650 O   0  0  0  0  0  0
  -24.6337  -31.8524   23.1956 C   0  0  0  0  0  0
  -25.9156  -32.4744   23.8332 C   0  0  1  0  0  0
  -27.2240  -27.2437   20.1655 C   0  0  0  0  0  0
  -25.5938  -33.8539   24.2265 N   0  0  0  0  0  0
  -23.4352  -30.4750   21.5317 C   0  0  2  0  0  0
  -24.8888  -28.9167   20.1094 C   0  0  0  0  0  0
  -22.7522  -29.4603   22.4813 C   0  0  0  0  0  0
  -18.0310  -28.1419   22.8450 C   0  0  0  0  0  0
  -24.1491  -36.7291   23.2633 C   0  0  0  0  0  0
  -25.9808  -30.7629   21.3796 C   0  0  0  0  0  0
  -26.0556  -29.3802   20.7315 C   0  0  0  0  0  0
  -27.2276  -28.5560   20.7484 C   0  0  0  0  0  0
  -26.0446  -26.8596   19.4920 C   0  0  0  0  0  0
  -24.8904  -27.6664   19.4725 C   0  0  0  0  0  0
  -23.6624  -29.8070   20.1477 C   0  0  0  0  0  0
  -25.4108  -36.3057   24.0328 C   0  0  1  0  0  0
  -20.5909  -28.3740   23.1208 C   0  0  2  0  0  0
  -20.6794  -26.9449   22.5369 C   0  0  0  0  0  0
  -19.5772  -26.6401   21.5173 C   0  0  0  0  0  0
  -18.1954  -26.7958   22.1596 C   0  0  0  0  0  0
  -19.1558  -28.8891   23.2838 C   0  0  0  0  0  0
  -18.9480  -30.1474   23.8892 C   0  0  0  0  0  0
  -17.6473  -30.6602   24.0568 C   0  0  0  0  0  0
  -25.9053  -34.9429   23.5101 C   0  0  0  0  0  0
  -16.5370  -29.9109   23.6315 C   0  0  0  0  0  0
  -16.7287  -28.6531   23.0327 C   0  0  0  0  0  0
  -26.4515  -31.6573   25.0729 C   0  0  0  0  0  0
  -25.3750  -31.3704   26.1459 C   0  0  0  0  0  0
  -27.0356  -30.2987   24.6223 C   0  0  0  0  0  0
  -27.6082  -32.4309   25.7497 C   0  0  0  0  0  0
  -27.5576  -37.1801   24.8454 C   0  0  0  0  0  0
  -21.4224  -29.3088   22.3591 N   0  0  0  0  0  0
  -26.4278  -37.3760   23.9409 N   0  0  0  0  0  0
  -24.7017  -31.0503   22.0921 N   0  0  0  0  0  0
  -23.4210  -28.8119   23.2920 O   0  0  0  0  0  0
  -28.3012  -26.3301   20.2235 O   0  0  0  0  0  0
  -26.5615  -34.8905   22.4671 O   0  0  0  0  0  0
  -23.5483  -32.1318   23.7252 O   0  0  0  0  0  0
  -27.0346  -18.0180   21.2351 C   0  0  0  0  0  0
  -27.8998  -16.9213   21.3398 C   0  0  0  0  0  0
  -29.7450  -18.3589   20.7112 C   0  0  0  0  0  0
  -27.4836  -19.2937   20.8500 C   0  0  0  0  0  0
  -28.8719  -19.5478   20.6582 C   0  0  0  0  0  0
  -29.2652  -17.0061   21.0211 C   0  0  0  0  0  0
  -28.7297  -23.2849   18.7403 C   0  0  0  0  0  0
  -29.4780  -22.0686   18.1701 C   0  0  0  0  0  0
  -30.1447  -21.1323   19.2099 C   0  0  0  0  0  0
  -28.8381  -22.2138   21.0551 C   0  0  0  0  0  0
  -28.9237  -23.6173   20.2236 C   0  0  2  0  0  0
  -26.3897  -20.3247   20.6042 C   0  0  0  0  0  0
  -28.0272  -24.9077   20.6714 C   0  0  0  0  0  0
  -29.2989  -20.9211   20.3785 N   0  0  0  0  0  0
  -29.9587  -15.7147   21.2948 N   0  0  0  0  0  0
  -27.9953  -23.9589   18.0098 O   0  0  0  0  0  0
  -31.4952  -12.6177   19.1879 H   0  0  0  0  0  0
  -30.4271  -11.4769   19.9390 H   0  0  0  0  0  0
  -29.8111  -11.7604   17.5329 H   0  0  0  0  0  0
  -29.6664  -13.4846   17.7421 H   0  0  0  0  0  0
  -27.8856  -11.3074   18.8729 H   0  0  0  0  0  0
  -27.4141  -12.6022   17.7985 H   0  0  0  0  0  0
  -27.6704  -14.2681   19.5351 H   0  0  0  0  0  0
  -28.7295  -12.0786   21.3823 H   0  0  0  0  0  0
  -28.4113  -13.7206   21.8652 H   0  0  0  0  0  0
  -25.2772   -9.5630   22.4788 H   0  0  0  0  0  0
  -23.9940   -7.4637   22.7521 H   0  0  0  0  0  0
  -21.0823   -8.8861   19.8977 H   0  0  0  0  0  0
  -22.3782  -10.9692   19.6169 H   0  0  0  0  0  0
  -21.2035   -7.6129   23.9709 H   0  0  0  0  0  0
  -21.1463   -6.0497   25.9062 H   0  0  0  0  0  0
  -22.0601   -2.7598   23.2850 H   0  0  0  0  0  0
  -22.3968  -11.9920   22.4795 H   0  0  0  0  0  0
  -21.1092  -13.1416   22.2590 H   0  0  0  0  0  0
  -24.6087  -15.8163   20.4603 H   0  0  0  0  0  0
  -26.2146  -15.6218   19.9717 H   0  0  0  0  0  0
  -26.7233  -32.5404   23.1089 H   0  0  0  0  0  0
  -25.0100  -33.9671   25.0418 H   0  0  0  0  0  0
  -22.7362  -31.2991   21.3768 H   0  0  0  0  0  0
  -23.3740  -35.9635   23.3277 H   0  0  0  0  0  0
  -24.3574  -36.8933   22.2047 H   0  0  0  0  0  0
  -23.7266  -37.6499   23.6671 H   0  0  0  0  0  0
  -26.1248  -31.5168   20.6036 H   0  0  0  0  0  0
  -26.8569  -30.8166   22.0137 H   0  0  0  0  0  0
  -28.1182  -28.8980   21.2588 H   0  0  0  0  0  0
  -26.0059  -25.9092   18.9806 H   0  0  0  0  0  0
  -24.0067  -27.3132   18.9600 H   0  0  0  0  0  0
  -23.8058  -30.5811   19.3934 H   0  0  0  0  0  0
  -22.7816  -29.2474   19.8275 H   0  0  0  0  0  0
  -25.1290  -36.1896   25.0816 H   0  0  0  0  0  0
  -21.0020  -28.3341   24.1319 H   0  0  0  0  0  0
  -20.5647  -26.2363   23.3585 H   0  0  0  0  0  0
  -21.6671  -26.7438   22.1199 H   0  0  0  0  0  0
  -19.6936  -25.6299   21.1236 H   0  0  0  0  0  0
  -19.6711  -27.3172   20.6667 H   0  0  0  0  0  0
  -17.4204  -26.6651   21.4032 H   0  0  0  0  0  0
  -18.0397  -26.0120   22.9017 H   0  0  0  0  0  0
  -19.7949  -30.7286   24.2283 H   0  0  0  0  0  0
  -17.5028  -31.6269   24.5202 H   0  0  0  0  0  0
  -15.5374  -30.3022   23.7644 H   0  0  0  0  0  0
  -15.8681  -28.0858   22.7047 H   0  0  0  0  0  0
  -24.5937  -30.7040   25.7783 H   0  0  0  0  0  0
  -24.8929  -32.2854   26.4912 H   0  0  0  0  0  0
  -25.8090  -30.8865   27.0221 H   0  0  0  0  0  0
  -26.2917  -29.6732   24.1272 H   0  0  0  0  0  0
  -27.4043  -29.7271   25.4752 H   0  0  0  0  0  0
  -27.8808  -30.4251   23.9452 H   0  0  0  0  0  0
  -27.2711  -33.3616   26.2077 H   0  0  0  0  0  0
  -28.3897  -32.6861   25.0325 H   0  0  0  0  0  0
  -28.0751  -31.8430   26.5414 H   0  0  0  0  0  0
  -28.2587  -38.0106   24.7512 H   0  0  0  0  0  0
  -28.1091  -36.2648   24.6267 H   0  0  0  0  0  0
  -27.2302  -37.1426   25.8857 H   0  0  0  0  0  0
  -20.9411  -29.8845   21.6814 H   0  0  0  0  0  0
  -26.0157  -38.2834   24.1413 H   0  0  0  0  0  0
  -25.9841  -17.8709   21.4469 H   0  0  0  0  0  0
  -27.4842  -15.9818   21.6792 H   0  0  0  0  0  0
  -30.8041  -18.4931   20.5541 H   0  0  0  0  0  0
  -30.2201  -22.4248   17.4555 H   0  0  0  0  0  0
  -28.7462  -21.4983   17.6000 H   0  0  0  0  0  0
  -31.0970  -21.5547   19.5325 H   0  0  0  0  0  0
  -30.3741  -20.1809   18.7288 H   0  0  0  0  0  0
  -27.8418  -22.1143   21.4743 H   0  0  0  0  0  0
  -29.4672  -22.3293   21.9375 H   0  0  0  0  0  0
  -29.9616  -23.9380   20.3071 H   0  0  0  0  0  0
  -25.5072  -19.8418   20.1854 H   0  0  0  0  0  0
  -26.6808  -21.0847   19.8807 H   0  0  0  0  0  0
  -26.0892  -20.7976   21.5388 H   0  0  0  0  0  0
  -28.0528  -24.9468   21.7599 H   0  0  0  0  0  0
  -26.9920  -24.6429   20.4594 H   0  0  0  0  0  0
  -29.4011  -15.1903   21.9504 H   0  0  0  0  0  0
  1 25  1  0  0  0
  1 30  2  0  0  0
  1 85  1  0  0  0
  2  3  1  0  0  0
  2 25  1  0  0  0
  2 87  1  0  0  0
  2 88  1  0  0  0
  3  4  1  0  0  0
  3 89  1  0  0  0
  3 90  1  0  0  0
  4  5  1  0  0  0
  4 91  1  0  0  0
  4 92  1  0  0  0
  5  6  1  0  0  0
  5 26  1  0  0  0
  5 93  1  0  0  0
  6 25  1  0  0  0
  6 94  1  0  0  0
  6 95  1  0  0  0
  7  8  2  0  0  0
  7 26  1  0  0  0
  7 29  1  0  0  0
  8  9  1  0  0  0
  8 22  1  0  0  0
  9 10  1  0  0  0
  9 27  2  0  0  0
 10 11  2  0  0  0
 10 15  1  0  0  0
 11 12  1  0  0  0
 11 96  1  0  0  0
 12 13  2  0  0  0
 12 97  1  0  0  0
 13 14  1  0  0  0
 13 31  1  0  0  0
 14 15  2  0  0  0
 14 98  1  0  0  0
 15 99  1  0  0  0
 16 17  2  0  0  0
 16 21  1  0  0  0
 16 31  1  0  0  0
 17 18  1  0  0  0
 17100  1  0  0  0
 18 19  2  0  0  0
 18101  1  0  0  0
 19 20  1  0  0  0
 19 24  1  0  0  0
 20 21  2  0  0  0
 20102  1  0  0  0
 21 23  1  0  0  0
 22 28  1  0  0  0
 22 32  2  0  0  0
 26 27  1  0  0  0
 28103  1  0  0  0
 28104  1  0  0  0
 29105  1  0  0  0
 29106  1  0  0  0
 33 34  1  0  0  0
 33 66  1  0  0  0
 33 70  2  0  0  0
 34 36  1  0  0  0
 34 59  1  0  0  0
 34107  1  0  0  0
 35 44  2  0  0  0
 35 45  1  0  0  0
 35 68  1  0  0  0
 36 56  1  0  0  0
 36108  1  0  0  0
 37 39  1  0  0  0
 37 47  1  0  0  0
 37 66  1  0  0  0
 37109  1  0  0  0
 38 43  2  0  0  0
 38 46  1  0  0  0
 38 47  1  0  0  0
 39 64  1  0  0  0
 39 67  2  0  0  0
 40 52  1  0  0  0
 40 53  2  0  0  0
 40 58  1  0  0  0
 41110  1  0  0  0
 41111  1  0  0  0
 41112  1  0  0  0
 41 48  1  0  0  0
 42 43  1  0  0  0
 42 66  1  0  0  0
 42113  1  0  0  0
 42114  1  0  0  0
 43 44  1  0  0  0
 44115  1  0  0  0
 45 46  2  0  0  0
 45116  1  0  0  0
 46117  1  0  0  0
 47118  1  0  0  0
 47119  1  0  0  0
 48 56  1  0  0  0
 48 65  1  0  0  0
 48120  1  0  0  0
 49 50  1  0  0  0
 49 53  1  0  0  0
 49 64  1  0  0  0
 49121  1  0  0  0
 50 51  1  0  0  0
 50122  1  0  0  0
 50123  1  0  0  0
 51 52  1  0  0  0
 51124  1  0  0  0
 51125  1  0  0  0
 52126  1  0  0  0
 52127  1  0  0  0
 53 54  1  0  0  0
 54 55  2  0  0  0
 54128  1  0  0  0
 55 57  1  0  0  0
 55129  1  0  0  0
 56 69  2  0  0  0
 57 58  2  0  0  0
 57130  1  0  0  0
 58131  1  0  0  0
 59 60  1  0  0  0
 59 61  1  0  0  0
 59 62  1  0  0  0
 60132  1  0  0  0
 60133  1  0  0  0
 60134  1  0  0  0
 61135  1  0  0  0
 61136  1  0  0  0
 61137  1  0  0  0
 62138  1  0  0  0
 62139  1  0  0  0
 62140  1  0  0  0
 63 65  1  0  0  0
 63141  1  0  0  0
 63142  1  0  0  0
 63143  1  0  0  0
 64144  1  0  0  0
 65145  1  0  0  0
 68 83  1  0  0  0
 71 72  2  0  0  0
 71 74  1  0  0  0
 71146  1  0  0  0
 72 76  1  0  0  0
 72147  1  0  0  0
 73 75  1  0  0  0
 73 76  2  0  0  0
 73148  1  0  0  0
 74 75  2  0  0  0
 74 82  1  0  0  0
 75 84  1  0  0  0
 76 85  1  0  0  0
 77 78  1  0  0  0
 77 81  1  0  0  0
 77 86  2  0  0  0
 78 79  1  0  0  0
 78149  1  0  0  0
 78150  1  0  0  0
 79 84  1  0  0  0
 79151  1  0  0  0
 79152  1  0  0  0
 80 81  1  0  0  0
 80 84  1  0  0  0
 80153  1  0  0  0
 80154  1  0  0  0
 81 83  1  0  0  0
 81155  1  0  0  0
 82156  1  0  0  0
 82157  1  0  0  0
 82158  1  0  0  0
 83159  1  0  0  0
 83160  1  0  0  0
 85161  1  0  0  0
M  ISO  4   1 100  68 101  83 101  85 100
M  END
> <chiral flag>
0

> <version>
0

> <s_m_source_file>
/data/baiqing/PycharmProjects/Reinvent-master-3.2/result/LINK_invent/BTK/process_docking_weight1_custom_product_contain_oxygen_bond_distance_aromatic_linkinvent_7_9_3/rearranged_h_0103.sdf

> <i_m_source_file_index>
65

> <r_mmod_Potential_Energy-OPLS-2005>
265.499267578125

> <r_mmod_Stretch_Energy-OPLS-2005>
145.545974731445

> <r_mmod_Bend_Energy-OPLS-2005>
226.253967285156

> <r_mmod_Torsional_Energy-OPLS-2005>
255.694000244141

> <r_mmod_Improper_Torsional_Energy-OPLS-2005>
8.39334297180176

> <r_mmod_Van_der_Waal_Energy-OPLS-2005>
144.807037353516

> <r_mmod_Electrostatic_Energy-OPLS-2005>
-375.376739501953

> <r_mmod_Solvation_Energy-OPLS-2005>
-232.471130371094

> <b_mmod_Minimization_Converged-OPLS-2005>
0

> <r_mmod_RMS_Derivative-OPLS-2005>
3.62062454223633

$$$$
65
                    3D
 Structure written by MMmdl.
164172  0  0  1  0            999 V2000
  -30.6897  -14.4734   20.4981 C   0  0  0  0  0  0
  -30.4199  -12.2858   19.4257 C   0  0  0  0  0  0
  -29.4943  -12.4828   18.2073 C   0  0  0  0  0  0
  -28.0157  -12.3364   18.6205 C   0  0  0  0  0  0
  -27.6582  -13.1806   19.8718 C   0  0  2  0  0  0
  -28.7048  -12.9989   20.9946 C   0  0  0  0  0  0
  -25.2621  -13.8093   20.5731 C   0  0  0  0  0  0
  -24.1834  -13.0409   20.9188 C   0  0  0  0  0  0
  -24.6356  -11.6868   20.8740 C   0  0  0  0  0  0
  -23.9020  -10.4276   21.0413 C   0  0  0  0  0  0
  -24.3586   -9.4197   21.9187 C   0  0  0  0  0  0
  -23.6274   -8.2226   22.0751 C   0  0  0  0  0  0
  -22.4258   -8.0262   21.3537 C   0  0  0  0  0  0
  -21.9882   -9.0237   20.4646 C   0  0  0  0  0  0
  -22.7199  -10.2121   20.3061 C   0  0  0  0  0  0
  -21.6848   -6.0730   22.5282 C   0  0  0  0  0  0
  -21.4011   -6.5637   23.8215 C   0  0  0  0  0  0
  -21.3654   -5.6787   24.9175 C   0  0  0  0  0  0
  -21.6045   -4.3050   24.7225 C   0  0  0  0  0  0
  -21.8820   -3.8144   23.4345 C   0  0  0  0  0  0
  -21.9190   -4.6961   22.3404 C   0  0  0  0  0  0
  -22.7864  -13.5242   21.1842 C   0  0  0  0  0  0
  -22.1658   -4.2148   21.0982 F   0  0  0  0  0  0
  -21.5626   -3.4535   25.7739 F   0  0  0  0  0  0
  -30.0333  -13.2858   20.4290 N   0  0  0  0  0  0
  -26.3008  -12.9202   20.3367 N   0  0  0  0  0  0
  -25.9271  -11.6394   20.5768 N   0  0  0  0  0  0
  -22.0479  -12.8257   22.0397 N   0  0  0  0  0  0
  -25.4396  -15.1809   20.4239 N   0  0  0  0  0  0
  -31.8628  -14.6138   20.1425 O   0  0  0  0  0  0
  -21.6624   -6.8863   21.4238 O   0  0  0  0  0  0
  -22.3572  -14.5551   20.6678 O   0  0  0  0  0  0
  -24.6105  -31.8696   23.2112 C   0  0  0  0  0  0
  -25.9014  -32.4832   23.8399 C   0  0  1  0  0  0
  -27.2417  -27.4602   20.0875 C   0  0  0  0  0  0
  -25.5882  -33.8631   24.2336 N   0  0  0  0  0  0
  -23.3966  -30.4922   21.5507 C   0  0  2  0  0  0
  -24.8430  -28.9581   20.1130 C   0  0  0  0  0  0
  -22.7384  -29.4666   22.5004 C   0  0  0  0  0  0
  -18.0265  -28.1374   22.8495 C   0  0  0  0  0  0
  -24.1484  -36.7323   23.2638 C   0  0  0  0  0  0
  -25.9210  -30.8407   21.3605 C   0  0  0  0  0  0
  -25.9969  -29.4746   20.7123 C   0  0  0  0  0  0
  -27.1924  -28.7286   20.7036 C   0  0  0  0  0  0
  -26.0709  -26.9503   19.4792 C   0  0  0  0  0  0
  -24.8729  -27.6934   19.4972 C   0  0  0  0  0  0
  -23.6026  -29.8213   20.1650 C   0  0  0  0  0  0
  -25.4104  -36.3121   24.0343 C   0  0  1  0  0  0
  -20.5851  -28.3655   23.1332 C   0  0  2  0  0  0
  -20.6758  -26.9397   22.5422 C   0  0  0  0  0  0
  -19.5740  -26.6390   21.5212 C   0  0  0  0  0  0
  -18.1917  -26.7924   22.1621 C   0  0  0  0  0  0
  -19.1514  -28.8831   23.2911 C   0  0  0  0  0  0
  -18.9446  -30.1438   23.8921 C   0  0  0  0  0  0
  -17.6451  -30.6583   24.0568 C   0  0  0  0  0  0
  -25.9029  -34.9484   23.5138 C   0  0  0  0  0  0
  -16.5342  -29.9091   23.6320 C   0  0  0  0  0  0
  -16.7256  -28.6505   23.0345 C   0  0  0  0  0  0
  -26.4461  -31.6601   25.0712 C   0  0  0  0  0  0
  -25.3744  -31.3697   26.1475 C   0  0  0  0  0  0
  -27.0289  -30.3052   24.6062 C   0  0  0  0  0  0
  -27.6050  -32.4314   25.7463 C   0  0  0  0  0  0
  -27.5581  -37.1814   24.8466 C   0  0  0  0  0  0
  -21.4117  -29.3025   22.3742 N   0  0  0  0  0  0
  -26.4296  -37.3800   23.9409 N   0  0  0  0  0  0
  -24.6608  -31.0821   22.0997 N   0  0  0  0  0  0
  -23.4173  -28.8215   23.3039 O   0  0  0  0  0  0
  -28.4466  -26.7950   20.1233 O   0  0  0  0  0  0
  -26.5595  -34.8931   22.4702 O   0  0  0  0  0  0
  -23.5309  -32.1445   23.7525 O   0  0  0  0  0  0
  -31.3937  -18.8072   19.6560 C   0  0  0  0  0  0
  -31.2169  -17.5992   20.3639 C   0  0  0  0  0  0
  -29.2575  -18.4613   18.5470 C   0  0  0  0  0  0
  -30.4250  -19.2284   18.7203 C   0  0  0  0  0  0
  -30.0705  -16.8002   20.1412 C   0  0  0  0  0  0
  -29.0662  -17.2487   19.2507 C   0  0  0  0  0  0
  -30.0852  -22.6723   18.8008 C   0  0  0  0  0  0
  -31.7493  -20.1864   16.8010 C   0  0  0  0  0  0
  -27.1191  -16.7130   17.9510 C   0  0  0  0  0  0
  -30.7108  -24.0114   19.1996 C   0  0  0  0  0  0
  -29.8738  -24.8974   20.1442 C   0  0  0  0  0  0
  -28.5863  -25.5010   19.5479 C   0  0  0  0  0  0
  -30.6400  -20.4487   17.8293 C   0  0  2  0  0  0
  -29.9097  -15.5338   20.7733 N   0  0  0  0  0  0
  -30.9448  -21.6720   18.5632 N   0  0  0  0  0  0
  -28.8674  -22.5635   18.6478 O   0  0  0  0  0  0
  -27.9499  -16.4603   19.0801 O   0  0  0  0  0  0
  -31.4656  -12.3749   19.1255 H   0  0  0  0  0  0
  -30.3094  -11.2809   19.8356 H   0  0  0  0  0  0
  -29.7400  -11.7591   17.4285 H   0  0  0  0  0  0
  -29.6576  -13.4697   17.7714 H   0  0  0  0  0  0
  -27.8317  -11.2807   18.8228 H   0  0  0  0  0  0
  -27.3637  -12.6030   17.7878 H   0  0  0  0  0  0
  -27.6891  -14.2118   19.5512 H   0  0  0  0  0  0
  -28.6819  -11.9772   21.3762 H   0  0  0  0  0  0
  -28.4778  -13.6396   21.8478 H   0  0  0  0  0  0
  -25.2734   -9.5681   22.4753 H   0  0  0  0  0  0
  -23.9989   -7.4623   22.7473 H   0  0  0  0  0  0
  -21.0808   -8.8759   19.8959 H   0  0  0  0  0  0
  -22.3660  -10.9661   19.6170 H   0  0  0  0  0  0
  -21.2003   -7.6147   23.9720 H   0  0  0  0  0  0
  -21.1473   -6.0515   25.9078 H   0  0  0  0  0  0
  -22.0604   -2.7608   23.2847 H   0  0  0  0  0  0
  -22.4069  -11.9924   22.4817 H   0  0  0  0  0  0
  -21.1101  -13.1316   22.2582 H   0  0  0  0  0  0
  -24.6791  -15.8396   20.5479 H   0  0  0  0  0  0
  -26.2989  -15.6185   20.1091 H   0  0  0  0  0  0
  -26.7083  -32.5556   23.1164 H   0  0  0  0  0  0
  -25.0027  -33.9798   25.0478 H   0  0  0  0  0  0
  -22.6837  -31.3078   21.4128 H   0  0  0  0  0  0
  -23.3741  -35.9662   23.3314 H   0  0  0  0  0  0
  -24.3575  -36.8922   22.2050 H   0  0  0  0  0  0
  -23.7245  -37.6538   23.6640 H   0  0  0  0  0  0
  -26.0273  -31.6040   20.5885 H   0  0  0  0  0  0
  -26.8119  -30.8986   21.9740 H   0  0  0  0  0  0
  -28.0835  -29.1244   21.1712 H   0  0  0  0  0  0
  -26.0626  -25.9908   18.9843 H   0  0  0  0  0  0
  -23.9857  -27.2915   19.0281 H   0  0  0  0  0  0
  -23.7057  -30.5950   19.4037 H   0  0  0  0  0  0
  -22.7278  -29.2376   19.8732 H   0  0  0  0  0  0
  -25.1279  -36.1992   25.0838 H   0  0  0  0  0  0
  -20.9948  -28.3222   24.1450 H   0  0  0  0  0  0
  -20.5664  -26.2263   23.3604 H   0  0  0  0  0  0
  -21.6631  -26.7452   22.1211 H   0  0  0  0  0  0
  -19.6904  -25.6310   21.1219 H   0  0  0  0  0  0
  -19.6681  -27.3220   20.6759 H   0  0  0  0  0  0
  -17.4191  -26.6676   21.4018 H   0  0  0  0  0  0
  -18.0316  -26.0059   22.9011 H   0  0  0  0  0  0
  -19.7925  -30.7241   24.2305 H   0  0  0  0  0  0
  -17.5011  -31.6263   24.5169 H   0  0  0  0  0  0
  -15.5344  -30.3002   23.7634 H   0  0  0  0  0  0
  -15.8654  -28.0835   22.7047 H   0  0  0  0  0  0
  -24.5904  -30.7057   25.7813 H   0  0  0  0  0  0
  -24.8950  -32.2852   26.4952 H   0  0  0  0  0  0
  -25.8111  -30.8842   27.0213 H   0  0  0  0  0  0
  -26.2820  -29.6808   24.1146 H   0  0  0  0  0  0
  -27.4111  -29.7286   25.4495 H   0  0  0  0  0  0
  -27.8628  -30.4381   23.9165 H   0  0  0  0  0  0
  -27.2677  -33.3593   26.2092 H   0  0  0  0  0  0
  -28.3826  -32.6908   25.0266 H   0  0  0  0  0  0
  -28.0759  -31.8410   26.5333 H   0  0  0  0  0  0
  -28.2614  -38.0097   24.7502 H   0  0  0  0  0  0
  -28.1062  -36.2631   24.6301 H   0  0  0  0  0  0
  -27.2300  -37.1479   25.8870 H   0  0  0  0  0  0
  -20.9274  -29.8742   21.6962 H   0  0  0  0  0  0
  -26.0190  -38.2883   24.1397 H   0  0  0  0  0  0
  -32.2954  -19.3858   19.8019 H   0  0  0  0  0  0
  -31.9833  -17.2707   21.0517 H   0  0  0  0  0  0
  -28.5221  -18.8139   17.8396 H   0  0  0  0  0  0
  -31.5209  -19.3053   16.2009 H   0  0  0  0  0  0
  -32.7154  -20.0190   17.2775 H   0  0  0  0  0  0
  -31.8567  -21.0272   16.1150 H   0  0  0  0  0  0
  -26.5662  -17.6460   18.0657 H   0  0  0  0  0  0
  -26.3881  -15.9115   17.8477 H   0  0  0  0  0  0
  -27.6938  -16.7440   17.0238 H   0  0  0  0  0  0
  -30.9339  -24.5629   18.2856 H   0  0  0  0  0  0
  -31.6734  -23.8182   19.6746 H   0  0  0  0  0  0
  -30.5252  -25.7131   20.4603 H   0  0  0  0  0  0
  -29.6324  -24.3535   21.0586 H   0  0  0  0  0  0
  -27.7452  -24.8470   19.7805 H   0  0  0  0  0  0
  -28.6559  -25.6019   18.4639 H   0  0  0  0  0  0
  -29.7265  -20.6103   17.2529 H   0  0  0  0  0  0
  -28.9561  -15.2806   20.9796 H   0  0  0  0  0  0
  -31.9211  -21.8513   18.7517 H   0  0  0  0  0  0
  1 25  1  0  0  0
  1 30  2  0  0  0
  1 84  1  0  0  0
  2  3  1  0  0  0
  2 25  1  0  0  0
  2 88  1  0  0  0
  2 89  1  0  0  0
  3  4  1  0  0  0
  3 90  1  0  0  0
  3 91  1  0  0  0
  4  5  1  0  0  0
  4 92  1  0  0  0
  4 93  1  0  0  0
  5  6  1  0  0  0
  5 26  1  0  0  0
  5 94  1  0  0  0
  6 25  1  0  0  0
  6 95  1  0  0  0
  6 96  1  0  0  0
  7  8  2  0  0  0
  7 26  1  0  0  0
  7 29  1  0  0  0
  8  9  1  0  0  0
  8 22  1  0  0  0
  9 10  1  0  0  0
  9 27  2  0  0  0
 10 11  2  0  0  0
 10 15  1  0  0  0
 11 12  1  0  0  0
 11 97  1  0  0  0
 12 13  2  0  0  0
 12 98  1  0  0  0
 13 14  1  0  0  0
 13 31  1  0  0  0
 14 15  2  0  0  0
 14 99  1  0  0  0
 15100  1  0  0  0
 16 17  2  0  0  0
 16 21  1  0  0  0
 16 31  1  0  0  0
 17 18  1  0  0  0
 17101  1  0  0  0
 18 19  2  0  0  0
 18102  1  0  0  0
 19 20  1  0  0  0
 19 24  1  0  0  0
 20 21  2  0  0  0
 20103  1  0  0  0
 21 23  1  0  0  0
 22 28  1  0  0  0
 22 32  2  0  0  0
 26 27  1  0  0  0
 28104  1  0  0  0
 28105  1  0  0  0
 29106  1  0  0  0
 29107  1  0  0  0
 33 34  1  0  0  0
 33 66  1  0  0  0
 33 70  2  0  0  0
 34 36  1  0  0  0
 34 59  1  0  0  0
 34108  1  0  0  0
 35 44  2  0  0  0
 35 45  1  0  0  0
 35 68  1  0  0  0
 36 56  1  0  0  0
 36109  1  0  0  0
 37 39  1  0  0  0
 37 47  1  0  0  0
 37 66  1  0  0  0
 37110  1  0  0  0
 38 43  2  0  0  0
 38 46  1  0  0  0
 38 47  1  0  0  0
 39 64  1  0  0  0
 39 67  2  0  0  0
 40 52  1  0  0  0
 40 53  2  0  0  0
 40 58  1  0  0  0
 41111  1  0  0  0
 41112  1  0  0  0
 41113  1  0  0  0
 41 48  1  0  0  0
 42 43  1  0  0  0
 42 66  1  0  0  0
 42114  1  0  0  0
 42115  1  0  0  0
 43 44  1  0  0  0
 44116  1  0  0  0
 45 46  2  0  0  0
 45117  1  0  0  0
 46118  1  0  0  0
 47119  1  0  0  0
 47120  1  0  0  0
 48 56  1  0  0  0
 48 65  1  0  0  0
 48121  1  0  0  0
 49 50  1  0  0  0
 49 53  1  0  0  0
 49 64  1  0  0  0
 49122  1  0  0  0
 50 51  1  0  0  0
 50123  1  0  0  0
 50124  1  0  0  0
 51 52  1  0  0  0
 51125  1  0  0  0
 51126  1  0  0  0
 52127  1  0  0  0
 52128  1  0  0  0
 53 54  1  0  0  0
 54 55  2  0  0  0
 54129  1  0  0  0
 55 57  1  0  0  0
 55130  1  0  0  0
 56 69  2  0  0  0
 57 58  2  0  0  0
 57131  1  0  0  0
 58132  1  0  0  0
 59 60  1  0  0  0
 59 61  1  0  0  0
 59 62  1  0  0  0
 60133  1  0  0  0
 60134  1  0  0  0
 60135  1  0  0  0
 61136  1  0  0  0
 61137  1  0  0  0
 61138  1  0  0  0
 62139  1  0  0  0
 62140  1  0  0  0
 62141  1  0  0  0
 63 65  1  0  0  0
 63142  1  0  0  0
 63143  1  0  0  0
 63144  1  0  0  0
 64145  1  0  0  0
 65146  1  0  0  0
 68 82  1  0  0  0
 71 72  2  0  0  0
 71 74  1  0  0  0
 71147  1  0  0  0
 72 75  1  0  0  0
 72148  1  0  0  0
 73 74  2  0  0  0
 73 76  1  0  0  0
 73149  1  0  0  0
 74 83  1  0  0  0
 75 76  2  0  0  0
 75 84  1  0  0  0
 76 87  1  0  0  0
 77 80  1  0  0  0
 77 85  1  0  0  0
 77 86  2  0  0  0
 78150  1  0  0  0
 78151  1  0  0  0
 78152  1  0  0  0
 78 83  1  0  0  0
 79 87  1  0  0  0
 79153  1  0  0  0
 79154  1  0  0  0
 79155  1  0  0  0
 80 81  1  0  0  0
 80156  1  0  0  0
 80157  1  0  0  0
 81 82  1  0  0  0
 81158  1  0  0  0
 81159  1  0  0  0
 82160  1  0  0  0
 82161  1  0  0  0
 83 85  1  0  0  0
 83162  1  0  0  0
 84163  1  0  0  0
 85164  1  0  0  0
M  ISO  4   1 100  68 101  82 101  84 100
M  END
> <chiral flag>
0

> <version>
0

> <s_m_source_file>
/data/baiqing/PycharmProjects/Reinvent-master-3.2/result/LINK_invent/BTK/process_docking_weight1_custom_product_contain_oxygen_bond_distance_aromatic_linkinvent_7_9_3/rearranged_h_0103.sdf

> <i_m_source_file_index>
66

> <r_mmod_Potential_Energy-OPLS-2005>
-201.257171630859

> <r_mmod_Stretch_Energy-OPLS-2005>
33.171028137207

> <r_mmod_Bend_Energy-OPLS-2005>
108.192626953125

> <r_mmod_Torsional_Energy-OPLS-2005>
233.036010742188

> <r_mmod_Improper_Torsional_Energy-OPLS-2005>
8.45186901092529

> <r_mmod_Van_der_Waal_Energy-OPLS-2005>
158.728942871094

> <r_mmod_Electrostatic_Energy-OPLS-2005>
-535.176086425781

> <r_mmod_Solvation_Energy-OPLS-2005>
-224.136871337891

> <b_mmod_Minimization_Converged-OPLS-2005>
0

> <r_mmod_RMS_Derivative-OPLS-2005>
0.863026261329651

$$$$
66
                    3D
 Structure written by MMmdl.
163172  0  0  1  0            999 V2000
  -30.6356  -14.5895   20.5787 C   0  0  0  0  0  0
  -30.4445  -12.3831   19.4280 C   0  0  0  0  0  0
  -29.5028  -12.5280   18.2122 C   0  0  0  0  0  0
  -28.0248  -12.3679   18.6263 C   0  0  0  0  0  0
  -27.6630  -13.2093   19.8797 C   0  0  2  0  0  0
  -28.7119  -12.9928   20.9930 C   0  0  0  0  0  0
  -25.2603  -13.8163   20.5713 C   0  0  0  0  0  0
  -24.1847  -13.0432   20.9181 C   0  0  0  0  0  0
  -24.6404  -11.6899   20.8735 C   0  0  0  0  0  0
  -23.9064  -10.4287   21.0401 C   0  0  0  0  0  0
  -24.3613   -9.4204   21.9183 C   0  0  0  0  0  0
  -23.6288   -8.2241   22.0756 C   0  0  0  0  0  0
  -22.4269   -8.0281   21.3546 C   0  0  0  0  0  0
  -21.9909   -9.0254   20.4642 C   0  0  0  0  0  0
  -22.7238  -10.2131   20.3049 C   0  0  0  0  0  0
  -21.6852   -6.0736   22.5280 C   0  0  0  0  0  0
  -21.4016   -6.5639   23.8215 C   0  0  0  0  0  0
  -21.3660   -5.6791   24.9177 C   0  0  0  0  0  0
  -21.6042   -4.3052   24.7225 C   0  0  0  0  0  0
  -21.8822   -3.8145   23.4344 C   0  0  0  0  0  0
  -21.9196   -4.6964   22.3399 C   0  0  0  0  0  0
  -22.7866  -13.5227   21.1840 C   0  0  0  0  0  0
  -22.1663   -4.2146   21.0974 F   0  0  0  0  0  0
  -21.5626   -3.4535   25.7739 F   0  0  0  0  0  0
  -30.0233  -13.3698   20.4412 N   0  0  0  0  0  0
  -26.3046  -12.9329   20.3412 N   0  0  0  0  0  0
  -25.9340  -11.6484   20.5783 N   0  0  0  0  0  0
  -22.0511  -12.8216   22.0395 N   0  0  0  0  0  0
  -25.4316  -15.1884   20.4138 N   0  0  0  0  0  0
  -31.7534  -14.7833   20.0884 O   0  0  0  0  0  0
  -21.6633   -6.8879   21.4242 O   0  0  0  0  0  0
  -22.3553  -14.5536   20.6693 O   0  0  0  0  0  0
  -24.6228  -31.8618   23.2054 C   0  0  0  0  0  0
  -25.9089  -32.4794   23.8374 C   0  0  1  0  0  0
  -27.2286  -27.3548   20.1113 C   0  0  0  0  0  0
  -25.5915  -33.8591   24.2293 N   0  0  0  0  0  0
  -23.4144  -30.4861   21.5473 C   0  0  2  0  0  0
  -24.8618  -28.9434   20.1139 C   0  0  0  0  0  0
  -22.7451  -29.4641   22.4958 C   0  0  0  0  0  0
  -18.0275  -28.1397   22.8500 C   0  0  0  0  0  0
  -24.1484  -36.7295   23.2639 C   0  0  0  0  0  0
  -25.9525  -30.8041   21.3712 C   0  0  0  0  0  0
  -26.0286  -29.4334   20.7146 C   0  0  0  0  0  0
  -27.2169  -28.6502   20.7032 C   0  0  0  0  0  0
  -26.0428  -26.9094   19.4865 C   0  0  0  0  0  0
  -24.8685  -27.6848   19.4916 C   0  0  0  0  0  0
  -23.6273  -29.8186   20.1631 C   0  0  0  0  0  0
  -25.4111  -36.3091   24.0332 C   0  0  1  0  0  0
  -20.5875  -28.3698   23.1303 C   0  0  2  0  0  0
  -20.6770  -26.9425   22.5421 C   0  0  0  0  0  0
  -19.5741  -26.6401   21.5224 C   0  0  0  0  0  0
  -18.1918  -26.7948   22.1633 C   0  0  0  0  0  0
  -19.1528  -28.8864   23.2898 C   0  0  0  0  0  0
  -18.9454  -30.1466   23.8914 C   0  0  0  0  0  0
  -17.6456  -30.6603   24.0577 C   0  0  0  0  0  0
  -25.9046  -34.9460   23.5109 C   0  0  0  0  0  0
  -16.5344  -29.9107   23.6335 C   0  0  0  0  0  0
  -16.7264  -28.6518   23.0363 C   0  0  0  0  0  0
  -26.4489  -31.6600   25.0730 C   0  0  0  0  0  0
  -25.3732  -31.3717   26.1461 C   0  0  0  0  0  0
  -27.0343  -30.3036   24.6165 C   0  0  0  0  0  0
  -27.6048  -32.4341   25.7504 C   0  0  0  0  0  0
  -27.5582  -37.1798   24.8460 C   0  0  0  0  0  0
  -21.4169  -29.3051   22.3694 N   0  0  0  0  0  0
  -26.4286  -37.3789   23.9416 N   0  0  0  0  0  0
  -24.6819  -31.0662   22.0987 N   0  0  0  0  0  0
  -23.4186  -28.8181   23.3029 O   0  0  0  0  0  0
  -28.3625  -26.5404   20.1178 O   0  0  0  0  0  0
  -26.5613  -34.8922   22.4675 O   0  0  0  0  0  0
  -23.5398  -32.1399   23.7404 O   0  0  0  0  0  0
  -30.6762  -17.7814   19.7896 C   0  0  0  0  0  0
  -30.5888  -19.1490   19.4088 C   0  0  0  0  0  0
  -28.9715  -19.5572   21.1338 C   0  0  0  0  0  0
  -29.9034  -17.2614   20.8553 C   0  0  0  0  0  0
  -29.7162  -20.0785   20.0469 C   0  0  0  0  0  0
  -29.0568  -18.1841   21.5371 C   0  0  0  0  0  0
  -28.5529  -23.9062   18.2528 C   0  0  0  0  0  0
  -28.7989  -22.5851   17.5276 C   0  0  0  0  0  0
  -29.8913  -21.7349   18.1948 C   0  0  0  0  0  0
  -28.9297  -22.5392   20.3807 C   0  0  0  0  0  0
  -28.9811  -23.9952   19.7279 C   0  0  2  0  0  0
  -27.4825  -18.5364   23.3340 C   0  0  0  0  0  0
  -29.9200  -15.7677   21.3486 C   0  0  0  0  0  0
  -28.1879  -25.1288   20.5068 C   0  0  0  0  0  0
  -29.5900  -21.4443   19.6016 N   0  0  0  0  0  0
  -28.0390  -24.8538   17.6512 O   0  0  0  0  0  0
  -28.3332  -17.6700   22.5949 O   0  0  0  0  0  0
  -31.4815  -12.5223   19.1189 H   0  0  0  0  0  0
  -30.3909  -11.3738   19.8393 H   0  0  0  0  0  0
  -29.7590  -11.7957   17.4454 H   0  0  0  0  0  0
  -29.6479  -13.5093   17.7578 H   0  0  0  0  0  0
  -27.8494  -11.3104   18.8291 H   0  0  0  0  0  0
  -27.3697  -12.6293   17.7944 H   0  0  0  0  0  0
  -27.7020  -14.2577   19.5836 H   0  0  0  0  0  0
  -28.7251  -11.9435   21.2929 H   0  0  0  0  0  0
  -28.4571  -13.5307   21.9048 H   0  0  0  0  0  0
  -25.2762   -9.5680   22.4753 H   0  0  0  0  0  0
  -23.9999   -7.4634   22.7478 H   0  0  0  0  0  0
  -21.0844   -8.8774   19.8942 H   0  0  0  0  0  0
  -22.3707  -10.9670   19.6151 H   0  0  0  0  0  0
  -21.2007   -7.6150   23.9717 H   0  0  0  0  0  0
  -21.1479   -6.0520   25.9082 H   0  0  0  0  0  0
  -22.0599   -2.7605   23.2846 H   0  0  0  0  0  0
  -22.4129  -11.9867   22.4765 H   0  0  0  0  0  0
  -21.1130  -13.1246   22.2597 H   0  0  0  0  0  0
  -24.6675  -15.8452   20.5297 H   0  0  0  0  0  0
  -26.2927  -15.6322   20.1202 H   0  0  0  0  0  0
  -26.7163  -32.5480   23.1134 H   0  0  0  0  0  0
  -25.0068  -33.9749   25.0442 H   0  0  0  0  0  0
  -22.7064  -31.3051   21.4045 H   0  0  0  0  0  0
  -23.3756  -35.9614   23.3283 H   0  0  0  0  0  0
  -24.3575  -36.8937   22.2057 H   0  0  0  0  0  0
  -23.7219  -37.6482   23.6675 H   0  0  0  0  0  0
  -26.0775  -31.5694   20.6044 H   0  0  0  0  0  0
  -26.8357  -30.8547   21.9964 H   0  0  0  0  0  0
  -28.1160  -29.0237   21.1742 H   0  0  0  0  0  0
  -26.0163  -25.9525   18.9865 H   0  0  0  0  0  0
  -23.9766  -27.3070   19.0112 H   0  0  0  0  0  0
  -23.7408  -30.5933   19.4044 H   0  0  0  0  0  0
  -22.7487  -29.2435   19.8643 H   0  0  0  0  0  0
  -25.1284  -36.1946   25.0824 H   0  0  0  0  0  0
  -20.9968  -28.3278   24.1424 H   0  0  0  0  0  0
  -20.5692  -26.2303   23.3612 H   0  0  0  0  0  0
  -21.6639  -26.7478   22.1198 H   0  0  0  0  0  0
  -19.6905  -25.6314   21.1247 H   0  0  0  0  0  0
  -19.6677  -27.3219   20.6758 H   0  0  0  0  0  0
  -17.4189  -26.6708   21.4032 H   0  0  0  0  0  0
  -18.0307  -26.0087   22.9023 H   0  0  0  0  0  0
  -19.7924  -30.7282   24.2291 H   0  0  0  0  0  0
  -17.5006  -31.6279   24.5186 H   0  0  0  0  0  0
  -15.5345  -30.3018   23.7650 H   0  0  0  0  0  0
  -15.8659  -28.0842   22.7084 H   0  0  0  0  0  0
  -24.5898  -30.7080   25.7779 H   0  0  0  0  0  0
  -24.8932  -32.2878   26.4914 H   0  0  0  0  0  0
  -25.8064  -30.8866   27.0218 H   0  0  0  0  0  0
  -26.2915  -29.6779   24.1203 H   0  0  0  0  0  0
  -27.4071  -29.7297   25.4660 H   0  0  0  0  0  0
  -27.8767  -30.4331   23.9365 H   0  0  0  0  0  0
  -27.2650  -33.3637   26.2082 H   0  0  0  0  0  0
  -28.3860  -32.6914   25.0338 H   0  0  0  0  0  0
  -28.0716  -31.8470   26.5421 H   0  0  0  0  0  0
  -28.2580  -38.0117   24.7556 H   0  0  0  0  0  0
  -28.1101  -36.2652   24.6233 H   0  0  0  0  0  0
  -27.2303  -37.1388   25.8863 H   0  0  0  0  0  0
  -20.9335  -29.8759   21.6900 H   0  0  0  0  0  0
  -26.0164  -38.2855   24.1455 H   0  0  0  0  0  0
  -31.3541  -17.1408   19.2447 H   0  0  0  0  0  0
  -31.2283  -19.4662   18.5978 H   0  0  0  0  0  0
  -28.3072  -20.2307   21.6515 H   0  0  0  0  0  0
  -29.0717  -22.7941   16.4934 H   0  0  0  0  0  0
  -27.8601  -22.0319   17.4995 H   0  0  0  0  0  0
  -30.8554  -22.2425   18.1319 H   0  0  0  0  0  0
  -29.9801  -20.8274   17.5988 H   0  0  0  0  0  0
  -27.8859  -22.2654   20.5420 H   0  0  0  0  0  0
  -29.3869  -22.5827   21.3699 H   0  0  0  0  0  0
  -30.0276  -24.2975   19.7113 H   0  0  0  0  0  0
  -27.0144  -17.9741   24.1422 H   0  0  0  0  0  0
  -26.6840  -18.9408   22.7101 H   0  0  0  0  0  0
  -28.0404  -19.3569   23.7880 H   0  0  0  0  0  0
  -28.8664  -15.5265   21.4491 H   0  0  0  0  0  0
  -30.3219  -15.7645   22.3612 H   0  0  0  0  0  0
  -28.5114  -25.0826   21.5466 H   0  0  0  0  0  0
  -27.1377  -24.8403   20.5497 H   0  0  0  0  0  0
  1 25  1  0  0  0
  1 30  2  0  0  0
  1 83  1  0  0  0
  2  3  1  0  0  0
  2 25  1  0  0  0
  2 88  1  0  0  0
  2 89  1  0  0  0
  3  4  1  0  0  0
  3 90  1  0  0  0
  3 91  1  0  0  0
  4  5  1  0  0  0
  4 92  1  0  0  0
  4 93  1  0  0  0
  5  6  1  0  0  0
  5 26  1  0  0  0
  5 94  1  0  0  0
  6 25  1  0  0  0
  6 95  1  0  0  0
  6 96  1  0  0  0
  7  8  2  0  0  0
  7 26  1  0  0  0
  7 29  1  0  0  0
  8  9  1  0  0  0
  8 22  1  0  0  0
  9 10  1  0  0  0
  9 27  2  0  0  0
 10 11  2  0  0  0
 10 15  1  0  0  0
 11 12  1  0  0  0
 11 97  1  0  0  0
 12 13  2  0  0  0
 12 98  1  0  0  0
 13 14  1  0  0  0
 13 31  1  0  0  0
 14 15  2  0  0  0
 14 99  1  0  0  0
 15100  1  0  0  0
 16 17  2  0  0  0
 16 21  1  0  0  0
 16 31  1  0  0  0
 17 18  1  0  0  0
 17101  1  0  0  0
 18 19  2  0  0  0
 18102  1  0  0  0
 19 20  1  0  0  0
 19 24  1  0  0  0
 20 21  2  0  0  0
 20103  1  0  0  0
 21 23  1  0  0  0
 22 28  1  0  0  0
 22 32  2  0  0  0
 26 27  1  0  0  0
 28104  1  0  0  0
 28105  1  0  0  0
 29106  1  0  0  0
 29107  1  0  0  0
 33 34  1  0  0  0
 33 66  1  0  0  0
 33 70  2  0  0  0
 34 36  1  0  0  0
 34 59  1  0  0  0
 34108  1  0  0  0
 35 44  2  0  0  0
 35 45  1  0  0  0
 35 68  1  0  0  0
 36 56  1  0  0  0
 36109  1  0  0  0
 37 39  1  0  0  0
 37 47  1  0  0  0
 37 66  1  0  0  0
 37110  1  0  0  0
 38 43  2  0  0  0
 38 46  1  0  0  0
 38 47  1  0  0  0
 39 64  1  0  0  0
 39 67  2  0  0  0
 40 52  1  0  0  0
 40 53  2  0  0  0
 40 58  1  0  0  0
 41111  1  0  0  0
 41112  1  0  0  0
 41113  1  0  0  0
 41 48  1  0  0  0
 42 43  1  0  0  0
 42 66  1  0  0  0
 42114  1  0  0  0
 42115  1  0  0  0
 43 44  1  0  0  0
 44116  1  0  0  0
 45 46  2  0  0  0
 45117  1  0  0  0
 46118  1  0  0  0
 47119  1  0  0  0
 47120  1  0  0  0
 48 56  1  0  0  0
 48 65  1  0  0  0
 48121  1  0  0  0
 49 50  1  0  0  0
 49 53  1  0  0  0
 49 64  1  0  0  0
 49122  1  0  0  0
 50 51  1  0  0  0
 50123  1  0  0  0
 50124  1  0  0  0
 51 52  1  0  0  0
 51125  1  0  0  0
 51126  1  0  0  0
 52127  1  0  0  0
 52128  1  0  0  0
 53 54  1  0  0  0
 54 55  2  0  0  0
 54129  1  0  0  0
 55 57  1  0  0  0
 55130  1  0  0  0
 56 69  2  0  0  0
 57 58  2  0  0  0
 57131  1  0  0  0
 58132  1  0  0  0
 59 60  1  0  0  0
 59 61  1  0  0  0
 59 62  1  0  0  0
 60133  1  0  0  0
 60134  1  0  0  0
 60135  1  0  0  0
 61136  1  0  0  0
 61137  1  0  0  0
 61138  1  0  0  0
 62139  1  0  0  0
 62140  1  0  0  0
 62141  1  0  0  0
 63 65  1  0  0  0
 63142  1  0  0  0
 63143  1  0  0  0
 63144  1  0  0  0
 64145  1  0  0  0
 65146  1  0  0  0
 68 84  1  0  0  0
 71 72  2  0  0  0
 71 74  1  0  0  0
 71147  1  0  0  0
 72 75  1  0  0  0
 72148  1  0  0  0
 73 75  2  0  0  0
 73 76  1  0  0  0
 73149  1  0  0  0
 74 76  2  0  0  0
 74 83  1  0  0  0
 75 85  1  0  0  0
 76 87  1  0  0  0
 77 78  1  0  0  0
 77 81  1  0  0  0
 77 86  2  0  0  0
 78 79  1  0  0  0
 78150  1  0  0  0
 78151  1  0  0  0
 79 85  1  0  0  0
 79152  1  0  0  0
 79153  1  0  0  0
 80 81  1  0  0  0
 80 85  1  0  0  0
 80154  1  0  0  0
 80155  1  0  0  0
 81 84  1  0  0  0
 81156  1  0  0  0
 82 87  1  0  0  0
 82157  1  0  0  0
 82158  1  0  0  0
 82159  1  0  0  0
 83160  1  0  0  0
 83161  1  0  0  0
 84162  1  0  0  0
 84163  1  0  0  0
M  ISO  4   1 100  68 101  83 100  84 101
M  END
> <chiral flag>
0

> <version>
0

> <s_m_source_file>
/data/baiqing/PycharmProjects/Reinvent-master-3.2/result/LINK_invent/BTK/process_docking_weight1_custom_product_contain_oxygen_bond_distance_aromatic_linkinvent_7_9_3/rearranged_h_0103.sdf

> <i_m_source_file_index>
67

> <r_mmod_Potential_Energy-OPLS-2005>
48.750560760498

> <r_mmod_Stretch_Energy-OPLS-2005>
76.8150024414062

> <r_mmod_Bend_Energy-OPLS-2005>
159.551956176758

> <r_mmod_Torsional_Energy-OPLS-2005>
161.633895874023

> <r_mmod_Improper_Torsional_Energy-OPLS-2005>
2.18889880180359

> <r_mmod_Van_der_Waal_Energy-OPLS-2005>
166.764709472656

> <r_mmod_Electrostatic_Energy-OPLS-2005>
-322.867706298828

> <r_mmod_Solvation_Energy-OPLS-2005>
-226.564056396484

> <b_mmod_Minimization_Converged-OPLS-2005>
0

> <r_mmod_RMS_Derivative-OPLS-2005>
1.05088806152344

$$$$
67
                    3D
 Structure written by MMmdl.
170178  0  0  1  0            999 V2000
  -30.6852  -14.5333   20.3741 C   0  0  0  0  0  0
  -30.4033  -12.2780   19.4410 C   0  0  0  0  0  0
  -29.4988  -12.4378   18.2049 C   0  0  0  0  0  0
  -28.0129  -12.3655   18.6116 C   0  0  0  0  0  0
  -27.6657  -13.2145   19.8601 C   0  0  2  0  0  0
  -28.7109  -13.0527   20.9835 C   0  0  0  0  0  0
  -25.2772  -13.8228   20.5703 C   0  0  0  0  0  0
  -24.1977  -13.0504   20.9224 C   0  0  0  0  0  0
  -24.6505  -11.7010   20.8750 C   0  0  0  0  0  0
  -23.9141  -10.4411   21.0477 C   0  0  0  0  0  0
  -24.3717   -9.4310   21.9218 C   0  0  0  0  0  0
  -23.6396   -8.2321   22.0756 C   0  0  0  0  0  0
  -22.4375   -8.0370   21.3543 C   0  0  0  0  0  0
  -22.0037   -9.0376   20.4662 C   0  0  0  0  0  0
  -22.7359  -10.2264   20.3094 C   0  0  0  0  0  0
  -21.6925   -6.0812   22.5270 C   0  0  0  0  0  0
  -21.4027   -6.5696   23.8215 C   0  0  0  0  0  0
  -21.3601   -5.6809   24.9156 C   0  0  0  0  0  0
  -21.6012   -4.3087   24.7177 C   0  0  0  0  0  0
  -21.8846   -3.8202   23.4307 C   0  0  0  0  0  0
  -21.9290   -4.7047   22.3389 C   0  0  0  0  0  0
  -22.8025  -13.5364   21.1837 C   0  0  0  0  0  0
  -22.1787   -4.2246   21.0959 F   0  0  0  0  0  0
  -21.5614   -3.4537   25.7673 F   0  0  0  0  0  0
  -30.0290  -13.3294   20.4084 N   0  0  0  0  0  0
  -26.3138  -12.9353   20.3342 N   0  0  0  0  0  0
  -25.9426  -11.6545   20.5817 N   0  0  0  0  0  0
  -22.0634  -12.8320   22.0347 N   0  0  0  0  0  0
  -25.4627  -15.1888   20.4053 N   0  0  0  0  0  0
  -31.8749  -14.5448   20.0883 O   0  0  0  0  0  0
  -21.6707   -6.8967   21.4237 O   0  0  0  0  0  0
  -22.3750  -14.5704   20.6795 O   0  0  0  0  0  0
  -24.6090  -31.8727   23.2182 C   0  0  0  0  0  0
  -25.9025  -32.4872   23.8450 C   0  0  1  0  0  0
  -27.2402  -27.4611   20.0639 C   0  0  0  0  0  0
  -25.5903  -33.8659   24.2379 N   0  0  0  0  0  0
  -23.3948  -30.5026   21.5514 C   0  0  2  0  0  0
  -24.8428  -28.9777   20.1008 C   0  0  0  0  0  0
  -22.7381  -29.4745   22.4986 C   0  0  0  0  0  0
  -18.0273  -28.1418   22.8521 C   0  0  0  0  0  0
  -24.1449  -36.7321   23.2640 C   0  0  0  0  0  0
  -25.9183  -30.8426   21.3695 C   0  0  0  0  0  0
  -25.9955  -29.4728   20.7212 C   0  0  0  0  0  0
  -27.1875  -28.7126   20.7212 C   0  0  0  0  0  0
  -26.0670  -26.9765   19.4437 C   0  0  0  0  0  0
  -24.8753  -27.7253   19.4621 C   0  0  0  0  0  0
  -23.5979  -29.8380   20.1615 C   0  0  0  0  0  0
  -25.4078  -36.3134   24.0343 C   0  0  1  0  0  0
  -20.5871  -28.3713   23.1302 C   0  0  2  0  0  0
  -20.6809  -26.9447   22.5421 C   0  0  0  0  0  0
  -19.5778  -26.6423   21.5233 C   0  0  0  0  0  0
  -18.1939  -26.7987   22.1608 C   0  0  0  0  0  0
  -19.1533  -28.8869   23.2928 C   0  0  0  0  0  0
  -18.9451  -30.1483   23.8929 C   0  0  0  0  0  0
  -17.6460  -30.6642   24.0566 C   0  0  0  0  0  0
  -25.9025  -34.9499   23.5159 C   0  0  0  0  0  0
  -16.5356  -29.9135   23.6325 C   0  0  0  0  0  0
  -16.7262  -28.6541   23.0364 C   0  0  0  0  0  0
  -26.4526  -31.6622   25.0745 C   0  0  0  0  0  0
  -25.3803  -31.3641   26.1495 C   0  0  0  0  0  0
  -27.0414  -30.3099   24.6072 C   0  0  0  0  0  0
  -27.6122  -32.4343   25.7486 C   0  0  0  0  0  0
  -27.5572  -37.1810   24.8490 C   0  0  0  0  0  0
  -21.4131  -29.3074   22.3704 N   0  0  0  0  0  0
  -26.4270  -37.3826   23.9443 N   0  0  0  0  0  0
  -24.6586  -31.0850   22.1064 N   0  0  0  0  0  0
  -23.4156  -28.8302   23.3063 O   0  0  0  0  0  0
  -28.4339  -26.7631   20.0530 O   0  0  0  0  0  0
  -26.5554  -34.8954   22.4693 O   0  0  0  0  0  0
  -23.5313  -32.1474   23.7619 O   0  0  0  0  0  0
  -32.0550  -18.7981   21.9694 C   0  0  0  0  0  0
  -29.4129  -18.0280   21.5537 C   0  0  0  0  0  0
  -31.7785  -17.6405   21.2065 C   0  0  0  0  0  0
  -31.0186  -19.6369   22.4148 C   0  0  0  0  0  0
  -30.4313  -17.1548   21.0900 C   0  0  0  0  0  0
  -29.6951  -19.3109   22.0637 C   0  0  0  0  0  0
  -32.9732  -17.0694   20.4634 C   0  0  0  0  0  0
  -31.3608  -20.8973   23.1907 C   0  0  0  0  0  0
  -28.6936  -17.5939   18.6020 C   0  0  0  0  0  0
  -29.5994  -16.3314   18.8183 C   0  0  0  0  0  0
  -29.4059  -23.6840   20.4100 C   0  0  0  0  0  0
  -28.3947  -24.3343   19.4159 C   0  0  0  0  0  0
  -28.7831  -22.6259   21.3694 C   0  0  0  0  0  0
  -28.6923  -25.8101   19.0083 C   0  0  0  0  0  0
  -28.6850  -21.1316   20.9432 C   0  0  0  0  0  0
  -29.9059  -15.9083   20.3025 C   0  0  1  0  0  0
  -28.6998  -20.2653   22.1002 O   0  0  0  0  0  0
  -31.4542  -12.3173   19.1492 H   0  0  0  0  0  0
  -30.2509  -11.2821   19.8638 H   0  0  0  0  0  0
  -29.6996  -11.6499   17.4801 H   0  0  0  0  0  0
  -29.7240  -13.3736   17.6892 H   0  0  0  0  0  0
  -27.7713  -11.3160   18.7982 H   0  0  0  0  0  0
  -27.3853  -12.6691   17.7765 H   0  0  0  0  0  0
  -27.6912  -14.2506   19.5337 H   0  0  0  0  0  0
  -28.6812  -12.0337   21.3717 H   0  0  0  0  0  0
  -28.4971  -13.7024   21.8363 H   0  0  0  0  0  0
  -25.2880   -9.5805   22.4752 H   0  0  0  0  0  0
  -24.0168   -7.4708   22.7435 H   0  0  0  0  0  0
  -21.1039   -8.8939   19.8923 H   0  0  0  0  0  0
  -22.3891  -10.9838   19.6198 H   0  0  0  0  0  0
  -21.1944   -7.6192   23.9745 H   0  0  0  0  0  0
  -21.1367   -6.0518   25.9057 H   0  0  0  0  0  0
  -22.0664   -2.7664   23.2778 H   0  0  0  0  0  0
  -22.4293  -11.9941   22.4583 H   0  0  0  0  0  0
  -21.1209  -13.1269   22.2484 H   0  0  0  0  0  0
  -24.7085  -15.8616   20.4790 H   0  0  0  0  0  0
  -26.3244  -15.5963   20.0662 H   0  0  0  0  0  0
  -26.7089  -32.5668   23.1225 H   0  0  0  0  0  0
  -25.0104  -33.9807   25.0564 H   0  0  0  0  0  0
  -22.6817  -31.3218   21.4253 H   0  0  0  0  0  0
  -23.3739  -35.9648   23.3343 H   0  0  0  0  0  0
  -24.3542  -36.8895   22.2056 H   0  0  0  0  0  0
  -23.7160  -37.6514   23.6634 H   0  0  0  0  0  0
  -26.0103  -31.6078   20.5983 H   0  0  0  0  0  0
  -26.8130  -30.9117   21.9736 H   0  0  0  0  0  0
  -28.0707  -29.0895   21.2177 H   0  0  0  0  0  0
  -26.0681  -26.0328   18.9251 H   0  0  0  0  0  0
  -23.9930  -27.3513   18.9622 H   0  0  0  0  0  0
  -23.6956  -30.6211   19.4125 H   0  0  0  0  0  0
  -22.7207  -29.2587   19.8725 H   0  0  0  0  0  0
  -25.1236  -36.2031   25.0837 H   0  0  0  0  0  0
  -20.9956  -28.3328   24.1419 H   0  0  0  0  0  0
  -20.5796  -26.2300   23.3611 H   0  0  0  0  0  0
  -21.6653  -26.7595   22.1125 H   0  0  0  0  0  0
  -19.6950  -25.6337   21.1237 H   0  0  0  0  0  0
  -19.6714  -27.3255   20.6782 H   0  0  0  0  0  0
  -17.4219  -26.6780   21.4001 H   0  0  0  0  0  0
  -18.0315  -26.0131   22.8980 H   0  0  0  0  0  0
  -19.7935  -30.7313   24.2280 H   0  0  0  0  0  0
  -17.5022  -31.6320   24.5178 H   0  0  0  0  0  0
  -15.5357  -30.3038   23.7668 H   0  0  0  0  0  0
  -15.8667  -28.0876   22.7046 H   0  0  0  0  0  0
  -24.5953  -30.7054   25.7767 H   0  0  0  0  0  0
  -24.9037  -32.2761   26.5087 H   0  0  0  0  0  0
  -25.8159  -30.8661   27.0148 H   0  0  0  0  0  0
  -26.2941  -29.6782   24.1247 H   0  0  0  0  0  0
  -27.4374  -29.7448   25.4511 H   0  0  0  0  0  0
  -27.8691  -30.4528   23.9119 H   0  0  0  0  0  0
  -27.2764  -33.3609   26.2151 H   0  0  0  0  0  0
  -28.3863  -32.6919   25.0249 H   0  0  0  0  0  0
  -28.0871  -31.8400   26.5299 H   0  0  0  0  0  0
  -28.2586  -38.0099   24.7521 H   0  0  0  0  0  0
  -28.1030  -36.2620   24.6319 H   0  0  0  0  0  0
  -27.2290  -37.1485   25.8888 H   0  0  0  0  0  0
  -20.9290  -29.8626   21.6775 H   0  0  0  0  0  0
  -26.0180  -38.2908   24.1486 H   0  0  0  0  0  0
  -33.0756  -19.1287   22.1214 H   0  0  0  0  0  0
  -28.3792  -17.7726   21.3600 H   0  0  0  0  0  0
  -33.7829  -17.8023   20.3918 H   0  0  0  0  0  0
  -32.7085  -16.8118   19.4373 H   0  0  0  0  0  0
  -33.3875  -16.2017   20.9729 H   0  0  0  0  0  0
  -31.9554  -20.6613   24.0738 H   0  0  0  0  0  0
  -30.4746  -21.4052   23.5669 H   0  0  0  0  0  0
  -31.9219  -21.5833   22.5576 H   0  0  0  0  0  0
  -29.1613  -18.5095   18.9769 H   0  0  0  0  0  0
  -27.7208  -17.4951   19.0986 H   0  0  0  0  0  0
  -28.4740  -17.7876   17.5502 H   0  0  0  0  0  0
  -29.1362  -15.4839   18.3151 H   0  0  0  0  0  0
  -30.5472  -16.4903   18.2921 H   0  0  0  0  0  0
  -29.7599  -24.4951   21.0528 H   0  0  0  0  0  0
  -30.3144  -23.3026   19.9273 H   0  0  0  0  0  0
  -27.4068  -24.3245   19.8678 H   0  0  0  0  0  0
  -28.3147  -23.7033   18.5229 H   0  0  0  0  0  0
  -27.8031  -22.9729   21.6940 H   0  0  0  0  0  0
  -29.3882  -22.6593   22.2696 H   0  0  0  0  0  0
  -28.1476  -26.0817   18.0968 H   0  0  0  0  0  0
  -29.7404  -25.9225   18.7287 H   0  0  0  0  0  0
  -29.4717  -20.8636   20.2325 H   0  0  0  0  0  0
  -27.7500  -20.9498   20.4022 H   0  0  0  0  0  0
  -28.9508  -15.6750   20.7618 H   0  0  0  0  0  0
  1 25  1  0  0  0
  1 30  2  0  0  0
  1 86  1  0  0  0
  2  3  1  0  0  0
  2 25  1  0  0  0
  2 88  1  0  0  0
  2 89  1  0  0  0
  3  4  1  0  0  0
  3 90  1  0  0  0
  3 91  1  0  0  0
  4  5  1  0  0  0
  4 92  1  0  0  0
  4 93  1  0  0  0
  5  6  1  0  0  0
  5 26  1  0  0  0
  5 94  1  0  0  0
  6 25  1  0  0  0
  6 95  1  0  0  0
  6 96  1  0  0  0
  7  8  2  0  0  0
  7 26  1  0  0  0
  7 29  1  0  0  0
  8  9  1  0  0  0
  8 22  1  0  0  0
  9 10  1  0  0  0
  9 27  2  0  0  0
 10 11  2  0  0  0
 10 15  1  0  0  0
 11 12  1  0  0  0
 11 97  1  0  0  0
 12 13  2  0  0  0
 12 98  1  0  0  0
 13 14  1  0  0  0
 13 31  1  0  0  0
 14 15  2  0  0  0
 14 99  1  0  0  0
 15100  1  0  0  0
 16 17  2  0  0  0
 16 21  1  0  0  0
 16 31  1  0  0  0
 17 18  1  0  0  0
 17101  1  0  0  0
 18 19  2  0  0  0
 18102  1  0  0  0
 19 20  1  0  0  0
 19 24  1  0  0  0
 20 21  2  0  0  0
 20103  1  0  0  0
 21 23  1  0  0  0
 22 28  1  0  0  0
 22 32  2  0  0  0
 26 27  1  0  0  0
 28104  1  0  0  0
 28105  1  0  0  0
 29106  1  0  0  0
 29107  1  0  0  0
 33 34  1  0  0  0
 33 66  1  0  0  0
 33 70  2  0  0  0
 34 36  1  0  0  0
 34 59  1  0  0  0
 34108  1  0  0  0
 35 44  2  0  0  0
 35 45  1  0  0  0
 35 68  1  0  0  0
 36 56  1  0  0  0
 36109  1  0  0  0
 37 39  1  0  0  0
 37 47  1  0  0  0
 37 66  1  0  0  0
 37110  1  0  0  0
 38 43  2  0  0  0
 38 46  1  0  0  0
 38 47  1  0  0  0
 39 64  1  0  0  0
 39 67  2  0  0  0
 40 52  1  0  0  0
 40 53  2  0  0  0
 40 58  1  0  0  0
 41111  1  0  0  0
 41112  1  0  0  0
 41113  1  0  0  0
 41 48  1  0  0  0
 42 43  1  0  0  0
 42 66  1  0  0  0
 42114  1  0  0  0
 42115  1  0  0  0
 43 44  1  0  0  0
 44116  1  0  0  0
 45 46  2  0  0  0
 45117  1  0  0  0
 46118  1  0  0  0
 47119  1  0  0  0
 47120  1  0  0  0
 48 56  1  0  0  0
 48 65  1  0  0  0
 48121  1  0  0  0
 49 50  1  0  0  0
 49 53  1  0  0  0
 49 64  1  0  0  0
 49122  1  0  0  0
 50 51  1  0  0  0
 50123  1  0  0  0
 50124  1  0  0  0
 51 52  1  0  0  0
 51125  1  0  0  0
 51126  1  0  0  0
 52127  1  0  0  0
 52128  1  0  0  0
 53 54  1  0  0  0
 54 55  2  0  0  0
 54129  1  0  0  0
 55 57  1  0  0  0
 55130  1  0  0  0
 56 69  2  0  0  0
 57 58  2  0  0  0
 57131  1  0  0  0
 58132  1  0  0  0
 59 60  1  0  0  0
 59 61  1  0  0  0
 59 62  1  0  0  0
 60133  1  0  0  0
 60134  1  0  0  0
 60135  1  0  0  0
 61136  1  0  0  0
 61137  1  0  0  0
 61138  1  0  0  0
 62139  1  0  0  0
 62140  1  0  0  0
 62141  1  0  0  0
 63 65  1  0  0  0
 63142  1  0  0  0
 63143  1  0  0  0
 63144  1  0  0  0
 64145  1  0  0  0
 65146  1  0  0  0
 68 84  1  0  0  0
 71 73  2  0  0  0
 71 74  1  0  0  0
 71147  1  0  0  0
 72 75  2  0  0  0
 72 76  1  0  0  0
 72148  1  0  0  0
 73 75  1  0  0  0
 73 77  1  0  0  0
 74 76  2  0  0  0
 74 78  1  0  0  0
 75 86  1  0  0  0
 76 87  1  0  0  0
 77149  1  0  0  0
 77150  1  0  0  0
 77151  1  0  0  0
 78152  1  0  0  0
 78153  1  0  0  0
 78154  1  0  0  0
 79 80  1  0  0  0
 79155  1  0  0  0
 79156  1  0  0  0
 79157  1  0  0  0
 80158  1  0  0  0
 80159  1  0  0  0
 80 86  1  0  0  0
 81 82  1  0  0  0
 81 83  1  0  0  0
 81160  1  0  0  0
 81161  1  0  0  0
 82 84  1  0  0  0
 82162  1  0  0  0
 82163  1  0  0  0
 83 85  1  0  0  0
 83164  1  0  0  0
 83165  1  0  0  0
 84166  1  0  0  0
 84167  1  0  0  0
 85 87  1  0  0  0
 85168  1  0  0  0
 85169  1  0  0  0
 86170  1  0  0  0
M  ISO  4   1 100  68 101  84 101  86 100
M  END
> <chiral flag>
0

> <version>
0

> <s_m_source_file>
/data/baiqing/PycharmProjects/Reinvent-master-3.2/result/LINK_invent/BTK/process_docking_weight1_custom_product_contain_oxygen_bond_distance_aromatic_linkinvent_7_9_3/rearranged_h_0103.sdf

> <i_m_source_file_index>
68

> <r_mmod_Potential_Energy-OPLS-2005>
198.542007446289

> <r_mmod_Stretch_Energy-OPLS-2005>
55.8734855651855

> <r_mmod_Bend_Energy-OPLS-2005>
144.6376953125

> <r_mmod_Torsional_Energy-OPLS-2005>
274.760803222656

> <r_mmod_Improper_Torsional_Energy-OPLS-2005>
12.2341117858887

> <r_mmod_Van_der_Waal_Energy-OPLS-2005>
158.355895996094

> <r_mmod_Electrostatic_Energy-OPLS-2005>
-286.698120117188

> <r_mmod_Solvation_Energy-OPLS-2005>
-187.847290039062

> <b_mmod_Minimization_Converged-OPLS-2005>
0

> <r_mmod_RMS_Derivative-OPLS-2005>
10.6630296707153

$$$$
68
                    3D
 Structure written by MMmdl.
165174  0  0  1  0            999 V2000
  -30.6416  -14.7135   20.3910 C   0  0  0  0  0  0
  -30.3957  -12.4101   19.4720 C   0  0  0  0  0  0
  -29.4849  -12.4426   18.2268 C   0  0  0  0  0  0
  -28.0064  -12.3195   18.6391 C   0  0  0  0  0  0
  -27.6219  -13.2352   19.8329 C   0  0  2  0  0  0
  -28.6715  -13.2266   20.9630 C   0  0  0  0  0  0
  -25.2410  -13.8224   20.5736 C   0  0  0  0  0  0
  -24.1715  -13.0441   20.9249 C   0  0  0  0  0  0
  -24.6327  -11.6930   20.8772 C   0  0  0  0  0  0
  -23.9014  -10.4292   21.0403 C   0  0  0  0  0  0
  -24.3573   -9.4196   21.9166 C   0  0  0  0  0  0
  -23.6267   -8.2227   22.0732 C   0  0  0  0  0  0
  -22.4252   -8.0247   21.3531 C   0  0  0  0  0  0
  -21.9878   -9.0213   20.4624 C   0  0  0  0  0  0
  -22.7188  -10.2110   20.3044 C   0  0  0  0  0  0
  -21.6844   -6.0698   22.5271 C   0  0  0  0  0  0
  -21.4019   -6.5605   23.8205 C   0  0  0  0  0  0
  -21.3678   -5.6766   24.9169 C   0  0  0  0  0  0
  -21.6058   -4.3029   24.7223 C   0  0  0  0  0  0
  -21.8810   -3.8113   23.4342 C   0  0  0  0  0  0
  -21.9177   -4.6928   22.3394 C   0  0  0  0  0  0
  -22.7734  -13.5206   21.1910 C   0  0  0  0  0  0
  -22.1636   -4.2108   21.0972 F   0  0  0  0  0  0
  -21.5647   -3.4514   25.7740 F   0  0  0  0  0  0
  -29.9652  -13.5197   20.3458 N   0  0  0  0  0  0
  -26.2811  -12.9436   20.3252 N   0  0  0  0  0  0
  -25.9256  -11.6576   20.5792 N   0  0  0  0  0  0
  -22.0386  -12.8210   22.0494 N   0  0  0  0  0  0
  -25.4142  -15.1948   20.4244 N   0  0  0  0  0  0
  -31.8758  -14.7029   20.3835 O   0  0  0  0  0  0
  -21.6625   -6.8832   21.4231 O   0  0  0  0  0  0
  -22.3387  -14.5473   20.6694 O   0  0  0  0  0  0
  -24.6263  -31.8611   23.2057 C   0  0  0  0  0  0
  -25.9118  -32.4787   23.8368 C   0  0  1  0  0  0
  -27.2092  -27.3235   20.1021 C   0  0  0  0  0  0
  -25.5933  -33.8592   24.2285 N   0  0  0  0  0  0
  -23.4136  -30.4892   21.5505 C   0  0  2  0  0  0
  -24.8530  -28.9464   20.1036 C   0  0  0  0  0  0
  -22.7454  -29.4657   22.4990 C   0  0  0  0  0  0
  -18.0280  -28.1393   22.8495 C   0  0  0  0  0  0
  -24.1482  -36.7283   23.2636 C   0  0  0  0  0  0
  -25.9554  -30.7926   21.3743 C   0  0  0  0  0  0
  -26.0228  -29.4249   20.7063 C   0  0  0  0  0  0
  -27.2007  -28.6255   20.6950 C   0  0  0  0  0  0
  -26.0098  -26.8873   19.4941 C   0  0  0  0  0  0
  -24.8487  -27.6849   19.4875 C   0  0  0  0  0  0
  -23.6219  -29.8277   20.1627 C   0  0  0  0  0  0
  -25.4113  -36.3099   24.0339 C   0  0  1  0  0  0
  -20.5869  -28.3690   23.1296 C   0  0  2  0  0  0
  -20.6782  -26.9415   22.5417 C   0  0  0  0  0  0
  -19.5761  -26.6380   21.5229 C   0  0  0  0  0  0
  -18.1936  -26.7936   22.1632 C   0  0  0  0  0  0
  -19.1528  -28.8857   23.2883 C   0  0  0  0  0  0
  -18.9456  -30.1470   23.8892 C   0  0  0  0  0  0
  -17.6445  -30.6584   24.0573 C   0  0  0  0  0  0
  -25.9056  -34.9466   23.5107 C   0  0  0  0  0  0
  -16.5339  -29.9085   23.6336 C   0  0  0  0  0  0
  -16.7262  -28.6508   23.0349 C   0  0  0  0  0  0
  -26.4491  -31.6613   25.0739 C   0  0  0  0  0  0
  -25.3707  -31.3781   26.1464 C   0  0  0  0  0  0
  -27.0328  -30.3038   24.6203 C   0  0  0  0  0  0
  -27.6049  -32.4365   25.7476 C   0  0  0  0  0  0
  -27.5582  -37.1809   24.8458 C   0  0  0  0  0  0
  -21.4177  -29.3032   22.3688 N   0  0  0  0  0  0
  -26.4288  -37.3801   23.9414 N   0  0  0  0  0  0
  -24.6841  -31.0642   22.0997 N   0  0  0  0  0  0
  -23.4176  -28.8225   23.3079 O   0  0  0  0  0  0
  -28.3484  -26.5067   20.1676 O   0  0  0  0  0  0
  -26.5598  -34.8938   22.4664 O   0  0  0  0  0  0
  -23.5436  -32.1396   23.7418 O   0  0  0  0  0  0
  -28.4079  -19.3070   19.6879 C   0  0  0  0  0  0
  -29.9920  -19.2944   21.4655 C   0  0  0  0  0  0
  -28.6472  -17.9149   19.4657 C   0  0  0  0  0  0
  -30.2815  -17.9075   21.2444 C   0  0  0  0  0  0
  -29.0768  -20.0516   20.6819 C   0  0  0  0  0  0
  -29.6324  -17.1540   20.2044 C   0  0  0  0  0  0
  -28.2320  -23.8806   20.5814 C   0  0  0  0  0  0
  -27.7070  -24.0018   21.8599 C   0  0  0  0  0  0
  -28.6306  -22.5107   20.0774 C   0  0  0  0  0  0
  -27.5815  -22.7681   22.7358 C   0  0  0  0  0  0
  -28.7048  -21.7840   22.4177 C   0  0  0  0  0  0
  -27.7721  -17.2978   18.3828 C   0  0  0  0  0  0
  -31.3592  -17.3066   22.1300 C   0  0  0  0  0  0
  -30.4571  -15.8229   18.3257 C   0  0  0  0  0  0
  -28.3991  -25.1281   19.6227 C   0  0  0  0  0  0
  -28.7658  -21.4664   20.9885 N   0  0  0  0  0  0
  -30.0256  -15.7850   19.7424 N   0  0  0  0  0  0
  -27.2942  -24.9861   22.5152 O   0  5  0  0  0  0
  -28.8345  -22.3244   18.8772 O   0  0  0  0  0  0
  -31.4456  -12.4872   19.1872 H   0  0  0  0  0  0
  -30.2896  -11.4581   19.9955 H   0  0  0  0  0  0
  -29.7452  -11.6304   17.5482 H   0  0  0  0  0  0
  -29.6302  -13.3597   17.6620 H   0  0  0  0  0  0
  -27.8373  -11.2765   18.9055 H   0  0  0  0  0  0
  -27.3547  -12.5225   17.7877 H   0  0  0  0  0  0
  -27.5997  -14.2442   19.4283 H   0  0  0  0  0  0
  -28.6948  -12.2705   21.4873 H   0  0  0  0  0  0
  -28.4303  -13.9912   21.7043 H   0  0  0  0  0  0
  -25.2697   -9.5678   22.4761 H   0  0  0  0  0  0
  -23.9962   -7.4612   22.7442 H   0  0  0  0  0  0
  -21.0812   -8.8710   19.8931 H   0  0  0  0  0  0
  -22.3601  -10.9643   19.6175 H   0  0  0  0  0  0
  -21.2022   -7.6118   23.9704 H   0  0  0  0  0  0
  -21.1530   -6.0491   25.9072 H   0  0  0  0  0  0
  -22.0585   -2.7577   23.2848 H   0  0  0  0  0  0
  -22.3980  -11.9903   22.4953 H   0  0  0  0  0  0
  -21.1020  -13.1268   22.2725 H   0  0  0  0  0  0
  -24.6640  -15.8595   20.5685 H   0  0  0  0  0  0
  -26.2896  -15.6359   20.1770 H   0  0  0  0  0  0
  -26.7187  -32.5446   23.1117 H   0  0  0  0  0  0
  -25.0132  -33.9736   25.0466 H   0  0  0  0  0  0
  -22.7033  -31.3086   21.4167 H   0  0  0  0  0  0
  -23.3764  -35.9594   23.3300 H   0  0  0  0  0  0
  -24.3555  -36.8887   22.2041 H   0  0  0  0  0  0
  -23.7214  -37.6485   23.6634 H   0  0  0  0  0  0
  -26.0909  -31.5663   20.6167 H   0  0  0  0  0  0
  -26.8333  -30.8271   22.0064 H   0  0  0  0  0  0
  -28.0979  -28.9923   21.1716 H   0  0  0  0  0  0
  -25.9263  -25.9090   19.0475 H   0  0  0  0  0  0
  -23.9467  -27.3095   19.0219 H   0  0  0  0  0  0
  -23.7315  -30.6052   19.4066 H   0  0  0  0  0  0
  -22.7409  -29.2564   19.8677 H   0  0  0  0  0  0
  -25.1311  -36.1946   25.0834 H   0  0  0  0  0  0
  -20.9958  -28.3283   24.1422 H   0  0  0  0  0  0
  -20.5706  -26.2317   23.3624 H   0  0  0  0  0  0
  -21.6664  -26.7475   22.1211 H   0  0  0  0  0  0
  -19.6920  -25.6291   21.1266 H   0  0  0  0  0  0
  -19.6704  -27.3194   20.6757 H   0  0  0  0  0  0
  -17.4223  -26.6699   21.4002 H   0  0  0  0  0  0
  -18.0319  -26.0065   22.9007 H   0  0  0  0  0  0
  -19.7925  -30.7294   24.2251 H   0  0  0  0  0  0
  -17.5002  -31.6264   24.5183 H   0  0  0  0  0  0
  -15.5351  -30.2984   23.7665 H   0  0  0  0  0  0
  -15.8671  -28.0828   22.7056 H   0  0  0  0  0  0
  -24.5852  -30.7160   25.7804 H   0  0  0  0  0  0
  -24.8919  -32.2957   26.4888 H   0  0  0  0  0  0
  -25.8015  -30.8947   27.0239 H   0  0  0  0  0  0
  -26.2909  -29.6794   24.1206 H   0  0  0  0  0  0
  -27.3994  -29.7303   25.4725 H   0  0  0  0  0  0
  -27.8792  -30.4326   23.9454 H   0  0  0  0  0  0
  -27.2658  -33.3672   26.2043 H   0  0  0  0  0  0
  -28.3839  -32.6930   25.0281 H   0  0  0  0  0  0
  -28.0730  -31.8494   26.5387 H   0  0  0  0  0  0
  -28.2648  -38.0070   24.7537 H   0  0  0  0  0  0
  -28.1054  -36.2622   24.6276 H   0  0  0  0  0  0
  -27.2295  -37.1455   25.8860 H   0  0  0  0  0  0
  -20.9367  -29.8710   21.6856 H   0  0  0  0  0  0
  -26.0175  -38.2880   24.1420 H   0  0  0  0  0  0
  -27.6600  -19.8138   19.0937 H   0  0  0  0  0  0
  -30.5160  -19.8058   22.2615 H   0  0  0  0  0  0
  -26.6165  -22.2892   22.5608 H   0  0  0  0  0  0
  -27.6174  -23.0052   23.8013 H   0  0  0  0  0  0
  -28.5534  -20.8852   23.0140 H   0  0  0  0  0  0
  -29.6633  -22.2071   22.7162 H   0  0  0  0  0  0
  -26.8215  -17.8273   18.3153 H   0  0  0  0  0  0
  -27.5319  -16.2599   18.5891 H   0  0  0  0  0  0
  -28.2437  -17.3735   17.4010 H   0  0  0  0  0  0
  -31.5846  -17.9547   22.9800 H   0  0  0  0  0  0
  -32.2823  -17.1804   21.5626 H   0  0  0  0  0  0
  -31.0545  -16.3463   22.5415 H   0  0  0  0  0  0
  -29.6241  -15.6244   17.6586 H   0  0  0  0  0  0
  -31.2257  -15.0954   18.0467 H   0  0  0  0  0  0
  -30.8688  -16.8015   18.0729 H   0  0  0  0  0  0
  -27.7720  -25.0023   18.7413 H   0  0  0  0  0  0
  -29.4075  -25.0484   19.2171 H   0  0  0  0  0  0
  1 25  1  0  0  0
  1 30  2  0  0  0
  1 87  1  0  0  0
  2  3  1  0  0  0
  2 25  1  0  0  0
  2 90  1  0  0  0
  2 91  1  0  0  0
  3  4  1  0  0  0
  3 92  1  0  0  0
  3 93  1  0  0  0
  4  5  1  0  0  0
  4 94  1  0  0  0
  4 95  1  0  0  0
  5  6  1  0  0  0
  5 26  1  0  0  0
  5 96  1  0  0  0
  6 25  1  0  0  0
  6 97  1  0  0  0
  6 98  1  0  0  0
  7  8  2  0  0  0
  7 26  1  0  0  0
  7 29  1  0  0  0
  8  9  1  0  0  0
  8 22  1  0  0  0
  9 10  1  0  0  0
  9 27  2  0  0  0
 10 11  2  0  0  0
 10 15  1  0  0  0
 11 12  1  0  0  0
 11 99  1  0  0  0
 12 13  2  0  0  0
 12100  1  0  0  0
 13 14  1  0  0  0
 13 31  1  0  0  0
 14 15  2  0  0  0
 14101  1  0  0  0
 15102  1  0  0  0
 16 17  2  0  0  0
 16 21  1  0  0  0
 16 31  1  0  0  0
 17 18  1  0  0  0
 17103  1  0  0  0
 18 19  2  0  0  0
 18104  1  0  0  0
 19 20  1  0  0  0
 19 24  1  0  0  0
 20 21  2  0  0  0
 20105  1  0  0  0
 21 23  1  0  0  0
 22 28  1  0  0  0
 22 32  2  0  0  0
 26 27  1  0  0  0
 28106  1  0  0  0
 28107  1  0  0  0
 29108  1  0  0  0
 29109  1  0  0  0
 33 34  1  0  0  0
 33 66  1  0  0  0
 33 70  2  0  0  0
 34 36  1  0  0  0
 34 59  1  0  0  0
 34110  1  0  0  0
 35 44  2  0  0  0
 35 45  1  0  0  0
 35 68  1  0  0  0
 36 56  1  0  0  0
 36111  1  0  0  0
 37 39  1  0  0  0
 37 47  1  0  0  0
 37 66  1  0  0  0
 37112  1  0  0  0
 38 43  2  0  0  0
 38 46  1  0  0  0
 38 47  1  0  0  0
 39 64  1  0  0  0
 39 67  2  0  0  0
 40 52  1  0  0  0
 40 53  2  0  0  0
 40 58  1  0  0  0
 41113  1  0  0  0
 41114  1  0  0  0
 41115  1  0  0  0
 41 48  1  0  0  0
 42 43  1  0  0  0
 42 66  1  0  0  0
 42116  1  0  0  0
 42117  1  0  0  0
 43 44  1  0  0  0
 44118  1  0  0  0
 45 46  2  0  0  0
 45119  1  0  0  0
 46120  1  0  0  0
 47121  1  0  0  0
 47122  1  0  0  0
 48 56  1  0  0  0
 48 65  1  0  0  0
 48123  1  0  0  0
 49 50  1  0  0  0
 49 53  1  0  0  0
 49 64  1  0  0  0
 49124  1  0  0  0
 50 51  1  0  0  0
 50125  1  0  0  0
 50126  1  0  0  0
 51 52  1  0  0  0
 51127  1  0  0  0
 51128  1  0  0  0
 52129  1  0  0  0
 52130  1  0  0  0
 53 54  1  0  0  0
 54 55  2  0  0  0
 54131  1  0  0  0
 55 57  1  0  0  0
 55132  1  0  0  0
 56 69  2  0  0  0
 57 58  2  0  0  0
 57133  1  0  0  0
 58134  1  0  0  0
 59 60  1  0  0  0
 59 61  1  0  0  0
 59 62  1  0  0  0
 60135  1  0  0  0
 60136  1  0  0  0
 60137  1  0  0  0
 61138  1  0  0  0
 61139  1  0  0  0
 61140  1  0  0  0
 62141  1  0  0  0
 62142  1  0  0  0
 62143  1  0  0  0
 63 65  1  0  0  0
 63144  1  0  0  0
 63145  1  0  0  0
 63146  1  0  0  0
 64147  1  0  0  0
 65148  1  0  0  0
 68 85  1  0  0  0
 71 73  2  0  0  0
 71 75  1  0  0  0
 71149  1  0  0  0
 72 74  1  0  0  0
 72 75  2  0  0  0
 72150  1  0  0  0
 73 76  1  0  0  0
 73 82  1  0  0  0
 74 76  2  0  0  0
 74 83  1  0  0  0
 75 86  1  0  0  0
 76 87  1  0  0  0
 77 78  2  0  0  0
 77 79  1  0  0  0
 77 85  1  0  0  0
 78 80  1  0  0  0
 78 88  1  0  0  0
 79 86  1  0  0  0
 79 89  2  0  0  0
 80 81  1  0  0  0
 80151  1  0  0  0
 80152  1  0  0  0
 81 86  1  0  0  0
 81153  1  0  0  0
 81154  1  0  0  0
 82155  1  0  0  0
 82156  1  0  0  0
 82157  1  0  0  0
 83158  1  0  0  0
 83159  1  0  0  0
 83160  1  0  0  0
 84 87  1  0  0  0
 84161  1  0  0  0
 84162  1  0  0  0
 84163  1  0  0  0
 85164  1  0  0  0
 85165  1  0  0  0
M  CHG  1  88  -1
M  ISO  4   1 100  68 101  85 101  87 100
M  END
> <chiral flag>
0

> <version>
0

> <s_m_source_file>
/data/baiqing/PycharmProjects/Reinvent-master-3.2/result/LINK_invent/BTK/process_docking_weight1_custom_product_contain_oxygen_bond_distance_aromatic_linkinvent_7_9_3/rearranged_h_0103.sdf

> <i_m_source_file_index>
69

> <r_mmod_Potential_Energy-OPLS-2005>
128.955261230469

> <r_mmod_Stretch_Energy-OPLS-2005>
110.339370727539

> <r_mmod_Bend_Energy-OPLS-2005>
191.278961181641

> <r_mmod_Torsional_Energy-OPLS-2005>
346.882995605469

> <r_mmod_Improper_Torsional_Energy-OPLS-2005>
31.1448936462402

> <r_mmod_Van_der_Waal_Energy-OPLS-2005>
172.777877807617

> <r_mmod_Electrostatic_Energy-OPLS-2005>
-328.095031738281

> <r_mmod_Solvation_Energy-OPLS-2005>
-477.177368164062

> <b_mmod_Minimization_Converged-OPLS-2005>
0

> <r_mmod_RMS_Derivative-OPLS-2005>
3.70165872573853

$$$$
69
                    3D
 Structure written by MMmdl.
170178  0  0  1  0            999 V2000
  -28.8835  -16.6872   21.1202 C   0  0  0  0  0  0
  -30.0796  -14.1121   19.8777 C   0  0  0  0  0  0
  -29.5573  -13.1865   18.6392 C   0  0  0  0  0  0
  -28.2796  -12.4383   19.0149 C   0  0  0  0  0  0
  -27.5004  -13.3975   19.9133 C   0  0  2  0  0  0
  -28.2709  -13.9362   21.1529 C   0  0  0  0  0  0
  -25.1571  -13.8174   20.5690 C   0  0  0  0  0  0
  -24.1113  -13.0258   20.9281 C   0  0  0  0  0  0
  -24.5913  -11.6804   20.8639 C   0  0  0  0  0  0
  -23.8780  -10.4210   21.0399 C   0  0  0  0  0  0
  -24.3345   -9.4240   21.9278 C   0  0  0  0  0  0
  -23.6096   -8.2200   22.0820 C   0  0  0  0  0  0
  -22.4031   -8.0191   21.3605 C   0  0  0  0  0  0
  -21.9687   -9.0138   20.4670 C   0  0  0  0  0  0
  -22.6957  -10.2040   20.3123 C   0  0  0  0  0  0
  -21.6804   -6.0639   22.5320 C   0  0  0  0  0  0
  -21.3961   -6.5542   23.8267 C   0  0  0  0  0  0
  -21.3617   -5.6698   24.9232 C   0  0  0  0  0  0
  -21.6082   -4.2982   24.7277 C   0  0  0  0  0  0
  -21.8782   -3.8049   23.4386 C   0  0  0  0  0  0
  -21.9162   -4.6874   22.3449 C   0  0  0  0  0  0
  -22.7201  -13.5096   21.1841 C   0  0  0  0  0  0
  -22.1629   -4.1953   21.1080 F   0  0  0  0  0  0
  -21.5639   -3.4566   25.7880 F   0  0  0  0  0  0
  -29.0377  -15.1024   20.7538 N   0  0  0  0  0  0
  -26.2003  -12.9619   20.3225 N   0  0  0  0  0  0
  -25.8845  -11.6581   20.5493 N   0  0  0  0  0  0
  -21.9772  -12.8285   22.0444 N   0  0  0  0  0  0
  -25.3358  -15.1970   20.4354 N   0  0  0  0  0  0
  -30.1154  -16.7672   20.7796 O   0  0  0  0  0  0
  -21.6536   -6.8655   21.4203 O   0  0  0  0  0  0
  -22.3072  -14.5467   20.6693 O   0  0  0  0  0  0
  -24.7138  -31.7406   23.1968 C   0  0  0  0  0  0
  -25.9517  -32.4455   23.8195 C   0  0  1  0  0  0
  -27.1042  -27.5001   20.0028 C   0  0  0  0  0  0
  -25.5914  -33.8305   24.1737 N   0  0  0  0  0  0
  -23.9072  -29.9463   21.5577 C   0  0  2  0  0  0
  -25.1764  -29.3216   19.9149 C   0  0  0  0  0  0
  -23.8202  -28.2466   22.0254 C   0  0  0  0  0  0
  -17.8692  -27.4577   22.9474 C   0  0  0  0  0  0
  -24.1417  -36.7035   23.2711 C   0  0  0  0  0  0
  -26.2694  -30.8105   21.5059 C   0  0  0  0  0  0
  -26.3459  -29.6349   20.6214 C   0  0  0  0  0  0
  -27.3761  -28.6846   20.7103 C   0  0  0  0  0  0
  -26.0838  -27.5238   19.1336 C   0  0  0  0  0  0
  -24.9692  -28.1814   19.2373 C   0  0  0  0  0  0
  -24.0619  -30.1926   20.0764 C   0  0  0  0  0  0
  -25.4063  -36.2801   24.0302 C   0  0  1  0  0  0
  -20.8783  -26.3232   22.8931 C   0  0  2  0  0  0
  -19.9481  -26.2084   22.0294 C   0  0  0  0  0  0
  -18.5946  -28.0764   21.2337 C   0  0  0  0  0  0
  -17.4540  -27.9531   21.6227 C   0  0  0  0  0  0
  -19.2704  -27.2909   23.6052 C   0  0  0  0  0  0
  -19.1582  -28.4515   24.5623 C   0  0  0  0  0  0
  -18.2004  -29.5602   24.5411 C   0  0  0  0  0  0
  -25.9094  -34.9190   23.4773 C   0  0  0  0  0  0
  -16.9306  -29.3809   24.0329 C   0  0  0  0  0  0
  -16.7574  -28.1104   23.5193 C   0  0  0  0  0  0
  -26.4686  -31.6682   25.0786 C   0  0  0  0  0  0
  -25.3620  -31.4272   26.1274 C   0  0  0  0  0  0
  -27.0960  -30.3031   24.7093 C   0  0  0  0  0  0
  -27.6141  -32.4677   25.7532 C   0  0  0  0  0  0
  -27.5513  -37.1591   24.8540 C   0  0  0  0  0  0
  -22.6484  -27.0793   21.7701 N   0  0  0  0  0  0
  -26.4180  -37.3485   23.9581 N   0  0  0  0  0  0
  -24.9413  -30.8595   22.1768 N   0  0  0  0  0  0
  -24.2752  -28.3587   23.1855 O   0  0  0  0  0  0
  -27.6315  -26.2865   20.1317 O   0  0  0  0  0  0
  -26.5853  -34.8828   22.4536 O   0  0  0  0  0  0
  -23.5841  -32.0229   23.6481 O   0  0  0  0  0  0
  -21.5082  -29.3425   21.8777 C   0  0  0  0  0  0
  -21.7589  -29.0920   20.1305 C   0  0  0  0  0  0
  -20.7388  -28.5090   22.0612 C   0  0  0  0  0  0
  -20.5372  -27.6044   20.4098 C   0  0  0  0  0  0
  -21.7569  -28.3934   23.2544 C   0  0  0  0  0  0
  -21.4908  -27.9438   19.3738 C   0  0  0  0  0  0
  -18.9155  -24.9280   19.3148 C   0  0  0  0  0  0
  -19.1901  -26.2433   19.7857 C   0  0  0  0  0  0
  -26.3366  -20.5645   22.0039 C   0  0  0  0  0  0
  -23.1944  -26.1686   23.8413 C   0  0  0  0  0  0
  -27.5075  -18.5263   21.8684 C   0  0  0  0  0  0
  -24.0999  -25.4154   18.1125 C   0  0  0  0  0  0
  -25.4522  -24.7272   18.7531 C   0  0  0  0  0  0
  -24.4320  -24.1359   22.8064 C   0  0  0  0  0  0
  -22.8838  -25.9014   18.9814 C   0  0  0  0  0  0
  -26.7506  -25.0829   19.6430 C   0  0  0  0  0  0
  -21.9005  -26.9252   18.5121 N   0  0  0  0  0  0
  -25.6346  -22.2430   22.5807 N   0  0  0  0  0  0
  -26.2129  -20.7283   20.7331 O   0  0  0  0  0  0
  -30.8891  -14.7265   19.4996 H   0  0  0  0  0  0
  -30.6195  -13.4635   20.5619 H   0  0  0  0  0  0
  -30.3043  -12.4661   18.2906 H   0  0  0  0  0  0
  -29.3780  -13.7958   17.7430 H   0  0  0  0  0  0
  -28.5315  -11.5930   19.6555 H   0  0  0  0  0  0
  -27.7224  -12.0560   18.1549 H   0  0  0  0  0  0
  -27.2821  -14.2231   19.2317 H   0  0  0  0  0  0
  -28.8373  -13.1652   21.6569 H   0  0  0  0  0  0
  -27.6129  -14.3274   21.9183 H   0  0  0  0  0  0
  -25.2397   -9.5762   22.4963 H   0  0  0  0  0  0
  -23.9786   -7.4549   22.7569 H   0  0  0  0  0  0
  -21.0625   -8.8567   19.9003 H   0  0  0  0  0  0
  -22.3338  -10.9514   19.6238 H   0  0  0  0  0  0
  -21.1977   -7.6070   23.9652 H   0  0  0  0  0  0
  -21.1464   -6.0542   25.9099 H   0  0  0  0  0  0
  -22.0606   -2.7490   23.3083 H   0  0  0  0  0  0
  -22.3141  -11.9938   22.4924 H   0  0  0  0  0  0
  -21.0506  -13.1556   22.2642 H   0  0  0  0  0  0
  -24.5741  -15.8718   20.5057 H   0  0  0  0  0  0
  -26.1825  -15.5889   20.0341 H   0  0  0  0  0  0
  -26.7977  -32.5121   23.1380 H   0  0  0  0  0  0
  -24.9640  -33.9118   24.9495 H   0  0  0  0  0  0
  -23.1340  -30.6300   21.8064 H   0  0  0  0  0  0
  -23.3657  -35.9368   23.3325 H   0  0  0  0  0  0
  -24.3582  -36.8676   22.2156 H   0  0  0  0  0  0
  -23.7180  -37.6236   23.6763 H   0  0  0  0  0  0
  -26.5803  -31.7338   20.9986 H   0  0  0  0  0  0
  -27.0765  -30.6109   22.1996 H   0  0  0  0  0  0
  -28.2944  -28.9404   21.2236 H   0  0  0  0  0  0
  -26.1325  -27.3214   18.1147 H   0  0  0  0  0  0
  -24.1211  -28.1248   18.5899 H   0  0  0  0  0  0
  -24.2136  -31.2214   19.7771 H   0  0  0  0  0  0
  -23.4114  -29.9036   19.2675 H   0  0  0  0  0  0
  -25.1160  -36.1347   25.0727 H   0  0  0  0  0  0
  -20.9866  -25.3486   23.5345 H   0  0  0  0  0  0
  -21.0118  -25.7540   21.2423 H   0  0  0  0  0  0
  -20.5808  -25.1096   21.7564 H   0  0  0  0  0  0
  -18.6278  -28.9144   20.1837 H   0  0  0  0  0  0
  -18.8076  -29.4253   21.2406 H   0  0  0  0  0  0
  -17.1269  -29.0040   21.5524 H   0  0  0  0  0  0
  -17.0648  -27.5402   20.7166 H   0  0  0  0  0  0
  -20.0101  -28.4542   25.1937 H   0  0  0  0  0  0
  -18.4687  -30.4464   25.0810 H   0  0  0  0  0  0
  -16.1250  -30.0687   24.2073 H   0  0  0  0  0  0
  -15.7599  -27.8685   23.1202 H   0  0  0  0  0  0
  -24.5698  -30.7764   25.7551 H   0  0  0  0  0  0
  -24.8857  -32.3658   26.4125 H   0  0  0  0  0  0
  -25.7426  -30.9691   27.0397 H   0  0  0  0  0  0
  -26.4011  -29.6390   24.1987 H   0  0  0  0  0  0
  -27.4322  -29.7701   25.6011 H   0  0  0  0  0  0
  -27.9854  -30.4177   24.0922 H   0  0  0  0  0  0
  -27.2596  -33.4084   26.1867 H   0  0  0  0  0  0
  -28.4063  -32.7179   25.0396 H   0  0  0  0  0  0
  -28.0901  -31.9075   26.5641 H   0  0  0  0  0  0
  -28.2309  -37.9961   24.7432 H   0  0  0  0  0  0
  -28.1053  -36.2519   24.6299 H   0  0  0  0  0  0
  -27.2355  -37.1201   25.8918 H   0  0  0  0  0  0
  -22.2942  -27.2390   20.8827 H   0  0  0  0  0  0
  -25.9939  -38.2509   24.1506 H   0  0  0  0  0  0
  -21.3435  -30.4119   22.1620 H   0  0  0  0  0  0
  -21.4346  -29.9570   19.6829 H   0  0  0  0  0  0
  -19.8532  -29.0212   22.6339 H   0  0  0  0  0  0
  -18.1808  -24.0628   19.5865 H   0  0  0  0  0  0
  -19.4537  -24.5480   18.4733 H   0  0  0  0  0  0
  -18.3272  -25.8909   20.7199 H   0  0  0  0  0  0
  -22.6685  -25.6775   24.6647 H   0  0  0  0  0  0
  -24.0092  -26.4311   24.5131 H   0  0  0  0  0  0
  -26.6208  -18.0409   21.7313 H   0  0  0  0  0  0
  -27.5006  -18.4144   22.8935 H   0  0  0  0  0  0
  -23.6692  -24.7775   17.3236 H   0  0  0  0  0  0
  -24.4047  -26.2272   17.4802 H   0  0  0  0  0  0
  -25.0467  -23.8889   19.2843 H   0  0  0  0  0  0
  -25.8730  -24.2763   17.8649 H   0  0  0  0  0  0
  -25.3558  -24.6587   22.8034 H   0  0  0  0  0  0
  -24.0345  -24.1717   21.8604 H   0  0  0  0  0  0
  -23.3807  -26.3150   19.7842 H   0  0  0  0  0  0
  -22.2647  -25.1074   19.3357 H   0  0  0  0  0  0
  -26.4256  -25.1096   20.6290 H   0  0  0  0  0  0
  -27.3413  -25.5418   18.8966 H   0  0  0  0  0  0
  -21.1195  -26.4466   18.0673 H   0  0  0  0  0  0
  -26.4058  -22.4647   23.1634 H   0  0  0  0  0  0
  1 25  1  0  0  0
  1 30  2  0  0  0
  1 81  1  0  0  0
  2  3  1  0  0  0
  2 25  1  0  0  0
  2 90  1  0  0  0
  2 91  1  0  0  0
  3  4  1  0  0  0
  3 92  1  0  0  0
  3 93  1  0  0  0
  4  5  1  0  0  0
  4 94  1  0  0  0
  4 95  1  0  0  0
  5  6  1  0  0  0
  5 26  1  0  0  0
  5 96  1  0  0  0
  6 25  1  0  0  0
  6 97  1  0  0  0
  6 98  1  0  0  0
  7  8  2  0  0  0
  7 26  1  0  0  0
  7 29  1  0  0  0
  8  9  1  0  0  0
  8 22  1  0  0  0
  9 10  1  0  0  0
  9 27  2  0  0  0
 10 11  2  0  0  0
 10 15  1  0  0  0
 11 12  1  0  0  0
 11 99  1  0  0  0
 12 13  2  0  0  0
 12100  1  0  0  0
 13 14  1  0  0  0
 13 31  1  0  0  0
 14 15  2  0  0  0
 14101  1  0  0  0
 15102  1  0  0  0
 16 17  2  0  0  0
 16 21  1  0  0  0
 16 31  1  0  0  0
 17 18  1  0  0  0
 17103  1  0  0  0
 18 19  2  0  0  0
 18104  1  0  0  0
 19 20  1  0  0  0
 19 24  1  0  0  0
 20 21  2  0  0  0
 20105  1  0  0  0
 21 23  1  0  0  0
 22 28  1  0  0  0
 22 32  2  0  0  0
 26 27  1  0  0  0
 28106  1  0  0  0
 28107  1  0  0  0
 29108  1  0  0  0
 29109  1  0  0  0
 33 34  1  0  0  0
 33 66  1  0  0  0
 33 70  2  0  0  0
 34 36  1  0  0  0
 34 59  1  0  0  0
 34110  1  0  0  0
 35 44  2  0  0  0
 35 45  1  0  0  0
 35 68  1  0  0  0
 36 56  1  0  0  0
 36111  1  0  0  0
 37 39  1  0  0  0
 37 47  1  0  0  0
 37 66  1  0  0  0
 37112  1  0  0  0
 38 43  2  0  0  0
 38 46  1  0  0  0
 38 47  1  0  0  0
 39 64  1  0  0  0
 39 67  2  0  0  0
 40 52  1  0  0  0
 40 53  2  0  0  0
 40 58  1  0  0  0
 41113  1  0  0  0
 41114  1  0  0  0
 41115  1  0  0  0
 41 48  1  0  0  0
 42 43  1  0  0  0
 42 66  1  0  0  0
 42116  1  0  0  0
 42117  1  0  0  0
 43 44  1  0  0  0
 44118  1  0  0  0
 45 46  2  0  0  0
 45119  1  0  0  0
 46120  1  0  0  0
 47121  1  0  0  0
 47122  1  0  0  0
 48 56  1  0  0  0
 48 65  1  0  0  0
 48123  1  0  0  0
 49 50  1  0  0  0
 49 53  1  0  0  0
 49 64  1  0  0  0
 49124  1  0  0  0
 50 51  1  0  0  0
 50125  1  0  0  0
 50126  1  0  0  0
 51 52  1  0  0  0
 51127  1  0  0  0
 51128  1  0  0  0
 52129  1  0  0  0
 52130  1  0  0  0
 53 54  1  0  0  0
 54 55  2  0  0  0
 54131  1  0  0  0
 55 57  1  0  0  0
 55132  1  0  0  0
 56 69  2  0  0  0
 57 58  2  0  0  0
 57133  1  0  0  0
 58134  1  0  0  0
 59 60  1  0  0  0
 59 61  1  0  0  0
 59 62  1  0  0  0
 60135  1  0  0  0
 60136  1  0  0  0
 60137  1  0  0  0
 61138  1  0  0  0
 61139  1  0  0  0
 61140  1  0  0  0
 62141  1  0  0  0
 62142  1  0  0  0
 62143  1  0  0  0
 63 65  1  0  0  0
 63144  1  0  0  0
 63145  1  0  0  0
 63146  1  0  0  0
 64147  1  0  0  0
 65148  1  0  0  0
 68 86  1  0  0  0
 71 72  2  0  0  0
 71 75  1  0  0  0
 71149  1  0  0  0
 72 76  1  0  0  0
 72150  1  0  0  0
 73 74  1  0  0  0
 73 75  2  0  0  0
 73151  1  0  0  0
 74 76  2  0  0  0
 74 78  1  0  0  0
 75 80  1  0  0  0
 76 87  1  0  0  0
 77 78  2  0  0  0
 77152  1  0  0  0
 77153  1  0  0  0
 78154  1  0  0  0
 79 81  1  0  0  0
 79 88  1  0  0  0
 79 89  2  0  0  0
 80 84  1  0  0  0
 80155  1  0  0  0
 80156  1  0  0  0
 81157  1  0  0  0
 81158  1  0  0  0
 82 83  1  0  0  0
 82 85  1  0  0  0
 82159  1  0  0  0
 82160  1  0  0  0
 83 86  1  0  0  0
 83161  1  0  0  0
 83162  1  0  0  0
 84 88  1  0  0  0
 84163  1  0  0  0
 84164  1  0  0  0
 85 87  1  0  0  0
 85165  1  0  0  0
 85166  1  0  0  0
 86167  1  0  0  0
 86168  1  0  0  0
 87169  1  0  0  0
 88170  1  0  0  0
M  ISO  4   1 100  68 101  81 100  86 101
M  END
> <chiral flag>
0

> <version>
0

> <s_m_source_file>
/data/baiqing/PycharmProjects/Reinvent-master-3.2/result/LINK_invent/BTK/process_docking_weight1_custom_product_contain_oxygen_bond_distance_aromatic_linkinvent_7_9_3/rearranged_h_0103.sdf

> <i_m_source_file_index>
70

> <r_mmod_Potential_Energy-OPLS-2005>
26939.439453125

> <r_mmod_Stretch_Energy-OPLS-2005>
11864.30859375

> <r_mmod_Bend_Energy-OPLS-2005>
4270.2900390625

> <r_mmod_Torsional_Energy-OPLS-2005>
1081.63623046875

> <r_mmod_Improper_Torsional_Energy-OPLS-2005>
166.171569824219

> <r_mmod_Van_der_Waal_Energy-OPLS-2005>
3962.39965820312

> <r_mmod_Electrostatic_Energy-OPLS-2005>
-381.217864990234

> <r_mmod_Solvation_Energy-OPLS-2005>
-229.357376098633

> <b_mmod_Minimization_Converged-OPLS-2005>
0

> <r_mmod_RMS_Derivative-OPLS-2005>
99.9990005493164

$$$$
70
                    3D
 Structure written by MMmdl.
163172  0  0  1  0            999 V2000
  -30.7209  -14.4314   20.6047 C   0  0  0  0  0  0
  -30.4171  -12.2934   19.3974 C   0  0  0  0  0  0
  -29.4778  -12.4935   18.1910 C   0  0  0  0  0  0
  -28.0018  -12.3623   18.6151 C   0  0  0  0  0  0
  -27.6611  -13.1992   19.8767 C   0  0  2  0  0  0
  -28.7086  -12.9546   20.9842 C   0  0  0  0  0  0
  -25.2585  -13.8133   20.5695 C   0  0  0  0  0  0
  -24.1821  -13.0424   20.9178 C   0  0  0  0  0  0
  -24.6360  -11.6887   20.8752 C   0  0  0  0  0  0
  -23.9021  -10.4290   21.0420 C   0  0  0  0  0  0
  -24.3580   -9.4210   21.9198 C   0  0  0  0  0  0
  -23.6276   -8.2237   22.0756 C   0  0  0  0  0  0
  -22.4268   -8.0265   21.3530 C   0  0  0  0  0  0
  -21.9898   -9.0225   20.4631 C   0  0  0  0  0  0
  -22.7203  -10.2120   20.3056 C   0  0  0  0  0  0
  -21.6830   -6.0729   22.5277 C   0  0  0  0  0  0
  -21.4003   -6.5634   23.8207 C   0  0  0  0  0  0
  -21.3658   -5.6791   24.9178 C   0  0  0  0  0  0
  -21.6052   -4.3053   24.7232 C   0  0  0  0  0  0
  -21.8823   -3.8145   23.4346 C   0  0  0  0  0  0
  -21.9195   -4.6965   22.3406 C   0  0  0  0  0  0
  -22.7858  -13.5227   21.1862 C   0  0  0  0  0  0
  -22.1670   -4.2153   21.0981 F   0  0  0  0  0  0
  -21.5637   -3.4537   25.7744 F   0  0  0  0  0  0
  -30.0326  -13.2739   20.4245 N   0  0  0  0  0  0
  -26.3016  -12.9291   20.3405 N   0  0  0  0  0  0
  -25.9297  -11.6459   20.5798 N   0  0  0  0  0  0
  -22.0521  -12.8208   22.0423 N   0  0  0  0  0  0
  -25.4350  -15.1851   20.4122 N   0  0  0  0  0  0
  -31.8379  -14.6315   20.1183 O   0  0  0  0  0  0
  -21.6624   -6.8862   21.4229 O   0  0  0  0  0  0
  -22.3563  -14.5557   20.6749 O   0  0  0  0  0  0
  -24.6136  -31.8677   23.2072 C   0  0  0  0  0  0
  -25.9030  -32.4816   23.8376 C   0  0  1  0  0  0
  -27.2492  -27.4141   20.1150 C   0  0  0  0  0  0
  -25.5898  -33.8604   24.2310 N   0  0  0  0  0  0
  -23.4051  -30.4872   21.5463 C   0  0  2  0  0  0
  -24.8588  -28.9514   20.1150 C   0  0  0  0  0  0
  -22.7402  -29.4666   22.4961 C   0  0  0  0  0  0
  -18.0274  -28.1378   22.8528 C   0  0  0  0  0  0
  -24.1463  -36.7263   23.2648 C   0  0  0  0  0  0
  -25.9355  -30.8292   21.3623 C   0  0  0  0  0  0
  -26.0169  -29.4591   20.7166 C   0  0  0  0  0  0
  -27.2142  -28.7010   20.7112 C   0  0  0  0  0  0
  -26.0703  -26.9326   19.4989 C   0  0  0  0  0  0
  -24.8814  -27.6892   19.5011 C   0  0  0  0  0  0
  -23.6166  -29.8153   20.1614 C   0  0  0  0  0  0
  -25.4089  -36.3072   24.0338 C   0  0  1  0  0  0
  -20.5867  -28.3678   23.1309 C   0  0  2  0  0  0
  -20.6772  -26.9418   22.5414 C   0  0  0  0  0  0
  -19.5722  -26.6382   21.5243 C   0  0  0  0  0  0
  -18.1892  -26.7945   22.1637 C   0  0  0  0  0  0
  -19.1529  -28.8845   23.2916 C   0  0  0  0  0  0
  -18.9470  -30.1467   23.8898 C   0  0  0  0  0  0
  -17.6481  -30.6601   24.0568 C   0  0  0  0  0  0
  -25.9042  -34.9456   23.5125 C   0  0  0  0  0  0
  -16.5361  -29.9107   23.6341 C   0  0  0  0  0  0
  -16.7273  -28.6518   23.0385 C   0  0  0  0  0  0
  -26.4486  -31.6602   25.0696 C   0  0  0  0  0  0
  -25.3737  -31.3664   26.1422 C   0  0  0  0  0  0
  -27.0397  -30.3067   24.6084 C   0  0  0  0  0  0
  -27.5995  -32.4408   25.7482 C   0  0  0  0  0  0
  -27.5565  -37.1758   24.8462 C   0  0  0  0  0  0
  -21.4125  -29.3049   22.3707 N   0  0  0  0  0  0
  -26.4249  -37.3789   23.9446 N   0  0  0  0  0  0
  -24.6687  -31.0761   22.0983 N   0  0  0  0  0  0
  -23.4170  -28.8209   23.3008 O   0  0  0  0  0  0
  -28.4213  -26.6753   20.1091 O   0  0  0  0  0  0
  -26.5587  -34.8912   22.4678 O   0  0  0  0  0  0
  -23.5319  -32.1455   23.7453 O   0  0  0  0  0  0
  -31.1137  -18.9395   22.3682 C   0  0  0  0  0  0
  -31.1044  -20.3106   22.0589 C   0  0  0  0  0  0
  -30.0832  -19.8059   19.9191 C   0  0  0  0  0  0
  -30.6077  -17.9660   21.4787 C   0  0  0  0  0  0
  -30.0743  -18.4151   20.2338 C   0  0  0  0  0  0
  -30.6052  -20.7719   20.8201 C   0  0  0  0  0  0
  -31.9307  -22.7662   20.5621 C   0  0  0  0  0  0
  -29.5604  -22.9394   20.2926 C   0  0  0  0  0  0
  -32.0938  -24.2860   20.7088 C   0  0  0  0  0  0
  -30.7852  -24.9851   21.0832 C   0  0  0  0  0  0
  -29.6576  -24.4955   20.1661 C   0  0  2  0  0  0
  -29.5027  -17.4487   19.2054 C   0  0  0  0  0  0
  -30.7299  -16.5123   21.9883 C   0  0  0  0  0  0
  -28.3274  -25.2664   20.4402 C   0  0  0  0  0  0
  -30.6914  -22.1905   20.5133 N   0  0  0  0  0  0
  -30.0845  -15.3827   21.3083 N   0  0  0  0  0  0
  -32.9741  -22.1061   20.4664 O   0  0  0  0  0  0
  -28.4476  -22.4144   20.1572 O   0  0  0  0  0  0
  -31.4592  -12.3911   19.0866 H   0  0  0  0  0  0
  -30.3177  -11.2794   19.7911 H   0  0  0  0  0  0
  -29.7019  -11.7660   17.4100 H   0  0  0  0  0  0
  -29.6469  -13.4785   17.7538 H   0  0  0  0  0  0
  -27.8079  -11.3056   18.8132 H   0  0  0  0  0  0
  -27.3434  -12.6397   17.7922 H   0  0  0  0  0  0
  -27.7136  -14.2482   19.5873 H   0  0  0  0  0  0
  -28.6903  -11.9037   21.2823 H   0  0  0  0  0  0
  -28.4765  -13.5169   21.8902 H   0  0  0  0  0  0
  -25.2708   -9.5701   22.4773 H   0  0  0  0  0  0
  -23.9992   -7.4636   22.7491 H   0  0  0  0  0  0
  -21.0830   -8.8719   19.8939 H   0  0  0  0  0  0
  -22.3639  -10.9653   19.6173 H   0  0  0  0  0  0
  -21.1968   -7.6137   23.9708 H   0  0  0  0  0  0
  -21.1482   -6.0523   25.9075 H   0  0  0  0  0  0
  -22.0602   -2.7614   23.2853 H   0  0  0  0  0  0
  -22.4127  -11.9814   22.4724 H   0  0  0  0  0  0
  -21.1174  -13.1258   22.2731 H   0  0  0  0  0  0
  -24.6692  -15.8434   20.5038 H   0  0  0  0  0  0
  -26.2991  -15.6225   20.1176 H   0  0  0  0  0  0
  -26.7104  -32.5555   23.1140 H   0  0  0  0  0  0
  -25.0076  -33.9774   25.0472 H   0  0  0  0  0  0
  -22.6937  -31.3023   21.4023 H   0  0  0  0  0  0
  -23.3736  -35.9588   23.3298 H   0  0  0  0  0  0
  -24.3545  -36.8927   22.2069 H   0  0  0  0  0  0
  -23.7216  -37.6446   23.6703 H   0  0  0  0  0  0
  -26.0439  -31.5929   20.5910 H   0  0  0  0  0  0
  -26.8238  -30.8902   21.9790 H   0  0  0  0  0  0
  -28.1066  -29.0984   21.1744 H   0  0  0  0  0  0
  -26.0613  -25.9811   18.9923 H   0  0  0  0  0  0
  -23.9953  -27.3003   19.0166 H   0  0  0  0  0  0
  -23.7143  -30.5868   19.3977 H   0  0  0  0  0  0
  -22.7457  -29.2260   19.8701 H   0  0  0  0  0  0
  -25.1274  -36.1899   25.0830 H   0  0  0  0  0  0
  -20.9982  -28.3272   24.1422 H   0  0  0  0  0  0
  -20.5736  -26.2282   23.3604 H   0  0  0  0  0  0
  -21.6644  -26.7460   22.1183 H   0  0  0  0  0  0
  -19.6862  -25.6295   21.1279 H   0  0  0  0  0  0
  -19.6641  -27.3181   20.6763 H   0  0  0  0  0  0
  -17.4187  -26.6742   21.4014 H   0  0  0  0  0  0
  -18.0229  -26.0068   22.8988 H   0  0  0  0  0  0
  -19.7949  -30.7303   24.2232 H   0  0  0  0  0  0
  -17.5043  -31.6289   24.5152 H   0  0  0  0  0  0
  -15.5384  -30.3032   23.7657 H   0  0  0  0  0  0
  -15.8663  -28.0872   22.7065 H   0  0  0  0  0  0
  -24.5930  -30.7001   25.7743 H   0  0  0  0  0  0
  -24.8854  -32.2794   26.4843 H   0  0  0  0  0  0
  -25.8080  -30.8854   27.0194 H   0  0  0  0  0  0
  -26.2968  -29.6731   24.1220 H   0  0  0  0  0  0
  -27.4326  -29.7394   25.4538 H   0  0  0  0  0  0
  -27.8718  -30.4439   23.9163 H   0  0  0  0  0  0
  -27.2573  -33.3781   26.1888 H   0  0  0  0  0  0
  -28.3868  -32.6888   25.0350 H   0  0  0  0  0  0
  -28.0572  -31.8651   26.5545 H   0  0  0  0  0  0
  -28.2506  -38.0122   24.7688 H   0  0  0  0  0  0
  -28.1168  -36.2691   24.6137 H   0  0  0  0  0  0
  -27.2301  -37.1227   25.8856 H   0  0  0  0  0  0
  -20.9264  -29.8815   21.6979 H   0  0  0  0  0  0
  -26.0116  -38.2834   24.1567 H   0  0  0  0  0  0
  -31.5352  -18.6320   23.3170 H   0  0  0  0  0  0
  -31.5180  -21.0028   22.7819 H   0  0  0  0  0  0
  -29.6949  -20.1363   18.9642 H   0  0  0  0  0  0
  -32.4894  -24.6862   19.7732 H   0  0  0  0  0  0
  -32.8463  -24.4789   21.4766 H   0  0  0  0  0  0
  -30.9043  -26.0667   21.0240 H   0  0  0  0  0  0
  -30.5328  -24.7605   22.1228 H   0  0  0  0  0  0
  -29.9335  -24.7001   19.1296 H   0  0  0  0  0  0
  -29.0714  -17.9650   18.3455 H   0  0  0  0  0  0
  -28.7047  -16.8477   19.6419 H   0  0  0  0  0  0
  -30.2806  -16.7808   18.8306 H   0  0  0  0  0  0
  -30.3102  -16.5090   22.9950 H   0  0  0  0  0  0
  -31.7908  -16.2917   22.1315 H   0  0  0  0  0  0
  -28.0639  -25.1839   21.4973 H   0  0  0  0  0  0
  -27.5308  -24.7755   19.8863 H   0  0  0  0  0  0
  -29.1308  -15.1842   21.5702 H   0  0  0  0  0  0
  1 25  1  0  0  0
  1 30  2  0  0  0
  1 86  1  0  0  0
  2  3  1  0  0  0
  2 25  1  0  0  0
  2 89  1  0  0  0
  2 90  1  0  0  0
  3  4  1  0  0  0
  3 91  1  0  0  0
  3 92  1  0  0  0
  4  5  1  0  0  0
  4 93  1  0  0  0
  4 94  1  0  0  0
  5  6  1  0  0  0
  5 26  1  0  0  0
  5 95  1  0  0  0
  6 25  1  0  0  0
  6 96  1  0  0  0
  6 97  1  0  0  0
  7  8  2  0  0  0
  7 26  1  0  0  0
  7 29  1  0  0  0
  8  9  1  0  0  0
  8 22  1  0  0  0
  9 10  1  0  0  0
  9 27  2  0  0  0
 10 11  2  0  0  0
 10 15  1  0  0  0
 11 12  1  0  0  0
 11 98  1  0  0  0
 12 13  2  0  0  0
 12 99  1  0  0  0
 13 14  1  0  0  0
 13 31  1  0  0  0
 14 15  2  0  0  0
 14100  1  0  0  0
 15101  1  0  0  0
 16 17  2  0  0  0
 16 21  1  0  0  0
 16 31  1  0  0  0
 17 18  1  0  0  0
 17102  1  0  0  0
 18 19  2  0  0  0
 18103  1  0  0  0
 19 20  1  0  0  0
 19 24  1  0  0  0
 20 21  2  0  0  0
 20104  1  0  0  0
 21 23  1  0  0  0
 22 28  1  0  0  0
 22 32  2  0  0  0
 26 27  1  0  0  0
 28105  1  0  0  0
 28106  1  0  0  0
 29107  1  0  0  0
 29108  1  0  0  0
 33 34  1  0  0  0
 33 66  1  0  0  0
 33 70  2  0  0  0
 34 36  1  0  0  0
 34 59  1  0  0  0
 34109  1  0  0  0
 35 44  2  0  0  0
 35 45  1  0  0  0
 35 68  1  0  0  0
 36 56  1  0  0  0
 36110  1  0  0  0
 37 39  1  0  0  0
 37 47  1  0  0  0
 37 66  1  0  0  0
 37111  1  0  0  0
 38 43  2  0  0  0
 38 46  1  0  0  0
 38 47  1  0  0  0
 39 64  1  0  0  0
 39 67  2  0  0  0
 40 52  1  0  0  0
 40 53  2  0  0  0
 40 58  1  0  0  0
 41112  1  0  0  0
 41113  1  0  0  0
 41114  1  0  0  0
 41 48  1  0  0  0
 42 43  1  0  0  0
 42 66  1  0  0  0
 42115  1  0  0  0
 42116  1  0  0  0
 43 44  1  0  0  0
 44117  1  0  0  0
 45 46  2  0  0  0
 45118  1  0  0  0
 46119  1  0  0  0
 47120  1  0  0  0
 47121  1  0  0  0
 48 56  1  0  0  0
 48 65  1  0  0  0
 48122  1  0  0  0
 49 50  1  0  0  0
 49 53  1  0  0  0
 49 64  1  0  0  0
 49123  1  0  0  0
 50 51  1  0  0  0
 50124  1  0  0  0
 50125  1  0  0  0
 51 52  1  0  0  0
 51126  1  0  0  0
 51127  1  0  0  0
 52128  1  0  0  0
 52129  1  0  0  0
 53 54  1  0  0  0
 54 55  2  0  0  0
 54130  1  0  0  0
 55 57  1  0  0  0
 55131  1  0  0  0
 56 69  2  0  0  0
 57 58  2  0  0  0
 57132  1  0  0  0
 58133  1  0  0  0
 59 60  1  0  0  0
 59 61  1  0  0  0
 59 62  1  0  0  0
 60134  1  0  0  0
 60135  1  0  0  0
 60136  1  0  0  0
 61137  1  0  0  0
 61138  1  0  0  0
 61139  1  0  0  0
 62140  1  0  0  0
 62141  1  0  0  0
 62142  1  0  0  0
 63 65  1  0  0  0
 63143  1  0  0  0
 63144  1  0  0  0
 63145  1  0  0  0
 64146  1  0  0  0
 65147  1  0  0  0
 68 84  1  0  0  0
 71 72  2  0  0  0
 71 74  1  0  0  0
 71148  1  0  0  0
 72 76  1  0  0  0
 72149  1  0  0  0
 73 75  1  0  0  0
 73 76  2  0  0  0
 73150  1  0  0  0
 74 75  2  0  0  0
 74 83  1  0  0  0
 75 82  1  0  0  0
 76 85  1  0  0  0
 77 79  1  0  0  0
 77 85  1  0  0  0
 77 87  2  0  0  0
 78 81  1  0  0  0
 78 85  1  0  0  0
 78 88  2  0  0  0
 79 80  1  0  0  0
 79151  1  0  0  0
 79152  1  0  0  0
 80 81  1  0  0  0
 80153  1  0  0  0
 80154  1  0  0  0
 81 84  1  0  0  0
 81155  1  0  0  0
 82156  1  0  0  0
 82157  1  0  0  0
 82158  1  0  0  0
 83 86  1  0  0  0
 83159  1  0  0  0
 83160  1  0  0  0
 84161  1  0  0  0
 84162  1  0  0  0
 86163  1  0  0  0
M  ISO  4   1 100  68 101  84 101  86 100
M  END
> <chiral flag>
0

> <version>
0

> <s_m_source_file>
/data/baiqing/PycharmProjects/Reinvent-master-3.2/result/LINK_invent/BTK/process_docking_weight1_custom_product_contain_oxygen_bond_distance_aromatic_linkinvent_7_9_3/rearranged_h_0103.sdf

> <i_m_source_file_index>
71

> <r_mmod_Potential_Energy-OPLS-2005>
-9.90332889556885

> <r_mmod_Stretch_Energy-OPLS-2005>
52.9875144958496

> <r_mmod_Bend_Energy-OPLS-2005>
122.163482666016

> <r_mmod_Torsional_Energy-OPLS-2005>
255.473358154297

> <r_mmod_Improper_Torsional_Energy-OPLS-2005>
2.67313623428345

> <r_mmod_Van_der_Waal_Energy-OPLS-2005>
178.155685424805

> <r_mmod_Electrostatic_Energy-OPLS-2005>
-390.779876708984

> <r_mmod_Solvation_Energy-OPLS-2005>
-242.490417480469

> <b_mmod_Minimization_Converged-OPLS-2005>
0

> <r_mmod_RMS_Derivative-OPLS-2005>
4.43360948562622

$$$$
71
                    3D
 Structure written by MMmdl.
155164  0  0  1  0            999 V2000
  -30.5471  -14.5642   20.5255 C   0  0  0  0  0  0
  -30.4555  -12.3457   19.4050 C   0  0  0  0  0  0
  -29.5029  -12.4519   18.1889 C   0  0  0  0  0  0
  -28.0234  -12.3085   18.6223 C   0  0  0  0  0  0
  -27.6578  -13.1725   19.8599 C   0  0  2  0  0  0
  -28.7021  -12.9143   20.9643 C   0  0  0  0  0  0
  -25.2631  -13.8046   20.5663 C   0  0  0  0  0  0
  -24.1880  -13.0381   20.9218 C   0  0  0  0  0  0
  -24.6353  -11.6815   20.8699 C   0  0  0  0  0  0
  -23.8981  -10.4288   21.0397 C   0  0  0  0  0  0
  -24.3527   -9.4223   21.9176 C   0  0  0  0  0  0
  -23.6278   -8.2210   22.0713 C   0  0  0  0  0  0
  -22.4275   -8.0196   21.3512 C   0  0  0  0  0  0
  -21.9871   -9.0180   20.4645 C   0  0  0  0  0  0
  -22.7129  -10.2113   20.3081 C   0  0  0  0  0  0
  -21.6861   -6.0689   22.5289 C   0  0  0  0  0  0
  -21.3981   -6.5603   23.8221 C   0  0  0  0  0  0
  -21.3702   -5.6742   24.9164 C   0  0  0  0  0  0
  -21.6075   -4.3024   24.7209 C   0  0  0  0  0  0
  -21.8809   -3.8102   23.4350 C   0  0  0  0  0  0
  -21.9191   -4.6901   22.3390 C   0  0  0  0  0  0
  -22.7919  -13.5210   21.1903 C   0  0  0  0  0  0
  -22.1669   -4.2114   21.0971 F   0  0  0  0  0  0
  -21.5703   -3.4477   25.7726 F   0  0  0  0  0  0
  -30.0095  -13.3136   20.4256 N   0  0  0  0  0  0
  -26.2986  -12.9137   20.3256 N   0  0  0  0  0  0
  -25.9236  -11.6355   20.5718 N   0  0  0  0  0  0
  -22.0565  -12.8218   22.0482 N   0  0  0  0  0  0
  -25.4426  -15.1736   20.4022 N   0  0  0  0  0  0
  -31.6968  -14.8181   20.1403 O   0  0  0  0  0  0
  -21.6632   -6.8795   21.4250 O   0  0  0  0  0  0
  -22.3626  -14.5535   20.6767 O   0  0  0  0  0  0
  -24.6173  -31.8660   23.2120 C   0  0  0  0  0  0
  -25.9035  -32.4807   23.8402 C   0  0  1  0  0  0
  -27.2149  -27.3976   20.1168 C   0  0  0  0  0  0
  -25.5882  -33.8614   24.2308 N   0  0  0  0  0  0
  -23.4065  -30.4901   21.5504 C   0  0  2  0  0  0
  -24.8519  -28.9601   20.1110 C   0  0  0  0  0  0
  -22.7419  -29.4586   22.4974 C   0  0  0  0  0  0
  -18.0281  -28.1379   22.8465 C   0  0  0  0  0  0
  -24.1446  -36.7308   23.2668 C   0  0  0  0  0  0
  -25.9417  -30.8253   21.3756 C   0  0  0  0  0  0
  -26.0157  -29.4631   20.7039 C   0  0  0  0  0  0
  -27.2064  -28.6959   20.6881 C   0  0  0  0  0  0
  -26.0341  -26.9184   19.5141 C   0  0  0  0  0  0
  -24.8554  -27.6907   19.5086 C   0  0  0  0  0  0
  -23.6163  -29.8324   20.1618 C   0  0  0  0  0  0
  -25.4073  -36.3099   24.0342 C   0  0  1  0  0  0
  -20.5869  -28.3652   23.1328 C   0  0  2  0  0  0
  -20.6739  -26.9385   22.5398 C   0  0  0  0  0  0
  -19.5741  -26.6385   21.5195 C   0  0  0  0  0  0
  -18.1912  -26.7922   22.1608 C   0  0  0  0  0  0
  -19.1534  -28.8821   23.2893 C   0  0  0  0  0  0
  -18.9471  -30.1416   23.8916 C   0  0  0  0  0  0
  -17.6489  -30.6566   24.0581 C   0  0  0  0  0  0
  -25.9010  -34.9458   23.5128 C   0  0  0  0  0  0
  -16.5359  -29.9088   23.6348 C   0  0  0  0  0  0
  -16.7276  -28.6505   23.0348 C   0  0  0  0  0  0
  -26.4507  -31.6688   25.0771 C   0  0  0  0  0  0
  -25.3791  -31.3865   26.1566 C   0  0  0  0  0  0
  -27.0447  -30.3114   24.6331 C   0  0  0  0  0  0
  -27.6040  -32.4561   25.7433 C   0  0  0  0  0  0
  -27.5547  -37.1796   24.8459 C   0  0  0  0  0  0
  -21.4127  -29.3013   22.3724 N   0  0  0  0  0  0
  -26.4259  -37.3765   23.9409 N   0  0  0  0  0  0
  -24.6720  -31.0730   22.1025 N   0  0  0  0  0  0
  -23.4207  -28.8140   23.2998 O   0  0  0  0  0  0
  -28.3287  -26.5814   20.1411 O   0  0  0  0  0  0
  -26.5578  -34.8936   22.4692 O   0  0  0  0  0  0
  -23.5321  -32.1396   23.7487 O   0  0  0  0  0  0
  -29.9215  -19.1319   21.5418 C   0  0  0  0  0  0
  -30.1339  -17.7445   21.8360 C   0  0  0  0  0  0
  -29.2994  -19.3794   20.3430 C   0  0  0  0  0  0
  -29.6973  -16.8821   20.8519 C   0  0  0  0  0  0
  -29.0399  -20.6841   19.6288 C   0  0  0  0  0  0
  -27.3993  -23.1724   21.8921 C   0  0  0  0  0  0
  -27.9994  -21.7780   21.6430 C   0  0  0  0  0  0
  -28.7477  -23.1941   19.8670 C   0  0  0  0  0  0
  -27.7717  -24.0781   20.6977 C   0  0  2  0  0  0
  -28.2763  -25.5138   21.1238 C   0  0  0  0  0  0
  -28.6290  -21.7872   20.3257 N   0  0  0  0  0  0
  -29.6481  -15.5129   20.9190 N   0  0  0  0  0  0
  -29.2931  -20.7597   18.4247 O   0  0  0  0  0  0
  -28.9991  -17.8363   19.5343 S   0  0  0  0  0  0
  -31.4872  -12.5225   19.0926 H   0  0  0  0  0  0
  -30.4344  -11.3302   19.8012 H   0  0  0  0  0  0
  -29.7435  -11.6674   17.4687 H   0  0  0  0  0  0
  -29.6666  -13.3997   17.6705 H   0  0  0  0  0  0
  -27.8709  -11.2583   18.8671 H   0  0  0  0  0  0
  -27.3577  -12.5228   17.7917 H   0  0  0  0  0  0
  -27.7009  -14.2142   19.5450 H   0  0  0  0  0  0
  -28.4566  -13.4082   21.9040 H   0  0  0  0  0  0
  -28.7291  -11.8523   21.2021 H   0  0  0  0  0  0
  -25.2703   -9.5703   22.4698 H   0  0  0  0  0  0
  -24.0045   -7.4587   22.7364 H   0  0  0  0  0  0
  -21.0832   -8.8623   19.8940 H   0  0  0  0  0  0
  -22.3550  -10.9599   19.6149 H   0  0  0  0  0  0
  -21.1907   -7.6084   23.9669 H   0  0  0  0  0  0
  -21.1596   -6.0501   25.9087 H   0  0  0  0  0  0
  -22.0554   -2.7555   23.2842 H   0  0  0  0  0  0
  -22.4206  -11.9875   22.4924 H   0  0  0  0  0  0
  -21.1161  -13.1219   22.2598 H   0  0  0  0  0  0
  -24.6805  -15.8284   20.5359 H   0  0  0  0  0  0
  -26.2695  -15.6105   20.0168 H   0  0  0  0  0  0
  -26.7089  -32.5519   23.1155 H   0  0  0  0  0  0
  -25.0022  -33.9769   25.0452 H   0  0  0  0  0  0
  -22.6890  -31.3029   21.4139 H   0  0  0  0  0  0
  -23.3684  -35.9673   23.3411 H   0  0  0  0  0  0
  -24.3483  -36.8877   22.2067 H   0  0  0  0  0  0
  -23.7259  -37.6545   23.6664 H   0  0  0  0  0  0
  -26.0806  -31.6078   20.6306 H   0  0  0  0  0  0
  -26.8170  -30.8496   22.0156 H   0  0  0  0  0  0
  -28.1087  -29.0770   21.1485 H   0  0  0  0  0  0
  -26.0157  -25.9393   19.0610 H   0  0  0  0  0  0
  -23.9580  -27.2972   19.0501 H   0  0  0  0  0  0
  -23.7252  -30.6148   19.4081 H   0  0  0  0  0  0
  -22.7404  -29.2577   19.8620 H   0  0  0  0  0  0
  -25.1255  -36.1943   25.0828 H   0  0  0  0  0  0
  -20.9936  -28.3187   24.1466 H   0  0  0  0  0  0
  -20.5634  -26.2248   23.3580 H   0  0  0  0  0  0
  -21.6626  -26.7400   22.1221 H   0  0  0  0  0  0
  -19.6880  -25.6297   21.1227 H   0  0  0  0  0  0
  -19.6724  -27.3191   20.6736 H   0  0  0  0  0  0
  -17.4202  -26.6718   21.4012 H   0  0  0  0  0  0
  -18.0288  -26.0059   22.8981 H   0  0  0  0  0  0
  -19.7947  -30.7198   24.2332 H   0  0  0  0  0  0
  -17.5053  -31.6254   24.5176 H   0  0  0  0  0  0
  -15.5371  -30.3017   23.7642 H   0  0  0  0  0  0
  -15.8660  -28.0834   22.7077 H   0  0  0  0  0  0
  -24.5709  -30.7545   25.7892 H   0  0  0  0  0  0
  -24.9306  -32.3081   26.5258 H   0  0  0  0  0  0
  -25.8062  -30.8739   27.0184 H   0  0  0  0  0  0
  -26.3075  -29.6716   24.1452 H   0  0  0  0  0  0
  -27.4241  -29.7531   25.4902 H   0  0  0  0  0  0
  -27.8884  -30.4433   23.9551 H   0  0  0  0  0  0
  -27.2562  -33.3780   26.2099 H   0  0  0  0  0  0
  -28.3669  -32.7343   25.0157 H   0  0  0  0  0  0
  -28.0963  -31.8761   26.5253 H   0  0  0  0  0  0
  -28.2585  -38.0059   24.7388 H   0  0  0  0  0  0
  -28.1001  -36.2568   24.6384 H   0  0  0  0  0  0
  -27.2252  -37.1581   25.8861 H   0  0  0  0  0  0
  -20.9255  -29.8797   21.7036 H   0  0  0  0  0  0
  -26.0142  -38.2832   24.1429 H   0  0  0  0  0  0
  -30.2582  -19.9118   22.2046 H   0  0  0  0  0  0
  -30.5975  -17.4282   22.7647 H   0  0  0  0  0  0
  -27.7916  -23.5755   22.8272 H   0  0  0  0  0  0
  -26.3107  -23.1074   22.0037 H   0  0  0  0  0  0
  -27.2422  -20.9919   21.7282 H   0  0  0  0  0  0
  -28.7634  -21.5797   22.3947 H   0  0  0  0  0  0
  -29.7782  -23.4987   20.0493 H   0  0  0  0  0  0
  -28.5597  -23.3075   18.7975 H   0  0  0  0  0  0
  -26.8607  -24.1984   20.1154 H   0  0  0  0  0  0
  -29.2682  -25.4300   21.5613 H   0  0  0  0  0  0
  -27.6521  -25.8573   21.9549 H   0  0  0  0  0  0
  -28.7463  -15.1359   21.1705 H   0  0  0  0  0  0
  1 25  1  0  0  0
  1 30  2  0  0  0
  1 82  1  0  0  0
  2  3  1  0  0  0
  2 25  1  0  0  0
  2 85  1  0  0  0
  2 86  1  0  0  0
  3  4  1  0  0  0
  3 87  1  0  0  0
  3 88  1  0  0  0
  4  5  1  0  0  0
  4 89  1  0  0  0
  4 90  1  0  0  0
  5  6  1  0  0  0
  5 26  1  0  0  0
  5 91  1  0  0  0
  6 25  1  0  0  0
  6 92  1  0  0  0
  6 93  1  0  0  0
  7  8  2  0  0  0
  7 26  1  0  0  0
  7 29  1  0  0  0
  8  9  1  0  0  0
  8 22  1  0  0  0
  9 10  1  0  0  0
  9 27  2  0  0  0
 10 11  2  0  0  0
 10 15  1  0  0  0
 11 12  1  0  0  0
 11 94  1  0  0  0
 12 13  2  0  0  0
 12 95  1  0  0  0
 13 14  1  0  0  0
 13 31  1  0  0  0
 14 15  2  0  0  0
 14 96  1  0  0  0
 15 97  1  0  0  0
 16 17  2  0  0  0
 16 21  1  0  0  0
 16 31  1  0  0  0
 17 18  1  0  0  0
 17 98  1  0  0  0
 18 19  2  0  0  0
 18 99  1  0  0  0
 19 20  1  0  0  0
 19 24  1  0  0  0
 20 21  2  0  0  0
 20100  1  0  0  0
 21 23  1  0  0  0
 22 28  1  0  0  0
 22 32  2  0  0  0
 26 27  1  0  0  0
 28101  1  0  0  0
 28102  1  0  0  0
 29103  1  0  0  0
 29104  1  0  0  0
 33 34  1  0  0  0
 33 66  1  0  0  0
 33 70  2  0  0  0
 34 36  1  0  0  0
 34 59  1  0  0  0
 34105  1  0  0  0
 35 44  2  0  0  0
 35 45  1  0  0  0
 35 68  1  0  0  0
 36 56  1  0  0  0
 36106  1  0  0  0
 37 39  1  0  0  0
 37 47  1  0  0  0
 37 66  1  0  0  0
 37107  1  0  0  0
 38 43  2  0  0  0
 38 46  1  0  0  0
 38 47  1  0  0  0
 39 64  1  0  0  0
 39 67  2  0  0  0
 40 52  1  0  0  0
 40 53  2  0  0  0
 40 58  1  0  0  0
 41108  1  0  0  0
 41109  1  0  0  0
 41110  1  0  0  0
 41 48  1  0  0  0
 42 43  1  0  0  0
 42 66  1  0  0  0
 42111  1  0  0  0
 42112  1  0  0  0
 43 44  1  0  0  0
 44113  1  0  0  0
 45 46  2  0  0  0
 45114  1  0  0  0
 46115  1  0  0  0
 47116  1  0  0  0
 47117  1  0  0  0
 48 56  1  0  0  0
 48 65  1  0  0  0
 48118  1  0  0  0
 49 50  1  0  0  0
 49 53  1  0  0  0
 49 64  1  0  0  0
 49119  1  0  0  0
 50 51  1  0  0  0
 50120  1  0  0  0
 50121  1  0  0  0
 51 52  1  0  0  0
 51122  1  0  0  0
 51123  1  0  0  0
 52124  1  0  0  0
 52125  1  0  0  0
 53 54  1  0  0  0
 54 55  2  0  0  0
 54126  1  0  0  0
 55 57  1  0  0  0
 55127  1  0  0  0
 56 69  2  0  0  0
 57 58  2  0  0  0
 57128  1  0  0  0
 58129  1  0  0  0
 59 60  1  0  0  0
 59 61  1  0  0  0
 59 62  1  0  0  0
 60130  1  0  0  0
 60131  1  0  0  0
 60132  1  0  0  0
 61133  1  0  0  0
 61134  1  0  0  0
 61135  1  0  0  0
 62136  1  0  0  0
 62137  1  0  0  0
 62138  1  0  0  0
 63 65  1  0  0  0
 63139  1  0  0  0
 63140  1  0  0  0
 63141  1  0  0  0
 64142  1  0  0  0
 65143  1  0  0  0
 68 80  1  0  0  0
 71 72  1  0  0  0
 71 73  2  0  0  0
 71144  1  0  0  0
 72 74  2  0  0  0
 72145  1  0  0  0
 73 75  1  0  0  0
 73 84  1  0  0  0
 74 82  1  0  0  0
 74 84  1  0  0  0
 75 81  1  0  0  0
 75 83  2  0  0  0
 76 77  1  0  0  0
 76 79  1  0  0  0
 76146  1  0  0  0
 76147  1  0  0  0
 77 81  1  0  0  0
 77148  1  0  0  0
 77149  1  0  0  0
 78 79  1  0  0  0
 78 81  1  0  0  0
 78150  1  0  0  0
 78151  1  0  0  0
 79 80  1  0  0  0
 79152  1  0  0  0
 80153  1  0  0  0
 80154  1  0  0  0
 82155  1  0  0  0
M  ISO  4   1 100  68 101  80 101  82 100
M  END
> <chiral flag>
0

> <version>
0

> <s_m_source_file>
/data/baiqing/PycharmProjects/Reinvent-master-3.2/result/LINK_invent/BTK/process_docking_weight1_custom_product_contain_oxygen_bond_distance_aromatic_linkinvent_7_9_3/rearranged_h_0103.sdf

> <i_m_source_file_index>
72

> <r_mmod_Potential_Energy-OPLS-2005>
133.80989074707

> <r_mmod_Stretch_Energy-OPLS-2005>
49.3274993896484

> <r_mmod_Bend_Energy-OPLS-2005>
131.372482299805

> <r_mmod_Torsional_Energy-OPLS-2005>
379.484832763672

> <r_mmod_Improper_Torsional_Energy-OPLS-2005>
6.24799966812134

> <r_mmod_Van_der_Waal_Energy-OPLS-2005>
119.806304931641

> <r_mmod_Electrostatic_Energy-OPLS-2005>
-346.874450683594

> <r_mmod_Solvation_Energy-OPLS-2005>
-238.993209838867

> <b_mmod_Minimization_Converged-OPLS-2005>
0

> <r_mmod_RMS_Derivative-OPLS-2005>
9.56612491607666

$$$$
72
                    3D
 Structure written by MMmdl.
160169  0  0  1  0            999 V2000
  -30.6592  -14.7045   20.4555 C   0  0  0  0  0  0
  -30.4256  -12.4294   19.4765 C   0  0  0  0  0  0
  -29.5090  -12.5004   18.2371 C   0  0  0  0  0  0
  -28.0331  -12.3312   18.6478 C   0  0  0  0  0  0
  -27.6393  -13.2346   19.8478 C   0  0  2  0  0  0
  -28.6839  -13.1583   20.9818 C   0  0  0  0  0  0
  -25.2489  -13.8208   20.5693 C   0  0  0  0  0  0
  -24.1789  -13.0437   20.9214 C   0  0  0  0  0  0
  -24.6390  -11.6919   20.8772 C   0  0  0  0  0  0
  -23.9069  -10.4288   21.0436 C   0  0  0  0  0  0
  -24.3621   -9.4195   21.9205 C   0  0  0  0  0  0
  -23.6305   -8.2226   22.0739 C   0  0  0  0  0  0
  -22.4292   -8.0266   21.3525 C   0  0  0  0  0  0
  -21.9925   -9.0251   20.4640 C   0  0  0  0  0  0
  -22.7244  -10.2138   20.3071 C   0  0  0  0  0  0
  -21.6832   -6.0737   22.5292 C   0  0  0  0  0  0
  -21.3994   -6.5635   23.8229 C   0  0  0  0  0  0
  -21.3673   -5.6780   24.9199 C   0  0  0  0  0  0
  -21.6052   -4.3047   24.7237 C   0  0  0  0  0  0
  -21.8812   -3.8145   23.4356 C   0  0  0  0  0  0
  -21.9172   -4.6966   22.3403 C   0  0  0  0  0  0
  -22.7813  -13.5209   21.1902 C   0  0  0  0  0  0
  -22.1647   -4.2156   21.0983 F   0  0  0  0  0  0
  -21.5649   -3.4526   25.7747 F   0  0  0  0  0  0
  -29.9900  -13.5008   20.4014 N   0  0  0  0  0  0
  -26.2918  -12.9424   20.3278 N   0  0  0  0  0  0
  -25.9319  -11.6564   20.5775 N   0  0  0  0  0  0
  -22.0416  -12.8247   22.0475 N   0  0  0  0  0  0
  -25.4183  -15.1942   20.4145 N   0  0  0  0  0  0
  -31.8497  -14.7417   20.1298 O   0  0  0  0  0  0
  -21.6619   -6.8894   21.4251 O   0  0  0  0  0  0
  -22.3515  -14.5495   20.6733 O   0  0  0  0  0  0
  -24.6295  -31.8571   23.1997 C   0  0  0  0  0  0
  -25.9126  -32.4761   23.8337 C   0  0  1  0  0  0
  -27.2269  -27.3067   20.0790 C   0  0  0  0  0  0
  -25.5918  -33.8560   24.2256 N   0  0  0  0  0  0
  -23.4238  -30.4822   21.5429 C   0  0  2  0  0  0
  -24.8665  -28.9386   20.1023 C   0  0  0  0  0  0
  -22.7494  -29.4617   22.4912 C   0  0  0  0  0  0
  -18.0299  -28.1409   22.8493 C   0  0  0  0  0  0
  -24.1478  -36.7276   23.2639 C   0  0  0  0  0  0
  -25.9677  -30.7813   21.3721 C   0  0  0  0  0  0
  -26.0369  -29.4095   20.7063 C   0  0  0  0  0  0
  -27.2157  -28.6032   20.6889 C   0  0  0  0  0  0
  -26.0184  -26.8792   19.4986 C   0  0  0  0  0  0
  -24.8577  -27.6745   19.4936 C   0  0  0  0  0  0
  -23.6355  -29.8184   20.1563 C   0  0  0  0  0  0
  -25.4106  -36.3065   24.0328 C   0  0  1  0  0  0
  -20.5907  -28.3712   23.1271 C   0  0  2  0  0  0
  -20.6780  -26.9432   22.5408 C   0  0  0  0  0  0
  -19.5753  -26.6399   21.5216 C   0  0  0  0  0  0
  -18.1940  -26.7951   22.1636 C   0  0  0  0  0  0
  -19.1554  -28.8882   23.2883 C   0  0  0  0  0  0
  -18.9473  -30.1480   23.8906 C   0  0  0  0  0  0
  -17.6470  -30.6608   24.0574 C   0  0  0  0  0  0
  -25.9056  -34.9440   23.5101 C   0  0  0  0  0  0
  -16.5360  -29.9116   23.6330 C   0  0  0  0  0  0
  -16.7284  -28.6530   23.0358 C   0  0  0  0  0  0
  -26.4499  -31.6592   25.0729 C   0  0  0  0  0  0
  -25.3726  -31.3743   26.1453 C   0  0  0  0  0  0
  -27.0336  -30.3012   24.6194 C   0  0  0  0  0  0
  -27.6054  -32.4341   25.7499 C   0  0  0  0  0  0
  -27.5578  -37.1776   24.8459 C   0  0  0  0  0  0
  -21.4210  -29.3050   22.3653 N   0  0  0  0  0  0
  -26.4271  -37.3769   23.9429 N   0  0  0  0  0  0
  -24.6930  -31.0576   22.0937 N   0  0  0  0  0  0
  -23.4214  -28.8160   23.2996 O   0  0  0  0  0  0
  -28.3507  -26.4651   20.1567 O   0  0  0  0  0  0
  -26.5630  -34.8919   22.4670 O   0  0  0  0  0  0
  -23.5454  -32.1362   23.7306 O   0  0  0  0  0  0
  -28.3304  -18.9447   19.5743 C   0  0  0  0  0  0
  -30.6459  -19.3477   20.0448 C   0  0  0  0  0  0
  -28.1141  -20.3544   19.4180 C   0  0  0  0  0  0
  -30.4347  -20.7548   19.8678 C   0  0  0  0  0  0
  -29.6104  -18.3859   19.8622 C   0  0  0  0  0  0
  -29.1731  -21.3056   19.5053 C   0  0  0  0  0  0
  -29.1942  -22.6779   17.6024 C   0  0  0  0  0  0
  -29.9213  -16.8740   19.6298 C   0  0  0  0  0  0
  -28.0161  -23.3452   16.9252 C   0  0  0  0  0  0
  -27.1091  -23.6563   18.1107 C   0  0  0  0  0  0
  -28.0884  -23.7981   19.2970 C   0  0  2  0  0  0
  -29.6595  -16.3028   21.9991 C   0  0  0  0  0  0
  -28.6812  -25.3174   19.2632 C   0  0  0  0  0  0
  -29.0666  -22.6758   18.9459 N   0  0  0  0  0  0
  -29.9548  -15.8957   20.6205 N   0  0  0  0  0  0
  -30.1103  -22.1628   16.9529 O   0  0  0  0  0  0
  -30.1256  -16.5783   18.4466 O   0  0  0  0  0  0
  -31.4679  -12.5338   19.1690 H   0  0  0  0  0  0
  -30.3584  -11.4514   19.9596 H   0  0  0  0  0  0
  -29.7905  -11.7317   17.5153 H   0  0  0  0  0  0
  -29.6450  -13.4573   17.7331 H   0  0  0  0  0  0
  -27.8944  -11.2856   18.9223 H   0  0  0  0  0  0
  -27.3752  -12.5132   17.7977 H   0  0  0  0  0  0
  -27.6350  -14.2574   19.4732 H   0  0  0  0  0  0
  -28.7074  -12.1557   21.4125 H   0  0  0  0  0  0
  -28.4093  -13.8299   21.7943 H   0  0  0  0  0  0
  -25.2756   -9.5678   22.4790 H   0  0  0  0  0  0
  -24.0006   -7.4606   22.7459 H   0  0  0  0  0  0
  -21.0831   -8.8774   19.8969 H   0  0  0  0  0  0
  -22.3690  -10.9678   19.6185 H   0  0  0  0  0  0
  -21.1976   -7.6134   23.9752 H   0  0  0  0  0  0
  -21.1511   -6.0505   25.9109 H   0  0  0  0  0  0
  -22.0585   -2.7611   23.2840 H   0  0  0  0  0  0
  -22.3944  -11.9884   22.4874 H   0  0  0  0  0  0
  -21.1045  -13.1340   22.2649 H   0  0  0  0  0  0
  -24.6554  -15.8523   20.5309 H   0  0  0  0  0  0
  -26.2796  -15.6351   20.1173 H   0  0  0  0  0  0
  -26.7191  -32.5402   23.1085 H   0  0  0  0  0  0
  -25.0040  -33.9688   25.0384 H   0  0  0  0  0  0
  -22.7206  -31.3057   21.3994 H   0  0  0  0  0  0
  -23.3730  -35.9614   23.3312 H   0  0  0  0  0  0
  -24.3567  -36.8884   22.2048 H   0  0  0  0  0  0
  -23.7227  -37.6482   23.6657 H   0  0  0  0  0  0
  -26.1083  -31.5463   20.6067 H   0  0  0  0  0  0
  -26.8448  -30.8231   22.0061 H   0  0  0  0  0  0
  -28.1135  -28.9611   21.1731 H   0  0  0  0  0  0
  -25.9197  -25.8914   19.1097 H   0  0  0  0  0  0
  -23.9519  -27.2954   19.0419 H   0  0  0  0  0  0
  -23.7513  -30.5940   19.3976 H   0  0  0  0  0  0
  -22.7552  -29.2463   19.8587 H   0  0  0  0  0  0
  -25.1281  -36.1904   25.0815 H   0  0  0  0  0  0
  -21.0023  -28.3281   24.1384 H   0  0  0  0  0  0
  -20.5679  -26.2322   23.3609 H   0  0  0  0  0  0
  -21.6647  -26.7446   22.1199 H   0  0  0  0  0  0
  -19.6907  -25.6306   21.1252 H   0  0  0  0  0  0
  -19.6697  -27.3205   20.6744 H   0  0  0  0  0  0
  -17.4204  -26.6705   21.4046 H   0  0  0  0  0  0
  -18.0347  -26.0107   22.9051 H   0  0  0  0  0  0
  -19.7951  -30.7295   24.2280 H   0  0  0  0  0  0
  -17.5027  -31.6288   24.5181 H   0  0  0  0  0  0
  -15.5366  -30.3019   23.7647 H   0  0  0  0  0  0
  -15.8688  -28.0843   22.7075 H   0  0  0  0  0  0
  -24.5903  -30.7096   25.7784 H   0  0  0  0  0  0
  -24.8916  -32.2913   26.4866 H   0  0  0  0  0  0
  -25.8045  -30.8930   27.0238 H   0  0  0  0  0  0
  -26.2912  -29.6774   24.1201 H   0  0  0  0  0  0
  -27.4007  -29.7267   25.4710 H   0  0  0  0  0  0
  -27.8806  -30.4302   23.9449 H   0  0  0  0  0  0
  -27.2661  -33.3650   26.2065 H   0  0  0  0  0  0
  -28.3871  -32.6889   25.0328 H   0  0  0  0  0  0
  -28.0723  -31.8472   26.5420 H   0  0  0  0  0  0
  -28.2561  -38.0107   24.7549 H   0  0  0  0  0  0
  -28.1105  -36.2633   24.6229 H   0  0  0  0  0  0
  -27.2312  -37.1367   25.8865 H   0  0  0  0  0  0
  -20.9393  -29.8753   21.6845 H   0  0  0  0  0  0
  -26.0144  -38.2832   24.1464 H   0  0  0  0  0  0
  -27.5098  -18.2727   19.3616 H   0  0  0  0  0  0
  -31.6569  -19.0045   20.2152 H   0  0  0  0  0  0
  -27.1389  -20.6856   19.0901 H   0  0  0  0  0  0
  -31.2887  -21.4181   19.9129 H   0  0  0  0  0  0
  -27.5320  -22.6817   16.2083 H   0  0  0  0  0  0
  -28.3473  -24.2455   16.4053 H   0  0  0  0  0  0
  -26.4114  -22.8368   18.2886 H   0  0  0  0  0  0
  -26.5185  -24.5253   17.8597 H   0  0  0  0  0  0
  -27.6159  -23.5984   20.2568 H   0  0  0  0  0  0
  -28.6836  -16.7874   22.0664 H   0  0  0  0  0  0
  -30.4163  -16.9984   22.3655 H   0  0  0  0  0  0
  -29.6497  -15.4624   22.6935 H   0  0  0  0  0  0
  -28.6563  -25.7060   18.2447 H   0  0  0  0  0  0
  -29.7493  -25.1993   19.4555 H   0  0  0  0  0  0
  1 25  1  0  0  0
  1 30  2  0  0  0
  1 85  1  0  0  0
  2  3  1  0  0  0
  2 25  1  0  0  0
  2 88  1  0  0  0
  2 89  1  0  0  0
  3  4  1  0  0  0
  3 90  1  0  0  0
  3 91  1  0  0  0
  4  5  1  0  0  0
  4 92  1  0  0  0
  4 93  1  0  0  0
  5  6  1  0  0  0
  5 26  1  0  0  0
  5 94  1  0  0  0
  6 25  1  0  0  0
  6 95  1  0  0  0
  6 96  1  0  0  0
  7  8  2  0  0  0
  7 26  1  0  0  0
  7 29  1  0  0  0
  8  9  1  0  0  0
  8 22  1  0  0  0
  9 10  1  0  0  0
  9 27  2  0  0  0
 10 11  2  0  0  0
 10 15  1  0  0  0
 11 12  1  0  0  0
 11 97  1  0  0  0
 12 13  2  0  0  0
 12 98  1  0  0  0
 13 14  1  0  0  0
 13 31  1  0  0  0
 14 15  2  0  0  0
 14 99  1  0  0  0
 15100  1  0  0  0
 16 17  2  0  0  0
 16 21  1  0  0  0
 16 31  1  0  0  0
 17 18  1  0  0  0
 17101  1  0  0  0
 18 19  2  0  0  0
 18102  1  0  0  0
 19 20  1  0  0  0
 19 24  1  0  0  0
 20 21  2  0  0  0
 20103  1  0  0  0
 21 23  1  0  0  0
 22 28  1  0  0  0
 22 32  2  0  0  0
 26 27  1  0  0  0
 28104  1  0  0  0
 28105  1  0  0  0
 29106  1  0  0  0
 29107  1  0  0  0
 33 34  1  0  0  0
 33 66  1  0  0  0
 33 70  2  0  0  0
 34 36  1  0  0  0
 34 59  1  0  0  0
 34108  1  0  0  0
 35 44  2  0  0  0
 35 45  1  0  0  0
 35 68  1  0  0  0
 36 56  1  0  0  0
 36109  1  0  0  0
 37 39  1  0  0  0
 37 47  1  0  0  0
 37 66  1  0  0  0
 37110  1  0  0  0
 38 43  2  0  0  0
 38 46  1  0  0  0
 38 47  1  0  0  0
 39 64  1  0  0  0
 39 67  2  0  0  0
 40 52  1  0  0  0
 40 53  2  0  0  0
 40 58  1  0  0  0
 41111  1  0  0  0
 41112  1  0  0  0
 41113  1  0  0  0
 41 48  1  0  0  0
 42 43  1  0  0  0
 42 66  1  0  0  0
 42114  1  0  0  0
 42115  1  0  0  0
 43 44  1  0  0  0
 44116  1  0  0  0
 45 46  2  0  0  0
 45117  1  0  0  0
 46118  1  0  0  0
 47119  1  0  0  0
 47120  1  0  0  0
 48 56  1  0  0  0
 48 65  1  0  0  0
 48121  1  0  0  0
 49 50  1  0  0  0
 49 53  1  0  0  0
 49 64  1  0  0  0
 49122  1  0  0  0
 50 51  1  0  0  0
 50123  1  0  0  0
 50124  1  0  0  0
 51 52  1  0  0  0
 51125  1  0  0  0
 51126  1  0  0  0
 52127  1  0  0  0
 52128  1  0  0  0
 53 54  1  0  0  0
 54 55  2  0  0  0
 54129  1  0  0  0
 55 57  1  0  0  0
 55130  1  0  0  0
 56 69  2  0  0  0
 57 58  2  0  0  0
 57131  1  0  0  0
 58132  1  0  0  0
 59 60  1  0  0  0
 59 61  1  0  0  0
 59 62  1  0  0  0
 60133  1  0  0  0
 60134  1  0  0  0
 60135  1  0  0  0
 61136  1  0  0  0
 61137  1  0  0  0
 61138  1  0  0  0
 62139  1  0  0  0
 62140  1  0  0  0
 62141  1  0  0  0
 63 65  1  0  0  0
 63142  1  0  0  0
 63143  1  0  0  0
 63144  1  0  0  0
 64145  1  0  0  0
 65146  1  0  0  0
 68 83  1  0  0  0
 71 73  2  0  0  0
 71 75  1  0  0  0
 71147  1  0  0  0
 72 74  1  0  0  0
 72 75  2  0  0  0
 72148  1  0  0  0
 73 76  1  0  0  0
 73149  1  0  0  0
 74 76  2  0  0  0
 74150  1  0  0  0
 75 78  1  0  0  0
 76 84  1  0  0  0
 77 79  1  0  0  0
 77 84  1  0  0  0
 77 86  2  0  0  0
 78 85  1  0  0  0
 78 87  2  0  0  0
 79 80  1  0  0  0
 79151  1  0  0  0
 79152  1  0  0  0
 80 81  1  0  0  0
 80153  1  0  0  0
 80154  1  0  0  0
 81 83  1  0  0  0
 81 84  1  0  0  0
 81155  1  0  0  0
 82 85  1  0  0  0
 82156  1  0  0  0
 82157  1  0  0  0
 82158  1  0  0  0
 83159  1  0  0  0
 83160  1  0  0  0
M  ISO  4   1 100  68 101  83 101  85 100
M  END
> <chiral flag>
0

> <version>
0

> <s_m_source_file>
/data/baiqing/PycharmProjects/Reinvent-master-3.2/result/LINK_invent/BTK/process_docking_weight1_custom_product_contain_oxygen_bond_distance_aromatic_linkinvent_7_9_3/rearranged_h_0103.sdf

> <i_m_source_file_index>
73

> <r_mmod_Potential_Energy-OPLS-2005>
521.013549804688

> <r_mmod_Stretch_Energy-OPLS-2005>
113.15535736084

> <r_mmod_Bend_Energy-OPLS-2005>
243.690338134766

> <r_mmod_Torsional_Energy-OPLS-2005>
451.755676269531

> <r_mmod_Improper_Torsional_Energy-OPLS-2005>
15.3151521682739

> <r_mmod_Van_der_Waal_Energy-OPLS-2005>
141.861129760742

> <r_mmod_Electrostatic_Energy-OPLS-2005>
-289.021728515625

> <r_mmod_Solvation_Energy-OPLS-2005>
-220.944198608398

> <b_mmod_Minimization_Converged-OPLS-2005>
0

> <r_mmod_RMS_Derivative-OPLS-2005>
3.60854601860046

$$$$
73
                    3D
 Structure written by MMmdl.
172181  0  0  1  0            999 V2000
  -30.7391  -14.3595   20.6167 C   0  0  0  0  0  0
  -30.4060  -12.2546   19.3988 C   0  0  0  0  0  0
  -29.4784  -12.5242   18.2007 C   0  0  0  0  0  0
  -27.9980  -12.4083   18.6084 C   0  0  0  0  0  0
  -27.6660  -13.2023   19.8986 C   0  0  2  0  0  0
  -28.7080  -12.9167   21.0062 C   0  0  0  0  0  0
  -25.2588  -13.8157   20.5679 C   0  0  0  0  0  0
  -24.1835  -13.0422   20.9180 C   0  0  0  0  0  0
  -24.6404  -11.6905   20.8763 C   0  0  0  0  0  0
  -23.9046  -10.4286   21.0402 C   0  0  0  0  0  0
  -24.3582   -9.4207   21.9179 C   0  0  0  0  0  0
  -23.6269   -8.2242   22.0737 C   0  0  0  0  0  0
  -22.4253   -8.0267   21.3535 C   0  0  0  0  0  0
  -21.9901   -9.0238   20.4641 C   0  0  0  0  0  0
  -22.7217  -10.2127   20.3064 C   0  0  0  0  0  0
  -21.6855   -6.0734   22.5269 C   0  0  0  0  0  0
  -21.4014   -6.5646   23.8197 C   0  0  0  0  0  0
  -21.3670   -5.6801   24.9157 C   0  0  0  0  0  0
  -21.6055   -4.3065   24.7218 C   0  0  0  0  0  0
  -21.8817   -3.8158   23.4339 C   0  0  0  0  0  0
  -21.9189   -4.6965   22.3391 C   0  0  0  0  0  0
  -22.7855  -13.5209   21.1851 C   0  0  0  0  0  0
  -22.1651   -4.2158   21.0964 F   0  0  0  0  0  0
  -21.5633   -3.4545   25.7733 F   0  0  0  0  0  0
  -30.0478  -13.2036   20.4620 N   0  0  0  0  0  0
  -26.3035  -12.9317   20.3484 N   0  0  0  0  0  0
  -25.9334  -11.6475   20.5832 N   0  0  0  0  0  0
  -22.0512  -12.8173   22.0416 N   0  0  0  0  0  0
  -25.4351  -15.1859   20.4034 N   0  0  0  0  0  0
  -31.8458  -14.5679   20.1091 O   0  0  0  0  0  0
  -21.6637   -6.8854   21.4218 O   0  0  0  0  0  0
  -22.3513  -14.5501   20.6722 O   0  0  0  0  0  0
  -24.6129  -31.8776   23.2207 C   0  0  0  0  0  0
  -25.9031  -32.4870   23.8511 C   0  0  1  0  0  0
  -27.2162  -27.4685   20.0833 C   0  0  0  0  0  0
  -25.5909  -33.8673   24.2413 N   0  0  0  0  0  0
  -23.4020  -30.5067   21.5616 C   0  0  2  0  0  0
  -24.8410  -28.9800   20.1183 C   0  0  0  0  0  0
  -22.7434  -29.4832   22.5112 C   0  0  0  0  0  0
  -18.0085  -28.1493   22.8323 C   0  0  0  0  0  0
  -24.1472  -36.7321   23.2639 C   0  0  0  0  0  0
  -25.9299  -30.8463   21.3743 C   0  0  0  0  0  0
  -26.0009  -29.4831   20.7225 C   0  0  0  0  0  0
  -27.1943  -28.7275   20.7139 C   0  0  0  0  0  0
  -26.0531  -26.9968   19.4363 C   0  0  0  0  0  0
  -24.8581  -27.7312   19.4805 C   0  0  0  0  0  0
  -23.6036  -29.8436   20.1755 C   0  0  0  0  0  0
  -25.4093  -36.3149   24.0358 C   0  0  1  0  0  0
  -20.5928  -28.3692   23.1166 C   0  0  2  0  0  0
  -20.7738  -26.9704   22.4622 C   0  0  0  0  0  0
  -19.5443  -26.4243   21.7052 C   0  0  0  0  0  0
  -18.1044  -26.8619   22.0289 C   0  0  0  0  0  0
  -19.1483  -28.8695   23.2849 C   0  0  0  0  0  0
  -18.9485  -30.1236   23.9057 C   0  0  0  0  0  0
  -17.6547  -30.6511   24.0803 C   0  0  0  0  0  0
  -25.9018  -34.9505   23.5159 C   0  0  0  0  0  0
  -16.5343  -29.9180   23.6562 C   0  0  0  0  0  0
  -16.7143  -28.6689   23.0408 C   0  0  0  0  0  0
  -26.4463  -31.6615   25.0803 C   0  0  0  0  0  0
  -25.3724  -31.3682   26.1557 C   0  0  0  0  0  0
  -27.0325  -30.3084   24.6131 C   0  0  0  0  0  0
  -27.6056  -32.4339   25.7532 C   0  0  0  0  0  0
  -27.5582  -37.1811   24.8484 C   0  0  0  0  0  0
  -21.4127  -29.3446   22.4037 N   0  0  0  0  0  0
  -26.4292  -37.3819   23.9424 N   0  0  0  0  0  0
  -24.6671  -31.0910   22.1106 N   0  0  0  0  0  0
  -23.4239  -28.8138   23.2955 O   0  0  0  0  0  0
  -28.3646  -26.7168   20.0594 O   0  0  0  0  0  0
  -26.5566  -34.8914   22.4709 O   0  0  0  0  0  0
  -23.5319  -32.1558   23.7592 O   0  0  0  0  0  0
  -30.3341  -19.1803   19.5818 C   0  0  0  0  0  0
  -31.1489  -17.5417   21.1871 C   0  0  0  0  0  0
  -29.1812  -17.0466   19.8289 C   0  0  0  0  0  0
  -31.2578  -18.8188   20.5899 C   0  0  0  0  0  0
  -29.2768  -18.3124   19.2340 C   0  0  0  0  0  0
  -30.1378  -16.6472   20.7793 C   0  0  0  0  0  0
  -32.3239  -19.7598   21.0430 C   0  0  0  0  0  0
  -26.3642  -21.2850   20.7239 C   0  0  0  0  0  0
  -26.2891  -24.6922   22.0644 C   0  0  0  0  0  0
  -25.7258  -23.2626   22.0841 C   0  0  0  0  0  0
  -27.9286  -23.2062   21.1831 C   0  0  0  0  0  0
  -27.4222  -24.6330   21.0354 C   0  0  2  0  0  0
  -32.4929  -21.0647   20.2754 C   0  0  0  0  0  0
  -28.1836  -18.7621   18.2873 C   0  0  0  0  0  0
  -27.4427  -20.6220   19.8654 C   0  0  0  0  0  0
  -28.4763  -25.7637   21.1201 C   0  0  0  0  0  0
  -27.0081  -19.3750   19.0680 C   0  0  0  0  0  0
  -26.6835  -22.4462   21.3370 N   0  0  0  0  0  0
  -30.0848  -15.3277   21.2691 N   0  0  0  0  0  0
  -33.0667  -19.5376   22.0049 O   0  0  0  0  0  0
  -25.2568  -20.7525   20.8443 O   0  0  0  0  0  0
  -31.4488  -12.3372   19.0905 H   0  0  0  0  0  0
  -30.2817  -11.2269   19.7453 H   0  0  0  0  0  0
  -29.6899  -11.8301   17.3872 H   0  0  0  0  0  0
  -29.6772  -13.5226   17.8073 H   0  0  0  0  0  0
  -27.7662  -11.3513   18.7420 H   0  0  0  0  0  0
  -27.3583  -12.7523   17.7957 H   0  0  0  0  0  0
  -27.7250  -14.2610   19.6535 H   0  0  0  0  0  0
  -28.6689  -11.8678   21.3068 H   0  0  0  0  0  0
  -28.4812  -13.4784   21.9140 H   0  0  0  0  0  0
  -25.2715   -9.5677   22.4767 H   0  0  0  0  0  0
  -23.9996   -7.4626   22.7433 H   0  0  0  0  0  0
  -21.0865   -8.8726   19.8924 H   0  0  0  0  0  0
  -22.3655  -10.9648   19.6183 H   0  0  0  0  0  0
  -21.1994   -7.6159   23.9679 H   0  0  0  0  0  0
  -21.1504   -6.0552   25.9052 H   0  0  0  0  0  0
  -22.0596   -2.7625   23.2835 H   0  0  0  0  0  0
  -22.4182  -11.9824   22.4756 H   0  0  0  0  0  0
  -21.1142  -13.1169   22.2655 H   0  0  0  0  0  0
  -24.6816  -15.8552   20.5071 H   0  0  0  0  0  0
  -26.2976  -15.6064   20.0840 H   0  0  0  0  0  0
  -26.7083  -32.5597   23.1270 H   0  0  0  0  0  0
  -25.0133  -33.9909   25.0619 H   0  0  0  0  0  0
  -22.6948  -31.3273   21.4223 H   0  0  0  0  0  0
  -23.3763  -35.9627   23.3340 H   0  0  0  0  0  0
  -24.3587  -36.8914   22.2053 H   0  0  0  0  0  0
  -23.7179  -37.6507   23.6629 H   0  0  0  0  0  0
  -26.0452  -31.6146   20.6094 H   0  0  0  0  0  0
  -26.8171  -30.8986   21.9923 H   0  0  0  0  0  0
  -28.0921  -29.1041   21.1856 H   0  0  0  0  0  0
  -26.0507  -26.0681   18.8888 H   0  0  0  0  0  0
  -23.9696  -27.3500   18.9975 H   0  0  0  0  0  0
  -23.7064  -30.6235   19.4217 H   0  0  0  0  0  0
  -22.7251  -29.2643   19.8808 H   0  0  0  0  0  0
  -25.1231  -36.2074   25.0849 H   0  0  0  0  0  0
  -20.9876  -28.3046   24.1334 H   0  0  0  0  0  0
  -21.1558  -26.2854   23.2301 H   0  0  0  0  0  0
  -21.6128  -26.9870   21.7633 H   0  0  0  0  0  0
  -19.3830  -26.0107   22.6972 H   0  0  0  0  0  0
  -19.6025  -27.3565   21.1379 H   0  0  0  0  0  0
  -17.5751  -27.0324   21.0877 H   0  0  0  0  0  0
  -17.4941  -26.0939   22.5205 H   0  0  0  0  0  0
  -19.7995  -30.6963   24.2469 H   0  0  0  0  0  0
  -17.5241  -31.6162   24.5518 H   0  0  0  0  0  0
  -15.5386  -30.3188   23.7960 H   0  0  0  0  0  0
  -15.8478  -28.1239   22.6910 H   0  0  0  0  0  0
  -24.5901  -30.7036   25.7889 H   0  0  0  0  0  0
  -24.8901  -32.2802   26.5067 H   0  0  0  0  0  0
  -25.8091  -30.8812   27.0296 H   0  0  0  0  0  0
  -26.2884  -29.6838   24.1168 H   0  0  0  0  0  0
  -27.4132  -29.7317   25.4574 H   0  0  0  0  0  0
  -27.8688  -30.4479   23.9283 H   0  0  0  0  0  0
  -27.2710  -33.3661   26.2116 H   0  0  0  0  0  0
  -28.3832  -32.6894   25.0311 H   0  0  0  0  0  0
  -28.0753  -31.8461   26.5441 H   0  0  0  0  0  0
  -28.2591  -38.0111   24.7545 H   0  0  0  0  0  0
  -28.1079  -36.2645   24.6289 H   0  0  0  0  0  0
  -27.2306  -37.1433   25.8888 H   0  0  0  0  0  0
  -20.9235  -29.9477   21.7568 H   0  0  0  0  0  0
  -26.0215  -38.2902   24.1459 H   0  0  0  0  0  0
  -30.3786  -20.1515   19.1117 H   0  0  0  0  0  0
  -31.8601  -17.2402   21.9426 H   0  0  0  0  0  0
  -28.3815  -16.3855   19.5311 H   0  0  0  0  0  0
  -26.6849  -24.9426   23.0501 H   0  0  0  0  0  0
  -25.5293  -25.4356   21.8153 H   0  0  0  0  0  0
  -24.7300  -23.2336   21.6366 H   0  0  0  0  0  0
  -25.6455  -22.8878   23.1034 H   0  0  0  0  0  0
  -28.5264  -23.0809   22.0847 H   0  0  0  0  0  0
  -28.5542  -22.9381   20.3341 H   0  0  0  0  0  0
  -26.9878  -24.6328   20.0384 H   0  0  0  0  0  0
  -33.3155  -21.6469   20.6914 H   0  0  0  0  0  0
  -31.5845  -21.6632   20.3406 H   0  0  0  0  0  0
  -32.7051  -20.8543   19.2283 H   0  0  0  0  0  0
  -27.8362  -17.9105   17.7021 H   0  0  0  0  0  0
  -28.5873  -19.4765   17.5699 H   0  0  0  0  0  0
  -28.2356  -20.3677   20.5635 H   0  0  0  0  0  0
  -27.8484  -21.3403   19.1544 H   0  0  0  0  0  0
  -29.4735  -25.3283   21.0447 H   0  0  0  0  0  0
  -28.4411  -26.2687   22.0874 H   0  0  0  0  0  0
  -26.5948  -18.6240   19.7434 H   0  0  0  0  0  0
  -26.2122  -19.6349   18.3711 H   0  0  0  0  0  0
  -29.1965  -15.0269   21.6420 H   0  0  0  0  0  0
  1 25  1  0  0  0
  1 30  2  0  0  0
  1 89  1  0  0  0
  2  3  1  0  0  0
  2 25  1  0  0  0
  2 92  1  0  0  0
  2 93  1  0  0  0
  3  4  1  0  0  0
  3 94  1  0  0  0
  3 95  1  0  0  0
  4  5  1  0  0  0
  4 96  1  0  0  0
  4 97  1  0  0  0
  5  6  1  0  0  0
  5 26  1  0  0  0
  5 98  1  0  0  0
  6 25  1  0  0  0
  6 99  1  0  0  0
  6100  1  0  0  0
  7  8  2  0  0  0
  7 26  1  0  0  0
  7 29  1  0  0  0
  8  9  1  0  0  0
  8 22  1  0  0  0
  9 10  1  0  0  0
  9 27  2  0  0  0
 10 11  2  0  0  0
 10 15  1  0  0  0
 11 12  1  0  0  0
 11101  1  0  0  0
 12 13  2  0  0  0
 12102  1  0  0  0
 13 14  1  0  0  0
 13 31  1  0  0  0
 14 15  2  0  0  0
 14103  1  0  0  0
 15104  1  0  0  0
 16 17  2  0  0  0
 16 21  1  0  0  0
 16 31  1  0  0  0
 17 18  1  0  0  0
 17105  1  0  0  0
 18 19  2  0  0  0
 18106  1  0  0  0
 19 20  1  0  0  0
 19 24  1  0  0  0
 20 21  2  0  0  0
 20107  1  0  0  0
 21 23  1  0  0  0
 22 28  1  0  0  0
 22 32  2  0  0  0
 26 27  1  0  0  0
 28108  1  0  0  0
 28109  1  0  0  0
 29110  1  0  0  0
 29111  1  0  0  0
 33 34  1  0  0  0
 33 66  1  0  0  0
 33 70  2  0  0  0
 34 36  1  0  0  0
 34 59  1  0  0  0
 34112  1  0  0  0
 35 44  2  0  0  0
 35 45  1  0  0  0
 35 68  1  0  0  0
 36 56  1  0  0  0
 36113  1  0  0  0
 37 39  1  0  0  0
 37 47  1  0  0  0
 37 66  1  0  0  0
 37114  1  0  0  0
 38 43  2  0  0  0
 38 46  1  0  0  0
 38 47  1  0  0  0
 39 64  1  0  0  0
 39 67  2  0  0  0
 40 52  1  0  0  0
 40 53  2  0  0  0
 40 58  1  0  0  0
 41115  1  0  0  0
 41116  1  0  0  0
 41117  1  0  0  0
 41 48  1  0  0  0
 42 43  1  0  0  0
 42 66  1  0  0  0
 42118  1  0  0  0
 42119  1  0  0  0
 43 44  1  0  0  0
 44120  1  0  0  0
 45 46  2  0  0  0
 45121  1  0  0  0
 46122  1  0  0  0
 47123  1  0  0  0
 47124  1  0  0  0
 48 56  1  0  0  0
 48 65  1  0  0  0
 48125  1  0  0  0
 49 50  1  0  0  0
 49 53  1  0  0  0
 49 64  1  0  0  0
 49126  1  0  0  0
 50 51  1  0  0  0
 50127  1  0  0  0
 50128  1  0  0  0
 51 52  1  0  0  0
 51129  1  0  0  0
 51130  1  0  0  0
 52131  1  0  0  0
 52132  1  0  0  0
 53 54  1  0  0  0
 54 55  2  0  0  0
 54133  1  0  0  0
 55 57  1  0  0  0
 55134  1  0  0  0
 56 69  2  0  0  0
 57 58  2  0  0  0
 57135  1  0  0  0
 58136  1  0  0  0
 59 60  1  0  0  0
 59 61  1  0  0  0
 59 62  1  0  0  0
 60137  1  0  0  0
 60138  1  0  0  0
 60139  1  0  0  0
 61140  1  0  0  0
 61141  1  0  0  0
 61142  1  0  0  0
 62143  1  0  0  0
 62144  1  0  0  0
 62145  1  0  0  0
 63 65  1  0  0  0
 63146  1  0  0  0
 63147  1  0  0  0
 63148  1  0  0  0
 64149  1  0  0  0
 65150  1  0  0  0
 68 86  1  0  0  0
 71 74  2  0  0  0
 71 75  1  0  0  0
 71151  1  0  0  0
 72 74  1  0  0  0
 72 76  2  0  0  0
 72152  1  0  0  0
 73 75  2  0  0  0
 73 76  1  0  0  0
 73153  1  0  0  0
 74 77  1  0  0  0
 75 84  1  0  0  0
 76 89  1  0  0  0
 77 83  1  0  0  0
 77 90  2  0  0  0
 78 85  1  0  0  0
 78 88  1  0  0  0
 78 91  2  0  0  0
 79 80  1  0  0  0
 79 82  1  0  0  0
 79154  1  0  0  0
 79155  1  0  0  0
 80 88  1  0  0  0
 80156  1  0  0  0
 80157  1  0  0  0
 81 82  1  0  0  0
 81 88  1  0  0  0
 81158  1  0  0  0
 81159  1  0  0  0
 82 86  1  0  0  0
 82160  1  0  0  0
 83161  1  0  0  0
 83162  1  0  0  0
 83163  1  0  0  0
 84 87  1  0  0  0
 84164  1  0  0  0
 84165  1  0  0  0
 85 87  1  0  0  0
 85166  1  0  0  0
 85167  1  0  0  0
 86168  1  0  0  0
 86169  1  0  0  0
 87170  1  0  0  0
 87171  1  0  0  0
 89172  1  0  0  0
M  ISO  4   1 100  68 101  86 101  89 100
M  END
> <chiral flag>
0

> <version>
0

> <s_m_source_file>
/data/baiqing/PycharmProjects/Reinvent-master-3.2/result/LINK_invent/BTK/process_docking_weight1_custom_product_contain_oxygen_bond_distance_aromatic_linkinvent_7_9_3/rearranged_h_0103.sdf

> <i_m_source_file_index>
74

> <r_mmod_Potential_Energy-OPLS-2005>
345.468902587891

> <r_mmod_Stretch_Energy-OPLS-2005>
33.6773338317871

> <r_mmod_Bend_Energy-OPLS-2005>
361.709014892578

> <r_mmod_Torsional_Energy-OPLS-2005>
378.663665771484

> <r_mmod_Improper_Torsional_Energy-OPLS-2005>
6.84094333648682

> <r_mmod_Van_der_Waal_Energy-OPLS-2005>
182.919387817383

> <r_mmod_Electrostatic_Energy-OPLS-2005>
-394.658386230469

> <r_mmod_Solvation_Energy-OPLS-2005>
-247.668273925781

> <b_mmod_Minimization_Converged-OPLS-2005>
0

> <r_mmod_RMS_Derivative-OPLS-2005>
4.35758543014526

$$$$
74
                    3D
 Structure written by MMmdl.
160169  0  0  1  0            999 V2000
  -30.7367  -14.4210   20.6065 C   0  0  0  0  0  0
  -30.4177  -12.2914   19.4108 C   0  0  0  0  0  0
  -29.4920  -12.5389   18.2026 C   0  0  0  0  0  0
  -28.0115  -12.4044   18.6091 C   0  0  0  0  0  0
  -27.6705  -13.2112   19.8909 C   0  0  2  0  0  0
  -28.7127  -12.9568   21.0060 C   0  0  0  0  0  0
  -25.2632  -13.8192   20.5719 C   0  0  0  0  0  0
  -24.1870  -13.0465   20.9180 C   0  0  0  0  0  0
  -24.6415  -11.6933   20.8742 C   0  0  0  0  0  0
  -23.9060  -10.4321   21.0397 C   0  0  0  0  0  0
  -24.3612   -9.4241   21.9180 C   0  0  0  0  0  0
  -23.6302   -8.2268   22.0741 C   0  0  0  0  0  0
  -22.4279   -8.0298   21.3545 C   0  0  0  0  0  0
  -21.9911   -9.0266   20.4639 C   0  0  0  0  0  0
  -22.7228  -10.2156   20.3049 C   0  0  0  0  0  0
  -21.6860   -6.0754   22.5286 C   0  0  0  0  0  0
  -21.4008   -6.5644   23.8212 C   0  0  0  0  0  0
  -21.3664   -5.6790   24.9169 C   0  0  0  0  0  0
  -21.6048   -4.3058   24.7219 C   0  0  0  0  0  0
  -21.8826   -3.8155   23.4336 C   0  0  0  0  0  0
  -21.9188   -4.6975   22.3401 C   0  0  0  0  0  0
  -22.7892  -13.5266   21.1829 C   0  0  0  0  0  0
  -22.1655   -4.2161   21.0973 F   0  0  0  0  0  0
  -21.5643   -3.4545   25.7728 F   0  0  0  0  0  0
  -30.0527  -13.2521   20.4650 N   0  0  0  0  0  0
  -26.3081  -12.9360   20.3447 N   0  0  0  0  0  0
  -25.9347  -11.6519   20.5781 N   0  0  0  0  0  0
  -22.0507  -12.8267   22.0373 N   0  0  0  0  0  0
  -25.4371  -15.1908   20.4160 N   0  0  0  0  0  0
  -31.8158  -14.6203   20.0468 O   0  0  0  0  0  0
  -21.6645   -6.8897   21.4244 O   0  0  0  0  0  0
  -22.3599  -14.5575   20.6662 O   0  0  0  0  0  0
  -24.6148  -31.8674   23.2108 C   0  0  0  0  0  0
  -25.9050  -32.4810   23.8400 C   0  0  1  0  0  0
  -27.2364  -27.4302   20.0746 C   0  0  0  0  0  0
  -25.5906  -33.8610   24.2329 N   0  0  0  0  0  0
  -23.4018  -30.4919   21.5521 C   0  0  2  0  0  0
  -24.8459  -28.9596   20.1169 C   0  0  0  0  0  0
  -22.7405  -29.4660   22.4999 C   0  0  0  0  0  0
  -18.0270  -28.1366   22.8503 C   0  0  0  0  0  0
  -24.1473  -36.7282   23.2643 C   0  0  0  0  0  0
  -25.9338  -30.8282   21.3689 C   0  0  0  0  0  0
  -26.0075  -29.4658   20.7090 C   0  0  0  0  0  0
  -27.2004  -28.7077   20.6860 C   0  0  0  0  0  0
  -26.0400  -26.9340   19.4989 C   0  0  0  0  0  0
  -24.8563  -27.6928   19.5151 C   0  0  0  0  0  0
  -23.6097  -29.8262   20.1671 C   0  0  0  0  0  0
  -25.4097  -36.3096   24.0346 C   0  0  1  0  0  0
  -20.5858  -28.3653   23.1322 C   0  0  2  0  0  0
  -20.6749  -26.9390   22.5414 C   0  0  0  0  0  0
  -19.5732  -26.6384   21.5206 C   0  0  0  0  0  0
  -18.1915  -26.7917   22.1628 C   0  0  0  0  0  0
  -19.1521  -28.8826   23.2911 C   0  0  0  0  0  0
  -18.9448  -30.1431   23.8919 C   0  0  0  0  0  0
  -17.6451  -30.6577   24.0565 C   0  0  0  0  0  0
  -25.9037  -34.9468   23.5133 C   0  0  0  0  0  0
  -16.5340  -29.9079   23.6329 C   0  0  0  0  0  0
  -16.7260  -28.6491   23.0359 C   0  0  0  0  0  0
  -26.4484  -31.6594   25.0731 C   0  0  0  0  0  0
  -25.3755  -31.3705   26.1487 C   0  0  0  0  0  0
  -27.0320  -30.3028   24.6134 C   0  0  0  0  0  0
  -27.6068  -32.4317   25.7477 C   0  0  0  0  0  0
  -27.5573  -37.1790   24.8472 C   0  0  0  0  0  0
  -21.4133  -29.3024   22.3736 N   0  0  0  0  0  0
  -26.4279  -37.3786   23.9424 N   0  0  0  0  0  0
  -24.6679  -31.0774   22.1012 N   0  0  0  0  0  0
  -23.4181  -28.8205   23.3043 O   0  0  0  0  0  0
  -28.4391  -26.7436   20.0880 O   0  0  0  0  0  0
  -26.5591  -34.8920   22.4691 O   0  0  0  0  0  0
  -23.5342  -32.1443   23.7493 O   0  0  0  0  0  0
  -28.4221  -18.6145   20.8933 C   0  0  0  0  0  0
  -28.7108  -17.2928   21.2883 C   0  0  0  0  0  0
  -30.7112  -18.8820   20.1283 C   0  0  0  0  0  0
  -29.4083  -19.4078   20.2687 C   0  0  0  0  0  0
  -29.9853  -16.7293   21.0616 C   0  0  0  0  0  0
  -31.0097  -17.5625   20.5316 C   0  0  0  0  0  0
  -30.5249  -23.8751   20.0097 C   0  0  0  0  0  0
  -30.5689  -22.4722   20.6305 C   0  0  0  0  0  0
  -28.2904  -23.0619   20.1981 C   0  0  0  0  0  0
  -29.1046  -24.3654   20.3024 C   0  0  2  0  0  0
  -29.0312  -20.7566   19.6544 C   0  0  0  0  0  0
  -28.6197  -25.5114   19.3718 C   0  0  0  0  0  0
  -30.1387  -15.3450   21.3768 N   0  0  0  0  0  0
  -29.1910  -21.9308   20.5538 N   0  3  1  0  0  0
  -32.2834  -17.1273   20.3929 F   0  0  0  0  0  0
  -31.4623  -12.3751   19.1060 H   0  0  0  0  0  0
  -30.3001  -11.2698   19.7764 H   0  0  0  0  0  0
  -29.7270  -11.8412   17.3982 H   0  0  0  0  0  0
  -29.6733  -13.5391   17.8009 H   0  0  0  0  0  0
  -27.8037  -11.3456   18.7658 H   0  0  0  0  0  0
  -27.3653  -12.7221   17.7897 H   0  0  0  0  0  0
  -27.7264  -14.2685   19.6277 H   0  0  0  0  0  0
  -28.6757  -11.9132   21.3251 H   0  0  0  0  0  0
  -28.4734  -13.5361   21.8985 H   0  0  0  0  0  0
  -25.2750   -9.5732   22.4769 H   0  0  0  0  0  0
  -24.0026   -7.4660   22.7446 H   0  0  0  0  0  0
  -21.0849   -8.8775   19.8944 H   0  0  0  0  0  0
  -22.3670  -10.9701   19.6168 H   0  0  0  0  0  0
  -21.1993   -7.6146   23.9728 H   0  0  0  0  0  0
  -21.1478   -6.0512   25.9079 H   0  0  0  0  0  0
  -22.0599   -2.7621   23.2822 H   0  0  0  0  0  0
  -22.4074  -11.9897   22.4742 H   0  0  0  0  0  0
  -21.1121  -13.1304   22.2557 H   0  0  0  0  0  0
  -24.6682  -15.8449   20.5125 H   0  0  0  0  0  0
  -26.2952  -15.6314   20.1095 H   0  0  0  0  0  0
  -26.7106  -32.5513   23.1150 H   0  0  0  0  0  0
  -25.0065  -33.9768   25.0480 H   0  0  0  0  0  0
  -22.6917  -31.3093   21.4123 H   0  0  0  0  0  0
  -23.3746  -35.9605   23.3324 H   0  0  0  0  0  0
  -24.3567  -36.8871   22.2051 H   0  0  0  0  0  0
  -23.7211  -37.6489   23.6640 H   0  0  0  0  0  0
  -26.0583  -31.6016   20.6094 H   0  0  0  0  0  0
  -26.8165  -30.8680   21.9958 H   0  0  0  0  0  0
  -28.1008  -29.1035   21.1349 H   0  0  0  0  0  0
  -25.9637  -25.9659   19.0345 H   0  0  0  0  0  0
  -23.9576  -27.2921   19.0665 H   0  0  0  0  0  0
  -23.7171  -30.5992   19.4054 H   0  0  0  0  0  0
  -22.7353  -29.2428   19.8737 H   0  0  0  0  0  0
  -25.1271  -36.1953   25.0837 H   0  0  0  0  0  0
  -20.9949  -28.3193   24.1444 H   0  0  0  0  0  0
  -20.5626  -26.2258   23.3593 H   0  0  0  0  0  0
  -21.6623  -26.7417   22.1217 H   0  0  0  0  0  0
  -19.6886  -25.6301   21.1217 H   0  0  0  0  0  0
  -19.6668  -27.3209   20.6742 H   0  0  0  0  0  0
  -17.4181  -26.6670   21.4029 H   0  0  0  0  0  0
  -18.0324  -26.0043   22.9009 H   0  0  0  0  0  0
  -19.7927  -30.7236   24.2299 H   0  0  0  0  0  0
  -17.5010  -31.6264   24.5160 H   0  0  0  0  0  0
  -15.5340  -30.2986   23.7638 H   0  0  0  0  0  0
  -15.8662  -28.0805   22.7075 H   0  0  0  0  0  0
  -24.5909  -30.7074   25.7824 H   0  0  0  0  0  0
  -24.8973  -32.2860   26.4970 H   0  0  0  0  0  0
  -25.8109  -30.8842   27.0224 H   0  0  0  0  0  0
  -26.2864  -29.6770   24.1209 H   0  0  0  0  0  0
  -27.4099  -29.7288   25.4606 H   0  0  0  0  0  0
  -27.8702  -30.4337   23.9286 H   0  0  0  0  0  0
  -27.2698  -33.3610   26.2082 H   0  0  0  0  0  0
  -28.3852  -32.6885   25.0281 H   0  0  0  0  0  0
  -28.0768  -31.8428   26.5364 H   0  0  0  0  0  0
  -28.2599  -38.0079   24.7526 H   0  0  0  0  0  0
  -28.1057  -36.2616   24.6286 H   0  0  0  0  0  0
  -27.2301  -37.1425   25.8878 H   0  0  0  0  0  0
  -20.9286  -29.8761   21.6977 H   0  0  0  0  0  0
  -26.0166  -38.2859   24.1454 H   0  0  0  0  0  0
  -27.4174  -18.9920   21.0311 H   0  0  0  0  0  0
  -27.9236  -16.6990   21.7305 H   0  0  0  0  0  0
  -31.4898  -19.4730   19.6654 H   0  0  0  0  0  0
  -30.6896  -23.7979   18.9338 H   0  0  0  0  0  0
  -31.2908  -24.5387   20.4115 H   0  0  0  0  0  0
  -30.8474  -22.5468   21.6816 H   0  0  0  0  0  0
  -31.3150  -21.8384   20.1503 H   0  0  0  0  0  0
  -27.9304  -22.9400   19.1755 H   0  0  0  0  0  0
  -27.4146  -23.0779   20.8470 H   0  0  0  0  0  0
  -29.0651  -24.7001   21.3404 H   0  0  0  0  0  0
  -27.9838  -20.6757   19.3578 H   0  0  0  0  0  0
  -29.5842  -20.9127   18.7274 H   0  0  0  0  0  0
  -27.7721  -25.1781   18.7839 H   0  0  0  0  0  0
  -29.3809  -25.7117   18.6166 H   0  0  0  0  0  0
  -29.3687  -14.9541   21.8966 H   0  0  0  0  0  0
  -28.9381  -21.6252   21.4819 H   0  0  0  0  0  0
  1 25  1  0  0  0
  1 30  2  0  0  0
  1 83  1  0  0  0
  2  3  1  0  0  0
  2 25  1  0  0  0
  2 86  1  0  0  0
  2 87  1  0  0  0
  3  4  1  0  0  0
  3 88  1  0  0  0
  3 89  1  0  0  0
  4  5  1  0  0  0
  4 90  1  0  0  0
  4 91  1  0  0  0
  5  6  1  0  0  0
  5 26  1  0  0  0
  5 92  1  0  0  0
  6 25  1  0  0  0
  6 93  1  0  0  0
  6 94  1  0  0  0
  7  8  2  0  0  0
  7 26  1  0  0  0
  7 29  1  0  0  0
  8  9  1  0  0  0
  8 22  1  0  0  0
  9 10  1  0  0  0
  9 27  2  0  0  0
 10 11  2  0  0  0
 10 15  1  0  0  0
 11 12  1  0  0  0
 11 95  1  0  0  0
 12 13  2  0  0  0
 12 96  1  0  0  0
 13 14  1  0  0  0
 13 31  1  0  0  0
 14 15  2  0  0  0
 14 97  1  0  0  0
 15 98  1  0  0  0
 16 17  2  0  0  0
 16 21  1  0  0  0
 16 31  1  0  0  0
 17 18  1  0  0  0
 17 99  1  0  0  0
 18 19  2  0  0  0
 18100  1  0  0  0
 19 20  1  0  0  0
 19 24  1  0  0  0
 20 21  2  0  0  0
 20101  1  0  0  0
 21 23  1  0  0  0
 22 28  1  0  0  0
 22 32  2  0  0  0
 26 27  1  0  0  0
 28102  1  0  0  0
 28103  1  0  0  0
 29104  1  0  0  0
 29105  1  0  0  0
 33 34  1  0  0  0
 33 66  1  0  0  0
 33 70  2  0  0  0
 34 36  1  0  0  0
 34 59  1  0  0  0
 34106  1  0  0  0
 35 44  2  0  0  0
 35 45  1  0  0  0
 35 68  1  0  0  0
 36 56  1  0  0  0
 36107  1  0  0  0
 37 39  1  0  0  0
 37 47  1  0  0  0
 37 66  1  0  0  0
 37108  1  0  0  0
 38 43  2  0  0  0
 38 46  1  0  0  0
 38 47  1  0  0  0
 39 64  1  0  0  0
 39 67  2  0  0  0
 40 52  1  0  0  0
 40 53  2  0  0  0
 40 58  1  0  0  0
 41109  1  0  0  0
 41110  1  0  0  0
 41111  1  0  0  0
 41 48  1  0  0  0
 42 43  1  0  0  0
 42 66  1  0  0  0
 42112  1  0  0  0
 42113  1  0  0  0
 43 44  1  0  0  0
 44114  1  0  0  0
 45 46  2  0  0  0
 45115  1  0  0  0
 46116  1  0  0  0
 47117  1  0  0  0
 47118  1  0  0  0
 48 56  1  0  0  0
 48 65  1  0  0  0
 48119  1  0  0  0
 49 50  1  0  0  0
 49 53  1  0  0  0
 49 64  1  0  0  0
 49120  1  0  0  0
 50 51  1  0  0  0
 50121  1  0  0  0
 50122  1  0  0  0
 51 52  1  0  0  0
 51123  1  0  0  0
 51124  1  0  0  0
 52125  1  0  0  0
 52126  1  0  0  0
 53 54  1  0  0  0
 54 55  2  0  0  0
 54127  1  0  0  0
 55 57  1  0  0  0
 55128  1  0  0  0
 56 69  2  0  0  0
 57 58  2  0  0  0
 57129  1  0  0  0
 58130  1  0  0  0
 59 60  1  0  0  0
 59 61  1  0  0  0
 59 62  1  0  0  0
 60131  1  0  0  0
 60132  1  0  0  0
 60133  1  0  0  0
 61134  1  0  0  0
 61135  1  0  0  0
 61136  1  0  0  0
 62137  1  0  0  0
 62138  1  0  0  0
 62139  1  0  0  0
 63 65  1  0  0  0
 63140  1  0  0  0
 63141  1  0  0  0
 63142  1  0  0  0
 64143  1  0  0  0
 65144  1  0  0  0
 68 82  1  0  0  0
 71 72  2  0  0  0
 71 74  1  0  0  0
 71145  1  0  0  0
 72 75  1  0  0  0
 72146  1  0  0  0
 73 74  2  0  0  0
 73 76  1  0  0  0
 73147  1  0  0  0
 74 81  1  0  0  0
 75 76  2  0  0  0
 75 83  1  0  0  0
 76 85  1  0  0  0
 77 78  1  0  0  0
 77 80  1  0  0  0
 77148  1  0  0  0
 77149  1  0  0  0
 78 84  1  0  0  0
 78150  1  0  0  0
 78151  1  0  0  0
 79 80  1  0  0  0
 79 84  1  0  0  0
 79152  1  0  0  0
 79153  1  0  0  0
 80 82  1  0  0  0
 80154  1  0  0  0
 81155  1  0  0  0
 81156  1  0  0  0
 81 84  1  0  0  0
 82157  1  0  0  0
 82158  1  0  0  0
 83159  1  0  0  0
 84160  1  0  0  0
M  CHG  1  84   1
M  ISO  4   1 100  68 101  82 101  83 100
M  END
> <chiral flag>
0

> <version>
0

> <s_m_source_file>
/data/baiqing/PycharmProjects/Reinvent-master-3.2/result/LINK_invent/BTK/process_docking_weight1_custom_product_contain_oxygen_bond_distance_aromatic_linkinvent_7_9_3/rearranged_h_0103.sdf

> <i_m_source_file_index>
75

> <r_mmod_Potential_Energy-OPLS-2005>
-120.522636413574

> <r_mmod_Stretch_Energy-OPLS-2005>
37.4996147155762

> <r_mmod_Bend_Energy-OPLS-2005>
132.699584960938

> <r_mmod_Torsional_Energy-OPLS-2005>
289.178039550781

> <r_mmod_Improper_Torsional_Energy-OPLS-2005>
5.00827074050903

> <r_mmod_Van_der_Waal_Energy-OPLS-2005>
156.757858276367

> <r_mmod_Electrostatic_Energy-OPLS-2005>
-280.325714111328

> <r_mmod_Solvation_Energy-OPLS-2005>
-471.454071044922

> <b_mmod_Minimization_Converged-OPLS-2005>
0

> <r_mmod_RMS_Derivative-OPLS-2005>
2.22791647911072

$$$$
75
                    3D
 Structure written by MMmdl.
162170  0  0  1  0            999 V2000
  -30.7053  -14.5336   20.4245 C   0  0  0  0  0  0
  -30.4133  -12.3108   19.4291 C   0  0  0  0  0  0
  -29.4831  -12.4468   18.2053 C   0  0  0  0  0  0
  -28.0060  -12.2979   18.6262 C   0  0  0  0  0  0
  -27.6300  -13.1808   19.8448 C   0  0  2  0  0  0
  -28.6926  -13.0957   20.9653 C   0  0  0  0  0  0
  -25.2550  -13.8061   20.5749 C   0  0  0  0  0  0
  -24.1783  -13.0389   20.9244 C   0  0  0  0  0  0
  -24.6300  -11.6844   20.8796 C   0  0  0  0  0  0
  -23.8972  -10.4267   21.0442 C   0  0  0  0  0  0
  -24.3547   -9.4193   21.9210 C   0  0  0  0  0  0
  -23.6250   -8.2220   22.0761 C   0  0  0  0  0  0
  -22.4235   -8.0261   21.3545 C   0  0  0  0  0  0
  -21.9858   -9.0223   20.4637 C   0  0  0  0  0  0
  -22.7162  -10.2119   20.3069 C   0  0  0  0  0  0
  -21.6836   -6.0724   22.5284 C   0  0  0  0  0  0
  -21.4006   -6.5636   23.8217 C   0  0  0  0  0  0
  -21.3649   -5.6794   24.9179 C   0  0  0  0  0  0
  -21.6035   -4.3058   24.7224 C   0  0  0  0  0  0
  -21.8817   -3.8143   23.4350 C   0  0  0  0  0  0
  -21.9191   -4.6957   22.3411 C   0  0  0  0  0  0
  -22.7826  -13.5231   21.1878 C   0  0  0  0  0  0
  -22.1657   -4.2145   21.0986 F   0  0  0  0  0  0
  -21.5630   -3.4545   25.7744 F   0  0  0  0  0  0
  -30.0200  -13.3538   20.3851 N   0  0  0  0  0  0
  -26.2881  -12.9133   20.3331 N   0  0  0  0  0  0
  -25.9206  -11.6342   20.5819 N   0  0  0  0  0  0
  -22.0437  -12.8235   22.0407 N   0  0  0  0  0  0
  -25.4338  -15.1783   20.4178 N   0  0  0  0  0  0
  -31.9273  -14.6024   20.2932 O   0  0  0  0  0  0
  -21.6610   -6.8857   21.4238 O   0  0  0  0  0  0
  -22.3561  -14.5557   20.6716 O   0  0  0  0  0  0
  -24.6116  -31.8702   23.2113 C   0  0  0  0  0  0
  -25.9011  -32.4841   23.8416 C   0  0  1  0  0  0
  -27.2404  -27.4642   20.0989 C   0  0  0  0  0  0
  -25.5889  -33.8640   24.2347 N   0  0  0  0  0  0
  -23.4011  -30.4917   21.5496 C   0  0  2  0  0  0
  -24.8514  -28.9615   20.1136 C   0  0  0  0  0  0
  -22.7410  -29.4665   22.4993 C   0  0  0  0  0  0
  -18.0281  -28.1376   22.8502 C   0  0  0  0  0  0
  -24.1486  -36.7311   23.2636 C   0  0  0  0  0  0
  -25.9259  -30.8457   21.3598 C   0  0  0  0  0  0
  -26.0083  -29.4816   20.7092 C   0  0  0  0  0  0
  -27.2093  -28.7396   20.7001 C   0  0  0  0  0  0
  -26.0735  -26.9519   19.4956 C   0  0  0  0  0  0
  -24.8767  -27.6933   19.5050 C   0  0  0  0  0  0
  -23.6096  -29.8216   20.1647 C   0  0  0  0  0  0
  -25.4106  -36.3120   24.0344 C   0  0  1  0  0  0
  -20.5871  -28.3661   23.1325 C   0  0  2  0  0  0
  -20.6764  -26.9397   22.5417 C   0  0  0  0  0  0
  -19.5739  -26.6388   21.5217 C   0  0  0  0  0  0
  -18.1919  -26.7928   22.1625 C   0  0  0  0  0  0
  -19.1528  -28.8834   23.2914 C   0  0  0  0  0  0
  -18.9450  -30.1442   23.8919 C   0  0  0  0  0  0
  -17.6446  -30.6579   24.0570 C   0  0  0  0  0  0
  -25.9037  -34.9487   23.5141 C   0  0  0  0  0  0
  -16.5343  -29.9077   23.6322 C   0  0  0  0  0  0
  -16.7270  -28.6497   23.0346 C   0  0  0  0  0  0
  -26.4451  -31.6606   25.0731 C   0  0  0  0  0  0
  -25.3733  -31.3649   26.1475 C   0  0  0  0  0  0
  -27.0284  -30.3078   24.6043 C   0  0  0  0  0  0
  -27.6021  -32.4335   25.7500 C   0  0  0  0  0  0
  -27.5592  -37.1804   24.8456 C   0  0  0  0  0  0
  -21.4141  -29.3031   22.3731 N   0  0  0  0  0  0
  -26.4287  -37.3811   23.9424 N   0  0  0  0  0  0
  -24.6641  -31.0829   22.0996 N   0  0  0  0  0  0
  -23.4188  -28.8218   23.3039 O   0  0  0  0  0  0
  -28.3830  -26.7045   20.1178 O   0  0  0  0  0  0
  -26.5597  -34.8929   22.4701 O   0  0  0  0  0  0
  -23.5310  -32.1442   23.7518 O   0  0  0  0  0  0
  -28.9717  -17.3718   21.6543 C   0  0  0  0  0  0
  -30.8377  -19.3482   20.9737 C   0  0  0  0  0  0
  -30.0207  -17.0449   20.7638 C   0  0  0  0  0  0
  -30.9847  -18.0439   20.4529 C   0  0  0  0  0  0
  -28.8224  -18.6833   22.1762 C   0  0  0  0  0  0
  -29.7379  -19.6895   21.7930 C   0  0  0  0  0  0
  -29.9078  -15.7760   19.9927 C   0  0  0  0  0  0
  -32.1530  -17.7762   19.5124 C   0  0  0  0  0  0
  -26.8113  -18.0927   23.3650 C   0  0  0  0  0  0
  -29.2261  -24.4736   20.7250 C   0  0  0  0  0  0
  -29.0350  -23.2844   21.6918 C   0  0  0  0  0  0
  -28.3268  -25.6646   21.0985 C   0  0  0  0  0  0
  -29.8962  -22.0503   21.3668 C   0  0  0  0  0  0
  -29.2350  -15.8270   18.9192 N   0  0  0  0  0  0
  -27.7871  -19.0652   23.0060 O   0  0  0  0  0  0
  -29.5028  -20.9797   22.2283 O   0  0  0  0  0  0
  -31.4558  -12.4027   19.1224 H   0  0  0  0  0  0
  -30.3146  -11.3240   19.8836 H   0  0  0  0  0  0
  -29.7342  -11.6956   17.4556 H   0  0  0  0  0  0
  -29.6334  -13.4124   17.7238 H   0  0  0  0  0  0
  -27.8366  -11.2472   18.8658 H   0  0  0  0  0  0
  -27.3503  -12.5238   17.7840 H   0  0  0  0  0  0
  -27.5840  -14.1907   19.4686 H   0  0  0  0  0  0
  -28.6799  -12.1081   21.4271 H   0  0  0  0  0  0
  -28.4709  -13.8094   21.7602 H   0  0  0  0  0  0
  -25.2692   -9.5689   22.4784 H   0  0  0  0  0  0
  -23.9975   -7.4605   22.7465 H   0  0  0  0  0  0
  -21.0810   -8.8722   19.8915 H   0  0  0  0  0  0
  -22.3623  -10.9664   19.6186 H   0  0  0  0  0  0
  -21.1994   -7.6142   23.9722 H   0  0  0  0  0  0
  -21.1464   -6.0518   25.9075 H   0  0  0  0  0  0
  -22.0596   -2.7610   23.2849 H   0  0  0  0  0  0
  -22.4031  -11.9898   22.4809 H   0  0  0  0  0  0
  -21.1043  -13.1261   22.2561 H   0  0  0  0  0  0
  -24.6640  -15.8314   20.5068 H   0  0  0  0  0  0
  -26.2749  -15.6011   20.0450 H   0  0  0  0  0  0
  -26.7092  -32.5575   23.1203 H   0  0  0  0  0  0
  -25.0064  -33.9813   25.0507 H   0  0  0  0  0  0
  -22.6888  -31.3071   21.4088 H   0  0  0  0  0  0
  -23.3772  -35.9616   23.3264 H   0  0  0  0  0  0
  -24.3587  -36.8962   22.2058 H   0  0  0  0  0  0
  -23.7201  -37.6489   23.6673 H   0  0  0  0  0  0
  -26.0322  -31.6118   20.5907 H   0  0  0  0  0  0
  -26.8161  -30.9036   21.9741 H   0  0  0  0  0  0
  -28.1024  -29.1326   21.1658 H   0  0  0  0  0  0
  -26.0920  -25.9755   19.0319 H   0  0  0  0  0  0
  -23.9870  -27.2845   19.0463 H   0  0  0  0  0  0
  -23.7138  -30.5951   19.4027 H   0  0  0  0  0  0
  -22.7364  -29.2355   19.8720 H   0  0  0  0  0  0
  -25.1274  -36.1988   25.0834 H   0  0  0  0  0  0
  -20.9975  -28.3213   24.1441 H   0  0  0  0  0  0
  -20.5674  -26.2257   23.3595 H   0  0  0  0  0  0
  -21.6629  -26.7433   22.1201 H   0  0  0  0  0  0
  -19.6888  -25.6307   21.1219 H   0  0  0  0  0  0
  -19.6674  -27.3215   20.6760 H   0  0  0  0  0  0
  -17.4194  -26.6712   21.4018 H   0  0  0  0  0  0
  -18.0295  -26.0057   22.9002 H   0  0  0  0  0  0
  -19.7918  -30.7263   24.2293 H   0  0  0  0  0  0
  -17.4992  -31.6257   24.5173 H   0  0  0  0  0  0
  -15.5338  -30.2978   23.7625 H   0  0  0  0  0  0
  -15.8679  -28.0817   22.7035 H   0  0  0  0  0  0
  -24.5932  -30.6973   25.7795 H   0  0  0  0  0  0
  -24.8887  -32.2763   26.4982 H   0  0  0  0  0  0
  -25.8117  -30.8783   27.0200 H   0  0  0  0  0  0
  -26.2801  -29.6860   24.1109 H   0  0  0  0  0  0
  -27.4106  -29.7283   25.4459 H   0  0  0  0  0  0
  -27.8614  -30.4444   23.9143 H   0  0  0  0  0  0
  -27.2638  -33.3640   26.2073 H   0  0  0  0  0  0
  -28.3832  -32.6887   25.0328 H   0  0  0  0  0  0
  -28.0682  -31.8460   26.5424 H   0  0  0  0  0  0
  -28.2553  -38.0159   24.7596 H   0  0  0  0  0  0
  -28.1148  -36.2694   24.6174 H   0  0  0  0  0  0
  -27.2317  -37.1322   25.8855 H   0  0  0  0  0  0
  -20.9297  -29.8755   21.6958 H   0  0  0  0  0  0
  -26.0178  -38.2875   24.1472 H   0  0  0  0  0  0
  -28.2323  -16.6125   21.8623 H   0  0  0  0  0  0
  -31.5620  -20.1038   20.7054 H   0  0  0  0  0  0
  -32.6997  -18.6906   19.2804 H   0  0  0  0  0  0
  -31.8183  -17.3519   18.5653 H   0  0  0  0  0  0
  -32.8581  -17.0836   19.9717 H   0  0  0  0  0  0
  -26.0796  -18.5388   24.0400 H   0  0  0  0  0  0
  -27.2601  -17.2461   23.8866 H   0  0  0  0  0  0
  -26.2690  -17.7297   22.4909 H   0  0  0  0  0  0
  -28.9871  -24.1527   19.7108 H   0  0  0  0  0  0
  -30.2701  -24.7891   20.7148 H   0  0  0  0  0  0
  -27.9855  -22.9866   21.6723 H   0  0  0  0  0  0
  -29.2395  -23.6052   22.7139 H   0  0  0  0  0  0
  -28.6360  -26.0741   22.0612 H   0  0  0  0  0  0
  -27.3058  -25.3003   21.2326 H   0  0  0  0  0  0
  -30.9541  -22.2784   21.5069 H   0  0  0  0  0  0
  -29.7496  -21.7783   20.3200 H   0  0  0  0  0  0
  -28.8433  -16.7511   18.7891 H   0  0  0  0  0  0
  1 25  1  0  0  0
  1 30  2  0  0  0
  1 77  1  0  0  0
  2  3  1  0  0  0
  2 25  1  0  0  0
  2 87  1  0  0  0
  2 88  1  0  0  0
  3  4  1  0  0  0
  3 89  1  0  0  0
  3 90  1  0  0  0
  4  5  1  0  0  0
  4 91  1  0  0  0
  4 92  1  0  0  0
  5  6  1  0  0  0
  5 26  1  0  0  0
  5 93  1  0  0  0
  6 25  1  0  0  0
  6 94  1  0  0  0
  6 95  1  0  0  0
  7  8  2  0  0  0
  7 26  1  0  0  0
  7 29  1  0  0  0
  8  9  1  0  0  0
  8 22  1  0  0  0
  9 10  1  0  0  0
  9 27  2  0  0  0
 10 11  2  0  0  0
 10 15  1  0  0  0
 11 12  1  0  0  0
 11 96  1  0  0  0
 12 13  2  0  0  0
 12 97  1  0  0  0
 13 14  1  0  0  0
 13 31  1  0  0  0
 14 15  2  0  0  0
 14 98  1  0  0  0
 15 99  1  0  0  0
 16 17  2  0  0  0
 16 21  1  0  0  0
 16 31  1  0  0  0
 17 18  1  0  0  0
 17100  1  0  0  0
 18 19  2  0  0  0
 18101  1  0  0  0
 19 20  1  0  0  0
 19 24  1  0  0  0
 20 21  2  0  0  0
 20102  1  0  0  0
 21 23  1  0  0  0
 22 28  1  0  0  0
 22 32  2  0  0  0
 26 27  1  0  0  0
 28103  1  0  0  0
 28104  1  0  0  0
 29105  1  0  0  0
 29106  1  0  0  0
 33 34  1  0  0  0
 33 66  1  0  0  0
 33 70  2  0  0  0
 34 36  1  0  0  0
 34 59  1  0  0  0
 34107  1  0  0  0
 35 44  2  0  0  0
 35 45  1  0  0  0
 35 68  1  0  0  0
 36 56  1  0  0  0
 36108  1  0  0  0
 37 39  1  0  0  0
 37 47  1  0  0  0
 37 66  1  0  0  0
 37109  1  0  0  0
 38 43  2  0  0  0
 38 46  1  0  0  0
 38 47  1  0  0  0
 39 64  1  0  0  0
 39 67  2  0  0  0
 40 52  1  0  0  0
 40 53  2  0  0  0
 40 58  1  0  0  0
 41110  1  0  0  0
 41111  1  0  0  0
 41112  1  0  0  0
 41 48  1  0  0  0
 42 43  1  0  0  0
 42 66  1  0  0  0
 42113  1  0  0  0
 42114  1  0  0  0
 43 44  1  0  0  0
 44115  1  0  0  0
 45 46  2  0  0  0
 45116  1  0  0  0
 46117  1  0  0  0
 47118  1  0  0  0
 47119  1  0  0  0
 48 56  1  0  0  0
 48 65  1  0  0  0
 48120  1  0  0  0
 49 50  1  0  0  0
 49 53  1  0  0  0
 49 64  1  0  0  0
 49121  1  0  0  0
 50 51  1  0  0  0
 50122  1  0  0  0
 50123  1  0  0  0
 51 52  1  0  0  0
 51124  1  0  0  0
 51125  1  0  0  0
 52126  1  0  0  0
 52127  1  0  0  0
 53 54  1  0  0  0
 54 55  2  0  0  0
 54128  1  0  0  0
 55 57  1  0  0  0
 55129  1  0  0  0
 56 69  2  0  0  0
 57 58  2  0  0  0
 57130  1  0  0  0
 58131  1  0  0  0
 59 60  1  0  0  0
 59 61  1  0  0  0
 59 62  1  0  0  0
 60132  1  0  0  0
 60133  1  0  0  0
 60134  1  0  0  0
 61135  1  0  0  0
 61136  1  0  0  0
 61137  1  0  0  0
 62138  1  0  0  0
 62139  1  0  0  0
 62140  1  0  0  0
 63 65  1  0  0  0
 63141  1  0  0  0
 63142  1  0  0  0
 63143  1  0  0  0
 64144  1  0  0  0
 65145  1  0  0  0
 68 82  1  0  0  0
 71 73  2  0  0  0
 71 75  1  0  0  0
 71146  1  0  0  0
 72 74  2  0  0  0
 72 76  1  0  0  0
 72147  1  0  0  0
 73 74  1  0  0  0
 73 77  1  0  0  0
 74 78  1  0  0  0
 75 76  2  0  0  0
 75 85  1  0  0  0
 76 86  1  0  0  0
 77 84  2  0  0  0
 78148  1  0  0  0
 78149  1  0  0  0
 78150  1  0  0  0
 79 85  1  0  0  0
 79151  1  0  0  0
 79152  1  0  0  0
 79153  1  0  0  0
 80 81  1  0  0  0
 80 82  1  0  0  0
 80154  1  0  0  0
 80155  1  0  0  0
 81 83  1  0  0  0
 81156  1  0  0  0
 81157  1  0  0  0
 82158  1  0  0  0
 82159  1  0  0  0
 83 86  1  0  0  0
 83160  1  0  0  0
 83161  1  0  0  0
 84162  1  0  0  0
M  ISO  4   1 100  68 101  77 100  82 101
M  END
> <chiral flag>
0

> <version>
0

> <s_m_source_file>
/data/baiqing/PycharmProjects/Reinvent-master-3.2/result/LINK_invent/BTK/process_docking_weight1_custom_product_contain_oxygen_bond_distance_aromatic_linkinvent_7_9_3/rearranged_h_0103.sdf

> <i_m_source_file_index>
76

> <r_mmod_Potential_Energy-OPLS-2005>
218.112564086914

> <r_mmod_Stretch_Energy-OPLS-2005>
38.6268768310547

> <r_mmod_Bend_Energy-OPLS-2005>
107.157012939453

> <r_mmod_Torsional_Energy-OPLS-2005>
294.105651855469

> <r_mmod_Improper_Torsional_Energy-OPLS-2005>
21.3084888458252

> <r_mmod_Van_der_Waal_Energy-OPLS-2005>
156.933349609375

> <r_mmod_Electrostatic_Energy-OPLS-2005>
-230.859405517578

> <r_mmod_Solvation_Energy-OPLS-2005>
-201.461090087891

> <b_mmod_Minimization_Converged-OPLS-2005>
0

> <r_mmod_RMS_Derivative-OPLS-2005>
1.60281848907471

$$$$
76
                    3D
 Structure written by MMmdl.
170179  0  0  1  0            999 V2000
  -30.6977  -14.4411   20.5333 C   0  0  0  0  0  0
  -30.4162  -12.2772   19.4196 C   0  0  0  0  0  0
  -29.4947  -12.5090   18.2053 C   0  0  0  0  0  0
  -28.0121  -12.3842   18.6072 C   0  0  0  0  0  0
  -27.6631  -13.2043   19.8799 C   0  0  2  0  0  0
  -28.7056  -12.9735   20.9999 C   0  0  0  0  0  0
  -25.2613  -13.8156   20.5682 C   0  0  0  0  0  0
  -24.1854  -13.0437   20.9163 C   0  0  0  0  0  0
  -24.6403  -11.6903   20.8733 C   0  0  0  0  0  0
  -23.9065  -10.4297   21.0399 C   0  0  0  0  0  0
  -24.3617   -9.4211   21.9171 C   0  0  0  0  0  0
  -23.6293   -8.2245   22.0744 C   0  0  0  0  0  0
  -22.4278   -8.0282   21.3534 C   0  0  0  0  0  0
  -21.9914   -9.0256   20.4644 C   0  0  0  0  0  0
  -22.7238  -10.2134   20.3055 C   0  0  0  0  0  0
  -21.6856   -6.0736   22.5274 C   0  0  0  0  0  0
  -21.4018   -6.5633   23.8208 C   0  0  0  0  0  0
  -21.3667   -5.6787   24.9169 C   0  0  0  0  0  0
  -21.6052   -4.3050   24.7211 C   0  0  0  0  0  0
  -21.8823   -3.8139   23.4330 C   0  0  0  0  0  0
  -21.9192   -4.6964   22.3391 C   0  0  0  0  0  0
  -22.7880  -13.5242   21.1806 C   0  0  0  0  0  0
  -22.1660   -4.2153   21.0969 F   0  0  0  0  0  0
  -21.5629   -3.4532   25.7715 F   0  0  0  0  0  0
  -30.0415  -13.2564   20.4493 N   0  0  0  0  0  0
  -26.3046  -12.9318   20.3390 N   0  0  0  0  0  0
  -25.9332  -11.6477   20.5775 N   0  0  0  0  0  0
  -22.0516  -12.8274   22.0389 N   0  0  0  0  0  0
  -25.4338  -15.1875   20.4080 N   0  0  0  0  0  0
  -31.8429  -14.6117   20.1046 O   0  0  0  0  0  0
  -21.6641   -6.8880   21.4236 O   0  0  0  0  0  0
  -22.3582  -14.5544   20.6637 O   0  0  0  0  0  0
  -24.6122  -31.8694   23.2107 C   0  0  0  0  0  0
  -25.9029  -32.4841   23.8406 C   0  0  1  0  0  0
  -27.2348  -27.4477   20.1054 C   0  0  0  0  0  0
  -25.5908  -33.8637   24.2352 N   0  0  0  0  0  0
  -23.3968  -30.4930   21.5498 C   0  0  2  0  0  0
  -24.8422  -28.9570   20.1179 C   0  0  0  0  0  0
  -22.7395  -29.4652   22.4989 C   0  0  0  0  0  0
  -18.0253  -28.1358   22.8489 C   0  0  0  0  0  0
  -24.1480  -36.7314   23.2639 C   0  0  0  0  0  0
  -25.9228  -30.8421   21.3582 C   0  0  0  0  0  0
  -25.9987  -29.4747   20.7118 C   0  0  0  0  0  0
  -27.1937  -28.7261   20.7016 C   0  0  0  0  0  0
  -26.0563  -26.9355   19.5121 C   0  0  0  0  0  0
  -24.8650  -27.6872   19.5170 C   0  0  0  0  0  0
  -23.6050  -29.8236   20.1645 C   0  0  0  0  0  0
  -25.4103  -36.3120   24.0342 C   0  0  1  0  0  0
  -20.5847  -28.3634   23.1340 C   0  0  2  0  0  0
  -20.6734  -26.9370   22.5422 C   0  0  0  0  0  0
  -19.5719  -26.6356   21.5211 C   0  0  0  0  0  0
  -18.1889  -26.7909   22.1604 C   0  0  0  0  0  0
  -19.1503  -28.8811   23.2912 C   0  0  0  0  0  0
  -18.9433  -30.1421   23.8932 C   0  0  0  0  0  0
  -17.6431  -30.6566   24.0556 C   0  0  0  0  0  0
  -25.9032  -34.9484   23.5129 C   0  0  0  0  0  0
  -16.5313  -29.9082   23.6298 C   0  0  0  0  0  0
  -16.7240  -28.6490   23.0346 C   0  0  0  0  0  0
  -26.4460  -31.6611   25.0717 C   0  0  0  0  0  0
  -25.3712  -31.3713   26.1451 C   0  0  0  0  0  0
  -27.0266  -30.3067   24.6046 C   0  0  0  0  0  0
  -27.6058  -32.4309   25.7476 C   0  0  0  0  0  0
  -27.5568  -37.1812   24.8463 C   0  0  0  0  0  0
  -21.4112  -29.3024   22.3764 N   0  0  0  0  0  0
  -26.4284  -37.3805   23.9400 N   0  0  0  0  0  0
  -24.6629  -31.0808   22.1001 N   0  0  0  0  0  0
  -23.4186  -28.8178   23.2992 O   0  0  0  0  0  0
  -28.4416  -26.7804   20.1264 O   0  0  0  0  0  0
  -26.5572  -34.8923   22.4690 O   0  0  0  0  0  0
  -23.5319  -32.1429   23.7516 O   0  0  0  0  0  0
  -28.8563  -18.8417   21.1372 C   0  0  0  0  0  0
  -29.9400  -20.2829   22.7666 C   0  0  0  0  0  0
  -31.0636  -18.2654   21.9879 C   0  0  0  0  0  0
  -28.8306  -20.0221   21.9213 C   0  0  0  0  0  0
  -29.9750  -17.9820   21.1465 C   0  0  0  0  0  0
  -31.0566  -19.4067   22.8083 C   0  0  0  0  0  0
  -26.9251  -21.1060   20.5294 C   0  0  0  0  0  0
  -27.3898  -22.4696   19.9989 C   0  0  0  0  0  0
  -27.7615  -22.4033   22.3322 C   0  0  0  0  0  0
  -27.5741  -20.9245   21.9204 C   0  0  2  0  0  0
  -29.9997  -25.0749   19.7098 C   0  0  0  0  0  0
  -32.2103  -20.7220   24.4592 C   0  0  0  0  0  0
  -30.0447  -16.7939   20.2055 C   0  0  0  0  0  0
  -27.9527  -24.6144   21.1722 C   0  0  0  0  0  0
  -28.5090  -25.3656   19.9329 C   0  0  1  0  0  0
  -29.9155  -15.4825   20.8474 N   0  0  0  0  0  0
  -28.1231  -23.1337   21.0987 N   0  3  2  0  0  0
  -32.1641  -19.5852   23.6080 O   0  0  0  0  0  0
  -31.4630  -12.3646   19.1188 H   0  0  0  0  0  0
  -30.2969  -11.2628   19.8028 H   0  0  0  0  0  0
  -29.7313  -11.7977   17.4130 H   0  0  0  0  0  0
  -29.6772  -13.5013   17.7891 H   0  0  0  0  0  0
  -27.8019  -11.3279   18.7718 H   0  0  0  0  0  0
  -27.3731  -12.6922   17.7785 H   0  0  0  0  0  0
  -27.7088  -14.2554   19.5950 H   0  0  0  0  0  0
  -28.6719  -11.9421   21.3517 H   0  0  0  0  0  0
  -28.4848  -13.5874   21.8756 H   0  0  0  0  0  0
  -25.2763   -9.5688   22.4736 H   0  0  0  0  0  0
  -24.0004   -7.4650   22.7478 H   0  0  0  0  0  0
  -21.0828   -8.8771   19.8969 H   0  0  0  0  0  0
  -22.3684  -10.9664   19.6160 H   0  0  0  0  0  0
  -21.2020   -7.6142   23.9719 H   0  0  0  0  0  0
  -21.1495   -6.0508   25.9077 H   0  0  0  0  0  0
  -22.0603   -2.7603   23.2820 H   0  0  0  0  0  0
  -22.4076  -11.9918   22.4790 H   0  0  0  0  0  0
  -21.1136  -13.1326   22.2573 H   0  0  0  0  0  0
  -24.6670  -15.8422   20.5204 H   0  0  0  0  0  0
  -26.2863  -15.6275   20.0871 H   0  0  0  0  0  0
  -26.7090  -32.5559   23.1173 H   0  0  0  0  0  0
  -25.0106  -33.9809   25.0523 H   0  0  0  0  0  0
  -22.6837  -31.3085   21.4107 H   0  0  0  0  0  0
  -23.3742  -35.9647   23.3312 H   0  0  0  0  0  0
  -24.3588  -36.8907   22.2049 H   0  0  0  0  0  0
  -23.7222  -37.6523   23.6639 H   0  0  0  0  0  0
  -26.0231  -31.6060   20.5858 H   0  0  0  0  0  0
  -26.8159  -30.9062   21.9687 H   0  0  0  0  0  0
  -28.0875  -29.1261   21.1612 H   0  0  0  0  0  0
  -26.0280  -25.9683   19.0357 H   0  0  0  0  0  0
  -23.9706  -27.2849   19.0596 H   0  0  0  0  0  0
  -23.7143  -30.5973   19.4027 H   0  0  0  0  0  0
  -22.7286  -29.2418   19.8687 H   0  0  0  0  0  0
  -25.1283  -36.1981   25.0833 H   0  0  0  0  0  0
  -20.9934  -28.3184   24.1466 H   0  0  0  0  0  0
  -20.5593  -26.2233   23.3586 H   0  0  0  0  0  0
  -21.6612  -26.7373   22.1269 H   0  0  0  0  0  0
  -19.6856  -25.6240   21.1307 H   0  0  0  0  0  0
  -19.6673  -27.3110   20.6692 H   0  0  0  0  0  0
  -17.4189  -26.6698   21.3962 H   0  0  0  0  0  0
  -18.0252  -26.0021   22.8961 H   0  0  0  0  0  0
  -19.7891  -30.7227   24.2352 H   0  0  0  0  0  0
  -17.4983  -31.6235   24.5168 H   0  0  0  0  0  0
  -15.5315  -30.3008   23.7605 H   0  0  0  0  0  0
  -15.8639  -28.0801   22.7074 H   0  0  0  0  0  0
  -24.5944  -30.6998   25.7773 H   0  0  0  0  0  0
  -24.8831  -32.2856   26.4830 H   0  0  0  0  0  0
  -25.8051  -30.8941   27.0243 H   0  0  0  0  0  0
  -26.2785  -29.6883   24.1079 H   0  0  0  0  0  0
  -27.4024  -29.7261   25.4474 H   0  0  0  0  0  0
  -27.8620  -30.4422   23.9186 H   0  0  0  0  0  0
  -27.2746  -33.3663   26.2013 H   0  0  0  0  0  0
  -28.3906  -32.6766   25.0307 H   0  0  0  0  0  0
  -28.0680  -31.8436   26.5421 H   0  0  0  0  0  0
  -28.2603  -38.0092   24.7511 H   0  0  0  0  0  0
  -28.1049  -36.2624   24.6304 H   0  0  0  0  0  0
  -27.2291  -37.1489   25.8869 H   0  0  0  0  0  0
  -20.9223  -29.8859   21.7124 H   0  0  0  0  0  0
  -26.0166  -38.2877   24.1426 H   0  0  0  0  0  0
  -28.0149  -18.5670   20.5189 H   0  0  0  0  0  0
  -29.9314  -21.1448   23.4117 H   0  0  0  0  0  0
  -31.9197  -17.6043   21.9947 H   0  0  0  0  0  0
  -27.1095  -20.3164   19.8064 H   0  0  0  0  0  0
  -25.8412  -21.1418   20.6556 H   0  0  0  0  0  0
  -26.5206  -23.0538   19.6928 H   0  0  0  0  0  0
  -28.0391  -22.3615   19.1298 H   0  0  0  0  0  0
  -28.4564  -22.5795   23.1499 H   0  0  0  0  0  0
  -26.7994  -22.7832   22.6795 H   0  0  0  0  0  0
  -26.8658  -20.4505   22.6017 H   0  0  0  0  0  0
  -30.1673  -24.0411   19.4081 H   0  0  0  0  0  0
  -30.5841  -25.2698   20.6101 H   0  0  0  0  0  0
  -30.3985  -25.7059   18.9152 H   0  0  0  0  0  0
  -33.1178  -20.6792   25.0619 H   0  0  0  0  0  0
  -31.3664  -20.7448   25.1498 H   0  0  0  0  0  0
  -32.2364  -21.6479   23.8815 H   0  0  0  0  0  0
  -30.9769  -16.8815   19.6415 H   0  0  0  0  0  0
  -29.2581  -16.8751   19.4553 H   0  0  0  0  0  0
  -26.8982  -24.8532   21.3176 H   0  0  0  0  0  0
  -28.4692  -24.9760   22.0625 H   0  0  0  0  0  0
  -27.9770  -25.0744   19.0262 H   0  0  0  0  0  0
  -29.0066  -15.2530   21.2187 H   0  0  0  0  0  0
  -29.1026  -22.9389   20.9457 H   0  0  0  0  0  0
  1 25  1  0  0  0
  1 30  2  0  0  0
  1 86  1  0  0  0
  2  3  1  0  0  0
  2 25  1  0  0  0
  2 89  1  0  0  0
  2 90  1  0  0  0
  3  4  1  0  0  0
  3 91  1  0  0  0
  3 92  1  0  0  0
  4  5  1  0  0  0
  4 93  1  0  0  0
  4 94  1  0  0  0
  5  6  1  0  0  0
  5 26  1  0  0  0
  5 95  1  0  0  0
  6 25  1  0  0  0
  6 96  1  0  0  0
  6 97  1  0  0  0
  7  8  2  0  0  0
  7 26  1  0  0  0
  7 29  1  0  0  0
  8  9  1  0  0  0
  8 22  1  0  0  0
  9 10  1  0  0  0
  9 27  2  0  0  0
 10 11  2  0  0  0
 10 15  1  0  0  0
 11 12  1  0  0  0
 11 98  1  0  0  0
 12 13  2  0  0  0
 12 99  1  0  0  0
 13 14  1  0  0  0
 13 31  1  0  0  0
 14 15  2  0  0  0
 14100  1  0  0  0
 15101  1  0  0  0
 16 17  2  0  0  0
 16 21  1  0  0  0
 16 31  1  0  0  0
 17 18  1  0  0  0
 17102  1  0  0  0
 18 19  2  0  0  0
 18103  1  0  0  0
 19 20  1  0  0  0
 19 24  1  0  0  0
 20 21  2  0  0  0
 20104  1  0  0  0
 21 23  1  0  0  0
 22 28  1  0  0  0
 22 32  2  0  0  0
 26 27  1  0  0  0
 28105  1  0  0  0
 28106  1  0  0  0
 29107  1  0  0  0
 29108  1  0  0  0
 33 34  1  0  0  0
 33 66  1  0  0  0
 33 70  2  0  0  0
 34 36  1  0  0  0
 34 59  1  0  0  0
 34109  1  0  0  0
 35 44  2  0  0  0
 35 45  1  0  0  0
 35 68  1  0  0  0
 36 56  1  0  0  0
 36110  1  0  0  0
 37 39  1  0  0  0
 37 47  1  0  0  0
 37 66  1  0  0  0
 37111  1  0  0  0
 38 43  2  0  0  0
 38 46  1  0  0  0
 38 47  1  0  0  0
 39 64  1  0  0  0
 39 67  2  0  0  0
 40 52  1  0  0  0
 40 53  2  0  0  0
 40 58  1  0  0  0
 41112  1  0  0  0
 41113  1  0  0  0
 41114  1  0  0  0
 41 48  1  0  0  0
 42 43  1  0  0  0
 42 66  1  0  0  0
 42115  1  0  0  0
 42116  1  0  0  0
 43 44  1  0  0  0
 44117  1  0  0  0
 45 46  2  0  0  0
 45118  1  0  0  0
 46119  1  0  0  0
 47120  1  0  0  0
 47121  1  0  0  0
 48 56  1  0  0  0
 48 65  1  0  0  0
 48122  1  0  0  0
 49 50  1  0  0  0
 49 53  1  0  0  0
 49 64  1  0  0  0
 49123  1  0  0  0
 50 51  1  0  0  0
 50124  1  0  0  0
 50125  1  0  0  0
 51 52  1  0  0  0
 51126  1  0  0  0
 51127  1  0  0  0
 52128  1  0  0  0
 52129  1  0  0  0
 53 54  1  0  0  0
 54 55  2  0  0  0
 54130  1  0  0  0
 55 57  1  0  0  0
 55131  1  0  0  0
 56 69  2  0  0  0
 57 58  2  0  0  0
 57132  1  0  0  0
 58133  1  0  0  0
 59 60  1  0  0  0
 59 61  1  0  0  0
 59 62  1  0  0  0
 60134  1  0  0  0
 60135  1  0  0  0
 60136  1  0  0  0
 61137  1  0  0  0
 61138  1  0  0  0
 61139  1  0  0  0
 62140  1  0  0  0
 62141  1  0  0  0
 62142  1  0  0  0
 63 65  1  0  0  0
 63143  1  0  0  0
 63144  1  0  0  0
 63145  1  0  0  0
 64146  1  0  0  0
 65147  1  0  0  0
 68 85  1  0  0  0
 71 74  2  0  0  0
 71 75  1  0  0  0
 71148  1  0  0  0
 72 74  1  0  0  0
 72 76  2  0  0  0
 72149  1  0  0  0
 73 75  2  0  0  0
 73 76  1  0  0  0
 73150  1  0  0  0
 74 80  1  0  0  0
 75 83  1  0  0  0
 76 88  1  0  0  0
 77 78  1  0  0  0
 77 80  1  0  0  0
 77151  1  0  0  0
 77152  1  0  0  0
 78 87  1  0  0  0
 78153  1  0  0  0
 78154  1  0  0  0
 79 80  1  0  0  0
 79 87  1  0  0  0
 79155  1  0  0  0
 79156  1  0  0  0
 80157  1  0  0  0
 81158  1  0  0  0
 81159  1  0  0  0
 81160  1  0  0  0
 81 85  1  0  0  0
 82 88  1  0  0  0
 82161  1  0  0  0
 82162  1  0  0  0
 82163  1  0  0  0
 83 86  1  0  0  0
 83164  1  0  0  0
 83165  1  0  0  0
 84 85  1  0  0  0
 84166  1  0  0  0
 84167  1  0  0  0
 84 87  1  0  0  0
 85168  1  0  0  0
 86169  1  0  0  0
 87170  1  0  0  0
M  CHG  1  87   1
M  ISO  4   1 100  68 101  85 101  86 100
M  END
> <chiral flag>
0

> <version>
0

> <s_m_source_file>
/data/baiqing/PycharmProjects/Reinvent-master-3.2/result/LINK_invent/BTK/process_docking_weight1_custom_product_contain_oxygen_bond_distance_aromatic_linkinvent_7_9_3/rearranged_h_0103.sdf

> <i_m_source_file_index>
77

> <r_mmod_Potential_Energy-OPLS-2005>
-100.437301635742

> <r_mmod_Stretch_Energy-OPLS-2005>
37.1962127685547

> <r_mmod_Bend_Energy-OPLS-2005>
137.630386352539

> <r_mmod_Torsional_Energy-OPLS-2005>
298.946380615234

> <r_mmod_Improper_Torsional_Energy-OPLS-2005>
9.00205993652344

> <r_mmod_Van_der_Waal_Energy-OPLS-2005>
158.788970947266

> <r_mmod_Electrostatic_Energy-OPLS-2005>
-313.993804931641

> <r_mmod_Solvation_Energy-OPLS-2005>
-440.340942382812

> <b_mmod_Minimization_Converged-OPLS-2005>
0

> <r_mmod_RMS_Derivative-OPLS-2005>
2.82442474365234

$$$$
77
                    3D
 Structure written by MMmdl.
162171  0  0  1  0            999 V2000
  -30.6594  -14.6200   20.5735 C   0  0  0  0  0  0
  -30.4340  -12.4016   19.4591 C   0  0  0  0  0  0
  -29.5083  -12.5449   18.2304 C   0  0  0  0  0  0
  -28.0267  -12.3898   18.6245 C   0  0  0  0  0  0
  -27.6565  -13.2225   19.8786 C   0  0  2  0  0  0
  -28.6951  -13.0195   20.9994 C   0  0  0  0  0  0
  -25.2511  -13.8145   20.5643 C   0  0  0  0  0  0
  -24.1795  -13.0407   20.9151 C   0  0  0  0  0  0
  -24.6389  -11.6894   20.8709 C   0  0  0  0  0  0
  -23.9064  -10.4281   21.0382 C   0  0  0  0  0  0
  -24.3614   -9.4212   21.9170 C   0  0  0  0  0  0
  -23.6291   -8.2246   22.0747 C   0  0  0  0  0  0
  -22.4274   -8.0280   21.3543 C   0  0  0  0  0  0
  -21.9912   -9.0241   20.4636 C   0  0  0  0  0  0
  -22.7233  -10.2122   20.3037 C   0  0  0  0  0  0
  -21.6851   -6.0736   22.5280 C   0  0  0  0  0  0
  -21.4007   -6.5641   23.8214 C   0  0  0  0  0  0
  -21.3658   -5.6795   24.9179 C   0  0  0  0  0  0
  -21.6055   -4.3057   24.7231 C   0  0  0  0  0  0
  -21.8813   -3.8149   23.4348 C   0  0  0  0  0  0
  -21.9193   -4.6964   22.3401 C   0  0  0  0  0  0
  -22.7829  -13.5204   21.1860 C   0  0  0  0  0  0
  -22.1664   -4.2150   21.0981 F   0  0  0  0  0  0
  -21.5635   -3.4540   25.7741 F   0  0  0  0  0  0
  -30.0171  -13.4025   20.4691 N   0  0  0  0  0  0
  -26.2990  -12.9362   20.3378 N   0  0  0  0  0  0
  -25.9325  -11.6505   20.5765 N   0  0  0  0  0  0
  -22.0469  -12.8173   22.0403 N   0  0  0  0  0  0
  -25.4142  -15.1847   20.4019 N   0  0  0  0  0  0
  -31.7438  -14.8040   20.0122 O   0  0  0  0  0  0
  -21.6638   -6.8883   21.4245 O   0  0  0  0  0  0
  -22.3512  -14.5532   20.6753 O   0  0  0  0  0  0
  -24.6245  -31.8589   23.2031 C   0  0  0  0  0  0
  -25.9099  -32.4784   23.8365 C   0  0  1  0  0  0
  -27.2293  -27.3292   20.1218 C   0  0  0  0  0  0
  -25.5910  -33.8585   24.2296 N   0  0  0  0  0  0
  -23.4192  -30.4809   21.5476 C   0  0  2  0  0  0
  -24.8656  -28.9280   20.1203 C   0  0  0  0  0  0
  -22.7465  -29.4620   22.4966 C   0  0  0  0  0  0
  -18.0278  -28.1399   22.8491 C   0  0  0  0  0  0
  -24.1482  -36.7286   23.2646 C   0  0  0  0  0  0
  -25.9567  -30.7928   21.3686 C   0  0  0  0  0  0
  -26.0335  -29.4196   20.7151 C   0  0  0  0  0  0
  -27.2225  -28.6340   20.7007 C   0  0  0  0  0  0
  -26.0380  -26.8733   19.5220 C   0  0  0  0  0  0
  -24.8664  -27.6585   19.5166 C   0  0  0  0  0  0
  -23.6330  -29.8091   20.1650 C   0  0  0  0  0  0
  -25.4115  -36.3087   24.0323 C   0  0  1  0  0  0
  -20.5880  -28.3698   23.1308 C   0  0  2  0  0  0
  -20.6776  -26.9430   22.5414 C   0  0  0  0  0  0
  -19.5753  -26.6392   21.5221 C   0  0  0  0  0  0
  -18.1922  -26.7941   22.1618 C   0  0  0  0  0  0
  -19.1531  -28.8869   23.2880 C   0  0  0  0  0  0
  -18.9449  -30.1463   23.8917 C   0  0  0  0  0  0
  -17.6454  -30.6607   24.0579 C   0  0  0  0  0  0
  -25.9045  -34.9453   23.5109 C   0  0  0  0  0  0
  -16.5339  -29.9109   23.6353 C   0  0  0  0  0  0
  -16.7264  -28.6514   23.0385 C   0  0  0  0  0  0
  -26.4495  -31.6602   25.0734 C   0  0  0  0  0  0
  -25.3711  -31.3684   26.1443 C   0  0  0  0  0  0
  -27.0390  -30.3056   24.6162 C   0  0  0  0  0  0
  -27.6061  -32.4350   25.7498 C   0  0  0  0  0  0
  -27.5579  -37.1797   24.8467 C   0  0  0  0  0  0
  -21.4179  -29.3033   22.3685 N   0  0  0  0  0  0
  -26.4300  -37.3779   23.9395 N   0  0  0  0  0  0
  -24.6864  -31.0602   22.0975 N   0  0  0  0  0  0
  -23.4177  -28.8166   23.3067 O   0  0  0  0  0  0
  -28.3665  -26.5180   20.1007 O   0  0  0  0  0  0
  -26.5613  -34.8924   22.4680 O   0  0  0  0  0  0
  -23.5411  -32.1398   23.7364 O   0  0  0  0  0  0
  -28.4199  -19.2408   20.5334 C   0  0  0  0  0  0
  -30.7639  -19.3760   20.0700 C   0  0  0  0  0  0
  -29.8456  -17.2028   20.8749 C   0  0  0  0  0  0
  -29.5025  -20.0399   20.0843 C   0  0  0  0  0  0
  -28.5768  -17.8680   20.9265 C   0  0  0  0  0  0
  -30.9344  -18.0108   20.4434 C   0  0  0  0  0  0
  -29.7196  -21.6304   18.2623 C   0  0  0  0  0  0
  -28.7732  -22.4639   20.2912 C   0  0  0  0  0  0
  -30.0161  -15.7721   21.4314 C   0  0  0  0  0  0
  -29.6916  -23.0298   17.6221 C   0  0  0  0  0  0
  -29.6318  -24.1710   18.6404 C   0  0  0  0  0  0
  -28.5133  -23.8980   19.6465 C   0  0  2  0  0  0
  -26.4692  -17.8323   22.0661 C   0  0  0  0  0  0
  -28.2777  -25.1352   20.6215 C   0  0  0  0  0  0
  -29.6474  -15.5435   22.6272 N   0  0  0  0  0  0
  -29.3254  -21.4193   19.5567 N   0  0  0  0  0  0
  -30.0929  -20.7120   17.5208 O   0  0  0  0  0  0
  -28.4608  -22.3065   21.4777 O   0  0  0  0  0  0
  -27.4970  -17.1345   21.3708 O   0  0  0  0  0  0
  -32.1897  -17.5041   20.4238 F   0  0  0  0  0  0
  -31.4752  -12.5237   19.1573 H   0  0  0  0  0  0
  -30.3705  -11.3945   19.8735 H   0  0  0  0  0  0
  -29.7703  -11.8086   17.4691 H   0  0  0  0  0  0
  -29.6632  -13.5236   17.7726 H   0  0  0  0  0  0
  -27.8370  -11.3329   18.8113 H   0  0  0  0  0  0
  -27.3846  -12.6697   17.7891 H   0  0  0  0  0  0
  -27.6892  -14.2723   19.5847 H   0  0  0  0  0  0
  -28.7113  -11.9747   21.3112 H   0  0  0  0  0  0
  -28.3938  -13.5613   21.8911 H   0  0  0  0  0  0
  -25.2745   -9.5700   22.4759 H   0  0  0  0  0  0
  -23.9998   -7.4639   22.7465 H   0  0  0  0  0  0
  -21.0848   -8.8756   19.8929 H   0  0  0  0  0  0
  -22.3683  -10.9664   19.6152 H   0  0  0  0  0  0
  -21.1984   -7.6147   23.9720 H   0  0  0  0  0  0
  -21.1494   -6.0527   25.9092 H   0  0  0  0  0  0
  -22.0594   -2.7605   23.2848 H   0  0  0  0  0  0
  -22.4062  -11.9802   22.4746 H   0  0  0  0  0  0
  -21.1096  -13.1209   22.2633 H   0  0  0  0  0  0
  -24.6514  -15.8366   20.5410 H   0  0  0  0  0  0
  -26.3077  -15.6464   20.2682 H   0  0  0  0  0  0
  -26.7158  -32.5465   23.1114 H   0  0  0  0  0  0
  -25.0060  -33.9730   25.0435 H   0  0  0  0  0  0
  -22.7113  -31.2992   21.4036 H   0  0  0  0  0  0
  -23.3757  -35.9609   23.3315 H   0  0  0  0  0  0
  -24.3554  -36.8908   22.2059 H   0  0  0  0  0  0
  -23.7220  -37.6471   23.6683 H   0  0  0  0  0  0
  -26.0798  -31.5529   20.5973 H   0  0  0  0  0  0
  -26.8399  -30.8488   21.9950 H   0  0  0  0  0  0
  -28.1255  -29.0091   21.1607 H   0  0  0  0  0  0
  -26.0149  -25.9004   19.0528 H   0  0  0  0  0  0
  -23.9679  -27.2771   19.0504 H   0  0  0  0  0  0
  -23.7518  -30.5824   19.4038 H   0  0  0  0  0  0
  -22.7519  -29.2369   19.8714 H   0  0  0  0  0  0
  -25.1294  -36.1941   25.0815 H   0  0  0  0  0  0
  -20.9959  -28.3292   24.1442 H   0  0  0  0  0  0
  -20.5720  -26.2299   23.3594 H   0  0  0  0  0  0
  -21.6638  -26.7487   22.1193 H   0  0  0  0  0  0
  -19.6922  -25.6302   21.1254 H   0  0  0  0  0  0
  -19.6715  -27.3196   20.6749 H   0  0  0  0  0  0
  -17.4197  -26.6715   21.4012 H   0  0  0  0  0  0
  -18.0302  -26.0077   22.9009 H   0  0  0  0  0  0
  -19.7926  -30.7254   24.2324 H   0  0  0  0  0  0
  -17.5019  -31.6305   24.5144 H   0  0  0  0  0  0
  -15.5345  -30.3028   23.7663 H   0  0  0  0  0  0
  -15.8652  -28.0830   22.7133 H   0  0  0  0  0  0
  -24.5946  -30.6972   25.7739 H   0  0  0  0  0  0
  -24.8807  -32.2810   26.4856 H   0  0  0  0  0  0
  -25.8036  -30.8882   27.0230 H   0  0  0  0  0  0
  -26.2990  -29.6746   24.1226 H   0  0  0  0  0  0
  -27.4179  -29.7363   25.4654 H   0  0  0  0  0  0
  -27.8797  -30.4406   23.9354 H   0  0  0  0  0  0
  -27.2729  -33.3711   26.2011 H   0  0  0  0  0  0
  -28.3919  -32.6808   25.0334 H   0  0  0  0  0  0
  -28.0686  -31.8495   26.5462 H   0  0  0  0  0  0
  -28.2591  -38.0103   24.7541 H   0  0  0  0  0  0
  -28.1087  -36.2629   24.6299 H   0  0  0  0  0  0
  -27.2274  -37.1445   25.8863 H   0  0  0  0  0  0
  -20.9354  -29.8715   21.6859 H   0  0  0  0  0  0
  -26.0180  -38.2839   24.1437 H   0  0  0  0  0  0
  -27.4404  -19.6933   20.5478 H   0  0  0  0  0  0
  -31.6416  -19.9146   19.7408 H   0  0  0  0  0  0
  -28.8202  -23.0715   16.9696 H   0  0  0  0  0  0
  -30.5622  -23.1497   16.9761 H   0  0  0  0  0  0
  -29.4527  -25.1092   18.1165 H   0  0  0  0  0  0
  -30.5892  -24.2805   19.1530 H   0  0  0  0  0  0
  -27.5863  -23.7964   19.0788 H   0  0  0  0  0  0
  -25.8298  -17.1119   22.5781 H   0  0  0  0  0  0
  -25.8364  -18.4049   21.3870 H   0  0  0  0  0  0
  -26.8807  -18.4979   22.8279 H   0  0  0  0  0  0
  -29.0180  -25.0753   21.4192 H   0  0  0  0  0  0
  -27.3201  -24.9953   21.1262 H   0  0  0  0  0  0
  -29.2451  -16.3727   23.0470 H   0  0  0  0  0  0
  1 25  1  0  0  0
  1 30  2  0  0  0
  1 79  1  0  0  0
  2  3  1  0  0  0
  2 25  1  0  0  0
  2 91  1  0  0  0
  2 92  1  0  0  0
  3  4  1  0  0  0
  3 93  1  0  0  0
  3 94  1  0  0  0
  4  5  1  0  0  0
  4 95  1  0  0  0
  4 96  1  0  0  0
  5  6  1  0  0  0
  5 26  1  0  0  0
  5 97  1  0  0  0
  6 25  1  0  0  0
  6 98  1  0  0  0
  6 99  1  0  0  0
  7  8  2  0  0  0
  7 26  1  0  0  0
  7 29  1  0  0  0
  8  9  1  0  0  0
  8 22  1  0  0  0
  9 10  1  0  0  0
  9 27  2  0  0  0
 10 11  2  0  0  0
 10 15  1  0  0  0
 11 12  1  0  0  0
 11100  1  0  0  0
 12 13  2  0  0  0
 12101  1  0  0  0
 13 14  1  0  0  0
 13 31  1  0  0  0
 14 15  2  0  0  0
 14102  1  0  0  0
 15103  1  0  0  0
 16 17  2  0  0  0
 16 21  1  0  0  0
 16 31  1  0  0  0
 17 18  1  0  0  0
 17104  1  0  0  0
 18 19  2  0  0  0
 18105  1  0  0  0
 19 20  1  0  0  0
 19 24  1  0  0  0
 20 21  2  0  0  0
 20106  1  0  0  0
 21 23  1  0  0  0
 22 28  1  0  0  0
 22 32  2  0  0  0
 26 27  1  0  0  0
 28107  1  0  0  0
 28108  1  0  0  0
 29109  1  0  0  0
 29110  1  0  0  0
 33 34  1  0  0  0
 33 66  1  0  0  0
 33 70  2  0  0  0
 34 36  1  0  0  0
 34 59  1  0  0  0
 34111  1  0  0  0
 35 44  2  0  0  0
 35 45  1  0  0  0
 35 68  1  0  0  0
 36 56  1  0  0  0
 36112  1  0  0  0
 37 39  1  0  0  0
 37 47  1  0  0  0
 37 66  1  0  0  0
 37113  1  0  0  0
 38 43  2  0  0  0
 38 46  1  0  0  0
 38 47  1  0  0  0
 39 64  1  0  0  0
 39 67  2  0  0  0
 40 52  1  0  0  0
 40 53  2  0  0  0
 40 58  1  0  0  0
 41114  1  0  0  0
 41115  1  0  0  0
 41116  1  0  0  0
 41 48  1  0  0  0
 42 43  1  0  0  0
 42 66  1  0  0  0
 42117  1  0  0  0
 42118  1  0  0  0
 43 44  1  0  0  0
 44119  1  0  0  0
 45 46  2  0  0  0
 45120  1  0  0  0
 46121  1  0  0  0
 47122  1  0  0  0
 47123  1  0  0  0
 48 56  1  0  0  0
 48 65  1  0  0  0
 48124  1  0  0  0
 49 50  1  0  0  0
 49 53  1  0  0  0
 49 64  1  0  0  0
 49125  1  0  0  0
 50 51  1  0  0  0
 50126  1  0  0  0
 50127  1  0  0  0
 51 52  1  0  0  0
 51128  1  0  0  0
 51129  1  0  0  0
 52130  1  0  0  0
 52131  1  0  0  0
 53 54  1  0  0  0
 54 55  2  0  0  0
 54132  1  0  0  0
 55 57  1  0  0  0
 55133  1  0  0  0
 56 69  2  0  0  0
 57 58  2  0  0  0
 57134  1  0  0  0
 58135  1  0  0  0
 59 60  1  0  0  0
 59 61  1  0  0  0
 59 62  1  0  0  0
 60136  1  0  0  0
 60137  1  0  0  0
 60138  1  0  0  0
 61139  1  0  0  0
 61140  1  0  0  0
 61141  1  0  0  0
 62142  1  0  0  0
 62143  1  0  0  0
 62144  1  0  0  0
 63 65  1  0  0  0
 63145  1  0  0  0
 63146  1  0  0  0
 63147  1  0  0  0
 64148  1  0  0  0
 65149  1  0  0  0
 68 84  1  0  0  0
 71 74  2  0  0  0
 71 75  1  0  0  0
 71150  1  0  0  0
 72 74  1  0  0  0
 72 76  2  0  0  0
 72151  1  0  0  0
 73 75  2  0  0  0
 73 76  1  0  0  0
 73 79  1  0  0  0
 74 86  1  0  0  0
 75 89  1  0  0  0
 76 90  1  0  0  0
 77 80  1  0  0  0
 77 86  1  0  0  0
 77 87  2  0  0  0
 78 82  1  0  0  0
 78 86  1  0  0  0
 78 88  2  0  0  0
 79 85  2  0  0  0
 80 81  1  0  0  0
 80152  1  0  0  0
 80153  1  0  0  0
 81 82  1  0  0  0
 81154  1  0  0  0
 81155  1  0  0  0
 82 84  1  0  0  0
 82156  1  0  0  0
 83 89  1  0  0  0
 83157  1  0  0  0
 83158  1  0  0  0
 83159  1  0  0  0
 84160  1  0  0  0
 84161  1  0  0  0
 85162  1  0  0  0
M  ISO  4   1 100  68 101  79 100  84 101
M  END
> <chiral flag>
0

> <version>
0

> <s_m_source_file>
/data/baiqing/PycharmProjects/Reinvent-master-3.2/result/LINK_invent/BTK/process_docking_weight1_custom_product_contain_oxygen_bond_distance_aromatic_linkinvent_7_9_3/rearranged_h_0103.sdf

> <i_m_source_file_index>
78

> <r_mmod_Potential_Energy-OPLS-2005>
332.570495605469

> <r_mmod_Stretch_Energy-OPLS-2005>
102.917831420898

> <r_mmod_Bend_Energy-OPLS-2005>
153.044616699219

> <r_mmod_Torsional_Energy-OPLS-2005>
283.576171875

> <r_mmod_Improper_Torsional_Energy-OPLS-2005>
3.27819490432739

> <r_mmod_Van_der_Waal_Energy-OPLS-2005>
167.430587768555

> <r_mmod_Electrostatic_Energy-OPLS-2005>
-194.437484741211

> <r_mmod_Solvation_Energy-OPLS-2005>
-221.675247192383

> <b_mmod_Minimization_Converged-OPLS-2005>
0

> <r_mmod_RMS_Derivative-OPLS-2005>
2.69815444946289

$$$$
78
                    3D
 Structure written by MMmdl.
166175  0  0  1  0            999 V2000
  -30.6208  -14.7663   20.2645 C   0  0  0  0  0  0
  -30.4489  -12.4170   19.4696 C   0  0  0  0  0  0
  -29.5092  -12.3148   18.2476 C   0  0  0  0  0  0
  -28.0261  -12.2641   18.6775 C   0  0  0  0  0  0
  -27.6349  -13.2260   19.8389 C   0  0  2  0  0  0
  -28.7077  -13.2314   20.9456 C   0  0  0  0  0  0
  -25.2495  -13.8244   20.5793 C   0  0  0  0  0  0
  -24.1777  -13.0469   20.9270 C   0  0  0  0  0  0
  -24.6359  -11.6955   20.8794 C   0  0  0  0  0  0
  -23.9044  -10.4355   21.0439 C   0  0  0  0  0  0
  -24.3641   -9.4269   21.9198 C   0  0  0  0  0  0
  -23.6322   -8.2286   22.0735 C   0  0  0  0  0  0
  -22.4265   -8.0340   21.3567 C   0  0  0  0  0  0
  -21.9922   -9.0289   20.4640 C   0  0  0  0  0  0
  -22.7228  -10.2181   20.3084 C   0  0  0  0  0  0
  -21.6878   -6.0760   22.5289 C   0  0  0  0  0  0
  -21.3976   -6.5634   23.8208 C   0  0  0  0  0  0
  -21.3609   -5.6776   24.9161 C   0  0  0  0  0  0
  -21.6038   -4.3052   24.7209 C   0  0  0  0  0  0
  -21.8828   -3.8158   23.4325 C   0  0  0  0  0  0
  -21.9183   -4.6978   22.3391 C   0  0  0  0  0  0
  -22.7804  -13.5220   21.1948 C   0  0  0  0  0  0
  -22.1673   -4.2192   21.0968 F   0  0  0  0  0  0
  -21.5657   -3.4514   25.7698 F   0  0  0  0  0  0
  -29.9875  -13.5430   20.3017 N   0  0  0  0  0  0
  -26.2936  -12.9433   20.3413 N   0  0  0  0  0  0
  -25.9303  -11.6584   20.5902 N   0  0  0  0  0  0
  -22.0462  -12.8137   22.0506 N   0  0  0  0  0  0
  -25.4136  -15.1986   20.4177 N   0  0  0  0  0  0
  -31.8521  -14.8136   20.2406 O   0  0  0  0  0  0
  -21.6652   -6.8916   21.4258 O   0  0  0  0  0  0
  -22.3463  -14.5515   20.6825 O   0  0  0  0  0  0
  -24.6201  -31.8592   23.2030 C   0  0  0  0  0  0
  -25.9070  -32.4785   23.8347 C   0  0  1  0  0  0
  -27.2319  -27.3280   20.1284 C   0  0  0  0  0  0
  -25.5914  -33.8593   24.2278 N   0  0  0  0  0  0
  -23.4147  -30.4822   21.5412 C   0  0  2  0  0  0
  -24.8675  -28.9328   20.1161 C   0  0  0  0  0  0
  -22.7417  -29.4622   22.4900 C   0  0  0  0  0  0
  -18.0283  -28.1367   22.8489 C   0  0  0  0  0  0
  -24.1500  -36.7287   23.2638 C   0  0  0  0  0  0
  -25.9544  -30.7980   21.3727 C   0  0  0  0  0  0
  -26.0331  -29.4228   20.7183 C   0  0  0  0  0  0
  -27.2173  -28.6313   20.7128 C   0  0  0  0  0  0
  -26.0438  -26.8833   19.5086 C   0  0  0  0  0  0
  -24.8737  -27.6704   19.5005 C   0  0  0  0  0  0
  -23.6318  -29.8101   20.1581 C   0  0  0  0  0  0
  -25.4124  -36.3067   24.0316 C   0  0  1  0  0  0
  -20.5881  -28.3653   23.1288 C   0  0  2  0  0  0
  -20.6768  -26.9381   22.5394 C   0  0  0  0  0  0
  -19.5763  -26.6368   21.5183 C   0  0  0  0  0  0
  -18.1942  -26.7923   22.1597 C   0  0  0  0  0  0
  -19.1535  -28.8823   23.2909 C   0  0  0  0  0  0
  -18.9456  -30.1423   23.8925 C   0  0  0  0  0  0
  -17.6461  -30.6579   24.0548 C   0  0  0  0  0  0
  -25.9046  -34.9449   23.5091 C   0  0  0  0  0  0
  -16.5353  -29.9062   23.6338 C   0  0  0  0  0  0
  -16.7271  -28.6480   23.0376 C   0  0  0  0  0  0
  -26.4498  -31.6594   25.0694 C   0  0  0  0  0  0
  -25.3781  -31.3713   26.1445 C   0  0  0  0  0  0
  -27.0345  -30.3026   24.6126 C   0  0  0  0  0  0
  -27.6044  -32.4333   25.7491 C   0  0  0  0  0  0
  -27.5586  -37.1790   24.8457 C   0  0  0  0  0  0
  -21.4136  -29.3030   22.3673 N   0  0  0  0  0  0
  -26.4295  -37.3748   23.9405 N   0  0  0  0  0  0
  -24.6821  -31.0603   22.0977 N   0  0  0  0  0  0
  -23.4166  -28.8172   23.2970 O   0  0  0  0  0  0
  -28.3782  -26.5275   20.1184 O   0  0  0  0  0  0
  -26.5593  -34.8891   22.4642 O   0  0  0  0  0  0
  -23.5370  -32.1391   23.7364 O   0  0  0  0  0  0
  -30.2722  -19.6097   19.2448 C   0  0  0  0  0  0
  -30.5441  -18.2152   19.1685 C   0  0  0  0  0  0
  -29.0428  -17.8035   20.9894 C   0  0  0  0  0  0
  -29.3772  -20.1642   20.2001 C   0  0  0  0  0  0
  -29.9066  -17.2482   20.0049 C   0  0  0  0  0  0
  -28.7906  -19.2132   21.0867 C   0  0  0  0  0  0
  -32.1556  -24.5863   19.8809 C   0  0  0  0  0  0
  -32.2757  -23.4747   20.9131 C   0  0  0  0  0  0
  -30.7789  -25.2088   20.0530 C   0  0  0  0  0  0
  -31.2440  -22.3907   20.5928 C   0  0  0  0  0  0
  -29.5700  -24.2246   19.9336 C   0  0  2  0  0  0
  -29.7567  -15.6180   18.1884 C   0  0  0  0  0  0
  -28.9168  -21.6865   20.1346 C   0  0  0  0  0  0
  -28.3060  -25.0759   20.4181 C   0  0  0  0  0  0
  -29.9207  -15.8084   19.6509 N   0  0  0  0  0  0
  -29.8128  -22.8372   20.5982 N   0  3  1  0  0  0
  -27.9047  -19.6482   22.0112 F   0  0  0  0  0  0
  -31.4781  -12.5595   19.1340 H   0  0  0  0  0  0
  -30.4465  -11.4961   20.0525 H   0  0  0  0  0  0
  -29.7412  -11.4033   17.6951 H   0  0  0  0  0  0
  -29.6934  -13.0978   17.5205 H   0  0  0  0  0  0
  -27.8618  -11.2404   19.0124 H   0  0  0  0  0  0
  -27.3625  -12.4132   17.8251 H   0  0  0  0  0  0
  -27.5821  -14.2284   19.4224 H   0  0  0  0  0  0
  -28.7678  -12.2683   21.4562 H   0  0  0  0  0  0
  -28.4681  -13.9817   21.7017 H   0  0  0  0  0  0
  -25.2815   -9.5727   22.4726 H   0  0  0  0  0  0
  -24.0057   -7.4615   22.7357 H   0  0  0  0  0  0
  -21.0910   -8.8748   19.8899 H   0  0  0  0  0  0
  -22.3690  -10.9677   19.6184 H   0  0  0  0  0  0
  -21.1972   -7.6143   23.9694 H   0  0  0  0  0  0
  -21.1397   -6.0530   25.9048 H   0  0  0  0  0  0
  -22.0648   -2.7631   23.2793 H   0  0  0  0  0  0
  -22.4119  -11.9861   22.4964 H   0  0  0  0  0  0
  -21.1052  -13.1055   22.2639 H   0  0  0  0  0  0
  -24.6448  -15.8483   20.5250 H   0  0  0  0  0  0
  -26.2777  -15.6472   20.1379 H   0  0  0  0  0  0
  -26.7139  -32.5464   23.1099 H   0  0  0  0  0  0
  -25.0088  -33.9800   25.0437 H   0  0  0  0  0  0
  -22.7082  -31.3020   21.3938 H   0  0  0  0  0  0
  -23.3749  -35.9622   23.3264 H   0  0  0  0  0  0
  -24.3590  -36.8944   22.2054 H   0  0  0  0  0  0
  -23.7267  -37.6481   23.6692 H   0  0  0  0  0  0
  -26.0828  -31.5628   20.6050 H   0  0  0  0  0  0
  -26.8356  -30.8502   22.0011 H   0  0  0  0  0  0
  -28.1170  -29.0088   21.1820 H   0  0  0  0  0  0
  -26.0077  -25.9257   19.0152 H   0  0  0  0  0  0
  -23.9800  -27.2946   19.0227 H   0  0  0  0  0  0
  -23.7522  -30.5850   19.3996 H   0  0  0  0  0  0
  -22.7543  -29.2336   19.8558 H   0  0  0  0  0  0
  -25.1316  -36.1897   25.0802 H   0  0  0  0  0  0
  -21.0032  -28.3219   24.1387 H   0  0  0  0  0  0
  -20.5647  -26.2245   23.3569 H   0  0  0  0  0  0
  -21.6641  -26.7399   22.1206 H   0  0  0  0  0  0
  -19.6917  -25.6272   21.1226 H   0  0  0  0  0  0
  -19.6741  -27.3158   20.6702 H   0  0  0  0  0  0
  -17.4207  -26.6670   21.4002 H   0  0  0  0  0  0
  -18.0365  -26.0061   22.8992 H   0  0  0  0  0  0
  -19.7935  -30.7232   24.2330 H   0  0  0  0  0  0
  -17.5011  -31.6290   24.5086 H   0  0  0  0  0  0
  -15.5354  -30.2963   23.7655 H   0  0  0  0  0  0
  -15.8673  -28.0779   22.7112 H   0  0  0  0  0  0
  -24.5900  -30.7138   25.7757 H   0  0  0  0  0  0
  -24.9064  -32.2888   26.4965 H   0  0  0  0  0  0
  -25.8133  -30.8796   27.0155 H   0  0  0  0  0  0
  -26.2901  -29.6760   24.1200 H   0  0  0  0  0  0
  -27.4108  -29.7287   25.4602 H   0  0  0  0  0  0
  -27.8738  -30.4291   23.9291 H   0  0  0  0  0  0
  -27.2615  -33.3580   26.2133 H   0  0  0  0  0  0
  -28.3840  -32.6984   25.0348 H   0  0  0  0  0  0
  -28.0736  -31.8441   26.5372 H   0  0  0  0  0  0
  -28.2560  -38.0127   24.7516 H   0  0  0  0  0  0
  -28.1141  -36.2653   24.6273 H   0  0  0  0  0  0
  -27.2313  -37.1412   25.8863 H   0  0  0  0  0  0
  -20.9246  -29.8750   21.6928 H   0  0  0  0  0  0
  -26.0166  -38.2807   24.1431 H   0  0  0  0  0  0
  -30.7146  -20.2492   18.4951 H   0  0  0  0  0  0
  -31.1863  -17.8814   18.3631 H   0  0  0  0  0  0
  -28.4868  -17.1426   21.6354 H   0  0  0  0  0  0
  -32.2828  -24.2050   18.8652 H   0  0  0  0  0  0
  -32.9407  -25.3312   20.0298 H   0  0  0  0  0  0
  -32.1381  -23.8587   21.9248 H   0  0  0  0  0  0
  -33.2798  -23.0477   20.8757 H   0  0  0  0  0  0
  -30.6765  -25.9931   19.2992 H   0  0  0  0  0  0
  -30.7506  -25.7190   21.0197 H   0  0  0  0  0  0
  -31.3868  -21.5674   21.2946 H   0  0  0  0  0  0
  -31.4857  -22.0056   19.6051 H   0  0  0  0  0  0
  -29.4565  -24.0273   18.8657 H   0  0  0  0  0  0
  -29.5387  -16.5285   17.6315 H   0  0  0  0  0  0
  -28.8939  -15.0004   17.9677 H   0  0  0  0  0  0
  -30.6349  -15.1726   17.7138 H   0  0  0  0  0  0
  -27.9621  -21.7828   20.6583 H   0  0  0  0  0  0
  -28.6731  -21.8630   19.0881 H   0  0  0  0  0  0
  -28.2468  -25.0098   21.5055 H   0  0  0  0  0  0
  -27.3887  -24.6163   20.0477 H   0  0  0  0  0  0
  -29.5995  -22.9608   21.5784 H   0  0  0  0  0  0
  1 25  1  0  0  0
  1 30  2  0  0  0
  1 85  1  0  0  0
  2  3  1  0  0  0
  2 25  1  0  0  0
  2 88  1  0  0  0
  2 89  1  0  0  0
  3  4  1  0  0  0
  3 90  1  0  0  0
  3 91  1  0  0  0
  4  5  1  0  0  0
  4 92  1  0  0  0
  4 93  1  0  0  0
  5  6  1  0  0  0
  5 26  1  0  0  0
  5 94  1  0  0  0
  6 25  1  0  0  0
  6 95  1  0  0  0
  6 96  1  0  0  0
  7  8  2  0  0  0
  7 26  1  0  0  0
  7 29  1  0  0  0
  8  9  1  0  0  0
  8 22  1  0  0  0
  9 10  1  0  0  0
  9 27  2  0  0  0
 10 11  2  0  0  0
 10 15  1  0  0  0
 11 12  1  0  0  0
 11 97  1  0  0  0
 12 13  2  0  0  0
 12 98  1  0  0  0
 13 14  1  0  0  0
 13 31  1  0  0  0
 14 15  2  0  0  0
 14 99  1  0  0  0
 15100  1  0  0  0
 16 17  2  0  0  0
 16 21  1  0  0  0
 16 31  1  0  0  0
 17 18  1  0  0  0
 17101  1  0  0  0
 18 19  2  0  0  0
 18102  1  0  0  0
 19 20  1  0  0  0
 19 24  1  0  0  0
 20 21  2  0  0  0
 20103  1  0  0  0
 21 23  1  0  0  0
 22 28  1  0  0  0
 22 32  2  0  0  0
 26 27  1  0  0  0
 28104  1  0  0  0
 28105  1  0  0  0
 29106  1  0  0  0
 29107  1  0  0  0
 33 34  1  0  0  0
 33 66  1  0  0  0
 33 70  2  0  0  0
 34 36  1  0  0  0
 34 59  1  0  0  0
 34108  1  0  0  0
 35 44  2  0  0  0
 35 45  1  0  0  0
 35 68  1  0  0  0
 36 56  1  0  0  0
 36109  1  0  0  0
 37 39  1  0  0  0
 37 47  1  0  0  0
 37 66  1  0  0  0
 37110  1  0  0  0
 38 43  2  0  0  0
 38 46  1  0  0  0
 38 47  1  0  0  0
 39 64  1  0  0  0
 39 67  2  0  0  0
 40 52  1  0  0  0
 40 53  2  0  0  0
 40 58  1  0  0  0
 41111  1  0  0  0
 41112  1  0  0  0
 41113  1  0  0  0
 41 48  1  0  0  0
 42 43  1  0  0  0
 42 66  1  0  0  0
 42114  1  0  0  0
 42115  1  0  0  0
 43 44  1  0  0  0
 44116  1  0  0  0
 45 46  2  0  0  0
 45117  1  0  0  0
 46118  1  0  0  0
 47119  1  0  0  0
 47120  1  0  0  0
 48 56  1  0  0  0
 48 65  1  0  0  0
 48121  1  0  0  0
 49 50  1  0  0  0
 49 53  1  0  0  0
 49 64  1  0  0  0
 49122  1  0  0  0
 50 51  1  0  0  0
 50123  1  0  0  0
 50124  1  0  0  0
 51 52  1  0  0  0
 51125  1  0  0  0
 51126  1  0  0  0
 52127  1  0  0  0
 52128  1  0  0  0
 53 54  1  0  0  0
 54 55  2  0  0  0
 54129  1  0  0  0
 55 57  1  0  0  0
 55130  1  0  0  0
 56 69  2  0  0  0
 57 58  2  0  0  0
 57131  1  0  0  0
 58132  1  0  0  0
 59 60  1  0  0  0
 59 61  1  0  0  0
 59 62  1  0  0  0
 60133  1  0  0  0
 60134  1  0  0  0
 60135  1  0  0  0
 61136  1  0  0  0
 61137  1  0  0  0
 61138  1  0  0  0
 62139  1  0  0  0
 62140  1  0  0  0
 62141  1  0  0  0
 63 65  1  0  0  0
 63142  1  0  0  0
 63143  1  0  0  0
 63144  1  0  0  0
 64145  1  0  0  0
 65146  1  0  0  0
 68 84  1  0  0  0
 71 72  2  0  0  0
 71 74  1  0  0  0
 71147  1  0  0  0
 72 75  1  0  0  0
 72148  1  0  0  0
 73 75  2  0  0  0
 73 76  1  0  0  0
 73149  1  0  0  0
 74 76  2  0  0  0
 74 83  1  0  0  0
 75 85  1  0  0  0
 76 87  1  0  0  0
 77 78  1  0  0  0
 77 79  1  0  0  0
 77150  1  0  0  0
 77151  1  0  0  0
 78 80  1  0  0  0
 78152  1  0  0  0
 78153  1  0  0  0
 79 81  1  0  0  0
 79154  1  0  0  0
 79155  1  0  0  0
 80 86  1  0  0  0
 80156  1  0  0  0
 80157  1  0  0  0
 81 84  1  0  0  0
 81 86  1  0  0  0
 81158  1  0  0  0
 82 85  1  0  0  0
 82159  1  0  0  0
 82160  1  0  0  0
 82161  1  0  0  0
 83162  1  0  0  0
 83163  1  0  0  0
 83 86  1  0  0  0
 84164  1  0  0  0
 84165  1  0  0  0
 86166  1  0  0  0
M  CHG  1  86   1
M  ISO  4   1 100  68 101  84 101  85 100
M  END
> <chiral flag>
0

> <version>
0

> <s_m_source_file>
/data/baiqing/PycharmProjects/Reinvent-master-3.2/result/LINK_invent/BTK/process_docking_weight1_custom_product_contain_oxygen_bond_distance_aromatic_linkinvent_7_9_3/rearranged_h_0103.sdf

> <i_m_source_file_index>
79

> <r_mmod_Potential_Energy-OPLS-2005>
363.869201660156

> <r_mmod_Stretch_Energy-OPLS-2005>
106.055290222168

> <r_mmod_Bend_Energy-OPLS-2005>
173.323440551758

> <r_mmod_Torsional_Energy-OPLS-2005>
382.762420654297

> <r_mmod_Improper_Torsional_Energy-OPLS-2005>
27.0272884368896

> <r_mmod_Van_der_Waal_Energy-OPLS-2005>
161.163848876953

> <r_mmod_Electrostatic_Energy-OPLS-2005>
-170.52018737793

> <r_mmod_Solvation_Energy-OPLS-2005>
-409.535736083984

> <b_mmod_Minimization_Converged-OPLS-2005>
0

> <r_mmod_RMS_Derivative-OPLS-2005>
5.55736351013184

$$$$
79
                    3D
 Structure written by MMmdl.
164172  0  0  1  0            999 V2000
  -30.6612  -14.4926   20.5620 C   0  0  0  0  0  0
  -30.4346  -12.3192   19.4119 C   0  0  0  0  0  0
  -29.4953  -12.5098   18.2012 C   0  0  0  0  0  0
  -28.0181  -12.3523   18.6167 C   0  0  0  0  0  0
  -27.6604  -13.1847   19.8756 C   0  0  2  0  0  0
  -28.7061  -12.9603   20.9909 C   0  0  0  0  0  0
  -25.2604  -13.8102   20.5669 C   0  0  0  0  0  0
  -24.1833  -13.0410   20.9171 C   0  0  0  0  0  0
  -24.6361  -11.6870   20.8731 C   0  0  0  0  0  0
  -23.9028  -10.4269   21.0404 C   0  0  0  0  0  0
  -24.3594   -9.4193   21.9181 C   0  0  0  0  0  0
  -23.6275   -8.2229   22.0749 C   0  0  0  0  0  0
  -22.4259   -8.0260   21.3539 C   0  0  0  0  0  0
  -21.9883   -9.0235   20.4650 C   0  0  0  0  0  0
  -22.7202  -10.2117   20.3054 C   0  0  0  0  0  0
  -21.6846   -6.0722   22.5285 C   0  0  0  0  0  0
  -21.4009   -6.5631   23.8216 C   0  0  0  0  0  0
  -21.3656   -5.6782   24.9175 C   0  0  0  0  0  0
  -21.6044   -4.3043   24.7228 C   0  0  0  0  0  0
  -21.8819   -3.8132   23.4348 C   0  0  0  0  0  0
  -21.9195   -4.6951   22.3407 C   0  0  0  0  0  0
  -22.7864  -13.5237   21.1840 C   0  0  0  0  0  0
  -22.1661   -4.2138   21.0987 F   0  0  0  0  0  0
  -21.5628   -3.4527   25.7742 F   0  0  0  0  0  0
  -30.0332  -13.2901   20.4402 N   0  0  0  0  0  0
  -26.3010  -12.9217   20.3364 N   0  0  0  0  0  0
  -25.9279  -11.6406   20.5771 N   0  0  0  0  0  0
  -22.0487  -12.8248   22.0400 N   0  0  0  0  0  0
  -25.4344  -15.1822   20.4093 N   0  0  0  0  0  0
  -31.7981  -14.7052   20.1292 O   0  0  0  0  0  0
  -21.6627   -6.8856   21.4244 O   0  0  0  0  0  0
  -22.3572  -14.5553   20.6691 O   0  0  0  0  0  0
  -24.6136  -31.8672   23.2088 C   0  0  0  0  0  0
  -25.9031  -32.4818   23.8382 C   0  0  1  0  0  0
  -27.2488  -27.4341   20.0910 C   0  0  0  0  0  0
  -25.5892  -33.8619   24.2310 N   0  0  0  0  0  0
  -23.4030  -30.4880   21.5485 C   0  0  2  0  0  0
  -24.8505  -28.9496   20.1161 C   0  0  0  0  0  0
  -22.7400  -29.4653   22.4991 C   0  0  0  0  0  0
  -18.0267  -28.1396   22.8487 C   0  0  0  0  0  0
  -24.1494  -36.7311   23.2637 C   0  0  0  0  0  0
  -25.9310  -30.8287   21.3651 C   0  0  0  0  0  0
  -26.0072  -29.4612   20.7151 C   0  0  0  0  0  0
  -27.2020  -28.7065   20.7074 C   0  0  0  0  0  0
  -26.0670  -26.9304   19.4977 C   0  0  0  0  0  0
  -24.8747  -27.6813   19.5089 C   0  0  0  0  0  0
  -23.6116  -29.8156   20.1643 C   0  0  0  0  0  0
  -25.4116  -36.3108   24.0333 C   0  0  1  0  0  0
  -20.5855  -28.3678   23.1329 C   0  0  2  0  0  0
  -20.6757  -26.9412   22.5443 C   0  0  0  0  0  0
  -19.5755  -26.6395   21.5225 C   0  0  0  0  0  0
  -18.1916  -26.7947   22.1604 C   0  0  0  0  0  0
  -19.1518  -28.8851   23.2904 C   0  0  0  0  0  0
  -18.9446  -30.1454   23.8919 C   0  0  0  0  0  0
  -17.6450  -30.6598   24.0573 C   0  0  0  0  0  0
  -25.9042  -34.9477   23.5117 C   0  0  0  0  0  0
  -16.5338  -29.9106   23.6333 C   0  0  0  0  0  0
  -16.7255  -28.6526   23.0345 C   0  0  0  0  0  0
  -26.4450  -31.6612   25.0724 C   0  0  0  0  0  0
  -25.3711  -31.3765   26.1480 C   0  0  0  0  0  0
  -27.0234  -30.3030   24.6117 C   0  0  0  0  0  0
  -27.6052  -32.4324   25.7460 C   0  0  0  0  0  0
  -27.5596  -37.1799   24.8447 C   0  0  0  0  0  0
  -21.4128  -29.3032   22.3725 N   0  0  0  0  0  0
  -26.4292  -37.3800   23.9412 N   0  0  0  0  0  0
  -24.6668  -31.0767   22.0989 N   0  0  0  0  0  0
  -23.4167  -28.8202   23.3045 O   0  0  0  0  0  0
  -28.4489  -26.7448   20.1082 O   0  0  0  0  0  0
  -26.5604  -34.8926   22.4679 O   0  0  0  0  0  0
  -23.5331  -32.1421   23.7487 O   0  0  0  0  0  0
  -29.6273  -19.0695   19.9704 C   0  0  0  0  0  0
  -30.6273  -17.5621   22.0960 C   0  0  0  0  0  0
  -29.5554  -17.6593   19.9161 C   0  0  0  0  0  0
  -30.0640  -16.8861   20.9925 C   0  0  0  0  0  0
  -30.1604  -19.7536   21.0876 C   0  0  0  0  0  0
  -30.6790  -18.9747   22.1660 C   0  0  0  0  0  0
  -29.9265  -16.6628   17.6019 C   0  0  0  0  0  0
  -30.8893  -20.7880   23.7522 C   0  0  0  0  0  0
  -28.9104  -17.0295   18.6898 C   0  0  0  0  0  0
  -28.2532  -24.2433   19.9887 C   0  0  0  0  0  0
  -29.4591  -23.3490   20.3869 C   0  0  0  0  0  0
  -28.6355  -25.5777   19.2954 C   0  0  0  0  0  0
  -29.0769  -21.8957   20.7593 C   0  0  0  0  0  0
  -29.8805  -15.4707   21.0646 N   0  0  0  0  0  0
  -31.2464  -19.4825   23.3176 O   0  0  0  0  0  0
  -30.2513  -21.1360   21.0869 O   0  0  0  0  0  0
  -31.4750  -12.4445   19.1076 H   0  0  0  0  0  0
  -30.3579  -11.3034   19.8027 H   0  0  0  0  0  0
  -29.7403  -11.7922   17.4170 H   0  0  0  0  0  0
  -29.6484  -13.4988   17.7657 H   0  0  0  0  0  0
  -27.8395  -11.2948   18.8134 H   0  0  0  0  0  0
  -27.3617  -12.6188   17.7872 H   0  0  0  0  0  0
  -27.6978  -14.2269   19.5793 H   0  0  0  0  0  0
  -28.6950  -11.9173   21.3111 H   0  0  0  0  0  0
  -28.4630  -13.5367   21.8846 H   0  0  0  0  0  0
  -25.2744   -9.5675   22.4748 H   0  0  0  0  0  0
  -23.9987   -7.4623   22.7468 H   0  0  0  0  0  0
  -21.0805   -8.8757   19.8967 H   0  0  0  0  0  0
  -22.3658  -10.9657   19.6165 H   0  0  0  0  0  0
  -21.1991   -7.6136   23.9724 H   0  0  0  0  0  0
  -21.1477   -6.0502   25.9083 H   0  0  0  0  0  0
  -22.0597   -2.7595   23.2851 H   0  0  0  0  0  0
  -22.4071  -11.9902   22.4794 H   0  0  0  0  0  0
  -21.1125  -13.1320   22.2620 H   0  0  0  0  0  0
  -24.6652  -15.8337   20.5187 H   0  0  0  0  0  0
  -26.2886  -15.6287   20.1018 H   0  0  0  0  0  0
  -26.7113  -32.5517   23.1160 H   0  0  0  0  0  0
  -25.0069  -33.9794   25.0469 H   0  0  0  0  0  0
  -22.6928  -31.3050   21.4068 H   0  0  0  0  0  0
  -23.3759  -35.9640   23.3292 H   0  0  0  0  0  0
  -24.3599  -36.8929   22.2052 H   0  0  0  0  0  0
  -23.7227  -37.6508   23.6655 H   0  0  0  0  0  0
  -26.0484  -31.5951   20.5971 H   0  0  0  0  0  0
  -26.8165  -30.8793   21.9862 H   0  0  0  0  0  0
  -28.0941  -29.1011   21.1735 H   0  0  0  0  0  0
  -26.0463  -25.9572   19.0298 H   0  0  0  0  0  0
  -23.9841  -27.2764   19.0483 H   0  0  0  0  0  0
  -23.7175  -30.5871   19.4016 H   0  0  0  0  0  0
  -22.7366  -29.2325   19.8705 H   0  0  0  0  0  0
  -25.1299  -36.1970   25.0828 H   0  0  0  0  0  0
  -20.9949  -28.3255   24.1450 H   0  0  0  0  0  0
  -20.5654  -26.2293   23.3639 H   0  0  0  0  0  0
  -21.6638  -26.7455   22.1246 H   0  0  0  0  0  0
  -19.6918  -25.6308   21.1257 H   0  0  0  0  0  0
  -19.6724  -27.3201   20.6760 H   0  0  0  0  0  0
  -17.4215  -26.6730   21.3975 H   0  0  0  0  0  0
  -18.0275  -26.0074   22.8974 H   0  0  0  0  0  0
  -19.7926  -30.7257   24.2303 H   0  0  0  0  0  0
  -17.5012  -31.6281   24.5169 H   0  0  0  0  0  0
  -15.5341  -30.3016   23.7657 H   0  0  0  0  0  0
  -15.8651  -28.0855   22.7049 H   0  0  0  0  0  0
  -24.5967  -30.6981   25.7885 H   0  0  0  0  0  0
  -24.8796  -32.2926   26.4778 H   0  0  0  0  0  0
  -25.8087  -30.9118   27.0326 H   0  0  0  0  0  0
  -26.2763  -29.6843   24.1133 H   0  0  0  0  0  0
  -27.3912  -29.7232   25.4590 H   0  0  0  0  0  0
  -27.8657  -30.4299   23.9310 H   0  0  0  0  0  0
  -27.2689  -33.3624   26.2059 H   0  0  0  0  0  0
  -28.3841  -32.6879   25.0263 H   0  0  0  0  0  0
  -28.0736  -31.8426   26.5349 H   0  0  0  0  0  0
  -28.2612  -38.0099   24.7520 H   0  0  0  0  0  0
  -28.1087  -36.2642   24.6224 H   0  0  0  0  0  0
  -27.2337  -37.1390   25.8853 H   0  0  0  0  0  0
  -20.9292  -29.8746   21.6940 H   0  0  0  0  0  0
  -26.0181  -38.2873   24.1445 H   0  0  0  0  0  0
  -29.2707  -19.6313   19.1198 H   0  0  0  0  0  0
  -30.9987  -16.9864   22.9322 H   0  0  0  0  0  0
  -29.4248  -16.2278   16.7365 H   0  0  0  0  0  0
  -30.6540  -15.9360   17.9602 H   0  0  0  0  0  0
  -30.4748  -17.5415   17.2613 H   0  0  0  0  0  0
  -31.1285  -20.8896   24.8108 H   0  0  0  0  0  0
  -29.8205  -20.9778   23.6450 H   0  0  0  0  0  0
  -31.4533  -21.5541   23.2198 H   0  0  0  0  0  0
  -28.1771  -17.7246   18.2769 H   0  0  0  0  0  0
  -28.3371  -16.1558   18.9795 H   0  0  0  0  0  0
  -27.6214  -24.4357   20.8561 H   0  0  0  0  0  0
  -27.6310  -23.6793   19.2926 H   0  0  0  0  0  0
  -29.9971  -23.8135   21.2136 H   0  0  0  0  0  0
  -30.1614  -23.3045   19.5539 H   0  0  0  0  0  0
  -28.1240  -25.6805   18.3374 H   0  0  0  0  0  0
  -29.6920  -25.5510   19.0264 H   0  0  0  0  0  0
  -28.5116  -21.4603   19.9370 H   0  0  0  0  0  0
  -28.4120  -21.8984   21.6244 H   0  0  0  0  0  0
  -28.9718  -15.1619   21.3745 H   0  0  0  0  0  0
  1 25  1  0  0  0
  1 30  2  0  0  0
  1 84  1  0  0  0
  2  3  1  0  0  0
  2 25  1  0  0  0
  2 87  1  0  0  0
  2 88  1  0  0  0
  3  4  1  0  0  0
  3 89  1  0  0  0
  3 90  1  0  0  0
  4  5  1  0  0  0
  4 91  1  0  0  0
  4 92  1  0  0  0
  5  6  1  0  0  0
  5 26  1  0  0  0
  5 93  1  0  0  0
  6 25  1  0  0  0
  6 94  1  0  0  0
  6 95  1  0  0  0
  7  8  2  0  0  0
  7 26  1  0  0  0
  7 29  1  0  0  0
  8  9  1  0  0  0
  8 22  1  0  0  0
  9 10  1  0  0  0
  9 27  2  0  0  0
 10 11  2  0  0  0
 10 15  1  0  0  0
 11 12  1  0  0  0
 11 96  1  0  0  0
 12 13  2  0  0  0
 12 97  1  0  0  0
 13 14  1  0  0  0
 13 31  1  0  0  0
 14 15  2  0  0  0
 14 98  1  0  0  0
 15 99  1  0  0  0
 16 17  2  0  0  0
 16 21  1  0  0  0
 16 31  1  0  0  0
 17 18  1  0  0  0
 17100  1  0  0  0
 18 19  2  0  0  0
 18101  1  0  0  0
 19 20  1  0  0  0
 19 24  1  0  0  0
 20 21  2  0  0  0
 20102  1  0  0  0
 21 23  1  0  0  0
 22 28  1  0  0  0
 22 32  2  0  0  0
 26 27  1  0  0  0
 28103  1  0  0  0
 28104  1  0  0  0
 29105  1  0  0  0
 29106  1  0  0  0
 33 34  1  0  0  0
 33 66  1  0  0  0
 33 70  2  0  0  0
 34 36  1  0  0  0
 34 59  1  0  0  0
 34107  1  0  0  0
 35 44  2  0  0  0
 35 45  1  0  0  0
 35 68  1  0  0  0
 36 56  1  0  0  0
 36108  1  0  0  0
 37 39  1  0  0  0
 37 47  1  0  0  0
 37 66  1  0  0  0
 37109  1  0  0  0
 38 43  2  0  0  0
 38 46  1  0  0  0
 38 47  1  0  0  0
 39 64  1  0  0  0
 39 67  2  0  0  0
 40 52  1  0  0  0
 40 53  2  0  0  0
 40 58  1  0  0  0
 41110  1  0  0  0
 41111  1  0  0  0
 41112  1  0  0  0
 41 48  1  0  0  0
 42 43  1  0  0  0
 42 66  1  0  0  0
 42113  1  0  0  0
 42114  1  0  0  0
 43 44  1  0  0  0
 44115  1  0  0  0
 45 46  2  0  0  0
 45116  1  0  0  0
 46117  1  0  0  0
 47118  1  0  0  0
 47119  1  0  0  0
 48 56  1  0  0  0
 48 65  1  0  0  0
 48120  1  0  0  0
 49 50  1  0  0  0
 49 53  1  0  0  0
 49 64  1  0  0  0
 49121  1  0  0  0
 50 51  1  0  0  0
 50122  1  0  0  0
 50123  1  0  0  0
 51 52  1  0  0  0
 51124  1  0  0  0
 51125  1  0  0  0
 52126  1  0  0  0
 52127  1  0  0  0
 53 54  1  0  0  0
 54 55  2  0  0  0
 54128  1  0  0  0
 55 57  1  0  0  0
 55129  1  0  0  0
 56 69  2  0  0  0
 57 58  2  0  0  0
 57130  1  0  0  0
 58131  1  0  0  0
 59 60  1  0  0  0
 59 61  1  0  0  0
 59 62  1  0  0  0
 60132  1  0  0  0
 60133  1  0  0  0
 60134  1  0  0  0
 61135  1  0  0  0
 61136  1  0  0  0
 61137  1  0  0  0
 62138  1  0  0  0
 62139  1  0  0  0
 62140  1  0  0  0
 63 65  1  0  0  0
 63141  1  0  0  0
 63142  1  0  0  0
 63143  1  0  0  0
 64144  1  0  0  0
 65145  1  0  0  0
 68 82  1  0  0  0
 71 73  2  0  0  0
 71 75  1  0  0  0
 71146  1  0  0  0
 72 74  2  0  0  0
 72 76  1  0  0  0
 72147  1  0  0  0
 73 74  1  0  0  0
 73 79  1  0  0  0
 74 84  1  0  0  0
 75 76  2  0  0  0
 75 86  1  0  0  0
 76 85  1  0  0  0
 77 79  1  0  0  0
 77148  1  0  0  0
 77149  1  0  0  0
 77150  1  0  0  0
 78 85  1  0  0  0
 78151  1  0  0  0
 78152  1  0  0  0
 78153  1  0  0  0
 79154  1  0  0  0
 79155  1  0  0  0
 80 81  1  0  0  0
 80 82  1  0  0  0
 80156  1  0  0  0
 80157  1  0  0  0
 81 83  1  0  0  0
 81158  1  0  0  0
 81159  1  0  0  0
 82160  1  0  0  0
 82161  1  0  0  0
 83 86  1  0  0  0
 83162  1  0  0  0
 83163  1  0  0  0
 84164  1  0  0  0
M  ISO  4   1 100  68 101  82 101  84 100
M  END
> <chiral flag>
0

> <version>
0

> <s_m_source_file>
/data/baiqing/PycharmProjects/Reinvent-master-3.2/result/LINK_invent/BTK/process_docking_weight1_custom_product_contain_oxygen_bond_distance_aromatic_linkinvent_7_9_3/rearranged_h_0103.sdf

> <i_m_source_file_index>
80

> <r_mmod_Potential_Energy-OPLS-2005>
-1.47454607486725

> <r_mmod_Stretch_Energy-OPLS-2005>
40.3942794799805

> <r_mmod_Bend_Energy-OPLS-2005>
118.563278198242

> <r_mmod_Torsional_Energy-OPLS-2005>
266.503967285156

> <r_mmod_Improper_Torsional_Energy-OPLS-2005>
4.42115688323975

> <r_mmod_Van_der_Waal_Energy-OPLS-2005>
151.035552978516

> <r_mmod_Electrostatic_Energy-OPLS-2005>
-380.750305175781

> <r_mmod_Solvation_Energy-OPLS-2005>
-216.387344360352

> <b_mmod_Minimization_Converged-OPLS-2005>
0

> <r_mmod_RMS_Derivative-OPLS-2005>
1.31055808067322

$$$$
80
                    3D
 Structure written by MMmdl.
159167  0  0  1  0            999 V2000
  -31.4463  -14.3853   21.1001 C   0  0  0  0  0  0
  -31.1722  -13.1652   18.8632 C   0  0  0  0  0  0
  -29.6591  -13.2128   17.3191 C   0  0  0  0  0  0
  -27.5784  -13.2640   17.9336 C   0  0  0  0  0  0
  -27.2016  -13.3685   20.0442 C   0  0  2  0  0  0
  -28.8672  -13.1421   21.4649 C   0  0  0  0  0  0
  -24.9740  -13.8382   20.6923 C   0  0  0  0  0  0
  -23.9722  -13.0054   20.9878 C   0  0  0  0  0  0
  -24.4947  -11.6741   20.9203 C   0  0  0  0  0  0
  -23.8289  -10.4021   21.0562 C   0  0  0  0  0  0
  -24.3195   -9.4061   21.9243 C   0  0  0  0  0  0
  -23.6104   -8.1990   22.0703 C   0  0  0  0  0  0
  -22.4095   -7.9988   21.3479 C   0  0  0  0  0  0
  -21.9567   -8.9843   20.4550 C   0  0  0  0  0  0
  -22.6650  -10.1814   20.3040 C   0  0  0  0  0  0
  -21.6765   -6.0596   22.5315 C   0  0  0  0  0  0
  -21.3928   -6.5565   23.8222 C   0  0  0  0  0  0
  -21.3619   -5.6753   24.9208 C   0  0  0  0  0  0
  -21.6046   -4.3015   24.7282 C   0  0  0  0  0  0
  -21.8845   -3.8072   23.4419 C   0  0  0  0  0  0
  -21.9174   -4.6853   22.3456 C   0  0  0  0  0  0
  -22.5902  -13.4696   21.2277 C   0  0  0  0  0  0
  -22.1670   -4.2054   21.1032 F   0  0  0  0  0  0
  -21.5651   -3.4518   25.7805 F   0  0  0  0  0  0
  -30.6838  -13.3169   20.7549 N   0  0  0  0  0  0
  -26.0037  -12.9716   20.4679 N   0  0  0  0  0  0
  -25.7742  -11.6685   20.6256 N   0  0  0  0  0  0
  -21.8761  -12.7719   22.0929 N   0  0  0  0  0  0
  -25.0598  -15.2384   20.5839 N   0  0  0  0  0  0
  -32.5165  -14.5734   20.5421 O   0  0  0  0  0  0
  -21.6504   -6.8615   21.4225 O   0  0  0  0  0  0
  -22.1749  -14.5038   20.7038 O   0  0  0  0  0  0
  -24.6538  -31.8329   23.1846 C   0  0  0  0  0  0
  -25.9284  -32.4618   23.8232 C   0  0  1  0  0  0
  -27.1940  -27.0722   20.0392 C   0  0  0  0  0  0
  -25.5985  -33.8430   24.2146 N   0  0  0  0  0  0
  -23.4548  -30.4604   21.5343 C   0  0  2  0  0  0
  -24.8905  -28.8818   20.1006 C   0  0  0  0  0  0
  -22.7588  -29.4502   22.4821 C   0  0  0  0  0  0
  -18.0303  -28.1373   22.8466 C   0  0  0  0  0  0
  -24.1487  -36.7225   23.2629 C   0  0  0  0  0  0
  -26.0211  -30.6756   21.3950 C   0  0  0  0  0  0
  -26.0832  -29.2857   20.7169 C   0  0  0  0  0  0
  -27.2345  -28.3930   20.6781 C   0  0  0  0  0  0
  -25.9646  -26.7953   19.4059 C   0  0  0  0  0  0
  -24.8461  -27.6490   19.4403 C   0  0  0  0  0  0
  -23.6777  -29.7965   20.1527 C   0  0  0  0  0  0
  -25.4109  -36.2978   24.0311 C   0  0  1  0  0  0
  -20.5921  -28.3703   23.1204 C   0  0  2  0  0  0
  -20.6761  -26.9396   22.5377 C   0  0  0  0  0  0
  -19.5744  -26.6358   21.5170 C   0  0  0  0  0  0
  -18.1938  -26.7907   22.1609 C   0  0  0  0  0  0
  -19.1565  -28.8852   23.2829 C   0  0  0  0  0  0
  -18.9484  -30.1446   23.8852 C   0  0  0  0  0  0
  -17.6480  -30.6568   24.0541 C   0  0  0  0  0  0
  -25.9093  -34.9361   23.5045 C   0  0  0  0  0  0
  -16.5365  -29.9060   23.6327 C   0  0  0  0  0  0
  -16.7288  -28.6478   23.0354 C   0  0  0  0  0  0
  -26.4567  -31.6517   25.0716 C   0  0  0  0  0  0
  -25.3737  -31.3760   26.1412 C   0  0  0  0  0  0
  -27.0426  -30.2869   24.6408 C   0  0  0  0  0  0
  -27.6072  -32.4299   25.7518 C   0  0  0  0  0  0
  -27.5592  -37.1732   24.8439 C   0  0  0  0  0  0
  -21.4270  -29.3040   22.3586 N   0  0  0  0  0  0
  -26.4245  -37.3731   23.9463 N   0  0  0  0  0  0
  -24.7315  -31.0109   22.0924 N   0  0  0  0  0  0
  -23.4211  -28.8018   23.2964 O   0  0  0  0  0  0
  -28.2116  -26.0245   20.0054 O   0  0  0  0  0  0
  -26.5683  -34.8890   22.4634 O   0  0  0  0  0  0
  -23.5642  -32.1244   23.7047 O   0  0  0  0  0  0
  -29.1178  -15.7984   18.4544 C   0  0  0  0  0  0
  -28.9230  -15.4021   20.4311 C   0  0  0  0  0  0
  -30.1966  -17.2524   20.1085 C   0  0  0  0  0  0
  -29.1576  -14.4662   19.3221 C   0  0  0  0  0  0
  -29.4041  -17.2862   18.9285 C   0  0  0  0  0  0
  -29.9971  -16.1162   20.8846 C   0  0  0  0  0  0
  -29.1431  -20.0485   19.1549 C   0  0  0  0  0  0
  -31.8065  -16.3267   22.5025 C   0  0  0  0  0  0
  -28.4455  -21.5462   18.8171 C   0  0  0  0  0  0
  -28.7667  -23.0524   19.6126 C   0  0  0  0  0  0
  -27.9517  -24.5601   19.4285 C   0  0  0  0  0  0
  -29.1076  -12.4069   19.3416 N   0  0  0  0  0  0
  -28.9721  -18.7464   18.5128 N   0  0  0  0  0  0
  -30.9091  -15.4582   21.7310 N   0  0  0  0  0  0
  -29.9329  -20.1378   20.0933 O   0  0  0  0  0  0
  -31.8870  -13.9060   18.5058 H   0  0  0  0  0  0
  -31.7272  -12.2295   18.7682 H   0  0  0  0  0  0
  -29.7993  -12.3381   16.6800 H   0  0  0  0  0  0
  -29.8786  -14.0286   16.6326 H   0  0  0  0  0  0
  -27.0971  -12.3576   17.5627 H   0  0  0  0  0  0
  -27.0548  -14.0740   17.4258 H   0  0  0  0  0  0
  -26.9822  -14.3995   19.9200 H   0  0  0  0  0  0
  -28.8105  -12.1244   21.8582 H   0  0  0  0  0  0
  -28.7532  -13.7114   22.3910 H   0  0  0  0  0  0
  -25.2281   -9.5756   22.4848 H   0  0  0  0  0  0
  -23.9909   -7.4389   22.7372 H   0  0  0  0  0  0
  -21.0529   -8.8206   19.8846 H   0  0  0  0  0  0
  -22.2984  -10.9368   19.6212 H   0  0  0  0  0  0
  -21.1870   -7.6064   23.9694 H   0  0  0  0  0  0
  -21.1419   -6.0488   25.9100 H   0  0  0  0  0  0
  -22.0669   -2.7537   23.2945 H   0  0  0  0  0  0
  -22.2560  -11.9508   22.5406 H   0  0  0  0  0  0
  -20.9337  -13.0607   22.3166 H   0  0  0  0  0  0
  -24.2431  -15.8318   20.6817 H   0  0  0  0  0  0
  -25.8896  -15.7514   20.3115 H   0  0  0  0  0  0
  -26.7332  -32.5180   23.0935 H   0  0  0  0  0  0
  -25.0063  -33.9511   25.0243 H   0  0  0  0  0  0
  -22.7629  -31.2915   21.3830 H   0  0  0  0  0  0
  -23.3788  -35.9512   23.3146 H   0  0  0  0  0  0
  -24.3593  -36.9009   22.2071 H   0  0  0  0  0  0
  -23.7175  -37.6345   23.6767 H   0  0  0  0  0  0
  -26.1949  -31.4354   20.6315 H   0  0  0  0  0  0
  -26.8848  -30.7132   22.0479 H   0  0  0  0  0  0
  -28.1466  -28.6948   21.1757 H   0  0  0  0  0  0
  -25.8196  -25.8735   18.8666 H   0  0  0  0  0  0
  -23.9382  -27.3382   18.9402 H   0  0  0  0  0  0
  -23.8186  -30.5716   19.3973 H   0  0  0  0  0  0
  -22.7865  -29.2485   19.8406 H   0  0  0  0  0  0
  -25.1283  -36.1756   25.0792 H   0  0  0  0  0  0
  -21.0024  -28.3274   24.1321 H   0  0  0  0  0  0
  -20.5568  -26.2323   23.3605 H   0  0  0  0  0  0
  -21.6642  -26.7329   22.1234 H   0  0  0  0  0  0
  -19.6897  -25.6262   21.1216 H   0  0  0  0  0  0
  -19.6675  -27.3149   20.6685 H   0  0  0  0  0  0
  -17.4186  -26.6616   21.4034 H   0  0  0  0  0  0
  -18.0378  -26.0050   22.9018 H   0  0  0  0  0  0
  -19.7962  -30.7265   24.2206 H   0  0  0  0  0  0
  -17.5034  -31.6254   24.5149 H   0  0  0  0  0  0
  -15.5366  -30.2950   23.7671 H   0  0  0  0  0  0
  -15.8687  -28.0774   22.7105 H   0  0  0  0  0  0
  -24.5944  -30.7055   25.7783 H   0  0  0  0  0  0
  -24.8906  -32.2955   26.4716 H   0  0  0  0  0  0
  -25.8029  -30.9038   27.0262 H   0  0  0  0  0  0
  -26.3075  -29.6562   24.1397 H   0  0  0  0  0  0
  -27.3918  -29.7215   25.5061 H   0  0  0  0  0  0
  -27.9042  -30.4004   23.9829 H   0  0  0  0  0  0
  -27.2660  -33.3668   26.1939 H   0  0  0  0  0  0
  -28.3992  -32.6728   25.0424 H   0  0  0  0  0  0
  -28.0612  -31.8499   26.5564 H   0  0  0  0  0  0
  -28.2469  -38.0167   24.7681 H   0  0  0  0  0  0
  -28.1231  -36.2712   24.6008 H   0  0  0  0  0  0
  -27.2355  -37.1070   25.8842 H   0  0  0  0  0  0
  -20.9470  -29.8819   21.6828 H   0  0  0  0  0  0
  -26.0081  -38.2758   24.1597 H   0  0  0  0  0  0
  -28.7919  -15.7135   17.4285 H   0  0  0  0  0  0
  -28.2442  -15.2860   21.2603 H   0  0  0  0  0  0
  -30.8578  -18.0372   20.4386 H   0  0  0  0  0  0
  -31.2494  -17.1295   22.9841 H   0  0  0  0  0  0
  -32.5541  -16.7905   21.8529 H   0  0  0  0  0  0
  -32.3377  -15.7721   23.2787 H   0  0  0  0  0  0
  -27.3731  -21.3816   18.9132 H   0  0  0  0  0  0
  -28.6057  -21.7168   17.7519 H   0  0  0  0  0  0
  -29.8266  -23.2560   19.4509 H   0  0  0  0  0  0
  -28.7130  -22.8267   20.6785 H   0  0  0  0  0  0
  -26.9389  -24.3068   19.7342 H   0  0  0  0  0  0
  -27.8946  -24.7158   18.3508 H   0  0  0  0  0  0
  -29.3829  -11.9906   18.4628 H   0  0  0  0  0  0
  -29.6420  -12.0240   20.1127 H   0  0  0  0  0  0
  -28.3535  -18.7842   17.7128 H   0  0  0  0  0  0
  1 25  1  0  0  0
  1 30  2  0  0  0
  1 84  1  0  0  0
  2  3  1  0  0  0
  2 25  1  0  0  0
  2 86  1  0  0  0
  2 87  1  0  0  0
  3  4  1  0  0  0
  3 88  1  0  0  0
  3 89  1  0  0  0
  4  5  1  0  0  0
  4 90  1  0  0  0
  4 91  1  0  0  0
  5  6  1  0  0  0
  5 26  1  0  0  0
  5 92  1  0  0  0
  6 25  1  0  0  0
  6 93  1  0  0  0
  6 94  1  0  0  0
  7  8  2  0  0  0
  7 26  1  0  0  0
  7 29  1  0  0  0
  8  9  1  0  0  0
  8 22  1  0  0  0
  9 10  1  0  0  0
  9 27  2  0  0  0
 10 11  2  0  0  0
 10 15  1  0  0  0
 11 12  1  0  0  0
 11 95  1  0  0  0
 12 13  2  0  0  0
 12 96  1  0  0  0
 13 14  1  0  0  0
 13 31  1  0  0  0
 14 15  2  0  0  0
 14 97  1  0  0  0
 15 98  1  0  0  0
 16 17  2  0  0  0
 16 21  1  0  0  0
 16 31  1  0  0  0
 17 18  1  0  0  0
 17 99  1  0  0  0
 18 19  2  0  0  0
 18100  1  0  0  0
 19 20  1  0  0  0
 19 24  1  0  0  0
 20 21  2  0  0  0
 20101  1  0  0  0
 21 23  1  0  0  0
 22 28  1  0  0  0
 22 32  2  0  0  0
 26 27  1  0  0  0
 28102  1  0  0  0
 28103  1  0  0  0
 29104  1  0  0  0
 29105  1  0  0  0
 33 34  1  0  0  0
 33 66  1  0  0  0
 33 70  2  0  0  0
 34 36  1  0  0  0
 34 59  1  0  0  0
 34106  1  0  0  0
 35 44  2  0  0  0
 35 45  1  0  0  0
 35 68  1  0  0  0
 36 56  1  0  0  0
 36107  1  0  0  0
 37 39  1  0  0  0
 37 47  1  0  0  0
 37 66  1  0  0  0
 37108  1  0  0  0
 38 43  2  0  0  0
 38 46  1  0  0  0
 38 47  1  0  0  0
 39 64  1  0  0  0
 39 67  2  0  0  0
 40 52  1  0  0  0
 40 53  2  0  0  0
 40 58  1  0  0  0
 41109  1  0  0  0
 41110  1  0  0  0
 41111  1  0  0  0
 41 48  1  0  0  0
 42 43  1  0  0  0
 42 66  1  0  0  0
 42112  1  0  0  0
 42113  1  0  0  0
 43 44  1  0  0  0
 44114  1  0  0  0
 45 46  2  0  0  0
 45115  1  0  0  0
 46116  1  0  0  0
 47117  1  0  0  0
 47118  1  0  0  0
 48 56  1  0  0  0
 48 65  1  0  0  0
 48119  1  0  0  0
 49 50  1  0  0  0
 49 53  1  0  0  0
 49 64  1  0  0  0
 49120  1  0  0  0
 50 51  1  0  0  0
 50121  1  0  0  0
 50122  1  0  0  0
 51 52  1  0  0  0
 51123  1  0  0  0
 51124  1  0  0  0
 52125  1  0  0  0
 52126  1  0  0  0
 53 54  1  0  0  0
 54 55  2  0  0  0
 54127  1  0  0  0
 55 57  1  0  0  0
 55128  1  0  0  0
 56 69  2  0  0  0
 57 58  2  0  0  0
 57129  1  0  0  0
 58130  1  0  0  0
 59 60  1  0  0  0
 59 61  1  0  0  0
 59 62  1  0  0  0
 60131  1  0  0  0
 60132  1  0  0  0
 60133  1  0  0  0
 61134  1  0  0  0
 61135  1  0  0  0
 61136  1  0  0  0
 62137  1  0  0  0
 62138  1  0  0  0
 62139  1  0  0  0
 63 65  1  0  0  0
 63140  1  0  0  0
 63141  1  0  0  0
 63142  1  0  0  0
 64143  1  0  0  0
 65144  1  0  0  0
 68 81  1  0  0  0
 71 74  2  0  0  0
 71 75  1  0  0  0
 71145  1  0  0  0
 72 74  1  0  0  0
 72 76  2  0  0  0
 72146  1  0  0  0
 73 75  2  0  0  0
 73 76  1  0  0  0
 73147  1  0  0  0
 74 82  1  0  0  0
 75 83  1  0  0  0
 76 84  1  0  0  0
 77 79  1  0  0  0
 77 83  1  0  0  0
 77 85  2  0  0  0
 78 84  1  0  0  0
 78148  1  0  0  0
 78149  1  0  0  0
 78150  1  0  0  0
 79 80  1  0  0  0
 79151  1  0  0  0
 79152  1  0  0  0
 80 81  1  0  0  0
 80153  1  0  0  0
 80154  1  0  0  0
 81155  1  0  0  0
 81156  1  0  0  0
 82157  1  0  0  0
 82158  1  0  0  0
 83159  1  0  0  0
M  ISO  4   1 100  68 101  81 101  84 100
M  END
> <chiral flag>
0

> <version>
0

> <s_m_source_file>
/data/baiqing/PycharmProjects/Reinvent-master-3.2/result/LINK_invent/BTK/process_docking_weight1_custom_product_contain_oxygen_bond_distance_aromatic_linkinvent_7_9_3/rearranged_h_0103.sdf

> <i_m_source_file_index>
81

> <r_mmod_Potential_Energy-OPLS-2005>
7870.22265625

> <r_mmod_Stretch_Energy-OPLS-2005>
3962.99926757812

> <r_mmod_Bend_Energy-OPLS-2005>
652.593322753906

> <r_mmod_Torsional_Energy-OPLS-2005>
591.159606933594

> <r_mmod_Improper_Torsional_Energy-OPLS-2005>
35.0039978027344

> <r_mmod_Van_der_Waal_Energy-OPLS-2005>
2315.65942382812

> <r_mmod_Electrostatic_Energy-OPLS-2005>
-308.52685546875

> <r_mmod_Solvation_Energy-OPLS-2005>
-231.682250976562

> <b_mmod_Minimization_Converged-OPLS-2005>
0

> <r_mmod_RMS_Derivative-OPLS-2005>
3.9041383266449

$$$$
81
                    3D
 Structure written by MMmdl.
154162  0  0  1  0            999 V2000
  -30.5978  -14.6604   20.4917 C   0  0  0  0  0  0
  -30.4405  -12.4040   19.4636 C   0  0  0  0  0  0
  -29.5154  -12.5110   18.2311 C   0  0  0  0  0  0
  -28.0353  -12.3449   18.6354 C   0  0  0  0  0  0
  -27.6513  -13.2155   19.8618 C   0  0  2  0  0  0
  -28.6912  -13.0712   20.9944 C   0  0  0  0  0  0
  -25.2558  -13.8153   20.5692 C   0  0  0  0  0  0
  -24.1815  -13.0435   20.9190 C   0  0  0  0  0  0
  -24.6367  -11.6907   20.8708 C   0  0  0  0  0  0
  -23.9028  -10.4291   21.0379 C   0  0  0  0  0  0
  -24.3580   -9.4212   21.9163 C   0  0  0  0  0  0
  -23.6266   -8.2248   22.0746 C   0  0  0  0  0  0
  -22.4246   -8.0265   21.3545 C   0  0  0  0  0  0
  -21.9871   -9.0244   20.4659 C   0  0  0  0  0  0
  -22.7188  -10.2129   20.3052 C   0  0  0  0  0  0
  -21.6857   -6.0708   22.5270 C   0  0  0  0  0  0
  -21.4020   -6.5621   23.8202 C   0  0  0  0  0  0
  -21.3660   -5.6779   24.9168 C   0  0  0  0  0  0
  -21.6049   -4.3045   24.7224 C   0  0  0  0  0  0
  -21.8819   -3.8132   23.4348 C   0  0  0  0  0  0
  -21.9198   -4.6939   22.3399 C   0  0  0  0  0  0
  -22.7845  -13.5253   21.1836 C   0  0  0  0  0  0
  -22.1668   -4.2126   21.0977 F   0  0  0  0  0  0
  -21.5624   -3.4531   25.7739 F   0  0  0  0  0  0
  -30.0047  -13.4255   20.4357 N   0  0  0  0  0  0
  -26.2965  -12.9334   20.3286 N   0  0  0  0  0  0
  -25.9291  -11.6489   20.5701 N   0  0  0  0  0  0
  -22.0470  -12.8280   22.0409 N   0  0  0  0  0  0
  -25.4293  -15.1876   20.4119 N   0  0  0  0  0  0
  -31.7631  -14.8181   20.1138 O   0  0  0  0  0  0
  -21.6634   -6.8849   21.4231 O   0  0  0  0  0  0
  -22.3548  -14.5551   20.6656 O   0  0  0  0  0  0
  -24.6272  -31.8593   23.2015 C   0  0  0  0  0  0
  -25.9117  -32.4771   23.8347 C   0  0  1  0  0  0
  -27.2228  -27.3134   20.1044 C   0  0  0  0  0  0
  -25.5928  -33.8573   24.2275 N   0  0  0  0  0  0
  -23.4201  -30.4835   21.5461 C   0  0  2  0  0  0
  -24.8662  -28.9430   20.1084 C   0  0  0  0  0  0
  -22.7482  -29.4608   22.4941 C   0  0  0  0  0  0
  -18.0285  -28.1381   22.8482 C   0  0  0  0  0  0
  -24.1487  -36.7299   23.2622 C   0  0  0  0  0  0
  -25.9621  -30.7868   21.3742 C   0  0  0  0  0  0
  -26.0359  -29.4135   20.7179 C   0  0  0  0  0  0
  -27.2167  -28.6091   20.7110 C   0  0  0  0  0  0
  -26.0269  -26.9050   19.4653 C   0  0  0  0  0  0
  -24.8650  -27.6946   19.4723 C   0  0  0  0  0  0
  -23.6331  -29.8206   20.1603 C   0  0  0  0  0  0
  -25.4097  -36.3075   24.0328 C   0  0  1  0  0  0
  -20.5880  -28.3674   23.1288 C   0  0  2  0  0  0
  -20.6769  -26.9398   22.5409 C   0  0  0  0  0  0
  -19.5744  -26.6374   21.5211 C   0  0  0  0  0  0
  -18.1927  -26.7919   22.1624 C   0  0  0  0  0  0
  -19.1534  -28.8849   23.2874 C   0  0  0  0  0  0
  -18.9458  -30.1456   23.8881 C   0  0  0  0  0  0
  -17.6456  -30.6583   24.0549 C   0  0  0  0  0  0
  -25.9050  -34.9448   23.5101 C   0  0  0  0  0  0
  -16.5346  -29.9079   23.6325 C   0  0  0  0  0  0
  -16.7265  -28.6495   23.0342 C   0  0  0  0  0  0
  -26.4497  -31.6575   25.0718 C   0  0  0  0  0  0
  -25.3750  -31.3774   26.1485 C   0  0  0  0  0  0
  -27.0265  -30.2968   24.6165 C   0  0  0  0  0  0
  -27.6104  -32.4268   25.7450 C   0  0  0  0  0  0
  -27.5603  -37.1743   24.8421 C   0  0  0  0  0  0
  -21.4192  -29.3030   22.3694 N   0  0  0  0  0  0
  -26.4256  -37.3789   23.9458 N   0  0  0  0  0  0
  -24.6884  -31.0603   22.0972 N   0  0  0  0  0  0
  -23.4207  -28.8131   23.3005 O   0  0  0  0  0  0
  -28.3307  -26.4459   20.1489 O   0  0  0  0  0  0
  -26.5617  -34.8922   22.4668 O   0  0  0  0  0  0
  -23.5433  -32.1395   23.7342 O   0  0  0  0  0  0
  -28.7665  -17.9960   21.0007 C   0  0  0  0  0  0
  -28.7813  -19.4147   20.8321 C   0  0  0  0  0  0
  -30.9529  -17.8449   20.0400 C   0  0  0  0  0  0
  -29.8556  -17.1625   20.6216 C   0  0  0  0  0  0
  -29.8908  -20.1021   20.2703 C   0  0  0  0  0  0
  -30.9817  -19.2616   19.8549 C   0  0  0  0  0  0
  -29.1791  -23.9531   20.2475 C   0  0  0  0  0  0
  -32.1092  -20.9188   18.5110 C   0  0  0  0  0  0
  -28.0531  -25.0044   19.9080 C   0  0  0  0  0  0
  -28.8165  -22.4072   20.2446 C   0  0  0  0  0  0
  -29.7755  -15.7091   20.8304 N   0  0  0  0  0  0
  -30.3278  -24.3296   20.5101 O   0  0  0  0  0  0
  -32.1436  -19.7206   19.2706 O   0  0  0  0  0  0
  -29.9777  -21.5114   20.1695 O   0  0  0  0  0  0
  -31.4827  -12.5352   19.1676 H   0  0  0  0  0  0
  -30.3788  -11.4097   19.9096 H   0  0  0  0  0  0
  -29.7892  -11.7595   17.4894 H   0  0  0  0  0  0
  -29.6580  -13.4800   17.7494 H   0  0  0  0  0  0
  -27.8727  -11.2912   18.8664 H   0  0  0  0  0  0
  -27.3874  -12.5750   17.7897 H   0  0  0  0  0  0
  -27.6689  -14.2505   19.5190 H   0  0  0  0  0  0
  -28.7077  -12.0458   21.3687 H   0  0  0  0  0  0
  -28.4293  -13.6939   21.8506 H   0  0  0  0  0  0
  -25.2720   -9.5704   22.4740 H   0  0  0  0  0  0
  -23.9985   -7.4641   22.7463 H   0  0  0  0  0  0
  -21.0799   -8.8756   19.8973 H   0  0  0  0  0  0
  -22.3620  -10.9663   19.6169 H   0  0  0  0  0  0
  -21.2014   -7.6124   23.9692 H   0  0  0  0  0  0
  -21.1484   -6.0514   25.9070 H   0  0  0  0  0  0
  -22.0599   -2.7595   23.2858 H   0  0  0  0  0  0
  -22.4074  -11.9967   22.4858 H   0  0  0  0  0  0
  -21.1090  -13.1347   22.2572 H   0  0  0  0  0  0
  -24.6619  -15.8409   20.5183 H   0  0  0  0  0  0
  -26.2674  -15.6205   20.0466 H   0  0  0  0  0  0
  -26.7183  -32.5440   23.1090 H   0  0  0  0  0  0
  -25.0071  -33.9710   25.0420 H   0  0  0  0  0  0
  -22.7120  -31.3025   21.4054 H   0  0  0  0  0  0
  -23.3777  -35.9591   23.3166 H   0  0  0  0  0  0
  -24.3624  -36.9043   22.2064 H   0  0  0  0  0  0
  -23.7184  -37.6443   23.6723 H   0  0  0  0  0  0
  -26.0925  -31.5465   20.6021 H   0  0  0  0  0  0
  -26.8434  -30.8388   22.0011 H   0  0  0  0  0  0
  -28.1108  -28.9628   21.2049 H   0  0  0  0  0  0
  -25.9505  -25.9586   18.9522 H   0  0  0  0  0  0
  -23.9731  -27.3328   18.9796 H   0  0  0  0  0  0
  -23.7442  -30.5959   19.4012 H   0  0  0  0  0  0
  -22.7539  -29.2459   19.8639 H   0  0  0  0  0  0
  -25.1254  -36.1898   25.0811 H   0  0  0  0  0  0
  -20.9969  -28.3244   24.1408 H   0  0  0  0  0  0
  -20.5666  -26.2279   23.3603 H   0  0  0  0  0  0
  -21.6639  -26.7422   22.1209 H   0  0  0  0  0  0
  -19.6895  -25.6282   21.1244 H   0  0  0  0  0  0
  -19.6676  -27.3175   20.6733 H   0  0  0  0  0  0
  -17.4191  -26.6657   21.4034 H   0  0  0  0  0  0
  -18.0323  -26.0070   22.9034 H   0  0  0  0  0  0
  -19.7943  -30.7279   24.2236 H   0  0  0  0  0  0
  -17.5011  -31.6264   24.5149 H   0  0  0  0  0  0
  -15.5342  -30.2965   23.7653 H   0  0  0  0  0  0
  -15.8673  -28.0803   22.7055 H   0  0  0  0  0  0
  -24.5791  -30.7278   25.7828 H   0  0  0  0  0  0
  -24.9115  -32.2985   26.5030 H   0  0  0  0  0  0
  -25.8066  -30.8818   27.0190 H   0  0  0  0  0  0
  -26.2781  -29.6754   24.1228 H   0  0  0  0  0  0
  -27.3965  -29.7211   25.4660 H   0  0  0  0  0  0
  -27.8684  -30.4207   23.9349 H   0  0  0  0  0  0
  -27.2783  -33.3602   26.2006 H   0  0  0  0  0  0
  -28.3914  -32.6753   25.0251 H   0  0  0  0  0  0
  -28.0755  -31.8381   26.5369 H   0  0  0  0  0  0
  -28.2485  -38.0173   24.7684 H   0  0  0  0  0  0
  -28.1229  -36.2728   24.5940 H   0  0  0  0  0  0
  -27.2383  -37.1034   25.8824 H   0  0  0  0  0  0
  -20.9363  -29.8779   21.6935 H   0  0  0  0  0  0
  -26.0129  -38.2828   24.1597 H   0  0  0  0  0  0
  -27.8867  -17.5514   21.4459 H   0  0  0  0  0  0
  -27.9225  -19.9752   21.1697 H   0  0  0  0  0  0
  -31.8116  -17.2816   19.7076 H   0  0  0  0  0  0
  -32.9301  -20.9046   17.7945 H   0  0  0  0  0  0
  -32.2498  -21.7888   19.1526 H   0  0  0  0  0  0
  -31.1852  -21.0265   17.9399 H   0  0  0  0  0  0
  -27.1682  -24.7111   20.4730 H   0  0  0  0  0  0
  -27.8166  -24.8710   18.8521 H   0  0  0  0  0  0
  -28.1651  -22.2085   19.3926 H   0  0  0  0  0  0
  -28.2417  -22.1935   21.1454 H   0  0  0  0  0  0
  -28.8899  -15.3935   21.1974 H   0  0  0  0  0  0
  1 25  1  0  0  0
  1 30  2  0  0  0
  1 81  1  0  0  0
  2  3  1  0  0  0
  2 25  1  0  0  0
  2 85  1  0  0  0
  2 86  1  0  0  0
  3  4  1  0  0  0
  3 87  1  0  0  0
  3 88  1  0  0  0
  4  5  1  0  0  0
  4 89  1  0  0  0
  4 90  1  0  0  0
  5  6  1  0  0  0
  5 26  1  0  0  0
  5 91  1  0  0  0
  6 25  1  0  0  0
  6 92  1  0  0  0
  6 93  1  0  0  0
  7  8  2  0  0  0
  7 26  1  0  0  0
  7 29  1  0  0  0
  8  9  1  0  0  0
  8 22  1  0  0  0
  9 10  1  0  0  0
  9 27  2  0  0  0
 10 11  2  0  0  0
 10 15  1  0  0  0
 11 12  1  0  0  0
 11 94  1  0  0  0
 12 13  2  0  0  0
 12 95  1  0  0  0
 13 14  1  0  0  0
 13 31  1  0  0  0
 14 15  2  0  0  0
 14 96  1  0  0  0
 15 97  1  0  0  0
 16 17  2  0  0  0
 16 21  1  0  0  0
 16 31  1  0  0  0
 17 18  1  0  0  0
 17 98  1  0  0  0
 18 19  2  0  0  0
 18 99  1  0  0  0
 19 20  1  0  0  0
 19 24  1  0  0  0
 20 21  2  0  0  0
 20100  1  0  0  0
 21 23  1  0  0  0
 22 28  1  0  0  0
 22 32  2  0  0  0
 26 27  1  0  0  0
 28101  1  0  0  0
 28102  1  0  0  0
 29103  1  0  0  0
 29104  1  0  0  0
 33 34  1  0  0  0
 33 66  1  0  0  0
 33 70  2  0  0  0
 34 36  1  0  0  0
 34 59  1  0  0  0
 34105  1  0  0  0
 35 44  2  0  0  0
 35 45  1  0  0  0
 35 68  1  0  0  0
 36 56  1  0  0  0
 36106  1  0  0  0
 37 39  1  0  0  0
 37 47  1  0  0  0
 37 66  1  0  0  0
 37107  1  0  0  0
 38 43  2  0  0  0
 38 46  1  0  0  0
 38 47  1  0  0  0
 39 64  1  0  0  0
 39 67  2  0  0  0
 40 52  1  0  0  0
 40 53  2  0  0  0
 40 58  1  0  0  0
 41108  1  0  0  0
 41109  1  0  0  0
 41110  1  0  0  0
 41 48  1  0  0  0
 42 43  1  0  0  0
 42 66  1  0  0  0
 42111  1  0  0  0
 42112  1  0  0  0
 43 44  1  0  0  0
 44113  1  0  0  0
 45 46  2  0  0  0
 45114  1  0  0  0
 46115  1  0  0  0
 47116  1  0  0  0
 47117  1  0  0  0
 48 56  1  0  0  0
 48 65  1  0  0  0
 48118  1  0  0  0
 49 50  1  0  0  0
 49 53  1  0  0  0
 49 64  1  0  0  0
 49119  1  0  0  0
 50 51  1  0  0  0
 50120  1  0  0  0
 50121  1  0  0  0
 51 52  1  0  0  0
 51122  1  0  0  0
 51123  1  0  0  0
 52124  1  0  0  0
 52125  1  0  0  0
 53 54  1  0  0  0
 54 55  2  0  0  0
 54126  1  0  0  0
 55 57  1  0  0  0
 55127  1  0  0  0
 56 69  2  0  0  0
 57 58  2  0  0  0
 57128  1  0  0  0
 58129  1  0  0  0
 59 60  1  0  0  0
 59 61  1  0  0  0
 59 62  1  0  0  0
 60130  1  0  0  0
 60131  1  0  0  0
 60132  1  0  0  0
 61133  1  0  0  0
 61134  1  0  0  0
 61135  1  0  0  0
 62136  1  0  0  0
 62137  1  0  0  0
 62138  1  0  0  0
 63 65  1  0  0  0
 63139  1  0  0  0
 63140  1  0  0  0
 63141  1  0  0  0
 64142  1  0  0  0
 65143  1  0  0  0
 68 79  1  0  0  0
 71 72  2  0  0  0
 71 74  1  0  0  0
 71144  1  0  0  0
 72 75  1  0  0  0
 72145  1  0  0  0
 73 74  2  0  0  0
 73 76  1  0  0  0
 73146  1  0  0  0
 74 81  1  0  0  0
 75 76  2  0  0  0
 75 84  1  0  0  0
 76 83  1  0  0  0
 77 79  1  0  0  0
 77 80  1  0  0  0
 77 82  2  0  0  0
 78 83  1  0  0  0
 78147  1  0  0  0
 78148  1  0  0  0
 78149  1  0  0  0
 79150  1  0  0  0
 79151  1  0  0  0
 80 84  1  0  0  0
 80152  1  0  0  0
 80153  1  0  0  0
 81154  1  0  0  0
M  ISO  4   1 100  68 101  79 101  81 100
M  END
> <chiral flag>
0

> <version>
0

> <s_m_source_file>
/data/baiqing/PycharmProjects/Reinvent-master-3.2/result/LINK_invent/BTK/process_docking_weight1_custom_product_contain_oxygen_bond_distance_aromatic_linkinvent_7_9_3/rearranged_h_0103.sdf

> <i_m_source_file_index>
82

> <r_mmod_Potential_Energy-OPLS-2005>
93.3779525756836

> <r_mmod_Stretch_Energy-OPLS-2005>
85.0941314697266

> <r_mmod_Bend_Energy-OPLS-2005>
154.356338500977

> <r_mmod_Torsional_Energy-OPLS-2005>
217.944412231445

> <r_mmod_Improper_Torsional_Energy-OPLS-2005>
4.15059089660645

> <r_mmod_Van_der_Waal_Energy-OPLS-2005>
152.457412719727

> <r_mmod_Electrostatic_Energy-OPLS-2005>
-320.841461181641

> <r_mmod_Solvation_Energy-OPLS-2005>
-254.512939453125

> <b_mmod_Minimization_Converged-OPLS-2005>
0

> <r_mmod_RMS_Derivative-OPLS-2005>
1.91498172283173

$$$$
82
                    3D
 Structure written by MMmdl.
160168  0  0  1  0            999 V2000
  -30.7731  -14.3668   20.6936 C   0  0  0  0  0  0
  -30.4153  -12.2955   19.3968 C   0  0  0  0  0  0
  -29.4828  -12.5241   18.1935 C   0  0  0  0  0  0
  -28.0078  -12.3797   18.6110 C   0  0  0  0  0  0
  -27.6649  -13.2047   19.8788 C   0  0  2  0  0  0
  -28.7017  -12.9531   20.9949 C   0  0  0  0  0  0
  -25.2599  -13.8168   20.5688 C   0  0  0  0  0  0
  -24.1844  -13.0446   20.9176 C   0  0  0  0  0  0
  -24.6394  -11.6911   20.8729 C   0  0  0  0  0  0
  -23.9058  -10.4294   21.0400 C   0  0  0  0  0  0
  -24.3611   -9.4212   21.9177 C   0  0  0  0  0  0
  -23.6291   -8.2246   22.0747 C   0  0  0  0  0  0
  -22.4271   -8.0284   21.3541 C   0  0  0  0  0  0
  -21.9907   -9.0254   20.4640 C   0  0  0  0  0  0
  -22.7234  -10.2136   20.3047 C   0  0  0  0  0  0
  -21.6857   -6.0739   22.5280 C   0  0  0  0  0  0
  -21.4017   -6.5641   23.8214 C   0  0  0  0  0  0
  -21.3659   -5.6788   24.9175 C   0  0  0  0  0  0
  -21.6043   -4.3052   24.7224 C   0  0  0  0  0  0
  -21.8821   -3.8147   23.4343 C   0  0  0  0  0  0
  -21.9195   -4.6965   22.3401 C   0  0  0  0  0  0
  -22.7869  -13.5244   21.1849 C   0  0  0  0  0  0
  -22.1662   -4.2154   21.0977 F   0  0  0  0  0  0
  -21.5625   -3.4532   25.7735 F   0  0  0  0  0  0
  -30.0457  -13.2434   20.4589 N   0  0  0  0  0  0
  -26.3037  -12.9335   20.3377 N   0  0  0  0  0  0
  -25.9317  -11.6492   20.5753 N   0  0  0  0  0  0
  -22.0506  -12.8228   22.0399 N   0  0  0  0  0  0
  -25.4347  -15.1882   20.4112 N   0  0  0  0  0  0
  -31.7851  -14.6622   20.0522 O   0  0  0  0  0  0
  -21.6640   -6.8878   21.4241 O   0  0  0  0  0  0
  -22.3552  -14.5558   20.6714 O   0  0  0  0  0  0
  -24.6087  -31.8716   23.2132 C   0  0  0  0  0  0
  -25.8998  -32.4844   23.8415 C   0  0  1  0  0  0
  -27.2411  -27.4679   20.0964 C   0  0  0  0  0  0
  -25.5892  -33.8645   24.2358 N   0  0  0  0  0  0
  -23.3970  -30.4934   21.5514 C   0  0  2  0  0  0
  -24.8482  -28.9630   20.1171 C   0  0  0  0  0  0
  -22.7390  -29.4663   22.4996 C   0  0  0  0  0  0
  -18.0279  -28.1371   22.8497 C   0  0  0  0  0  0
  -24.1491  -36.7308   23.2631 C   0  0  0  0  0  0
  -25.9206  -30.8464   21.3631 C   0  0  0  0  0  0
  -26.0025  -29.4800   20.7191 C   0  0  0  0  0  0
  -27.2017  -28.7365   20.7184 C   0  0  0  0  0  0
  -26.0775  -26.9640   19.4831 C   0  0  0  0  0  0
  -24.8771  -27.7007   19.4998 C   0  0  0  0  0  0
  -23.6076  -29.8250   20.1659 C   0  0  0  0  0  0
  -25.4110  -36.3125   24.0350 C   0  0  1  0  0  0
  -20.5865  -28.3643   23.1336 C   0  0  2  0  0  0
  -20.6775  -26.9389   22.5423 C   0  0  0  0  0  0
  -19.5765  -26.6384   21.5214 C   0  0  0  0  0  0
  -18.1939  -26.7923   22.1613 C   0  0  0  0  0  0
  -19.1525  -28.8824   23.2914 C   0  0  0  0  0  0
  -18.9454  -30.1435   23.8916 C   0  0  0  0  0  0
  -17.6458  -30.6586   24.0565 C   0  0  0  0  0  0
  -25.9031  -34.9488   23.5149 C   0  0  0  0  0  0
  -16.5349  -29.9091   23.6316 C   0  0  0  0  0  0
  -16.7270  -28.6503   23.0347 C   0  0  0  0  0  0
  -26.4452  -31.6605   25.0710 C   0  0  0  0  0  0
  -25.3736  -31.3710   26.1474 C   0  0  0  0  0  0
  -27.0262  -30.3057   24.6019 C   0  0  0  0  0  0
  -27.6043  -32.4310   25.7463 C   0  0  0  0  0  0
  -27.5595  -37.1807   24.8464 C   0  0  0  0  0  0
  -21.4126  -29.3016   22.3739 N   0  0  0  0  0  0
  -26.4298  -37.3808   23.9423 N   0  0  0  0  0  0
  -24.6598  -31.0839   22.1022 N   0  0  0  0  0  0
  -23.4176  -28.8208   23.3031 O   0  0  0  0  0  0
  -28.3728  -26.6923   20.0357 O   0  0  0  0  0  0
  -26.5574  -34.8928   22.4694 O   0  0  0  0  0  0
  -23.5289  -32.1455   23.7552 O   0  0  0  0  0  0
  -28.6256  -19.2518   22.2874 C   0  0  0  0  0  0
  -30.6953  -19.9060   21.2024 C   0  0  0  0  0  0
  -29.1290  -17.9459   22.4929 C   0  0  0  0  0  0
  -30.4380  -17.6151   22.0495 C   0  0  0  0  0  0
  -29.4023  -20.2454   21.6568 C   0  0  0  0  0  0
  -31.2082  -18.6089   21.3994 C   0  0  0  0  0  0
  -29.0750  -24.0331   21.4910 C   0  0  0  0  0  0
  -28.2530  -16.9371   23.2199 C   0  0  0  0  0  0
  -31.0648  -16.2430   22.3193 C   0  0  0  0  0  0
  -29.9278  -25.2820   21.2323 C   0  0  0  0  0  0
  -29.7565  -22.6752   21.2674 C   0  0  0  0  0  0
  -29.1535  -26.6143   21.2233 C   0  0  0  0  0  0
  -28.8665  -21.5359   21.5080 N   0  0  0  0  0  0
  -30.3576  -15.1034   21.7310 N   0  0  0  0  0  0
  -27.9054  -24.0967   21.8886 O   0  0  0  0  0  0
  -32.4634  -18.3320   20.9704 F   0  0  0  0  0  0
  -31.4586  -12.3958   19.0918 H   0  0  0  0  0  0
  -30.3153  -11.2741   19.7663 H   0  0  0  0  0  0
  -29.7159  -11.8150   17.3980 H   0  0  0  0  0  0
  -29.6532  -13.5192   17.7788 H   0  0  0  0  0  0
  -27.8149  -11.3215   18.7939 H   0  0  0  0  0  0
  -27.3542  -12.6686   17.7876 H   0  0  0  0  0  0
  -27.7220  -14.2582   19.6041 H   0  0  0  0  0  0
  -28.6641  -11.9113   21.3155 H   0  0  0  0  0  0
  -28.4433  -13.5339   21.8802 H   0  0  0  0  0  0
  -25.2759   -9.5693   22.4746 H   0  0  0  0  0  0
  -24.0008   -7.4638   22.7460 H   0  0  0  0  0  0
  -21.0842   -8.8769   19.8941 H   0  0  0  0  0  0
  -22.3693  -10.9669   19.6149 H   0  0  0  0  0  0
  -21.2009   -7.6149   23.9724 H   0  0  0  0  0  0
  -21.1474   -6.0512   25.9078 H   0  0  0  0  0  0
  -22.0599   -2.7612   23.2837 H   0  0  0  0  0  0
  -22.4111  -11.9872   22.4765 H   0  0  0  0  0  0
  -21.1121  -13.1246   22.2608 H   0  0  0  0  0  0
  -24.6733  -15.8484   20.5235 H   0  0  0  0  0  0
  -26.2954  -15.6235   20.1029 H   0  0  0  0  0  0
  -26.7058  -32.5582   23.1181 H   0  0  0  0  0  0
  -25.0122  -33.9829   25.0556 H   0  0  0  0  0  0
  -22.6841  -31.3083   21.4127 H   0  0  0  0  0  0
  -23.3774  -35.9622   23.3303 H   0  0  0  0  0  0
  -24.3593  -36.8905   22.2045 H   0  0  0  0  0  0
  -23.7213  -37.6509   23.6623 H   0  0  0  0  0  0
  -26.0236  -31.6109   20.5916 H   0  0  0  0  0  0
  -26.8113  -30.9067   21.9763 H   0  0  0  0  0  0
  -28.0897  -29.1452   21.1805 H   0  0  0  0  0  0
  -26.1005  -25.9957   19.0037 H   0  0  0  0  0  0
  -23.9896  -27.2982   19.0320 H   0  0  0  0  0  0
  -23.7148  -30.5992   19.4054 H   0  0  0  0  0  0
  -22.7331  -29.2420   19.8703 H   0  0  0  0  0  0
  -25.1289  -36.2002   25.0847 H   0  0  0  0  0  0
  -20.9964  -28.3195   24.1452 H   0  0  0  0  0  0
  -20.5690  -26.2244   23.3602 H   0  0  0  0  0  0
  -21.6646  -26.7460   22.1203 H   0  0  0  0  0  0
  -19.6937  -25.6305   21.1222 H   0  0  0  0  0  0
  -19.6717  -27.3205   20.6755 H   0  0  0  0  0  0
  -17.4224  -26.6690   21.3991 H   0  0  0  0  0  0
  -18.0326  -26.0051   22.8992 H   0  0  0  0  0  0
  -19.7933  -30.7245   24.2285 H   0  0  0  0  0  0
  -17.5022  -31.6264   24.5174 H   0  0  0  0  0  0
  -15.5348  -30.3005   23.7635 H   0  0  0  0  0  0
  -15.8671  -28.0833   22.7051 H   0  0  0  0  0  0
  -24.5915  -30.7038   25.7836 H   0  0  0  0  0  0
  -24.8910  -32.2867   26.4904 H   0  0  0  0  0  0
  -25.8113  -30.8911   27.0237 H   0  0  0  0  0  0
  -26.2781  -29.6840   24.1076 H   0  0  0  0  0  0
  -27.4084  -29.7255   25.4428 H   0  0  0  0  0  0
  -27.8597  -30.4418   23.9120 H   0  0  0  0  0  0
  -27.2683  -33.3612   26.2060 H   0  0  0  0  0  0
  -28.3838  -32.6863   25.0272 H   0  0  0  0  0  0
  -28.0713  -31.8408   26.5362 H   0  0  0  0  0  0
  -28.2608  -38.0111   24.7544 H   0  0  0  0  0  0
  -28.1103  -36.2650   24.6259 H   0  0  0  0  0  0
  -27.2321  -37.1415   25.8867 H   0  0  0  0  0  0
  -20.9281  -29.8727   21.6958 H   0  0  0  0  0  0
  -26.0204  -38.2890   24.1444 H   0  0  0  0  0  0
  -27.6320  -19.4964   22.6374 H   0  0  0  0  0  0
  -31.3216  -20.6307   20.7048 H   0  0  0  0  0  0
  -27.3531  -17.4046   23.6203 H   0  0  0  0  0  0
  -28.7855  -16.4898   24.0596 H   0  0  0  0  0  0
  -27.9321  -16.1445   22.5442 H   0  0  0  0  0  0
  -31.0918  -16.0945   23.3987 H   0  0  0  0  0  0
  -32.1133  -16.2374   22.0172 H   0  0  0  0  0  0
  -30.4606  -25.1555   20.2900 H   0  0  0  0  0  0
  -30.6874  -25.3160   22.0136 H   0  0  0  0  0  0
  -30.6224  -22.6183   21.9276 H   0  0  0  0  0  0
  -30.1256  -22.6410   20.2420 H   0  0  0  0  0  0
  -29.8567  -27.4476   21.2403 H   0  0  0  0  0  0
  -28.5368  -26.6990   22.1212 H   0  0  0  0  0  0
  -27.9975  -21.7738   21.9830 H   0  0  0  0  0  0
  -29.5359  -14.7746   22.2123 H   0  0  0  0  0  0
  1 25  1  0  0  0
  1 30  2  0  0  0
  1 84  1  0  0  0
  2  3  1  0  0  0
  2 25  1  0  0  0
  2 87  1  0  0  0
  2 88  1  0  0  0
  3  4  1  0  0  0
  3 89  1  0  0  0
  3 90  1  0  0  0
  4  5  1  0  0  0
  4 91  1  0  0  0
  4 92  1  0  0  0
  5  6  1  0  0  0
  5 26  1  0  0  0
  5 93  1  0  0  0
  6 25  1  0  0  0
  6 94  1  0  0  0
  6 95  1  0  0  0
  7  8  2  0  0  0
  7 26  1  0  0  0
  7 29  1  0  0  0
  8  9  1  0  0  0
  8 22  1  0  0  0
  9 10  1  0  0  0
  9 27  2  0  0  0
 10 11  2  0  0  0
 10 15  1  0  0  0
 11 12  1  0  0  0
 11 96  1  0  0  0
 12 13  2  0  0  0
 12 97  1  0  0  0
 13 14  1  0  0  0
 13 31  1  0  0  0
 14 15  2  0  0  0
 14 98  1  0  0  0
 15 99  1  0  0  0
 16 17  2  0  0  0
 16 21  1  0  0  0
 16 31  1  0  0  0
 17 18  1  0  0  0
 17100  1  0  0  0
 18 19  2  0  0  0
 18101  1  0  0  0
 19 20  1  0  0  0
 19 24  1  0  0  0
 20 21  2  0  0  0
 20102  1  0  0  0
 21 23  1  0  0  0
 22 28  1  0  0  0
 22 32  2  0  0  0
 26 27  1  0  0  0
 28103  1  0  0  0
 28104  1  0  0  0
 29105  1  0  0  0
 29106  1  0  0  0
 33 34  1  0  0  0
 33 66  1  0  0  0
 33 70  2  0  0  0
 34 36  1  0  0  0
 34 59  1  0  0  0
 34107  1  0  0  0
 35 44  2  0  0  0
 35 45  1  0  0  0
 35 68  1  0  0  0
 36 56  1  0  0  0
 36108  1  0  0  0
 37 39  1  0  0  0
 37 47  1  0  0  0
 37 66  1  0  0  0
 37109  1  0  0  0
 38 43  2  0  0  0
 38 46  1  0  0  0
 38 47  1  0  0  0
 39 64  1  0  0  0
 39 67  2  0  0  0
 40 52  1  0  0  0
 40 53  2  0  0  0
 40 58  1  0  0  0
 41110  1  0  0  0
 41111  1  0  0  0
 41112  1  0  0  0
 41 48  1  0  0  0
 42 43  1  0  0  0
 42 66  1  0  0  0
 42113  1  0  0  0
 42114  1  0  0  0
 43 44  1  0  0  0
 44115  1  0  0  0
 45 46  2  0  0  0
 45116  1  0  0  0
 46117  1  0  0  0
 47118  1  0  0  0
 47119  1  0  0  0
 48 56  1  0  0  0
 48 65  1  0  0  0
 48120  1  0  0  0
 49 50  1  0  0  0
 49 53  1  0  0  0
 49 64  1  0  0  0
 49121  1  0  0  0
 50 51  1  0  0  0
 50122  1  0  0  0
 50123  1  0  0  0
 51 52  1  0  0  0
 51124  1  0  0  0
 51125  1  0  0  0
 52126  1  0  0  0
 52127  1  0  0  0
 53 54  1  0  0  0
 54 55  2  0  0  0
 54128  1  0  0  0
 55 57  1  0  0  0
 55129  1  0  0  0
 56 69  2  0  0  0
 57 58  2  0  0  0
 57130  1  0  0  0
 58131  1  0  0  0
 59 60  1  0  0  0
 59 61  1  0  0  0
 59 62  1  0  0  0
 60132  1  0  0  0
 60133  1  0  0  0
 60134  1  0  0  0
 61135  1  0  0  0
 61136  1  0  0  0
 61137  1  0  0  0
 62138  1  0  0  0
 62139  1  0  0  0
 62140  1  0  0  0
 63 65  1  0  0  0
 63141  1  0  0  0
 63142  1  0  0  0
 63143  1  0  0  0
 64144  1  0  0  0
 65145  1  0  0  0
 68 82  1  0  0  0
 71 73  2  0  0  0
 71 75  1  0  0  0
 71146  1  0  0  0
 72 75  2  0  0  0
 72 76  1  0  0  0
 72147  1  0  0  0
 73 74  1  0  0  0
 73 78  1  0  0  0
 74 76  2  0  0  0
 74 79  1  0  0  0
 75 83  1  0  0  0
 76 86  1  0  0  0
 77 80  1  0  0  0
 77 81  1  0  0  0
 77 85  2  0  0  0
 78148  1  0  0  0
 78149  1  0  0  0
 78150  1  0  0  0
 79 84  1  0  0  0
 79151  1  0  0  0
 79152  1  0  0  0
 80 82  1  0  0  0
 80153  1  0  0  0
 80154  1  0  0  0
 81 83  1  0  0  0
 81155  1  0  0  0
 81156  1  0  0  0
 82157  1  0  0  0
 82158  1  0  0  0
 83159  1  0  0  0
 84160  1  0  0  0
M  ISO  4   1 100  68 101  82 101  84 100
M  END
> <chiral flag>
0

> <version>
0

> <s_m_source_file>
/data/baiqing/PycharmProjects/Reinvent-master-3.2/result/LINK_invent/BTK/process_docking_weight1_custom_product_contain_oxygen_bond_distance_aromatic_linkinvent_7_9_3/rearranged_h_0103.sdf

> <i_m_source_file_index>
83

> <r_mmod_Potential_Energy-OPLS-2005>
-124.716705322266

> <r_mmod_Stretch_Energy-OPLS-2005>
33.8520812988281

> <r_mmod_Bend_Energy-OPLS-2005>
96.9389801025391

> <r_mmod_Torsional_Energy-OPLS-2005>
186.979415893555

> <r_mmod_Improper_Torsional_Energy-OPLS-2005>
4.27909564971924

> <r_mmod_Van_der_Waal_Energy-OPLS-2005>
154.406768798828

> <r_mmod_Electrostatic_Energy-OPLS-2005>
-372.136383056641

> <r_mmod_Solvation_Energy-OPLS-2005>
-235.525344848633

> <b_mmod_Minimization_Converged-OPLS-2005>
0

> <r_mmod_RMS_Derivative-OPLS-2005>
1.27002274990082

$$$$
83
                    3D
 Structure written by MMmdl.
157166  0  0  1  0            999 V2000
  -30.6214  -14.7196   20.4543 C   0  0  0  0  0  0
  -30.4364  -12.4327   19.4785 C   0  0  0  0  0  0
  -29.5159  -12.4874   18.2378 C   0  0  0  0  0  0
  -28.0403  -12.3086   18.6481 C   0  0  0  0  0  0
  -27.6383  -13.2216   19.8365 C   0  0  2  0  0  0
  -28.6797  -13.1631   20.9738 C   0  0  0  0  0  0
  -25.2518  -13.8160   20.5658 C   0  0  0  0  0  0
  -24.1792  -13.0428   20.9185 C   0  0  0  0  0  0
  -24.6371  -11.6903   20.8741 C   0  0  0  0  0  0
  -23.9046  -10.4285   21.0417 C   0  0  0  0  0  0
  -24.3601   -9.4202   21.9195 C   0  0  0  0  0  0
  -23.6279   -8.2237   22.0766 C   0  0  0  0  0  0
  -22.4259   -8.0274   21.3555 C   0  0  0  0  0  0
  -21.9893   -9.0246   20.4653 C   0  0  0  0  0  0
  -22.7221  -10.2125   20.3065 C   0  0  0  0  0  0
  -21.6848   -6.0725   22.5279 C   0  0  0  0  0  0
  -21.4011   -6.5634   23.8209 C   0  0  0  0  0  0
  -21.3656   -5.6793   24.9175 C   0  0  0  0  0  0
  -21.6039   -4.3054   24.7231 C   0  0  0  0  0  0
  -21.8820   -3.8141   23.4354 C   0  0  0  0  0  0
  -21.9191   -4.6954   22.3407 C   0  0  0  0  0  0
  -22.7814  -13.5233   21.1840 C   0  0  0  0  0  0
  -22.1659   -4.2138   21.0985 F   0  0  0  0  0  0
  -21.5627   -3.4538   25.7745 F   0  0  0  0  0  0
  -29.9917  -13.4967   20.4068 N   0  0  0  0  0  0
  -26.2918  -12.9348   20.3198 N   0  0  0  0  0  0
  -25.9296  -11.6505   20.5709 N   0  0  0  0  0  0
  -22.0453  -12.8248   22.0408 N   0  0  0  0  0  0
  -25.4234  -15.1884   20.4096 N   0  0  0  0  0  0
  -31.8248  -14.7844   20.1834 O   0  0  0  0  0  0
  -21.6634   -6.8865   21.4241 O   0  0  0  0  0  0
  -22.3513  -14.5543   20.6683 O   0  0  0  0  0  0
  -24.6291  -31.8602   23.2019 C   0  0  0  0  0  0
  -25.9131  -32.4787   23.8375 C   0  0  1  0  0  0
  -27.2177  -27.2875   20.1454 C   0  0  0  0  0  0
  -25.5963  -33.8591   24.2300 N   0  0  0  0  0  0
  -23.4275  -30.4845   21.5415 C   0  0  2  0  0  0
  -24.8726  -28.9225   20.1261 C   0  0  0  0  0  0
  -22.7485  -29.4671   22.4907 C   0  0  0  0  0  0
  -18.0342  -28.1422   22.8399 C   0  0  0  0  0  0
  -24.1496  -36.7291   23.2633 C   0  0  0  0  0  0
  -25.9699  -30.7770   21.3847 C   0  0  0  0  0  0
  -26.0405  -29.3920   20.7483 C   0  0  0  0  0  0
  -27.2156  -28.5794   20.7608 C   0  0  0  0  0  0
  -26.0534  -26.9046   19.4571 C   0  0  0  0  0  0
  -24.8800  -27.6801   19.4763 C   0  0  0  0  0  0
  -23.6469  -29.8093   20.1617 C   0  0  0  0  0  0
  -25.4113  -36.3077   24.0322 C   0  0  1  0  0  0
  -20.5915  -28.3744   23.1274 C   0  0  2  0  0  0
  -20.6821  -26.9439   22.5472 C   0  0  0  0  0  0
  -19.5910  -26.6383   21.5196 C   0  0  0  0  0  0
  -18.2015  -26.8032   22.1434 C   0  0  0  0  0  0
  -19.1556  -28.8884   23.2875 C   0  0  0  0  0  0
  -18.9435  -30.1438   23.8982 C   0  0  0  0  0  0
  -17.6416  -30.6557   24.0609 C   0  0  0  0  0  0
  -25.9038  -34.9449   23.5090 C   0  0  0  0  0  0
  -16.5346  -29.9061   23.6247 C   0  0  0  0  0  0
  -16.7302  -28.6526   23.0184 C   0  0  0  0  0  0
  -26.4522  -31.6594   25.0739 C   0  0  0  0  0  0
  -25.3782  -31.3721   26.1483 C   0  0  0  0  0  0
  -27.0331  -30.3000   24.6205 C   0  0  0  0  0  0
  -27.6081  -32.4342   25.7500 C   0  0  0  0  0  0
  -27.5578  -37.1799   24.8459 C   0  0  0  0  0  0
  -21.4201  -29.3087   22.3637 N   0  0  0  0  0  0
  -26.4295  -37.3774   23.9395 N   0  0  0  0  0  0
  -24.6944  -31.0595   22.0982 N   0  0  0  0  0  0
  -23.4190  -28.8213   23.3020 O   0  0  0  0  0  0
  -28.3270  -26.4482   19.9990 O   0  0  0  0  0  0
  -26.5608  -34.8918   22.4651 O   0  0  0  0  0  0
  -23.5439  -32.1425   23.7314 O   0  0  0  0  0  0
  -28.7528  -19.0147   19.6113 C   0  0  0  0  0  0
  -29.9097  -19.6834   21.5813 C   0  0  0  0  0  0
  -28.2532  -20.3447   19.4705 C   0  0  0  0  0  0
  -29.3815  -21.0150   21.4590 C   0  0  0  0  0  0
  -29.6197  -18.6295   20.6620 C   0  0  0  0  0  0
  -28.5232  -21.4148   20.3905 C   0  0  0  0  0  0
  -26.7045  -22.9098   19.6358 C   0  0  0  0  0  0
  -30.2744  -17.2398   20.7390 C   0  0  0  0  0  0
  -29.7738  -15.9654   20.5487 C   0  0  0  0  0  0
  -25.6769  -23.6418   20.4869 C   0  0  0  0  0  0
  -26.4979  -24.1771   21.6525 C   0  0  0  0  0  0
  -27.9554  -23.9335   21.2411 C   0  0  2  0  0  0
  -28.6952  -25.3352   20.9084 C   0  0  0  0  0  0
  -27.9017  -22.7778   20.2565 N   0  0  0  0  0  0
  -26.4147  -22.5170   18.5021 O   0  0  0  0  0  0
  -31.4780  -12.5530   19.1761 H   0  0  0  0  0  0
  -30.3759  -11.4576   19.9646 H   0  0  0  0  0  0
  -29.8006  -11.7122   17.5251 H   0  0  0  0  0  0
  -29.6439  -13.4397   17.7217 H   0  0  0  0  0  0
  -27.9037  -11.2624   18.9278 H   0  0  0  0  0  0
  -27.3843  -12.4820   17.7944 H   0  0  0  0  0  0
  -27.6250  -14.2328   19.4343 H   0  0  0  0  0  0
  -28.7045  -12.1683   21.4211 H   0  0  0  0  0  0
  -28.4149  -13.8529   21.7769 H   0  0  0  0  0  0
  -25.2740   -9.5678   22.4778 H   0  0  0  0  0  0
  -23.9973   -7.4636   22.7499 H   0  0  0  0  0  0
  -21.0818   -8.8766   19.8979 H   0  0  0  0  0  0
  -22.3672  -10.9662   19.6177 H   0  0  0  0  0  0
  -21.2009   -7.6143   23.9710 H   0  0  0  0  0  0
  -21.1473   -6.0524   25.9075 H   0  0  0  0  0  0
  -22.0604   -2.7604   23.2861 H   0  0  0  0  0  0
  -22.4042  -11.9899   22.4798 H   0  0  0  0  0  0
  -21.1090  -13.1315   22.2620 H   0  0  0  0  0  0
  -24.6632  -15.8480   20.5301 H   0  0  0  0  0  0
  -26.2777  -15.6277   20.0922 H   0  0  0  0  0  0
  -26.7200  -32.5457   23.1131 H   0  0  0  0  0  0
  -25.0172  -33.9751   25.0495 H   0  0  0  0  0  0
  -22.7261  -31.3065   21.3887 H   0  0  0  0  0  0
  -23.3746  -35.9636   23.3288 H   0  0  0  0  0  0
  -24.3593  -36.8918   22.2046 H   0  0  0  0  0  0
  -23.7252  -37.6489   23.6663 H   0  0  0  0  0  0
  -26.1005  -31.5294   20.6042 H   0  0  0  0  0  0
  -26.8533  -30.8395   22.0093 H   0  0  0  0  0  0
  -28.1183  -28.9416   21.2313 H   0  0  0  0  0  0
  -26.0688  -25.9972   18.8735 H   0  0  0  0  0  0
  -23.9982  -27.3279   18.9574 H   0  0  0  0  0  0
  -23.7730  -30.5756   19.3955 H   0  0  0  0  0  0
  -22.7665  -29.2386   19.8588 H   0  0  0  0  0  0
  -25.1289  -36.1932   25.0816 H   0  0  0  0  0  0
  -21.0022  -28.3396   24.1397 H   0  0  0  0  0  0
  -20.5632  -26.2384   23.3699 H   0  0  0  0  0  0
  -21.6730  -26.7407   22.1379 H   0  0  0  0  0  0
  -19.7098  -25.6266   21.1294 H   0  0  0  0  0  0
  -19.6994  -27.3140   20.6720 H   0  0  0  0  0  0
  -17.4420  -26.6961   21.3682 H   0  0  0  0  0  0
  -18.0202  -26.0087   22.8682 H   0  0  0  0  0  0
  -19.7893  -30.7208   24.2479 H   0  0  0  0  0  0
  -17.4896  -31.6161   24.5352 H   0  0  0  0  0  0
  -15.5339  -30.2946   23.7523 H   0  0  0  0  0  0
  -15.8742  -28.0889   22.6706 H   0  0  0  0  0  0
  -24.5989  -30.7023   25.7836 H   0  0  0  0  0  0
  -24.8960  -32.2875   26.4913 H   0  0  0  0  0  0
  -25.8172  -30.8933   27.0250 H   0  0  0  0  0  0
  -26.2871  -29.6764   24.1274 H   0  0  0  0  0  0
  -27.4007  -29.7249   25.4710 H   0  0  0  0  0  0
  -27.8768  -30.4208   23.9416 H   0  0  0  0  0  0
  -27.2677  -33.3623   26.2109 H   0  0  0  0  0  0
  -28.3886  -32.6957   25.0338 H   0  0  0  0  0  0
  -28.0785  -31.8480   26.5407 H   0  0  0  0  0  0
  -28.2578  -38.0114   24.7499 H   0  0  0  0  0  0
  -28.1096  -36.2629   24.6299 H   0  0  0  0  0  0
  -27.2294  -37.1456   25.8869 H   0  0  0  0  0  0
  -20.9383  -29.8642   21.6717 H   0  0  0  0  0  0
  -26.0163  -38.2841   24.1420 H   0  0  0  0  0  0
  -28.4976  -18.2854   18.8557 H   0  0  0  0  0  0
  -30.5651  -19.4733   22.4150 H   0  0  0  0  0  0
  -27.6290  -20.5086   18.6068 H   0  0  0  0  0  0
  -29.6507  -21.7293   22.2231 H   0  0  0  0  0  0
  -31.3422  -17.2951   20.9080 H   0  0  0  0  0  0
  -28.7095  -15.8811   20.4027 H   0  0  0  0  0  0
  -24.9158  -22.9473   20.8377 H   0  0  0  0  0  0
  -25.1651  -24.4217   19.9318 H   0  0  0  0  0  0
  -26.2640  -23.6161   22.5573 H   0  0  0  0  0  0
  -26.2829  -25.2226   21.8714 H   0  0  0  0  0  0
  -28.4678  -23.5573   22.1259 H   0  0  0  0  0  0
  -29.6957  -25.0524   20.5762 H   0  0  0  0  0  0
  -28.8671  -25.8206   21.8683 H   0  0  0  0  0  0
  1 25  1  0  0  0
  1 30  2  0  0  0
  1 79  1  0  0  0
  2  3  1  0  0  0
  2 25  1  0  0  0
  2 86  1  0  0  0
  2 87  1  0  0  0
  3  4  1  0  0  0
  3 88  1  0  0  0
  3 89  1  0  0  0
  4  5  1  0  0  0
  4 90  1  0  0  0
  4 91  1  0  0  0
  5  6  1  0  0  0
  5 26  1  0  0  0
  5 92  1  0  0  0
  6 25  1  0  0  0
  6 93  1  0  0  0
  6 94  1  0  0  0
  7  8  2  0  0  0
  7 26  1  0  0  0
  7 29  1  0  0  0
  8  9  1  0  0  0
  8 22  1  0  0  0
  9 10  1  0  0  0
  9 27  2  0  0  0
 10 11  2  0  0  0
 10 15  1  0  0  0
 11 12  1  0  0  0
 11 95  1  0  0  0
 12 13  2  0  0  0
 12 96  1  0  0  0
 13 14  1  0  0  0
 13 31  1  0  0  0
 14 15  2  0  0  0
 14 97  1  0  0  0
 15 98  1  0  0  0
 16 17  2  0  0  0
 16 21  1  0  0  0
 16 31  1  0  0  0
 17 18  1  0  0  0
 17 99  1  0  0  0
 18 19  2  0  0  0
 18100  1  0  0  0
 19 20  1  0  0  0
 19 24  1  0  0  0
 20 21  2  0  0  0
 20101  1  0  0  0
 21 23  1  0  0  0
 22 28  1  0  0  0
 22 32  2  0  0  0
 26 27  1  0  0  0
 28102  1  0  0  0
 28103  1  0  0  0
 29104  1  0  0  0
 29105  1  0  0  0
 33 34  1  0  0  0
 33 66  1  0  0  0
 33 70  2  0  0  0
 34 36  1  0  0  0
 34 59  1  0  0  0
 34106  1  0  0  0
 35 44  2  0  0  0
 35 45  1  0  0  0
 35 68  1  0  0  0
 36 56  1  0  0  0
 36107  1  0  0  0
 37 39  1  0  0  0
 37 47  1  0  0  0
 37 66  1  0  0  0
 37108  1  0  0  0
 38 43  2  0  0  0
 38 46  1  0  0  0
 38 47  1  0  0  0
 39 64  1  0  0  0
 39 67  2  0  0  0
 40 52  1  0  0  0
 40 53  2  0  0  0
 40 58  1  0  0  0
 41109  1  0  0  0
 41110  1  0  0  0
 41111  1  0  0  0
 41 48  1  0  0  0
 42 43  1  0  0  0
 42 66  1  0  0  0
 42112  1  0  0  0
 42113  1  0  0  0
 43 44  1  0  0  0
 44114  1  0  0  0
 45 46  2  0  0  0
 45115  1  0  0  0
 46116  1  0  0  0
 47117  1  0  0  0
 47118  1  0  0  0
 48 56  1  0  0  0
 48 65  1  0  0  0
 48119  1  0  0  0
 49 50  1  0  0  0
 49 53  1  0  0  0
 49 64  1  0  0  0
 49120  1  0  0  0
 50 51  1  0  0  0
 50121  1  0  0  0
 50122  1  0  0  0
 51 52  1  0  0  0
 51123  1  0  0  0
 51124  1  0  0  0
 52125  1  0  0  0
 52126  1  0  0  0
 53 54  1  0  0  0
 54 55  2  0  0  0
 54127  1  0  0  0
 55 57  1  0  0  0
 55128  1  0  0  0
 56 69  2  0  0  0
 57 58  2  0  0  0
 57129  1  0  0  0
 58130  1  0  0  0
 59 60  1  0  0  0
 59 61  1  0  0  0
 59 62  1  0  0  0
 60131  1  0  0  0
 60132  1  0  0  0
 60133  1  0  0  0
 61134  1  0  0  0
 61135  1  0  0  0
 61136  1  0  0  0
 62137  1  0  0  0
 62138  1  0  0  0
 62139  1  0  0  0
 63 65  1  0  0  0
 63140  1  0  0  0
 63141  1  0  0  0
 63142  1  0  0  0
 64143  1  0  0  0
 65144  1  0  0  0
 68 83  1  0  0  0
 71 73  2  0  0  0
 71 75  1  0  0  0
 71145  1  0  0  0
 72 74  1  0  0  0
 72 75  2  0  0  0
 72146  1  0  0  0
 73 76  1  0  0  0
 73147  1  0  0  0
 74 76  2  0  0  0
 74148  1  0  0  0
 75 78  1  0  0  0
 76 84  1  0  0  0
 77 80  1  0  0  0
 77 84  1  0  0  0
 77 85  2  0  0  0
 78 79  2  0  0  0
 78149  1  0  0  0
 79150  1  0  0  0
 80 81  1  0  0  0
 80151  1  0  0  0
 80152  1  0  0  0
 81 82  1  0  0  0
 81153  1  0  0  0
 81154  1  0  0  0
 82 83  1  0  0  0
 82 84  1  0  0  0
 82155  1  0  0  0
 83156  1  0  0  0
 83157  1  0  0  0
M  ISO  4   1 100  68 101  79 100  83 101
M  END
> <chiral flag>
0

> <version>
0

> <s_m_source_file>
/data/baiqing/PycharmProjects/Reinvent-master-3.2/result/LINK_invent/BTK/process_docking_weight1_custom_product_contain_oxygen_bond_distance_aromatic_linkinvent_7_9_3/rearranged_h_0103.sdf

> <i_m_source_file_index>
84

> <r_mmod_Potential_Energy-OPLS-2005>
343.188354492188

> <r_mmod_Stretch_Energy-OPLS-2005>
107.452499389648

> <r_mmod_Bend_Energy-OPLS-2005>
233.973175048828

> <r_mmod_Torsional_Energy-OPLS-2005>
320.361328125

> <r_mmod_Improper_Torsional_Energy-OPLS-2005>
10.4645977020264

> <r_mmod_Van_der_Waal_Energy-OPLS-2005>
136.703765869141

> <r_mmod_Electrostatic_Energy-OPLS-2005>
-330.036865234375

> <r_mmod_Solvation_Energy-OPLS-2005>
-206.29768371582

> <b_mmod_Minimization_Converged-OPLS-2005>
0

> <r_mmod_RMS_Derivative-OPLS-2005>
4.13711452484131

$$$$
84
                    3D
 Structure written by MMmdl.
156164  0  0  1  0            999 V2000
  -30.5262  -14.8562   20.4161 C   0  0  0  0  0  0
  -30.4503  -12.5205   19.4744 C   0  0  0  0  0  0
  -29.5195  -12.5166   18.2375 C   0  0  0  0  0  0
  -28.0473  -12.3241   18.6511 C   0  0  0  0  0  0
  -27.6408  -13.2321   19.8408 C   0  0  2  0  0  0
  -28.6861  -13.1856   20.9760 C   0  0  0  0  0  0
  -25.2520  -13.8183   20.5685 C   0  0  0  0  0  0
  -24.1810  -13.0452   20.9236 C   0  0  0  0  0  0
  -24.6401  -11.6926   20.8774 C   0  0  0  0  0  0
  -23.9081  -10.4302   21.0428 C   0  0  0  0  0  0
  -24.3626   -9.4204   21.9195 C   0  0  0  0  0  0
  -23.6297   -8.2243   22.0760 C   0  0  0  0  0  0
  -22.4279   -8.0291   21.3553 C   0  0  0  0  0  0
  -21.9922   -9.0266   20.4656 C   0  0  0  0  0  0
  -22.7252  -10.2143   20.3072 C   0  0  0  0  0  0
  -21.6864   -6.0748   22.5287 C   0  0  0  0  0  0
  -21.4024   -6.5644   23.8228 C   0  0  0  0  0  0
  -21.3653   -5.6780   24.9183 C   0  0  0  0  0  0
  -21.6026   -4.3048   24.7221 C   0  0  0  0  0  0
  -21.8821   -3.8152   23.4350 C   0  0  0  0  0  0
  -21.9217   -4.6977   22.3416 C   0  0  0  0  0  0
  -22.7835  -13.5259   21.1886 C   0  0  0  0  0  0
  -22.1663   -4.2168   21.0991 F   0  0  0  0  0  0
  -21.5625   -3.4530   25.7729 F   0  0  0  0  0  0
  -29.9765  -13.5848   20.3952 N   0  0  0  0  0  0
  -26.2933  -12.9393   20.3213 N   0  0  0  0  0  0
  -25.9333  -11.6544   20.5729 N   0  0  0  0  0  0
  -22.0457  -12.8257   22.0432 N   0  0  0  0  0  0
  -25.4217  -15.1892   20.4066 N   0  0  0  0  0  0
  -31.7126  -15.0008   20.0950 O   0  0  0  0  0  0
  -21.6637   -6.8895   21.4253 O   0  0  0  0  0  0
  -22.3551  -14.5561   20.6714 O   0  0  0  0  0  0
  -24.6391  -31.8492   23.1922 C   0  0  0  0  0  0
  -25.9196  -32.4710   23.8287 C   0  0  1  0  0  0
  -27.2173  -27.1888   20.1291 C   0  0  0  0  0  0
  -25.5975  -33.8513   24.2214 N   0  0  0  0  0  0
  -23.4389  -30.4729   21.5343 C   0  0  2  0  0  0
  -24.8901  -28.9139   20.1033 C   0  0  0  0  0  0
  -22.7537  -29.4585   22.4848 C   0  0  0  0  0  0
  -18.0313  -28.1409   22.8475 C   0  0  0  0  0  0
  -24.1500  -36.7248   23.2633 C   0  0  0  0  0  0
  -25.9926  -30.7366   21.3906 C   0  0  0  0  0  0
  -26.0621  -29.3560   20.7277 C   0  0  0  0  0  0
  -27.2236  -28.5033   20.7359 C   0  0  0  0  0  0
  -26.0283  -26.8540   19.4395 C   0  0  0  0  0  0
  -24.8830  -27.6759   19.4458 C   0  0  0  0  0  0
  -23.6653  -29.8104   20.1508 C   0  0  0  0  0  0
  -25.4121  -36.3030   24.0319 C   0  0  1  0  0  0
  -20.5922  -28.3717   23.1237 C   0  0  2  0  0  0
  -20.6800  -26.9425   22.5403 C   0  0  0  0  0  0
  -19.5775  -26.6403   21.5209 C   0  0  0  0  0  0
  -18.1953  -26.7948   22.1620 C   0  0  0  0  0  0
  -19.1569  -28.8879   23.2856 C   0  0  0  0  0  0
  -18.9481  -30.1485   23.8866 C   0  0  0  0  0  0
  -17.6476  -30.6594   24.0573 C   0  0  0  0  0  0
  -25.9061  -34.9407   23.5058 C   0  0  0  0  0  0
  -16.5369  -29.9087   23.6345 C   0  0  0  0  0  0
  -16.7302  -28.6524   23.0335 C   0  0  0  0  0  0
  -26.4535  -31.6551   25.0707 C   0  0  0  0  0  0
  -25.3739  -31.3762   26.1426 C   0  0  0  0  0  0
  -27.0371  -30.2935   24.6261 C   0  0  0  0  0  0
  -27.6080  -32.4298   25.7486 C   0  0  0  0  0  0
  -27.5580  -37.1776   24.8456 C   0  0  0  0  0  0
  -21.4228  -29.3051   22.3604 N   0  0  0  0  0  0
  -26.4274  -37.3748   23.9424 N   0  0  0  0  0  0
  -24.7088  -31.0391   22.0945 N   0  0  0  0  0  0
  -23.4218  -28.8113   23.2962 O   0  0  0  0  0  0
  -28.2804  -26.2294   20.2326 O   0  0  0  0  0  0
  -26.5620  -34.8888   22.4621 O   0  0  0  0  0  0
  -23.5526  -32.1362   23.7166 O   0  0  0  0  0  0
  -28.4786  -18.1724   20.9218 C   0  0  0  0  0  0
  -30.5817  -18.2885   19.8605 C   0  0  0  0  0  0
  -28.2682  -19.5921   20.7361 C   0  0  0  0  0  0
  -29.2184  -20.4478   20.0776 C   0  0  0  0  0  0
  -29.6195  -17.4362   20.4795 C   0  0  0  0  0  0
  -30.3970  -19.7248   19.6524 C   0  0  0  0  0  0
  -26.9597  -20.1505   21.2087 C   0  0  0  0  0  0
  -32.4598  -19.8045   18.4112 C   0  0  0  0  0  0
  -28.8874  -21.9851   19.5966 C   0  0  0  0  0  0
  -28.8311  -23.3999   20.4636 C   0  0  0  0  0  0
  -28.1204  -24.7568   19.8151 C   0  0  0  0  0  0
  -29.6542  -15.9302   20.6512 N   0  0  0  0  0  0
  -26.7416  -20.2453   22.4334 O   0  5  0  0  0  0
  -26.0886  -20.4794   20.3789 O   0  0  0  0  0  0
  -31.3402  -20.4779   18.9817 O   0  0  0  0  0  0
  -31.4842  -12.6831   19.1635 H   0  0  0  0  0  0
  -30.4335  -11.5505   19.9722 H   0  0  0  0  0  0
  -29.8198  -11.7329   17.5415 H   0  0  0  0  0  0
  -29.6260  -13.4589   17.6961 H   0  0  0  0  0  0
  -27.9118  -11.2767   18.9250 H   0  0  0  0  0  0
  -27.3924  -12.5044   17.7989 H   0  0  0  0  0  0
  -27.6257  -14.2484   19.4477 H   0  0  0  0  0  0
  -28.7441  -12.1848   21.4039 H   0  0  0  0  0  0
  -28.3999  -13.8499   21.7924 H   0  0  0  0  0  0
  -25.2777   -9.5681   22.4772 H   0  0  0  0  0  0
  -24.0000   -7.4634   22.7491 H   0  0  0  0  0  0
  -21.0854   -8.8805   19.8970 H   0  0  0  0  0  0
  -22.3720  -10.9687   19.6187 H   0  0  0  0  0  0
  -21.2004   -7.6149   23.9743 H   0  0  0  0  0  0
  -21.1468   -6.0500   25.9088 H   0  0  0  0  0  0
  -22.0612   -2.7620   23.2835 H   0  0  0  0  0  0
  -22.3997  -11.9877   22.4801 H   0  0  0  0  0  0
  -21.1114  -13.1360   22.2682 H   0  0  0  0  0  0
  -24.6471  -15.8340   20.5114 H   0  0  0  0  0  0
  -26.2394  -15.6242   20.0026 H   0  0  0  0  0  0
  -26.7255  -32.5348   23.1018 H   0  0  0  0  0  0
  -25.0174  -33.9645   25.0392 H   0  0  0  0  0  0
  -22.7376  -31.2969   21.3839 H   0  0  0  0  0  0
  -23.3765  -35.9578   23.3271 H   0  0  0  0  0  0
  -24.3587  -36.8890   22.2050 H   0  0  0  0  0  0
  -23.7246  -37.6434   23.6670 H   0  0  0  0  0  0
  -26.1519  -31.5004   20.6266 H   0  0  0  0  0  0
  -26.8599  -30.7773   22.0381 H   0  0  0  0  0  0
  -28.1119  -28.8248   21.2609 H   0  0  0  0  0  0
  -25.9404  -25.9276   18.8922 H   0  0  0  0  0  0
  -23.9933  -27.3451   18.9279 H   0  0  0  0  0  0
  -23.8048  -30.5865   19.3972 H   0  0  0  0  0  0
  -22.7812  -29.2528   19.8387 H   0  0  0  0  0  0
  -25.1313  -36.1843   25.0808 H   0  0  0  0  0  0
  -21.0044  -28.3324   24.1349 H   0  0  0  0  0  0
  -20.5701  -26.2328   23.3614 H   0  0  0  0  0  0
  -21.6668  -26.7454   22.1198 H   0  0  0  0  0  0
  -19.6911  -25.6306   21.1263 H   0  0  0  0  0  0
  -19.6702  -27.3198   20.6727 H   0  0  0  0  0  0
  -17.4222  -26.6707   21.4023 H   0  0  0  0  0  0
  -18.0335  -26.0096   22.9034 H   0  0  0  0  0  0
  -19.7950  -30.7334   24.2193 H   0  0  0  0  0  0
  -17.5024  -31.6259   24.5204 H   0  0  0  0  0  0
  -15.5363  -30.2979   23.7675 H   0  0  0  0  0  0
  -15.8717  -28.0855   22.7027 H   0  0  0  0  0  0
  -24.5893  -30.7128   25.7778 H   0  0  0  0  0  0
  -24.8969  -32.2961   26.4808 H   0  0  0  0  0  0
  -25.8048  -30.8970   27.0223 H   0  0  0  0  0  0
  -26.2970  -29.6661   24.1281 H   0  0  0  0  0  0
  -27.3995  -29.7231   25.4818 H   0  0  0  0  0  0
  -27.8885  -30.4147   23.9563 H   0  0  0  0  0  0
  -27.2685  -33.3619   26.2015 H   0  0  0  0  0  0
  -28.3919  -32.6813   25.0334 H   0  0  0  0  0  0
  -28.0703  -31.8446   26.5439 H   0  0  0  0  0  0
  -28.2579  -38.0097   24.7529 H   0  0  0  0  0  0
  -28.1100  -36.2622   24.6250 H   0  0  0  0  0  0
  -27.2303  -37.1392   25.8860 H   0  0  0  0  0  0
  -20.9416  -29.8769   21.6810 H   0  0  0  0  0  0
  -26.0136  -38.2815   24.1432 H   0  0  0  0  0  0
  -27.6772  -17.6200   21.3956 H   0  0  0  0  0  0
  -31.4706  -17.7909   19.5049 H   0  0  0  0  0  0
  -33.0902  -20.5103   17.8697 H   0  0  0  0  0  0
  -32.1432  -19.0434   17.6971 H   0  0  0  0  0  0
  -33.0794  -19.3398   19.1797 H   0  0  0  0  0  0
  -27.9211  -21.9081   19.1008 H   0  0  0  0  0  0
  -29.5608  -22.1931   18.7648 H   0  0  0  0  0  0
  -29.8461  -23.6524   20.7640 H   0  0  0  0  0  0
  -28.3023  -23.1921   21.3948 H   0  0  0  0  0  0
  -27.0633  -24.5070   19.8719 H   0  0  0  0  0  0
  -28.3568  -24.7510   18.7512 H   0  0  0  0  0  0
  -28.7637  -15.5634   20.9539 H   0  0  0  0  0  0
  1 25  1  0  0  0
  1 30  2  0  0  0
  1 82  1  0  0  0
  2  3  1  0  0  0
  2 25  1  0  0  0
  2 86  1  0  0  0
  2 87  1  0  0  0
  3  4  1  0  0  0
  3 88  1  0  0  0
  3 89  1  0  0  0
  4  5  1  0  0  0
  4 90  1  0  0  0
  4 91  1  0  0  0
  5  6  1  0  0  0
  5 26  1  0  0  0
  5 92  1  0  0  0
  6 25  1  0  0  0
  6 93  1  0  0  0
  6 94  1  0  0  0
  7  8  2  0  0  0
  7 26  1  0  0  0
  7 29  1  0  0  0
  8  9  1  0  0  0
  8 22  1  0  0  0
  9 10  1  0  0  0
  9 27  2  0  0  0
 10 11  2  0  0  0
 10 15  1  0  0  0
 11 12  1  0  0  0
 11 95  1  0  0  0
 12 13  2  0  0  0
 12 96  1  0  0  0
 13 14  1  0  0  0
 13 31  1  0  0  0
 14 15  2  0  0  0
 14 97  1  0  0  0
 15 98  1  0  0  0
 16 17  2  0  0  0
 16 21  1  0  0  0
 16 31  1  0  0  0
 17 18  1  0  0  0
 17 99  1  0  0  0
 18 19  2  0  0  0
 18100  1  0  0  0
 19 20  1  0  0  0
 19 24  1  0  0  0
 20 21  2  0  0  0
 20101  1  0  0  0
 21 23  1  0  0  0
 22 28  1  0  0  0
 22 32  2  0  0  0
 26 27  1  0  0  0
 28102  1  0  0  0
 28103  1  0  0  0
 29104  1  0  0  0
 29105  1  0  0  0
 33 34  1  0  0  0
 33 66  1  0  0  0
 33 70  2  0  0  0
 34 36  1  0  0  0
 34 59  1  0  0  0
 34106  1  0  0  0
 35 44  2  0  0  0
 35 45  1  0  0  0
 35 68  1  0  0  0
 36 56  1  0  0  0
 36107  1  0  0  0
 37 39  1  0  0  0
 37 47  1  0  0  0
 37 66  1  0  0  0
 37108  1  0  0  0
 38 43  2  0  0  0
 38 46  1  0  0  0
 38 47  1  0  0  0
 39 64  1  0  0  0
 39 67  2  0  0  0
 40 52  1  0  0  0
 40 53  2  0  0  0
 40 58  1  0  0  0
 41109  1  0  0  0
 41110  1  0  0  0
 41111  1  0  0  0
 41 48  1  0  0  0
 42 43  1  0  0  0
 42 66  1  0  0  0
 42112  1  0  0  0
 42113  1  0  0  0
 43 44  1  0  0  0
 44114  1  0  0  0
 45 46  2  0  0  0
 45115  1  0  0  0
 46116  1  0  0  0
 47117  1  0  0  0
 47118  1  0  0  0
 48 56  1  0  0  0
 48 65  1  0  0  0
 48119  1  0  0  0
 49 50  1  0  0  0
 49 53  1  0  0  0
 49 64  1  0  0  0
 49120  1  0  0  0
 50 51  1  0  0  0
 50121  1  0  0  0
 50122  1  0  0  0
 51 52  1  0  0  0
 51123  1  0  0  0
 51124  1  0  0  0
 52125  1  0  0  0
 52126  1  0  0  0
 53 54  1  0  0  0
 54 55  2  0  0  0
 54127  1  0  0  0
 55 57  1  0  0  0
 55128  1  0  0  0
 56 69  2  0  0  0
 57 58  2  0  0  0
 57129  1  0  0  0
 58130  1  0  0  0
 59 60  1  0  0  0
 59 61  1  0  0  0
 59 62  1  0  0  0
 60131  1  0  0  0
 60132  1  0  0  0
 60133  1  0  0  0
 61134  1  0  0  0
 61135  1  0  0  0
 61136  1  0  0  0
 62137  1  0  0  0
 62138  1  0  0  0
 62139  1  0  0  0
 63 65  1  0  0  0
 63140  1  0  0  0
 63141  1  0  0  0
 63142  1  0  0  0
 64143  1  0  0  0
 65144  1  0  0  0
 68 81  1  0  0  0
 71 73  2  0  0  0
 71 75  1  0  0  0
 71145  1  0  0  0
 72 75  2  0  0  0
 72 76  1  0  0  0
 72146  1  0  0  0
 73 74  1  0  0  0
 73 77  1  0  0  0
 74 76  2  0  0  0
 74 79  1  0  0  0
 75 82  1  0  0  0
 76 85  1  0  0  0
 77 83  1  0  0  0
 77 84  2  0  0  0
 78 85  1  0  0  0
 78147  1  0  0  0
 78148  1  0  0  0
 78149  1  0  0  0
 79 80  1  0  0  0
 79150  1  0  0  0
 79151  1  0  0  0
 80 81  1  0  0  0
 80152  1  0  0  0
 80153  1  0  0  0
 81154  1  0  0  0
 81155  1  0  0  0
 82156  1  0  0  0
M  CHG  1  83  -1
M  ISO  4   1 100  68 101  81 101  82 100
M  END
> <chiral flag>
0

> <version>
0

> <s_m_source_file>
/data/baiqing/PycharmProjects/Reinvent-master-3.2/result/LINK_invent/BTK/process_docking_weight1_custom_product_contain_oxygen_bond_distance_aromatic_linkinvent_7_9_3/rearranged_h_0103.sdf

> <i_m_source_file_index>
85

> <r_mmod_Potential_Energy-OPLS-2005>
39.5684661865234

> <r_mmod_Stretch_Energy-OPLS-2005>
191.541732788086

> <r_mmod_Bend_Energy-OPLS-2005>
247.992126464844

> <r_mmod_Torsional_Energy-OPLS-2005>
250.242630004883

> <r_mmod_Improper_Torsional_Energy-OPLS-2005>
5.97939252853394

> <r_mmod_Van_der_Waal_Energy-OPLS-2005>
141.211349487305

> <r_mmod_Electrostatic_Energy-OPLS-2005>
-423.094512939453

> <r_mmod_Solvation_Energy-OPLS-2005>
-518.660339355469

> <b_mmod_Minimization_Converged-OPLS-2005>
0

> <r_mmod_RMS_Derivative-OPLS-2005>
3.64869809150696

$$$$
85
                    3D
 Structure written by MMmdl.
161169  0  0  1  0            999 V2000
  -30.7055  -14.5488   20.3225 C   0  0  0  0  0  0
  -30.4131  -12.3021   19.4163 C   0  0  0  0  0  0
  -29.4753  -12.3852   18.1958 C   0  0  0  0  0  0
  -27.9981  -12.3014   18.6288 C   0  0  0  0  0  0
  -27.6442  -13.1919   19.8529 C   0  0  2  0  0  0
  -28.7131  -13.1179   20.9586 C   0  0  0  0  0  0
  -25.2576  -13.8114   20.5791 C   0  0  0  0  0  0
  -24.1811  -13.0405   20.9239 C   0  0  0  0  0  0
  -24.6354  -11.6874   20.8793 C   0  0  0  0  0  0
  -23.9020  -10.4270   21.0429 C   0  0  0  0  0  0
  -24.3585   -9.4186   21.9197 C   0  0  0  0  0  0
  -23.6270   -8.2216   22.0750 C   0  0  0  0  0  0
  -22.4251   -8.0265   21.3542 C   0  0  0  0  0  0
  -21.9889   -9.0237   20.4637 C   0  0  0  0  0  0
  -22.7207  -10.2124   20.3058 C   0  0  0  0  0  0
  -21.6847   -6.0724   22.5279 C   0  0  0  0  0  0
  -21.4010   -6.5632   23.8213 C   0  0  0  0  0  0
  -21.3655   -5.6786   24.9176 C   0  0  0  0  0  0
  -21.6046   -4.3049   24.7226 C   0  0  0  0  0  0
  -21.8824   -3.8141   23.4346 C   0  0  0  0  0  0
  -21.9190   -4.6952   22.3401 C   0  0  0  0  0  0
  -22.7838  -13.5221   21.1878 C   0  0  0  0  0  0
  -22.1658   -4.2138   21.0979 F   0  0  0  0  0  0
  -21.5631   -3.4536   25.7741 F   0  0  0  0  0  0
  -30.0205  -13.3715   20.3401 N   0  0  0  0  0  0
  -26.2975  -12.9248   20.3432 N   0  0  0  0  0  0
  -25.9286  -11.6432   20.5873 N   0  0  0  0  0  0
  -22.0474  -12.8200   22.0416 N   0  0  0  0  0  0
  -25.4291  -15.1830   20.4273 N   0  0  0  0  0  0
  -31.9309  -14.5891   20.4357 O   0  0  0  0  0  0
  -21.6624   -6.8857   21.4237 O   0  0  0  0  0  0
  -22.3528  -14.5531   20.6728 O   0  0  0  0  0  0
  -24.6145  -31.8679   23.2093 C   0  0  0  0  0  0
  -25.9041  -32.4820   23.8389 C   0  0  1  0  0  0
  -27.2324  -27.4352   20.1032 C   0  0  0  0  0  0
  -25.5904  -33.8619   24.2331 N   0  0  0  0  0  0
  -23.4031  -30.4898   21.5499 C   0  0  2  0  0  0
  -24.8505  -28.9531   20.1153 C   0  0  0  0  0  0
  -22.7415  -29.4650   22.4989 C   0  0  0  0  0  0
  -18.0278  -28.1374   22.8490 C   0  0  0  0  0  0
  -24.1486  -36.7313   23.2635 C   0  0  0  0  0  0
  -25.9301  -30.8345   21.3603 C   0  0  0  0  0  0
  -26.0100  -29.4677   20.7103 C   0  0  0  0  0  0
  -27.2075  -28.7168   20.6986 C   0  0  0  0  0  0
  -26.0602  -26.9324   19.5021 C   0  0  0  0  0  0
  -24.8700  -27.6855   19.5064 C   0  0  0  0  0  0
  -23.6117  -29.8201   20.1648 C   0  0  0  0  0  0
  -25.4105  -36.3113   24.0338 C   0  0  1  0  0  0
  -20.5863  -28.3665   23.1321 C   0  0  2  0  0  0
  -20.6770  -26.9404   22.5420 C   0  0  0  0  0  0
  -19.5751  -26.6388   21.5213 C   0  0  0  0  0  0
  -18.1925  -26.7921   22.1620 C   0  0  0  0  0  0
  -19.1522  -28.8837   23.2903 C   0  0  0  0  0  0
  -18.9446  -30.1442   23.8917 C   0  0  0  0  0  0
  -17.6449  -30.6586   24.0562 C   0  0  0  0  0  0
  -25.9035  -34.9478   23.5133 C   0  0  0  0  0  0
  -16.5344  -29.9084   23.6318 C   0  0  0  0  0  0
  -16.7265  -28.6496   23.0347 C   0  0  0  0  0  0
  -26.4475  -31.6581   25.0707 C   0  0  0  0  0  0
  -25.3757  -31.3662   26.1464 C   0  0  0  0  0  0
  -27.0301  -30.3035   24.6051 C   0  0  0  0  0  0
  -27.6058  -32.4293   25.7474 C   0  0  0  0  0  0
  -27.5584  -37.1809   24.8462 C   0  0  0  0  0  0
  -21.4143  -29.3027   22.3724 N   0  0  0  0  0  0
  -26.4292  -37.3798   23.9412 N   0  0  0  0  0  0
  -24.6676  -31.0777   22.0994 N   0  0  0  0  0  0
  -23.4182  -28.8195   23.3039 O   0  0  0  0  0  0
  -28.3846  -26.6823   20.0954 O   0  0  0  0  0  0
  -26.5592  -34.8928   22.4690 O   0  0  0  0  0  0
  -23.5339  -32.1422   23.7491 O   0  0  0  0  0  0
  -27.0918  -17.8944   19.2081 C   0  0  0  0  0  0
  -27.4333  -18.8465   20.1773 C   0  0  0  0  0  0
  -29.4788  -17.6079   20.6483 C   0  0  0  0  0  0
  -29.1506  -16.6234   19.6760 C   0  0  0  0  0  0
  -27.9568  -16.8223   18.9083 C   0  0  0  0  0  0
  -28.6542  -18.7428   20.8593 C   0  0  0  0  0  0
  -30.1760  -15.5913   19.3084 C   0  0  0  0  0  0
  -27.5598  -15.9846   17.6939 C   0  0  0  0  0  0
  -28.9720  -22.9710   21.0051 C   0  0  0  0  0  0
  -29.6156  -21.7567   20.2890 C   0  0  0  0  0  0
  -28.8215  -24.2336   20.1111 C   0  0  0  0  0  0
  -30.0769  -20.6008   21.2175 C   0  0  0  0  0  0
  -28.3277  -25.4804   20.8821 C   0  0  0  0  0  0
  -30.6935  -15.6607   18.1494 N   0  0  0  0  0  0
  -29.0108  -19.7749   21.6955 O   0  0  0  0  0  0
  -31.4531  -12.3953   19.0975 H   0  0  0  0  0  0
  -30.3287  -11.3307   19.9052 H   0  0  0  0  0  0
  -29.6999  -11.5692   17.5072 H   0  0  0  0  0  0
  -29.6503  -13.2957   17.6278 H   0  0  0  0  0  0
  -27.7993  -11.2561   18.8685 H   0  0  0  0  0  0
  -27.3465  -12.5435   17.7880 H   0  0  0  0  0  0
  -27.6416  -14.2131   19.5070 H   0  0  0  0  0  0
  -28.7115  -12.1385   21.4388 H   0  0  0  0  0  0
  -28.5089  -13.8522   21.7398 H   0  0  0  0  0  0
  -25.2730   -9.5674   22.4769 H   0  0  0  0  0  0
  -23.9994   -7.4603   22.7453 H   0  0  0  0  0  0
  -21.0833   -8.8748   19.8926 H   0  0  0  0  0  0
  -22.3668  -10.9667   19.6168 H   0  0  0  0  0  0
  -21.2005   -7.6146   23.9714 H   0  0  0  0  0  0
  -21.1473   -6.0514   25.9076 H   0  0  0  0  0  0
  -22.0607   -2.7602   23.2850 H   0  0  0  0  0  0
  -22.4085  -11.9847   22.4773 H   0  0  0  0  0  0
  -21.1093  -13.1223   22.2639 H   0  0  0  0  0  0
  -24.6671  -15.8385   20.5582 H   0  0  0  0  0  0
  -26.2911  -15.6344   20.1459 H   0  0  0  0  0  0
  -26.7111  -32.5531   23.1153 H   0  0  0  0  0  0
  -25.0090  -33.9776   25.0501 H   0  0  0  0  0  0
  -22.6921  -31.3067   21.4103 H   0  0  0  0  0  0
  -23.3758  -35.9633   23.3285 H   0  0  0  0  0  0
  -24.3589  -36.8944   22.2055 H   0  0  0  0  0  0
  -23.7226  -37.6507   23.6660 H   0  0  0  0  0  0
  -26.0382  -31.5980   20.5885 H   0  0  0  0  0  0
  -26.8206  -30.8927   21.9742 H   0  0  0  0  0  0
  -28.1051  -29.1078   21.1568 H   0  0  0  0  0  0
  -26.0700  -25.9601   19.0291 H   0  0  0  0  0  0
  -23.9797  -27.2852   19.0414 H   0  0  0  0  0  0
  -23.7199  -30.5946   19.4042 H   0  0  0  0  0  0
  -22.7355  -29.2401   19.8695 H   0  0  0  0  0  0
  -25.1276  -36.1985   25.0830 H   0  0  0  0  0  0
  -20.9957  -28.3235   24.1442 H   0  0  0  0  0  0
  -20.5687  -26.2269   23.3600 H   0  0  0  0  0  0
  -21.6640  -26.7459   22.1210 H   0  0  0  0  0  0
  -19.6920  -25.6305   21.1229 H   0  0  0  0  0  0
  -19.6691  -27.3204   20.6745 H   0  0  0  0  0  0
  -17.4203  -26.6674   21.4019 H   0  0  0  0  0  0
  -18.0324  -26.0057   22.9008 H   0  0  0  0  0  0
  -19.7920  -30.7249   24.2305 H   0  0  0  0  0  0
  -17.5003  -31.6266   24.5161 H   0  0  0  0  0  0
  -15.5344  -30.2997   23.7623 H   0  0  0  0  0  0
  -15.8660  -28.0820   22.7057 H   0  0  0  0  0  0
  -24.5946  -30.6993   25.7801 H   0  0  0  0  0  0
  -24.8926  -32.2800   26.4933 H   0  0  0  0  0  0
  -25.8134  -30.8827   27.0207 H   0  0  0  0  0  0
  -26.2824  -29.6797   24.1144 H   0  0  0  0  0  0
  -27.4132  -29.7268   25.4475 H   0  0  0  0  0  0
  -27.8631  -30.4365   23.9145 H   0  0  0  0  0  0
  -27.2698  -33.3600   26.2057 H   0  0  0  0  0  0
  -28.3873  -32.6838   25.0304 H   0  0  0  0  0  0
  -28.0717  -31.8405   26.5385 H   0  0  0  0  0  0
  -28.2592  -38.0119   24.7549 H   0  0  0  0  0  0
  -28.1098  -36.2660   24.6247 H   0  0  0  0  0  0
  -27.2310  -37.1405   25.8865 H   0  0  0  0  0  0
  -20.9309  -29.8745   21.6935 H   0  0  0  0  0  0
  -26.0186  -38.2872   24.1437 H   0  0  0  0  0  0
  -26.1785  -18.0301   18.6446 H   0  0  0  0  0  0
  -26.7856  -19.6942   20.3509 H   0  0  0  0  0  0
  -30.4179  -17.5400   21.1800 H   0  0  0  0  0  0
  -26.5563  -15.5775   17.8216 H   0  0  0  0  0  0
  -28.2215  -15.1497   17.4786 H   0  0  0  0  0  0
  -27.5412  -16.6161   16.8052 H   0  0  0  0  0  0
  -29.5877  -23.2335   21.8659 H   0  0  0  0  0  0
  -27.9999  -22.6819   21.4064 H   0  0  0  0  0  0
  -30.5018  -22.1156   19.7632 H   0  0  0  0  0  0
  -28.9518  -21.3757   19.5120 H   0  0  0  0  0  0
  -28.1417  -24.0241   19.2843 H   0  0  0  0  0  0
  -29.7862  -24.4670   19.6585 H   0  0  0  0  0  0
  -30.6039  -21.0117   22.0790 H   0  0  0  0  0  0
  -30.8167  -19.9925   20.6938 H   0  0  0  0  0  0
  -28.9697  -25.6400   21.7486 H   0  0  0  0  0  0
  -27.3295  -25.2901   21.2817 H   0  0  0  0  0  0
  -30.2782  -16.4190   17.6218 H   0  0  0  0  0  0
  1 25  1  0  0  0
  1 30  2  0  0  0
  1 77  1  0  0  0
  2  3  1  0  0  0
  2 25  1  0  0  0
  2 86  1  0  0  0
  2 87  1  0  0  0
  3  4  1  0  0  0
  3 88  1  0  0  0
  3 89  1  0  0  0
  4  5  1  0  0  0
  4 90  1  0  0  0
  4 91  1  0  0  0
  5  6  1  0  0  0
  5 26  1  0  0  0
  5 92  1  0  0  0
  6 25  1  0  0  0
  6 93  1  0  0  0
  6 94  1  0  0  0
  7  8  2  0  0  0
  7 26  1  0  0  0
  7 29  1  0  0  0
  8  9  1  0  0  0
  8 22  1  0  0  0
  9 10  1  0  0  0
  9 27  2  0  0  0
 10 11  2  0  0  0
 10 15  1  0  0  0
 11 12  1  0  0  0
 11 95  1  0  0  0
 12 13  2  0  0  0
 12 96  1  0  0  0
 13 14  1  0  0  0
 13 31  1  0  0  0
 14 15  2  0  0  0
 14 97  1  0  0  0
 15 98  1  0  0  0
 16 17  2  0  0  0
 16 21  1  0  0  0
 16 31  1  0  0  0
 17 18  1  0  0  0
 17 99  1  0  0  0
 18 19  2  0  0  0
 18100  1  0  0  0
 19 20  1  0  0  0
 19 24  1  0  0  0
 20 21  2  0  0  0
 20101  1  0  0  0
 21 23  1  0  0  0
 22 28  1  0  0  0
 22 32  2  0  0  0
 26 27  1  0  0  0
 28102  1  0  0  0
 28103  1  0  0  0
 29104  1  0  0  0
 29105  1  0  0  0
 33 34  1  0  0  0
 33 66  1  0  0  0
 33 70  2  0  0  0
 34 36  1  0  0  0
 34 59  1  0  0  0
 34106  1  0  0  0
 35 44  2  0  0  0
 35 45  1  0  0  0
 35 68  1  0  0  0
 36 56  1  0  0  0
 36107  1  0  0  0
 37 39  1  0  0  0
 37 47  1  0  0  0
 37 66  1  0  0  0
 37108  1  0  0  0
 38 43  2  0  0  0
 38 46  1  0  0  0
 38 47  1  0  0  0
 39 64  1  0  0  0
 39 67  2  0  0  0
 40 52  1  0  0  0
 40 53  2  0  0  0
 40 58  1  0  0  0
 41109  1  0  0  0
 41110  1  0  0  0
 41111  1  0  0  0
 41 48  1  0  0  0
 42 43  1  0  0  0
 42 66  1  0  0  0
 42112  1  0  0  0
 42113  1  0  0  0
 43 44  1  0  0  0
 44114  1  0  0  0
 45 46  2  0  0  0
 45115  1  0  0  0
 46116  1  0  0  0
 47117  1  0  0  0
 47118  1  0  0  0
 48 56  1  0  0  0
 48 65  1  0  0  0
 48119  1  0  0  0
 49 50  1  0  0  0
 49 53  1  0  0  0
 49 64  1  0  0  0
 49120  1  0  0  0
 50 51  1  0  0  0
 50121  1  0  0  0
 50122  1  0  0  0
 51 52  1  0  0  0
 51123  1  0  0  0
 51124  1  0  0  0
 52125  1  0  0  0
 52126  1  0  0  0
 53 54  1  0  0  0
 54 55  2  0  0  0
 54127  1  0  0  0
 55 57  1  0  0  0
 55128  1  0  0  0
 56 69  2  0  0  0
 57 58  2  0  0  0
 57129  1  0  0  0
 58130  1  0  0  0
 59 60  1  0  0  0
 59 61  1  0  0  0
 59 62  1  0  0  0
 60131  1  0  0  0
 60132  1  0  0  0
 60133  1  0  0  0
 61134  1  0  0  0
 61135  1  0  0  0
 61136  1  0  0  0
 62137  1  0  0  0
 62138  1  0  0  0
 62139  1  0  0  0
 63 65  1  0  0  0
 63140  1  0  0  0
 63141  1  0  0  0
 63142  1  0  0  0
 64143  1  0  0  0
 65144  1  0  0  0
 68 83  1  0  0  0
 71 72  2  0  0  0
 71 75  1  0  0  0
 71145  1  0  0  0
 72 76  1  0  0  0
 72146  1  0  0  0
 73 74  1  0  0  0
 73 76  2  0  0  0
 73147  1  0  0  0
 74 75  2  0  0  0
 74 77  1  0  0  0
 75 78  1  0  0  0
 76 85  1  0  0  0
 77 84  2  0  0  0
 78148  1  0  0  0
 78149  1  0  0  0
 78150  1  0  0  0
 79 80  1  0  0  0
 79 81  1  0  0  0
 79151  1  0  0  0
 79152  1  0  0  0
 80 82  1  0  0  0
 80153  1  0  0  0
 80154  1  0  0  0
 81 83  1  0  0  0
 81155  1  0  0  0
 81156  1  0  0  0
 82 85  1  0  0  0
 82157  1  0  0  0
 82158  1  0  0  0
 83159  1  0  0  0
 83160  1  0  0  0
 84161  1  0  0  0
M  ISO  4   1 100  68 101  77 100  83 101
M  END
> <chiral flag>
0

> <version>
0

> <s_m_source_file>
/data/baiqing/PycharmProjects/Reinvent-master-3.2/result/LINK_invent/BTK/process_docking_weight1_custom_product_contain_oxygen_bond_distance_aromatic_linkinvent_7_9_3/rearranged_h_0103.sdf

> <i_m_source_file_index>
86

> <r_mmod_Potential_Energy-OPLS-2005>
297.597625732422

> <r_mmod_Stretch_Energy-OPLS-2005>
43.3147239685059

> <r_mmod_Bend_Energy-OPLS-2005>
114.499656677246

> <r_mmod_Torsional_Energy-OPLS-2005>
330.691650390625

> <r_mmod_Improper_Torsional_Energy-OPLS-2005>
33.78955078125

> <r_mmod_Van_der_Waal_Energy-OPLS-2005>
138.526016235352

> <r_mmod_Electrostatic_Energy-OPLS-2005>
-217.778823852539

> <r_mmod_Solvation_Energy-OPLS-2005>
-197.174377441406

> <b_mmod_Minimization_Converged-OPLS-2005>
0

> <r_mmod_RMS_Derivative-OPLS-2005>
1.32401049137115

$$$$
86
                    3D
 Structure written by MMmdl.
163172  0  0  1  0            999 V2000
  -30.7644  -14.3953   20.5767 C   0  0  0  0  0  0
  -30.4034  -12.2652   19.4178 C   0  0  0  0  0  0
  -29.4873  -12.4932   18.2009 C   0  0  0  0  0  0
  -28.0046  -12.3728   18.6073 C   0  0  0  0  0  0
  -27.6572  -13.2058   19.8706 C   0  0  2  0  0  0
  -28.6970  -12.9657   20.9859 C   0  0  0  0  0  0
  -25.2564  -13.8189   20.5665 C   0  0  0  0  0  0
  -24.1814  -13.0450   20.9158 C   0  0  0  0  0  0
  -24.6364  -11.6918   20.8720 C   0  0  0  0  0  0
  -23.9037  -10.4293   21.0409 C   0  0  0  0  0  0
  -24.3602   -9.4211   21.9185 C   0  0  0  0  0  0
  -23.6284   -8.2240   22.0752 C   0  0  0  0  0  0
  -22.4269   -8.0264   21.3541 C   0  0  0  0  0  0
  -21.9896   -9.0240   20.4649 C   0  0  0  0  0  0
  -22.7209  -10.2128   20.3061 C   0  0  0  0  0  0
  -21.6845   -6.0733   22.5290 C   0  0  0  0  0  0
  -21.4012   -6.5641   23.8227 C   0  0  0  0  0  0
  -21.3658   -5.6794   24.9190 C   0  0  0  0  0  0
  -21.6045   -4.3057   24.7238 C   0  0  0  0  0  0
  -21.8806   -3.8149   23.4357 C   0  0  0  0  0  0
  -21.9188   -4.6965   22.3413 C   0  0  0  0  0  0
  -22.7842  -13.5247   21.1838 C   0  0  0  0  0  0
  -22.1646   -4.2149   21.0992 F   0  0  0  0  0  0
  -21.5632   -3.4535   25.7751 F   0  0  0  0  0  0
  -30.0278  -13.2607   20.4335 N   0  0  0  0  0  0
  -26.2984  -12.9340   20.3342 N   0  0  0  0  0  0
  -25.9285  -11.6497   20.5749 N   0  0  0  0  0  0
  -22.0490  -12.8245   22.0413 N   0  0  0  0  0  0
  -25.4299  -15.1904   20.4095 N   0  0  0  0  0  0
  -31.9275  -14.4616   20.1634 O   0  0  0  0  0  0
  -21.6630   -6.8864   21.4243 O   0  0  0  0  0  0
  -22.3509  -14.5535   20.6682 O   0  0  0  0  0  0
  -24.6121  -31.8712   23.2165 C   0  0  0  0  0  0
  -25.9017  -32.4856   23.8443 C   0  0  1  0  0  0
  -27.2277  -27.4730   20.0618 C   0  0  0  0  0  0
  -25.5886  -33.8661   24.2350 N   0  0  0  0  0  0
  -23.3965  -30.5001   21.5569 C   0  0  2  0  0  0
  -24.8381  -28.9765   20.1151 C   0  0  0  0  0  0
  -22.7389  -29.4678   22.5007 C   0  0  0  0  0  0
  -18.0253  -28.1382   22.8490 C   0  0  0  0  0  0
  -24.1486  -36.7342   23.2630 C   0  0  0  0  0  0
  -25.9244  -30.8453   21.3667 C   0  0  0  0  0  0
  -25.9982  -29.4825   20.7133 C   0  0  0  0  0  0
  -27.1930  -28.7336   20.6934 C   0  0  0  0  0  0
  -26.0427  -26.9759   19.4645 C   0  0  0  0  0  0
  -24.8522  -27.7188   19.4942 C   0  0  0  0  0  0
  -23.6033  -29.8418   20.1682 C   0  0  0  0  0  0
  -25.4108  -36.3141   24.0330 C   0  0  1  0  0  0
  -20.5843  -28.3657   23.1341 C   0  0  2  0  0  0
  -20.6761  -26.9408   22.5407 C   0  0  0  0  0  0
  -19.5740  -26.6401   21.5199 C   0  0  0  0  0  0
  -18.1907  -26.7943   22.1599 C   0  0  0  0  0  0
  -19.1498  -28.8838   23.2919 C   0  0  0  0  0  0
  -18.9423  -30.1444   23.8929 C   0  0  0  0  0  0
  -17.6418  -30.6582   24.0576 C   0  0  0  0  0  0
  -25.9027  -34.9501   23.5131 C   0  0  0  0  0  0
  -16.5317  -29.9083   23.6324 C   0  0  0  0  0  0
  -16.7237  -28.6513   23.0325 C   0  0  0  0  0  0
  -26.4445  -31.6641   25.0762 C   0  0  0  0  0  0
  -25.3719  -31.3731   26.1506 C   0  0  0  0  0  0
  -27.0249  -30.3092   24.6111 C   0  0  0  0  0  0
  -27.6045  -32.4338   25.7508 C   0  0  0  0  0  0
  -27.5581  -37.1837   24.8454 C   0  0  0  0  0  0
  -21.4113  -29.3054   22.3778 N   0  0  0  0  0  0
  -26.4304  -37.3817   23.9389 N   0  0  0  0  0  0
  -24.6632  -31.0841   22.1063 N   0  0  0  0  0  0
  -23.4189  -28.8186   23.2992 O   0  0  0  0  0  0
  -28.4097  -26.7670   20.0610 O   0  0  0  0  0  0
  -26.5583  -34.8933   22.4687 O   0  0  0  0  0  0
  -23.5326  -32.1433   23.7588 O   0  0  0  0  0  0
  -30.2265  -19.0471   20.7725 C   0  0  0  0  0  0
  -28.6124  -18.1094   19.2041 C   0  0  0  0  0  0
  -29.5667  -20.2842   20.7167 C   0  0  0  0  0  0
  -27.9556  -19.3536   19.1464 C   0  0  0  0  0  0
  -29.7615  -17.9654   20.0041 C   0  0  0  0  0  0
  -28.4340  -20.4587   19.8872 C   0  0  0  0  0  0
  -28.1522  -24.5420   19.2348 C   0  0  0  0  0  0
  -28.5996  -25.8046   19.1076 C   0  0  0  0  0  0
  -27.3874  -24.0524   20.4578 C   0  0  0  0  0  0
  -28.3642  -23.5102   18.1381 C   0  0  0  0  0  0
  -27.8638  -22.6601   20.8724 C   0  0  0  0  0  0
  -27.5918  -22.2031   18.3910 C   0  0  0  0  0  0
  -29.4347  -15.8722   22.0471 C   0  0  0  0  0  0
  -30.5713  -16.6901   19.9729 C   0  0  0  0  0  0
  -27.7981  -21.7075   19.7575 N   0  0  0  0  0  0
  -30.0805  -15.5484   20.7683 N   0  0  0  0  0  0
  -31.4504  -12.3254   19.1149 H   0  0  0  0  0  0
  -30.2715  -11.2569   19.8117 H   0  0  0  0  0  0
  -29.7215  -11.7752   17.4121 H   0  0  0  0  0  0
  -29.6748  -13.4828   17.7806 H   0  0  0  0  0  0
  -27.7989  -11.3168   18.7900 H   0  0  0  0  0  0
  -27.3633  -12.6655   17.7760 H   0  0  0  0  0  0
  -27.7064  -14.2567   19.5838 H   0  0  0  0  0  0
  -28.6659  -11.9241   21.3088 H   0  0  0  0  0  0
  -28.4544  -13.5379   21.8776 H   0  0  0  0  0  0
  -25.2749   -9.5688   22.4754 H   0  0  0  0  0  0
  -23.9989   -7.4637   22.7477 H   0  0  0  0  0  0
  -21.0819   -8.8758   19.8965 H   0  0  0  0  0  0
  -22.3663  -10.9661   19.6169 H   0  0  0  0  0  0
  -21.1996   -7.6152   23.9725 H   0  0  0  0  0  0
  -21.1495   -6.0534   25.9095 H   0  0  0  0  0  0
  -22.0586   -2.7607   23.2871 H   0  0  0  0  0  0
  -22.4092  -11.9905   22.4805 H   0  0  0  0  0  0
  -21.1119  -13.1301   22.2628 H   0  0  0  0  0  0
  -24.6677  -15.8491   20.5255 H   0  0  0  0  0  0
  -26.2980  -15.6350   20.1370 H   0  0  0  0  0  0
  -26.7085  -32.5566   23.1213 H   0  0  0  0  0  0
  -25.0059  -33.9842   25.0507 H   0  0  0  0  0  0
  -22.6823  -31.3153   21.4239 H   0  0  0  0  0  0
  -23.3743  -35.9683   23.3328 H   0  0  0  0  0  0
  -24.3566  -36.8925   22.2035 H   0  0  0  0  0  0
  -23.7246  -37.6564   23.6622 H   0  0  0  0  0  0
  -26.0267  -31.6138   20.5983 H   0  0  0  0  0  0
  -26.8189  -30.9001   21.9774 H   0  0  0  0  0  0
  -28.0921  -29.1204   21.1531 H   0  0  0  0  0  0
  -26.0156  -26.0237   18.9575 H   0  0  0  0  0  0
  -23.9595  -27.3285   19.0237 H   0  0  0  0  0  0
  -23.7126  -30.6200   19.4124 H   0  0  0  0  0  0
  -22.7268  -29.2652   19.8685 H   0  0  0  0  0  0
  -25.1288  -36.2028   25.0829 H   0  0  0  0  0  0
  -20.9925  -28.3193   24.1459 H   0  0  0  0  0  0
  -20.5729  -26.2228   23.3559 H   0  0  0  0  0  0
  -21.6622  -26.7504   22.1156 H   0  0  0  0  0  0
  -19.6908  -25.6321   21.1199 H   0  0  0  0  0  0
  -19.6683  -27.3238   20.6753 H   0  0  0  0  0  0
  -17.4182  -26.6727   21.3999 H   0  0  0  0  0  0
  -18.0282  -26.0082   22.8988 H   0  0  0  0  0  0
  -19.7891  -30.7254   24.2302 H   0  0  0  0  0  0
  -17.4962  -31.6261   24.5181 H   0  0  0  0  0  0
  -15.5321  -30.2978   23.7645 H   0  0  0  0  0  0
  -15.8638  -28.0863   22.6982 H   0  0  0  0  0  0
  -24.5894  -30.7075   25.7832 H   0  0  0  0  0  0
  -24.8905  -32.2881   26.4982 H   0  0  0  0  0  0
  -25.8084  -30.8881   27.0243 H   0  0  0  0  0  0
  -26.2778  -29.6905   24.1124 H   0  0  0  0  0  0
  -27.3958  -29.7287   25.4563 H   0  0  0  0  0  0
  -27.8644  -30.4413   23.9281 H   0  0  0  0  0  0
  -27.2687  -33.3609   26.2159 H   0  0  0  0  0  0
  -28.3822  -32.6941   25.0319 H   0  0  0  0  0  0
  -28.0741  -31.8412   26.5363 H   0  0  0  0  0  0
  -28.2625  -38.0113   24.7483 H   0  0  0  0  0  0
  -28.1061  -36.2646   24.6323 H   0  0  0  0  0  0
  -27.2285  -37.1525   25.8855 H   0  0  0  0  0  0
  -20.9258  -29.8806   21.7033 H   0  0  0  0  0  0
  -26.0208  -38.2903   24.1399 H   0  0  0  0  0  0
  -31.1154  -18.9470   21.3802 H   0  0  0  0  0  0
  -28.2572  -17.2825   18.6051 H   0  0  0  0  0  0
  -29.9940  -21.0907   21.2904 H   0  0  0  0  0  0
  -27.0868  -19.4585   18.5113 H   0  0  0  0  0  0
  -29.1353  -26.1784   18.2461 H   0  0  0  0  0  0
  -26.3241  -24.0155   20.2166 H   0  0  0  0  0  0
  -27.4919  -24.7511   21.2895 H   0  0  0  0  0  0
  -29.4312  -23.2947   18.0809 H   0  0  0  0  0  0
  -28.0822  -23.9358   17.1730 H   0  0  0  0  0  0
  -27.2719  -22.2895   21.7104 H   0  0  0  0  0  0
  -28.8848  -22.7776   21.2287 H   0  0  0  0  0  0
  -27.8948  -21.4702   17.6408 H   0  0  0  0  0  0
  -26.5235  -22.3698   18.2401 H   0  0  0  0  0  0
  -28.3535  -15.9309   21.9185 H   0  0  0  0  0  0
  -29.6531  -15.1355   22.8224 H   0  0  0  0  0  0
  -29.7705  -16.8311   22.4417 H   0  0  0  0  0  0
  -31.5897  -16.9364   20.2815 H   0  0  0  0  0  0
  -30.6416  -16.3911   18.9230 H   0  0  0  0  0  0
  1 25  1  0  0  0
  1 30  2  0  0  0
  1 86  1  0  0  0
  2  3  1  0  0  0
  2 25  1  0  0  0
  2 87  1  0  0  0
  2 88  1  0  0  0
  3  4  1  0  0  0
  3 89  1  0  0  0
  3 90  1  0  0  0
  4  5  1  0  0  0
  4 91  1  0  0  0
  4 92  1  0  0  0
  5  6  1  0  0  0
  5 26  1  0  0  0
  5 93  1  0  0  0
  6 25  1  0  0  0
  6 94  1  0  0  0
  6 95  1  0  0  0
  7  8  2  0  0  0
  7 26  1  0  0  0
  7 29  1  0  0  0
  8  9  1  0  0  0
  8 22  1  0  0  0
  9 10  1  0  0  0
  9 27  2  0  0  0
 10 11  2  0  0  0
 10 15  1  0  0  0
 11 12  1  0  0  0
 11 96  1  0  0  0
 12 13  2  0  0  0
 12 97  1  0  0  0
 13 14  1  0  0  0
 13 31  1  0  0  0
 14 15  2  0  0  0
 14 98  1  0  0  0
 15 99  1  0  0  0
 16 17  2  0  0  0
 16 21  1  0  0  0
 16 31  1  0  0  0
 17 18  1  0  0  0
 17100  1  0  0  0
 18 19  2  0  0  0
 18101  1  0  0  0
 19 20  1  0  0  0
 19 24  1  0  0  0
 20 21  2  0  0  0
 20102  1  0  0  0
 21 23  1  0  0  0
 22 28  1  0  0  0
 22 32  2  0  0  0
 26 27  1  0  0  0
 28103  1  0  0  0
 28104  1  0  0  0
 29105  1  0  0  0
 29106  1  0  0  0
 33 34  1  0  0  0
 33 66  1  0  0  0
 33 70  2  0  0  0
 34 36  1  0  0  0
 34 59  1  0  0  0
 34107  1  0  0  0
 35 44  2  0  0  0
 35 45  1  0  0  0
 35 68  1  0  0  0
 36 56  1  0  0  0
 36108  1  0  0  0
 37 39  1  0  0  0
 37 47  1  0  0  0
 37 66  1  0  0  0
 37109  1  0  0  0
 38 43  2  0  0  0
 38 46  1  0  0  0
 38 47  1  0  0  0
 39 64  1  0  0  0
 39 67  2  0  0  0
 40 52  1  0  0  0
 40 53  2  0  0  0
 40 58  1  0  0  0
 41110  1  0  0  0
 41111  1  0  0  0
 41112  1  0  0  0
 41 48  1  0  0  0
 42 43  1  0  0  0
 42 66  1  0  0  0
 42113  1  0  0  0
 42114  1  0  0  0
 43 44  1  0  0  0
 44115  1  0  0  0
 45 46  2  0  0  0
 45116  1  0  0  0
 46117  1  0  0  0
 47118  1  0  0  0
 47119  1  0  0  0
 48 56  1  0  0  0
 48 65  1  0  0  0
 48120  1  0  0  0
 49 50  1  0  0  0
 49 53  1  0  0  0
 49 64  1  0  0  0
 49121  1  0  0  0
 50 51  1  0  0  0
 50122  1  0  0  0
 50123  1  0  0  0
 51 52  1  0  0  0
 51124  1  0  0  0
 51125  1  0  0  0
 52126  1  0  0  0
 52127  1  0  0  0
 53 54  1  0  0  0
 54 55  2  0  0  0
 54128  1  0  0  0
 55 57  1  0  0  0
 55129  1  0  0  0
 56 69  2  0  0  0
 57 58  2  0  0  0
 57130  1  0  0  0
 58131  1  0  0  0
 59 60  1  0  0  0
 59 61  1  0  0  0
 59 62  1  0  0  0
 60132  1  0  0  0
 60133  1  0  0  0
 60134  1  0  0  0
 61135  1  0  0  0
 61136  1  0  0  0
 61137  1  0  0  0
 62138  1  0  0  0
 62139  1  0  0  0
 62140  1  0  0  0
 63 65  1  0  0  0
 63141  1  0  0  0
 63142  1  0  0  0
 63143  1  0  0  0
 64144  1  0  0  0
 65145  1  0  0  0
 68 78  1  0  0  0
 71 73  2  0  0  0
 71 75  1  0  0  0
 71146  1  0  0  0
 72 74  1  0  0  0
 72 75  2  0  0  0
 72147  1  0  0  0
 73 76  1  0  0  0
 73148  1  0  0  0
 74 76  2  0  0  0
 74149  1  0  0  0
 75 84  1  0  0  0
 76 85  1  0  0  0
 77 78  2  0  0  0
 77 79  1  0  0  0
 77 80  1  0  0  0
 78150  1  0  0  0
 79 81  1  0  0  0
 79151  1  0  0  0
 79152  1  0  0  0
 80 82  1  0  0  0
 80153  1  0  0  0
 80154  1  0  0  0
 81 85  1  0  0  0
 81155  1  0  0  0
 81156  1  0  0  0
 82 85  1  0  0  0
 82157  1  0  0  0
 82158  1  0  0  0
 83 86  1  0  0  0
 83159  1  0  0  0
 83160  1  0  0  0
 83161  1  0  0  0
 84 86  1  0  0  0
 84162  1  0  0  0
 84163  1  0  0  0
M  ISO  4   1 100  68 101  78 101  86 100
M  END
> <chiral flag>
0

> <version>
0

> <s_m_source_file>
/data/baiqing/PycharmProjects/Reinvent-master-3.2/result/LINK_invent/BTK/process_docking_weight1_custom_product_contain_oxygen_bond_distance_aromatic_linkinvent_7_9_3/rearranged_h_0103.sdf

> <i_m_source_file_index>
87

> <r_mmod_Potential_Energy-OPLS-2005>
134.744934082031

> <r_mmod_Stretch_Energy-OPLS-2005>
34.291561126709

> <r_mmod_Bend_Energy-OPLS-2005>
111.348022460938

> <r_mmod_Torsional_Energy-OPLS-2005>
305.664642333984

> <r_mmod_Improper_Torsional_Energy-OPLS-2005>
16.1558303833008

> <r_mmod_Van_der_Waal_Energy-OPLS-2005>
187.7041015625

> <r_mmod_Electrostatic_Energy-OPLS-2005>
-335.839721679688

> <r_mmod_Solvation_Energy-OPLS-2005>
-201.339416503906

> <b_mmod_Minimization_Converged-OPLS-2005>
0

> <r_mmod_RMS_Derivative-OPLS-2005>
2.33741283416748

$$$$
87
                    3D
 Structure written by MMmdl.
161170  0  0  1  0            999 V2000
  -30.6531  -14.5545   20.6010 C   0  0  0  0  0  0
  -30.4523  -12.3596   19.4388 C   0  0  0  0  0  0
  -29.5161  -12.5182   18.2199 C   0  0  0  0  0  0
  -28.0378  -12.3460   18.6271 C   0  0  0  0  0  0
  -27.6690  -13.1975   19.8714 C   0  0  2  0  0  0
  -28.7100  -12.9752   20.9909 C   0  0  0  0  0  0
  -25.2663  -13.8136   20.5693 C   0  0  0  0  0  0
  -24.1877  -13.0430   20.9155 C   0  0  0  0  0  0
  -24.6388  -11.6883   20.8655 C   0  0  0  0  0  0
  -23.9023  -10.4282   21.0336 C   0  0  0  0  0  0
  -24.3584   -9.4215   21.9136 C   0  0  0  0  0  0
  -23.6269   -8.2239   22.0720 C   0  0  0  0  0  0
  -22.4253   -8.0268   21.3528 C   0  0  0  0  0  0
  -21.9873   -9.0229   20.4628 C   0  0  0  0  0  0
  -22.7185  -10.2120   20.3014 C   0  0  0  0  0  0
  -21.6852   -6.0699   22.5267 C   0  0  0  0  0  0
  -21.4012   -6.5597   23.8195 C   0  0  0  0  0  0
  -21.3668   -5.6758   24.9164 C   0  0  0  0  0  0
  -21.6063   -4.3019   24.7209 C   0  0  0  0  0  0
  -21.8821   -3.8107   23.4330 C   0  0  0  0  0  0
  -21.9191   -4.6919   22.3384 C   0  0  0  0  0  0
  -22.7899  -13.5245   21.1803 C   0  0  0  0  0  0
  -22.1662   -4.2105   21.0965 F   0  0  0  0  0  0
  -21.5638   -3.4524   25.7732 F   0  0  0  0  0  0
  -30.0441  -13.3349   20.4639 N   0  0  0  0  0  0
  -26.3075  -12.9282   20.3328 N   0  0  0  0  0  0
  -25.9316  -11.6445   20.5679 N   0  0  0  0  0  0
  -22.0522  -12.8269   22.0374 N   0  0  0  0  0  0
  -25.4450  -15.1861   20.4144 N   0  0  0  0  0  0
  -31.7201  -14.8331   20.0424 O   0  0  0  0  0  0
  -21.6614   -6.8850   21.4237 O   0  0  0  0  0  0
  -22.3587  -14.5521   20.6595 O   0  0  0  0  0  0
  -24.6208  -31.8623   23.1994 C   0  0  0  0  0  0
  -25.9085  -32.4778   23.8301 C   0  0  1  0  0  0
  -27.2460  -27.3568   20.1262 C   0  0  0  0  0  0
  -25.5913  -33.8568   24.2238 N   0  0  0  0  0  0
  -23.4126  -30.4816   21.5435 C   0  0  2  0  0  0
  -24.8629  -28.9279   20.1205 C   0  0  0  0  0  0
  -22.7428  -29.4655   22.4973 C   0  0  0  0  0  0
  -18.0282  -28.1367   22.8501 C   0  0  0  0  0  0
  -24.1495  -36.7283   23.2645 C   0  0  0  0  0  0
  -25.9499  -30.8013   21.3654 C   0  0  0  0  0  0
  -26.0292  -29.4303   20.7115 C   0  0  0  0  0  0
  -27.2245  -28.6603   20.6986 C   0  0  0  0  0  0
  -26.0592  -26.8860   19.5224 C   0  0  0  0  0  0
  -24.8769  -27.6554   19.5188 C   0  0  0  0  0  0
  -23.6241  -29.8001   20.1646 C   0  0  0  0  0  0
  -25.4123  -36.3066   24.0322 C   0  0  1  0  0  0
  -20.5880  -28.3676   23.1293 C   0  0  2  0  0  0
  -20.6776  -26.9404   22.5419 C   0  0  0  0  0  0
  -19.5761  -26.6381   21.5217 C   0  0  0  0  0  0
  -18.1929  -26.7920   22.1616 C   0  0  0  0  0  0
  -19.1535  -28.8841   23.2892 C   0  0  0  0  0  0
  -18.9464  -30.1447   23.8898 C   0  0  0  0  0  0
  -17.6472  -30.6591   24.0555 C   0  0  0  0  0  0
  -25.9056  -34.9448   23.5075 C   0  0  0  0  0  0
  -16.5359  -29.9085   23.6328 C   0  0  0  0  0  0
  -16.7269  -28.6491   23.0358 C   0  0  0  0  0  0
  -26.4490  -31.6598   25.0675 C   0  0  0  0  0  0
  -25.3727  -31.3757   26.1400 C   0  0  0  0  0  0
  -27.0356  -30.3011   24.6170 C   0  0  0  0  0  0
  -27.6036  -32.4353   25.7444 C   0  0  0  0  0  0
  -27.5587  -37.1783   24.8456 C   0  0  0  0  0  0
  -21.4159  -29.3027   22.3667 N   0  0  0  0  0  0
  -26.4295  -37.3767   23.9405 N   0  0  0  0  0  0
  -24.6796  -31.0657   22.0918 N   0  0  0  0  0  0
  -23.4165  -28.8232   23.3071 O   0  0  0  0  0  0
  -28.4032  -26.5745   20.1023 O   0  0  0  0  0  0
  -26.5646  -34.8926   22.4654 O   0  0  0  0  0  0
  -23.5398  -32.1409   23.7371 O   0  0  0  0  0  0
  -30.3908  -17.9082   20.7991 C   0  0  0  0  0  0
  -28.7276  -19.5012   21.6301 C   0  0  0  0  0  0
  -28.4738  -17.1205   22.0774 C   0  0  0  0  0  0
  -29.9192  -19.2683   20.9095 C   0  0  0  0  0  0
  -29.6664  -16.8155   21.3864 C   0  0  0  0  0  0
  -28.0092  -18.4407   22.2019 C   0  0  0  0  0  0
  -29.7371  -22.8764   20.8393 C   0  0  0  0  0  0
  -28.8570  -23.4816   18.7270 C   0  0  0  0  0  0
  -29.5943  -22.1258   18.6713 C   0  0  0  0  0  0
  -29.3300  -24.1439   20.0239 C   0  0  1  0  0  0
  -32.0133  -20.7330   21.0277 C   0  0  0  0  0  0
  -28.3464  -25.2152   20.6620 C   0  0  0  0  0  0
  -30.6806  -20.4823   20.2951 C   0  0  2  0  0  0
  -29.9419  -21.7837   20.0492 N   0  0  0  0  0  0
  -30.0045  -15.4053   21.4293 N   0  0  0  0  0  0
  -29.9160  -22.9100   22.0592 O   0  0  0  0  0  0
  -26.8676  -18.6910   22.8875 F   0  0  0  0  0  0
  -31.4949  -12.4909   19.1456 H   0  0  0  0  0  0
  -30.3808  -11.3460   19.8398 H   0  0  0  0  0  0
  -29.7803  -11.7854   17.4563 H   0  0  0  0  0  0
  -29.6588  -13.5024   17.7705 H   0  0  0  0  0  0
  -27.8801  -11.2886   18.8449 H   0  0  0  0  0  0
  -27.3798  -12.5847   17.7908 H   0  0  0  0  0  0
  -27.7110  -14.2428   19.5649 H   0  0  0  0  0  0
  -28.7127  -11.9255   21.2917 H   0  0  0  0  0  0
  -28.4341  -13.5213   21.8913 H   0  0  0  0  0  0
  -25.2731   -9.5697   22.4691 H   0  0  0  0  0  0
  -23.9974   -7.4639   22.7447 H   0  0  0  0  0  0
  -21.0794   -8.8731   19.8953 H   0  0  0  0  0  0
  -22.3624  -10.9633   19.6098 H   0  0  0  0  0  0
  -21.2004   -7.6113   23.9697 H   0  0  0  0  0  0
  -21.1500   -6.0478   25.9068 H   0  0  0  0  0  0
  -22.0599   -2.7565   23.2829 H   0  0  0  0  0  0
  -22.4126  -11.9967   22.4841 H   0  0  0  0  0  0
  -21.1137  -13.1309   22.2509 H   0  0  0  0  0  0
  -24.6888  -15.8496   20.5414 H   0  0  0  0  0  0
  -26.3052  -15.6177   20.1010 H   0  0  0  0  0  0
  -26.7155  -32.5450   23.1051 H   0  0  0  0  0  0
  -24.9996  -33.9700   25.0335 H   0  0  0  0  0  0
  -22.7055  -31.3003   21.3946 H   0  0  0  0  0  0
  -23.3757  -35.9612   23.3296 H   0  0  0  0  0  0
  -24.3582  -36.8920   22.2060 H   0  0  0  0  0  0
  -23.7256  -37.6482   23.6681 H   0  0  0  0  0  0
  -26.0846  -31.5697   20.6033 H   0  0  0  0  0  0
  -26.8264  -30.8456   21.9983 H   0  0  0  0  0  0
  -28.1260  -29.0536   21.1478 H   0  0  0  0  0  0
  -26.0434  -25.9154   19.0463 H   0  0  0  0  0  0
  -23.9811  -27.2578   19.0616 H   0  0  0  0  0  0
  -23.7244  -30.5634   19.3927 H   0  0  0  0  0  0
  -22.7474  -29.2150   19.8811 H   0  0  0  0  0  0
  -25.1317  -36.1896   25.0819 H   0  0  0  0  0  0
  -20.9988  -28.3268   24.1407 H   0  0  0  0  0  0
  -20.5678  -26.2298   23.3616 H   0  0  0  0  0  0
  -21.6640  -26.7445   22.1217 H   0  0  0  0  0  0
  -19.6916  -25.6299   21.1234 H   0  0  0  0  0  0
  -19.6685  -27.3199   20.6752 H   0  0  0  0  0  0
  -17.4204  -26.6684   21.3998 H   0  0  0  0  0  0
  -18.0311  -26.0048   22.8998 H   0  0  0  0  0  0
  -19.7944  -30.7255   24.2256 H   0  0  0  0  0  0
  -17.5027  -31.6267   24.5158 H   0  0  0  0  0  0
  -15.5352  -30.2979   23.7665 H   0  0  0  0  0  0
  -15.8663  -28.0802   22.7078 H   0  0  0  0  0  0
  -24.5836  -30.7203   25.7700 H   0  0  0  0  0  0
  -24.9000  -32.2951   26.4860 H   0  0  0  0  0  0
  -25.8017  -30.8855   27.0146 H   0  0  0  0  0  0
  -26.2945  -29.6717   24.1225 H   0  0  0  0  0  0
  -27.4076  -29.7315   25.4704 H   0  0  0  0  0  0
  -27.8800  -30.4270   23.9383 H   0  0  0  0  0  0
  -27.2611  -33.3612   26.2064 H   0  0  0  0  0  0
  -28.3807  -32.6999   25.0266 H   0  0  0  0  0  0
  -28.0761  -31.8477   26.5319 H   0  0  0  0  0  0
  -28.2604  -38.0088   24.7527 H   0  0  0  0  0  0
  -28.1092  -36.2618   24.6253 H   0  0  0  0  0  0
  -27.2303  -37.1400   25.8861 H   0  0  0  0  0  0
  -20.9329  -29.8667   21.6804 H   0  0  0  0  0  0
  -26.0170  -38.2838   24.1405 H   0  0  0  0  0  0
  -31.3183  -17.7101   20.2774 H   0  0  0  0  0  0
  -28.3524  -20.5032   21.7676 H   0  0  0  0  0  0
  -27.8953  -16.3332   22.5373 H   0  0  0  0  0  0
  -27.7797  -23.3161   18.7608 H   0  0  0  0  0  0
  -29.0668  -24.0915   17.8487 H   0  0  0  0  0  0
  -30.5133  -22.2219   18.0893 H   0  0  0  0  0  0
  -28.9854  -21.3492   18.2090 H   0  0  0  0  0  0
  -30.2729  -24.6555   19.8278 H   0  0  0  0  0  0
  -32.6680  -19.8625   20.9757 H   0  0  0  0  0  0
  -31.8618  -20.9681   22.0818 H   0  0  0  0  0  0
  -32.5599  -21.5625   20.5788 H   0  0  0  0  0  0
  -28.6131  -25.3295   21.7146 H   0  0  0  0  0  0
  -27.3295  -24.8203   20.6729 H   0  0  0  0  0  0
  -30.9714  -20.1246   19.3036 H   0  0  0  0  0  0
  -29.3498  -14.8734   21.9815 H   0  0  0  0  0  0
  1 25  1  0  0  0
  1 30  2  0  0  0
  1 85  1  0  0  0
  2  3  1  0  0  0
  2 25  1  0  0  0
  2 88  1  0  0  0
  2 89  1  0  0  0
  3  4  1  0  0  0
  3 90  1  0  0  0
  3 91  1  0  0  0
  4  5  1  0  0  0
  4 92  1  0  0  0
  4 93  1  0  0  0
  5  6  1  0  0  0
  5 26  1  0  0  0
  5 94  1  0  0  0
  6 25  1  0  0  0
  6 95  1  0  0  0
  6 96  1  0  0  0
  7  8  2  0  0  0
  7 26  1  0  0  0
  7 29  1  0  0  0
  8  9  1  0  0  0
  8 22  1  0  0  0
  9 10  1  0  0  0
  9 27  2  0  0  0
 10 11  2  0  0  0
 10 15  1  0  0  0
 11 12  1  0  0  0
 11 97  1  0  0  0
 12 13  2  0  0  0
 12 98  1  0  0  0
 13 14  1  0  0  0
 13 31  1  0  0  0
 14 15  2  0  0  0
 14 99  1  0  0  0
 15100  1  0  0  0
 16 17  2  0  0  0
 16 21  1  0  0  0
 16 31  1  0  0  0
 17 18  1  0  0  0
 17101  1  0  0  0
 18 19  2  0  0  0
 18102  1  0  0  0
 19 20  1  0  0  0
 19 24  1  0  0  0
 20 21  2  0  0  0
 20103  1  0  0  0
 21 23  1  0  0  0
 22 28  1  0  0  0
 22 32  2  0  0  0
 26 27  1  0  0  0
 28104  1  0  0  0
 28105  1  0  0  0
 29106  1  0  0  0
 29107  1  0  0  0
 33 34  1  0  0  0
 33 66  1  0  0  0
 33 70  2  0  0  0
 34 36  1  0  0  0
 34 59  1  0  0  0
 34108  1  0  0  0
 35 44  2  0  0  0
 35 45  1  0  0  0
 35 68  1  0  0  0
 36 56  1  0  0  0
 36109  1  0  0  0
 37 39  1  0  0  0
 37 47  1  0  0  0
 37 66  1  0  0  0
 37110  1  0  0  0
 38 43  2  0  0  0
 38 46  1  0  0  0
 38 47  1  0  0  0
 39 64  1  0  0  0
 39 67  2  0  0  0
 40 52  1  0  0  0
 40 53  2  0  0  0
 40 58  1  0  0  0
 41111  1  0  0  0
 41112  1  0  0  0
 41113  1  0  0  0
 41 48  1  0  0  0
 42 43  1  0  0  0
 42 66  1  0  0  0
 42114  1  0  0  0
 42115  1  0  0  0
 43 44  1  0  0  0
 44116  1  0  0  0
 45 46  2  0  0  0
 45117  1  0  0  0
 46118  1  0  0  0
 47119  1  0  0  0
 47120  1  0  0  0
 48 56  1  0  0  0
 48 65  1  0  0  0
 48121  1  0  0  0
 49 50  1  0  0  0
 49 53  1  0  0  0
 49 64  1  0  0  0
 49122  1  0  0  0
 50 51  1  0  0  0
 50123  1  0  0  0
 50124  1  0  0  0
 51 52  1  0  0  0
 51125  1  0  0  0
 51126  1  0  0  0
 52127  1  0  0  0
 52128  1  0  0  0
 53 54  1  0  0  0
 54 55  2  0  0  0
 54129  1  0  0  0
 55 57  1  0  0  0
 55130  1  0  0  0
 56 69  2  0  0  0
 57 58  2  0  0  0
 57131  1  0  0  0
 58132  1  0  0  0
 59 60  1  0  0  0
 59 61  1  0  0  0
 59 62  1  0  0  0
 60133  1  0  0  0
 60134  1  0  0  0
 60135  1  0  0  0
 61136  1  0  0  0
 61137  1  0  0  0
 61138  1  0  0  0
 62139  1  0  0  0
 62140  1  0  0  0
 62141  1  0  0  0
 63 65  1  0  0  0
 63142  1  0  0  0
 63143  1  0  0  0
 63144  1  0  0  0
 64145  1  0  0  0
 65146  1  0  0  0
 68 82  1  0  0  0
 71 74  2  0  0  0
 71 75  1  0  0  0
 71147  1  0  0  0
 72 74  1  0  0  0
 72 76  2  0  0  0
 72148  1  0  0  0
 73 75  2  0  0  0
 73 76  1  0  0  0
 73149  1  0  0  0
 74 83  1  0  0  0
 75 85  1  0  0  0
 76 87  1  0  0  0
 77 80  1  0  0  0
 77 84  1  0  0  0
 77 86  2  0  0  0
 78 79  1  0  0  0
 78 80  1  0  0  0
 78150  1  0  0  0
 78151  1  0  0  0
 79 84  1  0  0  0
 79152  1  0  0  0
 79153  1  0  0  0
 80 82  1  0  0  0
 80154  1  0  0  0
 81155  1  0  0  0
 81156  1  0  0  0
 81157  1  0  0  0
 81 83  1  0  0  0
 82158  1  0  0  0
 82159  1  0  0  0
 83 84  1  0  0  0
 83160  1  0  0  0
 85161  1  0  0  0
M  ISO  4   1 100  68 101  82 101  85 100
M  END
> <chiral flag>
0

> <version>
0

> <s_m_source_file>
/data/baiqing/PycharmProjects/Reinvent-master-3.2/result/LINK_invent/BTK/process_docking_weight1_custom_product_contain_oxygen_bond_distance_aromatic_linkinvent_7_9_3/rearranged_h_0103.sdf

> <i_m_source_file_index>
88

> <r_mmod_Potential_Energy-OPLS-2005>
98.5301666259766

> <r_mmod_Stretch_Energy-OPLS-2005>
69.7572326660156

> <r_mmod_Bend_Energy-OPLS-2005>
179.085006713867

> <r_mmod_Torsional_Energy-OPLS-2005>
263.517944335938

> <r_mmod_Improper_Torsional_Energy-OPLS-2005>
4.89173793792725

> <r_mmod_Van_der_Waal_Energy-OPLS-2005>
129.630905151367

> <r_mmod_Electrostatic_Energy-OPLS-2005>
-358.338745117188

> <r_mmod_Solvation_Energy-OPLS-2005>
-218.041580200195

> <b_mmod_Minimization_Converged-OPLS-2005>
0

> <r_mmod_RMS_Derivative-OPLS-2005>
3.7420551776886

$$$$
88
                    3D
 Structure written by MMmdl.
160168  0  0  1  0            999 V2000
  -30.5109  -14.9971   20.4263 C   0  0  0  0  0  0
  -30.4428  -12.6160   19.5048 C   0  0  0  0  0  0
  -29.5254  -12.5532   18.2599 C   0  0  0  0  0  0
  -28.0590  -12.3325   18.6721 C   0  0  0  0  0  0
  -27.6339  -13.2514   19.8450 C   0  0  2  0  0  0
  -28.6771  -13.2744   20.9836 C   0  0  0  0  0  0
  -25.2495  -13.8221   20.5723 C   0  0  0  0  0  0
  -24.1807  -13.0451   20.9211 C   0  0  0  0  0  0
  -24.6422  -11.6926   20.8762 C   0  0  0  0  0  0
  -23.9107  -10.4304   21.0418 C   0  0  0  0  0  0
  -24.3654   -9.4216   21.9199 C   0  0  0  0  0  0
  -23.6316   -8.2260   22.0769 C   0  0  0  0  0  0
  -22.4291   -8.0296   21.3559 C   0  0  0  0  0  0
  -21.9946   -9.0264   20.4649 C   0  0  0  0  0  0
  -22.7284  -10.2143   20.3059 C   0  0  0  0  0  0
  -21.6852   -6.0747   22.5279 C   0  0  0  0  0  0
  -21.4016   -6.5647   23.8220 C   0  0  0  0  0  0
  -21.3663   -5.6806   24.9188 C   0  0  0  0  0  0
  -21.6045   -4.3071   24.7226 C   0  0  0  0  0  0
  -21.8828   -3.8153   23.4357 C   0  0  0  0  0  0
  -21.9199   -4.6972   22.3415 C   0  0  0  0  0  0
  -22.7826  -13.5213   21.1860 C   0  0  0  0  0  0
  -22.1671   -4.2164   21.0991 F   0  0  0  0  0  0
  -21.5627   -3.4558   25.7738 F   0  0  0  0  0  0
  -29.9516  -13.7104   20.3974 N   0  0  0  0  0  0
  -26.2922  -12.9464   20.3266 N   0  0  0  0  0  0
  -25.9358  -11.6578   20.5735 N   0  0  0  0  0  0
  -22.0485  -12.8198   22.0415 N   0  0  0  0  0  0
  -25.4166  -15.1955   20.4162 N   0  0  0  0  0  0
  -31.6876  -15.0588   20.0464 O   0  0  0  0  0  0
  -21.6654   -6.8886   21.4238 O   0  0  0  0  0  0
  -22.3522  -14.5530   20.6717 O   0  0  0  0  0  0
  -24.6465  -31.8386   23.1851 C   0  0  0  0  0  0
  -25.9236  -32.4668   23.8244 C   0  0  1  0  0  0
  -27.2155  -27.1029   20.1497 C   0  0  0  0  0  0
  -25.5971  -33.8473   24.2166 N   0  0  0  0  0  0
  -23.4514  -30.4568   21.5313 C   0  0  2  0  0  0
  -24.8977  -28.8713   20.1120 C   0  0  0  0  0  0
  -22.7579  -29.4520   22.4846 C   0  0  0  0  0  0
  -18.0299  -28.1398   22.8467 C   0  0  0  0  0  0
  -24.1495  -36.7247   23.2646 C   0  0  0  0  0  0
  -26.0083  -30.7022   21.3855 C   0  0  0  0  0  0
  -26.0773  -29.3098   20.7266 C   0  0  0  0  0  0
  -27.2370  -28.4431   20.7217 C   0  0  0  0  0  0
  -26.0075  -26.7631   19.5053 C   0  0  0  0  0  0
  -24.8765  -27.6136   19.4854 C   0  0  0  0  0  0
  -23.6787  -29.7819   20.1524 C   0  0  0  0  0  0
  -25.4134  -36.3013   24.0309 C   0  0  1  0  0  0
  -20.5912  -28.3725   23.1230 C   0  0  2  0  0  0
  -20.6786  -26.9428   22.5402 C   0  0  0  0  0  0
  -19.5765  -26.6380   21.5206 C   0  0  0  0  0  0
  -18.1942  -26.7941   22.1611 C   0  0  0  0  0  0
  -19.1558  -28.8880   23.2839 C   0  0  0  0  0  0
  -18.9480  -30.1471   23.8875 C   0  0  0  0  0  0
  -17.6476  -30.6592   24.0554 C   0  0  0  0  0  0
  -25.9082  -34.9392   23.5051 C   0  0  0  0  0  0
  -16.5362  -29.9082   23.6335 C   0  0  0  0  0  0
  -16.7281  -28.6494   23.0360 C   0  0  0  0  0  0
  -26.4542  -31.6558   25.0712 C   0  0  0  0  0  0
  -25.3726  -31.3760   26.1406 C   0  0  0  0  0  0
  -27.0420  -30.2954   24.6338 C   0  0  0  0  0  0
  -27.6058  -32.4334   25.7516 C   0  0  0  0  0  0
  -27.5577  -37.1780   24.8462 C   0  0  0  0  0  0
  -21.4265  -29.3045   22.3605 N   0  0  0  0  0  0
  -26.4284  -37.3739   23.9409 N   0  0  0  0  0  0
  -24.7227  -31.0204   22.0904 N   0  0  0  0  0  0
  -23.4206  -28.8080   23.3018 O   0  0  0  0  0  0
  -28.2877  -26.1327   20.2028 O   0  0  0  0  0  0
  -26.5659  -34.8889   22.4624 O   0  0  0  0  0  0
  -23.5582  -32.1276   23.7062 O   0  0  0  0  0  0
  -31.8410  -24.0943   20.9085 C   0  0  0  0  0  0
  -32.2097  -22.7770   20.6916 C   0  0  0  0  0  0
  -30.5140  -24.4671   20.7240 C   0  0  0  0  0  0
  -31.2553  -21.8063   20.3477 C   0  0  0  0  0  0
  -29.4654  -23.5785   20.3695 C   0  0  0  0  0  0
  -29.8389  -22.0776   20.2873 C   0  0  0  0  0  0
  -29.6329  -17.8969   20.1033 C   0  0  0  0  0  0
  -31.8810  -20.4655   19.9700 C   0  0  0  0  0  0
  -29.3154  -19.2073   22.1494 C   0  0  0  0  0  0
  -29.0015  -20.6609   20.0603 C   0  0  0  0  0  0
  -28.1473  -24.5560   20.1377 C   0  0  0  0  0  0
  -29.7511  -16.4269   20.8956 C   0  0  0  0  0  0
  -29.3593  -19.2011   20.6805 N   0  0  0  0  0  0
  -29.7458  -17.8572   18.7595 N   0  3  0  0  0  0
  -31.4766  -12.7686   19.1938 H   0  0  0  0  0  0
  -30.4353  -11.6597   20.0301 H   0  0  0  0  0  0
  -29.8511  -11.7606   17.5866 H   0  0  0  0  0  0
  -29.6085  -13.4819   17.6945 H   0  0  0  0  0  0
  -27.9536  -11.2875   18.9633 H   0  0  0  0  0  0
  -27.3995  -12.4826   17.8162 H   0  0  0  0  0  0
  -27.5980  -14.2572   19.4264 H   0  0  0  0  0  0
  -28.7751  -12.2921   21.4466 H   0  0  0  0  0  0
  -28.3647  -13.9526   21.7781 H   0  0  0  0  0  0
  -25.2799   -9.5699   22.4764 H   0  0  0  0  0  0
  -24.0031   -7.4663   22.7492 H   0  0  0  0  0  0
  -21.0873   -8.8788   19.8957 H   0  0  0  0  0  0
  -22.3733  -10.9692   19.6174 H   0  0  0  0  0  0
  -21.2007   -7.6157   23.9717 H   0  0  0  0  0  0
  -21.1470   -6.0545   25.9092 H   0  0  0  0  0  0
  -22.0594   -2.7611   23.2852 H   0  0  0  0  0  0
  -22.4111  -11.9855   22.4784 H   0  0  0  0  0  0
  -21.1100  -13.1207   22.2611 H   0  0  0  0  0  0
  -24.6433  -15.8429   20.5170 H   0  0  0  0  0  0
  -26.2547  -15.6348   20.0577 H   0  0  0  0  0  0
  -26.7307  -32.5253   23.0965 H   0  0  0  0  0  0
  -25.0110  -33.9580   25.0308 H   0  0  0  0  0  0
  -22.7565  -31.2846   21.3745 H   0  0  0  0  0  0
  -23.3758  -35.9576   23.3281 H   0  0  0  0  0  0
  -24.3569  -36.8913   22.2065 H   0  0  0  0  0  0
  -23.7243  -37.6432   23.6704 H   0  0  0  0  0  0
  -26.1679  -31.4560   20.6129 H   0  0  0  0  0  0
  -26.8779  -30.7517   22.0301 H   0  0  0  0  0  0
  -28.1419  -28.7767   21.2113 H   0  0  0  0  0  0
  -25.9139  -25.7990   19.0256 H   0  0  0  0  0  0
  -23.9732  -27.2758   18.9950 H   0  0  0  0  0  0
  -23.8225  -30.5544   19.3960 H   0  0  0  0  0  0
  -22.7910  -29.2297   19.8395 H   0  0  0  0  0  0
  -25.1321  -36.1832   25.0798 H   0  0  0  0  0  0
  -20.9994  -28.3317   24.1355 H   0  0  0  0  0  0
  -20.5669  -26.2343   23.3624 H   0  0  0  0  0  0
  -21.6655  -26.7428   22.1210 H   0  0  0  0  0  0
  -19.6930  -25.6280   21.1256 H   0  0  0  0  0  0
  -19.6708  -27.3167   20.6721 H   0  0  0  0  0  0
  -17.4219  -26.6679   21.4008 H   0  0  0  0  0  0
  -18.0336  -26.0078   22.9001 H   0  0  0  0  0  0
  -19.7955  -30.7285   24.2248 H   0  0  0  0  0  0
  -17.5028  -31.6275   24.5157 H   0  0  0  0  0  0
  -15.5356  -30.2984   23.7674 H   0  0  0  0  0  0
  -15.8676  -28.0802   22.7103 H   0  0  0  0  0  0
  -24.5915  -30.7090   25.7737 H   0  0  0  0  0  0
  -24.8896  -32.2938   26.4762 H   0  0  0  0  0  0
  -25.7999  -30.8987   27.0234 H   0  0  0  0  0  0
  -26.3054  -29.6658   24.1333 H   0  0  0  0  0  0
  -27.4000  -29.7269   25.4932 H   0  0  0  0  0  0
  -27.8968  -30.4170   23.9688 H   0  0  0  0  0  0
  -27.2639  -33.3637   26.2059 H   0  0  0  0  0  0
  -28.3899  -32.6895   25.0382 H   0  0  0  0  0  0
  -28.0708  -31.8496   26.5469 H   0  0  0  0  0  0
  -28.2578  -38.0095   24.7509 H   0  0  0  0  0  0
  -28.1083  -36.2611   24.6281 H   0  0  0  0  0  0
  -27.2282  -37.1427   25.8863 H   0  0  0  0  0  0
  -20.9495  -29.8755   21.6769 H   0  0  0  0  0  0
  -26.0138  -38.2799   24.1417 H   0  0  0  0  0  0
  -32.5867  -24.8361   21.1602 H   0  0  0  0  0  0
  -33.2579  -22.5207   20.7669 H   0  0  0  0  0  0
  -30.3370  -25.5229   20.8496 H   0  0  0  0  0  0
  -31.8376  -19.7494   20.7877 H   0  0  0  0  0  0
  -32.9384  -20.5747   19.7292 H   0  0  0  0  0  0
  -31.4266  -20.0436   19.0748 H   0  0  0  0  0  0
  -28.5685  -18.5079   22.5202 H   0  0  0  0  0  0
  -29.0705  -20.1987   22.5321 H   0  0  0  0  0  0
  -30.2874  -18.9292   22.5555 H   0  0  0  0  0  0
  -28.9333  -20.5205   18.9822 H   0  0  0  0  0  0
  -27.9770  -20.8686   20.3697 H   0  0  0  0  0  0
  -27.3949  -24.2652   20.8720 H   0  0  0  0  0  0
  -27.7264  -24.2971   19.1666 H   0  0  0  0  0  0
  -28.7234  -16.1485   21.1151 H   0  0  0  0  0  0
  -30.1831  -16.6324   21.8732 H   0  0  0  0  0  0
  -29.9829  -17.0031   18.2729 H   0  0  0  0  0  0
  -29.6227  -18.6746   18.1796 H   0  0  0  0  0  0
  1 25  1  0  0  0
  1 30  2  0  0  0
  1 82  1  0  0  0
  2  3  1  0  0  0
  2 25  1  0  0  0
  2 85  1  0  0  0
  2 86  1  0  0  0
  3  4  1  0  0  0
  3 87  1  0  0  0
  3 88  1  0  0  0
  4  5  1  0  0  0
  4 89  1  0  0  0
  4 90  1  0  0  0
  5  6  1  0  0  0
  5 26  1  0  0  0
  5 91  1  0  0  0
  6 25  1  0  0  0
  6 92  1  0  0  0
  6 93  1  0  0  0
  7  8  2  0  0  0
  7 26  1  0  0  0
  7 29  1  0  0  0
  8  9  1  0  0  0
  8 22  1  0  0  0
  9 10  1  0  0  0
  9 27  2  0  0  0
 10 11  2  0  0  0
 10 15  1  0  0  0
 11 12  1  0  0  0
 11 94  1  0  0  0
 12 13  2  0  0  0
 12 95  1  0  0  0
 13 14  1  0  0  0
 13 31  1  0  0  0
 14 15  2  0  0  0
 14 96  1  0  0  0
 15 97  1  0  0  0
 16 17  2  0  0  0
 16 21  1  0  0  0
 16 31  1  0  0  0
 17 18  1  0  0  0
 17 98  1  0  0  0
 18 19  2  0  0  0
 18 99  1  0  0  0
 19 20  1  0  0  0
 19 24  1  0  0  0
 20 21  2  0  0  0
 20100  1  0  0  0
 21 23  1  0  0  0
 22 28  1  0  0  0
 22 32  2  0  0  0
 26 27  1  0  0  0
 28101  1  0  0  0
 28102  1  0  0  0
 29103  1  0  0  0
 29104  1  0  0  0
 33 34  1  0  0  0
 33 66  1  0  0  0
 33 70  2  0  0  0
 34 36  1  0  0  0
 34 59  1  0  0  0
 34105  1  0  0  0
 35 44  2  0  0  0
 35 45  1  0  0  0
 35 68  1  0  0  0
 36 56  1  0  0  0
 36106  1  0  0  0
 37 39  1  0  0  0
 37 47  1  0  0  0
 37 66  1  0  0  0
 37107  1  0  0  0
 38 43  2  0  0  0
 38 46  1  0  0  0
 38 47  1  0  0  0
 39 64  1  0  0  0
 39 67  2  0  0  0
 40 52  1  0  0  0
 40 53  2  0  0  0
 40 58  1  0  0  0
 41108  1  0  0  0
 41109  1  0  0  0
 41110  1  0  0  0
 41 48  1  0  0  0
 42 43  1  0  0  0
 42 66  1  0  0  0
 42111  1  0  0  0
 42112  1  0  0  0
 43 44  1  0  0  0
 44113  1  0  0  0
 45 46  2  0  0  0
 45114  1  0  0  0
 46115  1  0  0  0
 47116  1  0  0  0
 47117  1  0  0  0
 48 56  1  0  0  0
 48 65  1  0  0  0
 48118  1  0  0  0
 49 50  1  0  0  0
 49 53  1  0  0  0
 49 64  1  0  0  0
 49119  1  0  0  0
 50 51  1  0  0  0
 50120  1  0  0  0
 50121  1  0  0  0
 51 52  1  0  0  0
 51122  1  0  0  0
 51123  1  0  0  0
 52124  1  0  0  0
 52125  1  0  0  0
 53 54  1  0  0  0
 54 55  2  0  0  0
 54126  1  0  0  0
 55 57  1  0  0  0
 55127  1  0  0  0
 56 69  2  0  0  0
 57 58  2  0  0  0
 57128  1  0  0  0
 58129  1  0  0  0
 59 60  1  0  0  0
 59 61  1  0  0  0
 59 62  1  0  0  0
 60130  1  0  0  0
 60131  1  0  0  0
 60132  1  0  0  0
 61133  1  0  0  0
 61134  1  0  0  0
 61135  1  0  0  0
 62136  1  0  0  0
 62137  1  0  0  0
 62138  1  0  0  0
 63 65  1  0  0  0
 63139  1  0  0  0
 63140  1  0  0  0
 63141  1  0  0  0
 64142  1  0  0  0
 65143  1  0  0  0
 68 81  1  0  0  0
 71 72  2  0  0  0
 71 73  1  0  0  0
 71144  1  0  0  0
 72 74  1  0  0  0
 72145  1  0  0  0
 73 75  2  0  0  0
 73146  1  0  0  0
 74 76  2  0  0  0
 74 78  1  0  0  0
 75 76  1  0  0  0
 75 81  1  0  0  0
 76 80  1  0  0  0
 77 82  1  0  0  0
 77 83  1  0  0  0
 77 84  2  0  0  0
 78147  1  0  0  0
 78148  1  0  0  0
 78149  1  0  0  0
 79 83  1  0  0  0
 79150  1  0  0  0
 79151  1  0  0  0
 79152  1  0  0  0
 80 83  1  0  0  0
 80153  1  0  0  0
 80154  1  0  0  0
 81155  1  0  0  0
 81156  1  0  0  0
 82157  1  0  0  0
 82158  1  0  0  0
 84159  1  0  0  0
 84160  1  0  0  0
M  CHG  1  84   1
M  ISO  4   1 100  68 101  81 101  82 100
M  END
> <chiral flag>
0

> <version>
0

> <s_m_source_file>
/data/baiqing/PycharmProjects/Reinvent-master-3.2/result/LINK_invent/BTK/process_docking_weight1_custom_product_contain_oxygen_bond_distance_aromatic_linkinvent_7_9_3/rearranged_h_0103.sdf

> <i_m_source_file_index>
89

> <r_mmod_Potential_Energy-OPLS-2005>
749.109802246094

> <r_mmod_Stretch_Energy-OPLS-2005>
357.471282958984

> <r_mmod_Bend_Energy-OPLS-2005>
341.226867675781

> <r_mmod_Torsional_Energy-OPLS-2005>
197.06510925293

> <r_mmod_Improper_Torsional_Energy-OPLS-2005>
2.52697467803955

> <r_mmod_Van_der_Waal_Energy-OPLS-2005>
144.63151550293

> <r_mmod_Electrostatic_Energy-OPLS-2005>
-72.9886093139648

> <r_mmod_Solvation_Energy-OPLS-2005>
-436.847625732422

> <b_mmod_Minimization_Converged-OPLS-2005>
0

> <r_mmod_RMS_Derivative-OPLS-2005>
2.53365683555603

$$$$
89
                    3D
 Structure written by MMmdl.
155163  0  0  1  0            999 V2000
  -30.6810  -14.6145   20.5909 C   0  0  0  0  0  0
  -30.4338  -12.4030   19.4620 C   0  0  0  0  0  0
  -29.5098  -12.5368   18.2307 C   0  0  0  0  0  0
  -28.0309  -12.3675   18.6295 C   0  0  0  0  0  0
  -27.6560  -13.2185   19.8703 C   0  0  2  0  0  0
  -28.6927  -13.0352   20.9987 C   0  0  0  0  0  0
  -25.2499  -13.8129   20.5566 C   0  0  0  0  0  0
  -24.1807  -13.0403   20.9173 C   0  0  0  0  0  0
  -24.6402  -11.6887   20.8747 C   0  0  0  0  0  0
  -23.9073  -10.4274   21.0413 C   0  0  0  0  0  0
  -24.3620   -9.4190   21.9192 C   0  0  0  0  0  0
  -23.6290   -8.2231   22.0759 C   0  0  0  0  0  0
  -22.4274   -8.0273   21.3545 C   0  0  0  0  0  0
  -21.9911   -9.0248   20.4649 C   0  0  0  0  0  0
  -22.7244  -10.2123   20.3060 C   0  0  0  0  0  0
  -21.6849   -6.0731   22.5279 C   0  0  0  0  0  0
  -21.4012   -6.5637   23.8212 C   0  0  0  0  0  0
  -21.3659   -5.6791   24.9174 C   0  0  0  0  0  0
  -21.6045   -4.3054   24.7225 C   0  0  0  0  0  0
  -21.8819   -3.8144   23.4346 C   0  0  0  0  0  0
  -21.9191   -4.6960   22.3402 C   0  0  0  0  0  0
  -22.7832  -13.5199   21.1843 C   0  0  0  0  0  0
  -22.1661   -4.2146   21.0979 F   0  0  0  0  0  0
  -21.5628   -3.4537   25.7738 F   0  0  0  0  0  0
  -30.0204  -13.4069   20.4711 N   0  0  0  0  0  0
  -26.2983  -12.9350   20.3302 N   0  0  0  0  0  0
  -25.9336  -11.6502   20.5765 N   0  0  0  0  0  0
  -22.0485  -12.8205   22.0419 N   0  0  0  0  0  0
  -25.4054  -15.1819   20.3740 N   0  0  0  0  0  0
  -31.7564  -14.8036   20.0119 O   0  0  0  0  0  0
  -21.6633   -6.8874   21.4241 O   0  0  0  0  0  0
  -22.3511  -14.5505   20.6693 O   0  0  0  0  0  0
  -24.6260  -31.8613   23.2037 C   0  0  0  0  0  0
  -25.9110  -32.4786   23.8363 C   0  0  1  0  0  0
  -27.2254  -27.3259   20.1117 C   0  0  0  0  0  0
  -25.5929  -33.8588   24.2290 N   0  0  0  0  0  0
  -23.4187  -30.4866   21.5468 C   0  0  2  0  0  0
  -24.8644  -28.9443   20.1121 C   0  0  0  0  0  0
  -22.7474  -29.4636   22.4940 C   0  0  0  0  0  0
  -18.0289  -28.1383   22.8491 C   0  0  0  0  0  0
  -24.1490  -36.7296   23.2639 C   0  0  0  0  0  0
  -25.9605  -30.7947   21.3734 C   0  0  0  0  0  0
  -26.0348  -29.4233   20.7140 C   0  0  0  0  0  0
  -27.2185  -28.6270   20.7023 C   0  0  0  0  0  0
  -26.0270  -26.8993   19.4904 C   0  0  0  0  0  0
  -24.8624  -27.6873   19.4919 C   0  0  0  0  0  0
  -23.6328  -29.8242   20.1612 C   0  0  0  0  0  0
  -25.4113  -36.3089   24.0331 C   0  0  1  0  0  0
  -20.5890  -28.3690   23.1286 C   0  0  2  0  0  0
  -20.6778  -26.9415   22.5411 C   0  0  0  0  0  0
  -19.5750  -26.6386   21.5216 C   0  0  0  0  0  0
  -18.1932  -26.7928   22.1630 C   0  0  0  0  0  0
  -19.1541  -28.8853   23.2886 C   0  0  0  0  0  0
  -18.9464  -30.1457   23.8900 C   0  0  0  0  0  0
  -17.6462  -30.6587   24.0565 C   0  0  0  0  0  0
  -25.9051  -34.9457   23.5109 C   0  0  0  0  0  0
  -16.5354  -29.9086   23.6328 C   0  0  0  0  0  0
  -16.7276  -28.6503   23.0350 C   0  0  0  0  0  0
  -26.4495  -31.6587   25.0725 C   0  0  0  0  0  0
  -25.3733  -31.3717   26.1452 C   0  0  0  0  0  0
  -27.0334  -30.3014   24.6164 C   0  0  0  0  0  0
  -27.6056  -32.4318   25.7496 C   0  0  0  0  0  0
  -27.5580  -37.1804   24.8467 C   0  0  0  0  0  0
  -21.4188  -29.3047   22.3682 N   0  0  0  0  0  0
  -26.4292  -37.3782   23.9410 N   0  0  0  0  0  0
  -24.6874  -31.0636   22.0983 N   0  0  0  0  0  0
  -23.4203  -28.8174   23.3014 O   0  0  0  0  0  0
  -28.3479  -26.4815   20.1543 O   0  0  0  0  0  0
  -26.5617  -34.8921   22.4674 O   0  0  0  0  0  0
  -23.5425  -32.1408   23.7370 O   0  0  0  0  0  0
  -31.1322  -17.9269   20.5333 C   0  0  0  0  0  0
  -28.8281  -19.4511   20.9611 C   0  0  0  0  0  0
  -30.0025  -17.2266   21.0331 C   0  0  0  0  0  0
  -28.8336  -18.0449   21.2254 C   0  0  0  0  0  0
  -29.9797  -20.1422   20.5119 C   0  0  0  0  0  0
  -31.1248  -19.3308   20.2886 C   0  0  0  0  0  0
  -30.0912  -15.7539   21.5052 C   0  0  0  0  0  0
  -27.5356  -17.4635   21.7657 C   0  0  0  0  0  0
  -29.3007  -23.9989   20.3173 C   0  0  0  0  0  0
  -28.1093  -25.0209   20.0883 C   0  0  0  0  0  0
  -28.9351  -22.4471   20.3936 C   0  0  0  0  0  0
  -29.7238  -15.4964   22.6921 N   0  0  0  0  0  0
  -30.0762  -21.5369   20.3093 O   0  0  0  0  0  0
  -32.2655  -19.9167   19.8507 F   0  0  0  0  0  0
  -31.4768  -12.5173   19.1623 H   0  0  0  0  0  0
  -30.3645  -11.3982   19.8816 H   0  0  0  0  0  0
  -29.7799  -11.7994   17.4737 H   0  0  0  0  0  0
  -29.6548  -13.5152   17.7703 H   0  0  0  0  0  0
  -27.8625  -11.3109   18.8409 H   0  0  0  0  0  0
  -27.3809  -12.6166   17.7897 H   0  0  0  0  0  0
  -27.6875  -14.2632   19.5607 H   0  0  0  0  0  0
  -28.7062  -11.9961   21.3313 H   0  0  0  0  0  0
  -28.3854  -13.5987   21.8748 H   0  0  0  0  0  0
  -25.2766   -9.5661   22.4767 H   0  0  0  0  0  0
  -23.9993   -7.4620   22.7478 H   0  0  0  0  0  0
  -21.0842   -8.8769   19.8955 H   0  0  0  0  0  0
  -22.3707  -10.9663   19.6167 H   0  0  0  0  0  0
  -21.2008   -7.6145   23.9714 H   0  0  0  0  0  0
  -21.1481   -6.0522   25.9077 H   0  0  0  0  0  0
  -22.0601   -2.7606   23.2846 H   0  0  0  0  0  0
  -22.4103  -11.9867   22.4807 H   0  0  0  0  0  0
  -21.1109  -13.1240   22.2640 H   0  0  0  0  0  0
  -24.6221  -15.8212   20.4503 H   0  0  0  0  0  0
  -26.2328  -15.6124   19.9835 H   0  0  0  0  0  0
  -26.7180  -32.5459   23.1115 H   0  0  0  0  0  0
  -25.0075  -33.9737   25.0434 H   0  0  0  0  0  0
  -22.7118  -31.3069   21.4059 H   0  0  0  0  0  0
  -23.3750  -35.9632   23.3306 H   0  0  0  0  0  0
  -24.3583  -36.8909   22.2053 H   0  0  0  0  0  0
  -23.7243  -37.6500   23.6657 H   0  0  0  0  0  0
  -26.0909  -31.5592   20.6062 H   0  0  0  0  0  0
  -26.8414  -30.8430   22.0017 H   0  0  0  0  0  0
  -28.1166  -28.9918   21.1806 H   0  0  0  0  0  0
  -25.9534  -25.9420   18.9987 H   0  0  0  0  0  0
  -23.9659  -27.3139   19.0160 H   0  0  0  0  0  0
  -23.7522  -30.6025   19.4067 H   0  0  0  0  0  0
  -22.7524  -29.2553   19.8571 H   0  0  0  0  0  0
  -25.1292  -36.1945   25.0824 H   0  0  0  0  0  0
  -20.9986  -28.3264   24.1405 H   0  0  0  0  0  0
  -20.5687  -26.2300   23.3611 H   0  0  0  0  0  0
  -21.6645  -26.7448   22.1199 H   0  0  0  0  0  0
  -19.6910  -25.6299   21.1242 H   0  0  0  0  0  0
  -19.6681  -27.3200   20.6749 H   0  0  0  0  0  0
  -17.4202  -26.6681   21.4031 H   0  0  0  0  0  0
  -18.0329  -26.0068   22.9024 H   0  0  0  0  0  0
  -19.7939  -30.7275   24.2266 H   0  0  0  0  0  0
  -17.5016  -31.6265   24.5168 H   0  0  0  0  0  0
  -15.5354  -30.2988   23.7648 H   0  0  0  0  0  0
  -15.8678  -28.0823   22.7058 H   0  0  0  0  0  0
  -24.5912  -30.7061   25.7780 H   0  0  0  0  0  0
  -24.8919  -32.2879   26.4884 H   0  0  0  0  0  0
  -25.8062  -30.8893   27.0223 H   0  0  0  0  0  0
  -26.2902  -29.6770   24.1188 H   0  0  0  0  0  0
  -27.4042  -29.7261   25.4657 H   0  0  0  0  0  0
  -27.8770  -30.4305   23.9379 H   0  0  0  0  0  0
  -27.2665  -33.3613   26.2082 H   0  0  0  0  0  0
  -28.3860  -32.6886   25.0321 H   0  0  0  0  0  0
  -28.0729  -31.8437   26.5404 H   0  0  0  0  0  0
  -28.2598  -38.0099   24.7508 H   0  0  0  0  0  0
  -28.1072  -36.2629   24.6298 H   0  0  0  0  0  0
  -27.2298  -37.1460   25.8870 H   0  0  0  0  0  0
  -20.9365  -29.8777   21.6900 H   0  0  0  0  0  0
  -26.0173  -38.2859   24.1405 H   0  0  0  0  0  0
  -32.0590  -17.3935   20.3829 H   0  0  0  0  0  0
  -27.9213  -20.0082   21.1465 H   0  0  0  0  0  0
  -27.5013  -17.5578   22.8513 H   0  0  0  0  0  0
  -27.4246  -16.4116   21.5136 H   0  0  0  0  0  0
  -26.6704  -17.9859   21.3562 H   0  0  0  0  0  0
  -29.8259  -24.2710   21.2327 H   0  0  0  0  0  0
  -30.0205  -24.1435   19.5114 H   0  0  0  0  0  0
  -27.3256  -24.7792   20.8086 H   0  0  0  0  0  0
  -27.7097  -24.7821   19.1031 H   0  0  0  0  0  0
  -28.2528  -22.1993   19.5797 H   0  0  0  0  0  0
  -28.3921  -22.2639   21.3214 H   0  0  0  0  0  0
  -29.3958  -16.3365   23.1527 H   0  0  0  0  0  0
  1 25  1  0  0  0
  1 30  2  0  0  0
  1 77  1  0  0  0
  2  3  1  0  0  0
  2 25  1  0  0  0
  2 85  1  0  0  0
  2 86  1  0  0  0
  3  4  1  0  0  0
  3 87  1  0  0  0
  3 88  1  0  0  0
  4  5  1  0  0  0
  4 89  1  0  0  0
  4 90  1  0  0  0
  5  6  1  0  0  0
  5 26  1  0  0  0
  5 91  1  0  0  0
  6 25  1  0  0  0
  6 92  1  0  0  0
  6 93  1  0  0  0
  7  8  2  0  0  0
  7 26  1  0  0  0
  7 29  1  0  0  0
  8  9  1  0  0  0
  8 22  1  0  0  0
  9 10  1  0  0  0
  9 27  2  0  0  0
 10 11  2  0  0  0
 10 15  1  0  0  0
 11 12  1  0  0  0
 11 94  1  0  0  0
 12 13  2  0  0  0
 12 95  1  0  0  0
 13 14  1  0  0  0
 13 31  1  0  0  0
 14 15  2  0  0  0
 14 96  1  0  0  0
 15 97  1  0  0  0
 16 17  2  0  0  0
 16 21  1  0  0  0
 16 31  1  0  0  0
 17 18  1  0  0  0
 17 98  1  0  0  0
 18 19  2  0  0  0
 18 99  1  0  0  0
 19 20  1  0  0  0
 19 24  1  0  0  0
 20 21  2  0  0  0
 20100  1  0  0  0
 21 23  1  0  0  0
 22 28  1  0  0  0
 22 32  2  0  0  0
 26 27  1  0  0  0
 28101  1  0  0  0
 28102  1  0  0  0
 29103  1  0  0  0
 29104  1  0  0  0
 33 34  1  0  0  0
 33 66  1  0  0  0
 33 70  2  0  0  0
 34 36  1  0  0  0
 34 59  1  0  0  0
 34105  1  0  0  0
 35 44  2  0  0  0
 35 45  1  0  0  0
 35 68  1  0  0  0
 36 56  1  0  0  0
 36106  1  0  0  0
 37 39  1  0  0  0
 37 47  1  0  0  0
 37 66  1  0  0  0
 37107  1  0  0  0
 38 43  2  0  0  0
 38 46  1  0  0  0
 38 47  1  0  0  0
 39 64  1  0  0  0
 39 67  2  0  0  0
 40 52  1  0  0  0
 40 53  2  0  0  0
 40 58  1  0  0  0
 41108  1  0  0  0
 41109  1  0  0  0
 41110  1  0  0  0
 41 48  1  0  0  0
 42 43  1  0  0  0
 42 66  1  0  0  0
 42111  1  0  0  0
 42112  1  0  0  0
 43 44  1  0  0  0
 44113  1  0  0  0
 45 46  2  0  0  0
 45114  1  0  0  0
 46115  1  0  0  0
 47116  1  0  0  0
 47117  1  0  0  0
 48 56  1  0  0  0
 48 65  1  0  0  0
 48118  1  0  0  0
 49 50  1  0  0  0
 49 53  1  0  0  0
 49 64  1  0  0  0
 49119  1  0  0  0
 50 51  1  0  0  0
 50120  1  0  0  0
 50121  1  0  0  0
 51 52  1  0  0  0
 51122  1  0  0  0
 51123  1  0  0  0
 52124  1  0  0  0
 52125  1  0  0  0
 53 54  1  0  0  0
 54 55  2  0  0  0
 54126  1  0  0  0
 55 57  1  0  0  0
 55127  1  0  0  0
 56 69  2  0  0  0
 57 58  2  0  0  0
 57128  1  0  0  0
 58129  1  0  0  0
 59 60  1  0  0  0
 59 61  1  0  0  0
 59 62  1  0  0  0
 60130  1  0  0  0
 60131  1  0  0  0
 60132  1  0  0  0
 61133  1  0  0  0
 61134  1  0  0  0
 61135  1  0  0  0
 62136  1  0  0  0
 62137  1  0  0  0
 62138  1  0  0  0
 63 65  1  0  0  0
 63139  1  0  0  0
 63140  1  0  0  0
 63141  1  0  0  0
 64142  1  0  0  0
 65143  1  0  0  0
 68 80  1  0  0  0
 71 73  2  0  0  0
 71 76  1  0  0  0
 71144  1  0  0  0
 72 74  2  0  0  0
 72 75  1  0  0  0
 72145  1  0  0  0
 73 74  1  0  0  0
 73 77  1  0  0  0
 74 78  1  0  0  0
 75 76  2  0  0  0
 75 83  1  0  0  0
 76 84  1  0  0  0
 77 82  2  0  0  0
 78146  1  0  0  0
 78147  1  0  0  0
 78148  1  0  0  0
 79 80  1  0  0  0
 79 81  1  0  0  0
 79149  1  0  0  0
 79150  1  0  0  0
 80151  1  0  0  0
 80152  1  0  0  0
 81 83  1  0  0  0
 81153  1  0  0  0
 81154  1  0  0  0
 82155  1  0  0  0
M  ISO  4   1 100  68 101  77 100  80 101
M  END
> <chiral flag>
0

> <version>
0

> <s_m_source_file>
/data/baiqing/PycharmProjects/Reinvent-master-3.2/result/LINK_invent/BTK/process_docking_weight1_custom_product_contain_oxygen_bond_distance_aromatic_linkinvent_7_9_3/rearranged_h_0103.sdf

> <i_m_source_file_index>
90

> <r_mmod_Potential_Energy-OPLS-2005>
227.533004760742

> <r_mmod_Stretch_Energy-OPLS-2005>
90.1951599121094

> <r_mmod_Bend_Energy-OPLS-2005>
150.152633666992

> <r_mmod_Torsional_Energy-OPLS-2005>
206.712966918945

> <r_mmod_Improper_Torsional_Energy-OPLS-2005>
3.44443869590759

> <r_mmod_Van_der_Waal_Energy-OPLS-2005>
153.738067626953

> <r_mmod_Electrostatic_Energy-OPLS-2005>
-219.825332641602

> <r_mmod_Solvation_Energy-OPLS-2005>
-198.199295043945

> <b_mmod_Minimization_Converged-OPLS-2005>
0

> <r_mmod_RMS_Derivative-OPLS-2005>
0.424630582332611

$$$$
90
                    3D
 Structure written by MMmdl.
158167  0  0  1  0            999 V2000
  -30.6749  -14.5704   20.5909 C   0  0  0  0  0  0
  -30.4392  -12.3737   19.4453 C   0  0  0  0  0  0
  -29.5056  -12.5290   18.2242 C   0  0  0  0  0  0
  -28.0299  -12.3621   18.6354 C   0  0  0  0  0  0
  -27.6608  -13.2147   19.8772 C   0  0  2  0  0  0
  -28.7038  -13.0279   21.0049 C   0  0  0  0  0  0
  -25.2466  -13.8097   20.5543 C   0  0  0  0  0  0
  -24.1792  -13.0377   20.9199 C   0  0  0  0  0  0
  -24.6402  -11.6869   20.8777 C   0  0  0  0  0  0
  -23.9074  -10.4259   21.0435 C   0  0  0  0  0  0
  -24.3622   -9.4172   21.9206 C   0  0  0  0  0  0
  -23.6291   -8.2214   22.0766 C   0  0  0  0  0  0
  -22.4271   -8.0269   21.3553 C   0  0  0  0  0  0
  -21.9914   -9.0242   20.4654 C   0  0  0  0  0  0
  -22.7250  -10.2114   20.3075 C   0  0  0  0  0  0
  -21.6843   -6.0729   22.5280 C   0  0  0  0  0  0
  -21.4009   -6.5637   23.8214 C   0  0  0  0  0  0
  -21.3661   -5.6794   24.9179 C   0  0  0  0  0  0
  -21.6043   -4.3057   24.7230 C   0  0  0  0  0  0
  -21.8821   -3.8147   23.4354 C   0  0  0  0  0  0
  -21.9190   -4.6958   22.3405 C   0  0  0  0  0  0
  -22.7812  -13.5167   21.1857 C   0  0  0  0  0  0
  -22.1659   -4.2146   21.0982 F   0  0  0  0  0  0
  -21.5632   -3.4543   25.7744 F   0  0  0  0  0  0
  -30.0380  -13.3625   20.4664 N   0  0  0  0  0  0
  -26.3000  -12.9343   20.3353 N   0  0  0  0  0  0
  -25.9345  -11.6497   20.5834 N   0  0  0  0  0  0
  -22.0466  -12.8182   22.0443 N   0  0  0  0  0  0
  -25.3914  -15.1767   20.3602 N   0  0  0  0  0  0
  -31.7550  -14.8037   20.0401 O   0  0  0  0  0  0
  -21.6635   -6.8869   21.4242 O   0  0  0  0  0  0
  -22.3492  -14.5467   20.6698 O   0  0  0  0  0  0
  -24.6199  -31.8633   23.2048 C   0  0  0  0  0  0
  -25.9065  -32.4804   23.8370 C   0  0  1  0  0  0
  -27.2414  -27.3734   20.1181 C   0  0  0  0  0  0
  -25.5894  -33.8603   24.2293 N   0  0  0  0  0  0
  -23.4128  -30.4845   21.5466 C   0  0  2  0  0  0
  -24.8637  -28.9431   20.1164 C   0  0  0  0  0  0
  -22.7449  -29.4627   22.4962 C   0  0  0  0  0  0
  -18.0277  -28.1384   22.8491 C   0  0  0  0  0  0
  -24.1487  -36.7309   23.2637 C   0  0  0  0  0  0
  -25.9481  -30.8118   21.3684 C   0  0  0  0  0  0
  -26.0277  -29.4412   20.7153 C   0  0  0  0  0  0
  -27.2201  -28.6681   20.7051 C   0  0  0  0  0  0
  -26.0569  -26.9117   19.4997 C   0  0  0  0  0  0
  -24.8772  -27.6806   19.5015 C   0  0  0  0  0  0
  -23.6264  -29.8146   20.1636 C   0  0  0  0  0  0
  -25.4111  -36.3102   24.0330 C   0  0  1  0  0  0
  -20.5876  -28.3674   23.1307 C   0  0  2  0  0  0
  -20.6770  -26.9403   22.5420 C   0  0  0  0  0  0
  -19.5746  -26.6386   21.5219 C   0  0  0  0  0  0
  -18.1923  -26.7929   22.1625 C   0  0  0  0  0  0
  -19.1530  -28.8847   23.2895 C   0  0  0  0  0  0
  -18.9451  -30.1453   23.8902 C   0  0  0  0  0  0
  -17.6453  -30.6588   24.0563 C   0  0  0  0  0  0
  -25.9040  -34.9467   23.5114 C   0  0  0  0  0  0
  -16.5344  -29.9089   23.6327 C   0  0  0  0  0  0
  -16.7265  -28.6511   23.0342 C   0  0  0  0  0  0
  -26.4466  -31.6599   25.0724 C   0  0  0  0  0  0
  -25.3715  -31.3731   26.1466 C   0  0  0  0  0  0
  -27.0288  -30.3023   24.6145 C   0  0  0  0  0  0
  -27.6033  -32.4330   25.7487 C   0  0  0  0  0  0
  -27.5583  -37.1805   24.8457 C   0  0  0  0  0  0
  -21.4169  -29.3032   22.3708 N   0  0  0  0  0  0
  -26.4294  -37.3793   23.9405 N   0  0  0  0  0  0
  -24.6787  -31.0688   22.0972 N   0  0  0  0  0  0
  -23.4194  -28.8170   23.3027 O   0  0  0  0  0  0
  -28.3910  -26.5858   20.1266 O   0  0  0  0  0  0
  -26.5615  -34.8928   22.4684 O   0  0  0  0  0  0
  -23.5375  -32.1401   23.7411 O   0  0  0  0  0  0
  -30.4267  -18.0111   20.9312 C   0  0  0  0  0  0
  -28.4394  -19.4095   20.6153 C   0  0  0  0  0  0
  -28.2175  -17.0036   20.9446 C   0  0  0  0  0  0
  -29.8400  -19.3142   20.7470 C   0  0  0  0  0  0
  -29.6140  -16.8331   21.0252 C   0  0  0  0  0  0
  -27.6341  -18.2641   20.7193 C   0  0  0  0  0  0
  -29.5502  -22.9056   21.0652 C   0  0  0  0  0  0
  -29.7231  -23.8003   18.8700 C   0  0  0  0  0  0
  -30.3962  -22.4148   18.9755 C   0  0  0  0  0  0
  -29.4995  -24.2656   20.3144 C   0  0  1  0  0  0
  -30.6842  -20.6163   20.7701 C   0  0  0  0  0  0
  -28.2429  -25.1875   20.5387 C   0  0  0  0  0  0
  -30.0844  -21.9125   20.3106 N   0  0  0  0  0  0
  -30.0525  -15.4939   21.3668 N   0  0  0  0  0  0
  -29.2080  -22.7869   22.2441 O   0  0  0  0  0  0
  -26.2879  -18.3819   20.6385 F   0  0  0  0  0  0
  -31.4809  -12.4948   19.1428 H   0  0  0  0  0  0
  -30.3678  -11.3664   19.8570 H   0  0  0  0  0  0
  -29.7654  -11.7999   17.4552 H   0  0  0  0  0  0
  -29.6508  -13.5126   17.7748 H   0  0  0  0  0  0
  -27.8626  -11.3060   18.8521 H   0  0  0  0  0  0
  -27.3741  -12.6085   17.8001 H   0  0  0  0  0  0
  -27.6935  -14.2573   19.5618 H   0  0  0  0  0  0
  -28.6997  -11.9951   21.3555 H   0  0  0  0  0  0
  -28.4348  -13.6255   21.8759 H   0  0  0  0  0  0
  -25.2770   -9.5641   22.4785 H   0  0  0  0  0  0
  -24.0000   -7.4597   22.7474 H   0  0  0  0  0  0
  -21.0853   -8.8757   19.8949 H   0  0  0  0  0  0
  -22.3718  -10.9656   19.6189 H   0  0  0  0  0  0
  -21.2002   -7.6145   23.9715 H   0  0  0  0  0  0
  -21.1484   -6.0527   25.9081 H   0  0  0  0  0  0
  -22.0602   -2.7609   23.2855 H   0  0  0  0  0  0
  -22.4088  -11.9852   22.4845 H   0  0  0  0  0  0
  -21.1089  -13.1213   22.2654 H   0  0  0  0  0  0
  -24.5960  -15.8025   20.4228 H   0  0  0  0  0  0
  -26.1803  -15.5970   19.8893 H   0  0  0  0  0  0
  -26.7141  -32.5498   23.1135 H   0  0  0  0  0  0
  -25.0020  -33.9762   25.0419 H   0  0  0  0  0  0
  -22.7038  -31.3019   21.4026 H   0  0  0  0  0  0
  -23.3753  -35.9639   23.3300 H   0  0  0  0  0  0
  -24.3579  -36.8932   22.2053 H   0  0  0  0  0  0
  -23.7243  -37.6510   23.6660 H   0  0  0  0  0  0
  -26.0699  -31.5776   20.6009 H   0  0  0  0  0  0
  -26.8312  -30.8635   21.9936 H   0  0  0  0  0  0
  -28.1182  -29.0508   21.1702 H   0  0  0  0  0  0
  -26.0321  -25.9553   18.9999 H   0  0  0  0  0  0
  -23.9866  -27.2935   19.0256 H   0  0  0  0  0  0
  -23.7371  -30.5880   19.4026 H   0  0  0  0  0  0
  -22.7504  -29.2357   19.8666 H   0  0  0  0  0  0
  -25.1295  -36.1959   25.0824 H   0  0  0  0  0  0
  -20.9959  -28.3244   24.1430 H   0  0  0  0  0  0
  -20.5674  -26.2275   23.3610 H   0  0  0  0  0  0
  -21.6636  -26.7436   22.1205 H   0  0  0  0  0  0
  -19.6902  -25.6299   21.1240 H   0  0  0  0  0  0
  -19.6695  -27.3204   20.6753 H   0  0  0  0  0  0
  -17.4193  -26.6681   21.4028 H   0  0  0  0  0  0
  -18.0317  -26.0076   22.9023 H   0  0  0  0  0  0
  -19.7927  -30.7274   24.2271 H   0  0  0  0  0  0
  -17.5005  -31.6266   24.5168 H   0  0  0  0  0  0
  -15.5346  -30.2988   23.7655 H   0  0  0  0  0  0
  -15.8666  -28.0840   22.7038 H   0  0  0  0  0  0
  -24.5865  -30.7112   25.7791 H   0  0  0  0  0  0
  -24.8933  -32.2898   26.4928 H   0  0  0  0  0  0
  -25.8049  -30.8872   27.0215 H   0  0  0  0  0  0
  -26.2846  -29.6811   24.1151 H   0  0  0  0  0  0
  -27.3964  -29.7256   25.4639 H   0  0  0  0  0  0
  -27.8727  -30.4311   23.9367 H   0  0  0  0  0  0
  -27.2633  -33.3602   26.2110 H   0  0  0  0  0  0
  -28.3811  -32.6940   25.0301 H   0  0  0  0  0  0
  -28.0736  -31.8433   26.5364 H   0  0  0  0  0  0
  -28.2594  -38.0107   24.7515 H   0  0  0  0  0  0
  -28.1087  -36.2640   24.6270 H   0  0  0  0  0  0
  -27.2302  -37.1443   25.8860 H   0  0  0  0  0  0
  -20.9339  -29.8759   21.6928 H   0  0  0  0  0  0
  -26.0181  -38.2869   24.1421 H   0  0  0  0  0  0
  -31.4982  -17.9242   21.0519 H   0  0  0  0  0  0
  -27.9587  -20.3674   20.4789 H   0  0  0  0  0  0
  -27.5736  -16.1547   21.0911 H   0  0  0  0  0  0
  -28.7661  -23.7066   18.3541 H   0  0  0  0  0  0
  -30.3300  -24.5055   18.3015 H   0  0  0  0  0  0
  -31.4790  -22.5120   18.8751 H   0  0  0  0  0  0
  -30.0485  -21.7337   18.1984 H   0  0  0  0  0  0
  -30.3806  -24.8121   20.6537 H   0  0  0  0  0  0
  -31.5881  -20.4342   20.1868 H   0  0  0  0  0  0
  -31.0334  -20.7525   21.7951 H   0  0  0  0  0  0
  -28.0039  -25.2002   21.6030 H   0  0  0  0  0  0
  -27.3928  -24.7074   20.0574 H   0  0  0  0  0  0
  -29.3655  -15.0131   21.9278 H   0  0  0  0  0  0
  1 25  1  0  0  0
  1 30  2  0  0  0
  1 84  1  0  0  0
  2  3  1  0  0  0
  2 25  1  0  0  0
  2 87  1  0  0  0
  2 88  1  0  0  0
  3  4  1  0  0  0
  3 89  1  0  0  0
  3 90  1  0  0  0
  4  5  1  0  0  0
  4 91  1  0  0  0
  4 92  1  0  0  0
  5  6  1  0  0  0
  5 26  1  0  0  0
  5 93  1  0  0  0
  6 25  1  0  0  0
  6 94  1  0  0  0
  6 95  1  0  0  0
  7  8  2  0  0  0
  7 26  1  0  0  0
  7 29  1  0  0  0
  8  9  1  0  0  0
  8 22  1  0  0  0
  9 10  1  0  0  0
  9 27  2  0  0  0
 10 11  2  0  0  0
 10 15  1  0  0  0
 11 12  1  0  0  0
 11 96  1  0  0  0
 12 13  2  0  0  0
 12 97  1  0  0  0
 13 14  1  0  0  0
 13 31  1  0  0  0
 14 15  2  0  0  0
 14 98  1  0  0  0
 15 99  1  0  0  0
 16 17  2  0  0  0
 16 21  1  0  0  0
 16 31  1  0  0  0
 17 18  1  0  0  0
 17100  1  0  0  0
 18 19  2  0  0  0
 18101  1  0  0  0
 19 20  1  0  0  0
 19 24  1  0  0  0
 20 21  2  0  0  0
 20102  1  0  0  0
 21 23  1  0  0  0
 22 28  1  0  0  0
 22 32  2  0  0  0
 26 27  1  0  0  0
 28103  1  0  0  0
 28104  1  0  0  0
 29105  1  0  0  0
 29106  1  0  0  0
 33 34  1  0  0  0
 33 66  1  0  0  0
 33 70  2  0  0  0
 34 36  1  0  0  0
 34 59  1  0  0  0
 34107  1  0  0  0
 35 44  2  0  0  0
 35 45  1  0  0  0
 35 68  1  0  0  0
 36 56  1  0  0  0
 36108  1  0  0  0
 37 39  1  0  0  0
 37 47  1  0  0  0
 37 66  1  0  0  0
 37109  1  0  0  0
 38 43  2  0  0  0
 38 46  1  0  0  0
 38 47  1  0  0  0
 39 64  1  0  0  0
 39 67  2  0  0  0
 40 52  1  0  0  0
 40 53  2  0  0  0
 40 58  1  0  0  0
 41110  1  0  0  0
 41111  1  0  0  0
 41112  1  0  0  0
 41 48  1  0  0  0
 42 43  1  0  0  0
 42 66  1  0  0  0
 42113  1  0  0  0
 42114  1  0  0  0
 43 44  1  0  0  0
 44115  1  0  0  0
 45 46  2  0  0  0
 45116  1  0  0  0
 46117  1  0  0  0
 47118  1  0  0  0
 47119  1  0  0  0
 48 56  1  0  0  0
 48 65  1  0  0  0
 48120  1  0  0  0
 49 50  1  0  0  0
 49 53  1  0  0  0
 49 64  1  0  0  0
 49121  1  0  0  0
 50 51  1  0  0  0
 50122  1  0  0  0
 50123  1  0  0  0
 51 52  1  0  0  0
 51124  1  0  0  0
 51125  1  0  0  0
 52126  1  0  0  0
 52127  1  0  0  0
 53 54  1  0  0  0
 54 55  2  0  0  0
 54128  1  0  0  0
 55 57  1  0  0  0
 55129  1  0  0  0
 56 69  2  0  0  0
 57 58  2  0  0  0
 57130  1  0  0  0
 58131  1  0  0  0
 59 60  1  0  0  0
 59 61  1  0  0  0
 59 62  1  0  0  0
 60132  1  0  0  0
 60133  1  0  0  0
 60134  1  0  0  0
 61135  1  0  0  0
 61136  1  0  0  0
 61137  1  0  0  0
 62138  1  0  0  0
 62139  1  0  0  0
 62140  1  0  0  0
 63 65  1  0  0  0
 63141  1  0  0  0
 63142  1  0  0  0
 63143  1  0  0  0
 64144  1  0  0  0
 65145  1  0  0  0
 68 82  1  0  0  0
 71 74  2  0  0  0
 71 75  1  0  0  0
 71146  1  0  0  0
 72 74  1  0  0  0
 72 76  2  0  0  0
 72147  1  0  0  0
 73 75  2  0  0  0
 73 76  1  0  0  0
 73148  1  0  0  0
 74 81  1  0  0  0
 75 84  1  0  0  0
 76 86  1  0  0  0
 77 80  1  0  0  0
 77 83  1  0  0  0
 77 85  2  0  0  0
 78 79  1  0  0  0
 78 80  1  0  0  0
 78149  1  0  0  0
 78150  1  0  0  0
 79 83  1  0  0  0
 79151  1  0  0  0
 79152  1  0  0  0
 80 82  1  0  0  0
 80153  1  0  0  0
 81 83  1  0  0  0
 81154  1  0  0  0
 81155  1  0  0  0
 82156  1  0  0  0
 82157  1  0  0  0
 84158  1  0  0  0
M  ISO  4   1 100  68 101  82 101  84 100
M  END
> <chiral flag>
0

> <version>
0

> <s_m_source_file>
/data/baiqing/PycharmProjects/Reinvent-master-3.2/result/LINK_invent/BTK/process_docking_weight1_custom_product_contain_oxygen_bond_distance_aromatic_linkinvent_7_9_3/rearranged_h_0103.sdf

> <i_m_source_file_index>
91

> <r_mmod_Potential_Energy-OPLS-2005>
76.265022277832

> <r_mmod_Stretch_Energy-OPLS-2005>
60.3552932739258

> <r_mmod_Bend_Energy-OPLS-2005>
149.058456420898

> <r_mmod_Torsional_Energy-OPLS-2005>
277.743469238281

> <r_mmod_Improper_Torsional_Energy-OPLS-2005>
8.67519187927246

> <r_mmod_Van_der_Waal_Energy-OPLS-2005>
133.791778564453

> <r_mmod_Electrostatic_Energy-OPLS-2005>
-358.190093994141

> <r_mmod_Solvation_Energy-OPLS-2005>
-222.364807128906

> <b_mmod_Minimization_Converged-OPLS-2005>
0

> <r_mmod_RMS_Derivative-OPLS-2005>
1.15430068969727

$$$$
91
                    3D
 Structure written by MMmdl.
161170  0  0  1  0            999 V2000
  -30.6057  -14.6628   20.4750 C   0  0  0  0  0  0
  -30.4442  -12.4036   19.4491 C   0  0  0  0  0  0
  -29.5086  -12.5034   18.2233 C   0  0  0  0  0  0
  -28.0327  -12.3331   18.6386 C   0  0  0  0  0  0
  -27.6489  -13.2120   19.8580 C   0  0  2  0  0  0
  -28.6986  -13.0826   20.9852 C   0  0  0  0  0  0
  -25.2520  -13.8114   20.5717 C   0  0  0  0  0  0
  -24.1791  -13.0386   20.9199 C   0  0  0  0  0  0
  -24.6372  -11.6867   20.8731 C   0  0  0  0  0  0
  -23.9050  -10.4259   21.0393 C   0  0  0  0  0  0
  -24.3600   -9.4181   21.9175 C   0  0  0  0  0  0
  -23.6273   -8.2220   22.0747 C   0  0  0  0  0  0
  -22.4253   -8.0266   21.3547 C   0  0  0  0  0  0
  -21.9890   -9.0238   20.4648 C   0  0  0  0  0  0
  -22.7223  -10.2110   20.3047 C   0  0  0  0  0  0
  -21.6846   -6.0722   22.5277 C   0  0  0  0  0  0
  -21.4010   -6.5625   23.8210 C   0  0  0  0  0  0
  -21.3661   -5.6778   24.9174 C   0  0  0  0  0  0
  -21.6043   -4.3045   24.7225 C   0  0  0  0  0  0
  -21.8820   -3.8137   23.4346 C   0  0  0  0  0  0
  -21.9191   -4.6953   22.3399 C   0  0  0  0  0  0
  -22.7818  -13.5196   21.1861 C   0  0  0  0  0  0
  -22.1662   -4.2141   21.0977 F   0  0  0  0  0  0
  -21.5630   -3.4528   25.7737 F   0  0  0  0  0  0
  -30.0102  -13.4297   20.4152 N   0  0  0  0  0  0
  -26.2955  -12.9307   20.3308 N   0  0  0  0  0  0
  -25.9299  -11.6467   20.5736 N   0  0  0  0  0  0
  -22.0454  -12.8208   22.0423 N   0  0  0  0  0  0
  -25.4170  -15.1828   20.4207 N   0  0  0  0  0  0
  -31.7874  -14.8265   20.1585 O   0  0  0  0  0  0
  -21.6626   -6.8864   21.4241 O   0  0  0  0  0  0
  -22.3517  -14.5512   20.6714 O   0  0  0  0  0  0
  -24.6258  -31.8606   23.2035 C   0  0  0  0  0  0
  -25.9105  -32.4783   23.8369 C   0  0  1  0  0  0
  -27.2273  -27.3304   20.1125 C   0  0  0  0  0  0
  -25.5922  -33.8582   24.2295 N   0  0  0  0  0  0
  -23.4196  -30.4837   21.5469 C   0  0  2  0  0  0
  -24.8669  -28.9406   20.1125 C   0  0  0  0  0  0
  -22.7476  -29.4617   22.4948 C   0  0  0  0  0  0
  -18.0287  -28.1381   22.8478 C   0  0  0  0  0  0
  -24.1487  -36.7292   23.2636 C   0  0  0  0  0  0
  -25.9603  -30.7925   21.3753 C   0  0  0  0  0  0
  -26.0355  -29.4209   20.7184 C   0  0  0  0  0  0
  -27.2202  -28.6272   20.7099 C   0  0  0  0  0  0
  -26.0419  -26.9075   19.4711 C   0  0  0  0  0  0
  -24.8715  -27.6880   19.4802 C   0  0  0  0  0  0
  -23.6342  -29.8192   20.1622 C   0  0  0  0  0  0
  -25.4104  -36.3085   24.0337 C   0  0  1  0  0  0
  -20.5884  -28.3678   23.1283 C   0  0  2  0  0  0
  -20.6772  -26.9402   22.5406 C   0  0  0  0  0  0
  -19.5750  -26.6380   21.5202 C   0  0  0  0  0  0
  -18.1929  -26.7923   22.1614 C   0  0  0  0  0  0
  -19.1539  -28.8847   23.2876 C   0  0  0  0  0  0
  -18.9461  -30.1447   23.8896 C   0  0  0  0  0  0
  -17.6459  -30.6581   24.0558 C   0  0  0  0  0  0
  -25.9045  -34.9453   23.5118 C   0  0  0  0  0  0
  -16.5352  -29.9076   23.6325 C   0  0  0  0  0  0
  -16.7273  -28.6496   23.0347 C   0  0  0  0  0  0
  -26.4490  -31.6588   25.0737 C   0  0  0  0  0  0
  -25.3732  -31.3725   26.1473 C   0  0  0  0  0  0
  -27.0321  -30.3014   24.6177 C   0  0  0  0  0  0
  -27.6066  -32.4313   25.7492 C   0  0  0  0  0  0
  -27.5587  -37.1785   24.8452 C   0  0  0  0  0  0
  -21.4190  -29.3035   22.3684 N   0  0  0  0  0  0
  -26.4279  -37.3785   23.9426 N   0  0  0  0  0  0
  -24.6872  -31.0623   22.0988 N   0  0  0  0  0  0
  -23.4202  -28.8154   23.3025 O   0  0  0  0  0  0
  -28.3418  -26.4806   20.1297 O   0  0  0  0  0  0
  -26.5612  -34.8921   22.4683 O   0  0  0  0  0  0
  -23.5422  -32.1397   23.7361 O   0  0  0  0  0  0
  -28.9581  -19.3374   19.7189 C   0  0  0  0  0  0
  -30.7372  -17.9331   21.3603 C   0  0  0  0  0  0
  -28.9884  -17.9073   19.7039 C   0  0  0  0  0  0
  -29.8016  -20.1172   20.5519 C   0  0  0  0  0  0
  -29.8747  -17.1626   20.5389 C   0  0  0  0  0  0
  -30.6984  -19.3629   21.3750 C   0  0  0  0  0  0
  -30.4621  -23.8495   20.5549 C   0  0  0  0  0  0
  -30.9193  -22.3912   20.3394 C   0  0  0  0  0  0
  -28.5538  -22.4117   20.3043 C   0  0  0  0  0  0
  -29.0276  -23.8949   20.0149 C   0  0  1  0  0  0
  -28.0306  -17.1942   18.7657 C   0  0  0  0  0  0
  -28.1136  -25.0809   20.5584 C   0  0  0  0  0  0
  -29.7407  -21.5634   20.5899 N   0  0  0  0  0  0
  -31.5139  -20.0332   22.2863 N   0  0  0  0  0  0
  -29.7417  -15.7091   20.6736 N   0  0  0  0  0  0
  -31.4835  -12.5399   19.1448 H   0  0  0  0  0  0
  -30.3891  -11.4124   19.9008 H   0  0  0  0  0  0
  -29.7771  -11.7495   17.4825 H   0  0  0  0  0  0
  -29.6429  -13.4709   17.7365 H   0  0  0  0  0  0
  -27.8805  -11.2813   18.8841 H   0  0  0  0  0  0
  -27.3758  -12.5479   17.7953 H   0  0  0  0  0  0
  -27.6566  -14.2409   19.5007 H   0  0  0  0  0  0
  -28.7171  -12.0650   21.3762 H   0  0  0  0  0  0
  -28.4442  -13.7236   21.8311 H   0  0  0  0  0  0
  -25.2742   -9.5658   22.4755 H   0  0  0  0  0  0
  -23.9985   -7.4606   22.7458 H   0  0  0  0  0  0
  -21.0821   -8.8757   19.8947 H   0  0  0  0  0  0
  -22.3684  -10.9649   19.6153 H   0  0  0  0  0  0
  -21.1998   -7.6128   23.9716 H   0  0  0  0  0  0
  -21.1483   -6.0503   25.9078 H   0  0  0  0  0  0
  -22.0597   -2.7595   23.2849 H   0  0  0  0  0  0
  -22.4052  -11.9876   22.4837 H   0  0  0  0  0  0
  -21.1077  -13.1262   22.2620 H   0  0  0  0  0  0
  -24.6457  -15.8306   20.5399 H   0  0  0  0  0  0
  -26.2634  -15.6321   20.1047 H   0  0  0  0  0  0
  -26.7172  -32.5454   23.1119 H   0  0  0  0  0  0
  -25.0081  -33.9731   25.0449 H   0  0  0  0  0  0
  -22.7128  -31.3039   21.4050 H   0  0  0  0  0  0
  -23.3757  -35.9614   23.3275 H   0  0  0  0  0  0
  -24.3599  -36.8931   22.2056 H   0  0  0  0  0  0
  -23.7223  -37.6483   23.6664 H   0  0  0  0  0  0
  -26.0920  -31.5547   20.6063 H   0  0  0  0  0  0
  -26.8407  -30.8415   22.0043 H   0  0  0  0  0  0
  -28.1172  -28.9904   21.1914 H   0  0  0  0  0  0
  -26.0071  -25.9599   18.9538 H   0  0  0  0  0  0
  -23.9810  -27.3182   18.9914 H   0  0  0  0  0  0
  -23.7532  -30.5959   19.4061 H   0  0  0  0  0  0
  -22.7539  -29.2488   19.8598 H   0  0  0  0  0  0
  -25.1273  -36.1941   25.0827 H   0  0  0  0  0  0
  -20.9978  -28.3254   24.1402 H   0  0  0  0  0  0
  -20.5661  -26.2286   23.3603 H   0  0  0  0  0  0
  -21.6646  -26.7429   22.1210 H   0  0  0  0  0  0
  -19.6911  -25.6291   21.1233 H   0  0  0  0  0  0
  -19.6686  -27.3189   20.6733 H   0  0  0  0  0  0
  -17.4196  -26.6665   21.4020 H   0  0  0  0  0  0
  -18.0333  -26.0069   22.9015 H   0  0  0  0  0  0
  -19.7938  -30.7261   24.2269 H   0  0  0  0  0  0
  -17.5016  -31.6263   24.5154 H   0  0  0  0  0  0
  -15.5351  -30.2977   23.7652 H   0  0  0  0  0  0
  -15.8674  -28.0811   22.7067 H   0  0  0  0  0  0
  -24.5911  -30.7059   25.7820 H   0  0  0  0  0  0
  -24.8908  -32.2883   26.4902 H   0  0  0  0  0  0
  -25.8069  -30.8916   27.0252 H   0  0  0  0  0  0
  -26.2882  -29.6777   24.1206 H   0  0  0  0  0  0
  -27.4028  -29.7261   25.4673 H   0  0  0  0  0  0
  -27.8754  -30.4304   23.9389 H   0  0  0  0  0  0
  -27.2698  -33.3621   26.2071 H   0  0  0  0  0  0
  -28.3868  -32.6858   25.0305 H   0  0  0  0  0  0
  -28.0742  -31.8434   26.5403 H   0  0  0  0  0  0
  -28.2563  -38.0125   24.7575 H   0  0  0  0  0  0
  -28.1127  -36.2667   24.6170 H   0  0  0  0  0  0
  -27.2326  -37.1312   25.8856 H   0  0  0  0  0  0
  -20.9366  -29.8769   21.6904 H   0  0  0  0  0  0
  -26.0163  -38.2851   24.1474 H   0  0  0  0  0  0
  -28.2592  -19.8418   19.0681 H   0  0  0  0  0  0
  -31.4023  -17.4152   22.0359 H   0  0  0  0  0  0
  -31.1172  -24.5698   20.0636 H   0  0  0  0  0  0
  -30.4642  -24.0798   21.6215 H   0  0  0  0  0  0
  -31.7658  -22.1596   20.9845 H   0  0  0  0  0  0
  -31.2470  -22.2425   19.3092 H   0  0  0  0  0  0
  -27.9776  -22.0302   19.4602 H   0  0  0  0  0  0
  -27.8946  -22.3905   21.1739 H   0  0  0  0  0  0
  -29.0881  -23.9987   18.9296 H   0  0  0  0  0  0
  -27.7683  -17.8297   17.9188 H   0  0  0  0  0  0
  -27.1088  -16.9476   19.2872 H   0  0  0  0  0  0
  -28.4669  -16.2815   18.3592 H   0  0  0  0  0  0
  -28.1732  -25.0812   21.6471 H   0  0  0  0  0  0
  -27.0902  -24.7735   20.3557 H   0  0  0  0  0  0
  -31.7163  -19.5556   23.1574 H   0  0  0  0  0  0
  -31.2156  -20.9922   22.4388 H   0  0  0  0  0  0
  -28.7939  -15.3902   20.7933 H   0  0  0  0  0  0
  1 25  1  0  0  0
  1 30  2  0  0  0
  1 85  1  0  0  0
  2  3  1  0  0  0
  2 25  1  0  0  0
  2 86  1  0  0  0
  2 87  1  0  0  0
  3  4  1  0  0  0
  3 88  1  0  0  0
  3 89  1  0  0  0
  4  5  1  0  0  0
  4 90  1  0  0  0
  4 91  1  0  0  0
  5  6  1  0  0  0
  5 26  1  0  0  0
  5 92  1  0  0  0
  6 25  1  0  0  0
  6 93  1  0  0  0
  6 94  1  0  0  0
  7  8  2  0  0  0
  7 26  1  0  0  0
  7 29  1  0  0  0
  8  9  1  0  0  0
  8 22  1  0  0  0
  9 10  1  0  0  0
  9 27  2  0  0  0
 10 11  2  0  0  0
 10 15  1  0  0  0
 11 12  1  0  0  0
 11 95  1  0  0  0
 12 13  2  0  0  0
 12 96  1  0  0  0
 13 14  1  0  0  0
 13 31  1  0  0  0
 14 15  2  0  0  0
 14 97  1  0  0  0
 15 98  1  0  0  0
 16 17  2  0  0  0
 16 21  1  0  0  0
 16 31  1  0  0  0
 17 18  1  0  0  0
 17 99  1  0  0  0
 18 19  2  0  0  0
 18100  1  0  0  0
 19 20  1  0  0  0
 19 24  1  0  0  0
 20 21  2  0  0  0
 20101  1  0  0  0
 21 23  1  0  0  0
 22 28  1  0  0  0
 22 32  2  0  0  0
 26 27  1  0  0  0
 28102  1  0  0  0
 28103  1  0  0  0
 29104  1  0  0  0
 29105  1  0  0  0
 33 34  1  0  0  0
 33 66  1  0  0  0
 33 70  2  0  0  0
 34 36  1  0  0  0
 34 59  1  0  0  0
 34106  1  0  0  0
 35 44  2  0  0  0
 35 45  1  0  0  0
 35 68  1  0  0  0
 36 56  1  0  0  0
 36107  1  0  0  0
 37 39  1  0  0  0
 37 47  1  0  0  0
 37 66  1  0  0  0
 37108  1  0  0  0
 38 43  2  0  0  0
 38 46  1  0  0  0
 38 47  1  0  0  0
 39 64  1  0  0  0
 39 67  2  0  0  0
 40 52  1  0  0  0
 40 53  2  0  0  0
 40 58  1  0  0  0
 41109  1  0  0  0
 41110  1  0  0  0
 41111  1  0  0  0
 41 48  1  0  0  0
 42 43  1  0  0  0
 42 66  1  0  0  0
 42112  1  0  0  0
 42113  1  0  0  0
 43 44  1  0  0  0
 44114  1  0  0  0
 45 46  2  0  0  0
 45115  1  0  0  0
 46116  1  0  0  0
 47117  1  0  0  0
 47118  1  0  0  0
 48 56  1  0  0  0
 48 65  1  0  0  0
 48119  1  0  0  0
 49 50  1  0  0  0
 49 53  1  0  0  0
 49 64  1  0  0  0
 49120  1  0  0  0
 50 51  1  0  0  0
 50121  1  0  0  0
 50122  1  0  0  0
 51 52  1  0  0  0
 51123  1  0  0  0
 51124  1  0  0  0
 52125  1  0  0  0
 52126  1  0  0  0
 53 54  1  0  0  0
 54 55  2  0  0  0
 54127  1  0  0  0
 55 57  1  0  0  0
 55128  1  0  0  0
 56 69  2  0  0  0
 57 58  2  0  0  0
 57129  1  0  0  0
 58130  1  0  0  0
 59 60  1  0  0  0
 59 61  1  0  0  0
 59 62  1  0  0  0
 60131  1  0  0  0
 60132  1  0  0  0
 60133  1  0  0  0
 61134  1  0  0  0
 61135  1  0  0  0
 61136  1  0  0  0
 62137  1  0  0  0
 62138  1  0  0  0
 62139  1  0  0  0
 63 65  1  0  0  0
 63140  1  0  0  0
 63141  1  0  0  0
 63142  1  0  0  0
 64143  1  0  0  0
 65144  1  0  0  0
 68 82  1  0  0  0
 71 73  2  0  0  0
 71 74  1  0  0  0
 71145  1  0  0  0
 72 75  2  0  0  0
 72 76  1  0  0  0
 72146  1  0  0  0
 73 75  1  0  0  0
 73 81  1  0  0  0
 74 76  2  0  0  0
 74 83  1  0  0  0
 75 85  1  0  0  0
 76 84  1  0  0  0
 77 78  1  0  0  0
 77 80  1  0  0  0
 77147  1  0  0  0
 77148  1  0  0  0
 78 83  1  0  0  0
 78149  1  0  0  0
 78150  1  0  0  0
 79 80  1  0  0  0
 79 83  1  0  0  0
 79151  1  0  0  0
 79152  1  0  0  0
 80 82  1  0  0  0
 80153  1  0  0  0
 81154  1  0  0  0
 81155  1  0  0  0
 81156  1  0  0  0
 82157  1  0  0  0
 82158  1  0  0  0
 84159  1  0  0  0
 84160  1  0  0  0
 85161  1  0  0  0
M  ISO  4   1 100  68 101  82 101  85 100
M  END
> <chiral flag>
0

> <version>
0

> <s_m_source_file>
/data/baiqing/PycharmProjects/Reinvent-master-3.2/result/LINK_invent/BTK/process_docking_weight1_custom_product_contain_oxygen_bond_distance_aromatic_linkinvent_7_9_3/rearranged_h_0103.sdf

> <i_m_source_file_index>
92

> <r_mmod_Potential_Energy-OPLS-2005>
139.106918334961

> <r_mmod_Stretch_Energy-OPLS-2005>
77.196533203125

> <r_mmod_Bend_Energy-OPLS-2005>
174.860992431641

> <r_mmod_Torsional_Energy-OPLS-2005>
320.17529296875

> <r_mmod_Improper_Torsional_Energy-OPLS-2005>
13.2441234588623

> <r_mmod_Van_der_Waal_Energy-OPLS-2005>
141.834381103516

> <r_mmod_Electrostatic_Energy-OPLS-2005>
-407.174560546875

> <r_mmod_Solvation_Energy-OPLS-2005>
-233.08674621582

> <b_mmod_Minimization_Converged-OPLS-2005>
0

> <r_mmod_RMS_Derivative-OPLS-2005>
1.28649711608887

$$$$
92
                    3D
 Structure written by MMmdl.
158167  0  0  1  0            999 V2000
  -30.5179  -14.9053   20.4467 C   0  0  0  0  0  0
  -30.4552  -12.5587   19.4925 C   0  0  0  0  0  0
  -29.5276  -12.5344   18.2535 C   0  0  0  0  0  0
  -28.0568  -12.3256   18.6663 C   0  0  0  0  0  0
  -27.6403  -13.2381   19.8493 C   0  0  2  0  0  0
  -28.6843  -13.2078   20.9873 C   0  0  0  0  0  0
  -25.2480  -13.8174   20.5644 C   0  0  0  0  0  0
  -24.1798  -13.0421   20.9218 C   0  0  0  0  0  0
  -24.6408  -11.6907   20.8759 C   0  0  0  0  0  0
  -23.9083  -10.4285   21.0414 C   0  0  0  0  0  0
  -24.3628   -9.4198   21.9191 C   0  0  0  0  0  0
  -23.6296   -8.2237   22.0758 C   0  0  0  0  0  0
  -22.4278   -8.0280   21.3547 C   0  0  0  0  0  0
  -21.9919   -9.0257   20.4650 C   0  0  0  0  0  0
  -22.7255  -10.2132   20.3060 C   0  0  0  0  0  0
  -21.6851   -6.0736   22.5279 C   0  0  0  0  0  0
  -21.4015   -6.5639   23.8213 C   0  0  0  0  0  0
  -21.3660   -5.6791   24.9174 C   0  0  0  0  0  0
  -21.6043   -4.3054   24.7224 C   0  0  0  0  0  0
  -21.8819   -3.8147   23.4345 C   0  0  0  0  0  0
  -21.9191   -4.6964   22.3401 C   0  0  0  0  0  0
  -22.7818  -13.5207   21.1869 C   0  0  0  0  0  0
  -22.1660   -4.2150   21.0978 F   0  0  0  0  0  0
  -21.5626   -3.4537   25.7737 F   0  0  0  0  0  0
  -29.9707  -13.6263   20.4087 N   0  0  0  0  0  0
  -26.2931  -12.9404   20.3258 N   0  0  0  0  0  0
  -25.9344  -11.6545   20.5756 N   0  0  0  0  0  0
  -22.0460  -12.8208   22.0430 N   0  0  0  0  0  0
  -25.4085  -15.1883   20.3931 N   0  0  0  0  0  0
  -31.6995  -15.0471   20.1110 O   0  0  0  0  0  0
  -21.6637   -6.8881   21.4242 O   0  0  0  0  0  0
  -22.3504  -14.5510   20.6707 O   0  0  0  0  0  0
  -24.6418  -31.8457   23.1894 C   0  0  0  0  0  0
  -25.9196  -32.4704   23.8279 C   0  0  1  0  0  0
  -27.2225  -27.1559   20.1497 C   0  0  0  0  0  0
  -25.5945  -33.8509   24.2194 N   0  0  0  0  0  0
  -23.4444  -30.4652   21.5353 C   0  0  2  0  0  0
  -24.8939  -28.8928   20.1145 C   0  0  0  0  0  0
  -22.7558  -29.4557   22.4876 C   0  0  0  0  0  0
  -18.0302  -28.1396   22.8479 C   0  0  0  0  0  0
  -24.1490  -36.7264   23.2643 C   0  0  0  0  0  0
  -25.9990  -30.7262   21.3845 C   0  0  0  0  0  0
  -26.0714  -29.3382   20.7283 C   0  0  0  0  0  0
  -27.2376  -28.4869   20.7263 C   0  0  0  0  0  0
  -26.0170  -26.8065   19.5010 C   0  0  0  0  0  0
  -24.8783  -27.6392   19.4864 C   0  0  0  0  0  0
  -23.6697  -29.7930   20.1556 C   0  0  0  0  0  0
  -25.4121  -36.3038   24.0316 C   0  0  1  0  0  0
  -20.5913  -28.3719   23.1243 C   0  0  2  0  0  0
  -20.6787  -26.9425   22.5405 C   0  0  0  0  0  0
  -19.5761  -26.6382   21.5214 C   0  0  0  0  0  0
  -18.1942  -26.7934   22.1626 C   0  0  0  0  0  0
  -19.1558  -28.8876   23.2852 C   0  0  0  0  0  0
  -18.9476  -30.1472   23.8877 C   0  0  0  0  0  0
  -17.6473  -30.6592   24.0561 C   0  0  0  0  0  0
  -25.9071  -34.9412   23.5065 C   0  0  0  0  0  0
  -16.5363  -29.9086   23.6336 C   0  0  0  0  0  0
  -16.7287  -28.6505   23.0356 C   0  0  0  0  0  0
  -26.4518  -31.6567   25.0716 C   0  0  0  0  0  0
  -25.3705  -31.3757   26.1415 C   0  0  0  0  0  0
  -27.0381  -30.2965   24.6287 C   0  0  0  0  0  0
  -27.6045  -32.4334   25.7505 C   0  0  0  0  0  0
  -27.5574  -37.1788   24.8464 C   0  0  0  0  0  0
  -21.4253  -29.3047   22.3618 N   0  0  0  0  0  0
  -26.4286  -37.3750   23.9407 N   0  0  0  0  0  0
  -24.7150  -31.0329   22.0919 N   0  0  0  0  0  0
  -23.4208  -28.8107   23.3022 O   0  0  0  0  0  0
  -28.2955  -26.1977   20.1885 O   0  0  0  0  0  0
  -26.5660  -34.8908   22.4645 O   0  0  0  0  0  0
  -23.5541  -32.1324   23.7125 O   0  0  0  0  0  0
  -30.2447  -19.9216   20.0678 C   0  0  0  0  0  0
  -30.4473  -18.4697   20.0483 C   0  0  0  0  0  0
  -28.2721  -19.6166   21.3138 C   0  0  0  0  0  0
  -28.4627  -18.1833   21.3079 C   0  0  0  0  0  0
  -29.1469  -20.5861   20.7271 C   0  0  0  0  0  0
  -29.5740  -17.5128   20.6824 C   0  0  0  0  0  0
  -29.2820  -22.4012   22.3250 C   0  0  0  0  0  0
  -30.0654  -23.6995   22.4456 C   0  0  0  0  0  0
  -30.3909  -24.0165   20.9927 C   0  0  0  0  0  0
  -29.1808  -23.4364   20.2613 C   0  0  2  0  0  0
  -27.4121  -17.3880   22.0696 C   0  0  0  0  0  0
  -28.0352  -24.6703   20.3123 C   0  0  0  0  0  0
  -28.9785  -22.0846   21.0440 N   0  0  0  0  0  0
  -29.6477  -15.9830   20.7227 N   0  0  0  0  0  0
  -28.9979  -21.7405   23.3294 O   0  0  0  0  0  0
  -31.4874  -12.7305   19.1831 H   0  0  0  0  0  0
  -30.4531  -11.5915   19.9976 H   0  0  0  0  0  0
  -29.8392  -11.7487   17.5638 H   0  0  0  0  0  0
  -29.6229  -13.4746   17.7079 H   0  0  0  0  0  0
  -27.9410  -11.2793   18.9518 H   0  0  0  0  0  0
  -27.3966  -12.4825   17.8127 H   0  0  0  0  0  0
  -27.6202  -14.2521   19.4493 H   0  0  0  0  0  0
  -28.7593  -12.2087   21.4191 H   0  0  0  0  0  0
  -28.3880  -13.8677   21.8040 H   0  0  0  0  0  0
  -25.2771   -9.5669   22.4769 H   0  0  0  0  0  0
  -23.9999   -7.4627   22.7478 H   0  0  0  0  0  0
  -21.0849   -8.8784   19.8956 H   0  0  0  0  0  0
  -22.3719  -10.9674   19.6170 H   0  0  0  0  0  0
  -21.2011   -7.6148   23.9719 H   0  0  0  0  0  0
  -21.1481   -6.0519   25.9078 H   0  0  0  0  0  0
  -22.0598   -2.7609   23.2843 H   0  0  0  0  0  0
  -22.4076  -11.9879   22.4837 H   0  0  0  0  0  0
  -21.1077  -13.1236   22.2627 H   0  0  0  0  0  0
  -24.6218  -15.8227   20.4744 H   0  0  0  0  0  0
  -26.2216  -15.6210   19.9759 H   0  0  0  0  0  0
  -26.7263  -32.5318   23.1012 H   0  0  0  0  0  0
  -25.0055  -33.9624   25.0315 H   0  0  0  0  0  0
  -22.7459  -31.2904   21.3811 H   0  0  0  0  0  0
  -23.3753  -35.9595   23.3293 H   0  0  0  0  0  0
  -24.3576  -36.8909   22.2060 H   0  0  0  0  0  0
  -23.7244  -37.6457   23.6687 H   0  0  0  0  0  0
  -26.1499  -31.4805   20.6110 H   0  0  0  0  0  0
  -26.8714  -30.7782   22.0245 H   0  0  0  0  0  0
  -28.1377  -28.8269   21.2187 H   0  0  0  0  0  0
  -25.9222  -25.8569   18.9988 H   0  0  0  0  0  0
  -23.9800  -27.2935   18.9932 H   0  0  0  0  0  0
  -23.8050  -30.5661   19.3985 H   0  0  0  0  0  0
  -22.7849  -29.2334   19.8466 H   0  0  0  0  0  0
  -25.1308  -36.1868   25.0808 H   0  0  0  0  0  0
  -21.0004  -28.3307   24.1365 H   0  0  0  0  0  0
  -20.5684  -26.2332   23.3623 H   0  0  0  0  0  0
  -21.6653  -26.7435   22.1203 H   0  0  0  0  0  0
  -19.6923  -25.6288   21.1257 H   0  0  0  0  0  0
  -19.6697  -27.3182   20.6734 H   0  0  0  0  0  0
  -17.4211  -26.6678   21.4029 H   0  0  0  0  0  0
  -18.0343  -26.0081   22.9028 H   0  0  0  0  0  0
  -19.7951  -30.7293   24.2238 H   0  0  0  0  0  0
  -17.5026  -31.6271   24.5165 H   0  0  0  0  0  0
  -15.5363  -30.2982   23.7670 H   0  0  0  0  0  0
  -15.8688  -28.0817   22.7082 H   0  0  0  0  0  0
  -24.5887  -30.7101   25.7738 H   0  0  0  0  0  0
  -24.8892  -32.2942   26.4785 H   0  0  0  0  0  0
  -25.7992  -30.8967   27.0228 H   0  0  0  0  0  0
  -26.2996  -29.6692   24.1283 H   0  0  0  0  0  0
  -27.3985  -29.7259   25.4856 H   0  0  0  0  0  0
  -27.8906  -30.4202   23.9605 H   0  0  0  0  0  0
  -27.2631  -33.3647   26.2035 H   0  0  0  0  0  0
  -28.3885  -32.6876   25.0359 H   0  0  0  0  0  0
  -28.0684  -31.8495   26.5466 H   0  0  0  0  0  0
  -28.2584  -38.0091   24.7508 H   0  0  0  0  0  0
  -28.1077  -36.2620   24.6291 H   0  0  0  0  0  0
  -27.2293  -37.1438   25.8867 H   0  0  0  0  0  0
  -20.9462  -29.8756   21.6794 H   0  0  0  0  0  0
  -26.0153  -38.2818   24.1410 H   0  0  0  0  0  0
  -31.0011  -20.5388   19.6033 H   0  0  0  0  0  0
  -31.3196  -18.0919   19.5332 H   0  0  0  0  0  0
  -27.4213  -19.9972   21.8628 H   0  0  0  0  0  0
  -30.9624  -23.5768   23.0527 H   0  0  0  0  0  0
  -29.4367  -24.4665   22.8985 H   0  0  0  0  0  0
  -31.3038  -23.5011   20.6884 H   0  0  0  0  0  0
  -30.5411  -25.0815   20.8136 H   0  0  0  0  0  0
  -29.4444  -23.2282   19.2239 H   0  0  0  0  0  0
  -27.4720  -17.6230   23.1327 H   0  0  0  0  0  0
  -27.5031  -16.3087   21.9708 H   0  0  0  0  0  0
  -26.4145  -17.6627   21.7258 H   0  0  0  0  0  0
  -27.4995  -24.5652   21.2562 H   0  0  0  0  0  0
  -27.3051  -24.3890   19.5570 H   0  0  0  0  0  0
  -28.7711  -15.5927   21.0299 H   0  0  0  0  0  0
  1 25  1  0  0  0
  1 30  2  0  0  0
  1 84  1  0  0  0
  2  3  1  0  0  0
  2 25  1  0  0  0
  2 86  1  0  0  0
  2 87  1  0  0  0
  3  4  1  0  0  0
  3 88  1  0  0  0
  3 89  1  0  0  0
  4  5  1  0  0  0
  4 90  1  0  0  0
  4 91  1  0  0  0
  5  6  1  0  0  0
  5 26  1  0  0  0
  5 92  1  0  0  0
  6 25  1  0  0  0
  6 93  1  0  0  0
  6 94  1  0  0  0
  7  8  2  0  0  0
  7 26  1  0  0  0
  7 29  1  0  0  0
  8  9  1  0  0  0
  8 22  1  0  0  0
  9 10  1  0  0  0
  9 27  2  0  0  0
 10 11  2  0  0  0
 10 15  1  0  0  0
 11 12  1  0  0  0
 11 95  1  0  0  0
 12 13  2  0  0  0
 12 96  1  0  0  0
 13 14  1  0  0  0
 13 31  1  0  0  0
 14 15  2  0  0  0
 14 97  1  0  0  0
 15 98  1  0  0  0
 16 17  2  0  0  0
 16 21  1  0  0  0
 16 31  1  0  0  0
 17 18  1  0  0  0
 17 99  1  0  0  0
 18 19  2  0  0  0
 18100  1  0  0  0
 19 20  1  0  0  0
 19 24  1  0  0  0
 20 21  2  0  0  0
 20101  1  0  0  0
 21 23  1  0  0  0
 22 28  1  0  0  0
 22 32  2  0  0  0
 26 27  1  0  0  0
 28102  1  0  0  0
 28103  1  0  0  0
 29104  1  0  0  0
 29105  1  0  0  0
 33 34  1  0  0  0
 33 66  1  0  0  0
 33 70  2  0  0  0
 34 36  1  0  0  0
 34 59  1  0  0  0
 34106  1  0  0  0
 35 44  2  0  0  0
 35 45  1  0  0  0
 35 68  1  0  0  0
 36 56  1  0  0  0
 36107  1  0  0  0
 37 39  1  0  0  0
 37 47  1  0  0  0
 37 66  1  0  0  0
 37108  1  0  0  0
 38 43  2  0  0  0
 38 46  1  0  0  0
 38 47  1  0  0  0
 39 64  1  0  0  0
 39 67  2  0  0  0
 40 52  1  0  0  0
 40 53  2  0  0  0
 40 58  1  0  0  0
 41109  1  0  0  0
 41110  1  0  0  0
 41111  1  0  0  0
 41 48  1  0  0  0
 42 43  1  0  0  0
 42 66  1  0  0  0
 42112  1  0  0  0
 42113  1  0  0  0
 43 44  1  0  0  0
 44114  1  0  0  0
 45 46  2  0  0  0
 45115  1  0  0  0
 46116  1  0  0  0
 47117  1  0  0  0
 47118  1  0  0  0
 48 56  1  0  0  0
 48 65  1  0  0  0
 48119  1  0  0  0
 49 50  1  0  0  0
 49 53  1  0  0  0
 49 64  1  0  0  0
 49120  1  0  0  0
 50 51  1  0  0  0
 50121  1  0  0  0
 50122  1  0  0  0
 51 52  1  0  0  0
 51123  1  0  0  0
 51124  1  0  0  0
 52125  1  0  0  0
 52126  1  0  0  0
 53 54  1  0  0  0
 54 55  2  0  0  0
 54127  1  0  0  0
 55 57  1  0  0  0
 55128  1  0  0  0
 56 69  2  0  0  0
 57 58  2  0  0  0
 57129  1  0  0  0
 58130  1  0  0  0
 59 60  1  0  0  0
 59 61  1  0  0  0
 59 62  1  0  0  0
 60131  1  0  0  0
 60132  1  0  0  0
 60133  1  0  0  0
 61134  1  0  0  0
 61135  1  0  0  0
 61136  1  0  0  0
 62137  1  0  0  0
 62138  1  0  0  0
 62139  1  0  0  0
 63 65  1  0  0  0
 63140  1  0  0  0
 63141  1  0  0  0
 63142  1  0  0  0
 64143  1  0  0  0
 65144  1  0  0  0
 68 82  1  0  0  0
 71 72  2  0  0  0
 71 75  1  0  0  0
 71145  1  0  0  0
 72 76  1  0  0  0
 72146  1  0  0  0
 73 74  1  0  0  0
 73 75  2  0  0  0
 73147  1  0  0  0
 74 76  2  0  0  0
 74 81  1  0  0  0
 75 83  1  0  0  0
 76 84  1  0  0  0
 77 78  1  0  0  0
 77 83  1  0  0  0
 77 85  2  0  0  0
 78 79  1  0  0  0
 78148  1  0  0  0
 78149  1  0  0  0
 79 80  1  0  0  0
 79150  1  0  0  0
 79151  1  0  0  0
 80 82  1  0  0  0
 80 83  1  0  0  0
 80152  1  0  0  0
 81153  1  0  0  0
 81154  1  0  0  0
 81155  1  0  0  0
 82156  1  0  0  0
 82157  1  0  0  0
 84158  1  0  0  0
M  ISO  4   1 100  68 101  82 101  84 100
M  END
> <chiral flag>
0

> <version>
0

> <s_m_source_file>
/data/baiqing/PycharmProjects/Reinvent-master-3.2/result/LINK_invent/BTK/process_docking_weight1_custom_product_contain_oxygen_bond_distance_aromatic_linkinvent_7_9_3/rearranged_h_0103.sdf

> <i_m_source_file_index>
93

> <r_mmod_Potential_Energy-OPLS-2005>
552.936889648438

> <r_mmod_Stretch_Energy-OPLS-2005>
227.273803710938

> <r_mmod_Bend_Energy-OPLS-2005>
308.938873291016

> <r_mmod_Torsional_Energy-OPLS-2005>
310.801177978516

> <r_mmod_Improper_Torsional_Energy-OPLS-2005>
6.81311988830566

> <r_mmod_Van_der_Waal_Energy-OPLS-2005>
132.208877563477

> <r_mmod_Electrostatic_Energy-OPLS-2005>
-379.520568847656

> <r_mmod_Solvation_Energy-OPLS-2005>
-219.796157836914

> <b_mmod_Minimization_Converged-OPLS-2005>
0

> <r_mmod_RMS_Derivative-OPLS-2005>
0.370410859584808

$$$$
93
                    3D
 Structure written by MMmdl.
160168  0  0  1  0            999 V2000
  -30.8179  -14.3816   20.6400 C   0  0  0  0  0  0
  -30.4000  -12.2787   19.4276 C   0  0  0  0  0  0
  -29.4882  -12.5204   18.2111 C   0  0  0  0  0  0
  -28.0145  -12.3674   18.6226 C   0  0  0  0  0  0
  -27.6657  -13.2114   19.8769 C   0  0  2  0  0  0
  -28.7086  -13.0151   21.0059 C   0  0  0  0  0  0
  -25.2619  -13.8180   20.5693 C   0  0  0  0  0  0
  -24.1883  -13.0462   20.9153 C   0  0  0  0  0  0
  -24.6427  -11.6912   20.8707 C   0  0  0  0  0  0
  -23.9093  -10.4310   21.0387 C   0  0  0  0  0  0
  -24.3642   -9.4221   21.9155 C   0  0  0  0  0  0
  -23.6315   -8.2260   22.0733 C   0  0  0  0  0  0
  -22.4280   -8.0305   21.3547 C   0  0  0  0  0  0
  -21.9934   -9.0273   20.4621 C   0  0  0  0  0  0
  -22.7274  -10.2147   20.3038 C   0  0  0  0  0  0
  -21.6852   -6.0768   22.5284 C   0  0  0  0  0  0
  -21.4003   -6.5654   23.8227 C   0  0  0  0  0  0
  -21.3666   -5.6786   24.9179 C   0  0  0  0  0  0
  -21.6060   -4.3053   24.7205 C   0  0  0  0  0  0
  -21.8814   -3.8164   23.4307 C   0  0  0  0  0  0
  -21.9193   -4.7002   22.3380 C   0  0  0  0  0  0
  -22.7897  -13.5239   21.1811 C   0  0  0  0  0  0
  -22.1658   -4.2199   21.0953 F   0  0  0  0  0  0
  -21.5636   -3.4521   25.7703 F   0  0  0  0  0  0
  -30.0564  -13.2671   20.4634 N   0  0  0  0  0  0
  -26.3068  -12.9359   20.3381 N   0  0  0  0  0  0
  -25.9362  -11.6514   20.5761 N   0  0  0  0  0  0
  -22.0559  -12.8242   22.0370 N   0  0  0  0  0  0
  -25.4338  -15.1916   20.4102 N   0  0  0  0  0  0
  -31.8300  -14.6037   19.9738 O   0  0  0  0  0  0
  -21.6628   -6.8916   21.4255 O   0  0  0  0  0  0
  -22.3575  -14.5549   20.6655 O   0  0  0  0  0  0
  -24.6167  -31.8649   23.2045 C   0  0  0  0  0  0
  -25.9073  -32.4786   23.8367 C   0  0  1  0  0  0
  -27.2501  -27.4308   20.0927 C   0  0  0  0  0  0
  -25.5941  -33.8603   24.2285 N   0  0  0  0  0  0
  -23.4020  -30.4872   21.5427 C   0  0  2  0  0  0
  -24.8512  -28.9503   20.1087 C   0  0  0  0  0  0
  -22.7394  -29.4644   22.4947 C   0  0  0  0  0  0
  -18.0276  -28.1355   22.8461 C   0  0  0  0  0  0
  -24.1483  -36.7312   23.2634 C   0  0  0  0  0  0
  -25.9324  -30.8233   21.3589 C   0  0  0  0  0  0
  -26.0108  -29.4609   20.7045 C   0  0  0  0  0  0
  -27.2088  -28.7098   20.6910 C   0  0  0  0  0  0
  -26.0685  -26.9319   19.4901 C   0  0  0  0  0  0
  -24.8760  -27.6819   19.4996 C   0  0  0  0  0  0
  -23.6092  -29.8164   20.1579 C   0  0  0  0  0  0
  -25.4100  -36.3079   24.0314 C   0  0  1  0  0  0
  -20.5856  -28.3645   23.1291 C   0  0  2  0  0  0
  -20.6775  -26.9392   22.5397 C   0  0  0  0  0  0
  -19.5762  -26.6362   21.5181 C   0  0  0  0  0  0
  -18.1931  -26.7900   22.1592 C   0  0  0  0  0  0
  -19.1529  -28.8809   23.2871 C   0  0  0  0  0  0
  -18.9484  -30.1411   23.8878 C   0  0  0  0  0  0
  -17.6501  -30.6575   24.0553 C   0  0  0  0  0  0
  -25.9047  -34.9451   23.5079 C   0  0  0  0  0  0
  -16.5376  -29.9091   23.6322 C   0  0  0  0  0  0
  -16.7273  -28.6500   23.0343 C   0  0  0  0  0  0
  -26.4483  -31.6587   25.0723 C   0  0  0  0  0  0
  -25.3811  -31.3738   26.1528 C   0  0  0  0  0  0
  -27.0281  -30.3004   24.6094 C   0  0  0  0  0  0
  -27.5998  -32.4338   25.7543 C   0  0  0  0  0  0
  -27.5550  -37.1802   24.8453 C   0  0  0  0  0  0
  -21.4118  -29.3034   22.3692 N   0  0  0  0  0  0
  -26.4265  -37.3780   23.9416 N   0  0  0  0  0  0
  -24.6676  -31.0729   22.0941 N   0  0  0  0  0  0
  -23.4152  -28.8211   23.3024 O   0  0  0  0  0  0
  -28.4331  -26.7101   20.1214 O   0  0  0  0  0  0
  -26.5594  -34.8906   22.4626 O   0  0  0  0  0  0
  -23.5351  -32.1455   23.7422 O   0  0  0  0  0  0
  -31.3338  -17.9345   19.9859 C   0  0  0  0  0  0
  -31.0131  -19.1074   19.2796 C   0  0  0  0  0  0
  -29.6553  -19.8641   21.1463 C   0  0  0  0  0  0
  -30.8211  -17.7008   21.2791 C   0  0  0  0  0  0
  -29.9539  -18.6693   21.8548 C   0  0  0  0  0  0
  -30.1901  -20.0913   19.8571 C   0  0  0  0  0  0
  -29.8618  -22.4969   19.1318 C   0  0  0  0  0  0
  -29.3025  -18.4296   23.2079 C   0  0  0  0  0  0
  -31.2276  -16.4129   22.0075 C   0  0  0  0  0  0
  -30.3163  -23.2180   20.4256 C   0  0  0  0  0  0
  -29.6220  -24.6041   20.7436 C   0  0  0  0  0  0
  -28.3270  -25.2790   20.1554 C   0  0  0  0  0  0
  -29.7913  -21.1606   19.0102 N   0  0  0  0  0  0
  -30.4587  -15.2215   21.6200 N   0  0  0  0  0  0
  -29.5962  -23.1718   18.1382 O   0  0  0  0  0  0
  -31.4513  -12.3127   19.1399 H   0  0  0  0  0  0
  -30.2425  -11.2723   19.8186 H   0  0  0  0  0  0
  -29.6517  -13.5244   17.8145 H   0  0  0  0  0  0
  -29.7335  -11.8241   17.4087 H   0  0  0  0  0  0
  -27.8305  -11.3083   18.8137 H   0  0  0  0  0  0
  -27.3582  -12.6448   17.7980 H   0  0  0  0  0  0
  -27.7018  -14.2561   19.5670 H   0  0  0  0  0  0
  -28.4668  -13.6554   21.8533 H   0  0  0  0  0  0
  -28.6646  -11.9940   21.3872 H   0  0  0  0  0  0
  -25.2814   -9.5678   22.4700 H   0  0  0  0  0  0
  -24.0032   -7.4645   22.7441 H   0  0  0  0  0  0
  -21.0880   -8.8810   19.8896 H   0  0  0  0  0  0
  -22.3775  -10.9683   19.6120 H   0  0  0  0  0  0
  -21.1988   -7.6157   23.9753 H   0  0  0  0  0  0
  -21.1494   -6.0496   25.9088 H   0  0  0  0  0  0
  -22.0592   -2.7632   23.2779 H   0  0  0  0  0  0
  -22.4167  -11.9888   22.4754 H   0  0  0  0  0  0
  -21.1161  -13.1222   22.2530 H   0  0  0  0  0  0
  -24.6717  -15.8512   20.5271 H   0  0  0  0  0  0
  -26.2996  -15.6349   20.1258 H   0  0  0  0  0  0
  -26.7163  -32.5438   23.1145 H   0  0  0  0  0  0
  -25.0200  -33.9804   25.0492 H   0  0  0  0  0  0
  -22.6913  -31.3023   21.4008 H   0  0  0  0  0  0
  -23.3709  -35.9685   23.3310 H   0  0  0  0  0  0
  -24.3574  -36.8918   22.2051 H   0  0  0  0  0  0
  -23.7278  -37.6529   23.6660 H   0  0  0  0  0  0
  -26.0562  -31.5831   20.5856 H   0  0  0  0  0  0
  -26.8163  -30.8708   21.9825 H   0  0  0  0  0  0
  -28.0987  -29.0988   21.1651 H   0  0  0  0  0  0
  -26.0477  -25.9636   19.0132 H   0  0  0  0  0  0
  -23.9901  -27.2688   19.0356 H   0  0  0  0  0  0
  -23.7185  -30.5920   19.3982 H   0  0  0  0  0  0
  -22.7306  -29.2409   19.8581 H   0  0  0  0  0  0
  -25.1277  -36.1925   25.0805 H   0  0  0  0  0  0
  -20.9964  -28.3231   24.1401 H   0  0  0  0  0  0
  -20.5644  -26.2279   23.3591 H   0  0  0  0  0  0
  -21.6660  -26.7430   22.1206 H   0  0  0  0  0  0
  -19.6954  -25.6274   21.1208 H   0  0  0  0  0  0
  -19.6704  -27.3168   20.6703 H   0  0  0  0  0  0
  -17.4208  -26.6610   21.3993 H   0  0  0  0  0  0
  -18.0353  -26.0043   22.8990 H   0  0  0  0  0  0
  -19.7985  -30.7195   24.2234 H   0  0  0  0  0  0
  -17.5098  -31.6258   24.5162 H   0  0  0  0  0  0
  -15.5390  -30.3022   23.7654 H   0  0  0  0  0  0
  -15.8653  -28.0831   22.7084 H   0  0  0  0  0  0
  -24.5974  -30.7041   25.7980 H   0  0  0  0  0  0
  -24.9060  -32.2932   26.4967 H   0  0  0  0  0  0
  -25.8283  -30.8995   27.0289 H   0  0  0  0  0  0
  -26.2814  -29.6815   24.1106 H   0  0  0  0  0  0
  -27.3989  -29.7170   25.4533 H   0  0  0  0  0  0
  -27.8684  -30.4246   23.9266 H   0  0  0  0  0  0
  -27.2507  -33.3599   26.2120 H   0  0  0  0  0  0
  -28.3859  -32.6973   25.0470 H   0  0  0  0  0  0
  -28.0616  -31.8506   26.5525 H   0  0  0  0  0  0
  -28.2554  -38.0105   24.7471 H   0  0  0  0  0  0
  -28.1047  -36.2623   24.6297 H   0  0  0  0  0  0
  -27.2276  -37.1476   25.8858 H   0  0  0  0  0  0
  -20.9268  -29.8806   21.6962 H   0  0  0  0  0  0
  -26.0120  -38.2834   24.1456 H   0  0  0  0  0  0
  -31.9663  -17.1975   19.5113 H   0  0  0  0  0  0
  -31.3895  -19.2372   18.2744 H   0  0  0  0  0  0
  -28.9721  -20.5804   21.5802 H   0  0  0  0  0  0
  -28.5200  -19.1658   23.4007 H   0  0  0  0  0  0
  -30.0347  -18.4893   24.0145 H   0  0  0  0  0  0
  -28.8419  -17.4398   23.2434 H   0  0  0  0  0  0
  -31.1853  -16.5450   23.0884 H   0  0  0  0  0  0
  -32.2909  -16.2437   21.8161 H   0  0  0  0  0  0
  -30.2739  -22.5332   21.2761 H   0  0  0  0  0  0
  -31.3886  -23.3913   20.3180 H   0  0  0  0  0  0
  -28.8724  -23.8798   21.0559 H   0  0  0  0  0  0
  -30.0784  -24.9537   19.8147 H   0  0  0  0  0  0
  -28.1071  -24.9262   19.1474 H   0  0  0  0  0  0
  -27.4405  -25.0539   20.7584 H   0  0  0  0  0  0
  -29.5929  -20.8870   18.0579 H   0  0  0  0  0  0
  -29.6722  -14.9621   22.1943 H   0  0  0  0  0  0
  1 25  1  0  0  0
  1 30  2  0  0  0
  1 84  1  0  0  0
  2  3  1  0  0  0
  2 25  1  0  0  0
  2 86  1  0  0  0
  2 87  1  0  0  0
  3  4  1  0  0  0
  3 88  1  0  0  0
  3 89  1  0  0  0
  4  5  1  0  0  0
  4 90  1  0  0  0
  4 91  1  0  0  0
  5  6  1  0  0  0
  5 26  1  0  0  0
  5 92  1  0  0  0
  6 25  1  0  0  0
  6 93  1  0  0  0
  6 94  1  0  0  0
  7  8  2  0  0  0
  7 26  1  0  0  0
  7 29  1  0  0  0
  8  9  1  0  0  0
  8 22  1  0  0  0
  9 10  1  0  0  0
  9 27  2  0  0  0
 10 11  2  0  0  0
 10 15  1  0  0  0
 11 12  1  0  0  0
 11 95  1  0  0  0
 12 13  2  0  0  0
 12 96  1  0  0  0
 13 14  1  0  0  0
 13 31  1  0  0  0
 14 15  2  0  0  0
 14 97  1  0  0  0
 15 98  1  0  0  0
 16 17  2  0  0  0
 16 21  1  0  0  0
 16 31  1  0  0  0
 17 18  1  0  0  0
 17 99  1  0  0  0
 18 19  2  0  0  0
 18100  1  0  0  0
 19 20  1  0  0  0
 19 24  1  0  0  0
 20 21  2  0  0  0
 20101  1  0  0  0
 21 23  1  0  0  0
 22 28  1  0  0  0
 22 32  2  0  0  0
 26 27  1  0  0  0
 28102  1  0  0  0
 28103  1  0  0  0
 29104  1  0  0  0
 29105  1  0  0  0
 33 34  1  0  0  0
 33 66  1  0  0  0
 33 70  2  0  0  0
 34 36  1  0  0  0
 34 59  1  0  0  0
 34106  1  0  0  0
 35 44  2  0  0  0
 35 45  1  0  0  0
 35 68  1  0  0  0
 36 56  1  0  0  0
 36107  1  0  0  0
 37 39  1  0  0  0
 37 47  1  0  0  0
 37 66  1  0  0  0
 37108  1  0  0  0
 38 43  2  0  0  0
 38 46  1  0  0  0
 38 47  1  0  0  0
 39 64  1  0  0  0
 39 67  2  0  0  0
 40 52  1  0  0  0
 40 53  2  0  0  0
 40 58  1  0  0  0
 41109  1  0  0  0
 41110  1  0  0  0
 41111  1  0  0  0
 41 48  1  0  0  0
 42 43  1  0  0  0
 42 66  1  0  0  0
 42112  1  0  0  0
 42113  1  0  0  0
 43 44  1  0  0  0
 44114  1  0  0  0
 45 46  2  0  0  0
 45115  1  0  0  0
 46116  1  0  0  0
 47117  1  0  0  0
 47118  1  0  0  0
 48 56  1  0  0  0
 48 65  1  0  0  0
 48119  1  0  0  0
 49 50  1  0  0  0
 49 53  1  0  0  0
 49 64  1  0  0  0
 49120  1  0  0  0
 50 51  1  0  0  0
 50121  1  0  0  0
 50122  1  0  0  0
 51 52  1  0  0  0
 51123  1  0  0  0
 51124  1  0  0  0
 52125  1  0  0  0
 52126  1  0  0  0
 53 54  1  0  0  0
 54 55  2  0  0  0
 54127  1  0  0  0
 55 57  1  0  0  0
 55128  1  0  0  0
 56 69  2  0  0  0
 57 58  2  0  0  0
 57129  1  0  0  0
 58130  1  0  0  0
 59 60  1  0  0  0
 59 61  1  0  0  0
 59 62  1  0  0  0
 60131  1  0  0  0
 60132  1  0  0  0
 60133  1  0  0  0
 61134  1  0  0  0
 61135  1  0  0  0
 61136  1  0  0  0
 62137  1  0  0  0
 62138  1  0  0  0
 62139  1  0  0  0
 63 65  1  0  0  0
 63140  1  0  0  0
 63141  1  0  0  0
 63142  1  0  0  0
 64143  1  0  0  0
 65144  1  0  0  0
 68 82  1  0  0  0
 71 72  2  0  0  0
 71 74  1  0  0  0
 71145  1  0  0  0
 72 76  1  0  0  0
 72146  1  0  0  0
 73 75  1  0  0  0
 73 76  2  0  0  0
 73147  1  0  0  0
 74 75  2  0  0  0
 74 79  1  0  0  0
 75 78  1  0  0  0
 76 83  1  0  0  0
 77 80  1  0  0  0
 77 83  1  0  0  0
 77 85  2  0  0  0
 78148  1  0  0  0
 78149  1  0  0  0
 78150  1  0  0  0
 79 84  1  0  0  0
 79151  1  0  0  0
 79152  1  0  0  0
 80 81  1  0  0  0
 80153  1  0  0  0
 80154  1  0  0  0
 81 82  1  0  0  0
 81155  1  0  0  0
 81156  1  0  0  0
 82157  1  0  0  0
 82158  1  0  0  0
 83159  1  0  0  0
 84160  1  0  0  0
M  ISO  4   1 100  68 101  82 101  84 100
M  END
> <chiral flag>
0

> <version>
0

> <s_m_source_file>
/data/baiqing/PycharmProjects/Reinvent-master-3.2/result/LINK_invent/BTK/process_docking_weight1_custom_product_contain_oxygen_bond_distance_aromatic_linkinvent_7_9_3/rearranged_h_0103.sdf

> <i_m_source_file_index>
94

> <r_mmod_Potential_Energy-OPLS-2005>
98.2010345458984

> <r_mmod_Stretch_Energy-OPLS-2005>
43.5231056213379

> <r_mmod_Bend_Energy-OPLS-2005>
347.082916259766

> <r_mmod_Torsional_Energy-OPLS-2005>
230.589050292969

> <r_mmod_Improper_Torsional_Energy-OPLS-2005>
3.71753907203674

> <r_mmod_Van_der_Waal_Energy-OPLS-2005>
171.973281860352

> <r_mmod_Electrostatic_Energy-OPLS-2005>
-489.291259765625

> <r_mmod_Solvation_Energy-OPLS-2005>
-221.238388061523

> <b_mmod_Minimization_Converged-OPLS-2005>
0

> <r_mmod_RMS_Derivative-OPLS-2005>
4.68313837051392

$$$$
94
                    3D
 Structure written by MMmdl.
171180  0  0  1  0            999 V2000
  -30.8124  -14.3701   20.5236 C   0  0  0  0  0  0
  -30.4033  -12.1813   19.4911 C   0  0  0  0  0  0
  -29.5272  -12.4193   18.2421 C   0  0  0  0  0  0
  -28.0277  -12.3789   18.6039 C   0  0  0  0  0  0
  -27.6722  -13.2138   19.8684 C   0  0  2  0  0  0
  -28.7152  -13.0340   21.0029 C   0  0  0  0  0  0
  -25.2615  -13.8173   20.5681 C   0  0  0  0  0  0
  -24.1882  -13.0419   20.9152 C   0  0  0  0  0  0
  -24.6474  -11.6906   20.8731 C   0  0  0  0  0  0
  -23.9158  -10.4307   21.0405 C   0  0  0  0  0  0
  -24.3698   -9.4206   21.9201 C   0  0  0  0  0  0
  -23.6329   -8.2256   22.0767 C   0  0  0  0  0  0
  -22.4338   -8.0344   21.3532 C   0  0  0  0  0  0
  -21.9985   -9.0321   20.4653 C   0  0  0  0  0  0
  -22.7326  -10.2167   20.3045 C   0  0  0  0  0  0
  -21.6871   -6.0760   22.5276 C   0  0  0  0  0  0
  -21.4043   -6.5658   23.8215 C   0  0  0  0  0  0
  -21.3674   -5.6806   24.9182 C   0  0  0  0  0  0
  -21.6022   -4.3065   24.7224 C   0  0  0  0  0  0
  -21.8811   -3.8157   23.4359 C   0  0  0  0  0  0
  -21.9192   -4.6977   22.3409 C   0  0  0  0  0  0
  -22.7903  -13.5201   21.1837 C   0  0  0  0  0  0
  -22.1660   -4.2186   21.0974 F   0  0  0  0  0  0
  -21.5628   -3.4550   25.7723 F   0  0  0  0  0  0
  -30.0690  -13.2369   20.4521 N   0  0  0  0  0  0
  -26.3098  -12.9384   20.3269 N   0  0  0  0  0  0
  -25.9415  -11.6546   20.5774 N   0  0  0  0  0  0
  -22.0538  -12.8202   22.0407 N   0  0  0  0  0  0
  -25.4194  -15.1922   20.4225 N   0  0  0  0  0  0
  -31.9800  -14.4462   20.1397 O   0  0  0  0  0  0
  -21.6661   -6.8956   21.4264 O   0  0  0  0  0  0
  -22.3556  -14.5519   20.6733 O   0  0  0  0  0  0
  -24.6128  -31.8742   23.2006 C   0  0  0  0  0  0
  -25.9041  -32.4831   23.8310 C   0  0  1  0  0  0
  -27.1475  -27.3858   20.1003 C   0  0  0  0  0  0
  -25.5881  -33.8609   24.2311 N   0  0  0  0  0  0
  -23.3977  -30.5027   21.5308 C   0  0  2  0  0  0
  -24.8416  -29.0010   20.0614 C   0  0  0  0  0  0
  -22.7370  -29.4678   22.4733 C   0  0  0  0  0  0
  -18.0230  -28.1401   22.8712 C   0  0  0  0  0  0
  -24.1491  -36.7291   23.2658 C   0  0  0  0  0  0
  -25.9396  -30.8118   21.3838 C   0  0  0  0  0  0
  -25.9976  -29.4537   20.7134 C   0  0  0  0  0  0
  -27.1563  -28.6420   20.7517 C   0  0  0  0  0  0
  -26.0426  -27.0455   19.3091 C   0  0  0  0  0  0
  -24.8665  -27.8021   19.3348 C   0  0  0  0  0  0
  -23.6075  -29.8684   20.1312 C   0  0  0  0  0  0
  -25.4123  -36.3118   24.0362 C   0  0  1  0  0  0
  -20.5859  -28.3775   23.1105 C   0  0  2  0  0  0
  -20.6774  -26.9414   22.5552 C   0  0  0  0  0  0
  -19.5532  -26.5726   21.5907 C   0  0  0  0  0  0
  -18.1869  -26.7649   22.2547 C   0  0  0  0  0  0
  -19.1556  -28.9018   23.2797 C   0  0  0  0  0  0
  -18.9544  -30.1809   23.8409 C   0  0  0  0  0  0
  -17.6568  -30.6904   24.0041 C   0  0  0  0  0  0
  -25.9057  -34.9480   23.5165 C   0  0  0  0  0  0
  -16.5402  -29.9369   23.5943 C   0  0  0  0  0  0
  -16.7294  -28.6702   23.0277 C   0  0  0  0  0  0
  -26.4482  -31.6628   25.0676 C   0  0  0  0  0  0
  -25.3739  -31.3701   26.1397 C   0  0  0  0  0  0
  -27.0328  -30.3059   24.6175 C   0  0  0  0  0  0
  -27.6104  -32.4306   25.7426 C   0  0  0  0  0  0
  -27.5586  -37.1775   24.8464 C   0  0  0  0  0  0
  -21.4185  -29.2923   22.3379 N   0  0  0  0  0  0
  -26.4302  -37.3809   23.9389 N   0  0  0  0  0  0
  -24.6647  -31.0802   22.0929 N   0  0  0  0  0  0
  -23.4120  -28.8343   23.2885 O   0  0  0  0  0  0
  -28.1683  -26.4863   20.2800 O   0  0  0  0  0  0
  -26.5610  -34.8952   22.4727 O   0  0  0  0  0  0
  -23.5314  -32.1549   23.7413 O   0  0  0  0  0  0
  -25.8308  -19.8519   23.2514 C   0  0  0  0  0  0
  -26.7095  -18.7639   23.0804 C   0  0  0  0  0  0
  -27.4604  -20.9389   24.6992 C   0  0  0  0  0  0
  -26.2026  -20.9572   24.0375 C   0  0  0  0  0  0
  -27.9743  -18.7483   23.7284 C   0  0  0  0  0  0
  -28.3359  -19.8392   24.5390 C   0  0  0  0  0  0
  -25.3833  -24.0454   19.6758 C   0  0  0  0  0  0
  -24.6492  -22.9190   20.4187 C   0  0  0  0  0  0
  -26.4800  -23.7011   21.7835 C   0  0  0  0  0  0
  -26.7989  -24.0633   20.3157 C   0  0  2  0  0  0
  -25.2778  -22.1538   24.2030 C   0  0  0  0  0  0
  -30.1349  -15.6977   20.7739 C   0  0  0  0  0  0
  -27.9764  -25.0781   19.9119 C   0  0  0  0  0  0
  -30.1073  -16.1547   22.2212 C   0  0  0  0  0  0
  -24.5013  -22.6026   22.9246 C   0  0  0  0  0  0
  -28.8924  -17.0599   22.3513 C   0  0  0  0  0  0
  -25.3680  -22.7089   21.7090 N   0  3  1  0  0  0
  -28.8762  -17.7126   23.6038 O   0  0  0  0  0  0
  -29.5393  -19.8364   25.1681 F   0  0  0  0  0  0
  -31.4679  -12.1530   19.2527 H   0  0  0  0  0  0
  -30.1771  -11.2092   19.9364 H   0  0  0  0  0  0
  -29.7572  -11.6530   17.5026 H   0  0  0  0  0  0
  -29.7861  -13.3674   17.7743 H   0  0  0  0  0  0
  -27.7535  -11.3380   18.7631 H   0  0  0  0  0  0
  -27.4411  -12.7192   17.7544 H   0  0  0  0  0  0
  -27.7078  -14.2571   19.5685 H   0  0  0  0  0  0
  -28.6369  -12.0411   21.4401 H   0  0  0  0  0  0
  -28.5099  -13.7336   21.8159 H   0  0  0  0  0  0
  -25.2875   -9.5666   22.4777 H   0  0  0  0  0  0
  -24.0056   -7.4631   22.7471 H   0  0  0  0  0  0
  -21.0916   -8.8858   19.8944 H   0  0  0  0  0  0
  -22.3832  -10.9743   19.6151 H   0  0  0  0  0  0
  -21.2058   -7.6183   23.9745 H   0  0  0  0  0  0
  -21.1499   -6.0535   25.9079 H   0  0  0  0  0  0
  -22.0575   -2.7649   23.2821 H   0  0  0  0  0  0
  -22.4248  -11.9906   22.4829 H   0  0  0  0  0  0
  -21.1103  -13.1169   22.2535 H   0  0  0  0  0  0
  -24.6285  -15.8199   20.5397 H   0  0  0  0  0  0
  -26.2615  -15.6719   20.1289 H   0  0  0  0  0  0
  -26.7108  -32.5526   23.1027 H   0  0  0  0  0  0
  -24.9875  -33.9750   25.0349 H   0  0  0  0  0  0
  -22.6818  -31.3127   21.4003 H   0  0  0  0  0  0
  -23.3772  -35.9604   23.3367 H   0  0  0  0  0  0
  -24.3603  -36.8851   22.2062 H   0  0  0  0  0  0
  -23.7186  -37.6500   23.6638 H   0  0  0  0  0  0
  -26.0988  -31.5909   20.6402 H   0  0  0  0  0  0
  -26.8122  -30.8410   22.0190 H   0  0  0  0  0  0
  -28.0245  -28.9404   21.3186 H   0  0  0  0  0  0
  -26.0623  -26.1950   18.6559 H   0  0  0  0  0  0
  -24.0121  -27.4994   18.7312 H   0  0  0  0  0  0
  -23.7227  -30.6635   19.3894 H   0  0  0  0  0  0
  -22.7318  -29.2972   19.8135 H   0  0  0  0  0  0
  -25.1293  -36.2037   25.0853 H   0  0  0  0  0  0
  -21.0039  -28.3509   24.1184 H   0  0  0  0  0  0
  -20.6265  -26.2557   23.4003 H   0  0  0  0  0  0
  -21.6520  -26.7312   22.1120 H   0  0  0  0  0  0
  -19.6522  -25.5370   21.2598 H   0  0  0  0  0  0
  -19.6049  -27.2064   20.7112 H   0  0  0  0  0  0
  -17.3808  -26.5449   21.5541 H   0  0  0  0  0  0
  -18.0738  -26.0371   23.0507 H   0  0  0  0  0  0
  -19.8043  -30.8026   24.1190 H   0  0  0  0  0  0
  -17.5115  -31.6734   24.4430 H   0  0  0  0  0  0
  -15.5429  -30.3289   23.7240 H   0  0  0  0  0  0
  -15.8653  -28.1017   22.7023 H   0  0  0  0  0  0
  -24.5953  -30.7047   25.7654 H   0  0  0  0  0  0
  -24.8839  -32.2816   26.4847 H   0  0  0  0  0  0
  -25.8100  -30.8831   27.0121 H   0  0  0  0  0  0
  -26.2886  -29.6782   24.1263 H   0  0  0  0  0  0
  -27.4057  -29.7405   25.4711 H   0  0  0  0  0  0
  -27.8780  -30.4343   23.9410 H   0  0  0  0  0  0
  -27.2838  -33.3601   26.2099 H   0  0  0  0  0  0
  -28.3900  -32.6844   25.0232 H   0  0  0  0  0  0
  -28.0814  -31.8311   26.5232 H   0  0  0  0  0  0
  -28.2607  -38.0076   24.7519 H   0  0  0  0  0  0
  -28.1071  -36.2573   24.6316 H   0  0  0  0  0  0
  -27.2255  -37.1465   25.8861 H   0  0  0  0  0  0
  -20.9553  -29.8320   21.6236 H   0  0  0  0  0  0
  -26.0231  -38.2888   24.1448 H   0  0  0  0  0  0
  -24.8700  -19.8425   22.7564 H   0  0  0  0  0  0
  -26.3956  -17.9523   22.4482 H   0  0  0  0  0  0
  -27.7593  -21.7444   25.3500 H   0  0  0  0  0  0
  -24.8070  -24.9506   19.8711 H   0  0  0  0  0  0
  -25.3932  -23.8862   18.5927 H   0  0  0  0  0  0
  -24.6743  -22.0053   19.8216 H   0  0  0  0  0  0
  -23.5955  -23.1644   20.5353 H   0  0  0  0  0  0
  -26.1547  -24.5912   22.3303 H   0  0  0  0  0  0
  -27.3296  -23.2650   22.3216 H   0  0  0  0  0  0
  -27.2238  -23.1300   19.9319 H   0  0  0  0  0  0
  -25.8522  -22.9782   24.6346 H   0  0  0  0  0  0
  -24.5487  -21.9074   24.9824 H   0  0  0  0  0  0
  -30.7001  -16.4522   20.2227 H   0  0  0  0  0  0
  -29.1572  -15.6949   20.3063 H   0  0  0  0  0  0
  -28.1174  -25.0155   18.8310 H   0  0  0  0  0  0
  -28.8746  -24.6178   20.3287 H   0  0  0  0  0  0
  -31.0289  -16.7018   22.4388 H   0  0  0  0  0  0
  -30.0687  -15.3273   22.9260 H   0  0  0  0  0  0
  -24.0223  -23.5602   23.1216 H   0  0  0  0  0  0
  -23.6898  -21.9031   22.7240 H   0  0  0  0  0  0
  -27.9864  -16.4716   22.1974 H   0  0  0  0  0  0
  -28.9435  -17.8168   21.5667 H   0  0  0  0  0  0
  -25.7946  -21.7988   21.6161 H   0  0  0  0  0  0
  1 25  1  0  0  0
  1 30  2  0  0  0
  1 82  1  0  0  0
  2  3  1  0  0  0
  2 25  1  0  0  0
  2 90  1  0  0  0
  2 91  1  0  0  0
  3  4  1  0  0  0
  3 92  1  0  0  0
  3 93  1  0  0  0
  4  5  1  0  0  0
  4 94  1  0  0  0
  4 95  1  0  0  0
  5  6  1  0  0  0
  5 26  1  0  0  0
  5 96  1  0  0  0
  6 25  1  0  0  0
  6 97  1  0  0  0
  6 98  1  0  0  0
  7  8  2  0  0  0
  7 26  1  0  0  0
  7 29  1  0  0  0
  8  9  1  0  0  0
  8 22  1  0  0  0
  9 10  1  0  0  0
  9 27  2  0  0  0
 10 11  2  0  0  0
 10 15  1  0  0  0
 11 12  1  0  0  0
 11 99  1  0  0  0
 12 13  2  0  0  0
 12100  1  0  0  0
 13 14  1  0  0  0
 13 31  1  0  0  0
 14 15  2  0  0  0
 14101  1  0  0  0
 15102  1  0  0  0
 16 17  2  0  0  0
 16 21  1  0  0  0
 16 31  1  0  0  0
 17 18  1  0  0  0
 17103  1  0  0  0
 18 19  2  0  0  0
 18104  1  0  0  0
 19 20  1  0  0  0
 19 24  1  0  0  0
 20 21  2  0  0  0
 20105  1  0  0  0
 21 23  1  0  0  0
 22 28  1  0  0  0
 22 32  2  0  0  0
 26 27  1  0  0  0
 28106  1  0  0  0
 28107  1  0  0  0
 29108  1  0  0  0
 29109  1  0  0  0
 33 34  1  0  0  0
 33 66  1  0  0  0
 33 70  2  0  0  0
 34 36  1  0  0  0
 34 59  1  0  0  0
 34110  1  0  0  0
 35 44  2  0  0  0
 35 45  1  0  0  0
 35 68  1  0  0  0
 36 56  1  0  0  0
 36111  1  0  0  0
 37 39  1  0  0  0
 37 47  1  0  0  0
 37 66  1  0  0  0
 37112  1  0  0  0
 38 43  2  0  0  0
 38 46  1  0  0  0
 38 47  1  0  0  0
 39 64  1  0  0  0
 39 67  2  0  0  0
 40 52  1  0  0  0
 40 53  2  0  0  0
 40 58  1  0  0  0
 41113  1  0  0  0
 41114  1  0  0  0
 41115  1  0  0  0
 41 48  1  0  0  0
 42 43  1  0  0  0
 42 66  1  0  0  0
 42116  1  0  0  0
 42117  1  0  0  0
 43 44  1  0  0  0
 44118  1  0  0  0
 45 46  2  0  0  0
 45119  1  0  0  0
 46120  1  0  0  0
 47121  1  0  0  0
 47122  1  0  0  0
 48 56  1  0  0  0
 48 65  1  0  0  0
 48123  1  0  0  0
 49 50  1  0  0  0
 49 53  1  0  0  0
 49 64  1  0  0  0
 49124  1  0  0  0
 50 51  1  0  0  0
 50125  1  0  0  0
 50126  1  0  0  0
 51 52  1  0  0  0
 51127  1  0  0  0
 51128  1  0  0  0
 52129  1  0  0  0
 52130  1  0  0  0
 53 54  1  0  0  0
 54 55  2  0  0  0
 54131  1  0  0  0
 55 57  1  0  0  0
 55132  1  0  0  0
 56 69  2  0  0  0
 57 58  2  0  0  0
 57133  1  0  0  0
 58134  1  0  0  0
 59 60  1  0  0  0
 59 61  1  0  0  0
 59 62  1  0  0  0
 60135  1  0  0  0
 60136  1  0  0  0
 60137  1  0  0  0
 61138  1  0  0  0
 61139  1  0  0  0
 61140  1  0  0  0
 62141  1  0  0  0
 62142  1  0  0  0
 62143  1  0  0  0
 63 65  1  0  0  0
 63144  1  0  0  0
 63145  1  0  0  0
 63146  1  0  0  0
 64147  1  0  0  0
 65148  1  0  0  0
 68 83  1  0  0  0
 71 72  2  0  0  0
 71 74  1  0  0  0
 71149  1  0  0  0
 72 75  1  0  0  0
 72150  1  0  0  0
 73 74  2  0  0  0
 73 76  1  0  0  0
 73151  1  0  0  0
 74 81  1  0  0  0
 75 76  2  0  0  0
 75 88  1  0  0  0
 76 89  1  0  0  0
 77 78  1  0  0  0
 77 80  1  0  0  0
 77152  1  0  0  0
 77153  1  0  0  0
 78 87  1  0  0  0
 78154  1  0  0  0
 78155  1  0  0  0
 79 80  1  0  0  0
 79 87  1  0  0  0
 79156  1  0  0  0
 79157  1  0  0  0
 80 83  1  0  0  0
 80158  1  0  0  0
 81 85  1  0  0  0
 81159  1  0  0  0
 81160  1  0  0  0
 82 84  1  0  0  0
 82161  1  0  0  0
 82162  1  0  0  0
 83163  1  0  0  0
 83164  1  0  0  0
 84 86  1  0  0  0
 84165  1  0  0  0
 84166  1  0  0  0
 85167  1  0  0  0
 85168  1  0  0  0
 85 87  1  0  0  0
 86 88  1  0  0  0
 86169  1  0  0  0
 86170  1  0  0  0
 87171  1  0  0  0
M  CHG  1  87   1
M  ISO  4   1 100  68 101  82 100  83 101
M  END
> <chiral flag>
0

> <version>
0

> <s_m_source_file>
/data/baiqing/PycharmProjects/Reinvent-master-3.2/result/LINK_invent/BTK/process_docking_weight1_custom_product_contain_oxygen_bond_distance_aromatic_linkinvent_7_9_3/rearranged_h_0103.sdf

> <i_m_source_file_index>
95

> <r_mmod_Potential_Energy-OPLS-2005>
90.9832916259766

> <r_mmod_Stretch_Energy-OPLS-2005>
50.3023986816406

> <r_mmod_Bend_Energy-OPLS-2005>
199.771194458008

> <r_mmod_Torsional_Energy-OPLS-2005>
275.595001220703

> <r_mmod_Improper_Torsional_Energy-OPLS-2005>
7.00657033920288

> <r_mmod_Van_der_Waal_Energy-OPLS-2005>
155.271331787109

> <r_mmod_Electrostatic_Energy-OPLS-2005>
-211.518508911133

> <r_mmod_Solvation_Energy-OPLS-2005>
-445.191528320312

> <b_mmod_Minimization_Converged-OPLS-2005>
0

> <r_mmod_RMS_Derivative-OPLS-2005>
15.2060661315918

$$$$
95
                    3D
 Structure written by MMmdl.
157166  0  0  1  0            999 V2000
  -30.6398  -14.5506   20.5841 C   0  0  0  0  0  0
  -30.4476  -12.3573   19.4338 C   0  0  0  0  0  0
  -29.5085  -12.5186   18.2167 C   0  0  0  0  0  0
  -28.0301  -12.3596   18.6274 C   0  0  0  0  0  0
  -27.6654  -13.2022   19.8772 C   0  0  2  0  0  0
  -28.7045  -12.9802   20.9995 C   0  0  0  0  0  0
  -25.2620  -13.8140   20.5674 C   0  0  0  0  0  0
  -24.1850  -13.0434   20.9144 C   0  0  0  0  0  0
  -24.6393  -11.6895   20.8708 C   0  0  0  0  0  0
  -23.9050  -10.4289   21.0389 C   0  0  0  0  0  0
  -24.3604   -9.4208   21.9176 C   0  0  0  0  0  0
  -23.6276   -8.2251   22.0756 C   0  0  0  0  0  0
  -22.4261   -8.0291   21.3548 C   0  0  0  0  0  0
  -21.9890   -9.0258   20.4652 C   0  0  0  0  0  0
  -22.7216  -10.2136   20.3045 C   0  0  0  0  0  0
  -21.6860   -6.0729   22.5275 C   0  0  0  0  0  0
  -21.4022   -6.5633   23.8207 C   0  0  0  0  0  0
  -21.3652   -5.6790   24.9169 C   0  0  0  0  0  0
  -21.6038   -4.3051   24.7220 C   0  0  0  0  0  0
  -21.8825   -3.8138   23.4344 C   0  0  0  0  0  0
  -21.9195   -4.6954   22.3397 C   0  0  0  0  0  0
  -22.7880  -13.5254   21.1805 C   0  0  0  0  0  0
  -22.1670   -4.2141   21.0975 F   0  0  0  0  0  0
  -21.5612   -3.4534   25.7730 F   0  0  0  0  0  0
  -30.0347  -13.3298   20.4629 N   0  0  0  0  0  0
  -26.3044  -12.9294   20.3347 N   0  0  0  0  0  0
  -25.9320  -11.6459   20.5733 N   0  0  0  0  0  0
  -22.0520  -12.8262   22.0375 N   0  0  0  0  0  0
  -25.4384  -15.1862   20.4132 N   0  0  0  0  0  0
  -31.7287  -14.8072   20.0602 O   0  0  0  0  0  0
  -21.6641   -6.8880   21.4241 O   0  0  0  0  0  0
  -22.3571  -14.5558   20.6641 O   0  0  0  0  0  0
  -24.6211  -31.8643   23.2087 C   0  0  0  0  0  0
  -25.9081  -32.4803   23.8394 C   0  0  1  0  0  0
  -27.2201  -27.3661   20.0974 C   0  0  0  0  0  0
  -25.5919  -33.8607   24.2312 N   0  0  0  0  0  0
  -23.4123  -30.4920   21.5502 C   0  0  2  0  0  0
  -24.8565  -28.9601   20.1105 C   0  0  0  0  0  0
  -22.7438  -29.4652   22.4944 C   0  0  0  0  0  0
  -18.0281  -28.1380   22.8489 C   0  0  0  0  0  0
  -24.1489  -36.7304   23.2638 C   0  0  0  0  0  0
  -25.9519  -30.8074   21.3777 C   0  0  0  0  0  0
  -26.0250  -29.4422   20.7135 C   0  0  0  0  0  0
  -27.2103  -28.6552   20.7021 C   0  0  0  0  0  0
  -26.0275  -26.9338   19.4663 C   0  0  0  0  0  0
  -24.8568  -27.7081   19.4820 C   0  0  0  0  0  0
  -23.6236  -29.8344   20.1633 C   0  0  0  0  0  0
  -25.4113  -36.3098   24.0330 C   0  0  1  0  0  0
  -20.5878  -28.3682   23.1286 C   0  0  2  0  0  0
  -20.6770  -26.9409   22.5404 C   0  0  0  0  0  0
  -19.5751  -26.6384   21.5202 C   0  0  0  0  0  0
  -18.1930  -26.7925   22.1621 C   0  0  0  0  0  0
  -19.1534  -28.8845   23.2887 C   0  0  0  0  0  0
  -18.9461  -30.1445   23.8907 C   0  0  0  0  0  0
  -17.6463  -30.6585   24.0567 C   0  0  0  0  0  0
  -25.9044  -34.9464   23.5114 C   0  0  0  0  0  0
  -16.5352  -29.9088   23.6329 C   0  0  0  0  0  0
  -16.7269  -28.6503   23.0354 C   0  0  0  0  0  0
  -26.4478  -31.6610   25.0756 C   0  0  0  0  0  0
  -25.3721  -31.3759   26.1494 C   0  0  0  0  0  0
  -27.0316  -30.3032   24.6207 C   0  0  0  0  0  0
  -27.6042  -32.4347   25.7514 C   0  0  0  0  0  0
  -27.5580  -37.1808   24.8460 C   0  0  0  0  0  0
  -21.4160  -29.3049   22.3685 N   0  0  0  0  0  0
  -26.4294  -37.3787   23.9400 N   0  0  0  0  0  0
  -24.6801  -31.0691   22.1025 N   0  0  0  0  0  0
  -23.4177  -28.8174   23.2997 O   0  0  0  0  0  0
  -28.3452  -26.5377   20.1465 O   0  0  0  0  0  0
  -26.5606  -34.8916   22.4675 O   0  0  0  0  0  0
  -23.5385  -32.1432   23.7437 O   0  0  0  0  0  0
  -30.1868  -17.7909   20.3254 C   0  0  0  0  0  0
  -29.1628  -19.1898   21.8740 C   0  0  0  0  0  0
  -29.7754  -19.1511   20.6461 C   0  0  0  0  0  0
  -29.8527  -16.8307   21.2718 C   0  0  0  0  0  0
  -30.4510  -24.0175   19.5664 C   0  0  0  0  0  0
  -31.0789  -22.6352   19.8559 C   0  0  0  0  0  0
  -28.7633  -22.5680   20.3791 C   0  0  0  0  0  0
  -29.1915  -24.0718   20.4291 C   0  0  2  0  0  0
  -29.9429  -20.3718   19.7228 C   0  0  0  0  0  0
  -28.1038  -25.1042   19.9654 C   0  0  0  0  0  0
  -29.9329  -15.4590   21.3017 N   0  0  0  0  0  0
  -30.0101  -21.7362   20.3743 N   0  3  1  0  0  0
  -29.0648  -17.6173   22.6178 S   0  0  0  0  0  0
  -31.4861  -12.4974   19.1292 H   0  0  0  0  0  0
  -30.3913  -11.3442   19.8340 H   0  0  0  0  0  0
  -29.7611  -11.7873   17.4484 H   0  0  0  0  0  0
  -29.6581  -13.4989   17.7629 H   0  0  0  0  0  0
  -27.8568  -11.3023   18.8328 H   0  0  0  0  0  0
  -27.3775  -12.6193   17.7929 H   0  0  0  0  0  0
  -27.7088  -14.2493   19.5766 H   0  0  0  0  0  0
  -28.6997  -11.9347   21.3132 H   0  0  0  0  0  0
  -28.4365  -13.5450   21.8931 H   0  0  0  0  0  0
  -25.2752   -9.5672   22.4743 H   0  0  0  0  0  0
  -23.9980   -7.4643   22.7476 H   0  0  0  0  0  0
  -21.0816   -8.8769   19.8971 H   0  0  0  0  0  0
  -22.3675  -10.9663   19.6146 H   0  0  0  0  0  0
  -21.2037   -7.6147   23.9705 H   0  0  0  0  0  0
  -21.1460   -6.0522   25.9070 H   0  0  0  0  0  0
  -22.0610   -2.7598   23.2848 H   0  0  0  0  0  0
  -22.4130  -11.9931   22.4774 H   0  0  0  0  0  0
  -21.1145  -13.1309   22.2572 H   0  0  0  0  0  0
  -24.6791  -15.8481   20.5271 H   0  0  0  0  0  0
  -26.3033  -15.6222   20.1181 H   0  0  0  0  0  0
  -26.7146  -32.5480   23.1143 H   0  0  0  0  0  0
  -25.0063  -33.9767   25.0454 H   0  0  0  0  0  0
  -22.7058  -31.3127   21.4120 H   0  0  0  0  0  0
  -23.3744  -35.9644   23.3311 H   0  0  0  0  0  0
  -24.3580  -36.8909   22.2049 H   0  0  0  0  0  0
  -23.7248  -37.6514   23.6649 H   0  0  0  0  0  0
  -26.0854  -31.5790   20.6183 H   0  0  0  0  0  0
  -26.8314  -30.8468   22.0090 H   0  0  0  0  0  0
  -28.1058  -29.0198   21.1865 H   0  0  0  0  0  0
  -25.9633  -25.9850   18.9556 H   0  0  0  0  0  0
  -23.9611  -27.3342   19.0056 H   0  0  0  0  0  0
  -23.7392  -30.6145   19.4103 H   0  0  0  0  0  0
  -22.7451  -29.2623   19.8596 H   0  0  0  0  0  0
  -25.1289  -36.1963   25.0825 H   0  0  0  0  0  0
  -20.9972  -28.3251   24.1405 H   0  0  0  0  0  0
  -20.5665  -26.2286   23.3594 H   0  0  0  0  0  0
  -21.6640  -26.7440   22.1202 H   0  0  0  0  0  0
  -19.6912  -25.6296   21.1229 H   0  0  0  0  0  0
  -19.6688  -27.3193   20.6730 H   0  0  0  0  0  0
  -17.4191  -26.6664   21.4032 H   0  0  0  0  0  0
  -18.0347  -26.0067   22.9021 H   0  0  0  0  0  0
  -19.7938  -30.7259   24.2279 H   0  0  0  0  0  0
  -17.5022  -31.6269   24.5166 H   0  0  0  0  0  0
  -15.5355  -30.2997   23.7653 H   0  0  0  0  0  0
  -15.8667  -28.0827   22.7068 H   0  0  0  0  0  0
  -24.5867  -30.7137   25.7830 H   0  0  0  0  0  0
  -24.8951  -32.2941   26.4936 H   0  0  0  0  0  0
  -25.8052  -30.8920   27.0257 H   0  0  0  0  0  0
  -26.2899  -29.6798   24.1202 H   0  0  0  0  0  0
  -27.3972  -29.7276   25.4720 H   0  0  0  0  0  0
  -27.8785  -30.4310   23.9462 H   0  0  0  0  0  0
  -27.2640  -33.3624   26.2125 H   0  0  0  0  0  0
  -28.3827  -32.6950   25.0333 H   0  0  0  0  0  0
  -28.0737  -31.8465   26.5405 H   0  0  0  0  0  0
  -28.2601  -38.0103   24.7502 H   0  0  0  0  0  0
  -28.1074  -36.2633   24.6290 H   0  0  0  0  0  0
  -27.2296  -37.1458   25.8864 H   0  0  0  0  0  0
  -20.9313  -29.8790   21.6929 H   0  0  0  0  0  0
  -26.0179  -38.2863   24.1410 H   0  0  0  0  0  0
  -30.6643  -17.5596   19.3825 H   0  0  0  0  0  0
  -28.7305  -20.0342   22.3975 H   0  0  0  0  0  0
  -30.1787  -24.0790   18.5112 H   0  0  0  0  0  0
  -31.1380  -24.8381   19.7746 H   0  0  0  0  0  0
  -31.8442  -22.7293   20.6272 H   0  0  0  0  0  0
  -31.5739  -22.2552   18.9617 H   0  0  0  0  0  0
  -28.2039  -22.3911   19.4591 H   0  0  0  0  0  0
  -28.1061  -22.2979   21.2067 H   0  0  0  0  0  0
  -29.4745  -24.3075   21.4557 H   0  0  0  0  0  0
  -29.1598  -20.3728   18.9643 H   0  0  0  0  0  0
  -30.8622  -20.2123   19.1588 H   0  0  0  0  0  0
  -27.2009  -24.8419   20.5212 H   0  0  0  0  0  0
  -27.8866  -24.9200   18.9122 H   0  0  0  0  0  0
  -29.2174  -15.0222   21.8629 H   0  0  0  0  0  0
  -30.2648  -21.5679   21.3352 H   0  0  0  0  0  0
  1 25  1  0  0  0
  1 30  2  0  0  0
  1 81  1  0  0  0
  2  3  1  0  0  0
  2 25  1  0  0  0
  2 84  1  0  0  0
  2 85  1  0  0  0
  3  4  1  0  0  0
  3 86  1  0  0  0
  3 87  1  0  0  0
  4  5  1  0  0  0
  4 88  1  0  0  0
  4 89  1  0  0  0
  5  6  1  0  0  0
  5 26  1  0  0  0
  5 90  1  0  0  0
  6 25  1  0  0  0
  6 91  1  0  0  0
  6 92  1  0  0  0
  7  8  2  0  0  0
  7 26  1  0  0  0
  7 29  1  0  0  0
  8  9  1  0  0  0
  8 22  1  0  0  0
  9 10  1  0  0  0
  9 27  2  0  0  0
 10 11  2  0  0  0
 10 15  1  0  0  0
 11 12  1  0  0  0
 11 93  1  0  0  0
 12 13  2  0  0  0
 12 94  1  0  0  0
 13 14  1  0  0  0
 13 31  1  0  0  0
 14 15  2  0  0  0
 14 95  1  0  0  0
 15 96  1  0  0  0
 16 17  2  0  0  0
 16 21  1  0  0  0
 16 31  1  0  0  0
 17 18  1  0  0  0
 17 97  1  0  0  0
 18 19  2  0  0  0
 18 98  1  0  0  0
 19 20  1  0  0  0
 19 24  1  0  0  0
 20 21  2  0  0  0
 20 99  1  0  0  0
 21 23  1  0  0  0
 22 28  1  0  0  0
 22 32  2  0  0  0
 26 27  1  0  0  0
 28100  1  0  0  0
 28101  1  0  0  0
 29102  1  0  0  0
 29103  1  0  0  0
 33 34  1  0  0  0
 33 66  1  0  0  0
 33 70  2  0  0  0
 34 36  1  0  0  0
 34 59  1  0  0  0
 34104  1  0  0  0
 35 44  2  0  0  0
 35 45  1  0  0  0
 35 68  1  0  0  0
 36 56  1  0  0  0
 36105  1  0  0  0
 37 39  1  0  0  0
 37 47  1  0  0  0
 37 66  1  0  0  0
 37106  1  0  0  0
 38 43  2  0  0  0
 38 46  1  0  0  0
 38 47  1  0  0  0
 39 64  1  0  0  0
 39 67  2  0  0  0
 40 52  1  0  0  0
 40 53  2  0  0  0
 40 58  1  0  0  0
 41107  1  0  0  0
 41108  1  0  0  0
 41109  1  0  0  0
 41 48  1  0  0  0
 42 43  1  0  0  0
 42 66  1  0  0  0
 42110  1  0  0  0
 42111  1  0  0  0
 43 44  1  0  0  0
 44112  1  0  0  0
 45 46  2  0  0  0
 45113  1  0  0  0
 46114  1  0  0  0
 47115  1  0  0  0
 47116  1  0  0  0
 48 56  1  0  0  0
 48 65  1  0  0  0
 48117  1  0  0  0
 49 50  1  0  0  0
 49 53  1  0  0  0
 49 64  1  0  0  0
 49118  1  0  0  0
 50 51  1  0  0  0
 50119  1  0  0  0
 50120  1  0  0  0
 51 52  1  0  0  0
 51121  1  0  0  0
 51122  1  0  0  0
 52123  1  0  0  0
 52124  1  0  0  0
 53 54  1  0  0  0
 54 55  2  0  0  0
 54125  1  0  0  0
 55 57  1  0  0  0
 55126  1  0  0  0
 56 69  2  0  0  0
 57 58  2  0  0  0
 57127  1  0  0  0
 58128  1  0  0  0
 59 60  1  0  0  0
 59 61  1  0  0  0
 59 62  1  0  0  0
 60129  1  0  0  0
 60130  1  0  0  0
 60131  1  0  0  0
 61132  1  0  0  0
 61133  1  0  0  0
 61134  1  0  0  0
 62135  1  0  0  0
 62136  1  0  0  0
 62137  1  0  0  0
 63 65  1  0  0  0
 63138  1  0  0  0
 63139  1  0  0  0
 63140  1  0  0  0
 64141  1  0  0  0
 65142  1  0  0  0
 68 80  1  0  0  0
 71 73  1  0  0  0
 71 74  2  0  0  0
 71143  1  0  0  0
 72 73  2  0  0  0
 72 83  1  0  0  0
 72144  1  0  0  0
 73 79  1  0  0  0
 74 81  1  0  0  0
 74 83  1  0  0  0
 75 76  1  0  0  0
 75 78  1  0  0  0
 75145  1  0  0  0
 75146  1  0  0  0
 76 82  1  0  0  0
 76147  1  0  0  0
 76148  1  0  0  0
 77 78  1  0  0  0
 77 82  1  0  0  0
 77149  1  0  0  0
 77150  1  0  0  0
 78 80  1  0  0  0
 78151  1  0  0  0
 79152  1  0  0  0
 79153  1  0  0  0
 79 82  1  0  0  0
 80154  1  0  0  0
 80155  1  0  0  0
 81156  1  0  0  0
 82157  1  0  0  0
M  CHG  1  82   1
M  ISO  4   1 100  68 101  80 101  81 100
M  END
> <chiral flag>
0

> <version>
0

> <s_m_source_file>
/data/baiqing/PycharmProjects/Reinvent-master-3.2/result/LINK_invent/BTK/process_docking_weight1_custom_product_contain_oxygen_bond_distance_aromatic_linkinvent_7_9_3/rearranged_h_0103.sdf

> <i_m_source_file_index>
96

> <r_mmod_Potential_Energy-OPLS-2005>
-100.468894958496

> <r_mmod_Stretch_Energy-OPLS-2005>
54.5100593566895

> <r_mmod_Bend_Energy-OPLS-2005>
154.404479980469

> <r_mmod_Torsional_Energy-OPLS-2005>
278.287841796875

> <r_mmod_Improper_Torsional_Energy-OPLS-2005>
2.76764893531799

> <r_mmod_Van_der_Waal_Energy-OPLS-2005>
128.669952392578

> <r_mmod_Electrostatic_Energy-OPLS-2005>
-282.211303710938

> <r_mmod_Solvation_Energy-OPLS-2005>
-465.995666503906

> <b_mmod_Minimization_Converged-OPLS-2005>
0

> <r_mmod_RMS_Derivative-OPLS-2005>
1.55439829826355

$$$$
96
                    3D
 Structure written by MMmdl.
164173  0  0  1  0            999 V2000
  -30.7274  -14.4356   20.5430 C   0  0  0  0  0  0
  -30.4044  -12.2679   19.4424 C   0  0  0  0  0  0
  -29.4990  -12.4948   18.2159 C   0  0  0  0  0  0
  -28.0141  -12.3738   18.6124 C   0  0  0  0  0  0
  -27.6567  -13.2129   19.8678 C   0  0  2  0  0  0
  -28.6919  -13.0206   20.9947 C   0  0  0  0  0  0
  -25.2573  -13.8173   20.5665 C   0  0  0  0  0  0
  -24.1829  -13.0450   20.9165 C   0  0  0  0  0  0
  -24.6385  -11.6916   20.8724 C   0  0  0  0  0  0
  -23.9058  -10.4301   21.0407 C   0  0  0  0  0  0
  -24.3614   -9.4213   21.9180 C   0  0  0  0  0  0
  -23.6296   -8.2243   22.0758 C   0  0  0  0  0  0
  -22.4275   -8.0284   21.3551 C   0  0  0  0  0  0
  -21.9910   -9.0255   20.4652 C   0  0  0  0  0  0
  -22.7235  -10.2137   20.3062 C   0  0  0  0  0  0
  -21.6857   -6.0743   22.5275 C   0  0  0  0  0  0
  -21.4011   -6.5642   23.8212 C   0  0  0  0  0  0
  -21.3666   -5.6792   24.9165 C   0  0  0  0  0  0
  -21.6054   -4.3053   24.7217 C   0  0  0  0  0  0
  -21.8819   -3.8151   23.4330 C   0  0  0  0  0  0
  -21.9196   -4.6968   22.3393 C   0  0  0  0  0  0
  -22.7856  -13.5243   21.1840 C   0  0  0  0  0  0
  -22.1664   -4.2152   21.0972 F   0  0  0  0  0  0
  -21.5637   -3.4544   25.7735 F   0  0  0  0  0  0
  -30.0306  -13.2737   20.4462 N   0  0  0  0  0  0
  -26.2996  -12.9351   20.3324 N   0  0  0  0  0  0
  -25.9313  -11.6501   20.5731 N   0  0  0  0  0  0
  -22.0506  -12.8228   22.0398 N   0  0  0  0  0  0
  -25.4325  -15.1890   20.4068 N   0  0  0  0  0  0
  -31.9068  -14.5049   20.1821 O   0  0  0  0  0  0
  -21.6650   -6.8874   21.4234 O   0  0  0  0  0  0
  -22.3538  -14.5556   20.6696 O   0  0  0  0  0  0
  -24.6145  -31.8705   23.2118 C   0  0  0  0  0  0
  -25.9050  -32.4828   23.8418 C   0  0  1  0  0  0
  -27.2152  -27.4326   20.0976 C   0  0  0  0  0  0
  -25.5928  -33.8627   24.2360 N   0  0  0  0  0  0
  -23.3991  -30.4966   21.5533 C   0  0  2  0  0  0
  -24.8388  -28.9638   20.1175 C   0  0  0  0  0  0
  -22.7402  -29.4679   22.5000 C   0  0  0  0  0  0
  -18.0269  -28.1369   22.8509 C   0  0  0  0  0  0
  -24.1486  -36.7293   23.2639 C   0  0  0  0  0  0
  -25.9299  -30.8339   21.3665 C   0  0  0  0  0  0
  -26.0014  -29.4707   20.7102 C   0  0  0  0  0  0
  -27.1947  -28.7151   20.6905 C   0  0  0  0  0  0
  -26.0335  -26.9400   19.5015 C   0  0  0  0  0  0
  -24.8499  -27.6979   19.5106 C   0  0  0  0  0  0
  -23.6037  -29.8325   20.1672 C   0  0  0  0  0  0
  -25.4105  -36.3104   24.0347 C   0  0  1  0  0  0
  -20.5862  -28.3660   23.1329 C   0  0  2  0  0  0
  -20.6766  -26.9404   22.5416 C   0  0  0  0  0  0
  -19.5741  -26.6380   21.5219 C   0  0  0  0  0  0
  -18.1920  -26.7920   22.1628 C   0  0  0  0  0  0
  -19.1520  -28.8829   23.2916 C   0  0  0  0  0  0
  -18.9455  -30.1436   23.8924 C   0  0  0  0  0  0
  -17.6457  -30.6589   24.0563 C   0  0  0  0  0  0
  -25.9039  -34.9470   23.5142 C   0  0  0  0  0  0
  -16.5344  -29.9091   23.6335 C   0  0  0  0  0  0
  -16.7260  -28.6499   23.0379 C   0  0  0  0  0  0
  -26.4478  -31.6597   25.0736 C   0  0  0  0  0  0
  -25.3739  -31.3715   26.1486 C   0  0  0  0  0  0
  -27.0339  -30.3051   24.6111 C   0  0  0  0  0  0
  -27.6067  -32.4322   25.7481 C   0  0  0  0  0  0
  -27.5577  -37.1789   24.8472 C   0  0  0  0  0  0
  -21.4134  -29.3029   22.3731 N   0  0  0  0  0  0
  -26.4294  -37.3781   23.9409 N   0  0  0  0  0  0
  -24.6662  -31.0814   22.1016 N   0  0  0  0  0  0
  -23.4183  -28.8227   23.3039 O   0  0  0  0  0  0
  -28.3902  -26.7134   20.0859 O   0  0  0  0  0  0
  -26.5584  -34.8912   22.4691 O   0  0  0  0  0  0
  -23.5340  -32.1474   23.7511 O   0  0  0  0  0  0
  -28.4187  -18.3159   20.1535 C   0  0  0  0  0  0
  -28.0710  -19.6671   19.9184 C   0  0  0  0  0  0
  -30.2197  -20.0191   18.8277 C   0  0  0  0  0  0
  -29.6516  -17.8009   19.6937 C   0  0  0  0  0  0
  -30.5732  -18.6787   19.0625 C   0  0  0  0  0  0
  -28.9628  -20.5188   19.2256 C   0  0  0  0  0  0
  -28.4367  -24.4419   16.8029 C   0  0  0  0  0  0
  -28.5120  -22.8446   19.7371 C   0  0  0  0  0  0
  -29.9885  -16.3632   19.7755 C   0  0  0  0  0  0
  -27.7381  -23.0916   16.6998 C   0  0  0  0  0  0
  -29.1283  -24.7393   18.1251 C   0  0  0  0  0  0
  -28.5887  -21.9780   17.3347 C   0  0  0  0  0  0
  -28.2281  -24.3106   19.3042 C   0  0  1  0  0  0
  -31.9532  -18.2130   18.6101 C   0  0  0  0  0  0
  -28.3433  -25.3288   20.4776 C   0  0  0  0  0  0
  -29.9706  -15.5777   20.7881 N   0  0  0  0  0  0
  -28.5932  -21.8363   18.8131 N   0  0  0  0  0  0
  -28.4491  -25.2414   15.8653 O   0  0  0  0  0  0
  -28.6155  -22.6123   20.9477 O   0  0  0  0  0  0
  -31.4543  -12.3213   19.1505 H   0  0  0  0  0  0
  -30.2605  -11.2647   19.8450 H   0  0  0  0  0  0
  -29.7365  -11.7719   17.4348 H   0  0  0  0  0  0
  -29.6903  -13.4826   17.7915 H   0  0  0  0  0  0
  -27.8029  -11.3193   18.7957 H   0  0  0  0  0  0
  -27.3786  -12.6686   17.7771 H   0  0  0  0  0  0
  -27.6947  -14.2590   19.5640 H   0  0  0  0  0  0
  -28.6450  -12.0055   21.3912 H   0  0  0  0  0  0
  -28.4716  -13.6796   21.8352 H   0  0  0  0  0  0
  -25.2754   -9.5702   22.4750 H   0  0  0  0  0  0
  -24.0026   -7.4636   22.7469 H   0  0  0  0  0  0
  -21.0851   -8.8761   19.8944 H   0  0  0  0  0  0
  -22.3685  -10.9677   19.6179 H   0  0  0  0  0  0
  -21.1991   -7.6148   23.9703 H   0  0  0  0  0  0
  -21.1500   -6.0526   25.9067 H   0  0  0  0  0  0
  -22.0594   -2.7616   23.2831 H   0  0  0  0  0  0
  -22.4131  -11.9893   22.4793 H   0  0  0  0  0  0
  -21.1124  -13.1260   22.2612 H   0  0  0  0  0  0
  -24.6787  -15.8555   20.5269 H   0  0  0  0  0  0
  -26.3010  -15.6170   20.1141 H   0  0  0  0  0  0
  -26.7103  -32.5531   23.1160 H   0  0  0  0  0  0
  -25.0134  -33.9817   25.0544 H   0  0  0  0  0  0
  -22.6859  -31.3123   21.4181 H   0  0  0  0  0  0
  -23.3754  -35.9623   23.3320 H   0  0  0  0  0  0
  -24.3587  -36.8883   22.2050 H   0  0  0  0  0  0
  -23.7229  -37.6496   23.6643 H   0  0  0  0  0  0
  -26.0511  -31.6033   20.6022 H   0  0  0  0  0  0
  -26.8154  -30.8772   21.9900 H   0  0  0  0  0  0
  -28.0953  -29.1057   21.1424 H   0  0  0  0  0  0
  -26.0056  -25.9865   19.0062 H   0  0  0  0  0  0
  -23.9559  -27.3056   19.0463 H   0  0  0  0  0  0
  -23.7104  -30.6095   19.4094 H   0  0  0  0  0  0
  -22.7265  -29.2524   19.8737 H   0  0  0  0  0  0
  -25.1266  -36.1979   25.0842 H   0  0  0  0  0  0
  -20.9961  -28.3221   24.1443 H   0  0  0  0  0  0
  -20.5695  -26.2264   23.3595 H   0  0  0  0  0  0
  -21.6636  -26.7456   22.1186 H   0  0  0  0  0  0
  -19.6904  -25.6297   21.1241 H   0  0  0  0  0  0
  -19.6683  -27.3200   20.6764 H   0  0  0  0  0  0
  -17.4189  -26.6707   21.4020 H   0  0  0  0  0  0
  -18.0302  -26.0043   22.9006 H   0  0  0  0  0  0
  -19.7935  -30.7249   24.2310 H   0  0  0  0  0  0
  -17.5017  -31.6278   24.5147 H   0  0  0  0  0  0
  -15.5353  -30.3001   23.7640 H   0  0  0  0  0  0
  -15.8661  -28.0806   22.7113 H   0  0  0  0  0  0
  -24.5894  -30.7087   25.7801 H   0  0  0  0  0  0
  -24.8951  -32.2883   26.4934 H   0  0  0  0  0  0
  -25.8073  -30.8856   27.0236 H   0  0  0  0  0  0
  -26.2912  -29.6781   24.1160 H   0  0  0  0  0  0
  -27.4138  -29.7301   25.4561 H   0  0  0  0  0  0
  -27.8710  -30.4381   23.9264 H   0  0  0  0  0  0
  -27.2698  -33.3614   26.2081 H   0  0  0  0  0  0
  -28.3840  -32.6895   25.0279 H   0  0  0  0  0  0
  -28.0772  -31.8435   26.5362 H   0  0  0  0  0  0
  -28.2598  -38.0076   24.7508 H   0  0  0  0  0  0
  -28.1069  -36.2608   24.6315 H   0  0  0  0  0  0
  -27.2306  -37.1452   25.8879 H   0  0  0  0  0  0
  -20.9300  -29.8721   21.6923 H   0  0  0  0  0  0
  -26.0191  -38.2865   24.1404 H   0  0  0  0  0  0
  -27.7151  -17.6571   20.6425 H   0  0  0  0  0  0
  -27.1004  -20.0301   20.2275 H   0  0  0  0  0  0
  -30.9115  -20.6643   18.3042 H   0  0  0  0  0  0
  -30.3564  -16.0022   18.8062 H   0  0  0  0  0  0
  -27.5962  -22.8766   15.6415 H   0  0  0  0  0  0
  -26.7414  -23.1297   17.1375 H   0  0  0  0  0  0
  -29.3449  -25.8064   18.1493 H   0  0  0  0  0  0
  -30.0933  -24.2348   18.1603 H   0  0  0  0  0  0
  -29.6221  -22.0768   16.9969 H   0  0  0  0  0  0
  -28.2455  -21.0345   16.9039 H   0  0  0  0  0  0
  -27.1833  -24.3010   19.0070 H   0  0  0  0  0  0
  -31.8811  -17.5821   17.7241 H   0  0  0  0  0  0
  -32.4521  -17.6512   19.4027 H   0  0  0  0  0  0
  -32.5986  -19.0564   18.3619 H   0  0  0  0  0  0
  -29.2709  -25.1455   21.0212 H   0  0  0  0  0  0
  -27.5435  -25.1621   21.2044 H   0  0  0  0  0  0
  1 25  1  0  0  0
  1 30  2  0  0  0
  1 86  1  0  0  0
  2  3  1  0  0  0
  2 25  1  0  0  0
  2 90  1  0  0  0
  2 91  1  0  0  0
  3  4  1  0  0  0
  3 92  1  0  0  0
  3 93  1  0  0  0
  4  5  1  0  0  0
  4 94  1  0  0  0
  4 95  1  0  0  0
  5  6  1  0  0  0
  5 26  1  0  0  0
  5 96  1  0  0  0
  6 25  1  0  0  0
  6 97  1  0  0  0
  6 98  1  0  0  0
  7  8  2  0  0  0
  7 26  1  0  0  0
  7 29  1  0  0  0
  8  9  1  0  0  0
  8 22  1  0  0  0
  9 10  1  0  0  0
  9 27  2  0  0  0
 10 11  2  0  0  0
 10 15  1  0  0  0
 11 12  1  0  0  0
 11 99  1  0  0  0
 12 13  2  0  0  0
 12100  1  0  0  0
 13 14  1  0  0  0
 13 31  1  0  0  0
 14 15  2  0  0  0
 14101  1  0  0  0
 15102  1  0  0  0
 16 17  2  0  0  0
 16 21  1  0  0  0
 16 31  1  0  0  0
 17 18  1  0  0  0
 17103  1  0  0  0
 18 19  2  0  0  0
 18104  1  0  0  0
 19 20  1  0  0  0
 19 24  1  0  0  0
 20 21  2  0  0  0
 20105  1  0  0  0
 21 23  1  0  0  0
 22 28  1  0  0  0
 22 32  2  0  0  0
 26 27  1  0  0  0
 28106  1  0  0  0
 28107  1  0  0  0
 29108  1  0  0  0
 29109  1  0  0  0
 33 34  1  0  0  0
 33 66  1  0  0  0
 33 70  2  0  0  0
 34 36  1  0  0  0
 34 59  1  0  0  0
 34110  1  0  0  0
 35 44  2  0  0  0
 35 45  1  0  0  0
 35 68  1  0  0  0
 36 56  1  0  0  0
 36111  1  0  0  0
 37 39  1  0  0  0
 37 47  1  0  0  0
 37 66  1  0  0  0
 37112  1  0  0  0
 38 43  2  0  0  0
 38 46  1  0  0  0
 38 47  1  0  0  0
 39 64  1  0  0  0
 39 67  2  0  0  0
 40 52  1  0  0  0
 40 53  2  0  0  0
 40 58  1  0  0  0
 41113  1  0  0  0
 41114  1  0  0  0
 41115  1  0  0  0
 41 48  1  0  0  0
 42 43  1  0  0  0
 42 66  1  0  0  0
 42116  1  0  0  0
 42117  1  0  0  0
 43 44  1  0  0  0
 44118  1  0  0  0
 45 46  2  0  0  0
 45119  1  0  0  0
 46120  1  0  0  0
 47121  1  0  0  0
 47122  1  0  0  0
 48 56  1  0  0  0
 48 65  1  0  0  0
 48123  1  0  0  0
 49 50  1  0  0  0
 49 53  1  0  0  0
 49 64  1  0  0  0
 49124  1  0  0  0
 50 51  1  0  0  0
 50125  1  0  0  0
 50126  1  0  0  0
 51 52  1  0  0  0
 51127  1  0  0  0
 51128  1  0  0  0
 52129  1  0  0  0
 52130  1  0  0  0
 53 54  1  0  0  0
 54 55  2  0  0  0
 54131  1  0  0  0
 55 57  1  0  0  0
 55132  1  0  0  0
 56 69  2  0  0  0
 57 58  2  0  0  0
 57133  1  0  0  0
 58134  1  0  0  0
 59 60  1  0  0  0
 59 61  1  0  0  0
 59 62  1  0  0  0
 60135  1  0  0  0
 60136  1  0  0  0
 60137  1  0  0  0
 61138  1  0  0  0
 61139  1  0  0  0
 61140  1  0  0  0
 62141  1  0  0  0
 62142  1  0  0  0
 62143  1  0  0  0
 63 65  1  0  0  0
 63144  1  0  0  0
 63145  1  0  0  0
 63146  1  0  0  0
 64147  1  0  0  0
 65148  1  0  0  0
 68 85  1  0  0  0
 71 72  2  0  0  0
 71 74  1  0  0  0
 71149  1  0  0  0
 72 76  1  0  0  0
 72150  1  0  0  0
 73 75  1  0  0  0
 73 76  2  0  0  0
 73151  1  0  0  0
 74 75  2  0  0  0
 74 79  1  0  0  0
 75 84  1  0  0  0
 76 87  1  0  0  0
 77 80  1  0  0  0
 77 81  1  0  0  0
 77 88  2  0  0  0
 78 83  1  0  0  0
 78 87  1  0  0  0
 78 89  2  0  0  0
 79 86  2  0  0  0
 79152  1  0  0  0
 80 82  1  0  0  0
 80153  1  0  0  0
 80154  1  0  0  0
 81 83  1  0  0  0
 81155  1  0  0  0
 81156  1  0  0  0
 82 87  1  0  0  0
 82157  1  0  0  0
 82158  1  0  0  0
 83 85  1  0  0  0
 83159  1  0  0  0
 84160  1  0  0  0
 84161  1  0  0  0
 84162  1  0  0  0
 85163  1  0  0  0
 85164  1  0  0  0
M  ISO  4   1 100  68 101  85 101  86 100
M  END
> <chiral flag>
0

> <version>
0

> <s_m_source_file>
/data/baiqing/PycharmProjects/Reinvent-master-3.2/result/LINK_invent/BTK/process_docking_weight1_custom_product_contain_oxygen_bond_distance_aromatic_linkinvent_7_9_3/rearranged_h_0103.sdf

> <i_m_source_file_index>
97

> <r_mmod_Potential_Energy-OPLS-2005>
63.3395881652832

> <r_mmod_Stretch_Energy-OPLS-2005>
42.5996055603027

> <r_mmod_Bend_Energy-OPLS-2005>
116.822708129883

> <r_mmod_Torsional_Energy-OPLS-2005>
283.558898925781

> <r_mmod_Improper_Torsional_Energy-OPLS-2005>
8.08076858520508

> <r_mmod_Van_der_Waal_Energy-OPLS-2005>
188.530303955078

> <r_mmod_Electrostatic_Energy-OPLS-2005>
-376.460693359375

> <r_mmod_Solvation_Energy-OPLS-2005>
-217.557525634766

> <b_mmod_Minimization_Converged-OPLS-2005>
0

> <r_mmod_RMS_Derivative-OPLS-2005>
2.52955842018127

$$$$
97
                    3D
 Structure written by MMmdl.
157166  0  0  1  0            999 V2000
  -30.6148  -14.6205   20.5646 C   0  0  0  0  0  0
  -30.4485  -12.3961   19.4335 C   0  0  0  0  0  0
  -29.5061  -12.5223   18.2154 C   0  0  0  0  0  0
  -28.0299  -12.3522   18.6307 C   0  0  0  0  0  0
  -27.6605  -13.2082   19.8707 C   0  0  2  0  0  0
  -28.7080  -13.0208   20.9910 C   0  0  0  0  0  0
  -25.2606  -13.8156   20.5696 C   0  0  0  0  0  0
  -24.1859  -13.0429   20.9185 C   0  0  0  0  0  0
  -24.6405  -11.6897   20.8731 C   0  0  0  0  0  0
  -23.9063  -10.4287   21.0397 C   0  0  0  0  0  0
  -24.3614   -9.4201   21.9173 C   0  0  0  0  0  0
  -23.6291   -8.2240   22.0746 C   0  0  0  0  0  0
  -22.4274   -8.0278   21.3538 C   0  0  0  0  0  0
  -21.9910   -9.0244   20.4633 C   0  0  0  0  0  0
  -22.7235  -10.2127   20.3043 C   0  0  0  0  0  0
  -21.6848   -6.0736   22.5280 C   0  0  0  0  0  0
  -21.4014   -6.5640   23.8215 C   0  0  0  0  0  0
  -21.3661   -5.6791   24.9178 C   0  0  0  0  0  0
  -21.6043   -4.3052   24.7225 C   0  0  0  0  0  0
  -21.8820   -3.8148   23.4344 C   0  0  0  0  0  0
  -21.9196   -4.6966   22.3403 C   0  0  0  0  0  0
  -22.7877  -13.5218   21.1847 C   0  0  0  0  0  0
  -22.1662   -4.2150   21.0979 F   0  0  0  0  0  0
  -21.5629   -3.4539   25.7740 F   0  0  0  0  0  0
  -30.0206  -13.3900   20.4383 N   0  0  0  0  0  0
  -26.3034  -12.9321   20.3355 N   0  0  0  0  0  0
  -25.9336  -11.6481   20.5755 N   0  0  0  0  0  0
  -22.0515  -12.8212   22.0404 N   0  0  0  0  0  0
  -25.4327  -15.1882   20.4117 N   0  0  0  0  0  0
  -31.7383  -14.8256   20.0920 O   0  0  0  0  0  0
  -21.6630   -6.8878   21.4242 O   0  0  0  0  0  0
  -22.3554  -14.5519   20.6689 O   0  0  0  0  0  0
  -24.6261  -31.8605   23.2034 C   0  0  0  0  0  0
  -25.9115  -32.4786   23.8359 C   0  0  1  0  0  0
  -27.2307  -27.3292   20.1105 C   0  0  0  0  0  0
  -25.5936  -33.8586   24.2286 N   0  0  0  0  0  0
  -23.4188  -30.4832   21.5469 C   0  0  2  0  0  0
  -24.8659  -28.9405   20.1119 C   0  0  0  0  0  0
  -22.7467  -29.4624   22.4955 C   0  0  0  0  0  0
  -18.0281  -28.1380   22.8487 C   0  0  0  0  0  0
  -24.1488  -36.7292   23.2640 C   0  0  0  0  0  0
  -25.9598  -30.7938   21.3733 C   0  0  0  0  0  0
  -26.0345  -29.4224   20.7144 C   0  0  0  0  0  0
  -27.2192  -28.6288   20.7033 C   0  0  0  0  0  0
  -26.0346  -26.8974   19.4889 C   0  0  0  0  0  0
  -24.8676  -27.6830   19.4910 C   0  0  0  0  0  0
  -23.6319  -29.8176   20.1627 C   0  0  0  0  0  0
  -25.4116  -36.3089   24.0332 C   0  0  1  0  0  0
  -20.5877  -28.3686   23.1287 C   0  0  2  0  0  0
  -20.6767  -26.9409   22.5415 C   0  0  0  0  0  0
  -19.5748  -26.6378   21.5211 C   0  0  0  0  0  0
  -18.1923  -26.7928   22.1616 C   0  0  0  0  0  0
  -19.1530  -28.8853   23.2877 C   0  0  0  0  0  0
  -18.9452  -30.1456   23.8889 C   0  0  0  0  0  0
  -17.6456  -30.6589   24.0560 C   0  0  0  0  0  0
  -25.9056  -34.9459   23.5107 C   0  0  0  0  0  0
  -16.5348  -29.9085   23.6336 C   0  0  0  0  0  0
  -16.7269  -28.6498   23.0364 C   0  0  0  0  0  0
  -26.4497  -31.6596   25.0729 C   0  0  0  0  0  0
  -25.3736  -31.3718   26.1457 C   0  0  0  0  0  0
  -27.0349  -30.3024   24.6185 C   0  0  0  0  0  0
  -27.6048  -32.4335   25.7510 C   0  0  0  0  0  0
  -27.5589  -37.1793   24.8461 C   0  0  0  0  0  0
  -21.4181  -29.3042   22.3688 N   0  0  0  0  0  0
  -26.4293  -37.3787   23.9418 N   0  0  0  0  0  0
  -24.6871  -31.0619   22.0982 N   0  0  0  0  0  0
  -23.4194  -28.8170   23.3036 O   0  0  0  0  0  0
  -28.3600  -26.4957   20.1565 O   0  0  0  0  0  0
  -26.5621  -34.8922   22.4672 O   0  0  0  0  0  0
  -23.5424  -32.1403   23.7363 O   0  0  0  0  0  0
  -31.0312  -18.0919   21.5884 C   0  0  0  0  0  0
  -31.0751  -19.5084   21.4672 C   0  0  0  0  0  0
  -29.2018  -19.4647   19.9731 C   0  0  0  0  0  0
  -30.0619  -17.3154   20.9124 C   0  0  0  0  0  0
  -30.1572  -20.2564   20.6681 C   0  0  0  0  0  0
  -29.1558  -18.0388   20.0872 C   0  0  0  0  0  0
  -29.2041  -22.6542   20.3148 C   0  0  0  0  0  0
  -29.3390  -24.0274   20.2274 C   0  0  0  0  0  0
  -30.7146  -24.5664   20.3344 C   0  0  0  0  0  0
  -31.8571  -23.5775   20.1130 C   0  0  0  0  0  0
  -31.5957  -22.2200   20.7881 C   0  0  0  0  0  0
  -29.8353  -15.8017   21.2708 C   0  0  0  0  0  0
  -28.1682  -25.0404   19.9515 C   0  0  0  0  0  0
  -30.2387  -21.7000   20.5575 N   0  0  0  0  0  0
  -30.9957  -25.7447   20.5700 O   0  0  0  0  0  0
  -28.1870  -17.3590   19.4266 F   0  0  0  0  0  0
  -31.4847  -12.5414   19.1239 H   0  0  0  0  0  0
  -30.4013  -11.3901   19.8539 H   0  0  0  0  0  0
  -29.7681  -11.7835   17.4572 H   0  0  0  0  0  0
  -29.6435  -13.4999   17.7500 H   0  0  0  0  0  0
  -27.8664  -11.2963   18.8507 H   0  0  0  0  0  0
  -27.3723  -12.5919   17.7947 H   0  0  0  0  0  0
  -27.6908  -14.2490   19.5503 H   0  0  0  0  0  0
  -28.7231  -11.9808   21.3218 H   0  0  0  0  0  0
  -28.4516  -13.5986   21.8788 H   0  0  0  0  0  0
  -25.2759   -9.5680   22.4746 H   0  0  0  0  0  0
  -23.9998   -7.4633   22.7471 H   0  0  0  0  0  0
  -21.0844   -8.8760   19.8933 H   0  0  0  0  0  0
  -22.3689  -10.9666   19.6154 H   0  0  0  0  0  0
  -21.2002   -7.6148   23.9718 H   0  0  0  0  0  0
  -21.1484   -6.0521   25.9080 H   0  0  0  0  0  0
  -22.0600   -2.7607   23.2848 H   0  0  0  0  0  0
  -22.4141  -11.9883   22.4806 H   0  0  0  0  0  0
  -21.1129  -13.1228   22.2593 H   0  0  0  0  0  0
  -24.6646  -15.8413   20.5216 H   0  0  0  0  0  0
  -26.2839  -15.6320   20.0888 H   0  0  0  0  0  0
  -26.7187  -32.5460   23.1110 H   0  0  0  0  0  0
  -25.0111  -33.9729   25.0453 H   0  0  0  0  0  0
  -22.7119  -31.3030   21.4040 H   0  0  0  0  0  0
  -23.3767  -35.9606   23.3279 H   0  0  0  0  0  0
  -24.3577  -36.8940   22.2057 H   0  0  0  0  0  0
  -23.7209  -37.6473   23.6678 H   0  0  0  0  0  0
  -26.0902  -31.5578   20.6054 H   0  0  0  0  0  0
  -26.8401  -30.8408   22.0033 H   0  0  0  0  0  0
  -28.1167  -28.9958   21.1814 H   0  0  0  0  0  0
  -25.9687  -25.9376   18.9997 H   0  0  0  0  0  0
  -23.9720  -27.3077   19.0147 H   0  0  0  0  0  0
  -23.7457  -30.5929   19.4040 H   0  0  0  0  0  0
  -22.7531  -29.2426   19.8647 H   0  0  0  0  0  0
  -25.1291  -36.1943   25.0824 H   0  0  0  0  0  0
  -20.9961  -28.3261   24.1412 H   0  0  0  0  0  0
  -20.5669  -26.2296   23.3611 H   0  0  0  0  0  0
  -21.6637  -26.7439   22.1212 H   0  0  0  0  0  0
  -19.6908  -25.6288   21.1246 H   0  0  0  0  0  0
  -19.6690  -27.3181   20.6734 H   0  0  0  0  0  0
  -17.4201  -26.6693   21.4007 H   0  0  0  0  0  0
  -18.0305  -26.0060   22.8997 H   0  0  0  0  0  0
  -19.7930  -30.7265   24.2257 H   0  0  0  0  0  0
  -17.5016  -31.6271   24.5160 H   0  0  0  0  0  0
  -15.5346  -30.2987   23.7659 H   0  0  0  0  0  0
  -15.8672  -28.0813   22.7094 H   0  0  0  0  0  0
  -24.5920  -30.7056   25.7785 H   0  0  0  0  0  0
  -24.8922  -32.2880   26.4887 H   0  0  0  0  0  0
  -25.8077  -30.8898   27.0228 H   0  0  0  0  0  0
  -26.2925  -29.6764   24.1223 H   0  0  0  0  0  0
  -27.4056  -29.7285   25.4687 H   0  0  0  0  0  0
  -27.8786  -30.4305   23.9400 H   0  0  0  0  0  0
  -27.2650  -33.3631   26.2088 H   0  0  0  0  0  0
  -28.3867  -32.6905   25.0352 H   0  0  0  0  0  0
  -28.0715  -31.8468   26.5432 H   0  0  0  0  0  0
  -28.2580  -38.0120   24.7569 H   0  0  0  0  0  0
  -28.1109  -36.2651   24.6220 H   0  0  0  0  0  0
  -27.2311  -37.1378   25.8864 H   0  0  0  0  0  0
  -20.9357  -29.8778   21.6909 H   0  0  0  0  0  0
  -26.0174  -38.2853   24.1457 H   0  0  0  0  0  0
  -31.7254  -17.6057   22.2595 H   0  0  0  0  0  0
  -31.8299  -20.0149   22.0513 H   0  0  0  0  0  0
  -28.4797  -19.9497   19.3336 H   0  0  0  0  0  0
  -28.2244  -22.2053   20.2228 H   0  0  0  0  0  0
  -32.7926  -24.0032   20.4755 H   0  0  0  0  0  0
  -31.9688  -23.4380   19.0381 H   0  0  0  0  0  0
  -31.7647  -22.3150   21.8617 H   0  0  0  0  0  0
  -32.3425  -21.5207   20.4075 H   0  0  0  0  0  0
  -28.7669  -15.6435   21.1442 H   0  0  0  0  0  0
  -30.0108  -15.6895   22.3405 H   0  0  0  0  0  0
  -27.3212  -24.7088   20.5539 H   0  0  0  0  0  0
  -27.8952  -24.8861   18.9070 H   0  0  0  0  0  0
  1 25  1  0  0  0
  1 30  2  0  0  0
  1 82  1  0  0  0
  2  3  1  0  0  0
  2 25  1  0  0  0
  2 87  1  0  0  0
  2 88  1  0  0  0
  3  4  1  0  0  0
  3 89  1  0  0  0
  3 90  1  0  0  0
  4  5  1  0  0  0
  4 91  1  0  0  0
  4 92  1  0  0  0
  5  6  1  0  0  0
  5 26  1  0  0  0
  5 93  1  0  0  0
  6 25  1  0  0  0
  6 94  1  0  0  0
  6 95  1  0  0  0
  7  8  2  0  0  0
  7 26  1  0  0  0
  7 29  1  0  0  0
  8  9  1  0  0  0
  8 22  1  0  0  0
  9 10  1  0  0  0
  9 27  2  0  0  0
 10 11  2  0  0  0
 10 15  1  0  0  0
 11 12  1  0  0  0
 11 96  1  0  0  0
 12 13  2  0  0  0
 12 97  1  0  0  0
 13 14  1  0  0  0
 13 31  1  0  0  0
 14 15  2  0  0  0
 14 98  1  0  0  0
 15 99  1  0  0  0
 16 17  2  0  0  0
 16 21  1  0  0  0
 16 31  1  0  0  0
 17 18  1  0  0  0
 17100  1  0  0  0
 18 19  2  0  0  0
 18101  1  0  0  0
 19 20  1  0  0  0
 19 24  1  0  0  0
 20 21  2  0  0  0
 20102  1  0  0  0
 21 23  1  0  0  0
 22 28  1  0  0  0
 22 32  2  0  0  0
 26 27  1  0  0  0
 28103  1  0  0  0
 28104  1  0  0  0
 29105  1  0  0  0
 29106  1  0  0  0
 33 34  1  0  0  0
 33 66  1  0  0  0
 33 70  2  0  0  0
 34 36  1  0  0  0
 34 59  1  0  0  0
 34107  1  0  0  0
 35 44  2  0  0  0
 35 45  1  0  0  0
 35 68  1  0  0  0
 36 56  1  0  0  0
 36108  1  0  0  0
 37 39  1  0  0  0
 37 47  1  0  0  0
 37 66  1  0  0  0
 37109  1  0  0  0
 38 43  2  0  0  0
 38 46  1  0  0  0
 38 47  1  0  0  0
 39 64  1  0  0  0
 39 67  2  0  0  0
 40 52  1  0  0  0
 40 53  2  0  0  0
 40 58  1  0  0  0
 41110  1  0  0  0
 41111  1  0  0  0
 41112  1  0  0  0
 41 48  1  0  0  0
 42 43  1  0  0  0
 42 66  1  0  0  0
 42113  1  0  0  0
 42114  1  0  0  0
 43 44  1  0  0  0
 44115  1  0  0  0
 45 46  2  0  0  0
 45116  1  0  0  0
 46117  1  0  0  0
 47118  1  0  0  0
 47119  1  0  0  0
 48 56  1  0  0  0
 48 65  1  0  0  0
 48120  1  0  0  0
 49 50  1  0  0  0
 49 53  1  0  0  0
 49 64  1  0  0  0
 49121  1  0  0  0
 50 51  1  0  0  0
 50122  1  0  0  0
 50123  1  0  0  0
 51 52  1  0  0  0
 51124  1  0  0  0
 51125  1  0  0  0
 52126  1  0  0  0
 52127  1  0  0  0
 53 54  1  0  0  0
 54 55  2  0  0  0
 54128  1  0  0  0
 55 57  1  0  0  0
 55129  1  0  0  0
 56 69  2  0  0  0
 57 58  2  0  0  0
 57130  1  0  0  0
 58131  1  0  0  0
 59 60  1  0  0  0
 59 61  1  0  0  0
 59 62  1  0  0  0
 60132  1  0  0  0
 60133  1  0  0  0
 60134  1  0  0  0
 61135  1  0  0  0
 61136  1  0  0  0
 61137  1  0  0  0
 62138  1  0  0  0
 62139  1  0  0  0
 62140  1  0  0  0
 63 65  1  0  0  0
 63141  1  0  0  0
 63142  1  0  0  0
 63143  1  0  0  0
 64144  1  0  0  0
 65145  1  0  0  0
 68 83  1  0  0  0
 71 72  2  0  0  0
 71 74  1  0  0  0
 71146  1  0  0  0
 72 75  1  0  0  0
 72147  1  0  0  0
 73 75  2  0  0  0
 73 76  1  0  0  0
 73148  1  0  0  0
 74 76  2  0  0  0
 74 82  1  0  0  0
 75 84  1  0  0  0
 76 86  1  0  0  0
 77 78  2  0  0  0
 77 84  1  0  0  0
 77149  1  0  0  0
 78 79  1  0  0  0
 78 83  1  0  0  0
 79 80  1  0  0  0
 79 85  2  0  0  0
 80 81  1  0  0  0
 80150  1  0  0  0
 80151  1  0  0  0
 81 84  1  0  0  0
 81152  1  0  0  0
 81153  1  0  0  0
 82154  1  0  0  0
 82155  1  0  0  0
 83156  1  0  0  0
 83157  1  0  0  0
M  ISO  4   1 100  68 101  82 100  83 101
M  END
> <chiral flag>
0

> <version>
0

> <s_m_source_file>
/data/baiqing/PycharmProjects/Reinvent-master-3.2/result/LINK_invent/BTK/process_docking_weight1_custom_product_contain_oxygen_bond_distance_aromatic_linkinvent_7_9_3/rearranged_h_0103.sdf

> <i_m_source_file_index>
98

> <r_mmod_Potential_Energy-OPLS-2005>
59.3978233337402

> <r_mmod_Stretch_Energy-OPLS-2005>
83.2082061767578

> <r_mmod_Bend_Energy-OPLS-2005>
135.169677734375

> <r_mmod_Torsional_Energy-OPLS-2005>
156.889465332031

> <r_mmod_Improper_Torsional_Energy-OPLS-2005>
3.71369409561157

> <r_mmod_Van_der_Waal_Energy-OPLS-2005>
164.272338867188

> <r_mmod_Electrostatic_Energy-OPLS-2005>
-310.12841796875

> <r_mmod_Solvation_Energy-OPLS-2005>
-215.533172607422

> <b_mmod_Minimization_Converged-OPLS-2005>
0

> <r_mmod_RMS_Derivative-OPLS-2005>
1.08988904953003

$$$$
98
                    3D
 Structure written by MMmdl.
158166  0  0  1  0            999 V2000
  -30.6158  -14.6300   20.5094 C   0  0  0  0  0  0
  -30.4405  -12.3891   19.4460 C   0  0  0  0  0  0
  -29.5074  -12.5155   18.2200 C   0  0  0  0  0  0
  -28.0291  -12.3524   18.6306 C   0  0  0  0  0  0
  -27.6547  -13.2137   19.8658 C   0  0  2  0  0  0
  -28.6996  -13.0524   20.9927 C   0  0  0  0  0  0
  -25.2554  -13.8158   20.5650 C   0  0  0  0  0  0
  -24.1834  -13.0434   20.9191 C   0  0  0  0  0  0
  -24.6403  -11.6900   20.8746 C   0  0  0  0  0  0
  -23.9077  -10.4290   21.0414 C   0  0  0  0  0  0
  -24.3623   -9.4203   21.9191 C   0  0  0  0  0  0
  -23.6293   -8.2245   22.0762 C   0  0  0  0  0  0
  -22.4273   -8.0286   21.3549 C   0  0  0  0  0  0
  -21.9914   -9.0267   20.4653 C   0  0  0  0  0  0
  -22.7250  -10.2141   20.3064 C   0  0  0  0  0  0
  -21.6853   -6.0741   22.5281 C   0  0  0  0  0  0
  -21.4017   -6.5644   23.8217 C   0  0  0  0  0  0
  -21.3656   -5.6795   24.9176 C   0  0  0  0  0  0
  -21.6041   -4.3057   24.7223 C   0  0  0  0  0  0
  -21.8822   -3.8152   23.4342 C   0  0  0  0  0  0
  -21.9192   -4.6970   22.3400 C   0  0  0  0  0  0
  -22.7852  -13.5230   21.1855 C   0  0  0  0  0  0
  -22.1657   -4.2154   21.0978 F   0  0  0  0  0  0
  -21.5628   -3.4540   25.7736 F   0  0  0  0  0  0
  -30.0162  -13.4003   20.4334 N   0  0  0  0  0  0
  -26.2991  -12.9341   20.3317 N   0  0  0  0  0  0
  -25.9327  -11.6498   20.5752 N   0  0  0  0  0  0
  -22.0483  -12.8235   22.0404 N   0  0  0  0  0  0
  -25.4265  -15.1878   20.3987 N   0  0  0  0  0  0
  -31.7772  -14.8042   20.1264 O   0  0  0  0  0  0
  -21.6638   -6.8882   21.4241 O   0  0  0  0  0  0
  -22.3543  -14.5541   20.6701 O   0  0  0  0  0  0
  -24.6250  -31.8607   23.2057 C   0  0  0  0  0  0
  -25.9110  -32.4777   23.8371 C   0  0  1  0  0  0
  -27.2176  -27.3260   20.1117 C   0  0  0  0  0  0
  -25.5932  -33.8575   24.2295 N   0  0  0  0  0  0
  -23.4173  -30.4863   21.5476 C   0  0  2  0  0  0
  -24.8625  -28.9479   20.1079 C   0  0  0  0  0  0
  -22.7469  -29.4620   22.4931 C   0  0  0  0  0  0
  -18.0280  -28.1385   22.8450 C   0  0  0  0  0  0
  -24.1493  -36.7296   23.2635 C   0  0  0  0  0  0
  -25.9597  -30.7928   21.3783 C   0  0  0  0  0  0
  -26.0320  -29.4239   20.7136 C   0  0  0  0  0  0
  -27.2131  -28.6237   20.7069 C   0  0  0  0  0  0
  -26.0243  -26.9048   19.4783 C   0  0  0  0  0  0
  -24.8602  -27.6920   19.4840 C   0  0  0  0  0  0
  -23.6295  -29.8266   20.1594 C   0  0  0  0  0  0
  -25.4116  -36.3079   24.0328 C   0  0  1  0  0  0
  -20.5875  -28.3675   23.1272 C   0  0  2  0  0  0
  -20.6779  -26.9398   22.5404 C   0  0  0  0  0  0
  -19.5768  -26.6380   21.5186 C   0  0  0  0  0  0
  -18.1935  -26.7926   22.1591 C   0  0  0  0  0  0
  -19.1531  -28.8850   23.2845 C   0  0  0  0  0  0
  -18.9464  -30.1449   23.8860 C   0  0  0  0  0  0
  -17.6471  -30.6582   24.0549 C   0  0  0  0  0  0
  -25.9051  -34.9443   23.5112 C   0  0  0  0  0  0
  -16.5355  -29.9085   23.6325 C   0  0  0  0  0  0
  -16.7269  -28.6508   23.0327 C   0  0  0  0  0  0
  -26.4479  -31.6606   25.0755 C   0  0  0  0  0  0
  -25.3698  -31.3767   26.1481 C   0  0  0  0  0  0
  -27.0333  -30.3027   24.6241 C   0  0  0  0  0  0
  -27.6039  -32.4352   25.7515 C   0  0  0  0  0  0
  -27.5585  -37.1800   24.8454 C   0  0  0  0  0  0
  -21.4189  -29.3029   22.3675 N   0  0  0  0  0  0
  -26.4292  -37.3778   23.9405 N   0  0  0  0  0  0
  -24.6856  -31.0633   22.0997 N   0  0  0  0  0  0
  -23.4191  -28.8138   23.2987 O   0  0  0  0  0  0
  -28.3309  -26.4737   20.1713 O   0  0  0  0  0  0
  -26.5612  -34.8904   22.4675 O   0  0  0  0  0  0
  -23.5420  -32.1407   23.7392 O   0  0  0  0  0  0
  -28.6823  -17.8829   20.8722 C   0  0  0  0  0  0
  -28.6811  -19.3081   20.8396 C   0  0  0  0  0  0
  -31.0651  -17.8549   20.5696 C   0  0  0  0  0  0
  -31.0727  -19.2844   20.5411 C   0  0  0  0  0  0
  -29.8712  -17.1137   20.7550 C   0  0  0  0  0  0
  -29.8774  -20.0575   20.7069 C   0  0  0  0  0  0
  -32.4140  -19.9723   20.3432 C   0  0  0  0  0  0
  -30.5291  -21.8529   22.1382 C   0  0  0  0  0  0
  -29.1970  -23.9912   20.4839 C   0  0  0  0  0  0
  -28.8508  -22.4296   20.3939 C   0  0  0  0  0  0
  -28.0932  -25.0220   20.0090 C   0  0  0  0  0  0
  -29.7834  -15.6584   20.8637 N   0  0  0  0  0  0
  -29.9225  -21.4907   20.8564 N   0  0  0  0  0  0
  -31.4807  -12.5207   19.1442 H   0  0  0  0  0  0
  -30.3771  -11.3879   19.8757 H   0  0  0  0  0  0
  -29.7698  -11.7717   17.4657 H   0  0  0  0  0  0
  -29.6500  -13.4894   17.7486 H   0  0  0  0  0  0
  -27.8625  -11.2975   18.8498 H   0  0  0  0  0  0
  -27.3760  -12.5943   17.7908 H   0  0  0  0  0  0
  -27.6764  -14.2520   19.5342 H   0  0  0  0  0  0
  -28.7084  -12.0243   21.3583 H   0  0  0  0  0  0
  -28.4453  -13.6689   21.8562 H   0  0  0  0  0  0
  -25.2768   -9.5672   22.4762 H   0  0  0  0  0  0
  -23.9999   -7.4634   22.7480 H   0  0  0  0  0  0
  -21.0849   -8.8794   19.8955 H   0  0  0  0  0  0
  -22.3720  -10.9684   19.6172 H   0  0  0  0  0  0
  -21.2016   -7.6153   23.9721 H   0  0  0  0  0  0
  -21.1470   -6.0523   25.9078 H   0  0  0  0  0  0
  -22.0601   -2.7614   23.2844 H   0  0  0  0  0  0
  -22.4090  -11.9893   22.4802 H   0  0  0  0  0  0
  -21.1099  -13.1272   22.2605 H   0  0  0  0  0  0
  -24.6481  -15.8331   20.4772 H   0  0  0  0  0  0
  -26.2538  -15.6134   20.0012 H   0  0  0  0  0  0
  -26.7179  -32.5414   23.1114 H   0  0  0  0  0  0
  -25.0067  -33.9726   25.0433 H   0  0  0  0  0  0
  -22.7083  -31.3049   21.4088 H   0  0  0  0  0  0
  -23.3748  -35.9636   23.3293 H   0  0  0  0  0  0
  -24.3580  -36.8928   22.2049 H   0  0  0  0  0  0
  -23.7264  -37.6500   23.6669 H   0  0  0  0  0  0
  -26.0998  -31.5628   20.6181 H   0  0  0  0  0  0
  -26.8376  -30.8313   22.0123 H   0  0  0  0  0  0
  -28.1101  -28.9814   21.1923 H   0  0  0  0  0  0
  -25.9556  -25.9475   18.9828 H   0  0  0  0  0  0
  -23.9646  -27.3182   19.0077 H   0  0  0  0  0  0
  -23.7453  -30.6075   19.4069 H   0  0  0  0  0  0
  -22.7506  -29.2543   19.8558 H   0  0  0  0  0  0
  -25.1297  -36.1933   25.0826 H   0  0  0  0  0  0
  -20.9935  -28.3259   24.1406 H   0  0  0  0  0  0
  -20.5686  -26.2269   23.3595 H   0  0  0  0  0  0
  -21.6649  -26.7451   22.1190 H   0  0  0  0  0  0
  -19.6935  -25.6288   21.1223 H   0  0  0  0  0  0
  -19.6736  -27.3171   20.6701 H   0  0  0  0  0  0
  -17.4209  -26.6626   21.4003 H   0  0  0  0  0  0
  -18.0363  -26.0084   22.9013 H   0  0  0  0  0  0
  -19.7946  -30.7254   24.2218 H   0  0  0  0  0  0
  -17.5036  -31.6259   24.5163 H   0  0  0  0  0  0
  -15.5356  -30.2978   23.7700 H   0  0  0  0  0  0
  -15.8653  -28.0839   22.7055 H   0  0  0  0  0  0
  -24.5850  -30.7144   25.7801 H   0  0  0  0  0  0
  -24.8903  -32.2946   26.4896 H   0  0  0  0  0  0
  -25.7997  -30.8939   27.0270 H   0  0  0  0  0  0
  -26.2931  -29.6780   24.1232 H   0  0  0  0  0  0
  -27.3969  -29.7292   25.4777 H   0  0  0  0  0  0
  -27.8830  -30.4297   23.9526 H   0  0  0  0  0  0
  -27.2644  -33.3652   26.2093 H   0  0  0  0  0  0
  -28.3841  -32.6931   25.0336 H   0  0  0  0  0  0
  -28.0724  -31.8488   26.5430 H   0  0  0  0  0  0
  -28.2577  -38.0118   24.7505 H   0  0  0  0  0  0
  -28.1113  -36.2649   24.6278 H   0  0  0  0  0  0
  -27.2299  -37.1428   25.8853 H   0  0  0  0  0  0
  -20.9371  -29.8758   21.6891 H   0  0  0  0  0  0
  -26.0174  -38.2852   24.1422 H   0  0  0  0  0  0
  -27.7357  -17.3806   21.0129 H   0  0  0  0  0  0
  -27.7412  -19.8209   20.9797 H   0  0  0  0  0  0
  -32.0033  -17.3289   20.4690 H   0  0  0  0  0  0
  -33.1243  -19.3112   19.8470 H   0  0  0  0  0  0
  -32.8394  -20.2615   21.3039 H   0  0  0  0  0  0
  -32.3118  -20.8635   19.7237 H   0  0  0  0  0  0
  -31.2579  -22.6523   21.9957 H   0  0  0  0  0  0
  -31.0436  -21.0240   22.6266 H   0  0  0  0  0  0
  -29.7708  -22.2069   22.8373 H   0  0  0  0  0  0
  -30.1118  -24.1850   19.9242 H   0  0  0  0  0  0
  -29.4302  -24.2397   21.5193 H   0  0  0  0  0  0
  -28.5981  -22.1821   19.3616 H   0  0  0  0  0  0
  -27.9475  -22.2363   20.9760 H   0  0  0  0  0  0
  -27.8945  -24.8303   18.9533 H   0  0  0  0  0  0
  -27.1829  -24.7590   20.5531 H   0  0  0  0  0  0
  -28.8735  -15.3209   21.1394 H   0  0  0  0  0  0
  1 25  1  0  0  0
  1 30  2  0  0  0
  1 82  1  0  0  0
  2  3  1  0  0  0
  2 25  1  0  0  0
  2 84  1  0  0  0
  2 85  1  0  0  0
  3  4  1  0  0  0
  3 86  1  0  0  0
  3 87  1  0  0  0
  4  5  1  0  0  0
  4 88  1  0  0  0
  4 89  1  0  0  0
  5  6  1  0  0  0
  5 26  1  0  0  0
  5 90  1  0  0  0
  6 25  1  0  0  0
  6 91  1  0  0  0
  6 92  1  0  0  0
  7  8  2  0  0  0
  7 26  1  0  0  0
  7 29  1  0  0  0
  8  9  1  0  0  0
  8 22  1  0  0  0
  9 10  1  0  0  0
  9 27  2  0  0  0
 10 11  2  0  0  0
 10 15  1  0  0  0
 11 12  1  0  0  0
 11 93  1  0  0  0
 12 13  2  0  0  0
 12 94  1  0  0  0
 13 14  1  0  0  0
 13 31  1  0  0  0
 14 15  2  0  0  0
 14 95  1  0  0  0
 15 96  1  0  0  0
 16 17  2  0  0  0
 16 21  1  0  0  0
 16 31  1  0  0  0
 17 18  1  0  0  0
 17 97  1  0  0  0
 18 19  2  0  0  0
 18 98  1  0  0  0
 19 20  1  0  0  0
 19 24  1  0  0  0
 20 21  2  0  0  0
 20 99  1  0  0  0
 21 23  1  0  0  0
 22 28  1  0  0  0
 22 32  2  0  0  0
 26 27  1  0  0  0
 28100  1  0  0  0
 28101  1  0  0  0
 29102  1  0  0  0
 29103  1  0  0  0
 33 34  1  0  0  0
 33 66  1  0  0  0
 33 70  2  0  0  0
 34 36  1  0  0  0
 34 59  1  0  0  0
 34104  1  0  0  0
 35 44  2  0  0  0
 35 45  1  0  0  0
 35 68  1  0  0  0
 36 56  1  0  0  0
 36105  1  0  0  0
 37 39  1  0  0  0
 37 47  1  0  0  0
 37 66  1  0  0  0
 37106  1  0  0  0
 38 43  2  0  0  0
 38 46  1  0  0  0
 38 47  1  0  0  0
 39 64  1  0  0  0
 39 67  2  0  0  0
 40 52  1  0  0  0
 40 53  2  0  0  0
 40 58  1  0  0  0
 41107  1  0  0  0
 41108  1  0  0  0
 41109  1  0  0  0
 41 48  1  0  0  0
 42 43  1  0  0  0
 42 66  1  0  0  0
 42110  1  0  0  0
 42111  1  0  0  0
 43 44  1  0  0  0
 44112  1  0  0  0
 45 46  2  0  0  0
 45113  1  0  0  0
 46114  1  0  0  0
 47115  1  0  0  0
 47116  1  0  0  0
 48 56  1  0  0  0
 48 65  1  0  0  0
 48117  1  0  0  0
 49 50  1  0  0  0
 49 53  1  0  0  0
 49 64  1  0  0  0
 49118  1  0  0  0
 50 51  1  0  0  0
 50119  1  0  0  0
 50120  1  0  0  0
 51 52  1  0  0  0
 51121  1  0  0  0
 51122  1  0  0  0
 52123  1  0  0  0
 52124  1  0  0  0
 53 54  1  0  0  0
 54 55  2  0  0  0
 54125  1  0  0  0
 55 57  1  0  0  0
 55126  1  0  0  0
 56 69  2  0  0  0
 57 58  2  0  0  0
 57127  1  0  0  0
 58128  1  0  0  0
 59 60  1  0  0  0
 59 61  1  0  0  0
 59 62  1  0  0  0
 60129  1  0  0  0
 60130  1  0  0  0
 60131  1  0  0  0
 61132  1  0  0  0
 61133  1  0  0  0
 61134  1  0  0  0
 62135  1  0  0  0
 62136  1  0  0  0
 62137  1  0  0  0
 63 65  1  0  0  0
 63138  1  0  0  0
 63139  1  0  0  0
 63140  1  0  0  0
 64141  1  0  0  0
 65142  1  0  0  0
 68 81  1  0  0  0
 71 72  2  0  0  0
 71 75  1  0  0  0
 71143  1  0  0  0
 72 76  1  0  0  0
 72144  1  0  0  0
 73 74  1  0  0  0
 73 75  2  0  0  0
 73145  1  0  0  0
 74 76  2  0  0  0
 74 77  1  0  0  0
 75 82  1  0  0  0
 76 83  1  0  0  0
 77146  1  0  0  0
 77147  1  0  0  0
 77148  1  0  0  0
 78 83  1  0  0  0
 78149  1  0  0  0
 78150  1  0  0  0
 78151  1  0  0  0
 79 80  1  0  0  0
 79 81  1  0  0  0
 79152  1  0  0  0
 79153  1  0  0  0
 80 83  1  0  0  0
 80154  1  0  0  0
 80155  1  0  0  0
 81156  1  0  0  0
 81157  1  0  0  0
 82158  1  0  0  0
M  ISO  4   1 100  68 101  81 101  82 100
M  END
> <chiral flag>
0

> <version>
0

> <s_m_source_file>
/data/baiqing/PycharmProjects/Reinvent-master-3.2/result/LINK_invent/BTK/process_docking_weight1_custom_product_contain_oxygen_bond_distance_aromatic_linkinvent_7_9_3/rearranged_h_0103.sdf

> <i_m_source_file_index>
99

> <r_mmod_Potential_Energy-OPLS-2005>
28.5406532287598

> <r_mmod_Stretch_Energy-OPLS-2005>
76.7796783447266

> <r_mmod_Bend_Energy-OPLS-2005>
137.429397583008

> <r_mmod_Torsional_Energy-OPLS-2005>
223.209915161133

> <r_mmod_Improper_Torsional_Energy-OPLS-2005>
8.21591472625732

> <r_mmod_Van_der_Waal_Energy-OPLS-2005>
153.076431274414

> <r_mmod_Electrostatic_Energy-OPLS-2005>
-398.662139892578

> <r_mmod_Solvation_Energy-OPLS-2005>
-218.110122680664

> <b_mmod_Minimization_Converged-OPLS-2005>
0

> <r_mmod_RMS_Derivative-OPLS-2005>
1.94501602649689

$$$$
