0
                    3D
 Structure written by MMmdl.
164172  0  0  1  0            999 V2000
  -30.7212  -14.4201   20.6439 C   0  0  0  0  0  0
  -30.4228  -12.3011   19.4002 C   0  0  0  0  0  0
  -29.4877  -12.5212   18.1950 C   0  0  0  0  0  0
  -28.0108  -12.3775   18.6126 C   0  0  0  0  0  0
  -27.6668  -13.2031   19.8814 C   0  0  2  0  0  0
  -28.7100  -12.9552   20.9945 C   0  0  0  0  0  0
  -25.2613  -13.8154   20.5689 C   0  0  0  0  0  0
  -24.1851  -13.0436   20.9168 C   0  0  0  0  0  0
  -24.6399  -11.6902   20.8730 C   0  0  0  0  0  0
  -23.9060  -10.4291   21.0400 C   0  0  0  0  0  0
  -24.3612   -9.4208   21.9180 C   0  0  0  0  0  0
  -23.6289   -8.2243   22.0752 C   0  0  0  0  0  0
  -22.4270   -8.0280   21.3543 C   0  0  0  0  0  0
  -21.9903   -9.0254   20.4646 C   0  0  0  0  0  0
  -22.7231  -10.2134   20.3053 C   0  0  0  0  0  0
  -21.6852   -6.0734   22.5279 C   0  0  0  0  0  0
  -21.4014   -6.5639   23.8213 C   0  0  0  0  0  0
  -21.3659   -5.6792   24.9175 C   0  0  0  0  0  0
  -21.6044   -4.3054   24.7227 C   0  0  0  0  0  0
  -21.8820   -3.8146   23.4348 C   0  0  0  0  0  0
  -21.9193   -4.6962   22.3404 C   0  0  0  0  0  0
  -22.7873  -13.5237   21.1835 C   0  0  0  0  0  0
  -22.1661   -4.2147   21.0981 F   0  0  0  0  0  0
  -21.5629   -3.4540   25.7741 F   0  0  0  0  0  0
  -30.0408  -13.2598   20.4468 N   0  0  0  0  0  0
  -26.3057  -12.9321   20.3407 N   0  0  0  0  0  0
  -25.9330  -11.6480   20.5773 N   0  0  0  0  0  0
  -22.0513  -12.8234   22.0396 N   0  0  0  0  0  0
  -25.4344  -15.1871   20.4101 N   0  0  0  0  0  0
  -31.7912  -14.6552   20.0719 O   0  0  0  0  0  0
  -21.6637   -6.8876   21.4240 O   0  0  0  0  0  0
  -22.3559  -14.5545   20.6686 O   0  0  0  0  0  0
  -24.6124  -31.8693   23.2108 C   0  0  0  0  0  0
  -25.9022  -32.4833   23.8402 C   0  0  1  0  0  0
  -27.2380  -27.4587   20.0919 C   0  0  0  0  0  0
  -25.5885  -33.8632   24.2338 N   0  0  0  0  0  0
  -23.4006  -30.4910   21.5509 C   0  0  2  0  0  0
  -24.8496  -28.9573   20.1160 C   0  0  0  0  0  0
  -22.7401  -29.4661   22.5004 C   0  0  0  0  0  0
  -18.0268  -28.1374   22.8495 C   0  0  0  0  0  0
  -24.1486  -36.7321   23.2638 C   0  0  0  0  0  0
  -25.9262  -30.8412   21.3609 C   0  0  0  0  0  0
  -26.0070  -29.4754   20.7123 C   0  0  0  0  0  0
  -27.2070  -28.7311   20.7020 C   0  0  0  0  0  0
  -26.0707  -26.9465   19.4926 C   0  0  0  0  0  0
  -24.8741  -27.6899   19.5053 C   0  0  0  0  0  0
  -23.6089  -29.8206   20.1662 C   0  0  0  0  0  0
  -25.4105  -36.3122   24.0342 C   0  0  1  0  0  0
  -20.5857  -28.3661   23.1324 C   0  0  2  0  0  0
  -20.6760  -26.9401   22.5421 C   0  0  0  0  0  0
  -19.5741  -26.6388   21.5215 C   0  0  0  0  0  0
  -18.1916  -26.7922   22.1621 C   0  0  0  0  0  0
  -19.1518  -28.8833   23.2907 C   0  0  0  0  0  0
  -18.9447  -30.1437   23.8921 C   0  0  0  0  0  0
  -17.6452  -30.6584   24.0567 C   0  0  0  0  0  0
  -25.9029  -34.9483   23.5139 C   0  0  0  0  0  0
  -16.5342  -29.9089   23.6324 C   0  0  0  0  0  0
  -16.7258  -28.6502   23.0352 C   0  0  0  0  0  0
  -26.4462  -31.6603   25.0717 C   0  0  0  0  0  0
  -25.3736  -31.3696   26.1471 C   0  0  0  0  0  0
  -27.0288  -30.3051   24.6068 C   0  0  0  0  0  0
  -27.6054  -32.4309   25.7467 C   0  0  0  0  0  0
  -27.5583  -37.1810   24.8465 C   0  0  0  0  0  0
  -21.4133  -29.3029   22.3734 N   0  0  0  0  0  0
  -26.4298  -37.3800   23.9409 N   0  0  0  0  0  0
  -24.6645  -31.0807   22.1001 N   0  0  0  0  0  0
  -23.4179  -28.8211   23.3047 O   0  0  0  0  0  0
  -28.3854  -26.7055   20.0767 O   0  0  0  0  0  0
  -26.5596  -34.8932   22.4703 O   0  0  0  0  0  0
  -23.5322  -32.1438   23.7514 O   0  0  0  0  0  0
  -30.4772  -17.5136   23.9213 C   0  0  0  0  0  0
  -30.0488  -18.3982   24.9236 C   0  0  0  0  0  0
  -29.8465  -19.1407   22.2132 C   0  0  0  0  0  0
  -30.3649  -17.8670   22.5615 C   0  0  0  0  0  0
  -29.5146  -19.6545   24.5803 C   0  0  0  0  0  0
  -29.4224  -20.0451   23.2233 C   0  0  0  0  0  0
  -30.1416  -21.6068   26.0729 C   0  0  0  0  0  0
  -30.8398  -16.8758   21.5019 C   0  0  0  0  0  0
  -29.0597  -20.5894   25.6909 C   0  0  0  0  0  0
  -30.1283  -15.4984   21.5755 C   0  0  0  0  0  0
  -28.7367  -24.3666   20.7778 C   0  0  0  0  0  0
  -28.7414  -23.4246   21.9993 C   0  0  0  0  0  0
  -28.5082  -25.8332   21.2022 C   0  0  0  0  0  0
  -29.0791  -21.9437   21.7299 C   0  0  0  0  0  0
  -28.9029  -21.3004   22.9865 O   0  0  0  0  0  0
  -31.4653  -12.4051   19.0948 H   0  0  0  0  0  0
  -30.3262  -11.2817   19.7769 H   0  0  0  0  0  0
  -29.7220  -11.8111   17.4009 H   0  0  0  0  0  0
  -29.6557  -13.5149   17.7768 H   0  0  0  0  0  0
  -27.8180  -11.3198   18.7958 H   0  0  0  0  0  0
  -27.3573  -12.6663   17.7886 H   0  0  0  0  0  0
  -27.7207  -14.2558   19.6028 H   0  0  0  0  0  0
  -28.6807  -11.9119   21.3121 H   0  0  0  0  0  0
  -28.4710  -13.5320   21.8875 H   0  0  0  0  0  0
  -25.2759   -9.5684   22.4753 H   0  0  0  0  0  0
  -24.0000   -7.4634   22.7470 H   0  0  0  0  0  0
  -21.0834   -8.8772   19.8953 H   0  0  0  0  0  0
  -22.3688  -10.9673   19.6162 H   0  0  0  0  0  0
  -21.2006   -7.6147   23.9715 H   0  0  0  0  0  0
  -21.1481   -6.0523   25.9078 H   0  0  0  0  0  0
  -22.0599   -2.7607   23.2850 H   0  0  0  0  0  0
  -22.4123  -11.9893   22.4784 H   0  0  0  0  0  0
  -21.1134  -13.1267   22.2604 H   0  0  0  0  0  0
  -24.6722  -15.8469   20.5217 H   0  0  0  0  0  0
  -26.2974  -15.6260   20.1140 H   0  0  0  0  0  0
  -26.7095  -32.5560   23.1174 H   0  0  0  0  0  0
  -25.0043  -33.9802   25.0487 H   0  0  0  0  0  0
  -22.6885  -31.3069   21.4111 H   0  0  0  0  0  0
  -23.3746  -35.9655   23.3315 H   0  0  0  0  0  0
  -24.3580  -36.8922   22.2049 H   0  0  0  0  0  0
  -23.7241  -37.6532   23.6641 H   0  0  0  0  0  0
  -26.0319  -31.6058   20.5900 H   0  0  0  0  0  0
  -26.8165  -30.9002   21.9751 H   0  0  0  0  0  0
  -28.1027  -29.1261   21.1608 H   0  0  0  0  0  0
  -26.0897  -25.9732   19.0228 H   0  0  0  0  0  0
  -23.9842  -27.2847   19.0439 H   0  0  0  0  0  0
  -23.7135  -30.5949   19.4052 H   0  0  0  0  0  0
  -22.7343  -29.2371   19.8733 H   0  0  0  0  0  0
  -25.1278  -36.1997   25.0836 H   0  0  0  0  0  0
  -20.9944  -28.3226   24.1447 H   0  0  0  0  0  0
  -20.5665  -26.2270   23.3606 H   0  0  0  0  0  0
  -21.6631  -26.7448   22.1213 H   0  0  0  0  0  0
  -19.6909  -25.6305   21.1231 H   0  0  0  0  0  0
  -19.6684  -27.3210   20.6754 H   0  0  0  0  0  0
  -17.4190  -26.6678   21.4017 H   0  0  0  0  0  0
  -18.0312  -26.0054   22.9007 H   0  0  0  0  0  0
  -19.7925  -30.7240   24.2308 H   0  0  0  0  0  0
  -17.5012  -31.6269   24.5158 H   0  0  0  0  0  0
  -15.5345  -30.3002   23.7636 H   0  0  0  0  0  0
  -15.8656  -28.0829   22.7062 H   0  0  0  0  0  0
  -24.5922  -30.7024   25.7810 H   0  0  0  0  0  0
  -24.8903  -32.2839   26.4922 H   0  0  0  0  0  0
  -25.8096  -30.8871   27.0227 H   0  0  0  0  0  0
  -26.2819  -29.6811   24.1141 H   0  0  0  0  0  0
  -27.4096  -29.7286   25.4508 H   0  0  0  0  0  0
  -27.8638  -30.4384   23.9186 H   0  0  0  0  0  0
  -27.2697  -33.3603   26.2082 H   0  0  0  0  0  0
  -28.3838  -32.6879   25.0268 H   0  0  0  0  0  0
  -28.0751  -31.8405   26.5347 H   0  0  0  0  0  0
  -28.2612  -38.0098   24.7512 H   0  0  0  0  0  0
  -28.1073  -36.2633   24.6293 H   0  0  0  0  0  0
  -27.2305  -37.1464   25.8871 H   0  0  0  0  0  0
  -20.9296  -29.8745   21.6951 H   0  0  0  0  0  0
  -26.0197  -38.2885   24.1403 H   0  0  0  0  0  0
  -30.8940  -16.5580   24.2081 H   0  0  0  0  0  0
  -30.1356  -18.1084   25.9618 H   0  0  0  0  0  0
  -29.7726  -19.4135   21.1702 H   0  0  0  0  0  0
  -29.7940  -22.2625   26.8714 H   0  0  0  0  0  0
  -30.4114  -22.2340   25.2225 H   0  0  0  0  0  0
  -31.0458  -21.1069   26.4213 H   0  0  0  0  0  0
  -31.9160  -16.7509   21.6311 H   0  0  0  0  0  0
  -30.7010  -17.3054   20.5088 H   0  0  0  0  0  0
  -28.7836  -20.0027   26.5678 H   0  0  0  0  0  0
  -28.1500  -21.1077   25.3851 H   0  0  0  0  0  0
  -29.0744  -15.6474   21.3409 H   0  0  0  0  0  0
  -30.1764  -15.0986   22.5877 H   0  0  0  0  0  0
  -27.9528  -24.0576   20.0851 H   0  0  0  0  0  0
  -29.6808  -24.2858   20.2380 H   0  0  0  0  0  0
  -27.7613  -23.4757   22.4758 H   0  0  0  0  0  0
  -29.4495  -23.8058   22.7365 H   0  0  0  0  0  0
  -29.3501  -26.1766   21.8043 H   0  0  0  0  0  0
  -27.6313  -25.8871   21.8527 H   0  0  0  0  0  0
  -30.1055  -21.8445   21.3727 H   0  0  0  0  0  0
  -28.4084  -21.5123   20.9859 H   0  0  0  0  0  0
  1 25  1  0  0  0
  1 30  2  0  0  0
  1 80  1  0  0  0
  2  3  1  0  0  0
  2 25  1  0  0  0
  2 86  1  0  0  0
  2 87  1  0  0  0
  3  4  1  0  0  0
  3 88  1  0  0  0
  3 89  1  0  0  0
  4  5  1  0  0  0
  4 90  1  0  0  0
  4 91  1  0  0  0
  5  6  1  0  0  0
  5 26  1  0  0  0
  5 92  1  0  0  0
  6 25  1  0  0  0
  6 93  1  0  0  0
  6 94  1  0  0  0
  7  8  2  0  0  0
  7 26  1  0  0  0
  7 29  1  0  0  0
  8  9  1  0  0  0
  8 22  1  0  0  0
  9 10  1  0  0  0
  9 27  2  0  0  0
 10 11  2  0  0  0
 10 15  1  0  0  0
 11 12  1  0  0  0
 11 95  1  0  0  0
 12 13  2  0  0  0
 12 96  1  0  0  0
 13 14  1  0  0  0
 13 31  1  0  0  0
 14 15  2  0  0  0
 14 97  1  0  0  0
 15 98  1  0  0  0
 16 17  2  0  0  0
 16 21  1  0  0  0
 16 31  1  0  0  0
 17 18  1  0  0  0
 17 99  1  0  0  0
 18 19  2  0  0  0
 18100  1  0  0  0
 19 20  1  0  0  0
 19 24  1  0  0  0
 20 21  2  0  0  0
 20101  1  0  0  0
 21 23  1  0  0  0
 22 28  1  0  0  0
 22 32  2  0  0  0
 26 27  1  0  0  0
 28102  1  0  0  0
 28103  1  0  0  0
 29104  1  0  0  0
 29105  1  0  0  0
 33 34  1  0  0  0
 33 66  1  0  0  0
 33 70  2  0  0  0
 34 36  1  0  0  0
 34 59  1  0  0  0
 34106  1  0  0  0
 35 44  2  0  0  0
 35 45  1  0  0  0
 35 68  1  0  0  0
 36 56  1  0  0  0
 36107  1  0  0  0
 37 39  1  0  0  0
 37 47  1  0  0  0
 37 66  1  0  0  0
 37108  1  0  0  0
 38 43  2  0  0  0
 38 46  1  0  0  0
 38 47  1  0  0  0
 39 64  1  0  0  0
 39 67  2  0  0  0
 40 52  1  0  0  0
 40 53  2  0  0  0
 40 58  1  0  0  0
 41109  1  0  0  0
 41110  1  0  0  0
 41111  1  0  0  0
 41 48  1  0  0  0
 42 43  1  0  0  0
 42 66  1  0  0  0
 42112  1  0  0  0
 42113  1  0  0  0
 43 44  1  0  0  0
 44114  1  0  0  0
 45 46  2  0  0  0
 45115  1  0  0  0
 46116  1  0  0  0
 47117  1  0  0  0
 47118  1  0  0  0
 48 56  1  0  0  0
 48 65  1  0  0  0
 48119  1  0  0  0
 49 50  1  0  0  0
 49 53  1  0  0  0
 49 64  1  0  0  0
 49120  1  0  0  0
 50 51  1  0  0  0
 50121  1  0  0  0
 50122  1  0  0  0
 51 52  1  0  0  0
 51123  1  0  0  0
 51124  1  0  0  0
 52125  1  0  0  0
 52126  1  0  0  0
 53 54  1  0  0  0
 54 55  2  0  0  0
 54127  1  0  0  0
 55 57  1  0  0  0
 55128  1  0  0  0
 56 69  2  0  0  0
 57 58  2  0  0  0
 57129  1  0  0  0
 58130  1  0  0  0
 59 60  1  0  0  0
 59 61  1  0  0  0
 59 62  1  0  0  0
 60131  1  0  0  0
 60132  1  0  0  0
 60133  1  0  0  0
 61134  1  0  0  0
 61135  1  0  0  0
 61136  1  0  0  0
 62137  1  0  0  0
 62138  1  0  0  0
 62139  1  0  0  0
 63 65  1  0  0  0
 63140  1  0  0  0
 63141  1  0  0  0
 63142  1  0  0  0
 64143  1  0  0  0
 65144  1  0  0  0
 68 83  1  0  0  0
 71 72  2  0  0  0
 71 74  1  0  0  0
 71145  1  0  0  0
 72 75  1  0  0  0
 72146  1  0  0  0
 73 74  2  0  0  0
 73 76  1  0  0  0
 73147  1  0  0  0
 74 78  1  0  0  0
 75 76  2  0  0  0
 75 79  1  0  0  0
 76 85  1  0  0  0
 77 79  1  0  0  0
 77148  1  0  0  0
 77149  1  0  0  0
 77150  1  0  0  0
 78 80  1  0  0  0
 78151  1  0  0  0
 78152  1  0  0  0
 79153  1  0  0  0
 79154  1  0  0  0
 80155  1  0  0  0
 80156  1  0  0  0
 81 82  1  0  0  0
 81 83  1  0  0  0
 81157  1  0  0  0
 81158  1  0  0  0
 82 84  1  0  0  0
 82159  1  0  0  0
 82160  1  0  0  0
 83161  1  0  0  0
 83162  1  0  0  0
 84 85  1  0  0  0
 84163  1  0  0  0
 84164  1  0  0  0
M  ISO  4   1 100  68 101  80 100  83 101
M  END
> <chiral flag>
0

> <version>
0

> <s_m_source_file>
/data/baiqing/PycharmProjects/Reinvent-master-3.2/result/LINK_invent/BTK/process_docking_weight1_custom_product_contain_oxygen_bond_distance_aromatic_linkinvent_7_9_3/rearranged_h_0134.sdf

> <i_m_source_file_index>
1

> <r_mmod_Potential_Energy-OPLS-2005>
-62.6480331420898

> <r_mmod_Stretch_Energy-OPLS-2005>
34.376594543457

> <r_mmod_Bend_Energy-OPLS-2005>
97.3788146972656

> <r_mmod_Torsional_Energy-OPLS-2005>
195.676284790039

> <r_mmod_Improper_Torsional_Energy-OPLS-2005>
1.78636622428894

> <r_mmod_Van_der_Waal_Energy-OPLS-2005>
147.596038818359

> <r_mmod_Electrostatic_Energy-OPLS-2005>
-356.465759277344

> <r_mmod_Solvation_Energy-OPLS-2005>
-190.895156860352

> <b_mmod_Minimization_Converged-OPLS-2005>
0

> <r_mmod_RMS_Derivative-OPLS-2005>
0.399088501930237

$$$$
1
                    3D
 Structure written by MMmdl.
177186  0  0  1  0            999 V2000
  -30.6886  -14.5295   20.4347 C   0  0  0  0  0  0
  -30.4138  -12.3122   19.4603 C   0  0  0  0  0  0
  -29.5112  -12.4629   18.2179 C   0  0  0  0  0  0
  -28.0221  -12.3566   18.6071 C   0  0  0  0  0  0
  -27.6384  -13.2283   19.8320 C   0  0  2  0  0  0
  -28.6761  -13.1219   20.9670 C   0  0  0  0  0  0
  -25.2407  -13.8145   20.5533 C   0  0  0  0  0  0
  -24.1718  -13.0416   20.9133 C   0  0  0  0  0  0
  -24.6345  -11.6911   20.8706 C   0  0  0  0  0  0
  -23.9034  -10.4275   21.0419 C   0  0  0  0  0  0
  -24.3587   -9.4189   21.9205 C   0  0  0  0  0  0
  -23.6267   -8.2213   22.0745 C   0  0  0  0  0  0
  -22.4240   -8.0271   21.3570 C   0  0  0  0  0  0
  -21.9898   -9.0246   20.4681 C   0  0  0  0  0  0
  -22.7214  -10.2120   20.3067 C   0  0  0  0  0  0
  -21.6865   -6.0697   22.5255 C   0  0  0  0  0  0
  -21.4038   -6.5596   23.8191 C   0  0  0  0  0  0
  -21.3649   -5.6731   24.9145 C   0  0  0  0  0  0
  -21.6040   -4.3002   24.7208 C   0  0  0  0  0  0
  -21.8811   -3.8099   23.4333 C   0  0  0  0  0  0
  -21.9161   -4.6918   22.3379 C   0  0  0  0  0  0
  -22.7727  -13.5229   21.1837 C   0  0  0  0  0  0
  -22.1634   -4.2095   21.0976 F   0  0  0  0  0  0
  -21.5654   -3.4514   25.7755 F   0  0  0  0  0  0
  -30.0118  -13.3535   20.4124 N   0  0  0  0  0  0
  -26.2882  -12.9390   20.3127 N   0  0  0  0  0  0
  -25.9278  -11.6546   20.5619 N   0  0  0  0  0  0
  -22.0351  -12.8293   22.0441 N   0  0  0  0  0  0
  -25.4054  -15.1842   20.3814 N   0  0  0  0  0  0
  -31.9155  -14.5778   20.3618 O   0  0  0  0  0  0
  -21.6624   -6.8863   21.4233 O   0  0  0  0  0  0
  -22.3373  -14.5494   20.6646 O   0  0  0  0  0  0
  -24.6127  -31.8670   23.2083 C   0  0  0  0  0  0
  -25.9005  -32.4822   23.8363 C   0  0  1  0  0  0
  -27.2560  -27.4629   20.0668 C   0  0  0  0  0  0
  -25.5853  -33.8624   24.2285 N   0  0  0  0  0  0
  -23.4049  -30.4842   21.5478 C   0  0  2  0  0  0
  -24.8565  -28.9557   20.1106 C   0  0  0  0  0  0
  -22.7407  -29.4631   22.4976 C   0  0  0  0  0  0
  -18.0256  -28.1377   22.8482 C   0  0  0  0  0  0
  -24.1484  -36.7305   23.2643 C   0  0  0  0  0  0
  -25.9281  -30.8403   21.3591 C   0  0  0  0  0  0
  -26.0146  -29.4754   20.7012 C   0  0  0  0  0  0
  -27.2182  -28.7335   20.6857 C   0  0  0  0  0  0
  -26.0827  -26.9470   19.4837 C   0  0  0  0  0  0
  -24.8847  -27.6884   19.4988 C   0  0  0  0  0  0
  -23.6127  -29.8130   20.1624 C   0  0  0  0  0  0
  -25.4105  -36.3110   24.0335 C   0  0  1  0  0  0
  -20.5844  -28.3647   23.1320 C   0  0  2  0  0  0
  -20.6728  -26.9369   22.5431 C   0  0  0  0  0  0
  -19.5740  -26.6384   21.5196 C   0  0  0  0  0  0
  -18.1902  -26.7922   22.1606 C   0  0  0  0  0  0
  -19.1494  -28.8825   23.2906 C   0  0  0  0  0  0
  -18.9441  -30.1424   23.8929 C   0  0  0  0  0  0
  -17.6452  -30.6585   24.0559 C   0  0  0  0  0  0
  -25.9023  -34.9477   23.5100 C   0  0  0  0  0  0
  -16.5344  -29.9080   23.6334 C   0  0  0  0  0  0
  -16.7248  -28.6496   23.0353 C   0  0  0  0  0  0
  -26.4464  -31.6617   25.0694 C   0  0  0  0  0  0
  -25.3729  -31.3726   26.1447 C   0  0  0  0  0  0
  -27.0285  -30.3051   24.6063 C   0  0  0  0  0  0
  -27.6029  -32.4357   25.7468 C   0  0  0  0  0  0
  -27.5570  -37.1804   24.8449 C   0  0  0  0  0  0
  -21.4113  -29.3027   22.3743 N   0  0  0  0  0  0
  -26.4290  -37.3785   23.9403 N   0  0  0  0  0  0
  -24.6672  -31.0767   22.0975 N   0  0  0  0  0  0
  -23.4168  -28.8176   23.3026 O   0  0  0  0  0  0
  -28.3711  -26.6636   20.1203 O   0  0  0  0  0  0
  -26.5606  -34.8957   22.4688 O   0  0  0  0  0  0
  -23.5309  -32.1403   23.7461 O   0  0  0  0  0  0
  -28.4461  -18.9065   17.4813 C   0  0  0  0  0  0
  -28.6348  -17.8078   18.3362 C   0  0  0  0  0  0
  -30.6227  -16.7240   22.7829 C   0  0  0  0  0  0
  -28.7598  -20.2086   17.9132 C   0  0  0  0  0  0
  -30.6007  -16.8850   24.1827 C   0  0  0  0  0  0
  -29.4955  -19.3026   20.0451 C   0  0  0  0  0  0
  -28.2900  -17.6069   24.0625 C   0  0  0  0  0  0
  -29.1860  -17.9746   19.6333 C   0  0  0  0  0  0
  -29.4747  -16.9798   21.9954 C   0  0  0  0  0  0
  -29.2803  -20.4216   19.2083 C   0  0  0  0  0  0
  -29.4429  -17.3532   24.8340 C   0  0  0  0  0  0
  -28.2979  -17.4325   22.6611 C   0  0  0  0  0  0
  -29.9669  -15.6777   19.8873 C   0  0  0  0  0  0
  -29.5416  -16.8123   20.5124 C   0  0  0  0  0  0
  -27.0049  -17.7813   21.9360 C   0  0  0  0  0  0
  -28.7616  -18.9288   26.7406 C   0  0  0  0  0  0
  -29.5342  -21.8294   19.7588 C   0  0  0  0  0  0
  -29.4567  -17.6184   26.3393 C   0  0  0  0  0  0
  -30.0763  -22.9115   18.7876 C   0  0  0  0  0  0
  -30.0221  -24.3228   19.4324 C   0  0  0  0  0  0
  -29.7305  -25.4884   18.4506 C   0  0  0  0  0  0
  -29.3804  -26.8399   19.1308 C   0  0  0  0  0  0
  -31.4687  -12.3891   19.1853 H   0  0  0  0  0  0
  -30.2907  -11.3262   19.9201 H   0  0  0  0  0  0
  -29.7642  -11.6995   17.4832 H   0  0  0  0  0  0
  -29.7005  -13.4190   17.7190 H   0  0  0  0  0  0
  -27.8169  -11.3070   18.8186 H   0  0  0  0  0  0
  -27.3909  -12.6318   17.7590 H   0  0  0  0  0  0
  -27.6413  -14.2548   19.4685 H   0  0  0  0  0  0
  -28.6267  -12.1373   21.4398 H   0  0  0  0  0  0
  -28.4533  -13.8441   21.7548 H   0  0  0  0  0  0
  -25.2725   -9.5650   22.4768 H   0  0  0  0  0  0
  -23.9963   -7.4587   22.7442 H   0  0  0  0  0  0
  -21.0853   -8.8779   19.8984 H   0  0  0  0  0  0
  -22.3705  -10.9653   19.6162 H   0  0  0  0  0  0
  -21.2089   -7.6097   23.9692 H   0  0  0  0  0  0
  -21.1491   -6.0471   25.9042 H   0  0  0  0  0  0
  -22.0619   -2.7571   23.2823 H   0  0  0  0  0  0
  -22.3901  -12.0026   22.4972 H   0  0  0  0  0  0
  -21.0942  -13.1361   22.2476 H   0  0  0  0  0  0
  -24.6375  -15.8386   20.4641 H   0  0  0  0  0  0
  -26.2614  -15.6151   20.0568 H   0  0  0  0  0  0
  -26.7083  -32.5548   23.1136 H   0  0  0  0  0  0
  -24.9960  -33.9810   25.0406 H   0  0  0  0  0  0
  -22.6912  -31.2979   21.4050 H   0  0  0  0  0  0
  -23.3757  -35.9624   23.3303 H   0  0  0  0  0  0
  -24.3581  -36.8935   22.2055 H   0  0  0  0  0  0
  -23.7245  -37.6510   23.6678 H   0  0  0  0  0  0
  -26.0333  -31.6135   20.5970 H   0  0  0  0  0  0
  -26.8187  -30.8957   21.9727 H   0  0  0  0  0  0
  -28.1056  -29.1249   21.1585 H   0  0  0  0  0  0
  -26.0936  -25.9669   19.0268 H   0  0  0  0  0  0
  -23.9913  -27.2804   19.0440 H   0  0  0  0  0  0
  -23.7112  -30.5860   19.3973 H   0  0  0  0  0  0
  -22.7440  -29.2185   19.8743 H   0  0  0  0  0  0
  -25.1299  -36.1938   25.0820 H   0  0  0  0  0  0
  -20.9938  -28.3188   24.1442 H   0  0  0  0  0  0
  -20.5585  -26.2241   23.3607 H   0  0  0  0  0  0
  -21.6609  -26.7390   22.1268 H   0  0  0  0  0  0
  -19.6895  -25.6288   21.1233 H   0  0  0  0  0  0
  -19.6704  -27.3195   20.6715 H   0  0  0  0  0  0
  -17.4176  -26.6669   21.3984 H   0  0  0  0  0  0
  -18.0302  -26.0064   22.9006 H   0  0  0  0  0  0
  -19.7911  -30.7199   24.2332 H   0  0  0  0  0  0
  -17.5018  -31.6277   24.5126 H   0  0  0  0  0  0
  -15.5338  -30.2999   23.7656 H   0  0  0  0  0  0
  -15.8653  -28.0836   22.7081 H   0  0  0  0  0  0
  -24.5868  -30.7140   25.7749 H   0  0  0  0  0  0
  -24.8994  -32.2901   26.4921 H   0  0  0  0  0  0
  -25.8074  -30.8832   27.0163 H   0  0  0  0  0  0
  -26.2798  -29.6831   24.1147 H   0  0  0  0  0  0
  -27.4076  -29.7275   25.4493 H   0  0  0  0  0  0
  -27.8624  -30.4364   23.9175 H   0  0  0  0  0  0
  -27.2607  -33.3629   26.2060 H   0  0  0  0  0  0
  -28.3811  -32.6958   25.0292 H   0  0  0  0  0  0
  -28.0722  -31.8492   26.5367 H   0  0  0  0  0  0
  -28.2576  -38.0113   24.7523 H   0  0  0  0  0  0
  -28.1082  -36.2648   24.6230 H   0  0  0  0  0  0
  -27.2300  -37.1394   25.8858 H   0  0  0  0  0  0
  -20.9246  -29.8731   21.6986 H   0  0  0  0  0  0
  -26.0159  -38.2849   24.1464 H   0  0  0  0  0  0
  -28.0542  -18.7552   16.4840 H   0  0  0  0  0  0
  -28.3697  -16.8259   17.9665 H   0  0  0  0  0  0
  -31.5462  -16.4219   22.3091 H   0  0  0  0  0  0
  -28.5829  -21.0338   17.2422 H   0  0  0  0  0  0
  -31.4935  -16.6710   24.7539 H   0  0  0  0  0  0
  -29.9144  -19.4606   21.0287 H   0  0  0  0  0  0
  -27.3828  -17.9526   24.5419 H   0  0  0  0  0  0
  -29.8932  -15.6300   18.8159 H   0  0  0  0  0  0
  -26.1361  -17.3881   22.4669 H   0  0  0  0  0  0
  -26.9600  -17.3915   20.9236 H   0  0  0  0  0  0
  -26.9035  -18.8649   21.8854 H   0  0  0  0  0  0
  -28.8638  -19.1068   27.8118 H   0  0  0  0  0  0
  -27.6894  -18.8993   26.5347 H   0  0  0  0  0  0
  -29.1826  -19.7889   26.2134 H   0  0  0  0  0  0
  -30.2112  -21.7633   20.6078 H   0  0  0  0  0  0
  -28.5744  -22.1637   20.1515 H   0  0  0  0  0  0
  -30.4917  -17.6501   26.6944 H   0  0  0  0  0  0
  -28.9968  -16.7781   26.8607 H   0  0  0  0  0  0
  -29.4865  -22.9234   17.8747 H   0  0  0  0  0  0
  -31.0932  -22.6643   18.4769 H   0  0  0  0  0  0
  -30.9408  -24.5180   19.9894 H   0  0  0  0  0  0
  -29.2291  -24.3281   20.1773 H   0  0  0  0  0  0
  -28.9021  -25.2061   17.8010 H   0  0  0  0  0  0
  -30.5894  -25.6349   17.7944 H   0  0  0  0  0  0
  -29.0698  -27.5642   18.3731 H   0  0  0  0  0  0
  -30.2640  -27.2584   19.6202 H   0  0  0  0  0  0
  1 25  1  0  0  0
  1 30  2  0  0  0
  1 83  1  0  0  0
  2  3  1  0  0  0
  2 25  1  0  0  0
  2 93  1  0  0  0
  2 94  1  0  0  0
  3  4  1  0  0  0
  3 95  1  0  0  0
  3 96  1  0  0  0
  4  5  1  0  0  0
  4 97  1  0  0  0
  4 98  1  0  0  0
  5  6  1  0  0  0
  5 26  1  0  0  0
  5 99  1  0  0  0
  6 25  1  0  0  0
  6100  1  0  0  0
  6101  1  0  0  0
  7  8  2  0  0  0
  7 26  1  0  0  0
  7 29  1  0  0  0
  8  9  1  0  0  0
  8 22  1  0  0  0
  9 10  1  0  0  0
  9 27  2  0  0  0
 10 11  2  0  0  0
 10 15  1  0  0  0
 11 12  1  0  0  0
 11102  1  0  0  0
 12 13  2  0  0  0
 12103  1  0  0  0
 13 14  1  0  0  0
 13 31  1  0  0  0
 14 15  2  0  0  0
 14104  1  0  0  0
 15105  1  0  0  0
 16 17  2  0  0  0
 16 21  1  0  0  0
 16 31  1  0  0  0
 17 18  1  0  0  0
 17106  1  0  0  0
 18 19  2  0  0  0
 18107  1  0  0  0
 19 20  1  0  0  0
 19 24  1  0  0  0
 20 21  2  0  0  0
 20108  1  0  0  0
 21 23  1  0  0  0
 22 28  1  0  0  0
 22 32  2  0  0  0
 26 27  1  0  0  0
 28109  1  0  0  0
 28110  1  0  0  0
 29111  1  0  0  0
 29112  1  0  0  0
 33 34  1  0  0  0
 33 66  1  0  0  0
 33 70  2  0  0  0
 34 36  1  0  0  0
 34 59  1  0  0  0
 34113  1  0  0  0
 35 44  2  0  0  0
 35 45  1  0  0  0
 35 68  1  0  0  0
 36 56  1  0  0  0
 36114  1  0  0  0
 37 39  1  0  0  0
 37 47  1  0  0  0
 37 66  1  0  0  0
 37115  1  0  0  0
 38 43  2  0  0  0
 38 46  1  0  0  0
 38 47  1  0  0  0
 39 64  1  0  0  0
 39 67  2  0  0  0
 40 52  1  0  0  0
 40 53  2  0  0  0
 40 58  1  0  0  0
 41116  1  0  0  0
 41117  1  0  0  0
 41118  1  0  0  0
 41 48  1  0  0  0
 42 43  1  0  0  0
 42 66  1  0  0  0
 42119  1  0  0  0
 42120  1  0  0  0
 43 44  1  0  0  0
 44121  1  0  0  0
 45 46  2  0  0  0
 45122  1  0  0  0
 46123  1  0  0  0
 47124  1  0  0  0
 47125  1  0  0  0
 48 56  1  0  0  0
 48 65  1  0  0  0
 48126  1  0  0  0
 49 50  1  0  0  0
 49 53  1  0  0  0
 49 64  1  0  0  0
 49127  1  0  0  0
 50 51  1  0  0  0
 50128  1  0  0  0
 50129  1  0  0  0
 51 52  1  0  0  0
 51130  1  0  0  0
 51131  1  0  0  0
 52132  1  0  0  0
 52133  1  0  0  0
 53 54  1  0  0  0
 54 55  2  0  0  0
 54134  1  0  0  0
 55 57  1  0  0  0
 55135  1  0  0  0
 56 69  2  0  0  0
 57 58  2  0  0  0
 57136  1  0  0  0
 58137  1  0  0  0
 59 60  1  0  0  0
 59 61  1  0  0  0
 59 62  1  0  0  0
 60138  1  0  0  0
 60139  1  0  0  0
 60140  1  0  0  0
 61141  1  0  0  0
 61142  1  0  0  0
 61143  1  0  0  0
 62144  1  0  0  0
 62145  1  0  0  0
 62146  1  0  0  0
 63 65  1  0  0  0
 63147  1  0  0  0
 63148  1  0  0  0
 63149  1  0  0  0
 64150  1  0  0  0
 65151  1  0  0  0
 68 92  1  0  0  0
 71 72  2  0  0  0
 71 74  1  0  0  0
 71152  1  0  0  0
 72 78  1  0  0  0
 72153  1  0  0  0
 73 75  2  0  0  0
 73 79  1  0  0  0
 73154  1  0  0  0
 74 80  2  0  0  0
 74155  1  0  0  0
 75 81  1  0  0  0
 75156  1  0  0  0
 76 78  2  0  0  0
 76 80  1  0  0  0
 76157  1  0  0  0
 77 81  2  0  0  0
 77 82  1  0  0  0
 77158  1  0  0  0
 78 84  1  0  0  0
 79 82  2  0  0  0
 79 84  1  0  0  0
 80 87  1  0  0  0
 81 88  1  0  0  0
 82 85  1  0  0  0
 83 84  2  0  0  0
 83159  1  0  0  0
 85160  1  0  0  0
 85161  1  0  0  0
 85162  1  0  0  0
 86 88  1  0  0  0
 86163  1  0  0  0
 86164  1  0  0  0
 86165  1  0  0  0
 87 89  1  0  0  0
 87166  1  0  0  0
 87167  1  0  0  0
 88168  1  0  0  0
 88169  1  0  0  0
 89 90  1  0  0  0
 89170  1  0  0  0
 89171  1  0  0  0
 90 91  1  0  0  0
 90172  1  0  0  0
 90173  1  0  0  0
 91 92  1  0  0  0
 91174  1  0  0  0
 91175  1  0  0  0
 92176  1  0  0  0
 92177  1  0  0  0
M  ISO  4   1 100  68 101  83 100  92 101
M  END
> <chiral flag>
0

> <version>
0

> <s_m_source_file>
/data/baiqing/PycharmProjects/Reinvent-master-3.2/result/LINK_invent/BTK/process_docking_weight1_custom_product_contain_oxygen_bond_distance_aromatic_linkinvent_7_9_3/rearranged_h_0134.sdf

> <i_m_source_file_index>
2

> <r_mmod_Potential_Energy-OPLS-2005>
158.057083129883

> <r_mmod_Stretch_Energy-OPLS-2005>
43.1115684509277

> <r_mmod_Bend_Energy-OPLS-2005>
123.759498596191

> <r_mmod_Torsional_Energy-OPLS-2005>
296.429656982422

> <r_mmod_Improper_Torsional_Energy-OPLS-2005>
24.456579208374

> <r_mmod_Van_der_Waal_Energy-OPLS-2005>
160.834060668945

> <r_mmod_Electrostatic_Energy-OPLS-2005>
-351.598480224609

> <r_mmod_Solvation_Energy-OPLS-2005>
-176.193450927734

> <b_mmod_Minimization_Converged-OPLS-2005>
0

> <r_mmod_RMS_Derivative-OPLS-2005>
7.84398651123047

$$$$
2
                    3D
 Structure written by MMmdl.
170178  0  0  1  0            999 V2000
  -31.2877  -14.6543   21.2786 C   0  0  0  0  0  0
  -30.6700  -13.9704   18.9668 C   0  0  0  0  0  0
  -29.3885  -13.8511   17.6622 C   0  0  0  0  0  0
  -27.5936  -14.0177   18.1312 C   0  0  0  0  0  0
  -27.1725  -14.2218   19.9591 C   0  0  2  0  0  0
  -28.6023  -14.3143   21.2447 C   0  0  0  0  0  0
  -24.9258  -14.0148   20.7230 C   0  0  0  0  0  0
  -24.0022  -13.0726   20.9756 C   0  0  0  0  0  0
  -24.6161  -11.7887   20.8461 C   0  0  0  0  0  0
  -23.9550  -10.4642   20.9933 C   0  0  0  0  0  0
  -24.4025   -9.4609   21.8862 C   0  0  0  0  0  0
  -23.6663   -8.2599   22.0635 C   0  0  0  0  0  0
  -22.4592   -8.0465   21.3521 C   0  0  0  0  0  0
  -22.0291   -9.0354   20.4480 C   0  0  0  0  0  0
  -22.7654  -10.2185   20.2683 C   0  0  0  0  0  0
  -21.7039   -6.0886   22.5295 C   0  0  0  0  0  0
  -21.4109   -6.5748   23.8233 C   0  0  0  0  0  0
  -21.3722   -5.6852   24.9178 C   0  0  0  0  0  0
  -21.6051   -4.3121   24.7189 C   0  0  0  0  0  0
  -21.8796   -3.8244   23.4298 C   0  0  0  0  0  0
  -21.9231   -4.7088   22.3385 C   0  0  0  0  0  0
  -22.5952  -13.4454   21.2289 C   0  0  0  0  0  0
  -22.1689   -4.2236   21.0948 F   0  0  0  0  0  0
  -21.5629   -3.4589   25.7710 F   0  0  0  0  0  0
  -30.2438  -14.1820   20.6461 N   0  0  0  0  0  0
  -26.0488  -13.3675   20.3885 N   0  0  0  0  0  0
  -25.9029  -11.9766   20.4954 N   0  0  0  0  0  0
  -21.9251  -12.7101   22.0925 N   0  0  0  0  0  0
  -24.8571  -15.4157   20.7478 N   0  0  0  0  0  0
  -32.3147  -14.8885   20.6476 O   0  0  0  0  0  0
  -21.6844   -6.9069   21.4300 O   0  0  0  0  0  0
  -22.1306  -14.4666   20.7192 O   0  0  0  0  0  0
  -24.7503  -31.7136   23.0958 C   0  0  0  0  0  0
  -25.9761  -32.4025   23.7727 C   0  0  1  0  0  0
  -27.0884  -25.9973   20.1391 C   0  0  0  0  0  0
  -25.6051  -33.7900   24.1566 N   0  0  0  0  0  0
  -23.5918  -30.3032   21.4750 C   0  0  2  0  0  0
  -25.0093  -28.5054   20.1026 C   0  0  0  0  0  0
  -22.8003  -29.3875   22.4531 C   0  0  0  0  0  0
  -18.0357  -28.1430   22.8411 C   0  0  0  0  0  0
  -24.1510  -36.6978   23.2677 C   0  0  0  0  0  0
  -26.1933  -30.1963   21.4528 C   0  0  0  0  0  0
  -26.2124  -28.6913   20.7856 C   0  0  0  0  0  0
  -27.2185  -27.4863   20.7513 C   0  0  0  0  0  0
  -25.8655  -26.1987   19.4135 C   0  0  0  0  0  0
  -24.9180  -27.2962   19.3868 C   0  0  0  0  0  0
  -23.8613  -29.5608   20.1232 C   0  0  0  0  0  0
  -25.4183  -36.2651   24.0241 C   0  0  1  0  0  0
  -20.6035  -28.3798   23.1032 C   0  0  2  0  0  0
  -20.6774  -26.9401   22.5408 C   0  0  0  0  0  0
  -19.5776  -26.6340   21.5205 C   0  0  0  0  0  0
  -18.1959  -26.7933   22.1586 C   0  0  0  0  0  0
  -19.1644  -28.8963   23.2693 C   0  0  0  0  0  0
  -18.9532  -30.1541   23.8770 C   0  0  0  0  0  0
  -17.6514  -30.6606   24.0544 C   0  0  0  0  0  0
  -25.9187  -34.9055   23.4801 C   0  0  0  0  0  0
  -16.5405  -29.9093   23.6363 C   0  0  0  0  0  0
  -16.7331  -28.6518   23.0373 C   0  0  0  0  0  0
  -26.4702  -31.6354   25.0644 C   0  0  0  0  0  0
  -25.3606  -31.3873   26.1167 C   0  0  0  0  0  0
  -27.0720  -30.2622   24.6994 C   0  0  0  0  0  0
  -27.6036  -32.4327   25.7502 C   0  0  0  0  0  0
  -27.5536  -37.1652   24.8471 C   0  0  0  0  0  0
  -21.4598  -29.2948   22.3308 N   0  0  0  0  0  0
  -26.4242  -37.3494   23.9398 N   0  0  0  0  0  0
  -24.8829  -30.7886   22.0600 N   0  0  0  0  0  0
  -23.4156  -28.7568   23.3141 O   0  0  0  0  0  0
  -27.8559  -24.4319   20.1042 O   0  0  0  0  0  0
  -26.5910  -34.8787   22.4474 O   0  0  0  0  0  0
  -23.6393  -32.0554   23.5500 O   0  0  0  0  0  0
  -29.5349  -11.3733   22.3671 C   0  0  0  0  0  0
  -29.9755  -12.0845   23.4937 C   0  0  0  0  0  0
  -31.7925  -11.3858   21.4630 C   0  0  0  0  0  0
  -30.4037  -11.3100   21.2508 C   0  0  0  0  0  0
  -31.2789  -12.6118   23.4588 C   0  0  0  0  0  0
  -32.2542  -12.0008   22.6387 C   0  0  0  0  0  0
  -28.1536  -20.2169   19.7611 C   0  0  0  0  0  0
  -33.7383  -12.2335   22.8312 C   0  0  0  0  0  0
  -27.2932  -18.0156   18.1816 C   0  0  0  0  0  0
  -29.8605  -11.4635   19.8347 C   0  0  0  0  0  0
  -31.4121  -14.0998   23.7596 C   0  0  0  0  0  0
  -27.5500  -22.3748   19.7869 C   0  0  0  0  0  0
  -28.8167  -12.6899   19.5979 C   0  0  0  0  0  0
  -28.9105  -15.7702   19.3209 C   0  0  0  0  0  0
  -28.0535  -17.9635   19.5289 C   0  0  1  0  0  0
  -31.1402  -14.9737   22.5853 N   0  0  0  0  0  0
  -27.0750  -17.6855   20.5957 N   0  3  0  0  0  0
  -27.1145  -20.1123   20.4201 O   0  0  0  0  0  0
  -31.2173  -14.8534   18.6244 H   0  0  0  0  0  0
  -31.4519  -13.2224   18.8547 H   0  0  0  0  0  0
  -29.5392  -12.9130   17.1244 H   0  0  0  0  0  0
  -29.6174  -14.5744   16.8737 H   0  0  0  0  0  0
  -26.9915  -13.2169   17.6940 H   0  0  0  0  0  0
  -27.1885  -14.8799   17.6080 H   0  0  0  0  0  0
  -26.8284  -15.2258   19.8645 H   0  0  0  0  0  0
  -28.4127  -13.6086   22.0486 H   0  0  0  0  0  0
  -28.5176  -15.2583   21.7859 H   0  0  0  0  0  0
  -25.3097   -9.6210   22.4459 H   0  0  0  0  0  0
  -24.0379   -7.5114   22.7494 H   0  0  0  0  0  0
  -21.1179   -8.8831   19.8835 H   0  0  0  0  0  0
  -22.4035  -10.9592   19.5683 H   0  0  0  0  0  0
  -21.2134   -7.6231   23.9780 H   0  0  0  0  0  0
  -21.1566   -6.0556   25.9079 H   0  0  0  0  0  0
  -22.0490   -2.7675   23.2764 H   0  0  0  0  0  0
  -22.3497  -11.9033   22.5241 H   0  0  0  0  0  0
  -20.9743  -12.9534   22.3336 H   0  0  0  0  0  0
  -23.9255  -15.6515   20.4055 H   0  0  0  0  0  0
  -24.7763  -15.6380   21.7322 H   0  0  0  0  0  0
  -26.7903  -32.4359   23.0470 H   0  0  0  0  0  0
  -25.0059  -33.8804   24.9629 H   0  0  0  0  0  0
  -22.9563  -31.1614   21.2438 H   0  0  0  0  0  0
  -23.3792  -35.9274   23.3194 H   0  0  0  0  0  0
  -24.3560  -36.8810   22.2113 H   0  0  0  0  0  0
  -23.7239  -37.6089   23.6876 H   0  0  0  0  0  0
  -26.4699  -30.8672   20.6390 H   0  0  0  0  0  0
  -27.0256  -30.2616   22.1403 H   0  0  0  0  0  0
  -28.1247  -27.6441   21.3176 H   0  0  0  0  0  0
  -25.5449  -25.3381   18.8473 H   0  0  0  0  0  0
  -24.0350  -27.1506   18.7809 H   0  0  0  0  0  0
  -24.0979  -30.3039   19.3601 H   0  0  0  0  0  0
  -22.9382  -29.0857   19.7826 H   0  0  0  0  0  0
  -25.1413  -36.1316   25.0715 H   0  0  0  0  0  0
  -21.0064  -28.3444   24.1191 H   0  0  0  0  0  0
  -20.5539  -26.2433   23.3723 H   0  0  0  0  0  0
  -21.6632  -26.7224   22.1315 H   0  0  0  0  0  0
  -19.6917  -25.6231   21.1320 H   0  0  0  0  0  0
  -19.6765  -27.3082   20.6692 H   0  0  0  0  0  0
  -17.4230  -26.6689   21.3995 H   0  0  0  0  0  0
  -18.0322  -26.0133   22.9024 H   0  0  0  0  0  0
  -19.8036  -30.7364   24.2076 H   0  0  0  0  0  0
  -17.5093  -31.6265   24.5160 H   0  0  0  0  0  0
  -15.5413  -30.2953   23.7768 H   0  0  0  0  0  0
  -15.8721  -28.0804   22.7144 H   0  0  0  0  0  0
  -24.5888  -30.7078   25.7511 H   0  0  0  0  0  0
  -24.8726  -32.3166   26.4121 H   0  0  0  0  0  0
  -25.7729  -30.9398   27.0226 H   0  0  0  0  0  0
  -26.3516  -29.5978   24.2226 H   0  0  0  0  0  0
  -27.4091  -29.7405   25.5954 H   0  0  0  0  0  0
  -27.9504  -30.3573   24.0622 H   0  0  0  0  0  0
  -27.2520  -33.3803   26.1577 H   0  0  0  0  0  0
  -28.4136  -32.6541   25.0541 H   0  0  0  0  0  0
  -28.0330  -31.8750   26.5827 H   0  0  0  0  0  0
  -28.2494  -38.0004   24.7491 H   0  0  0  0  0  0
  -28.1101  -36.2504   24.6337 H   0  0  0  0  0  0
  -27.2240  -37.1312   25.8879 H   0  0  0  0  0  0
  -20.9978  -29.8587   21.6310 H   0  0  0  0  0  0
  -26.0002  -38.2500   24.1441 H   0  0  0  0  0  0
  -28.4725  -11.1937   22.2714 H   0  0  0  0  0  0
  -29.2285  -12.4654   24.1799 H   0  0  0  0  0  0
  -32.4878  -11.1990   20.6586 H   0  0  0  0  0  0
  -34.2746  -11.2964   22.6710 H   0  0  0  0  0  0
  -33.9654  -12.5668   23.8457 H   0  0  0  0  0  0
  -34.1252  -12.9721   22.1240 H   0  0  0  0  0  0
  -26.4126  -18.6562   18.2383 H   0  0  0  0  0  0
  -26.9418  -17.0429   17.8422 H   0  0  0  0  0  0
  -27.9321  -18.4143   17.3904 H   0  0  0  0  0  0
  -29.3117  -10.5295   19.6923 H   0  0  0  0  0  0
  -30.6490  -11.3615   19.0885 H   0  0  0  0  0  0
  -32.4061  -14.3200   24.1452 H   0  0  0  0  0  0
  -30.7128  -14.3790   24.5507 H   0  0  0  0  0  0
  -27.1104  -22.4364   18.7948 H   0  0  0  0  0  0
  -26.6930  -22.3144   20.4590 H   0  0  0  0  0  0
  -28.2359  -12.2591   20.4013 H   0  0  0  0  0  0
  -28.3289  -12.0803   18.8246 H   0  0  0  0  0  0
  -29.2741  -16.0335   18.3313 H   0  0  0  0  0  0
  -29.7455  -16.1991   19.8681 H   0  0  0  0  0  0
  -31.5981  -15.8558   22.7531 H   0  0  0  0  0  0
  -26.3690  -17.0122   20.3412 H   0  0  0  0  0  0
  -26.6479  -18.6019   20.7239 H   0  0  0  0  0  0
  -27.5299  -17.4384   21.4535 H   0  0  0  0  0  0
  1 25  1  0  0  0
  1 30  2  0  0  0
  1 86  1  0  0  0
  2  3  1  0  0  0
  2 25  1  0  0  0
  2 89  1  0  0  0
  2 90  1  0  0  0
  3  4  1  0  0  0
  3 91  1  0  0  0
  3 92  1  0  0  0
  4  5  1  0  0  0
  4 93  1  0  0  0
  4 94  1  0  0  0
  5  6  1  0  0  0
  5 26  1  0  0  0
  5 95  1  0  0  0
  6 25  1  0  0  0
  6 96  1  0  0  0
  6 97  1  0  0  0
  7  8  2  0  0  0
  7 26  1  0  0  0
  7 29  1  0  0  0
  8  9  1  0  0  0
  8 22  1  0  0  0
  9 10  1  0  0  0
  9 27  2  0  0  0
 10 11  2  0  0  0
 10 15  1  0  0  0
 11 12  1  0  0  0
 11 98  1  0  0  0
 12 13  2  0  0  0
 12 99  1  0  0  0
 13 14  1  0  0  0
 13 31  1  0  0  0
 14 15  2  0  0  0
 14100  1  0  0  0
 15101  1  0  0  0
 16 17  2  0  0  0
 16 21  1  0  0  0
 16 31  1  0  0  0
 17 18  1  0  0  0
 17102  1  0  0  0
 18 19  2  0  0  0
 18103  1  0  0  0
 19 20  1  0  0  0
 19 24  1  0  0  0
 20 21  2  0  0  0
 20104  1  0  0  0
 21 23  1  0  0  0
 22 28  1  0  0  0
 22 32  2  0  0  0
 26 27  1  0  0  0
 28105  1  0  0  0
 28106  1  0  0  0
 29107  1  0  0  0
 29108  1  0  0  0
 33 34  1  0  0  0
 33 66  1  0  0  0
 33 70  2  0  0  0
 34 36  1  0  0  0
 34 59  1  0  0  0
 34109  1  0  0  0
 35 44  2  0  0  0
 35 45  1  0  0  0
 35 68  1  0  0  0
 36 56  1  0  0  0
 36110  1  0  0  0
 37 39  1  0  0  0
 37 47  1  0  0  0
 37 66  1  0  0  0
 37111  1  0  0  0
 38 43  2  0  0  0
 38 46  1  0  0  0
 38 47  1  0  0  0
 39 64  1  0  0  0
 39 67  2  0  0  0
 40 52  1  0  0  0
 40 53  2  0  0  0
 40 58  1  0  0  0
 41112  1  0  0  0
 41113  1  0  0  0
 41114  1  0  0  0
 41 48  1  0  0  0
 42 43  1  0  0  0
 42 66  1  0  0  0
 42115  1  0  0  0
 42116  1  0  0  0
 43 44  1  0  0  0
 44117  1  0  0  0
 45 46  2  0  0  0
 45118  1  0  0  0
 46119  1  0  0  0
 47120  1  0  0  0
 47121  1  0  0  0
 48 56  1  0  0  0
 48 65  1  0  0  0
 48122  1  0  0  0
 49 50  1  0  0  0
 49 53  1  0  0  0
 49 64  1  0  0  0
 49123  1  0  0  0
 50 51  1  0  0  0
 50124  1  0  0  0
 50125  1  0  0  0
 51 52  1  0  0  0
 51126  1  0  0  0
 51127  1  0  0  0
 52128  1  0  0  0
 52129  1  0  0  0
 53 54  1  0  0  0
 54 55  2  0  0  0
 54130  1  0  0  0
 55 57  1  0  0  0
 55131  1  0  0  0
 56 69  2  0  0  0
 57 58  2  0  0  0
 57132  1  0  0  0
 58133  1  0  0  0
 59 60  1  0  0  0
 59 61  1  0  0  0
 59 62  1  0  0  0
 60134  1  0  0  0
 60135  1  0  0  0
 60136  1  0  0  0
 61137  1  0  0  0
 61138  1  0  0  0
 61139  1  0  0  0
 62140  1  0  0  0
 62141  1  0  0  0
 62142  1  0  0  0
 63 65  1  0  0  0
 63143  1  0  0  0
 63144  1  0  0  0
 63145  1  0  0  0
 64146  1  0  0  0
 65147  1  0  0  0
 68 82  1  0  0  0
 71 72  2  0  0  0
 71 74  1  0  0  0
 71148  1  0  0  0
 72 75  1  0  0  0
 72149  1  0  0  0
 73 74  2  0  0  0
 73 76  1  0  0  0
 73150  1  0  0  0
 74 80  1  0  0  0
 75 76  2  0  0  0
 75 81  1  0  0  0
 76 78  1  0  0  0
 77 82  1  0  0  0
 77 88  2  0  0  0
 77 85  1  0  0  0
 78151  1  0  0  0
 78152  1  0  0  0
 78153  1  0  0  0
 79154  1  0  0  0
 79155  1  0  0  0
 79156  1  0  0  0
 79 85  1  0  0  0
 80 83  1  0  0  0
 80157  1  0  0  0
 80158  1  0  0  0
 81 86  1  0  0  0
 81159  1  0  0  0
 81160  1  0  0  0
 82161  1  0  0  0
 82162  1  0  0  0
 83 84  1  0  0  0
 83163  1  0  0  0
 83164  1  0  0  0
 84 85  1  0  0  0
 84165  1  0  0  0
 84166  1  0  0  0
 85 87  1  0  0  0
 86167  1  0  0  0
 87168  1  0  0  0
 87169  1  0  0  0
 87170  1  0  0  0
M  CHG  1  87   1
M  ISO  4   1 100  68 101  82 101  86 100
M  END
> <chiral flag>
0

> <version>
0

> <s_m_source_file>
/data/baiqing/PycharmProjects/Reinvent-master-3.2/result/LINK_invent/BTK/process_docking_weight1_custom_product_contain_oxygen_bond_distance_aromatic_linkinvent_7_9_3/rearranged_h_0134.sdf

> <i_m_source_file_index>
3

> <r_mmod_Potential_Energy-OPLS-2005>
12710.6357421875

> <r_mmod_Stretch_Energy-OPLS-2005>
6937.5419921875

> <r_mmod_Bend_Energy-OPLS-2005>
1769.14001464844

> <r_mmod_Torsional_Energy-OPLS-2005>
527.54638671875

> <r_mmod_Improper_Torsional_Energy-OPLS-2005>
75.3618698120117

> <r_mmod_Van_der_Waal_Energy-OPLS-2005>
1618.87927246094

> <r_mmod_Electrostatic_Energy-OPLS-2005>
-521.555358886719

> <r_mmod_Solvation_Energy-OPLS-2005>
-451.222351074219

> <b_mmod_Minimization_Converged-OPLS-2005>
0

> <r_mmod_RMS_Derivative-OPLS-2005>
10.1241674423218

$$$$
3
                    3D
 Structure written by MMmdl.
166174  0  0  1  0            999 V2000
  -31.5796  -14.9280   19.5372 C   0  0  0  0  0  0
  -30.8367  -13.4734   20.8791 C   0  0  0  0  0  0
  -28.5926  -11.4137   20.1089 C   0  0  0  0  0  0
  -27.5413  -11.9996   18.7923 C   0  0  0  0  0  0
  -27.2208  -13.6643   19.0055 C   0  0  2  0  0  0
  -28.6771  -15.1088   19.1658 C   0  0  0  0  0  0
  -25.0941  -14.0267   20.5234 C   0  0  0  0  0  0
  -24.0956  -13.1794   20.9576 C   0  0  0  0  0  0
  -24.5811  -11.8471   20.9096 C   0  0  0  0  0  0
  -23.9102  -10.5154   21.0544 C   0  0  0  0  0  0
  -24.3751   -9.4887   21.9182 C   0  0  0  0  0  0
  -23.6520   -8.2753   22.0729 C   0  0  0  0  0  0
  -22.4491   -8.0622   21.3577 C   0  0  0  0  0  0
  -22.0149   -9.0565   20.4661 C   0  0  0  0  0  0
  -22.7336  -10.2579   20.3135 C   0  0  0  0  0  0
  -21.6991   -6.0887   22.5277 C   0  0  0  0  0  0
  -21.4114   -6.5730   23.8218 C   0  0  0  0  0  0
  -21.3709   -5.6868   24.9166 C   0  0  0  0  0  0
  -21.6041   -4.3114   24.7213 C   0  0  0  0  0  0
  -21.8779   -3.8222   23.4309 C   0  0  0  0  0  0
  -21.9214   -4.7083   22.3378 C   0  0  0  0  0  0
  -22.6932  -13.5832   21.2304 C   0  0  0  0  0  0
  -22.1666   -4.2235   21.0965 F   0  0  0  0  0  0
  -21.5611   -3.4608   25.7709 F   0  0  0  0  0  0
  -30.3675  -14.9496   20.0606 N   0  0  0  0  0  0
  -26.1259  -13.2691   20.0838 N   0  0  0  0  0  0
  -25.8364  -11.9613   20.5612 N   0  0  0  0  0  0
  -21.9944  -12.8382   22.0771 N   0  0  0  0  0  0
  -25.2002  -15.3906   20.3395 N   0  0  0  0  0  0
  -32.5007  -15.3287   20.2062 O   0  0  0  0  0  0
  -21.6916   -6.9116   21.4249 O   0  0  0  0  0  0
  -22.2270  -14.5925   20.7110 O   0  0  0  0  0  0
  -24.7069  -31.7669   23.1356 C   0  0  0  0  0  0
  -25.9540  -32.4291   23.7983 C   0  0  1  0  0  0
  -27.0458  -26.2996   20.3804 C   0  0  0  0  0  0
  -25.6024  -33.8146   24.1815 N   0  0  0  0  0  0
  -23.5408  -30.3652   21.4951 C   0  0  2  0  0  0
  -24.9769  -28.6387   20.1354 C   0  0  0  0  0  0
  -22.7849  -29.4131   22.4639 C   0  0  0  0  0  0
  -18.0335  -28.1433   22.8436 C   0  0  0  0  0  0
  -24.1490  -36.7074   23.2662 C   0  0  0  0  0  0
  -26.1298  -30.3706   21.4630 C   0  0  0  0  0  0
  -26.1592  -28.8926   20.8363 C   0  0  0  0  0  0
  -27.1804  -27.7614   20.9105 C   0  0  0  0  0  0
  -25.8845  -26.3646   19.5542 C   0  0  0  0  0  0
  -24.9084  -27.4133   19.4515 C   0  0  0  0  0  0
  -23.8122  -29.6550   20.1337 C   0  0  0  0  0  0
  -25.4154  -36.2798   24.0263 C   0  0  1  0  0  0
  -20.5981  -28.3796   23.1107 C   0  0  2  0  0  0
  -20.6794  -26.9437   22.5411 C   0  0  0  0  0  0
  -19.5776  -26.6357   21.5222 C   0  0  0  0  0  0
  -18.1955  -26.7952   22.1613 C   0  0  0  0  0  0
  -19.1606  -28.8950   23.2740 C   0  0  0  0  0  0
  -18.9508  -30.1528   23.8796 C   0  0  0  0  0  0
  -17.6496  -30.6611   24.0545 C   0  0  0  0  0  0
  -25.9158  -34.9190   23.4893 C   0  0  0  0  0  0
  -16.5384  -29.9089   23.6362 C   0  0  0  0  0  0
  -16.7313  -28.6515   23.0370 C   0  0  0  0  0  0
  -26.4636  -31.6470   25.0733 C   0  0  0  0  0  0
  -25.3617  -31.3858   26.1284 C   0  0  0  0  0  0
  -27.0628  -30.2774   24.6887 C   0  0  0  0  0  0
  -27.6037  -32.4422   25.7535 C   0  0  0  0  0  0
  -27.5553  -37.1690   24.8462 C   0  0  0  0  0  0
  -21.4478  -29.2983   22.3403 N   0  0  0  0  0  0
  -26.4253  -37.3591   23.9412 N   0  0  0  0  0  0
  -24.8213  -30.8791   22.0810 N   0  0  0  0  0  0
  -23.4188  -28.7757   23.3078 O   0  0  0  0  0  0
  -27.8175  -24.8561   20.5136 O   0  0  0  0  0  0
  -26.5828  -34.8815   22.4532 O   0  0  0  0  0  0
  -23.6047  -32.0928   23.6111 O   0  0  0  0  0  0
  -29.0325  -12.5775   22.1628 C   0  0  0  0  0  0
  -30.9620  -11.0728   20.5677 C   0  0  0  0  0  0
  -29.6526  -12.9945   19.0727 C   0  0  0  0  0  0
  -30.1582  -11.4067   21.9499 C   0  0  0  0  0  0
  -28.6237  -13.5951   20.9439 C   0  0  0  0  0  0
  -30.7724  -11.8619   19.1617 C   0  0  0  0  0  0
  -27.6804  -19.2043   21.2119 C   0  0  0  0  0  0
  -27.6978  -17.5488   21.4706 C   0  0  0  0  0  0
  -28.1343  -21.0693   20.7376 C   0  0  0  0  0  0
  -30.5764  -10.6056   23.1623 C   0  0  0  0  0  0
  -26.4106  -16.4294   23.6318 C   0  0  0  0  0  0
  -28.2847  -15.5665   21.5918 C   0  0  0  0  0  0
  -31.9784  -12.4249   18.3880 C   0  0  0  0  0  0
  -26.4998  -17.4751   22.4886 C   0  0  0  0  0  0
  -27.3945  -22.9764   20.7515 C   0  0  0  0  0  0
  -31.9694  -14.0451   18.2658 C   0  0  0  0  0  0
  -29.2709  -21.1212   20.2558 O   0  0  0  0  0  0
  -31.8970  -13.1477   20.9182 H   0  0  0  0  0  0
  -30.8979  -13.8739   21.9010 H   0  0  0  0  0  0
  -27.9652  -10.9806   20.8931 H   0  0  0  0  0  0
  -28.8872  -10.4509   19.6753 H   0  0  0  0  0  0
  -26.6986  -11.3489   18.5434 H   0  0  0  0  0  0
  -28.0196  -11.8683   17.8154 H   0  0  0  0  0  0
  -26.6438  -13.9826   18.1378 H   0  0  0  0  0  0
  -28.2127  -16.0841   19.3133 H   0  0  0  0  0  0
  -28.9703  -15.3210   18.1344 H   0  0  0  0  0  0
  -25.2830   -9.6427   22.4824 H   0  0  0  0  0  0
  -24.0337   -7.5185   22.7447 H   0  0  0  0  0  0
  -21.1135   -8.8970   19.8885 H   0  0  0  0  0  0
  -22.3654  -11.0068   19.6250 H   0  0  0  0  0  0
  -21.2151   -7.6253   23.9769 H   0  0  0  0  0  0
  -21.1564   -6.0586   25.9084 H   0  0  0  0  0  0
  -22.0477   -2.7694   23.2791 H   0  0  0  0  0  0
  -22.4011  -12.0198   22.5073 H   0  0  0  0  0  0
  -21.0411  -13.0898   22.2993 H   0  0  0  0  0  0
  -24.4751  -16.0429   20.6146 H   0  0  0  0  0  0
  -26.0441  -15.8349   20.0092 H   0  0  0  0  0  0
  -26.7628  -32.4658   23.0691 H   0  0  0  0  0  0
  -25.0037  -33.9158   24.9882 H   0  0  0  0  0  0
  -22.8831  -31.2122   21.2928 H   0  0  0  0  0  0
  -23.3790  -35.9360   23.3229 H   0  0  0  0  0  0
  -24.3550  -36.8850   22.2096 H   0  0  0  0  0  0
  -23.7208  -37.6199   23.6826 H   0  0  0  0  0  0
  -26.3707  -31.0597   20.6542 H   0  0  0  0  0  0
  -26.9743  -30.4503   22.1324 H   0  0  0  0  0  0
  -28.0614  -27.9557   21.5070 H   0  0  0  0  0  0
  -25.6440  -25.4622   19.0121 H   0  0  0  0  0  0
  -24.0317  -27.2177   18.8498 H   0  0  0  0  0  0
  -24.0476  -30.4118   19.3857 H   0  0  0  0  0  0
  -22.9039  -29.1671   19.7778 H   0  0  0  0  0  0
  -25.1369  -36.1519   25.0749 H   0  0  0  0  0  0
  -21.0026  -28.3424   24.1249 H   0  0  0  0  0  0
  -20.5652  -26.2409   23.3679 H   0  0  0  0  0  0
  -21.6650  -26.7359   22.1228 H   0  0  0  0  0  0
  -19.6924  -25.6241   21.1317 H   0  0  0  0  0  0
  -19.6731  -27.3116   20.6714 H   0  0  0  0  0  0
  -17.4224  -26.6691   21.4017 H   0  0  0  0  0  0
  -18.0336  -26.0130   22.9043 H   0  0  0  0  0  0
  -19.7983  -30.7368   24.2123 H   0  0  0  0  0  0
  -17.5044  -31.6282   24.5161 H   0  0  0  0  0  0
  -15.5381  -30.2956   23.7750 H   0  0  0  0  0  0
  -15.8708  -28.0807   22.7140 H   0  0  0  0  0  0
  -24.5840  -30.7189   25.7541 H   0  0  0  0  0  0
  -24.8779  -32.3098   26.4452 H   0  0  0  0  0  0
  -25.7711  -30.9165   27.0234 H   0  0  0  0  0  0
  -26.3386  -29.6244   24.2010 H   0  0  0  0  0  0
  -27.4031  -29.7409   25.5752 H   0  0  0  0  0  0
  -27.9394  -30.3817   24.0494 H   0  0  0  0  0  0
  -27.2548  -33.3819   26.1818 H   0  0  0  0  0  0
  -28.3973  -32.6827   25.0452 H   0  0  0  0  0  0
  -28.0575  -31.8778   26.5684 H   0  0  0  0  0  0
  -28.2494  -38.0053   24.7543 H   0  0  0  0  0  0
  -28.1122  -36.2573   24.6247 H   0  0  0  0  0  0
  -27.2277  -37.1267   25.8864 H   0  0  0  0  0  0
  -20.9837  -29.8633   21.6431 H   0  0  0  0  0  0
  -26.0047  -38.2613   24.1473 H   0  0  0  0  0  0
  -28.6819  -12.7948   23.1611 H   0  0  0  0  0  0
  -31.8037  -10.4009   20.6431 H   0  0  0  0  0  0
  -29.6056  -13.4047   18.0703 H   0  0  0  0  0  0
  -26.7028  -19.5189   21.5388 H   0  0  0  0  0  0
  -29.9558  -10.8269   24.0312 H   0  0  0  0  0  0
  -31.6164  -10.8217   23.4129 H   0  0  0  0  0  0
  -30.4952   -9.5395   22.9536 H   0  0  0  0  0  0
  -25.8982  -15.5176   23.3165 H   0  0  0  0  0  0
  -25.7950  -16.8221   24.4410 H   0  0  0  0  0  0
  -27.3734  -16.1765   24.0782 H   0  0  0  0  0  0
  -28.9358  -15.5993   22.4672 H   0  0  0  0  0  0
  -27.3435  -15.1616   21.9088 H   0  0  0  0  0  0
  -32.0000  -11.9734   17.3951 H   0  0  0  0  0  0
  -32.8930  -12.1034   18.8838 H   0  0  0  0  0  0
  -25.5458  -17.5452   21.9685 H   0  0  0  0  0  0
  -26.5432  -18.3603   23.1249 H   0  0  0  0  0  0
  -26.9690  -22.9999   21.7565 H   0  0  0  0  0  0
  -26.5241  -22.8658   20.1034 H   0  0  0  0  0  0
  -31.3550  -14.3619   17.4238 H   0  0  0  0  0  0
  -32.9724  -14.3431   17.9576 H   0  0  0  0  0  0
  1 25  1  0  0  0
  1 30  2  0  0  0
  1 86  1  0  0  0
  2  3  1  0  0  0
  2 25  1  0  0  0
  2 88  1  0  0  0
  2 89  1  0  0  0
  3  4  1  0  0  0
  3 90  1  0  0  0
  3 91  1  0  0  0
  4  5  1  0  0  0
  4 92  1  0  0  0
  4 93  1  0  0  0
  5  6  1  0  0  0
  5 26  1  0  0  0
  5 94  1  0  0  0
  6 25  1  0  0  0
  6 95  1  0  0  0
  6 96  1  0  0  0
  7  8  2  0  0  0
  7 26  1  0  0  0
  7 29  1  0  0  0
  8  9  1  0  0  0
  8 22  1  0  0  0
  9 10  1  0  0  0
  9 27  2  0  0  0
 10 11  2  0  0  0
 10 15  1  0  0  0
 11 12  1  0  0  0
 11 97  1  0  0  0
 12 13  2  0  0  0
 12 98  1  0  0  0
 13 14  1  0  0  0
 13 31  1  0  0  0
 14 15  2  0  0  0
 14 99  1  0  0  0
 15100  1  0  0  0
 16 17  2  0  0  0
 16 21  1  0  0  0
 16 31  1  0  0  0
 17 18  1  0  0  0
 17101  1  0  0  0
 18 19  2  0  0  0
 18102  1  0  0  0
 19 20  1  0  0  0
 19 24  1  0  0  0
 20 21  2  0  0  0
 20103  1  0  0  0
 21 23  1  0  0  0
 22 28  1  0  0  0
 22 32  2  0  0  0
 26 27  1  0  0  0
 28104  1  0  0  0
 28105  1  0  0  0
 29106  1  0  0  0
 29107  1  0  0  0
 33 34  1  0  0  0
 33 66  1  0  0  0
 33 70  2  0  0  0
 34 36  1  0  0  0
 34 59  1  0  0  0
 34108  1  0  0  0
 35 44  2  0  0  0
 35 45  1  0  0  0
 35 68  1  0  0  0
 36 56  1  0  0  0
 36109  1  0  0  0
 37 39  1  0  0  0
 37 47  1  0  0  0
 37 66  1  0  0  0
 37110  1  0  0  0
 38 43  2  0  0  0
 38 46  1  0  0  0
 38 47  1  0  0  0
 39 64  1  0  0  0
 39 67  2  0  0  0
 40 52  1  0  0  0
 40 53  2  0  0  0
 40 58  1  0  0  0
 41111  1  0  0  0
 41112  1  0  0  0
 41113  1  0  0  0
 41 48  1  0  0  0
 42 43  1  0  0  0
 42 66  1  0  0  0
 42114  1  0  0  0
 42115  1  0  0  0
 43 44  1  0  0  0
 44116  1  0  0  0
 45 46  2  0  0  0
 45117  1  0  0  0
 46118  1  0  0  0
 47119  1  0  0  0
 47120  1  0  0  0
 48 56  1  0  0  0
 48 65  1  0  0  0
 48121  1  0  0  0
 49 50  1  0  0  0
 49 53  1  0  0  0
 49 64  1  0  0  0
 49122  1  0  0  0
 50 51  1  0  0  0
 50123  1  0  0  0
 50124  1  0  0  0
 51 52  1  0  0  0
 51125  1  0  0  0
 51126  1  0  0  0
 52127  1  0  0  0
 52128  1  0  0  0
 53 54  1  0  0  0
 54 55  2  0  0  0
 54129  1  0  0  0
 55 57  1  0  0  0
 55130  1  0  0  0
 56 69  2  0  0  0
 57 58  2  0  0  0
 57131  1  0  0  0
 58132  1  0  0  0
 59 60  1  0  0  0
 59 61  1  0  0  0
 59 62  1  0  0  0
 60133  1  0  0  0
 60134  1  0  0  0
 60135  1  0  0  0
 61136  1  0  0  0
 61137  1  0  0  0
 61138  1  0  0  0
 62139  1  0  0  0
 62140  1  0  0  0
 62141  1  0  0  0
 63 65  1  0  0  0
 63142  1  0  0  0
 63143  1  0  0  0
 63144  1  0  0  0
 64145  1  0  0  0
 65146  1  0  0  0
 68 85  1  0  0  0
 71 74  2  0  0  0
 71 75  1  0  0  0
 71147  1  0  0  0
 72 74  1  0  0  0
 72 76  2  0  0  0
 72148  1  0  0  0
 73 75  2  0  0  0
 73 76  1  0  0  0
 73149  1  0  0  0
 74 80  1  0  0  0
 75 82  1  0  0  0
 76 83  1  0  0  0
 77 78  2  0  0  0
 77 79  1  0  0  0
 77150  1  0  0  0
 78 82  1  0  0  0
 78 84  1  0  0  0
 79 85  1  0  0  0
 79 87  2  0  0  0
 80151  1  0  0  0
 80152  1  0  0  0
 80153  1  0  0  0
 81 84  1  0  0  0
 81154  1  0  0  0
 81155  1  0  0  0
 81156  1  0  0  0
 82157  1  0  0  0
 82158  1  0  0  0
 83 86  1  0  0  0
 83159  1  0  0  0
 83160  1  0  0  0
 84161  1  0  0  0
 84162  1  0  0  0
 85163  1  0  0  0
 85164  1  0  0  0
 86165  1  0  0  0
 86166  1  0  0  0
M  ISO  4   1 100  68 101  85 101  86 100
M  END
> <chiral flag>
0

> <version>
0

> <s_m_source_file>
/data/baiqing/PycharmProjects/Reinvent-master-3.2/result/LINK_invent/BTK/process_docking_weight1_custom_product_contain_oxygen_bond_distance_aromatic_linkinvent_7_9_3/rearranged_h_0134.sdf

> <i_m_source_file_index>
4

> <r_mmod_Potential_Energy-OPLS-2005>
16469.88671875

> <r_mmod_Stretch_Energy-OPLS-2005>
8190.34375

> <r_mmod_Bend_Energy-OPLS-2005>
1575.17468261719

> <r_mmod_Torsional_Energy-OPLS-2005>
453.157531738281

> <r_mmod_Improper_Torsional_Energy-OPLS-2005>
48.3433723449707

> <r_mmod_Van_der_Waal_Energy-OPLS-2005>
3232.3466796875

> <r_mmod_Electrostatic_Energy-OPLS-2005>
-299.012237548828

> <r_mmod_Solvation_Energy-OPLS-2005>
-213.307006835938

> <b_mmod_Minimization_Converged-OPLS-2005>
0

> <r_mmod_RMS_Derivative-OPLS-2005>
10.0189943313599

$$$$
4
                    3D
 Structure written by MMmdl.
157165  0  0  1  0            999 V2000
  -30.6937  -14.4406   20.6297 C   0  0  0  0  0  0
  -30.4301  -12.3068   19.4071 C   0  0  0  0  0  0
  -29.4906  -12.5147   18.2007 C   0  0  0  0  0  0
  -28.0129  -12.3694   18.6160 C   0  0  0  0  0  0
  -27.6660  -13.1968   19.8818 C   0  0  2  0  0  0
  -28.7044  -12.9349   20.9941 C   0  0  0  0  0  0
  -25.2607  -13.8144   20.5670 C   0  0  0  0  0  0
  -24.1842  -13.0442   20.9167 C   0  0  0  0  0  0
  -24.6378  -11.6902   20.8736 C   0  0  0  0  0  0
  -23.9041  -10.4294   21.0416 C   0  0  0  0  0  0
  -24.3602   -9.4211   21.9193 C   0  0  0  0  0  0
  -23.6283   -8.2246   22.0753 C   0  0  0  0  0  0
  -22.4269   -8.0281   21.3547 C   0  0  0  0  0  0
  -21.9903   -9.0251   20.4646 C   0  0  0  0  0  0
  -22.7219  -10.2136   20.3062 C   0  0  0  0  0  0
  -21.6850   -6.0733   22.5278 C   0  0  0  0  0  0
  -21.4012   -6.5639   23.8211 C   0  0  0  0  0  0
  -21.3659   -5.6792   24.9172 C   0  0  0  0  0  0
  -21.6042   -4.3054   24.7225 C   0  0  0  0  0  0
  -21.8817   -3.8147   23.4347 C   0  0  0  0  0  0
  -21.9193   -4.6962   22.3403 C   0  0  0  0  0  0
  -22.7870  -13.5254   21.1845 C   0  0  0  0  0  0
  -22.1659   -4.2150   21.0978 F   0  0  0  0  0  0
  -21.5634   -3.4535   25.7739 F   0  0  0  0  0  0
  -30.0417  -13.2586   20.4594 N   0  0  0  0  0  0
  -26.3038  -12.9292   20.3394 N   0  0  0  0  0  0
  -25.9303  -11.6461   20.5780 N   0  0  0  0  0  0
  -22.0503  -12.8245   22.0397 N   0  0  0  0  0  0
  -25.4366  -15.1851   20.4043 N   0  0  0  0  0  0
  -31.7736  -14.6975   20.0892 O   0  0  0  0  0  0
  -21.6639   -6.8876   21.4241 O   0  0  0  0  0  0
  -22.3563  -14.5575   20.6710 O   0  0  0  0  0  0
  -24.6137  -31.8692   23.2097 C   0  0  0  0  0  0
  -25.9035  -32.4835   23.8391 C   0  0  1  0  0  0
  -27.2396  -27.4476   20.1004 C   0  0  0  0  0  0
  -25.5899  -33.8628   24.2333 N   0  0  0  0  0  0
  -23.4012  -30.4899   21.5507 C   0  0  2  0  0  0
  -24.8497  -28.9534   20.1185 C   0  0  0  0  0  0
  -22.7420  -29.4658   22.5011 C   0  0  0  0  0  0
  -18.0287  -28.1347   22.8498 C   0  0  0  0  0  0
  -24.1491  -36.7296   23.2644 C   0  0  0  0  0  0
  -25.9282  -30.8390   21.3598 C   0  0  0  0  0  0
  -26.0084  -29.4734   20.7097 C   0  0  0  0  0  0
  -27.2099  -28.7290   20.6944 C   0  0  0  0  0  0
  -26.0675  -26.9354   19.5077 C   0  0  0  0  0  0
  -24.8729  -27.6826   19.5150 C   0  0  0  0  0  0
  -23.6083  -29.8169   20.1671 C   0  0  0  0  0  0
  -25.4103  -36.3104   24.0353 C   0  0  1  0  0  0
  -20.5881  -28.3625   23.1329 C   0  0  2  0  0  0
  -20.6782  -26.9366   22.5411 C   0  0  0  0  0  0
  -19.5756  -26.6358   21.5220 C   0  0  0  0  0  0
  -18.1934  -26.7904   22.1622 C   0  0  0  0  0  0
  -19.1536  -28.8807   23.2915 C   0  0  0  0  0  0
  -18.9472  -30.1427   23.8896 C   0  0  0  0  0  0
  -17.6471  -30.6556   24.0558 C   0  0  0  0  0  0
  -25.9032  -34.9480   23.5138 C   0  0  0  0  0  0
  -16.5356  -29.9052   23.6326 C   0  0  0  0  0  0
  -16.7275  -28.6472   23.0341 C   0  0  0  0  0  0
  -26.4458  -31.6603   25.0711 C   0  0  0  0  0  0
  -25.3720  -31.3721   26.1464 C   0  0  0  0  0  0
  -27.0293  -30.3067   24.6045 C   0  0  0  0  0  0
  -27.6060  -32.4311   25.7463 C   0  0  0  0  0  0
  -27.5592  -37.1806   24.8477 C   0  0  0  0  0  0
  -21.4157  -29.3004   22.3754 N   0  0  0  0  0  0
  -26.4294  -37.3786   23.9424 N   0  0  0  0  0  0
  -24.6661  -31.0805   22.0988 N   0  0  0  0  0  0
  -23.4207  -28.8215   23.3054 O   0  0  0  0  0  0
  -28.4000  -26.7106   20.0740 O   0  0  0  0  0  0
  -26.5581  -34.8934   22.4691 O   0  0  0  0  0  0
  -23.5332  -32.1441   23.7498 O   0  0  0  0  0  0
  -29.3367  -18.8130   22.5023 C   0  0  0  0  0  0
  -31.0888  -17.5295   20.8179 C   0  0  0  0  0  0
  -29.2403  -17.4138   22.3764 C   0  0  0  0  0  0
  -30.1473  -16.7399   21.5245 C   0  0  0  0  0  0
  -30.3189  -19.5082   21.7759 C   0  0  0  0  0  0
  -29.1425  -24.3727   20.3238 C   0  0  0  0  0  0
  -28.1743  -16.6575   23.1531 C   0  0  0  0  0  0
  -30.5006  -21.0161   21.9567 C   0  0  0  0  0  0
  -29.8435  -23.4088   21.2958 C   0  0  0  0  0  0
  -28.3828  -25.5646   20.9390 C   0  0  0  0  0  0
  -29.7420  -21.9011   20.9408 C   0  0  0  0  0  0
  -31.1690  -18.8773   20.9354 N   0  0  0  0  0  0
  -30.0374  -15.3167   21.4128 N   0  0  0  0  0  0
  -29.1948  -24.1977   19.1010 O   0  0  0  0  0  0
  -31.4707  -12.4312   19.1015 H   0  0  0  0  0  0
  -30.3510  -11.2857   19.7828 H   0  0  0  0  0  0
  -29.7266  -11.7969   17.4139 H   0  0  0  0  0  0
  -29.6528  -13.5047   17.7716 H   0  0  0  0  0  0
  -27.8248  -11.3119   18.8040 H   0  0  0  0  0  0
  -27.3578  -12.6508   17.7908 H   0  0  0  0  0  0
  -27.7234  -14.2506   19.6073 H   0  0  0  0  0  0
  -28.6788  -11.8846   21.2890 H   0  0  0  0  0  0
  -28.4457  -13.4827   21.9012 H   0  0  0  0  0  0
  -25.2745   -9.5695   22.4767 H   0  0  0  0  0  0
  -23.9994   -7.4640   22.7467 H   0  0  0  0  0  0
  -21.0835   -8.8765   19.8948 H   0  0  0  0  0  0
  -22.3672  -10.9681   19.6172 H   0  0  0  0  0  0
  -21.1993   -7.6146   23.9719 H   0  0  0  0  0  0
  -21.1482   -6.0519   25.9078 H   0  0  0  0  0  0
  -22.0595   -2.7608   23.2845 H   0  0  0  0  0  0
  -22.4101  -11.9888   22.4768 H   0  0  0  0  0  0
  -21.1137  -13.1305   22.2625 H   0  0  0  0  0  0
  -24.6687  -15.8422   20.4913 H   0  0  0  0  0  0
  -26.2865  -15.6163   20.0639 H   0  0  0  0  0  0
  -26.7106  -32.5535   23.1154 H   0  0  0  0  0  0
  -25.0135  -33.9788   25.0539 H   0  0  0  0  0  0
  -22.6884  -31.3053   21.4093 H   0  0  0  0  0  0
  -23.3773  -35.9613   23.3296 H   0  0  0  0  0  0
  -24.3593  -36.8885   22.2058 H   0  0  0  0  0  0
  -23.7222  -37.6500   23.6635 H   0  0  0  0  0  0
  -26.0371  -31.6054   20.5908 H   0  0  0  0  0  0
  -26.8171  -30.8928   21.9757 H   0  0  0  0  0  0
  -28.1076  -29.1297   21.1439 H   0  0  0  0  0  0
  -26.0799  -25.9616   19.0376 H   0  0  0  0  0  0
  -23.9815  -27.2755   19.0569 H   0  0  0  0  0  0
  -23.7071  -30.5885   19.4022 H   0  0  0  0  0  0
  -22.7340  -29.2304   19.8790 H   0  0  0  0  0  0
  -25.1280  -36.1975   25.0849 H   0  0  0  0  0  0
  -20.9971  -28.3153   24.1444 H   0  0  0  0  0  0
  -20.5696  -26.2219   23.3581 H   0  0  0  0  0  0
  -21.6644  -26.7400   22.1196 H   0  0  0  0  0  0
  -19.6922  -25.6281   21.1218 H   0  0  0  0  0  0
  -19.6709  -27.3189   20.6773 H   0  0  0  0  0  0
  -17.4225  -26.6677   21.4003 H   0  0  0  0  0  0
  -18.0301  -26.0004   22.8977 H   0  0  0  0  0  0
  -19.7949  -30.7255   24.2230 H   0  0  0  0  0  0
  -17.5023  -31.6239   24.5149 H   0  0  0  0  0  0
  -15.5360  -30.2956   23.7649 H   0  0  0  0  0  0
  -15.8674  -28.0800   22.7034 H   0  0  0  0  0  0
  -24.5875  -30.7081   25.7808 H   0  0  0  0  0  0
  -24.8942  -32.2890   26.4934 H   0  0  0  0  0  0
  -25.8062  -30.8878   27.0221 H   0  0  0  0  0  0
  -26.2830  -29.6819   24.1119 H   0  0  0  0  0  0
  -27.4141  -29.7287   25.4463 H   0  0  0  0  0  0
  -27.8622  -30.4433   23.9138 H   0  0  0  0  0  0
  -27.2714  -33.3625   26.2035 H   0  0  0  0  0  0
  -28.3870  -32.6819   25.0272 H   0  0  0  0  0  0
  -28.0709  -31.8420   26.5371 H   0  0  0  0  0  0
  -28.2613  -38.0111   24.7520 H   0  0  0  0  0  0
  -28.1088  -36.2635   24.6292 H   0  0  0  0  0  0
  -27.2314  -37.1429   25.8887 H   0  0  0  0  0  0
  -20.9309  -29.8712   21.6972 H   0  0  0  0  0  0
  -26.0194  -38.2872   24.1417 H   0  0  0  0  0  0
  -28.6717  -19.3524   23.1648 H   0  0  0  0  0  0
  -31.8029  -17.1037   20.1323 H   0  0  0  0  0  0
  -27.5325  -17.3362   23.7139 H   0  0  0  0  0  0
  -28.6314  -15.9678   23.8633 H   0  0  0  0  0  0
  -27.5362  -16.0892   22.4759 H   0  0  0  0  0  0
  -31.5655  -21.2493   21.9180 H   0  0  0  0  0  0
  -30.1849  -21.2749   22.9686 H   0  0  0  0  0  0
  -29.4388  -23.5775   22.2936 H   0  0  0  0  0  0
  -30.8931  -23.7008   21.3408 H   0  0  0  0  0  0
  -28.8404  -25.8337   21.8915 H   0  0  0  0  0  0
  -27.3643  -25.2417   21.1595 H   0  0  0  0  0  0
  -28.6911  -21.6087   20.9258 H   0  0  0  0  0  0
  -30.1320  -21.7164   19.9389 H   0  0  0  0  0  0
  -29.2383  -14.9111   21.8737 H   0  0  0  0  0  0
  1 25  1  0  0  0
  1 30  2  0  0  0
  1 83  1  0  0  0
  2  3  1  0  0  0
  2 25  1  0  0  0
  2 85  1  0  0  0
  2 86  1  0  0  0
  3  4  1  0  0  0
  3 87  1  0  0  0
  3 88  1  0  0  0
  4  5  1  0  0  0
  4 89  1  0  0  0
  4 90  1  0  0  0
  5  6  1  0  0  0
  5 26  1  0  0  0
  5 91  1  0  0  0
  6 25  1  0  0  0
  6 92  1  0  0  0
  6 93  1  0  0  0
  7  8  2  0  0  0
  7 26  1  0  0  0
  7 29  1  0  0  0
  8  9  1  0  0  0
  8 22  1  0  0  0
  9 10  1  0  0  0
  9 27  2  0  0  0
 10 11  2  0  0  0
 10 15  1  0  0  0
 11 12  1  0  0  0
 11 94  1  0  0  0
 12 13  2  0  0  0
 12 95  1  0  0  0
 13 14  1  0  0  0
 13 31  1  0  0  0
 14 15  2  0  0  0
 14 96  1  0  0  0
 15 97  1  0  0  0
 16 17  2  0  0  0
 16 21  1  0  0  0
 16 31  1  0  0  0
 17 18  1  0  0  0
 17 98  1  0  0  0
 18 19  2  0  0  0
 18 99  1  0  0  0
 19 20  1  0  0  0
 19 24  1  0  0  0
 20 21  2  0  0  0
 20100  1  0  0  0
 21 23  1  0  0  0
 22 28  1  0  0  0
 22 32  2  0  0  0
 26 27  1  0  0  0
 28101  1  0  0  0
 28102  1  0  0  0
 29103  1  0  0  0
 29104  1  0  0  0
 33 34  1  0  0  0
 33 66  1  0  0  0
 33 70  2  0  0  0
 34 36  1  0  0  0
 34 59  1  0  0  0
 34105  1  0  0  0
 35 44  2  0  0  0
 35 45  1  0  0  0
 35 68  1  0  0  0
 36 56  1  0  0  0
 36106  1  0  0  0
 37 39  1  0  0  0
 37 47  1  0  0  0
 37 66  1  0  0  0
 37107  1  0  0  0
 38 43  2  0  0  0
 38 46  1  0  0  0
 38 47  1  0  0  0
 39 64  1  0  0  0
 39 67  2  0  0  0
 40 52  1  0  0  0
 40 53  2  0  0  0
 40 58  1  0  0  0
 41108  1  0  0  0
 41109  1  0  0  0
 41110  1  0  0  0
 41 48  1  0  0  0
 42 43  1  0  0  0
 42 66  1  0  0  0
 42111  1  0  0  0
 42112  1  0  0  0
 43 44  1  0  0  0
 44113  1  0  0  0
 45 46  2  0  0  0
 45114  1  0  0  0
 46115  1  0  0  0
 47116  1  0  0  0
 47117  1  0  0  0
 48 56  1  0  0  0
 48 65  1  0  0  0
 48118  1  0  0  0
 49 50  1  0  0  0
 49 53  1  0  0  0
 49 64  1  0  0  0
 49119  1  0  0  0
 50 51  1  0  0  0
 50120  1  0  0  0
 50121  1  0  0  0
 51 52  1  0  0  0
 51122  1  0  0  0
 51123  1  0  0  0
 52124  1  0  0  0
 52125  1  0  0  0
 53 54  1  0  0  0
 54 55  2  0  0  0
 54126  1  0  0  0
 55 57  1  0  0  0
 55127  1  0  0  0
 56 69  2  0  0  0
 57 58  2  0  0  0
 57128  1  0  0  0
 58129  1  0  0  0
 59 60  1  0  0  0
 59 61  1  0  0  0
 59 62  1  0  0  0
 60130  1  0  0  0
 60131  1  0  0  0
 60132  1  0  0  0
 61133  1  0  0  0
 61134  1  0  0  0
 61135  1  0  0  0
 62136  1  0  0  0
 62137  1  0  0  0
 62138  1  0  0  0
 63 65  1  0  0  0
 63139  1  0  0  0
 63140  1  0  0  0
 63141  1  0  0  0
 64142  1  0  0  0
 65143  1  0  0  0
 68 80  1  0  0  0
 71 73  2  0  0  0
 71 75  1  0  0  0
 71144  1  0  0  0
 72 74  2  0  0  0
 72 82  1  0  0  0
 72145  1  0  0  0
 73 74  1  0  0  0
 73 77  1  0  0  0
 74 83  1  0  0  0
 75 78  1  0  0  0
 75 82  2  0  0  0
 76 79  1  0  0  0
 76 80  1  0  0  0
 76 84  2  0  0  0
 77146  1  0  0  0
 77147  1  0  0  0
 77148  1  0  0  0
 78 81  1  0  0  0
 78149  1  0  0  0
 78150  1  0  0  0
 79 81  1  0  0  0
 79151  1  0  0  0
 79152  1  0  0  0
 80153  1  0  0  0
 80154  1  0  0  0
 81155  1  0  0  0
 81156  1  0  0  0
 83157  1  0  0  0
M  ISO  4   1 100  68 101  80 101  83 100
M  END
> <chiral flag>
0

> <version>
0

> <s_m_source_file>
/data/baiqing/PycharmProjects/Reinvent-master-3.2/result/LINK_invent/BTK/process_docking_weight1_custom_product_contain_oxygen_bond_distance_aromatic_linkinvent_7_9_3/rearranged_h_0134.sdf

> <i_m_source_file_index>
5

> <r_mmod_Potential_Energy-OPLS-2005>
-241.940338134766

> <r_mmod_Stretch_Energy-OPLS-2005>
36.385181427002

> <r_mmod_Bend_Energy-OPLS-2005>
95.8656311035156

> <r_mmod_Torsional_Energy-OPLS-2005>
225.395858764648

> <r_mmod_Improper_Torsional_Energy-OPLS-2005>
2.54859900474548

> <r_mmod_Van_der_Waal_Energy-OPLS-2005>
151.764907836914

> <r_mmod_Electrostatic_Energy-OPLS-2005>
-521.241394042969

> <r_mmod_Solvation_Energy-OPLS-2005>
-241.863189697266

> <b_mmod_Minimization_Converged-OPLS-2005>
0

> <r_mmod_RMS_Derivative-OPLS-2005>
1.83683133125305

$$$$
5
                    3D
 Structure written by MMmdl.
164172  0  0  1  0            999 V2000
  -30.6925  -14.4199   20.6829 C   0  0  0  0  0  0
  -30.4559  -12.3250   19.3784 C   0  0  0  0  0  0
  -29.4920  -12.5041   18.1867 C   0  0  0  0  0  0
  -28.0137  -12.3674   18.6062 C   0  0  0  0  0  0
  -27.6714  -13.1900   19.8742 C   0  0  2  0  0  0
  -28.7114  -12.8904   20.9741 C   0  0  0  0  0  0
  -25.2626  -13.8138   20.5583 C   0  0  0  0  0  0
  -24.1871  -13.0439   20.9139 C   0  0  0  0  0  0
  -24.6412  -11.6899   20.8731 C   0  0  0  0  0  0
  -23.9079  -10.4292   21.0406 C   0  0  0  0  0  0
  -24.3636   -9.4207   21.9191 C   0  0  0  0  0  0
  -23.6289   -8.2238   22.0761 C   0  0  0  0  0  0
  -22.4269   -8.0289   21.3543 C   0  0  0  0  0  0
  -21.9919   -9.0270   20.4649 C   0  0  0  0  0  0
  -22.7255  -10.2134   20.3054 C   0  0  0  0  0  0
  -21.6844   -6.0736   22.5283 C   0  0  0  0  0  0
  -21.4006   -6.5634   23.8215 C   0  0  0  0  0  0
  -21.3647   -5.6784   24.9173 C   0  0  0  0  0  0
  -21.6036   -4.3047   24.7223 C   0  0  0  0  0  0
  -21.8831   -3.8144   23.4341 C   0  0  0  0  0  0
  -21.9195   -4.6963   22.3398 C   0  0  0  0  0  0
  -22.7883  -13.5246   21.1810 C   0  0  0  0  0  0
  -22.1654   -4.2148   21.0976 F   0  0  0  0  0  0
  -21.5627   -3.4533   25.7730 F   0  0  0  0  0  0
  -30.0516  -13.2410   20.4555 N   0  0  0  0  0  0
  -26.3066  -12.9281   20.3330 N   0  0  0  0  0  0
  -25.9337  -11.6464   20.5771 N   0  0  0  0  0  0
  -22.0530  -12.8231   22.0365 N   0  0  0  0  0  0
  -25.4341  -15.1850   20.3899 N   0  0  0  0  0  0
  -31.7239  -14.7587   20.0931 O   0  0  0  0  0  0
  -21.6636   -6.8892   21.4248 O   0  0  0  0  0  0
  -22.3549  -14.5536   20.6647 O   0  0  0  0  0  0
  -24.6132  -31.8678   23.2107 C   0  0  0  0  0  0
  -25.9025  -32.4832   23.8420 C   0  0  1  0  0  0
  -27.2598  -27.4572   20.0825 C   0  0  0  0  0  0
  -25.5914  -33.8626   24.2348 N   0  0  0  0  0  0
  -23.4045  -30.4898   21.5517 C   0  0  2  0  0  0
  -24.8610  -28.9529   20.1322 C   0  0  0  0  0  0
  -22.7419  -29.4630   22.4992 C   0  0  0  0  0  0
  -18.0299  -28.1403   22.8477 C   0  0  0  0  0  0
  -24.1490  -36.7272   23.2638 C   0  0  0  0  0  0
  -25.9338  -30.8376   21.3670 C   0  0  0  0  0  0
  -26.0200  -29.4678   20.7280 C   0  0  0  0  0  0
  -27.2238  -28.7254   20.7168 C   0  0  0  0  0  0
  -26.0823  -26.9510   19.5019 C   0  0  0  0  0  0
  -24.8832  -27.6850   19.5240 C   0  0  0  0  0  0
  -23.6231  -29.8213   20.1710 C   0  0  0  0  0  0
  -25.4097  -36.3078   24.0356 C   0  0  1  0  0  0
  -20.5872  -28.3648   23.1326 C   0  0  2  0  0  0
  -20.6795  -26.9403   22.5404 C   0  0  0  0  0  0
  -19.5776  -26.6397   21.5216 C   0  0  0  0  0  0
  -18.1942  -26.7941   22.1619 C   0  0  0  0  0  0
  -19.1548  -28.8843   23.2906 C   0  0  0  0  0  0
  -18.9488  -30.1442   23.8941 C   0  0  0  0  0  0
  -17.6509  -30.6598   24.0599 C   0  0  0  0  0  0
  -25.9042  -34.9483   23.5131 C   0  0  0  0  0  0
  -16.5381  -29.9119   23.6345 C   0  0  0  0  0  0
  -16.7294  -28.6552   23.0324 C   0  0  0  0  0  0
  -26.4494  -31.6600   25.0724 C   0  0  0  0  0  0
  -25.3793  -31.3721   26.1493 C   0  0  0  0  0  0
  -27.0321  -30.3072   24.6021 C   0  0  0  0  0  0
  -27.6072  -32.4325   25.7461 C   0  0  0  0  0  0
  -27.5579  -37.1757   24.8464 C   0  0  0  0  0  0
  -21.4131  -29.3044   22.3762 N   0  0  0  0  0  0
  -26.4257  -37.3777   23.9461 N   0  0  0  0  0  0
  -24.6683  -31.0787   22.1016 N   0  0  0  0  0  0
  -23.4238  -28.8128   23.2959 O   0  0  0  0  0  0
  -28.3778  -26.6681   19.9303 O   0  0  0  0  0  0
  -26.5567  -34.8931   22.4664 O   0  0  0  0  0  0
  -23.5333  -32.1395   23.7508 O   0  0  0  0  0  0
  -28.7251  -18.3302   22.9723 C   0  0  0  0  0  0
  -29.5735  -19.2934   22.4027 C   0  0  0  0  0  0
  -30.7865  -17.5273   21.2411 C   0  0  0  0  0  0
  -28.8906  -16.9633   22.6750 C   0  0  0  0  0  0
  -29.9593  -16.5438   21.8428 C   0  0  0  0  0  0
  -30.5860  -18.9064   21.4955 C   0  0  0  0  0  0
  -30.8986  -23.1869   20.2463 C   0  0  0  0  0  0
  -30.7171  -22.1912   21.1353 C   0  0  0  0  0  0
  -27.8578  -15.9765   23.1999 C   0  0  0  0  0  0
  -31.7026  -25.6914   21.4058 C   0  0  0  0  0  0
  -29.9460  -24.3662   20.0840 C   0  0  0  0  0  0
  -31.6985  -21.0576   21.4106 C   0  0  0  0  0  0
  -29.5098  -26.8224   20.7713 C   0  0  0  0  0  0
  -30.5735  -25.7620   20.3611 C   0  0  1  0  0  0
  -30.1175  -15.1381   21.6618 N   0  0  0  0  0  0
  -31.3593  -19.8109   20.7993 O   0  0  0  0  0  0
  -31.4803  -12.5096   19.0461 H   0  0  0  0  0  0
  -30.4448  -11.2955   19.7392 H   0  0  0  0  0  0
  -29.7220  -11.7717   17.4105 H   0  0  0  0  0  0
  -29.6506  -13.4838   17.7380 H   0  0  0  0  0  0
  -27.8169  -11.3097   18.7863 H   0  0  0  0  0  0
  -27.3623  -12.6587   17.7803 H   0  0  0  0  0  0
  -27.7391  -14.2467   19.6131 H   0  0  0  0  0  0
  -28.6950  -11.8269   21.2162 H   0  0  0  0  0  0
  -28.4386  -13.3873   21.9039 H   0  0  0  0  0  0
  -25.2777   -9.5643   22.4756 H   0  0  0  0  0  0
  -23.9980   -7.4625   22.7465 H   0  0  0  0  0  0
  -21.0851   -8.8794   19.8948 H   0  0  0  0  0  0
  -22.3742  -10.9672   19.6143 H   0  0  0  0  0  0
  -21.1997   -7.6140   23.9714 H   0  0  0  0  0  0
  -21.1442   -6.0509   25.9069 H   0  0  0  0  0  0
  -22.0624   -2.7612   23.2844 H   0  0  0  0  0  0
  -22.4131  -11.9913   22.4780 H   0  0  0  0  0  0
  -21.1140  -13.1270   22.2573 H   0  0  0  0  0  0
  -24.6827  -15.8518   20.5200 H   0  0  0  0  0  0
  -26.2942  -15.6169   20.0728 H   0  0  0  0  0  0
  -26.7095  -32.5568   23.1191 H   0  0  0  0  0  0
  -25.0177  -33.9823   25.0570 H   0  0  0  0  0  0
  -22.6895  -31.3044   21.4096 H   0  0  0  0  0  0
  -23.3784  -35.9573   23.3278 H   0  0  0  0  0  0
  -24.3605  -36.8872   22.2062 H   0  0  0  0  0  0
  -23.7221  -37.6472   23.6637 H   0  0  0  0  0  0
  -26.0313  -31.5951   20.5893 H   0  0  0  0  0  0
  -26.8294  -30.9025   21.9736 H   0  0  0  0  0  0
  -28.1150  -29.1331   21.1678 H   0  0  0  0  0  0
  -26.0988  -25.9782   19.0255 H   0  0  0  0  0  0
  -23.9921  -27.2773   19.0679 H   0  0  0  0  0  0
  -23.7450  -30.5975   19.4150 H   0  0  0  0  0  0
  -22.7487  -29.2478   19.8651 H   0  0  0  0  0  0
  -25.1266  -36.1931   25.0848 H   0  0  0  0  0  0
  -20.9974  -28.3201   24.1448 H   0  0  0  0  0  0
  -20.5706  -26.2273   23.3570 H   0  0  0  0  0  0
  -21.6652  -26.7431   22.1211 H   0  0  0  0  0  0
  -19.6914  -25.6323   21.1225 H   0  0  0  0  0  0
  -19.6745  -27.3243   20.6784 H   0  0  0  0  0  0
  -17.4219  -26.6738   21.4014 H   0  0  0  0  0  0
  -18.0308  -26.0077   22.9007 H   0  0  0  0  0  0
  -19.7976  -30.7235   24.2330 H   0  0  0  0  0  0
  -17.5085  -31.6267   24.5206 H   0  0  0  0  0  0
  -15.5402  -30.3070   23.7625 H   0  0  0  0  0  0
  -15.8681  -28.0913   22.6975 H   0  0  0  0  0  0
  -24.5961  -30.7061   25.7845 H   0  0  0  0  0  0
  -24.9015  -32.2908   26.4924 H   0  0  0  0  0  0
  -25.8173  -30.8925   27.0253 H   0  0  0  0  0  0
  -26.2825  -29.6808   24.1178 H   0  0  0  0  0  0
  -27.4295  -29.7298   25.4368 H   0  0  0  0  0  0
  -27.8549  -30.4467   23.9005 H   0  0  0  0  0  0
  -27.2710  -33.3641   26.2012 H   0  0  0  0  0  0
  -28.3873  -32.6846   25.0272 H   0  0  0  0  0  0
  -28.0733  -31.8483   26.5394 H   0  0  0  0  0  0
  -28.2525  -38.0121   24.7599 H   0  0  0  0  0  0
  -28.1156  -36.2665   24.6165 H   0  0  0  0  0  0
  -27.2343  -37.1236   25.8875 H   0  0  0  0  0  0
  -20.9262  -29.8899   21.7114 H   0  0  0  0  0  0
  -26.0149  -38.2822   24.1603 H   0  0  0  0  0  0
  -27.9169  -18.6570   23.6138 H   0  0  0  0  0  0
  -29.3866  -20.3293   22.6377 H   0  0  0  0  0  0
  -31.5837  -17.2449   20.5696 H   0  0  0  0  0  0
  -31.7741  -23.1882   19.6098 H   0  0  0  0  0  0
  -29.8228  -22.2051   21.7404 H   0  0  0  0  0  0
  -27.1826  -16.4414   23.9188 H   0  0  0  0  0  0
  -28.3217  -15.1218   23.6868 H   0  0  0  0  0  0
  -27.2452  -15.6114   22.3756 H   0  0  0  0  0  0
  -32.5925  -25.2126   20.9963 H   0  0  0  0  0  0
  -31.3922  -25.1169   22.2786 H   0  0  0  0  0  0
  -31.9938  -26.6862   21.7424 H   0  0  0  0  0  0
  -29.1053  -24.2203   20.7592 H   0  0  0  0  0  0
  -29.5294  -24.3441   19.0754 H   0  0  0  0  0  0
  -31.8458  -20.9450   22.4866 H   0  0  0  0  0  0
  -32.6701  -21.3446   21.0082 H   0  0  0  0  0  0
  -29.9241  -27.8283   20.6795 H   0  0  0  0  0  0
  -29.2118  -26.6824   21.8120 H   0  0  0  0  0  0
  -31.0257  -26.0952   19.4241 H   0  0  0  0  0  0
  -29.4386  -14.5917   22.1673 H   0  0  0  0  0  0
  1 25  1  0  0  0
  1 30  2  0  0  0
  1 85  1  0  0  0
  2  3  1  0  0  0
  2 25  1  0  0  0
  2 87  1  0  0  0
  2 88  1  0  0  0
  3  4  1  0  0  0
  3 89  1  0  0  0
  3 90  1  0  0  0
  4  5  1  0  0  0
  4 91  1  0  0  0
  4 92  1  0  0  0
  5  6  1  0  0  0
  5 26  1  0  0  0
  5 93  1  0  0  0
  6 25  1  0  0  0
  6 94  1  0  0  0
  6 95  1  0  0  0
  7  8  2  0  0  0
  7 26  1  0  0  0
  7 29  1  0  0  0
  8  9  1  0  0  0
  8 22  1  0  0  0
  9 10  1  0  0  0
  9 27  2  0  0  0
 10 11  2  0  0  0
 10 15  1  0  0  0
 11 12  1  0  0  0
 11 96  1  0  0  0
 12 13  2  0  0  0
 12 97  1  0  0  0
 13 14  1  0  0  0
 13 31  1  0  0  0
 14 15  2  0  0  0
 14 98  1  0  0  0
 15 99  1  0  0  0
 16 17  2  0  0  0
 16 21  1  0  0  0
 16 31  1  0  0  0
 17 18  1  0  0  0
 17100  1  0  0  0
 18 19  2  0  0  0
 18101  1  0  0  0
 19 20  1  0  0  0
 19 24  1  0  0  0
 20 21  2  0  0  0
 20102  1  0  0  0
 21 23  1  0  0  0
 22 28  1  0  0  0
 22 32  2  0  0  0
 26 27  1  0  0  0
 28103  1  0  0  0
 28104  1  0  0  0
 29105  1  0  0  0
 29106  1  0  0  0
 33 34  1  0  0  0
 33 66  1  0  0  0
 33 70  2  0  0  0
 34 36  1  0  0  0
 34 59  1  0  0  0
 34107  1  0  0  0
 35 44  2  0  0  0
 35 45  1  0  0  0
 35 68  1  0  0  0
 36 56  1  0  0  0
 36108  1  0  0  0
 37 39  1  0  0  0
 37 47  1  0  0  0
 37 66  1  0  0  0
 37109  1  0  0  0
 38 43  2  0  0  0
 38 46  1  0  0  0
 38 47  1  0  0  0
 39 64  1  0  0  0
 39 67  2  0  0  0
 40 52  1  0  0  0
 40 53  2  0  0  0
 40 58  1  0  0  0
 41110  1  0  0  0
 41111  1  0  0  0
 41112  1  0  0  0
 41 48  1  0  0  0
 42 43  1  0  0  0
 42 66  1  0  0  0
 42113  1  0  0  0
 42114  1  0  0  0
 43 44  1  0  0  0
 44115  1  0  0  0
 45 46  2  0  0  0
 45116  1  0  0  0
 46117  1  0  0  0
 47118  1  0  0  0
 47119  1  0  0  0
 48 56  1  0  0  0
 48 65  1  0  0  0
 48120  1  0  0  0
 49 50  1  0  0  0
 49 53  1  0  0  0
 49 64  1  0  0  0
 49121  1  0  0  0
 50 51  1  0  0  0
 50122  1  0  0  0
 50123  1  0  0  0
 51 52  1  0  0  0
 51124  1  0  0  0
 51125  1  0  0  0
 52126  1  0  0  0
 52127  1  0  0  0
 53 54  1  0  0  0
 54 55  2  0  0  0
 54128  1  0  0  0
 55 57  1  0  0  0
 55129  1  0  0  0
 56 69  2  0  0  0
 57 58  2  0  0  0
 57130  1  0  0  0
 58131  1  0  0  0
 59 60  1  0  0  0
 59 61  1  0  0  0
 59 62  1  0  0  0
 60132  1  0  0  0
 60133  1  0  0  0
 60134  1  0  0  0
 61135  1  0  0  0
 61136  1  0  0  0
 61137  1  0  0  0
 62138  1  0  0  0
 62139  1  0  0  0
 62140  1  0  0  0
 63 65  1  0  0  0
 63141  1  0  0  0
 63142  1  0  0  0
 63143  1  0  0  0
 64144  1  0  0  0
 65145  1  0  0  0
 68 83  1  0  0  0
 71 72  2  0  0  0
 71 74  1  0  0  0
 71146  1  0  0  0
 72 76  1  0  0  0
 72147  1  0  0  0
 73 75  1  0  0  0
 73 76  2  0  0  0
 73148  1  0  0  0
 74 75  2  0  0  0
 74 79  1  0  0  0
 75 85  1  0  0  0
 76 86  1  0  0  0
 77 78  2  0  0  0
 77 81  1  0  0  0
 77149  1  0  0  0
 78 82  1  0  0  0
 78150  1  0  0  0
 79151  1  0  0  0
 79152  1  0  0  0
 79153  1  0  0  0
 80154  1  0  0  0
 80155  1  0  0  0
 80156  1  0  0  0
 80 84  1  0  0  0
 81 84  1  0  0  0
 81157  1  0  0  0
 81158  1  0  0  0
 82 86  1  0  0  0
 82159  1  0  0  0
 82160  1  0  0  0
 83 84  1  0  0  0
 83161  1  0  0  0
 83162  1  0  0  0
 84163  1  0  0  0
 85164  1  0  0  0
M  ISO  4   1 100  68 101  83 101  85 100
M  END
> <chiral flag>
0

> <version>
0

> <s_m_source_file>
/data/baiqing/PycharmProjects/Reinvent-master-3.2/result/LINK_invent/BTK/process_docking_weight1_custom_product_contain_oxygen_bond_distance_aromatic_linkinvent_7_9_3/rearranged_h_0134.sdf

> <i_m_source_file_index>
6

> <r_mmod_Potential_Energy-OPLS-2005>
-21.2082118988037

> <r_mmod_Stretch_Energy-OPLS-2005>
36.6028747558594

> <r_mmod_Bend_Energy-OPLS-2005>
121.985626220703

> <r_mmod_Torsional_Energy-OPLS-2005>
225.040954589844

> <r_mmod_Improper_Torsional_Energy-OPLS-2005>
3.91035938262939

> <r_mmod_Van_der_Waal_Energy-OPLS-2005>
158.045837402344

> <r_mmod_Electrostatic_Energy-OPLS-2005>
-374.377563476562

> <r_mmod_Solvation_Energy-OPLS-2005>
-203.780151367188

> <b_mmod_Minimization_Converged-OPLS-2005>
0

> <r_mmod_RMS_Derivative-OPLS-2005>
4.85347366333008

$$$$
6
                    3D
 Structure written by MMmdl.
159167  0  0  1  0            999 V2000
  -30.7189  -14.4217   20.6360 C   0  0  0  0  0  0
  -30.4272  -12.2980   19.4051 C   0  0  0  0  0  0
  -29.4908  -12.5064   18.1971 C   0  0  0  0  0  0
  -28.0130  -12.3665   18.6134 C   0  0  0  0  0  0
  -27.6651  -13.1977   19.8775 C   0  0  2  0  0  0
  -28.7043  -12.9439   20.9912 C   0  0  0  0  0  0
  -25.2607  -13.8145   20.5669 C   0  0  0  0  0  0
  -24.1841  -13.0440   20.9165 C   0  0  0  0  0  0
  -24.6377  -11.6902   20.8733 C   0  0  0  0  0  0
  -23.9046  -10.4292   21.0415 C   0  0  0  0  0  0
  -24.3606   -9.4207   21.9188 C   0  0  0  0  0  0
  -23.6278   -8.2247   22.0757 C   0  0  0  0  0  0
  -22.4257   -8.0288   21.3555 C   0  0  0  0  0  0
  -21.9890   -9.0263   20.4657 C   0  0  0  0  0  0
  -22.7221  -10.2139   20.3062 C   0  0  0  0  0  0
  -21.6846   -6.0734   22.5286 C   0  0  0  0  0  0
  -21.4011   -6.5639   23.8219 C   0  0  0  0  0  0
  -21.3655   -5.6793   24.9181 C   0  0  0  0  0  0
  -21.6043   -4.3056   24.7229 C   0  0  0  0  0  0
  -21.8819   -3.8147   23.4350 C   0  0  0  0  0  0
  -21.9187   -4.6961   22.3406 C   0  0  0  0  0  0
  -22.7865  -13.5256   21.1840 C   0  0  0  0  0  0
  -22.1659   -4.2151   21.0980 F   0  0  0  0  0  0
  -21.5625   -3.4535   25.7739 F   0  0  0  0  0  0
  -30.0403  -13.2576   20.4495 N   0  0  0  0  0  0
  -26.3033  -12.9294   20.3368 N   0  0  0  0  0  0
  -25.9302  -11.6467   20.5759 N   0  0  0  0  0  0
  -22.0506  -12.8260   22.0406 N   0  0  0  0  0  0
  -25.4356  -15.1859   20.4084 N   0  0  0  0  0  0
  -31.8017  -14.6696   20.0948 O   0  0  0  0  0  0
  -21.6629   -6.8881   21.4249 O   0  0  0  0  0  0
  -22.3560  -14.5571   20.6693 O   0  0  0  0  0  0
  -24.6133  -31.8693   23.2111 C   0  0  0  0  0  0
  -25.9023  -32.4832   23.8409 C   0  0  1  0  0  0
  -27.2355  -27.4400   20.0795 C   0  0  0  0  0  0
  -25.5870  -33.8634   24.2328 N   0  0  0  0  0  0
  -23.4007  -30.4943   21.5515 C   0  0  2  0  0  0
  -24.8450  -28.9602   20.1164 C   0  0  0  0  0  0
  -22.7399  -29.4668   22.4989 C   0  0  0  0  0  0
  -18.0270  -28.1383   22.8499 C   0  0  0  0  0  0
  -24.1480  -36.7330   23.2641 C   0  0  0  0  0  0
  -25.9303  -30.8330   21.3650 C   0  0  0  0  0  0
  -26.0055  -29.4676   20.7134 C   0  0  0  0  0  0
  -27.2000  -28.7113   20.6984 C   0  0  0  0  0  0
  -26.0481  -26.9434   19.4889 C   0  0  0  0  0  0
  -24.8597  -27.6957   19.5063 C   0  0  0  0  0  0
  -23.6090  -29.8295   20.1654 C   0  0  0  0  0  0
  -25.4097  -36.3125   24.0338 C   0  0  1  0  0  0
  -20.5861  -28.3671   23.1322 C   0  0  2  0  0  0
  -20.6755  -26.9409   22.5421 C   0  0  0  0  0  0
  -19.5737  -26.6400   21.5213 C   0  0  0  0  0  0
  -18.1918  -26.7930   22.1633 C   0  0  0  0  0  0
  -19.1521  -28.8840   23.2913 C   0  0  0  0  0  0
  -18.9453  -30.1441   23.8932 C   0  0  0  0  0  0
  -17.6456  -30.6590   24.0575 C   0  0  0  0  0  0
  -25.9026  -34.9486   23.5140 C   0  0  0  0  0  0
  -16.5344  -29.9101   23.6320 C   0  0  0  0  0  0
  -16.7259  -28.6514   23.0346 C   0  0  0  0  0  0
  -26.4459  -31.6604   25.0731 C   0  0  0  0  0  0
  -25.3734  -31.3703   26.1488 C   0  0  0  0  0  0
  -27.0278  -30.3044   24.6097 C   0  0  0  0  0  0
  -27.6048  -32.4318   25.7476 C   0  0  0  0  0  0
  -27.5574  -37.1817   24.8463 C   0  0  0  0  0  0
  -21.4131  -29.3042   22.3726 N   0  0  0  0  0  0
  -26.4289  -37.3801   23.9413 N   0  0  0  0  0  0
  -24.6664  -31.0798   22.1012 N   0  0  0  0  0  0
  -23.4176  -28.8208   23.3016 O   0  0  0  0  0  0
  -28.4264  -26.7357   20.0803 O   0  0  0  0  0  0
  -26.5615  -34.8931   22.4716 O   0  0  0  0  0  0
  -23.5328  -32.1449   23.7511 O   0  0  0  0  0  0
  -31.5988  -18.0656   23.4282 C   0  0  0  0  0  0
  -31.2497  -19.1916   22.6583 C   0  0  0  0  0  0
  -30.1952  -17.7372   21.0176 C   0  0  0  0  0  0
  -31.2346  -16.7696   23.0108 C   0  0  0  0  0  0
  -30.5406  -16.6025   21.7911 C   0  0  0  0  0  0
  -30.5319  -19.0431   21.4454 C   0  0  0  0  0  0
  -29.8215  -22.4982   20.1968 C   0  0  0  0  0  0
  -31.5784  -15.5757   23.8854 C   0  0  0  0  0  0
  -30.2500  -23.9511   20.4682 C   0  0  0  0  0  0
  -30.3541  -21.4302   21.1657 C   0  0  0  0  0  0
  -29.9335  -24.9585   19.3358 C   0  0  0  0  0  0
  -28.4978  -25.5196   19.3295 C   0  0  0  0  0  0
  -30.0826  -15.3159   21.4089 N   0  0  0  0  0  0
  -29.0889  -22.2050   19.2451 O   0  0  0  0  0  0
  -30.1281  -20.1078   20.6605 O   0  0  0  0  0  0
  -31.4703  -12.4088   19.1015 H   0  0  0  0  0  0
  -30.3391  -11.2796   19.7876 H   0  0  0  0  0  0
  -29.7253  -11.7853   17.4125 H   0  0  0  0  0  0
  -29.6591  -13.4934   17.7636 H   0  0  0  0  0  0
  -27.8224  -11.3099   18.8038 H   0  0  0  0  0  0
  -27.3609  -12.6467   17.7854 H   0  0  0  0  0  0
  -27.7207  -14.2498   19.5980 H   0  0  0  0  0  0
  -28.6773  -11.8962   21.2951 H   0  0  0  0  0  0
  -28.4531  -13.5029   21.8933 H   0  0  0  0  0  0
  -25.2763   -9.5667   22.4748 H   0  0  0  0  0  0
  -23.9993   -7.4625   22.7456 H   0  0  0  0  0  0
  -21.0829   -8.8781   19.8956 H   0  0  0  0  0  0
  -22.3694  -10.9678   19.6160 H   0  0  0  0  0  0
  -21.2014   -7.6149   23.9726 H   0  0  0  0  0  0
  -21.1472   -6.0521   25.9085 H   0  0  0  0  0  0
  -22.0599   -2.7608   23.2850 H   0  0  0  0  0  0
  -22.4105  -11.9911   22.4794 H   0  0  0  0  0  0
  -21.1128  -13.1301   22.2626 H   0  0  0  0  0  0
  -24.6756  -15.8478   20.5197 H   0  0  0  0  0  0
  -26.2967  -15.6211   20.0996 H   0  0  0  0  0  0
  -26.7092  -32.5541   23.1172 H   0  0  0  0  0  0
  -24.9960  -33.9806   25.0428 H   0  0  0  0  0  0
  -22.6896  -31.3114   21.4143 H   0  0  0  0  0  0
  -23.3729  -35.9676   23.3321 H   0  0  0  0  0  0
  -24.3571  -36.8934   22.2052 H   0  0  0  0  0  0
  -23.7247  -37.6547   23.6646 H   0  0  0  0  0  0
  -26.0410  -31.5972   20.5943 H   0  0  0  0  0  0
  -26.8187  -30.8891   21.9817 H   0  0  0  0  0  0
  -28.0978  -29.1030   21.1560 H   0  0  0  0  0  0
  -26.0104  -25.9772   19.0069 H   0  0  0  0  0  0
  -23.9645  -27.2971   19.0482 H   0  0  0  0  0  0
  -23.7222  -30.6064   19.4086 H   0  0  0  0  0  0
  -22.7310  -29.2542   19.8666 H   0  0  0  0  0  0
  -25.1270  -36.2003   25.0831 H   0  0  0  0  0  0
  -20.9957  -28.3234   24.1441 H   0  0  0  0  0  0
  -20.5646  -26.2282   23.3608 H   0  0  0  0  0  0
  -21.6627  -26.7447   22.1223 H   0  0  0  0  0  0
  -19.6899  -25.6319   21.1227 H   0  0  0  0  0  0
  -19.6670  -27.3223   20.6753 H   0  0  0  0  0  0
  -17.4182  -26.6674   21.4042 H   0  0  0  0  0  0
  -18.0328  -26.0069   22.9029 H   0  0  0  0  0  0
  -19.7927  -30.7248   24.2323 H   0  0  0  0  0  0
  -17.5012  -31.6272   24.5181 H   0  0  0  0  0  0
  -15.5346  -30.3024   23.7617 H   0  0  0  0  0  0
  -15.8657  -28.0848   22.7043 H   0  0  0  0  0  0
  -24.5897  -30.7061   25.7825 H   0  0  0  0  0  0
  -24.8933  -32.2856   26.4962 H   0  0  0  0  0  0
  -25.8091  -30.8856   27.0234 H   0  0  0  0  0  0
  -26.2817  -29.6821   24.1141 H   0  0  0  0  0  0
  -27.4037  -29.7267   25.4551 H   0  0  0  0  0  0
  -27.8660  -30.4358   23.9249 H   0  0  0  0  0  0
  -27.2676  -33.3601   26.2098 H   0  0  0  0  0  0
  -28.3820  -32.6908   25.0274 H   0  0  0  0  0  0
  -28.0757  -31.8421   26.5351 H   0  0  0  0  0  0
  -28.2609  -38.0098   24.7497 H   0  0  0  0  0  0
  -28.1059  -36.2636   24.6302 H   0  0  0  0  0  0
  -27.2306  -37.1485   25.8872 H   0  0  0  0  0  0
  -20.9281  -29.8792   21.6983 H   0  0  0  0  0  0
  -26.0186  -38.2889   24.1402 H   0  0  0  0  0  0
  -32.1355  -18.2093   24.3558 H   0  0  0  0  0  0
  -31.5414  -20.1613   23.0343 H   0  0  0  0  0  0
  -29.6421  -17.6117   20.0981 H   0  0  0  0  0  0
  -32.0738  -15.8829   24.8060 H   0  0  0  0  0  0
  -32.2444  -14.8936   23.3563 H   0  0  0  0  0  0
  -30.6759  -15.0283   24.1590 H   0  0  0  0  0  0
  -31.3293  -23.9343   20.6216 H   0  0  0  0  0  0
  -29.8118  -24.2857   21.4086 H   0  0  0  0  0  0
  -29.8527  -21.5548   22.1262 H   0  0  0  0  0  0
  -31.4210  -21.5974   21.3135 H   0  0  0  0  0  0
  -30.1251  -24.4794   18.3743 H   0  0  0  0  0  0
  -30.6398  -25.7875   19.3794 H   0  0  0  0  0  0
  -27.8006  -24.7766   19.7206 H   0  0  0  0  0  0
  -28.2127  -25.7277   18.2970 H   0  0  0  0  0  0
  -29.2036  -15.0124   21.7986 H   0  0  0  0  0  0
  1 25  1  0  0  0
  1 30  2  0  0  0
  1 83  1  0  0  0
  2  3  1  0  0  0
  2 25  1  0  0  0
  2 86  1  0  0  0
  2 87  1  0  0  0
  3  4  1  0  0  0
  3 88  1  0  0  0
  3 89  1  0  0  0
  4  5  1  0  0  0
  4 90  1  0  0  0
  4 91  1  0  0  0
  5  6  1  0  0  0
  5 26  1  0  0  0
  5 92  1  0  0  0
  6 25  1  0  0  0
  6 93  1  0  0  0
  6 94  1  0  0  0
  7  8  2  0  0  0
  7 26  1  0  0  0
  7 29  1  0  0  0
  8  9  1  0  0  0
  8 22  1  0  0  0
  9 10  1  0  0  0
  9 27  2  0  0  0
 10 11  2  0  0  0
 10 15  1  0  0  0
 11 12  1  0  0  0
 11 95  1  0  0  0
 12 13  2  0  0  0
 12 96  1  0  0  0
 13 14  1  0  0  0
 13 31  1  0  0  0
 14 15  2  0  0  0
 14 97  1  0  0  0
 15 98  1  0  0  0
 16 17  2  0  0  0
 16 21  1  0  0  0
 16 31  1  0  0  0
 17 18  1  0  0  0
 17 99  1  0  0  0
 18 19  2  0  0  0
 18100  1  0  0  0
 19 20  1  0  0  0
 19 24  1  0  0  0
 20 21  2  0  0  0
 20101  1  0  0  0
 21 23  1  0  0  0
 22 28  1  0  0  0
 22 32  2  0  0  0
 26 27  1  0  0  0
 28102  1  0  0  0
 28103  1  0  0  0
 29104  1  0  0  0
 29105  1  0  0  0
 33 34  1  0  0  0
 33 66  1  0  0  0
 33 70  2  0  0  0
 34 36  1  0  0  0
 34 59  1  0  0  0
 34106  1  0  0  0
 35 44  2  0  0  0
 35 45  1  0  0  0
 35 68  1  0  0  0
 36 56  1  0  0  0
 36107  1  0  0  0
 37 39  1  0  0  0
 37 47  1  0  0  0
 37 66  1  0  0  0
 37108  1  0  0  0
 38 43  2  0  0  0
 38 46  1  0  0  0
 38 47  1  0  0  0
 39 64  1  0  0  0
 39 67  2  0  0  0
 40 52  1  0  0  0
 40 53  2  0  0  0
 40 58  1  0  0  0
 41109  1  0  0  0
 41110  1  0  0  0
 41111  1  0  0  0
 41 48  1  0  0  0
 42 43  1  0  0  0
 42 66  1  0  0  0
 42112  1  0  0  0
 42113  1  0  0  0
 43 44  1  0  0  0
 44114  1  0  0  0
 45 46  2  0  0  0
 45115  1  0  0  0
 46116  1  0  0  0
 47117  1  0  0  0
 47118  1  0  0  0
 48 56  1  0  0  0
 48 65  1  0  0  0
 48119  1  0  0  0
 49 50  1  0  0  0
 49 53  1  0  0  0
 49 64  1  0  0  0
 49120  1  0  0  0
 50 51  1  0  0  0
 50121  1  0  0  0
 50122  1  0  0  0
 51 52  1  0  0  0
 51123  1  0  0  0
 51124  1  0  0  0
 52125  1  0  0  0
 52126  1  0  0  0
 53 54  1  0  0  0
 54 55  2  0  0  0
 54127  1  0  0  0
 55 57  1  0  0  0
 55128  1  0  0  0
 56 69  2  0  0  0
 57 58  2  0  0  0
 57129  1  0  0  0
 58130  1  0  0  0
 59 60  1  0  0  0
 59 61  1  0  0  0
 59 62  1  0  0  0
 60131  1  0  0  0
 60132  1  0  0  0
 60133  1  0  0  0
 61134  1  0  0  0
 61135  1  0  0  0
 61136  1  0  0  0
 62137  1  0  0  0
 62138  1  0  0  0
 62139  1  0  0  0
 63 65  1  0  0  0
 63140  1  0  0  0
 63141  1  0  0  0
 63142  1  0  0  0
 64143  1  0  0  0
 65144  1  0  0  0
 68 82  1  0  0  0
 71 72  2  0  0  0
 71 74  1  0  0  0
 71145  1  0  0  0
 72 76  1  0  0  0
 72146  1  0  0  0
 73 75  1  0  0  0
 73 76  2  0  0  0
 73147  1  0  0  0
 74 75  2  0  0  0
 74 78  1  0  0  0
 75 83  1  0  0  0
 76 85  1  0  0  0
 77 79  1  0  0  0
 77 80  1  0  0  0
 77 84  2  0  0  0
 78148  1  0  0  0
 78149  1  0  0  0
 78150  1  0  0  0
 79 81  1  0  0  0
 79151  1  0  0  0
 79152  1  0  0  0
 80 85  1  0  0  0
 80153  1  0  0  0
 80154  1  0  0  0
 81 82  1  0  0  0
 81155  1  0  0  0
 81156  1  0  0  0
 82157  1  0  0  0
 82158  1  0  0  0
 83159  1  0  0  0
M  ISO  4   1 100  68 101  82 101  83 100
M  END
> <chiral flag>
0

> <version>
0

> <s_m_source_file>
/data/baiqing/PycharmProjects/Reinvent-master-3.2/result/LINK_invent/BTK/process_docking_weight1_custom_product_contain_oxygen_bond_distance_aromatic_linkinvent_7_9_3/rearranged_h_0134.sdf

> <i_m_source_file_index>
7

> <r_mmod_Potential_Energy-OPLS-2005>
-73.5983657836914

> <r_mmod_Stretch_Energy-OPLS-2005>
36.1512298583984

> <r_mmod_Bend_Energy-OPLS-2005>
97.8161773681641

> <r_mmod_Torsional_Energy-OPLS-2005>
225.638092041016

> <r_mmod_Improper_Torsional_Energy-OPLS-2005>
2.41962265968323

> <r_mmod_Van_der_Waal_Energy-OPLS-2005>
161.142868041992

> <r_mmod_Electrostatic_Energy-OPLS-2005>
-374.80419921875

> <r_mmod_Solvation_Energy-OPLS-2005>
-231.274322509766

> <b_mmod_Minimization_Converged-OPLS-2005>
0

> <r_mmod_RMS_Derivative-OPLS-2005>
1.54259467124939

$$$$
7
                    3D
 Structure written by MMmdl.
159167  0  0  1  0            999 V2000
  -30.6850  -14.4927   20.6375 C   0  0  0  0  0  0
  -30.4392  -12.3373   19.4295 C   0  0  0  0  0  0
  -29.5049  -12.5324   18.2166 C   0  0  0  0  0  0
  -28.0280  -12.3706   18.6237 C   0  0  0  0  0  0
  -27.6670  -13.2060   19.8790 C   0  0  2  0  0  0
  -28.7039  -12.9657   21.0010 C   0  0  0  0  0  0
  -25.2492  -13.8094   20.5449 C   0  0  0  0  0  0
  -24.1814  -13.0389   20.9134 C   0  0  0  0  0  0
  -24.6399  -11.6872   20.8755 C   0  0  0  0  0  0
  -23.9065  -10.4266   21.0420 C   0  0  0  0  0  0
  -24.3606   -9.4180   21.9198 C   0  0  0  0  0  0
  -23.6260   -8.2233   22.0782 C   0  0  0  0  0  0
  -22.4249   -8.0279   21.3558 C   0  0  0  0  0  0
  -21.9884   -9.0263   20.4673 C   0  0  0  0  0  0
  -22.7236  -10.2126   20.3065 C   0  0  0  0  0  0
  -21.6849   -6.0715   22.5276 C   0  0  0  0  0  0
  -21.4025   -6.5627   23.8201 C   0  0  0  0  0  0
  -21.3655   -5.6778   24.9169 C   0  0  0  0  0  0
  -21.6045   -4.3044   24.7218 C   0  0  0  0  0  0
  -21.8819   -3.8128   23.4346 C   0  0  0  0  0  0
  -21.9193   -4.6942   22.3396 C   0  0  0  0  0  0
  -22.7836  -13.5208   21.1797 C   0  0  0  0  0  0
  -22.1661   -4.2122   21.0976 F   0  0  0  0  0  0
  -21.5612   -3.4526   25.7734 F   0  0  0  0  0  0
  -30.0456  -13.2957   20.4772 N   0  0  0  0  0  0
  -26.3023  -12.9325   20.3309 N   0  0  0  0  0  0
  -25.9341  -11.6484   20.5789 N   0  0  0  0  0  0
  -22.0483  -12.8245   22.0408 N   0  0  0  0  0  0
  -25.3943  -15.1772   20.3450 N   0  0  0  0  0  0
  -31.7250  -14.7851   20.0400 O   0  0  0  0  0  0
  -21.6632   -6.8870   21.4239 O   0  0  0  0  0  0
  -22.3524  -14.5496   20.6624 O   0  0  0  0  0  0
  -24.6171  -31.8650   23.2079 C   0  0  0  0  0  0
  -25.9054  -32.4811   23.8388 C   0  0  1  0  0  0
  -27.2384  -27.4026   20.1136 C   0  0  0  0  0  0
  -25.5887  -33.8611   24.2317 N   0  0  0  0  0  0
  -23.4082  -30.4858   21.5481 C   0  0  2  0  0  0
  -24.8580  -28.9443   20.1184 C   0  0  0  0  0  0
  -22.7421  -29.4640   22.4980 C   0  0  0  0  0  0
  -18.0272  -28.1373   22.8501 C   0  0  0  0  0  0
  -24.1480  -36.7307   23.2640 C   0  0  0  0  0  0
  -25.9400  -30.8206   21.3667 C   0  0  0  0  0  0
  -26.0194  -29.4519   20.7153 C   0  0  0  0  0  0
  -27.2156  -28.6911   20.7045 C   0  0  0  0  0  0
  -26.0624  -26.9165   19.5065 C   0  0  0  0  0  0
  -24.8765  -27.6778   19.5066 C   0  0  0  0  0  0
  -23.6200  -29.8144   20.1645 C   0  0  0  0  0  0
  -25.4105  -36.3107   24.0338 C   0  0  1  0  0  0
  -20.5864  -28.3659   23.1315 C   0  0  2  0  0  0
  -20.6757  -26.9390   22.5421 C   0  0  0  0  0  0
  -19.5734  -26.6378   21.5219 C   0  0  0  0  0  0
  -18.1912  -26.7921   22.1627 C   0  0  0  0  0  0
  -19.1521  -28.8834   23.2908 C   0  0  0  0  0  0
  -18.9454  -30.1435   23.8930 C   0  0  0  0  0  0
  -17.6456  -30.6579   24.0570 C   0  0  0  0  0  0
  -25.9037  -34.9470   23.5131 C   0  0  0  0  0  0
  -16.5348  -29.9087   23.6322 C   0  0  0  0  0  0
  -16.7261  -28.6497   23.0359 C   0  0  0  0  0  0
  -26.4482  -31.6606   25.0727 C   0  0  0  0  0  0
  -25.3740  -31.3733   26.1472 C   0  0  0  0  0  0
  -27.0321  -30.3044   24.6129 C   0  0  0  0  0  0
  -27.6057  -32.4334   25.7472 C   0  0  0  0  0  0
  -27.5590  -37.1797   24.8461 C   0  0  0  0  0  0
  -21.4144  -29.3024   22.3716 N   0  0  0  0  0  0
  -26.4292  -37.3793   23.9418 N   0  0  0  0  0  0
  -24.6732  -31.0723   22.0989 N   0  0  0  0  0  0
  -23.4177  -28.8178   23.3036 O   0  0  0  0  0  0
  -28.3883  -26.6329   20.0986 O   0  0  0  0  0  0
  -26.5615  -34.8930   22.4703 O   0  0  0  0  0  0
  -23.5352  -32.1409   23.7455 O   0  0  0  0  0  0
  -27.4454  -17.8676   21.2895 C   0  0  0  0  0  0
  -28.1597  -19.0693   21.1544 C   0  0  0  0  0  0
  -28.1346  -16.6508   21.4015 C   0  0  0  0  0  0
  -30.2580  -17.8182   21.1491 C   0  0  0  0  0  0
  -29.5718  -19.0785   21.0966 C   0  0  0  0  0  0
  -29.5386  -16.5990   21.3100 C   0  0  0  0  0  0
  -31.8068  -20.3736   20.9093 C   0  0  0  0  0  0
  -29.2962  -22.9213   20.9533 C   0  0  0  0  0  0
  -28.9341  -24.1462   20.0478 C   0  0  0  0  0  0
  -29.6552  -21.5877   20.2164 C   0  0  0  0  0  0
  -28.3269  -25.3695   20.8088 C   0  0  0  0  0  0
  -30.2824  -20.4594   21.1232 C   0  0  1  0  0  0
  -30.1275  -15.3138   21.5505 N   0  0  0  0  0  0
  -31.4822  -12.4654   19.1327 H   0  0  0  0  0  0
  -30.3624  -11.3175   19.8108 H   0  0  0  0  0  0
  -29.7557  -11.8259   17.4240 H   0  0  0  0  0  0
  -29.6582  -13.5281   17.7981 H   0  0  0  0  0  0
  -27.8450  -11.3125   18.8153 H   0  0  0  0  0  0
  -27.3761  -12.6426   17.7943 H   0  0  0  0  0  0
  -27.7182  -14.2561   19.5892 H   0  0  0  0  0  0
  -28.6821  -11.9209   21.3115 H   0  0  0  0  0  0
  -28.4324  -13.5226   21.8975 H   0  0  0  0  0  0
  -25.2750   -9.5636   22.4764 H   0  0  0  0  0  0
  -23.9956   -7.4619   22.7497 H   0  0  0  0  0  0
  -21.0810   -8.8792   19.8973 H   0  0  0  0  0  0
  -22.3711  -10.9666   19.6157 H   0  0  0  0  0  0
  -21.2042   -7.6141   23.9702 H   0  0  0  0  0  0
  -21.1471   -6.0512   25.9064 H   0  0  0  0  0  0
  -22.0603   -2.7589   23.2856 H   0  0  0  0  0  0
  -22.4082  -11.9898   22.4798 H   0  0  0  0  0  0
  -21.1126  -13.1333   22.2645 H   0  0  0  0  0  0
  -24.5889  -15.7935   20.3708 H   0  0  0  0  0  0
  -26.2048  -15.6025   19.9126 H   0  0  0  0  0  0
  -26.7123  -32.5520   23.1146 H   0  0  0  0  0  0
  -25.0050  -33.9767   25.0473 H   0  0  0  0  0  0
  -22.6992  -31.3033   21.4050 H   0  0  0  0  0  0
  -23.3741  -35.9640   23.3302 H   0  0  0  0  0  0
  -24.3577  -36.8927   22.2057 H   0  0  0  0  0  0
  -23.7228  -37.6508   23.6658 H   0  0  0  0  0  0
  -26.0573  -31.5834   20.5962 H   0  0  0  0  0  0
  -26.8255  -30.8752   21.9877 H   0  0  0  0  0  0
  -28.1147  -29.0790   21.1630 H   0  0  0  0  0  0
  -26.0661  -25.9454   19.0309 H   0  0  0  0  0  0
  -23.9867  -27.2825   19.0363 H   0  0  0  0  0  0
  -23.7304  -30.5879   19.4035 H   0  0  0  0  0  0
  -22.7434  -29.2341   19.8704 H   0  0  0  0  0  0
  -25.1274  -36.1974   25.0827 H   0  0  0  0  0  0
  -20.9963  -28.3228   24.1434 H   0  0  0  0  0  0
  -20.5635  -26.2272   23.3612 H   0  0  0  0  0  0
  -21.6631  -26.7413   22.1227 H   0  0  0  0  0  0
  -19.6891  -25.6293   21.1236 H   0  0  0  0  0  0
  -19.6674  -27.3199   20.6759 H   0  0  0  0  0  0
  -17.4176  -26.6672   21.4031 H   0  0  0  0  0  0
  -18.0311  -26.0059   22.9019 H   0  0  0  0  0  0
  -19.7931  -30.7236   24.2320 H   0  0  0  0  0  0
  -17.5015  -31.6268   24.5156 H   0  0  0  0  0  0
  -15.5352  -30.3004   23.7629 H   0  0  0  0  0  0
  -15.8656  -28.0821   22.7076 H   0  0  0  0  0  0
  -24.5885  -30.7116   25.7804 H   0  0  0  0  0  0
  -24.8965  -32.2903   26.4935 H   0  0  0  0  0  0
  -25.8079  -30.8877   27.0220 H   0  0  0  0  0  0
  -26.2875  -29.6784   24.1196 H   0  0  0  0  0  0
  -27.4100  -29.7313   25.4607 H   0  0  0  0  0  0
  -27.8705  -30.4363   23.9283 H   0  0  0  0  0  0
  -27.2676  -33.3617   26.2087 H   0  0  0  0  0  0
  -28.3833  -32.6925   25.0273 H   0  0  0  0  0  0
  -28.0762  -31.8438   26.5349 H   0  0  0  0  0  0
  -28.2594  -38.0110   24.7537 H   0  0  0  0  0  0
  -28.1096  -36.2642   24.6237 H   0  0  0  0  0  0
  -27.2315  -37.1389   25.8865 H   0  0  0  0  0  0
  -20.9293  -29.8769   21.6961 H   0  0  0  0  0  0
  -26.0178  -38.2866   24.1436 H   0  0  0  0  0  0
  -26.3656  -17.8834   21.3593 H   0  0  0  0  0  0
  -27.6028  -19.9962   21.1474 H   0  0  0  0  0  0
  -27.5704  -15.7503   21.5883 H   0  0  0  0  0  0
  -31.3383  -17.7781   21.1367 H   0  0  0  0  0  0
  -32.2837  -19.7449   21.6626 H   0  0  0  0  0  0
  -32.2685  -21.3582   20.9951 H   0  0  0  0  0  0
  -32.0575  -19.9765   19.9241 H   0  0  0  0  0  0
  -28.4683  -22.7259   21.6368 H   0  0  0  0  0  0
  -30.1374  -23.2093   21.5859 H   0  0  0  0  0  0
  -28.2294  -23.8348   19.2754 H   0  0  0  0  0  0
  -29.8347  -24.4611   19.5202 H   0  0  0  0  0  0
  -30.3455  -21.8142   19.4031 H   0  0  0  0  0  0
  -28.7640  -21.2270   19.7035 H   0  0  0  0  0  0
  -28.8705  -25.5130   21.7435 H   0  0  0  0  0  0
  -27.3066  -25.1230   21.1049 H   0  0  0  0  0  0
  -30.1491  -20.7873   22.1558 H   0  0  0  0  0  0
  -29.5427  -14.7524   22.1500 H   0  0  0  0  0  0
  1 25  1  0  0  0
  1 30  2  0  0  0
  1 83  1  0  0  0
  2  3  1  0  0  0
  2 25  1  0  0  0
  2 84  1  0  0  0
  2 85  1  0  0  0
  3  4  1  0  0  0
  3 86  1  0  0  0
  3 87  1  0  0  0
  4  5  1  0  0  0
  4 88  1  0  0  0
  4 89  1  0  0  0
  5  6  1  0  0  0
  5 26  1  0  0  0
  5 90  1  0  0  0
  6 25  1  0  0  0
  6 91  1  0  0  0
  6 92  1  0  0  0
  7  8  2  0  0  0
  7 26  1  0  0  0
  7 29  1  0  0  0
  8  9  1  0  0  0
  8 22  1  0  0  0
  9 10  1  0  0  0
  9 27  2  0  0  0
 10 11  2  0  0  0
 10 15  1  0  0  0
 11 12  1  0  0  0
 11 93  1  0  0  0
 12 13  2  0  0  0
 12 94  1  0  0  0
 13 14  1  0  0  0
 13 31  1  0  0  0
 14 15  2  0  0  0
 14 95  1  0  0  0
 15 96  1  0  0  0
 16 17  2  0  0  0
 16 21  1  0  0  0
 16 31  1  0  0  0
 17 18  1  0  0  0
 17 97  1  0  0  0
 18 19  2  0  0  0
 18 98  1  0  0  0
 19 20  1  0  0  0
 19 24  1  0  0  0
 20 21  2  0  0  0
 20 99  1  0  0  0
 21 23  1  0  0  0
 22 28  1  0  0  0
 22 32  2  0  0  0
 26 27  1  0  0  0
 28100  1  0  0  0
 28101  1  0  0  0
 29102  1  0  0  0
 29103  1  0  0  0
 33 34  1  0  0  0
 33 66  1  0  0  0
 33 70  2  0  0  0
 34 36  1  0  0  0
 34 59  1  0  0  0
 34104  1  0  0  0
 35 44  2  0  0  0
 35 45  1  0  0  0
 35 68  1  0  0  0
 36 56  1  0  0  0
 36105  1  0  0  0
 37 39  1  0  0  0
 37 47  1  0  0  0
 37 66  1  0  0  0
 37106  1  0  0  0
 38 43  2  0  0  0
 38 46  1  0  0  0
 38 47  1  0  0  0
 39 64  1  0  0  0
 39 67  2  0  0  0
 40 52  1  0  0  0
 40 53  2  0  0  0
 40 58  1  0  0  0
 41107  1  0  0  0
 41108  1  0  0  0
 41109  1  0  0  0
 41 48  1  0  0  0
 42 43  1  0  0  0
 42 66  1  0  0  0
 42110  1  0  0  0
 42111  1  0  0  0
 43 44  1  0  0  0
 44112  1  0  0  0
 45 46  2  0  0  0
 45113  1  0  0  0
 46114  1  0  0  0
 47115  1  0  0  0
 47116  1  0  0  0
 48 56  1  0  0  0
 48 65  1  0  0  0
 48117  1  0  0  0
 49 50  1  0  0  0
 49 53  1  0  0  0
 49 64  1  0  0  0
 49118  1  0  0  0
 50 51  1  0  0  0
 50119  1  0  0  0
 50120  1  0  0  0
 51 52  1  0  0  0
 51121  1  0  0  0
 51122  1  0  0  0
 52123  1  0  0  0
 52124  1  0  0  0
 53 54  1  0  0  0
 54 55  2  0  0  0
 54125  1  0  0  0
 55 57  1  0  0  0
 55126  1  0  0  0
 56 69  2  0  0  0
 57 58  2  0  0  0
 57127  1  0  0  0
 58128  1  0  0  0
 59 60  1  0  0  0
 59 61  1  0  0  0
 59 62  1  0  0  0
 60129  1  0  0  0
 60130  1  0  0  0
 60131  1  0  0  0
 61132  1  0  0  0
 61133  1  0  0  0
 61134  1  0  0  0
 62135  1  0  0  0
 62136  1  0  0  0
 62137  1  0  0  0
 63 65  1  0  0  0
 63138  1  0  0  0
 63139  1  0  0  0
 63140  1  0  0  0
 64141  1  0  0  0
 65142  1  0  0  0
 68 81  1  0  0  0
 71 72  2  0  0  0
 71 73  1  0  0  0
 71143  1  0  0  0
 72 75  1  0  0  0
 72144  1  0  0  0
 73 76  2  0  0  0
 73145  1  0  0  0
 74 75  2  0  0  0
 74 76  1  0  0  0
 74146  1  0  0  0
 75 82  1  0  0  0
 76 83  1  0  0  0
 77147  1  0  0  0
 77148  1  0  0  0
 77149  1  0  0  0
 77 82  1  0  0  0
 78 79  1  0  0  0
 78 80  1  0  0  0
 78150  1  0  0  0
 78151  1  0  0  0
 79 81  1  0  0  0
 79152  1  0  0  0
 79153  1  0  0  0
 80 82  1  0  0  0
 80154  1  0  0  0
 80155  1  0  0  0
 81156  1  0  0  0
 81157  1  0  0  0
 82158  1  0  0  0
 83159  1  0  0  0
M  ISO  4   1 100  68 101  81 101  83 100
M  END
> <chiral flag>
0

> <version>
0

> <s_m_source_file>
/data/baiqing/PycharmProjects/Reinvent-master-3.2/result/LINK_invent/BTK/process_docking_weight1_custom_product_contain_oxygen_bond_distance_aromatic_linkinvent_7_9_3/rearranged_h_0134.sdf

> <i_m_source_file_index>
8

> <r_mmod_Potential_Energy-OPLS-2005>
38.0781745910645

> <r_mmod_Stretch_Energy-OPLS-2005>
49.9353485107422

> <r_mmod_Bend_Energy-OPLS-2005>
111.527626037598

> <r_mmod_Torsional_Energy-OPLS-2005>
276.662292480469

> <r_mmod_Improper_Torsional_Energy-OPLS-2005>
8.39835166931152

> <r_mmod_Van_der_Waal_Energy-OPLS-2005>
142.579849243164

> <r_mmod_Electrostatic_Energy-OPLS-2005>
-374.919464111328

> <r_mmod_Solvation_Energy-OPLS-2005>
-193.192459106445

> <b_mmod_Minimization_Converged-OPLS-2005>
0

> <r_mmod_RMS_Derivative-OPLS-2005>
2.73157215118408

$$$$
8
                    3D
 Structure written by MMmdl.
158166  0  0  1  0            999 V2000
  -30.6930  -14.4484   20.5036 C   0  0  0  0  0  0
  -30.4257  -12.2676   19.4323 C   0  0  0  0  0  0
  -29.5016  -12.4783   18.2122 C   0  0  0  0  0  0
  -28.0196  -12.3507   18.6197 C   0  0  0  0  0  0
  -27.6649  -13.1936   19.8734 C   0  0  2  0  0  0
  -28.7081  -12.9818   20.9991 C   0  0  0  0  0  0
  -25.2618  -13.8127   20.5660 C   0  0  0  0  0  0
  -24.1848  -13.0431   20.9168 C   0  0  0  0  0  0
  -24.6388  -11.6891   20.8736 C   0  0  0  0  0  0
  -23.9049  -10.4288   21.0408 C   0  0  0  0  0  0
  -24.3605   -9.4199   21.9179 C   0  0  0  0  0  0
  -23.6284   -8.2237   22.0748 C   0  0  0  0  0  0
  -22.4262   -8.0278   21.3548 C   0  0  0  0  0  0
  -21.9898   -9.0255   20.4657 C   0  0  0  0  0  0
  -22.7224  -10.2130   20.3061 C   0  0  0  0  0  0
  -21.6847   -6.0733   22.5275 C   0  0  0  0  0  0
  -21.4013   -6.5636   23.8213 C   0  0  0  0  0  0
  -21.3656   -5.6786   24.9174 C   0  0  0  0  0  0
  -21.6043   -4.3053   24.7222 C   0  0  0  0  0  0
  -21.8817   -3.8145   23.4349 C   0  0  0  0  0  0
  -21.9191   -4.6960   22.3403 C   0  0  0  0  0  0
  -22.7873  -13.5250   21.1831 C   0  0  0  0  0  0
  -22.1654   -4.2151   21.0980 F   0  0  0  0  0  0
  -21.5638   -3.4536   25.7737 F   0  0  0  0  0  0
  -30.0466  -13.2569   20.4500 N   0  0  0  0  0  0
  -26.3040  -12.9273   20.3359 N   0  0  0  0  0  0
  -25.9313  -11.6451   20.5761 N   0  0  0  0  0  0
  -22.0498  -12.8268   22.0393 N   0  0  0  0  0  0
  -25.4363  -15.1841   20.4058 N   0  0  0  0  0  0
  -31.8491  -14.6209   20.1095 O   0  0  0  0  0  0
  -21.6628   -6.8872   21.4242 O   0  0  0  0  0  0
  -22.3569  -14.5556   20.6668 O   0  0  0  0  0  0
  -24.6110  -31.8686   23.2113 C   0  0  0  0  0  0
  -25.9014  -32.4827   23.8403 C   0  0  1  0  0  0
  -27.2409  -27.4693   20.1013 C   0  0  0  0  0  0
  -25.5876  -33.8623   24.2334 N   0  0  0  0  0  0
  -23.3984  -30.4919   21.5495 C   0  0  2  0  0  0
  -24.8468  -28.9563   20.1194 C   0  0  0  0  0  0
  -22.7386  -29.4673   22.4991 C   0  0  0  0  0  0
  -18.0268  -28.1406   22.8503 C   0  0  0  0  0  0
  -24.1478  -36.7321   23.2641 C   0  0  0  0  0  0
  -25.9212  -30.8492   21.3543 C   0  0  0  0  0  0
  -26.0028  -29.4832   20.7089 C   0  0  0  0  0  0
  -27.2055  -28.7476   20.6946 C   0  0  0  0  0  0
  -26.0727  -26.9429   19.5119 C   0  0  0  0  0  0
  -24.8732  -27.6842   19.5188 C   0  0  0  0  0  0
  -23.6059  -29.8188   20.1657 C   0  0  0  0  0  0
  -25.4095  -36.3109   24.0342 C   0  0  1  0  0  0
  -20.5856  -28.3679   23.1332 C   0  0  2  0  0  0
  -20.6747  -26.9416   22.5430 C   0  0  0  0  0  0
  -19.5720  -26.6408   21.5228 C   0  0  0  0  0  0
  -18.1902  -26.7951   22.1639 C   0  0  0  0  0  0
  -19.1521  -28.8857   23.2916 C   0  0  0  0  0  0
  -18.9451  -30.1467   23.8925 C   0  0  0  0  0  0
  -17.6456  -30.6606   24.0588 C   0  0  0  0  0  0
  -25.9019  -34.9473   23.5130 C   0  0  0  0  0  0
  -16.5345  -29.9115   23.6343 C   0  0  0  0  0  0
  -16.7260  -28.6535   23.0353 C   0  0  0  0  0  0
  -26.4453  -31.6609   25.0724 C   0  0  0  0  0  0
  -25.3754  -31.3739   26.1513 C   0  0  0  0  0  0
  -27.0253  -30.3049   24.6078 C   0  0  0  0  0  0
  -27.6049  -32.4320   25.7456 C   0  0  0  0  0  0
  -27.5573  -37.1809   24.8465 C   0  0  0  0  0  0
  -21.4121  -29.3045   22.3736 N   0  0  0  0  0  0
  -26.4276  -37.3803   23.9424 N   0  0  0  0  0  0
  -24.6619  -31.0835   22.0984 N   0  0  0  0  0  0
  -23.4162  -28.8214   23.3024 O   0  0  0  0  0  0
  -28.4073  -26.7499   20.1040 O   0  0  0  0  0  0
  -26.5589  -34.8919   22.4696 O   0  0  0  0  0  0
  -23.5311  -32.1404   23.7536 O   0  0  0  0  0  0
  -30.4449  -18.4252   21.1511 C   0  0  0  0  0  0
  -29.3419  -18.8912   19.0349 C   0  0  0  0  0  0
  -30.5635  -19.8146   21.3812 C   0  0  0  0  0  0
  -29.4547  -20.2714   19.2667 C   0  0  0  0  0  0
  -29.8426  -17.9580   19.9635 C   0  0  0  0  0  0
  -30.0891  -20.7537   20.4367 C   0  0  0  0  0  0
  -31.3876  -25.0621   19.2973 C   0  0  0  0  0  0
  -30.4399  -24.4280   20.0097 C   0  0  0  0  0  0
  -29.7522  -16.4865   19.5929 C   0  0  0  0  0  0
  -29.7702  -25.0778   21.2090 C   0  0  0  0  0  0
  -29.9782  -23.0235   19.6572 C   0  0  0  0  0  0
  -28.3472  -25.5784   20.9142 C   0  0  0  0  0  0
  -29.8689  -15.4925   20.6634 N   0  0  0  0  0  0
  -30.2795  -22.0959   20.7005 O   0  0  0  0  0  0
  -31.4736  -12.3521   19.1367 H   0  0  0  0  0  0
  -30.3091  -11.2599   19.8336 H   0  0  0  0  0  0
  -29.7381  -11.7486   17.4364 H   0  0  0  0  0  0
  -29.6817  -13.4593   17.7699 H   0  0  0  0  0  0
  -27.8223  -11.2963   18.8156 H   0  0  0  0  0  0
  -27.3740  -12.6280   17.7857 H   0  0  0  0  0  0
  -27.7022  -14.2358   19.5615 H   0  0  0  0  0  0
  -28.6723  -11.9532   21.3615 H   0  0  0  0  0  0
  -28.4888  -13.6092   21.8639 H   0  0  0  0  0  0
  -25.2756   -9.5679   22.4740 H   0  0  0  0  0  0
  -24.0001   -7.4629   22.7457 H   0  0  0  0  0  0
  -21.0833   -8.8786   19.8962 H   0  0  0  0  0  0
  -22.3694  -10.9674   19.6169 H   0  0  0  0  0  0
  -21.2003   -7.6141   23.9715 H   0  0  0  0  0  0
  -21.1478   -6.0515   25.9074 H   0  0  0  0  0  0
  -22.0603   -2.7612   23.2842 H   0  0  0  0  0  0
  -22.4104  -11.9950   22.4821 H   0  0  0  0  0  0
  -21.1114  -13.1314   22.2583 H   0  0  0  0  0  0
  -24.6735  -15.8424   20.5187 H   0  0  0  0  0  0
  -26.2900  -15.6229   20.0861 H   0  0  0  0  0  0
  -26.7085  -32.5566   23.1179 H   0  0  0  0  0  0
  -25.0029  -33.9781   25.0475 H   0  0  0  0  0  0
  -22.6874  -31.3084   21.4096 H   0  0  0  0  0  0
  -23.3725  -35.9670   23.3306 H   0  0  0  0  0  0
  -24.3587  -36.8932   22.2057 H   0  0  0  0  0  0
  -23.7223  -37.6527   23.6648 H   0  0  0  0  0  0
  -26.0217  -31.6120   20.5804 H   0  0  0  0  0  0
  -26.8126  -30.9126   21.9661 H   0  0  0  0  0  0
  -28.0998  -29.1500   21.1485 H   0  0  0  0  0  0
  -26.0904  -25.9663   19.0489 H   0  0  0  0  0  0
  -23.9839  -27.2715   19.0630 H   0  0  0  0  0  0
  -23.7123  -30.5888   19.4008 H   0  0  0  0  0  0
  -22.7320  -29.2332   19.8735 H   0  0  0  0  0  0
  -25.1263  -36.1978   25.0833 H   0  0  0  0  0  0
  -20.9961  -28.3246   24.1447 H   0  0  0  0  0  0
  -20.5665  -26.2281   23.3617 H   0  0  0  0  0  0
  -21.6619  -26.7471   22.1220 H   0  0  0  0  0  0
  -19.6876  -25.6323   21.1250 H   0  0  0  0  0  0
  -19.6660  -27.3223   20.6761 H   0  0  0  0  0  0
  -17.4176  -26.6719   21.4038 H   0  0  0  0  0  0
  -18.0303  -26.0097   22.9040 H   0  0  0  0  0  0
  -19.7929  -30.7288   24.2285 H   0  0  0  0  0  0
  -17.5021  -31.6288   24.5193 H   0  0  0  0  0  0
  -15.5349  -30.3036   23.7661 H   0  0  0  0  0  0
  -15.8655  -28.0877   22.7045 H   0  0  0  0  0  0
  -24.5861  -30.7150   25.7888 H   0  0  0  0  0  0
  -24.9027  -32.2912   26.5036 H   0  0  0  0  0  0
  -25.8137  -30.8856   27.0227 H   0  0  0  0  0  0
  -26.2763  -29.6826   24.1167 H   0  0  0  0  0  0
  -27.4053  -29.7285   25.4524 H   0  0  0  0  0  0
  -27.8594  -30.4369   23.9184 H   0  0  0  0  0  0
  -27.2690  -33.3627   26.2050 H   0  0  0  0  0  0
  -28.3832  -32.6875   25.0251 H   0  0  0  0  0  0
  -28.0743  -31.8435   26.5350 H   0  0  0  0  0  0
  -28.2602  -38.0096   24.7506 H   0  0  0  0  0  0
  -28.1046  -36.2626   24.6276 H   0  0  0  0  0  0
  -27.2311  -37.1468   25.8876 H   0  0  0  0  0  0
  -20.9272  -29.8763   21.6965 H   0  0  0  0  0  0
  -26.0157  -38.2875   24.1447 H   0  0  0  0  0  0
  -30.8415  -17.7268   21.8750 H   0  0  0  0  0  0
  -28.8782  -18.5498   18.1197 H   0  0  0  0  0  0
  -31.0440  -20.1634   22.2849 H   0  0  0  0  0  0
  -29.0526  -20.9344   18.5149 H   0  0  0  0  0  0
  -31.7079  -26.0629   19.5492 H   0  0  0  0  0  0
  -31.8595  -24.5935   18.4453 H   0  0  0  0  0  0
  -30.4778  -16.3113   18.7948 H   0  0  0  0  0  0
  -28.7809  -16.3225   19.1242 H   0  0  0  0  0  0
  -30.3784  -25.9070   21.5737 H   0  0  0  0  0  0
  -29.7430  -24.3481   22.0185 H   0  0  0  0  0  0
  -30.4719  -22.7191   18.7320 H   0  0  0  0  0  0
  -28.9046  -23.0416   19.4673 H   0  0  0  0  0  0
  -27.8576  -25.8126   21.8627 H   0  0  0  0  0  0
  -27.7483  -24.8040   20.4334 H   0  0  0  0  0  0
  -28.9982  -15.2619   21.1148 H   0  0  0  0  0  0
  1 25  1  0  0  0
  1 30  2  0  0  0
  1 83  1  0  0  0
  2  3  1  0  0  0
  2 25  1  0  0  0
  2 85  1  0  0  0
  2 86  1  0  0  0
  3  4  1  0  0  0
  3 87  1  0  0  0
  3 88  1  0  0  0
  4  5  1  0  0  0
  4 89  1  0  0  0
  4 90  1  0  0  0
  5  6  1  0  0  0
  5 26  1  0  0  0
  5 91  1  0  0  0
  6 25  1  0  0  0
  6 92  1  0  0  0
  6 93  1  0  0  0
  7  8  2  0  0  0
  7 26  1  0  0  0
  7 29  1  0  0  0
  8  9  1  0  0  0
  8 22  1  0  0  0
  9 10  1  0  0  0
  9 27  2  0  0  0
 10 11  2  0  0  0
 10 15  1  0  0  0
 11 12  1  0  0  0
 11 94  1  0  0  0
 12 13  2  0  0  0
 12 95  1  0  0  0
 13 14  1  0  0  0
 13 31  1  0  0  0
 14 15  2  0  0  0
 14 96  1  0  0  0
 15 97  1  0  0  0
 16 17  2  0  0  0
 16 21  1  0  0  0
 16 31  1  0  0  0
 17 18  1  0  0  0
 17 98  1  0  0  0
 18 19  2  0  0  0
 18 99  1  0  0  0
 19 20  1  0  0  0
 19 24  1  0  0  0
 20 21  2  0  0  0
 20100  1  0  0  0
 21 23  1  0  0  0
 22 28  1  0  0  0
 22 32  2  0  0  0
 26 27  1  0  0  0
 28101  1  0  0  0
 28102  1  0  0  0
 29103  1  0  0  0
 29104  1  0  0  0
 33 34  1  0  0  0
 33 66  1  0  0  0
 33 70  2  0  0  0
 34 36  1  0  0  0
 34 59  1  0  0  0
 34105  1  0  0  0
 35 44  2  0  0  0
 35 45  1  0  0  0
 35 68  1  0  0  0
 36 56  1  0  0  0
 36106  1  0  0  0
 37 39  1  0  0  0
 37 47  1  0  0  0
 37 66  1  0  0  0
 37107  1  0  0  0
 38 43  2  0  0  0
 38 46  1  0  0  0
 38 47  1  0  0  0
 39 64  1  0  0  0
 39 67  2  0  0  0
 40 52  1  0  0  0
 40 53  2  0  0  0
 40 58  1  0  0  0
 41108  1  0  0  0
 41109  1  0  0  0
 41110  1  0  0  0
 41 48  1  0  0  0
 42 43  1  0  0  0
 42 66  1  0  0  0
 42111  1  0  0  0
 42112  1  0  0  0
 43 44  1  0  0  0
 44113  1  0  0  0
 45 46  2  0  0  0
 45114  1  0  0  0
 46115  1  0  0  0
 47116  1  0  0  0
 47117  1  0  0  0
 48 56  1  0  0  0
 48 65  1  0  0  0
 48118  1  0  0  0
 49 50  1  0  0  0
 49 53  1  0  0  0
 49 64  1  0  0  0
 49119  1  0  0  0
 50 51  1  0  0  0
 50120  1  0  0  0
 50121  1  0  0  0
 51 52  1  0  0  0
 51122  1  0  0  0
 51123  1  0  0  0
 52124  1  0  0  0
 52125  1  0  0  0
 53 54  1  0  0  0
 54 55  2  0  0  0
 54126  1  0  0  0
 55 57  1  0  0  0
 55127  1  0  0  0
 56 69  2  0  0  0
 57 58  2  0  0  0
 57128  1  0  0  0
 58129  1  0  0  0
 59 60  1  0  0  0
 59 61  1  0  0  0
 59 62  1  0  0  0
 60130  1  0  0  0
 60131  1  0  0  0
 60132  1  0  0  0
 61133  1  0  0  0
 61134  1  0  0  0
 61135  1  0  0  0
 62136  1  0  0  0
 62137  1  0  0  0
 62138  1  0  0  0
 63 65  1  0  0  0
 63139  1  0  0  0
 63140  1  0  0  0
 63141  1  0  0  0
 64142  1  0  0  0
 65143  1  0  0  0
 68 82  1  0  0  0
 71 73  2  0  0  0
 71 75  1  0  0  0
 71144  1  0  0  0
 72 74  1  0  0  0
 72 75  2  0  0  0
 72145  1  0  0  0
 73 76  1  0  0  0
 73146  1  0  0  0
 74 76  2  0  0  0
 74147  1  0  0  0
 75 79  1  0  0  0
 76 84  1  0  0  0
 77 78  2  0  0  0
 77148  1  0  0  0
 77149  1  0  0  0
 78 80  1  0  0  0
 78 81  1  0  0  0
 79 83  1  0  0  0
 79150  1  0  0  0
 79151  1  0  0  0
 80 82  1  0  0  0
 80152  1  0  0  0
 80153  1  0  0  0
 81 84  1  0  0  0
 81154  1  0  0  0
 81155  1  0  0  0
 82156  1  0  0  0
 82157  1  0  0  0
 83158  1  0  0  0
M  ISO  4   1 100  68 101  82 101  83 100
M  END
> <chiral flag>
0

> <version>
0

> <s_m_source_file>
/data/baiqing/PycharmProjects/Reinvent-master-3.2/result/LINK_invent/BTK/process_docking_weight1_custom_product_contain_oxygen_bond_distance_aromatic_linkinvent_7_9_3/rearranged_h_0134.sdf

> <i_m_source_file_index>
9

> <r_mmod_Potential_Energy-OPLS-2005>
-59.1380081176758

> <r_mmod_Stretch_Energy-OPLS-2005>
32.0777359008789

> <r_mmod_Bend_Energy-OPLS-2005>
93.8325576782227

> <r_mmod_Torsional_Energy-OPLS-2005>
252.453216552734

> <r_mmod_Improper_Torsional_Energy-OPLS-2005>
13.4465732574463

> <r_mmod_Van_der_Waal_Energy-OPLS-2005>
157.083999633789

> <r_mmod_Electrostatic_Energy-OPLS-2005>
-404.919586181641

> <r_mmod_Solvation_Energy-OPLS-2005>
-215.940567016602

> <b_mmod_Minimization_Converged-OPLS-2005>
0

> <r_mmod_RMS_Derivative-OPLS-2005>
1.93703305721283

$$$$
9
                    3D
 Structure written by MMmdl.
162170  0  0  1  0            999 V2000
  -30.6907  -14.4959   20.5512 C   0  0  0  0  0  0
  -30.4275  -12.3148   19.4286 C   0  0  0  0  0  0
  -29.5007  -12.5104   18.2105 C   0  0  0  0  0  0
  -28.0206  -12.3718   18.6172 C   0  0  0  0  0  0
  -27.6618  -13.2047   19.8774 C   0  0  2  0  0  0
  -28.7070  -12.9958   20.9979 C   0  0  0  0  0  0
  -25.2600  -13.8145   20.5689 C   0  0  0  0  0  0
  -24.1839  -13.0429   20.9162 C   0  0  0  0  0  0
  -24.6398  -11.6890   20.8723 C   0  0  0  0  0  0
  -23.9057  -10.4275   21.0399 C   0  0  0  0  0  0
  -24.3603   -9.4201   21.9189 C   0  0  0  0  0  0
  -23.6280   -8.2241   22.0760 C   0  0  0  0  0  0
  -22.4258   -8.0279   21.3549 C   0  0  0  0  0  0
  -21.9900   -9.0258   20.4657 C   0  0  0  0  0  0
  -22.7229  -10.2128   20.3062 C   0  0  0  0  0  0
  -21.6856   -6.0732   22.5281 C   0  0  0  0  0  0
  -21.4021   -6.5636   23.8212 C   0  0  0  0  0  0
  -21.3652   -5.6788   24.9177 C   0  0  0  0  0  0
  -21.6047   -4.3054   24.7230 C   0  0  0  0  0  0
  -21.8815   -3.8140   23.4345 C   0  0  0  0  0  0
  -21.9192   -4.6959   22.3405 C   0  0  0  0  0  0
  -22.7864  -13.5247   21.1825 C   0  0  0  0  0  0
  -22.1661   -4.2150   21.0982 F   0  0  0  0  0  0
  -21.5615   -3.4534   25.7738 F   0  0  0  0  0  0
  -30.0399  -13.3031   20.4481 N   0  0  0  0  0  0
  -26.3027  -12.9302   20.3373 N   0  0  0  0  0  0
  -25.9325  -11.6461   20.5763 N   0  0  0  0  0  0
  -22.0478  -12.8269   22.0372 N   0  0  0  0  0  0
  -25.4330  -15.1865   20.4103 N   0  0  0  0  0  0
  -31.8171  -14.6861   20.0818 O   0  0  0  0  0  0
  -21.6631   -6.8874   21.4242 O   0  0  0  0  0  0
  -22.3570  -14.5559   20.6663 O   0  0  0  0  0  0
  -24.6146  -31.8671   23.2073 C   0  0  0  0  0  0
  -25.9042  -32.4810   23.8364 C   0  0  1  0  0  0
  -27.2396  -27.4434   20.0941 C   0  0  0  0  0  0
  -25.5879  -33.8603   24.2309 N   0  0  0  0  0  0
  -23.4027  -30.4888   21.5483 C   0  0  2  0  0  0
  -24.8530  -28.9544   20.1112 C   0  0  0  0  0  0
  -22.7409  -29.4647   22.4979 C   0  0  0  0  0  0
  -18.0267  -28.1362   22.8492 C   0  0  0  0  0  0
  -24.1485  -36.7323   23.2634 C   0  0  0  0  0  0
  -25.9284  -30.8378   21.3552 C   0  0  0  0  0  0
  -26.0119  -29.4709   20.7066 C   0  0  0  0  0  0
  -27.2114  -28.7210   20.6994 C   0  0  0  0  0  0
  -26.0700  -26.9422   19.4889 C   0  0  0  0  0  0
  -24.8759  -27.6891   19.4981 C   0  0  0  0  0  0
  -23.6127  -29.8190   20.1633 C   0  0  0  0  0  0
  -25.4099  -36.3103   24.0342 C   0  0  1  0  0  0
  -20.5862  -28.3653   23.1315 C   0  0  2  0  0  0
  -20.6763  -26.9385   22.5417 C   0  0  0  0  0  0
  -19.5749  -26.6373   21.5202 C   0  0  0  0  0  0
  -18.1923  -26.7909   22.1614 C   0  0  0  0  0  0
  -19.1521  -28.8824   23.2903 C   0  0  0  0  0  0
  -18.9449  -30.1432   23.8913 C   0  0  0  0  0  0
  -17.6452  -30.6582   24.0564 C   0  0  0  0  0  0
  -25.9030  -34.9467   23.5126 C   0  0  0  0  0  0
  -16.5346  -29.9083   23.6318 C   0  0  0  0  0  0
  -16.7255  -28.6492   23.0344 C   0  0  0  0  0  0
  -26.4471  -31.6571   25.0678 C   0  0  0  0  0  0
  -25.3743  -31.3674   26.1425 C   0  0  0  0  0  0
  -27.0268  -30.3010   24.6017 C   0  0  0  0  0  0
  -27.6058  -32.4253   25.7462 C   0  0  0  0  0  0
  -27.5585  -37.1808   24.8461 C   0  0  0  0  0  0
  -21.4131  -29.3032   22.3728 N   0  0  0  0  0  0
  -26.4284  -37.3793   23.9417 N   0  0  0  0  0  0
  -24.6673  -31.0773   22.0973 N   0  0  0  0  0  0
  -23.4178  -28.8188   23.3023 O   0  0  0  0  0  0
  -28.3670  -26.6545   20.1073 O   0  0  0  0  0  0
  -26.5605  -34.8922   22.4699 O   0  0  0  0  0  0
  -23.5345  -32.1405   23.7487 O   0  0  0  0  0  0
  -30.4207  -19.1662   21.7774 C   0  0  0  0  0  0
  -30.3996  -17.7602   21.9344 C   0  0  0  0  0  0
  -29.8057  -18.9075   19.4496 C   0  0  0  0  0  0
  -30.1133  -19.7559   20.5329 C   0  0  0  0  0  0
  -29.7832  -17.4981   19.5901 C   0  0  0  0  0  0
  -30.0920  -16.9042   20.8502 C   0  0  0  0  0  0
  -30.5093  -16.5843   17.3295 C   0  0  0  0  0  0
  -30.1059  -21.2809   20.3460 C   0  0  0  0  0  0
  -29.3822  -16.6878   18.3642 C   0  0  0  0  0  0
  -28.7213  -21.9214   20.6056 C   0  0  0  0  0  0
  -28.5302  -23.4028   20.1675 C   0  0  0  0  0  0
  -29.2049  -24.4694   21.0652 C   0  0  0  0  0  0
  -28.4102  -25.7904   21.2523 C   0  0  0  0  0  0
  -29.9744  -15.4968   21.1028 N   0  0  0  0  0  0
  -31.4741  -12.4092   19.1311 H   0  0  0  0  0  0
  -30.3216  -11.3067   19.8319 H   0  0  0  0  0  0
  -29.7415  -11.7877   17.4303 H   0  0  0  0  0  0
  -29.6715  -13.4940   17.7712 H   0  0  0  0  0  0
  -27.8272  -11.3146   18.8062 H   0  0  0  0  0  0
  -27.3753  -12.6537   17.7853 H   0  0  0  0  0  0
  -27.6925  -14.2515   19.5845 H   0  0  0  0  0  0
  -28.6872  -11.9611   21.3450 H   0  0  0  0  0  0
  -28.4667  -13.6004   21.8742 H   0  0  0  0  0  0
  -25.2749   -9.5672   22.4761 H   0  0  0  0  0  0
  -23.9982   -7.4633   22.7481 H   0  0  0  0  0  0
  -21.0821   -8.8782   19.8971 H   0  0  0  0  0  0
  -22.3694  -10.9669   19.6159 H   0  0  0  0  0  0
  -21.2031   -7.6149   23.9724 H   0  0  0  0  0  0
  -21.1474   -6.0518   25.9082 H   0  0  0  0  0  0
  -22.0601   -2.7607   23.2851 H   0  0  0  0  0  0
  -22.4050  -11.9930   22.4795 H   0  0  0  0  0  0
  -21.1113  -13.1350   22.2556 H   0  0  0  0  0  0
  -24.6697  -15.8439   20.5278 H   0  0  0  0  0  0
  -26.2937  -15.6284   20.1124 H   0  0  0  0  0  0
  -26.7125  -32.5533   23.1143 H   0  0  0  0  0  0
  -25.0023  -33.9755   25.0452 H   0  0  0  0  0  0
  -22.6900  -31.3049   21.4082 H   0  0  0  0  0  0
  -23.3732  -35.9670   23.3282 H   0  0  0  0  0  0
  -24.3585  -36.8940   22.2049 H   0  0  0  0  0  0
  -23.7248  -37.6534   23.6645 H   0  0  0  0  0  0
  -26.0281  -31.5980   20.5784 H   0  0  0  0  0  0
  -26.8225  -30.9025   21.9645 H   0  0  0  0  0  0
  -28.1056  -29.1126   21.1650 H   0  0  0  0  0  0
  -26.0839  -25.9663   19.0244 H   0  0  0  0  0  0
  -23.9858  -27.2856   19.0335 H   0  0  0  0  0  0
  -23.7175  -30.5915   19.4002 H   0  0  0  0  0  0
  -22.7364  -29.2366   19.8718 H   0  0  0  0  0  0
  -25.1274  -36.1959   25.0836 H   0  0  0  0  0  0
  -20.9970  -28.3205   24.1430 H   0  0  0  0  0  0
  -20.5634  -26.2255   23.3598 H   0  0  0  0  0  0
  -21.6636  -26.7401   22.1238 H   0  0  0  0  0  0
  -19.6911  -25.6285   21.1222 H   0  0  0  0  0  0
  -19.6690  -27.3188   20.6736 H   0  0  0  0  0  0
  -17.4196  -26.6638   21.4019 H   0  0  0  0  0  0
  -18.0343  -26.0037   22.9000 H   0  0  0  0  0  0
  -19.7928  -30.7249   24.2277 H   0  0  0  0  0  0
  -17.5012  -31.6263   24.5157 H   0  0  0  0  0  0
  -15.5356  -30.3005   23.7624 H   0  0  0  0  0  0
  -15.8647  -28.0833   22.7050 H   0  0  0  0  0  0
  -24.5951  -30.6973   25.7778 H   0  0  0  0  0  0
  -24.8902  -32.2826   26.4833 H   0  0  0  0  0  0
  -25.8123  -30.8890   27.0191 H   0  0  0  0  0  0
  -26.2796  -29.6794   24.1069 H   0  0  0  0  0  0
  -27.4043  -29.7207   25.4441 H   0  0  0  0  0  0
  -27.8623  -30.4324   23.9139 H   0  0  0  0  0  0
  -27.2699  -33.3545   26.2076 H   0  0  0  0  0  0
  -28.3882  -32.6796   25.0302 H   0  0  0  0  0  0
  -28.0694  -31.8318   26.5350 H   0  0  0  0  0  0
  -28.2594  -38.0115   24.7523 H   0  0  0  0  0  0
  -28.1082  -36.2642   24.6259 H   0  0  0  0  0  0
  -27.2301  -37.1445   25.8863 H   0  0  0  0  0  0
  -20.9263  -29.8785   21.6998 H   0  0  0  0  0  0
  -26.0161  -38.2873   24.1400 H   0  0  0  0  0  0
  -30.6598  -19.7912   22.6270 H   0  0  0  0  0  0
  -30.6137  -17.3416   22.9077 H   0  0  0  0  0  0
  -29.5631  -19.3460   18.4906 H   0  0  0  0  0  0
  -30.1925  -15.9902   16.4717 H   0  0  0  0  0  0
  -31.3922  -16.1075   17.7553 H   0  0  0  0  0  0
  -30.8056  -17.5669   16.9613 H   0  0  0  0  0  0
  -30.4208  -21.5038   19.3253 H   0  0  0  0  0  0
  -30.8563  -21.7308   20.9964 H   0  0  0  0  0  0
  -28.5130  -17.1610   17.9071 H   0  0  0  0  0  0
  -29.0492  -15.6926   18.6399 H   0  0  0  0  0  0
  -28.4534  -21.8044   21.6559 H   0  0  0  0  0  0
  -27.9874  -21.3344   20.0525 H   0  0  0  0  0  0
  -27.4556  -23.5925   20.1696 H   0  0  0  0  0  0
  -28.8420  -23.5395   19.1305 H   0  0  0  0  0  0
  -30.2165  -24.6768   20.7152 H   0  0  0  0  0  0
  -29.3235  -24.0426   22.0623 H   0  0  0  0  0  0
  -28.8695  -26.3581   22.0625 H   0  0  0  0  0  0
  -27.4031  -25.5446   21.5980 H   0  0  0  0  0  0
  -29.1426  -15.2063   21.5949 H   0  0  0  0  0  0
  1 25  1  0  0  0
  1 30  2  0  0  0
  1 84  1  0  0  0
  2  3  1  0  0  0
  2 25  1  0  0  0
  2 85  1  0  0  0
  2 86  1  0  0  0
  3  4  1  0  0  0
  3 87  1  0  0  0
  3 88  1  0  0  0
  4  5  1  0  0  0
  4 89  1  0  0  0
  4 90  1  0  0  0
  5  6  1  0  0  0
  5 26  1  0  0  0
  5 91  1  0  0  0
  6 25  1  0  0  0
  6 92  1  0  0  0
  6 93  1  0  0  0
  7  8  2  0  0  0
  7 26  1  0  0  0
  7 29  1  0  0  0
  8  9  1  0  0  0
  8 22  1  0  0  0
  9 10  1  0  0  0
  9 27  2  0  0  0
 10 11  2  0  0  0
 10 15  1  0  0  0
 11 12  1  0  0  0
 11 94  1  0  0  0
 12 13  2  0  0  0
 12 95  1  0  0  0
 13 14  1  0  0  0
 13 31  1  0  0  0
 14 15  2  0  0  0
 14 96  1  0  0  0
 15 97  1  0  0  0
 16 17  2  0  0  0
 16 21  1  0  0  0
 16 31  1  0  0  0
 17 18  1  0  0  0
 17 98  1  0  0  0
 18 19  2  0  0  0
 18 99  1  0  0  0
 19 20  1  0  0  0
 19 24  1  0  0  0
 20 21  2  0  0  0
 20100  1  0  0  0
 21 23  1  0  0  0
 22 28  1  0  0  0
 22 32  2  0  0  0
 26 27  1  0  0  0
 28101  1  0  0  0
 28102  1  0  0  0
 29103  1  0  0  0
 29104  1  0  0  0
 33 34  1  0  0  0
 33 66  1  0  0  0
 33 70  2  0  0  0
 34 36  1  0  0  0
 34 59  1  0  0  0
 34105  1  0  0  0
 35 44  2  0  0  0
 35 45  1  0  0  0
 35 68  1  0  0  0
 36 56  1  0  0  0
 36106  1  0  0  0
 37 39  1  0  0  0
 37 47  1  0  0  0
 37 66  1  0  0  0
 37107  1  0  0  0
 38 43  2  0  0  0
 38 46  1  0  0  0
 38 47  1  0  0  0
 39 64  1  0  0  0
 39 67  2  0  0  0
 40 52  1  0  0  0
 40 53  2  0  0  0
 40 58  1  0  0  0
 41108  1  0  0  0
 41109  1  0  0  0
 41110  1  0  0  0
 41 48  1  0  0  0
 42 43  1  0  0  0
 42 66  1  0  0  0
 42111  1  0  0  0
 42112  1  0  0  0
 43 44  1  0  0  0
 44113  1  0  0  0
 45 46  2  0  0  0
 45114  1  0  0  0
 46115  1  0  0  0
 47116  1  0  0  0
 47117  1  0  0  0
 48 56  1  0  0  0
 48 65  1  0  0  0
 48118  1  0  0  0
 49 50  1  0  0  0
 49 53  1  0  0  0
 49 64  1  0  0  0
 49119  1  0  0  0
 50 51  1  0  0  0
 50120  1  0  0  0
 50121  1  0  0  0
 51 52  1  0  0  0
 51122  1  0  0  0
 51123  1  0  0  0
 52124  1  0  0  0
 52125  1  0  0  0
 53 54  1  0  0  0
 54 55  2  0  0  0
 54126  1  0  0  0
 55 57  1  0  0  0
 55127  1  0  0  0
 56 69  2  0  0  0
 57 58  2  0  0  0
 57128  1  0  0  0
 58129  1  0  0  0
 59 60  1  0  0  0
 59 61  1  0  0  0
 59 62  1  0  0  0
 60130  1  0  0  0
 60131  1  0  0  0
 60132  1  0  0  0
 61133  1  0  0  0
 61134  1  0  0  0
 61135  1  0  0  0
 62136  1  0  0  0
 62137  1  0  0  0
 62138  1  0  0  0
 63 65  1  0  0  0
 63139  1  0  0  0
 63140  1  0  0  0
 63141  1  0  0  0
 64142  1  0  0  0
 65143  1  0  0  0
 68 83  1  0  0  0
 71 72  2  0  0  0
 71 74  1  0  0  0
 71144  1  0  0  0
 72 76  1  0  0  0
 72145  1  0  0  0
 73 74  2  0  0  0
 73 75  1  0  0  0
 73146  1  0  0  0
 74 78  1  0  0  0
 75 76  2  0  0  0
 75 79  1  0  0  0
 76 84  1  0  0  0
 77 79  1  0  0  0
 77147  1  0  0  0
 77148  1  0  0  0
 77149  1  0  0  0
 78 80  1  0  0  0
 78150  1  0  0  0
 78151  1  0  0  0
 79152  1  0  0  0
 79153  1  0  0  0
 80 81  1  0  0  0
 80154  1  0  0  0
 80155  1  0  0  0
 81 82  1  0  0  0
 81156  1  0  0  0
 81157  1  0  0  0
 82 83  1  0  0  0
 82158  1  0  0  0
 82159  1  0  0  0
 83160  1  0  0  0
 83161  1  0  0  0
 84162  1  0  0  0
M  ISO  4   1 100  68 101  83 101  84 100
M  END
> <chiral flag>
0

> <version>
0

> <s_m_source_file>
/data/baiqing/PycharmProjects/Reinvent-master-3.2/result/LINK_invent/BTK/process_docking_weight1_custom_product_contain_oxygen_bond_distance_aromatic_linkinvent_7_9_3/rearranged_h_0134.sdf

> <i_m_source_file_index>
10

> <r_mmod_Potential_Energy-OPLS-2005>
-7.85197496414185

> <r_mmod_Stretch_Energy-OPLS-2005>
39.4218063354492

> <r_mmod_Bend_Energy-OPLS-2005>
97.4415054321289

> <r_mmod_Torsional_Energy-OPLS-2005>
274.802520751953

> <r_mmod_Improper_Torsional_Energy-OPLS-2005>
3.71937942504883

> <r_mmod_Van_der_Waal_Energy-OPLS-2005>
134.840606689453

> <r_mmod_Electrostatic_Energy-OPLS-2005>
-373.969573974609

> <r_mmod_Solvation_Energy-OPLS-2005>
-198.168991088867

> <b_mmod_Minimization_Converged-OPLS-2005>
0

> <r_mmod_RMS_Derivative-OPLS-2005>
2.14782285690308

$$$$
10
                    3D
 Structure written by MMmdl.
153161  0  0  1  0            999 V2000
  -30.6674  -14.4607   20.6237 C   0  0  0  0  0  0
  -30.4392  -12.3112   19.4089 C   0  0  0  0  0  0
  -29.5029  -12.5247   18.1997 C   0  0  0  0  0  0
  -28.0203  -12.3839   18.6055 C   0  0  0  0  0  0
  -27.6704  -13.1958   19.8819 C   0  0  2  0  0  0
  -28.7086  -12.9159   20.9916 C   0  0  0  0  0  0
  -25.2638  -13.8143   20.5631 C   0  0  0  0  0  0
  -24.1874  -13.0434   20.9136 C   0  0  0  0  0  0
  -24.6395  -11.6896   20.8705 C   0  0  0  0  0  0
  -23.9039  -10.4297   21.0390 C   0  0  0  0  0  0
  -24.3591   -9.4219   21.9170 C   0  0  0  0  0  0
  -23.6272   -8.2256   22.0748 C   0  0  0  0  0  0
  -22.4265   -8.0284   21.3541 C   0  0  0  0  0  0
  -21.9883   -9.0252   20.4651 C   0  0  0  0  0  0
  -22.7197  -10.2141   20.3052 C   0  0  0  0  0  0
  -21.6866   -6.0728   22.5280 C   0  0  0  0  0  0
  -21.4023   -6.5634   23.8207 C   0  0  0  0  0  0
  -21.3656   -5.6783   24.9166 C   0  0  0  0  0  0
  -21.6040   -4.3049   24.7210 C   0  0  0  0  0  0
  -21.8823   -3.8138   23.4337 C   0  0  0  0  0  0
  -21.9195   -4.6957   22.3397 C   0  0  0  0  0  0
  -22.7895  -13.5253   21.1807 C   0  0  0  0  0  0
  -22.1669   -4.2136   21.0972 F   0  0  0  0  0  0
  -21.5617   -3.4524   25.7723 F   0  0  0  0  0  0
  -30.0441  -13.2577   20.4638 N   0  0  0  0  0  0
  -26.3071  -12.9283   20.3360 N   0  0  0  0  0  0
  -25.9328  -11.6452   20.5743 N   0  0  0  0  0  0
  -22.0530  -12.8279   22.0379 N   0  0  0  0  0  0
  -25.4389  -15.1856   20.4009 N   0  0  0  0  0  0
  -31.7436  -14.7402   20.0849 O   0  0  0  0  0  0
  -21.6644   -6.8870   21.4238 O   0  0  0  0  0  0
  -22.3575  -14.5553   20.6642 O   0  0  0  0  0  0
  -24.6183  -31.8670   23.2088 C   0  0  0  0  0  0
  -25.9069  -32.4818   23.8385 C   0  0  1  0  0  0
  -27.2326  -27.4130   20.0717 C   0  0  0  0  0  0
  -25.5916  -33.8617   24.2312 N   0  0  0  0  0  0
  -23.4059  -30.4937   21.5501 C   0  0  2  0  0  0
  -24.8483  -28.9607   20.1109 C   0  0  0  0  0  0
  -22.7412  -29.4675   22.4969 C   0  0  0  0  0  0
  -18.0282  -28.1372   22.8493 C   0  0  0  0  0  0
  -24.1487  -36.7314   23.2639 C   0  0  0  0  0  0
  -25.9401  -30.8226   21.3683 C   0  0  0  0  0  0
  -26.0125  -29.4587   20.7070 C   0  0  0  0  0  0
  -27.2022  -28.6900   20.6891 C   0  0  0  0  0  0
  -26.0353  -26.9303   19.4902 C   0  0  0  0  0  0
  -24.8554  -27.6952   19.5053 C   0  0  0  0  0  0
  -23.6130  -29.8310   20.1637 C   0  0  0  0  0  0
  -25.4114  -36.3115   24.0334 C   0  0  1  0  0  0
  -20.5873  -28.3675   23.1302 C   0  0  2  0  0  0
  -20.6772  -26.9407   22.5413 C   0  0  0  0  0  0
  -19.5753  -26.6374   21.5212 C   0  0  0  0  0  0
  -18.1929  -26.7919   22.1617 C   0  0  0  0  0  0
  -19.1530  -28.8835   23.2901 C   0  0  0  0  0  0
  -18.9460  -30.1436   23.8920 C   0  0  0  0  0  0
  -17.6461  -30.6582   24.0564 C   0  0  0  0  0  0
  -25.9045  -34.9481   23.5117 C   0  0  0  0  0  0
  -16.5350  -29.9080   23.6331 C   0  0  0  0  0  0
  -16.7270  -28.6492   23.0363 C   0  0  0  0  0  0
  -26.4472  -31.6616   25.0732 C   0  0  0  0  0  0
  -25.3712  -31.3776   26.1467 C   0  0  0  0  0  0
  -27.0304  -30.3046   24.6162 C   0  0  0  0  0  0
  -27.6047  -32.4343   25.7483 C   0  0  0  0  0  0
  -27.5590  -37.1810   24.8457 C   0  0  0  0  0  0
  -21.4137  -29.3042   22.3689 N   0  0  0  0  0  0
  -26.4304  -37.3801   23.9402 N   0  0  0  0  0  0
  -24.6732  -31.0748   22.0999 N   0  0  0  0  0  0
  -23.4163  -28.8227   23.3031 O   0  0  0  0  0  0
  -28.4108  -26.6795   20.1075 O   0  0  0  0  0  0
  -26.5604  -34.8933   22.4681 O   0  0  0  0  0  0
  -23.5371  -32.1438   23.7468 O   0  0  0  0  0  0
  -28.4256  -17.1604   21.5333 C   0  0  0  0  0  0
  -30.6756  -17.6565   20.7695 C   0  0  0  0  0  0
  -28.0779  -18.5176   21.3864 C   0  0  0  0  0  0
  -30.3266  -19.0272   20.6365 C   0  0  0  0  0  0
  -29.7230  -16.7069   21.2130 C   0  0  0  0  0  0
  -29.0133  -19.4751   20.9381 C   0  0  0  0  0  0
  -28.6867  -23.1828   20.3131 C   0  0  0  0  0  0
  -29.4748  -24.4214   19.8289 C   0  0  0  0  0  0
  -29.4486  -21.8347   20.4276 C   0  0  0  0  0  0
  -28.6420  -25.5773   19.2012 C   0  0  0  0  0  0
  -29.9896  -15.3168   21.4127 N   0  0  0  0  0  0
  -27.4888  -23.2684   20.6057 O   0  0  0  0  0  0
  -28.5589  -20.7808   20.8293 O   0  0  0  0  0  0
  -31.4805  -12.4393   19.1088 H   0  0  0  0  0  0
  -30.3621  -11.2861   19.7756 H   0  0  0  0  0  0
  -29.7428  -11.8152   17.4057 H   0  0  0  0  0  0
  -29.6756  -13.5177   17.7813 H   0  0  0  0  0  0
  -27.8191  -11.3246   18.7704 H   0  0  0  0  0  0
  -27.3773  -12.6869   17.7779 H   0  0  0  0  0  0
  -27.7311  -14.2524   19.6212 H   0  0  0  0  0  0
  -28.6898  -11.8588   21.2614 H   0  0  0  0  0  0
  -28.4498  -13.4408   21.9113 H   0  0  0  0  0  0
  -25.2751   -9.5689   22.4728 H   0  0  0  0  0  0
  -23.9974   -7.4656   22.7477 H   0  0  0  0  0  0
  -21.0812   -8.8756   19.8982 H   0  0  0  0  0  0
  -22.3642  -10.9659   19.6152 H   0  0  0  0  0  0
  -21.2035   -7.6153   23.9698 H   0  0  0  0  0  0
  -21.1471   -6.0527   25.9061 H   0  0  0  0  0  0
  -22.0609   -2.7600   23.2848 H   0  0  0  0  0  0
  -22.4109  -11.9933   22.4794 H   0  0  0  0  0  0
  -21.1154  -13.1338   22.2568 H   0  0  0  0  0  0
  -24.6721  -15.8441   20.4905 H   0  0  0  0  0  0
  -26.2835  -15.6133   20.0432 H   0  0  0  0  0  0
  -26.7142  -32.5514   23.1150 H   0  0  0  0  0  0
  -25.0075  -33.9764   25.0463 H   0  0  0  0  0  0
  -22.6979  -31.3135   21.4128 H   0  0  0  0  0  0
  -23.3747  -35.9648   23.3311 H   0  0  0  0  0  0
  -24.3584  -36.8916   22.2054 H   0  0  0  0  0  0
  -23.7227  -37.6519   23.6637 H   0  0  0  0  0  0
  -26.0656  -31.5947   20.6078 H   0  0  0  0  0  0
  -26.8229  -30.8639   21.9951 H   0  0  0  0  0  0
  -28.1006  -29.0754   21.1513 H   0  0  0  0  0  0
  -25.9566  -25.9565   19.0366 H   0  0  0  0  0  0
  -23.9557  -27.2968   19.0564 H   0  0  0  0  0  0
  -23.7221  -30.6094   19.4076 H   0  0  0  0  0  0
  -22.7354  -29.2541   19.8666 H   0  0  0  0  0  0
  -25.1297  -36.1992   25.0827 H   0  0  0  0  0  0
  -20.9983  -28.3258   24.1418 H   0  0  0  0  0  0
  -20.5684  -26.2291   23.3610 H   0  0  0  0  0  0
  -21.6646  -26.7441   22.1211 H   0  0  0  0  0  0
  -19.6920  -25.6283   21.1243 H   0  0  0  0  0  0
  -19.6706  -27.3187   20.6747 H   0  0  0  0  0  0
  -17.4211  -26.6686   21.4007 H   0  0  0  0  0  0
  -18.0322  -26.0045   22.8996 H   0  0  0  0  0  0
  -19.7939  -30.7239   24.2310 H   0  0  0  0  0  0
  -17.5022  -31.6276   24.5140 H   0  0  0  0  0  0
  -15.5350  -30.2995   23.7637 H   0  0  0  0  0  0
  -15.8671  -28.0805   22.7082 H   0  0  0  0  0  0
  -24.5855  -30.7164   25.7798 H   0  0  0  0  0  0
  -24.8948  -32.2963   26.4903 H   0  0  0  0  0  0
  -25.8028  -30.8930   27.0230 H   0  0  0  0  0  0
  -26.2877  -29.6812   24.1174 H   0  0  0  0  0  0
  -27.3998  -29.7300   25.4664 H   0  0  0  0  0  0
  -27.8744  -30.4349   23.9385 H   0  0  0  0  0  0
  -27.2663  -33.3629   26.2098 H   0  0  0  0  0  0
  -28.3830  -32.6928   25.0286 H   0  0  0  0  0  0
  -28.0743  -31.8443   26.5365 H   0  0  0  0  0  0
  -28.2619  -38.0102   24.7511 H   0  0  0  0  0  0
  -28.1073  -36.2633   24.6268 H   0  0  0  0  0  0
  -27.2305  -37.1451   25.8860 H   0  0  0  0  0  0
  -20.9288  -29.8767   21.6920 H   0  0  0  0  0  0
  -26.0197  -38.2882   24.1391 H   0  0  0  0  0  0
  -27.6747  -16.4665   21.8887 H   0  0  0  0  0  0
  -31.6860  -17.3460   20.5437 H   0  0  0  0  0  0
  -27.0709  -18.8288   21.6259 H   0  0  0  0  0  0
  -31.0858  -19.7185   20.3002 H   0  0  0  0  0  0
  -30.1709  -24.0597   19.0723 H   0  0  0  0  0  0
  -30.0857  -24.8045   20.6459 H   0  0  0  0  0  0
  -30.2470  -21.9392   21.1618 H   0  0  0  0  0  0
  -29.9046  -21.5978   19.4662 H   0  0  0  0  0  0
  -27.7610  -25.1591   18.7252 H   0  0  0  0  0  0
  -29.2181  -25.9899   18.3723 H   0  0  0  0  0  0
  -29.2582  -14.8342   21.9110 H   0  0  0  0  0  0
  1 25  1  0  0  0
  1 30  2  0  0  0
  1 81  1  0  0  0
  2  3  1  0  0  0
  2 25  1  0  0  0
  2 84  1  0  0  0
  2 85  1  0  0  0
  3  4  1  0  0  0
  3 86  1  0  0  0
  3 87  1  0  0  0
  4  5  1  0  0  0
  4 88  1  0  0  0
  4 89  1  0  0  0
  5  6  1  0  0  0
  5 26  1  0  0  0
  5 90  1  0  0  0
  6 25  1  0  0  0
  6 91  1  0  0  0
  6 92  1  0  0  0
  7  8  2  0  0  0
  7 26  1  0  0  0
  7 29  1  0  0  0
  8  9  1  0  0  0
  8 22  1  0  0  0
  9 10  1  0  0  0
  9 27  2  0  0  0
 10 11  2  0  0  0
 10 15  1  0  0  0
 11 12  1  0  0  0
 11 93  1  0  0  0
 12 13  2  0  0  0
 12 94  1  0  0  0
 13 14  1  0  0  0
 13 31  1  0  0  0
 14 15  2  0  0  0
 14 95  1  0  0  0
 15 96  1  0  0  0
 16 17  2  0  0  0
 16 21  1  0  0  0
 16 31  1  0  0  0
 17 18  1  0  0  0
 17 97  1  0  0  0
 18 19  2  0  0  0
 18 98  1  0  0  0
 19 20  1  0  0  0
 19 24  1  0  0  0
 20 21  2  0  0  0
 20 99  1  0  0  0
 21 23  1  0  0  0
 22 28  1  0  0  0
 22 32  2  0  0  0
 26 27  1  0  0  0
 28100  1  0  0  0
 28101  1  0  0  0
 29102  1  0  0  0
 29103  1  0  0  0
 33 34  1  0  0  0
 33 66  1  0  0  0
 33 70  2  0  0  0
 34 36  1  0  0  0
 34 59  1  0  0  0
 34104  1  0  0  0
 35 44  2  0  0  0
 35 45  1  0  0  0
 35 68  1  0  0  0
 36 56  1  0  0  0
 36105  1  0  0  0
 37 39  1  0  0  0
 37 47  1  0  0  0
 37 66  1  0  0  0
 37106  1  0  0  0
 38 43  2  0  0  0
 38 46  1  0  0  0
 38 47  1  0  0  0
 39 64  1  0  0  0
 39 67  2  0  0  0
 40 52  1  0  0  0
 40 53  2  0  0  0
 40 58  1  0  0  0
 41107  1  0  0  0
 41108  1  0  0  0
 41109  1  0  0  0
 41 48  1  0  0  0
 42 43  1  0  0  0
 42 66  1  0  0  0
 42110  1  0  0  0
 42111  1  0  0  0
 43 44  1  0  0  0
 44112  1  0  0  0
 45 46  2  0  0  0
 45113  1  0  0  0
 46114  1  0  0  0
 47115  1  0  0  0
 47116  1  0  0  0
 48 56  1  0  0  0
 48 65  1  0  0  0
 48117  1  0  0  0
 49 50  1  0  0  0
 49 53  1  0  0  0
 49 64  1  0  0  0
 49118  1  0  0  0
 50 51  1  0  0  0
 50119  1  0  0  0
 50120  1  0  0  0
 51 52  1  0  0  0
 51121  1  0  0  0
 51122  1  0  0  0
 52123  1  0  0  0
 52124  1  0  0  0
 53 54  1  0  0  0
 54 55  2  0  0  0
 54125  1  0  0  0
 55 57  1  0  0  0
 55126  1  0  0  0
 56 69  2  0  0  0
 57 58  2  0  0  0
 57127  1  0  0  0
 58128  1  0  0  0
 59 60  1  0  0  0
 59 61  1  0  0  0
 59 62  1  0  0  0
 60129  1  0  0  0
 60130  1  0  0  0
 60131  1  0  0  0
 61132  1  0  0  0
 61133  1  0  0  0
 61134  1  0  0  0
 62135  1  0  0  0
 62136  1  0  0  0
 62137  1  0  0  0
 63 65  1  0  0  0
 63138  1  0  0  0
 63139  1  0  0  0
 63140  1  0  0  0
 64141  1  0  0  0
 65142  1  0  0  0
 68 80  1  0  0  0
 71 73  2  0  0  0
 71 75  1  0  0  0
 71143  1  0  0  0
 72 74  1  0  0  0
 72 75  2  0  0  0
 72144  1  0  0  0
 73 76  1  0  0  0
 73145  1  0  0  0
 74 76  2  0  0  0
 74146  1  0  0  0
 75 81  1  0  0  0
 76 83  1  0  0  0
 77 78  1  0  0  0
 77 79  1  0  0  0
 77 82  2  0  0  0
 78 80  1  0  0  0
 78147  1  0  0  0
 78148  1  0  0  0
 79 83  1  0  0  0
 79149  1  0  0  0
 79150  1  0  0  0
 80151  1  0  0  0
 80152  1  0  0  0
 81153  1  0  0  0
M  ISO  4   1 100  68 101  80 101  81 100
M  END
> <chiral flag>
0

> <version>
0

> <s_m_source_file>
/data/baiqing/PycharmProjects/Reinvent-master-3.2/result/LINK_invent/BTK/process_docking_weight1_custom_product_contain_oxygen_bond_distance_aromatic_linkinvent_7_9_3/rearranged_h_0134.sdf

> <i_m_source_file_index>
11

> <r_mmod_Potential_Energy-OPLS-2005>
-59.4856338500977

> <r_mmod_Stretch_Energy-OPLS-2005>
42.505184173584

> <r_mmod_Bend_Energy-OPLS-2005>
123.43383026123

> <r_mmod_Torsional_Energy-OPLS-2005>
213.462753295898

> <r_mmod_Improper_Torsional_Energy-OPLS-2005>
4.67869520187378

> <r_mmod_Van_der_Waal_Energy-OPLS-2005>
151.331771850586

> <r_mmod_Electrostatic_Energy-OPLS-2005>
-373.384338378906

> <r_mmod_Solvation_Energy-OPLS-2005>
-235.569076538086

> <b_mmod_Minimization_Converged-OPLS-2005>
0

> <r_mmod_RMS_Derivative-OPLS-2005>
2.28735423088074

$$$$
11
                    3D
 Structure written by MMmdl.
164172  0  0  1  0            999 V2000
  -30.7099  -14.4499   20.5211 C   0  0  0  0  0  0
  -30.4149  -12.2725   19.4383 C   0  0  0  0  0  0
  -29.4988  -12.4740   18.2132 C   0  0  0  0  0  0
  -28.0175  -12.3487   18.6222 C   0  0  0  0  0  0
  -27.6597  -13.2043   19.8675 C   0  0  2  0  0  0
  -28.6972  -13.0054   20.9967 C   0  0  0  0  0  0
  -25.2577  -13.8166   20.5629 C   0  0  0  0  0  0
  -24.1833  -13.0439   20.9146 C   0  0  0  0  0  0
  -24.6381  -11.6906   20.8715 C   0  0  0  0  0  0
  -23.9053  -10.4289   21.0378 C   0  0  0  0  0  0
  -24.3611   -9.4214   21.9151 C   0  0  0  0  0  0
  -23.6299   -8.2243   22.0728 C   0  0  0  0  0  0
  -22.4287   -8.0271   21.3514 C   0  0  0  0  0  0
  -21.9908   -9.0241   20.4626 C   0  0  0  0  0  0
  -22.7219  -10.2133   20.3036 C   0  0  0  0  0  0
  -21.6850   -6.0726   22.5277 C   0  0  0  0  0  0
  -21.4009   -6.5632   23.8207 C   0  0  0  0  0  0
  -21.3671   -5.6778   24.9165 C   0  0  0  0  0  0
  -21.6058   -4.3042   24.7211 C   0  0  0  0  0  0
  -21.8821   -3.8130   23.4333 C   0  0  0  0  0  0
  -21.9189   -4.6951   22.3388 C   0  0  0  0  0  0
  -22.7866  -13.5235   21.1833 C   0  0  0  0  0  0
  -22.1650   -4.2141   21.0959 F   0  0  0  0  0  0
  -21.5646   -3.4523   25.7718 F   0  0  0  0  0  0
  -30.0332  -13.2750   20.4428 N   0  0  0  0  0  0
  -26.3000  -12.9336   20.3298 N   0  0  0  0  0  0
  -25.9303  -11.6498   20.5737 N   0  0  0  0  0  0
  -22.0499  -12.8246   22.0407 N   0  0  0  0  0  0
  -25.4313  -15.1885   20.4059 N   0  0  0  0  0  0
  -31.8764  -14.5686   20.1399 O   0  0  0  0  0  0
  -21.6652   -6.8867   21.4234 O   0  0  0  0  0  0
  -22.3552  -14.5522   20.6644 O   0  0  0  0  0  0
  -24.6108  -31.8692   23.2128 C   0  0  0  0  0  0
  -25.9015  -32.4826   23.8406 C   0  0  1  0  0  0
  -27.2420  -27.4576   20.0934 C   0  0  0  0  0  0
  -25.5871  -33.8619   24.2338 N   0  0  0  0  0  0
  -23.4001  -30.4928   21.5508 C   0  0  2  0  0  0
  -24.8505  -28.9605   20.1182 C   0  0  0  0  0  0
  -22.7388  -29.4661   22.4979 C   0  0  0  0  0  0
  -18.0268  -28.1381   22.8492 C   0  0  0  0  0  0
  -24.1478  -36.7329   23.2644 C   0  0  0  0  0  0
  -25.9262  -30.8388   21.3664 C   0  0  0  0  0  0
  -26.0065  -29.4714   20.7229 C   0  0  0  0  0  0
  -27.2064  -28.7247   20.7209 C   0  0  0  0  0  0
  -26.0765  -26.9631   19.4790 C   0  0  0  0  0  0
  -24.8761  -27.6995   19.4969 C   0  0  0  0  0  0
  -23.6111  -29.8257   20.1653 C   0  0  0  0  0  0
  -25.4094  -36.3111   24.0347 C   0  0  1  0  0  0
  -20.5859  -28.3663   23.1317 C   0  0  2  0  0  0
  -20.6760  -26.9398   22.5425 C   0  0  0  0  0  0
  -19.5748  -26.6386   21.5211 C   0  0  0  0  0  0
  -18.1923  -26.7936   22.1609 C   0  0  0  0  0  0
  -19.1522  -28.8837   23.2910 C   0  0  0  0  0  0
  -18.9452  -30.1446   23.8915 C   0  0  0  0  0  0
  -17.6459  -30.6588   24.0572 C   0  0  0  0  0  0
  -25.9018  -34.9478   23.5135 C   0  0  0  0  0  0
  -16.5346  -29.9097   23.6321 C   0  0  0  0  0  0
  -16.7263  -28.6515   23.0338 C   0  0  0  0  0  0
  -26.4475  -31.6600   25.0717 C   0  0  0  0  0  0
  -25.3762  -31.3717   26.1484 C   0  0  0  0  0  0
  -27.0314  -30.3039   24.6089 C   0  0  0  0  0  0
  -27.6054  -32.4329   25.7464 C   0  0  0  0  0  0
  -27.5581  -37.1815   24.8468 C   0  0  0  0  0  0
  -21.4128  -29.3032   22.3715 N   0  0  0  0  0  0
  -26.4293  -37.3785   23.9414 N   0  0  0  0  0  0
  -24.6632  -31.0813   22.1017 N   0  0  0  0  0  0
  -23.4168  -28.8194   23.3013 O   0  0  0  0  0  0
  -28.3702  -26.6746   20.0098 O   0  0  0  0  0  0
  -26.5583  -34.8925   22.4702 O   0  0  0  0  0  0
  -23.5306  -32.1449   23.7533 O   0  0  0  0  0  0
  -30.4097  -19.5464   19.5347 C   0  0  0  0  0  0
  -30.8640  -17.1738   19.2420 C   0  0  0  0  0  0
  -29.5506  -17.9319   21.1486 C   0  0  0  0  0  0
  -31.0004  -18.5020   18.8018 C   0  0  0  0  0  0
  -29.6823  -19.2765   20.7117 C   0  0  0  0  0  0
  -30.1523  -16.8689   20.4303 C   0  0  0  0  0  0
  -29.4576  -23.9482   21.2805 C   0  0  0  0  0  0
  -31.7740  -18.8054   17.5333 C   0  0  0  0  0  0
  -31.8300  -22.9660   21.0141 C   0  0  0  0  0  0
  -29.0217  -20.4206   21.4836 C   0  0  0  0  0  0
  -30.1029  -25.3292   21.0463 C   0  0  0  0  0  0
  -29.9986  -21.5041   21.9997 C   0  0  0  0  0  0
  -29.1706  -26.5554   21.1798 C   0  0  0  0  0  0
  -30.3126  -22.6790   21.0226 C   0  0  1  0  0  0
  -29.9746  -15.5214   20.8826 N   0  0  0  0  0  0
  -28.2814  -23.8468   21.6411 O   0  0  0  0  0  0
  -31.4636  -12.3445   19.1440 H   0  0  0  0  0  0
  -30.2869  -11.2696   19.8503 H   0  0  0  0  0  0
  -29.7361  -11.7352   17.4469 H   0  0  0  0  0  0
  -29.6821  -13.4519   17.7655 H   0  0  0  0  0  0
  -27.8240  -11.2969   18.8343 H   0  0  0  0  0  0
  -27.3705  -12.6063   17.7821 H   0  0  0  0  0  0
  -27.7014  -14.2470   19.5556 H   0  0  0  0  0  0
  -28.6573  -11.9827   21.3715 H   0  0  0  0  0  0
  -28.4706  -13.6435   21.8524 H   0  0  0  0  0  0
  -25.2759   -9.5700   22.4726 H   0  0  0  0  0  0
  -23.9995   -7.4648   22.7464 H   0  0  0  0  0  0
  -21.0814   -8.8774   19.8968 H   0  0  0  0  0  0
  -22.3646  -10.9671   19.6165 H   0  0  0  0  0  0
  -21.2005   -7.6138   23.9706 H   0  0  0  0  0  0
  -21.1494   -6.0501   25.9068 H   0  0  0  0  0  0
  -22.0594   -2.7595   23.2828 H   0  0  0  0  0  0
  -22.4099  -11.9941   22.4868 H   0  0  0  0  0  0
  -21.1118  -13.1304   22.2574 H   0  0  0  0  0  0
  -24.6688  -15.8467   20.5270 H   0  0  0  0  0  0
  -26.2882  -15.6256   20.0909 H   0  0  0  0  0  0
  -26.7083  -32.5570   23.1176 H   0  0  0  0  0  0
  -25.0013  -33.9781   25.0471 H   0  0  0  0  0  0
  -22.6890  -31.3089   21.4116 H   0  0  0  0  0  0
  -23.3719  -35.9689   23.3329 H   0  0  0  0  0  0
  -24.3569  -36.8910   22.2056 H   0  0  0  0  0  0
  -23.7260  -37.6554   23.6638 H   0  0  0  0  0  0
  -26.0326  -31.6020   20.5940 H   0  0  0  0  0  0
  -26.8169  -30.8974   21.9798 H   0  0  0  0  0  0
  -28.0972  -29.1309   21.1790 H   0  0  0  0  0  0
  -26.0978  -26.0004   18.9878 H   0  0  0  0  0  0
  -23.9901  -27.3000   19.0228 H   0  0  0  0  0  0
  -23.7213  -30.6029   19.4075 H   0  0  0  0  0  0
  -22.7367  -29.2437   19.8671 H   0  0  0  0  0  0
  -25.1270  -36.1982   25.0842 H   0  0  0  0  0  0
  -20.9959  -28.3244   24.1430 H   0  0  0  0  0  0
  -20.5625  -26.2280   23.3614 H   0  0  0  0  0  0
  -21.6638  -26.7426   22.1231 H   0  0  0  0  0  0
  -19.6899  -25.6297   21.1231 H   0  0  0  0  0  0
  -19.6697  -27.3203   20.6745 H   0  0  0  0  0  0
  -17.4194  -26.6696   21.4009 H   0  0  0  0  0  0
  -18.0319  -26.0076   22.8995 H   0  0  0  0  0  0
  -19.7934  -30.7259   24.2290 H   0  0  0  0  0  0
  -17.5015  -31.6262   24.5186 H   0  0  0  0  0  0
  -15.5345  -30.3005   23.7635 H   0  0  0  0  0  0
  -15.8665  -28.0846   22.7022 H   0  0  0  0  0  0
  -24.5911  -30.7081   25.7841 H   0  0  0  0  0  0
  -24.8986  -32.2885   26.4951 H   0  0  0  0  0  0
  -25.8130  -30.8877   27.0225 H   0  0  0  0  0  0
  -26.2853  -29.6775   24.1183 H   0  0  0  0  0  0
  -27.4129  -29.7294   25.4542 H   0  0  0  0  0  0
  -27.8664  -30.4355   23.9203 H   0  0  0  0  0  0
  -27.2659  -33.3599   26.2097 H   0  0  0  0  0  0
  -28.3821  -32.6942   25.0264 H   0  0  0  0  0  0
  -28.0778  -31.8432   26.5330 H   0  0  0  0  0  0
  -28.2613  -38.0095   24.7467 H   0  0  0  0  0  0
  -28.1051  -36.2620   24.6326 H   0  0  0  0  0  0
  -27.2305  -37.1517   25.8874 H   0  0  0  0  0  0
  -20.9262  -29.8761   21.6957 H   0  0  0  0  0  0
  -26.0183  -38.2867   24.1393 H   0  0  0  0  0  0
  -30.5166  -20.5563   19.1732 H   0  0  0  0  0  0
  -31.3109  -16.3965   18.6379 H   0  0  0  0  0  0
  -28.9841  -17.7155   22.0440 H   0  0  0  0  0  0
  -32.2841  -19.7656   17.6076 H   0  0  0  0  0  0
  -31.1027  -18.8451   16.6749 H   0  0  0  0  0  0
  -32.5281  -18.0415   17.3373 H   0  0  0  0  0  0
  -32.1099  -23.6630   20.2238 H   0  0  0  0  0  0
  -32.3983  -22.0529   20.8340 H   0  0  0  0  0  0
  -32.1688  -23.3746   21.9675 H   0  0  0  0  0  0
  -28.5147  -19.9837   22.3448 H   0  0  0  0  0  0
  -28.2377  -20.8727   20.8752 H   0  0  0  0  0  0
  -30.5785  -25.3410   20.0658 H   0  0  0  0  0  0
  -30.9024  -25.4238   21.7802 H   0  0  0  0  0  0
  -30.9142  -21.0177   22.3394 H   0  0  0  0  0  0
  -29.5722  -21.9233   22.9130 H   0  0  0  0  0  0
  -29.7779  -27.4546   21.2872 H   0  0  0  0  0  0
  -28.5532  -26.4754   22.0758 H   0  0  0  0  0  0
  -30.0438  -22.3682   20.0153 H   0  0  0  0  0  0
  -29.1072  -15.3211   21.3593 H   0  0  0  0  0  0
  1 25  1  0  0  0
  1 30  2  0  0  0
  1 85  1  0  0  0
  2  3  1  0  0  0
  2 25  1  0  0  0
  2 87  1  0  0  0
  2 88  1  0  0  0
  3  4  1  0  0  0
  3 89  1  0  0  0
  3 90  1  0  0  0
  4  5  1  0  0  0
  4 91  1  0  0  0
  4 92  1  0  0  0
  5  6  1  0  0  0
  5 26  1  0  0  0
  5 93  1  0  0  0
  6 25  1  0  0  0
  6 94  1  0  0  0
  6 95  1  0  0  0
  7  8  2  0  0  0
  7 26  1  0  0  0
  7 29  1  0  0  0
  8  9  1  0  0  0
  8 22  1  0  0  0
  9 10  1  0  0  0
  9 27  2  0  0  0
 10 11  2  0  0  0
 10 15  1  0  0  0
 11 12  1  0  0  0
 11 96  1  0  0  0
 12 13  2  0  0  0
 12 97  1  0  0  0
 13 14  1  0  0  0
 13 31  1  0  0  0
 14 15  2  0  0  0
 14 98  1  0  0  0
 15 99  1  0  0  0
 16 17  2  0  0  0
 16 21  1  0  0  0
 16 31  1  0  0  0
 17 18  1  0  0  0
 17100  1  0  0  0
 18 19  2  0  0  0
 18101  1  0  0  0
 19 20  1  0  0  0
 19 24  1  0  0  0
 20 21  2  0  0  0
 20102  1  0  0  0
 21 23  1  0  0  0
 22 28  1  0  0  0
 22 32  2  0  0  0
 26 27  1  0  0  0
 28103  1  0  0  0
 28104  1  0  0  0
 29105  1  0  0  0
 29106  1  0  0  0
 33 34  1  0  0  0
 33 66  1  0  0  0
 33 70  2  0  0  0
 34 36  1  0  0  0
 34 59  1  0  0  0
 34107  1  0  0  0
 35 44  2  0  0  0
 35 45  1  0  0  0
 35 68  1  0  0  0
 36 56  1  0  0  0
 36108  1  0  0  0
 37 39  1  0  0  0
 37 47  1  0  0  0
 37 66  1  0  0  0
 37109  1  0  0  0
 38 43  2  0  0  0
 38 46  1  0  0  0
 38 47  1  0  0  0
 39 64  1  0  0  0
 39 67  2  0  0  0
 40 52  1  0  0  0
 40 53  2  0  0  0
 40 58  1  0  0  0
 41110  1  0  0  0
 41111  1  0  0  0
 41112  1  0  0  0
 41 48  1  0  0  0
 42 43  1  0  0  0
 42 66  1  0  0  0
 42113  1  0  0  0
 42114  1  0  0  0
 43 44  1  0  0  0
 44115  1  0  0  0
 45 46  2  0  0  0
 45116  1  0  0  0
 46117  1  0  0  0
 47118  1  0  0  0
 47119  1  0  0  0
 48 56  1  0  0  0
 48 65  1  0  0  0
 48120  1  0  0  0
 49 50  1  0  0  0
 49 53  1  0  0  0
 49 64  1  0  0  0
 49121  1  0  0  0
 50 51  1  0  0  0
 50122  1  0  0  0
 50123  1  0  0  0
 51 52  1  0  0  0
 51124  1  0  0  0
 51125  1  0  0  0
 52126  1  0  0  0
 52127  1  0  0  0
 53 54  1  0  0  0
 54 55  2  0  0  0
 54128  1  0  0  0
 55 57  1  0  0  0
 55129  1  0  0  0
 56 69  2  0  0  0
 57 58  2  0  0  0
 57130  1  0  0  0
 58131  1  0  0  0
 59 60  1  0  0  0
 59 61  1  0  0  0
 59 62  1  0  0  0
 60132  1  0  0  0
 60133  1  0  0  0
 60134  1  0  0  0
 61135  1  0  0  0
 61136  1  0  0  0
 61137  1  0  0  0
 62138  1  0  0  0
 62139  1  0  0  0
 62140  1  0  0  0
 63 65  1  0  0  0
 63141  1  0  0  0
 63142  1  0  0  0
 63143  1  0  0  0
 64144  1  0  0  0
 65145  1  0  0  0
 68 83  1  0  0  0
 71 74  2  0  0  0
 71 75  1  0  0  0
 71146  1  0  0  0
 72 74  1  0  0  0
 72 76  2  0  0  0
 72147  1  0  0  0
 73 75  2  0  0  0
 73 76  1  0  0  0
 73148  1  0  0  0
 74 78  1  0  0  0
 75 80  1  0  0  0
 76 85  1  0  0  0
 77 81  1  0  0  0
 77 84  1  0  0  0
 77 86  2  0  0  0
 78149  1  0  0  0
 78150  1  0  0  0
 78151  1  0  0  0
 79152  1  0  0  0
 79153  1  0  0  0
 79154  1  0  0  0
 79 84  1  0  0  0
 80 82  1  0  0  0
 80155  1  0  0  0
 80156  1  0  0  0
 81 83  1  0  0  0
 81157  1  0  0  0
 81158  1  0  0  0
 82 84  1  0  0  0
 82159  1  0  0  0
 82160  1  0  0  0
 83161  1  0  0  0
 83162  1  0  0  0
 84163  1  0  0  0
 85164  1  0  0  0
M  ISO  4   1 100  68 101  83 101  85 100
M  END
> <chiral flag>
0

> <version>
0

> <s_m_source_file>
/data/baiqing/PycharmProjects/Reinvent-master-3.2/result/LINK_invent/BTK/process_docking_weight1_custom_product_contain_oxygen_bond_distance_aromatic_linkinvent_7_9_3/rearranged_h_0134.sdf

> <i_m_source_file_index>
12

> <r_mmod_Potential_Energy-OPLS-2005>
-37.8103294372559

> <r_mmod_Stretch_Energy-OPLS-2005>
37.0530738830566

> <r_mmod_Bend_Energy-OPLS-2005>
98.4742813110352

> <r_mmod_Torsional_Energy-OPLS-2005>
239.262496948242

> <r_mmod_Improper_Torsional_Energy-OPLS-2005>
4.35265779495239

> <r_mmod_Van_der_Waal_Energy-OPLS-2005>
157.546691894531

> <r_mmod_Electrostatic_Energy-OPLS-2005>
-374.481964111328

> <r_mmod_Solvation_Energy-OPLS-2005>
-214.148590087891

> <b_mmod_Minimization_Converged-OPLS-2005>
0

> <r_mmod_RMS_Derivative-OPLS-2005>
2.63603234291077

$$$$
12
                    3D
 Structure written by MMmdl.
168176  0  0  1  0            999 V2000
  -30.6311  -14.5440   20.5687 C   0  0  0  0  0  0
  -30.4275  -12.3492   19.4322 C   0  0  0  0  0  0
  -29.4947  -12.5030   18.2081 C   0  0  0  0  0  0
  -28.0142  -12.3565   18.6154 C   0  0  0  0  0  0
  -27.6592  -13.1979   19.8698 C   0  0  2  0  0  0
  -28.6969  -12.9848   20.9947 C   0  0  0  0  0  0
  -25.2628  -13.8152   20.5678 C   0  0  0  0  0  0
  -24.1868  -13.0445   20.9222 C   0  0  0  0  0  0
  -24.6386  -11.6905   20.8743 C   0  0  0  0  0  0
  -23.9045  -10.4318   21.0416 C   0  0  0  0  0  0
  -24.3629   -9.4243   21.9178 C   0  0  0  0  0  0
  -23.6316   -8.2270   22.0748 C   0  0  0  0  0  0
  -22.4285   -8.0319   21.3554 C   0  0  0  0  0  0
  -21.9922   -9.0274   20.4653 C   0  0  0  0  0  0
  -22.7231  -10.2155   20.3060 C   0  0  0  0  0  0
  -21.6838   -6.0765   22.5292 C   0  0  0  0  0  0
  -21.4015   -6.5658   23.8228 C   0  0  0  0  0  0
  -21.3655   -5.6810   24.9183 C   0  0  0  0  0  0
  -21.6044   -4.3059   24.7234 C   0  0  0  0  0  0
  -21.8820   -3.8169   23.4335 C   0  0  0  0  0  0
  -21.9209   -4.7004   22.3408 C   0  0  0  0  0  0
  -22.7902  -13.5282   21.1851 C   0  0  0  0  0  0
  -22.1662   -4.2195   21.0978 F   0  0  0  0  0  0
  -21.5634   -3.4540   25.7724 F   0  0  0  0  0  0
  -30.0146  -13.3357   20.4447 N   0  0  0  0  0  0
  -26.3030  -12.9279   20.3345 N   0  0  0  0  0  0
  -25.9309  -11.6432   20.5759 N   0  0  0  0  0  0
  -22.0539  -12.8279   22.0408 N   0  0  0  0  0  0
  -25.4448  -15.1844   20.4071 N   0  0  0  0  0  0
  -31.7630  -14.7564   20.1301 O   0  0  0  0  0  0
  -21.6633   -6.8902   21.4242 O   0  0  0  0  0  0
  -22.3606  -14.5606   20.6711 O   0  0  0  0  0  0
  -24.6233  -31.8633   23.2112 C   0  0  0  0  0  0
  -25.9092  -32.4856   23.8376 C   0  0  1  0  0  0
  -27.2194  -27.3896   20.0421 C   0  0  0  0  0  0
  -25.5910  -33.8634   24.2322 N   0  0  0  0  0  0
  -23.4127  -30.4926   21.5585 C   0  0  2  0  0  0
  -24.8471  -28.9572   20.1150 C   0  0  0  0  0  0
  -22.7416  -29.4679   22.5019 C   0  0  0  0  0  0
  -18.0281  -28.1385   22.8512 C   0  0  0  0  0  0
  -24.1488  -36.7333   23.2634 C   0  0  0  0  0  0
  -25.9527  -30.8133   21.3697 C   0  0  0  0  0  0
  -26.0177  -29.4450   20.7082 C   0  0  0  0  0  0
  -27.2038  -28.6673   20.6674 C   0  0  0  0  0  0
  -26.0125  -26.9225   19.4735 C   0  0  0  0  0  0
  -24.8397  -27.6947   19.4957 C   0  0  0  0  0  0
  -23.6130  -29.8271   20.1759 C   0  0  0  0  0  0
  -25.4113  -36.3144   24.0332 C   0  0  1  0  0  0
  -20.5860  -28.3756   23.1319 C   0  0  2  0  0  0
  -20.6799  -26.9514   22.5436 C   0  0  0  0  0  0
  -19.5776  -26.6305   21.5306 C   0  0  0  0  0  0
  -18.1955  -26.7870   22.1756 C   0  0  0  0  0  0
  -19.1514  -28.8916   23.2836 C   0  0  0  0  0  0
  -18.9410  -30.1522   23.8865 C   0  0  0  0  0  0
  -17.6411  -30.6614   24.0529 C   0  0  0  0  0  0
  -25.9040  -34.9507   23.5119 C   0  0  0  0  0  0
  -16.5316  -29.9056   23.6319 C   0  0  0  0  0  0
  -16.7268  -28.6462   23.0396 C   0  0  0  0  0  0
  -26.4459  -31.6649   25.0741 C   0  0  0  0  0  0
  -25.3671  -31.3742   26.1459 C   0  0  0  0  0  0
  -27.0250  -30.3073   24.6151 C   0  0  0  0  0  0
  -27.6039  -32.4330   25.7514 C   0  0  0  0  0  0
  -27.5582  -37.1838   24.8466 C   0  0  0  0  0  0
  -21.4145  -29.3090   22.3733 N   0  0  0  0  0  0
  -26.4314  -37.3812   23.9394 N   0  0  0  0  0  0
  -24.6860  -31.0626   22.1097 N   0  0  0  0  0  0
  -23.4137  -28.8160   23.3039 O   0  0  0  0  0  0
  -28.3953  -26.6450   20.0089 O   0  0  0  0  0  0
  -26.5592  -34.8951   22.4695 O   0  0  0  0  0  0
  -23.5386  -32.1431   23.7459 O   0  0  0  0  0  0
  -29.2661  -17.5612   18.9126 C   0  0  0  0  0  0
  -28.5954  -18.4024   18.0034 C   0  0  0  0  0  0
  -28.9649  -19.2324   20.6443 C   0  0  0  0  0  0
  -29.4313  -17.9441   20.2566 C   0  0  0  0  0  0
  -28.0880  -19.6558   18.4059 C   0  0  0  0  0  0
  -28.3138  -20.1126   19.7323 C   0  0  0  0  0  0
  -27.3142  -20.4857   17.3952 C   0  0  0  0  0  0
  -29.9324  -23.6423   22.4203 C   0  0  0  0  0  0
  -27.2958  -24.2802   21.2470 C   0  0  0  0  0  0
  -27.8175  -21.4923   20.2229 C   0  0  0  0  0  0
  -30.1455  -16.9830   21.2364 C   0  0  0  0  0  0
  -29.8551  -23.9391   20.9164 C   0  0  0  0  0  0
  -28.1790  -22.7799   19.4033 C   0  0  0  0  0  0
  -28.4781  -25.3607   19.3171 C   0  0  0  0  0  0
  -28.4498  -24.0840   20.2431 C   0  0  1  0  0  0
  -29.8544  -15.5422   21.0633 N   0  0  0  0  0  0
  -31.4721  -12.4780   19.1419 H   0  0  0  0  0  0
  -30.3484  -11.3420   19.8471 H   0  0  0  0  0  0
  -29.7459  -11.7550   17.4550 H   0  0  0  0  0  0
  -29.6511  -13.4755   17.7385 H   0  0  0  0  0  0
  -27.8263  -11.2998   18.8067 H   0  0  0  0  0  0
  -27.3633  -12.6299   17.7823 H   0  0  0  0  0  0
  -27.6988  -14.2453   19.5666 H   0  0  0  0  0  0
  -28.6983  -11.9432   21.3168 H   0  0  0  0  0  0
  -28.4466  -13.5548   21.8922 H   0  0  0  0  0  0
  -25.2776   -9.5697   22.4739 H   0  0  0  0  0  0
  -24.0041   -7.4634   22.7439 H   0  0  0  0  0  0
  -21.0883   -8.8824   19.8923 H   0  0  0  0  0  0
  -22.3734  -10.9723   19.6192 H   0  0  0  0  0  0
  -21.1971   -7.6156   23.9754 H   0  0  0  0  0  0
  -21.1469   -6.0514   25.9097 H   0  0  0  0  0  0
  -22.0590   -2.7641   23.2823 H   0  0  0  0  0  0
  -22.4183  -11.9943   22.4778 H   0  0  0  0  0  0
  -21.1144  -13.1318   22.2593 H   0  0  0  0  0  0
  -24.6884  -15.8472   20.5221 H   0  0  0  0  0  0
  -26.2961  -15.6138   20.0657 H   0  0  0  0  0  0
  -26.7166  -32.5501   23.1109 H   0  0  0  0  0  0
  -25.0084  -33.9759   25.0487 H   0  0  0  0  0  0
  -22.7030  -31.3140   21.4234 H   0  0  0  0  0  0
  -23.3752  -35.9671   23.3358 H   0  0  0  0  0  0
  -24.3572  -36.8892   22.2042 H   0  0  0  0  0  0
  -23.7238  -37.6557   23.6591 H   0  0  0  0  0  0
  -26.0477  -31.5760   20.5968 H   0  0  0  0  0  0
  -26.8516  -30.8688   21.9764 H   0  0  0  0  0  0
  -28.1171  -29.0364   21.1076 H   0  0  0  0  0  0
  -25.9287  -25.9527   19.0156 H   0  0  0  0  0  0
  -23.9376  -27.3167   19.0361 H   0  0  0  0  0  0
  -23.6964  -30.6025   19.4108 H   0  0  0  0  0  0
  -22.7396  -29.2379   19.8968 H   0  0  0  0  0  0
  -25.1292  -36.2019   25.0818 H   0  0  0  0  0  0
  -20.9892  -28.3372   24.1456 H   0  0  0  0  0  0
  -20.5825  -26.2425   23.3665 H   0  0  0  0  0  0
  -21.6635  -26.7620   22.1159 H   0  0  0  0  0  0
  -19.6981  -25.6104   21.1648 H   0  0  0  0  0  0
  -19.6687  -27.2949   20.6682 H   0  0  0  0  0  0
  -17.4179  -26.6485   21.4237 H   0  0  0  0  0  0
  -18.0462  -26.0051   22.9206 H   0  0  0  0  0  0
  -19.7881  -30.7365   24.2263 H   0  0  0  0  0  0
  -17.4926  -31.6296   24.5125 H   0  0  0  0  0  0
  -15.5286  -30.2949   23.7689 H   0  0  0  0  0  0
  -15.8635  -28.0759   22.7190 H   0  0  0  0  0  0
  -24.5903  -30.7034   25.7784 H   0  0  0  0  0  0
  -24.8787  -32.2883   26.4835 H   0  0  0  0  0  0
  -25.8005  -30.8968   27.0264 H   0  0  0  0  0  0
  -26.2809  -29.6898   24.1134 H   0  0  0  0  0  0
  -27.3899  -29.7242   25.4612 H   0  0  0  0  0  0
  -27.8684  -30.4368   23.9376 H   0  0  0  0  0  0
  -27.2702  -33.3646   26.2082 H   0  0  0  0  0  0
  -28.3869  -32.6875   25.0359 H   0  0  0  0  0  0
  -28.0683  -31.8450   26.5429 H   0  0  0  0  0  0
  -28.2649  -38.0097   24.7507 H   0  0  0  0  0  0
  -28.1032  -36.2629   24.6315 H   0  0  0  0  0  0
  -27.2291  -37.1537   25.8871 H   0  0  0  0  0  0
  -20.9334  -29.8743   21.6886 H   0  0  0  0  0  0
  -26.0225  -38.2910   24.1333 H   0  0  0  0  0  0
  -29.6641  -16.6147   18.5753 H   0  0  0  0  0  0
  -28.4520  -18.0714   16.9844 H   0  0  0  0  0  0
  -29.1172  -19.5517   21.6686 H   0  0  0  0  0  0
  -27.9756  -21.2308   16.9537 H   0  0  0  0  0  0
  -26.4746  -21.0052   17.8610 H   0  0  0  0  0  0
  -26.9057  -19.8721   16.5911 H   0  0  0  0  0  0
  -29.4561  -22.7044   22.7095 H   0  0  0  0  0  0
  -29.4974  -24.4477   23.0156 H   0  0  0  0  0  0
  -30.9831  -23.5566   22.6970 H   0  0  0  0  0  0
  -27.1810  -23.4322   21.9177 H   0  0  0  0  0  0
  -26.3524  -24.4066   20.7238 H   0  0  0  0  0  0
  -27.4582  -25.1584   21.8684 H   0  0  0  0  0  0
  -28.2019  -21.5993   21.2310 H   0  0  0  0  0  0
  -26.7346  -21.4401   20.3282 H   0  0  0  0  0  0
  -29.8544  -17.2462   22.2536 H   0  0  0  0  0  0
  -31.2197  -17.1641   21.2058 H   0  0  0  0  0  0
  -30.4466  -23.1783   20.4029 H   0  0  0  0  0  0
  -30.4178  -24.8571   20.7623 H   0  0  0  0  0  0
  -27.3805  -22.9880   18.6893 H   0  0  0  0  0  0
  -29.0552  -22.5604   18.7949 H   0  0  0  0  0  0
  -27.7701  -25.2620   18.5016 H   0  0  0  0  0  0
  -29.4278  -25.3669   18.7817 H   0  0  0  0  0  0
  -28.9406  -15.2628   21.3769 H   0  0  0  0  0  0
  1 25  1  0  0  0
  1 30  2  0  0  0
  1 86  1  0  0  0
  2  3  1  0  0  0
  2 25  1  0  0  0
  2 87  1  0  0  0
  2 88  1  0  0  0
  3  4  1  0  0  0
  3 89  1  0  0  0
  3 90  1  0  0  0
  4  5  1  0  0  0
  4 91  1  0  0  0
  4 92  1  0  0  0
  5  6  1  0  0  0
  5 26  1  0  0  0
  5 93  1  0  0  0
  6 25  1  0  0  0
  6 94  1  0  0  0
  6 95  1  0  0  0
  7  8  2  0  0  0
  7 26  1  0  0  0
  7 29  1  0  0  0
  8  9  1  0  0  0
  8 22  1  0  0  0
  9 10  1  0  0  0
  9 27  2  0  0  0
 10 11  2  0  0  0
 10 15  1  0  0  0
 11 12  1  0  0  0
 11 96  1  0  0  0
 12 13  2  0  0  0
 12 97  1  0  0  0
 13 14  1  0  0  0
 13 31  1  0  0  0
 14 15  2  0  0  0
 14 98  1  0  0  0
 15 99  1  0  0  0
 16 17  2  0  0  0
 16 21  1  0  0  0
 16 31  1  0  0  0
 17 18  1  0  0  0
 17100  1  0  0  0
 18 19  2  0  0  0
 18101  1  0  0  0
 19 20  1  0  0  0
 19 24  1  0  0  0
 20 21  2  0  0  0
 20102  1  0  0  0
 21 23  1  0  0  0
 22 28  1  0  0  0
 22 32  2  0  0  0
 26 27  1  0  0  0
 28103  1  0  0  0
 28104  1  0  0  0
 29105  1  0  0  0
 29106  1  0  0  0
 33 34  1  0  0  0
 33 66  1  0  0  0
 33 70  2  0  0  0
 34 36  1  0  0  0
 34 59  1  0  0  0
 34107  1  0  0  0
 35 44  2  0  0  0
 35 45  1  0  0  0
 35 68  1  0  0  0
 36 56  1  0  0  0
 36108  1  0  0  0
 37 39  1  0  0  0
 37 47  1  0  0  0
 37 66  1  0  0  0
 37109  1  0  0  0
 38 43  2  0  0  0
 38 46  1  0  0  0
 38 47  1  0  0  0
 39 64  1  0  0  0
 39 67  2  0  0  0
 40 52  1  0  0  0
 40 53  2  0  0  0
 40 58  1  0  0  0
 41110  1  0  0  0
 41111  1  0  0  0
 41112  1  0  0  0
 41 48  1  0  0  0
 42 43  1  0  0  0
 42 66  1  0  0  0
 42113  1  0  0  0
 42114  1  0  0  0
 43 44  1  0  0  0
 44115  1  0  0  0
 45 46  2  0  0  0
 45116  1  0  0  0
 46117  1  0  0  0
 47118  1  0  0  0
 47119  1  0  0  0
 48 56  1  0  0  0
 48 65  1  0  0  0
 48120  1  0  0  0
 49 50  1  0  0  0
 49 53  1  0  0  0
 49 64  1  0  0  0
 49121  1  0  0  0
 50 51  1  0  0  0
 50122  1  0  0  0
 50123  1  0  0  0
 51 52  1  0  0  0
 51124  1  0  0  0
 51125  1  0  0  0
 52126  1  0  0  0
 52127  1  0  0  0
 53 54  1  0  0  0
 54 55  2  0  0  0
 54128  1  0  0  0
 55 57  1  0  0  0
 55129  1  0  0  0
 56 69  2  0  0  0
 57 58  2  0  0  0
 57130  1  0  0  0
 58131  1  0  0  0
 59 60  1  0  0  0
 59 61  1  0  0  0
 59 62  1  0  0  0
 60132  1  0  0  0
 60133  1  0  0  0
 60134  1  0  0  0
 61135  1  0  0  0
 61136  1  0  0  0
 61137  1  0  0  0
 62138  1  0  0  0
 62139  1  0  0  0
 62140  1  0  0  0
 63 65  1  0  0  0
 63141  1  0  0  0
 63142  1  0  0  0
 63143  1  0  0  0
 64144  1  0  0  0
 65145  1  0  0  0
 68 84  1  0  0  0
 71 72  2  0  0  0
 71 74  1  0  0  0
 71146  1  0  0  0
 72 75  1  0  0  0
 72147  1  0  0  0
 73 74  2  0  0  0
 73 76  1  0  0  0
 73148  1  0  0  0
 74 81  1  0  0  0
 75 76  2  0  0  0
 75 77  1  0  0  0
 76 80  1  0  0  0
 77149  1  0  0  0
 77150  1  0  0  0
 77151  1  0  0  0
 78 82  1  0  0  0
 78152  1  0  0  0
 78153  1  0  0  0
 78154  1  0  0  0
 79155  1  0  0  0
 79156  1  0  0  0
 79157  1  0  0  0
 79 85  1  0  0  0
 80 83  1  0  0  0
 80158  1  0  0  0
 80159  1  0  0  0
 81 86  1  0  0  0
 81160  1  0  0  0
 81161  1  0  0  0
 82 85  1  0  0  0
 82162  1  0  0  0
 82163  1  0  0  0
 83 85  1  0  0  0
 83164  1  0  0  0
 83165  1  0  0  0
 84 85  1  0  0  0
 84166  1  0  0  0
 84167  1  0  0  0
 86168  1  0  0  0
M  ISO  4   1 100  68 101  84 101  86 100
M  END
> <chiral flag>
0

> <version>
0

> <s_m_source_file>
/data/baiqing/PycharmProjects/Reinvent-master-3.2/result/LINK_invent/BTK/process_docking_weight1_custom_product_contain_oxygen_bond_distance_aromatic_linkinvent_7_9_3/rearranged_h_0134.sdf

> <i_m_source_file_index>
13

> <r_mmod_Potential_Energy-OPLS-2005>
-27.9258842468262

> <r_mmod_Stretch_Energy-OPLS-2005>
53.9106254577637

> <r_mmod_Bend_Energy-OPLS-2005>
128.268753051758

> <r_mmod_Torsional_Energy-OPLS-2005>
224.119323730469

> <r_mmod_Improper_Torsional_Energy-OPLS-2005>
3.73642635345459

> <r_mmod_Van_der_Waal_Energy-OPLS-2005>
158.656860351562

> <r_mmod_Electrostatic_Energy-OPLS-2005>
-425.470550537109

> <r_mmod_Solvation_Energy-OPLS-2005>
-194.396240234375

> <b_mmod_Minimization_Converged-OPLS-2005>
0

> <r_mmod_RMS_Derivative-OPLS-2005>
9.15924835205078

$$$$
13
                    3D
 Structure written by MMmdl.
157165  0  0  1  0            999 V2000
  -30.5964  -14.7593   20.5492 C   0  0  0  0  0  0
  -30.4438  -12.4780   19.4855 C   0  0  0  0  0  0
  -29.5290  -12.4884   18.2390 C   0  0  0  0  0  0
  -28.0527  -12.3016   18.6472 C   0  0  0  0  0  0
  -27.6386  -13.2222   19.8258 C   0  0  2  0  0  0
  -28.6675  -13.1612   20.9718 C   0  0  0  0  0  0
  -25.2531  -13.8185   20.5571 C   0  0  0  0  0  0
  -24.1808  -13.0438   20.9136 C   0  0  0  0  0  0
  -24.6413  -11.6915   20.8701 C   0  0  0  0  0  0
  -23.9074  -10.4298   21.0407 C   0  0  0  0  0  0
  -24.3640   -9.4205   21.9171 C   0  0  0  0  0  0
  -23.6301   -8.2254   22.0749 C   0  0  0  0  0  0
  -22.4276   -8.0304   21.3545 C   0  0  0  0  0  0
  -21.9914   -9.0274   20.4637 C   0  0  0  0  0  0
  -22.7260  -10.2144   20.3047 C   0  0  0  0  0  0
  -21.6855   -6.0758   22.5266 C   0  0  0  0  0  0
  -21.4014   -6.5639   23.8202 C   0  0  0  0  0  0
  -21.3644   -5.6785   24.9150 C   0  0  0  0  0  0
  -21.6051   -4.3047   24.7196 C   0  0  0  0  0  0
  -21.8823   -3.8152   23.4310 C   0  0  0  0  0  0
  -21.9195   -4.6985   22.3378 C   0  0  0  0  0  0
  -22.7869  -13.5230   21.1825 C   0  0  0  0  0  0
  -22.1669   -4.2177   21.0953 F   0  0  0  0  0  0
  -21.5615   -3.4521   25.7706 F   0  0  0  0  0  0
  -29.9704  -13.5349   20.4097 N   0  0  0  0  0  0
  -26.2904  -12.9364   20.3058 N   0  0  0  0  0  0
  -25.9303  -11.6518   20.5602 N   0  0  0  0  0  0
  -22.0513  -12.8220   22.0392 N   0  0  0  0  0  0
  -25.4202  -15.1900   20.4039 N   0  0  0  0  0  0
  -31.7859  -14.8746   20.2539 O   0  0  0  0  0  0
  -21.6632   -6.8907   21.4240 O   0  0  0  0  0  0
  -22.3549  -14.5554   20.6702 O   0  0  0  0  0  0
  -24.6339  -31.8489   23.1975 C   0  0  0  0  0  0
  -25.9157  -32.4723   23.8285 C   0  0  1  0  0  0
  -27.1890  -27.2430   20.1666 C   0  0  0  0  0  0
  -25.5930  -33.8509   24.2193 N   0  0  0  0  0  0
  -23.4289  -30.4729   21.5469 C   0  0  2  0  0  0
  -24.8632  -28.9182   20.1058 C   0  0  0  0  0  0
  -22.7448  -29.4510   22.4865 C   0  0  0  0  0  0
  -18.0239  -28.1275   22.8413 C   0  0  0  0  0  0
  -24.1488  -36.7320   23.2626 C   0  0  0  0  0  0
  -25.9687  -30.7619   21.3649 C   0  0  0  0  0  0
  -26.0348  -29.3808   20.7185 C   0  0  0  0  0  0
  -27.2078  -28.5656   20.7209 C   0  0  0  0  0  0
  -26.0035  -26.8385   19.5206 C   0  0  0  0  0  0
  -24.8560  -27.6580   19.4805 C   0  0  0  0  0  0
  -23.6419  -29.8222   20.1575 C   0  0  0  0  0  0
  -25.4103  -36.3025   24.0286 C   0  0  1  0  0  0
  -20.5840  -28.3599   23.1172 C   0  0  2  0  0  0
  -20.6724  -26.9302   22.5350 C   0  0  0  0  0  0
  -19.5746  -26.6280   21.5101 C   0  0  0  0  0  0
  -18.1912  -26.7781   22.1529 C   0  0  0  0  0  0
  -19.1511  -28.8733   23.2788 C   0  0  0  0  0  0
  -18.9472  -30.1307   23.8840 C   0  0  0  0  0  0
  -17.6503  -30.6509   24.0481 C   0  0  0  0  0  0
  -25.9034  -34.9411   23.5034 C   0  0  0  0  0  0
  -16.5363  -29.9013   23.6303 C   0  0  0  0  0  0
  -16.7229  -28.6415   23.0333 C   0  0  0  0  0  0
  -26.4534  -31.6565   25.0682 C   0  0  0  0  0  0
  -25.3790  -31.3760   26.1452 C   0  0  0  0  0  0
  -27.0376  -30.2985   24.6143 C   0  0  0  0  0  0
  -27.6028  -32.4350   25.7514 C   0  0  0  0  0  0
  -27.5556  -37.1797   24.8443 C   0  0  0  0  0  0
  -21.4138  -29.3002   22.3606 N   0  0  0  0  0  0
  -26.4261  -37.3731   23.9403 N   0  0  0  0  0  0
  -24.6983  -31.0433   22.0972 N   0  0  0  0  0  0
  -23.4135  -28.7991   23.2916 O   0  0  0  0  0  0
  -28.2703  -26.3444   20.1936 O   0  0  0  0  0  0
  -26.5609  -34.8908   22.4616 O   0  0  0  0  0  0
  -23.5507  -32.1288   23.7312 O   0  0  0  0  0  0
  -30.4524  -18.7391   23.1926 C   0  0  0  0  0  0
  -29.9490  -19.8684   22.5131 C   0  0  0  0  0  0
  -29.4735  -18.4506   20.6027 C   0  0  0  0  0  0
  -30.4520  -17.4516   22.6050 C   0  0  0  0  0  0
  -29.9623  -17.2501   21.2811 C   0  0  0  0  0  0
  -29.4601  -19.7863   21.1942 C   0  0  0  0  0  0
  -29.7897  -15.5021   24.1204 C   0  0  0  0  0  0
  -30.9366  -16.3021   23.4765 C   0  0  0  0  0  0
  -28.4967  -23.6045   20.2451 C   0  0  0  0  0  0
  -28.1236  -25.0422   20.9241 C   0  0  0  0  0  0
  -28.9752  -22.3323   21.1360 C   0  0  0  0  0  0
  -29.7689  -15.8619   20.7631 N   0  0  0  0  0  0
  -28.9742  -20.9575   20.5290 O   0  0  0  0  0  0
  -31.4858  -12.6179   19.1921 H   0  0  0  0  0  0
  -30.4086  -11.5020   19.9728 H   0  0  0  0  0  0
  -29.8229  -11.6883   17.5526 H   0  0  0  0  0  0
  -29.6584  -13.4238   17.6910 H   0  0  0  0  0  0
  -27.9330  -11.2583   18.9430 H   0  0  0  0  0  0
  -27.3973  -12.4488   17.7862 H   0  0  0  0  0  0
  -27.6306  -14.2371   19.4262 H   0  0  0  0  0  0
  -28.6959  -12.1633   21.4145 H   0  0  0  0  0  0
  -28.3659  -13.8364   21.7740 H   0  0  0  0  0  0
  -25.2794   -9.5668   22.4732 H   0  0  0  0  0  0
  -24.0007   -7.4638   22.7469 H   0  0  0  0  0  0
  -21.0833   -8.8806   19.8954 H   0  0  0  0  0  0
  -22.3720  -10.9691   19.6158 H   0  0  0  0  0  0
  -21.2019   -7.6147   23.9702 H   0  0  0  0  0  0
  -21.1453   -6.0512   25.9053 H   0  0  0  0  0  0
  -22.0623   -2.7627   23.2786 H   0  0  0  0  0  0
  -22.4183  -11.9885   22.4757 H   0  0  0  0  0  0
  -21.1131  -13.1248   22.2589 H   0  0  0  0  0  0
  -24.6532  -15.8398   20.5293 H   0  0  0  0  0  0
  -26.2600  -15.6369   20.0606 H   0  0  0  0  0  0
  -26.7137  -32.5421   23.0944 H   0  0  0  0  0  0
  -25.0068  -33.9639   25.0338 H   0  0  0  0  0  0
  -22.7272  -31.2989   21.4187 H   0  0  0  0  0  0
  -23.3685  -35.9707   23.3276 H   0  0  0  0  0  0
  -24.3542  -36.9018   22.2043 H   0  0  0  0  0  0
  -23.7355  -37.6551   23.6706 H   0  0  0  0  0  0
  -26.0799  -31.5083   20.5746 H   0  0  0  0  0  0
  -26.8555  -30.8141   21.9856 H   0  0  0  0  0  0
  -28.1102  -28.9299   21.1871 H   0  0  0  0  0  0
  -25.9728  -25.8652   19.0500 H   0  0  0  0  0  0
  -23.9748  -27.3095   18.9570 H   0  0  0  0  0  0
  -23.7707  -30.6256   19.4272 H   0  0  0  0  0  0
  -22.7516  -29.2772   19.8453 H   0  0  0  0  0  0
  -25.1296  -36.1770   25.0768 H   0  0  0  0  0  0
  -20.9887  -28.3166   24.1316 H   0  0  0  0  0  0
  -20.5448  -26.2222   23.3568 H   0  0  0  0  0  0
  -21.6610  -26.7202   22.1274 H   0  0  0  0  0  0
  -19.6927  -25.6182   21.1178 H   0  0  0  0  0  0
  -19.6727  -27.3029   20.6590 H   0  0  0  0  0  0
  -17.4162  -26.6401   21.3973 H   0  0  0  0  0  0
  -18.0391  -25.9889   22.8924 H   0  0  0  0  0  0
  -19.7998  -30.7039   24.2242 H   0  0  0  0  0  0
  -17.5124  -31.6224   24.5038 H   0  0  0  0  0  0
  -15.5382  -30.2945   23.7670 H   0  0  0  0  0  0
  -15.8586  -28.0759   22.7097 H   0  0  0  0  0  0
  -24.5905  -30.7116   25.7929 H   0  0  0  0  0  0
  -24.9044  -32.2966   26.4854 H   0  0  0  0  0  0
  -25.8145  -30.9023   27.0254 H   0  0  0  0  0  0
  -26.2933  -29.6697   24.1225 H   0  0  0  0  0  0
  -27.4159  -29.7238   25.4610 H   0  0  0  0  0  0
  -27.8749  -30.4291   23.9260 H   0  0  0  0  0  0
  -27.2516  -33.3623   26.2046 H   0  0  0  0  0  0
  -28.3884  -32.6971   25.0420 H   0  0  0  0  0  0
  -28.0591  -31.8503   26.5512 H   0  0  0  0  0  0
  -28.2531  -38.0127   24.7451 H   0  0  0  0  0  0
  -28.1069  -36.2631   24.6255 H   0  0  0  0  0  0
  -27.2249  -37.1478   25.8842 H   0  0  0  0  0  0
  -20.9183  -29.8920   21.7076 H   0  0  0  0  0  0
  -26.0083  -38.2762   24.1488 H   0  0  0  0  0  0
  -30.8098  -18.8584   24.2086 H   0  0  0  0  0  0
  -29.9261  -20.8212   23.0185 H   0  0  0  0  0  0
  -29.0774  -18.3475   19.5993 H   0  0  0  0  0  0
  -30.1702  -14.5899   24.5798 H   0  0  0  0  0  0
  -29.0337  -15.2136   23.3899 H   0  0  0  0  0  0
  -29.2912  -16.0683   24.9085 H   0  0  0  0  0  0
  -31.5875  -16.6908   24.2613 H   0  0  0  0  0  0
  -31.5872  -15.6491   22.9025 H   0  0  0  0  0  0
  -29.1928  -23.7788   19.4193 H   0  0  0  0  0  0
  -27.6082  -23.2373   19.7369 H   0  0  0  0  0  0
  -28.7380  -25.1898   21.8157 H   0  0  0  0  0  0
  -27.1080  -24.9697   21.3189 H   0  0  0  0  0  0
  -28.3463  -22.2863   22.0273 H   0  0  0  0  0  0
  -29.9818  -22.5544   21.4867 H   0  0  0  0  0  0
  -28.8028  -15.5965   20.7124 H   0  0  0  0  0  0
  1 25  1  0  0  0
  1 30  2  0  0  0
  1 82  1  0  0  0
  2  3  1  0  0  0
  2 25  1  0  0  0
  2 84  1  0  0  0
  2 85  1  0  0  0
  3  4  1  0  0  0
  3 86  1  0  0  0
  3 87  1  0  0  0
  4  5  1  0  0  0
  4 88  1  0  0  0
  4 89  1  0  0  0
  5  6  1  0  0  0
  5 26  1  0  0  0
  5 90  1  0  0  0
  6 25  1  0  0  0
  6 91  1  0  0  0
  6 92  1  0  0  0
  7  8  2  0  0  0
  7 26  1  0  0  0
  7 29  1  0  0  0
  8  9  1  0  0  0
  8 22  1  0  0  0
  9 10  1  0  0  0
  9 27  2  0  0  0
 10 11  2  0  0  0
 10 15  1  0  0  0
 11 12  1  0  0  0
 11 93  1  0  0  0
 12 13  2  0  0  0
 12 94  1  0  0  0
 13 14  1  0  0  0
 13 31  1  0  0  0
 14 15  2  0  0  0
 14 95  1  0  0  0
 15 96  1  0  0  0
 16 17  2  0  0  0
 16 21  1  0  0  0
 16 31  1  0  0  0
 17 18  1  0  0  0
 17 97  1  0  0  0
 18 19  2  0  0  0
 18 98  1  0  0  0
 19 20  1  0  0  0
 19 24  1  0  0  0
 20 21  2  0  0  0
 20 99  1  0  0  0
 21 23  1  0  0  0
 22 28  1  0  0  0
 22 32  2  0  0  0
 26 27  1  0  0  0
 28100  1  0  0  0
 28101  1  0  0  0
 29102  1  0  0  0
 29103  1  0  0  0
 33 34  1  0  0  0
 33 66  1  0  0  0
 33 70  2  0  0  0
 34 36  1  0  0  0
 34 59  1  0  0  0
 34104  1  0  0  0
 35 44  2  0  0  0
 35 45  1  0  0  0
 35 68  1  0  0  0
 36 56  1  0  0  0
 36105  1  0  0  0
 37 39  1  0  0  0
 37 47  1  0  0  0
 37 66  1  0  0  0
 37106  1  0  0  0
 38 43  2  0  0  0
 38 46  1  0  0  0
 38 47  1  0  0  0
 39 64  1  0  0  0
 39 67  2  0  0  0
 40 52  1  0  0  0
 40 53  2  0  0  0
 40 58  1  0  0  0
 41107  1  0  0  0
 41108  1  0  0  0
 41109  1  0  0  0
 41 48  1  0  0  0
 42 43  1  0  0  0
 42 66  1  0  0  0
 42110  1  0  0  0
 42111  1  0  0  0
 43 44  1  0  0  0
 44112  1  0  0  0
 45 46  2  0  0  0
 45113  1  0  0  0
 46114  1  0  0  0
 47115  1  0  0  0
 47116  1  0  0  0
 48 56  1  0  0  0
 48 65  1  0  0  0
 48117  1  0  0  0
 49 50  1  0  0  0
 49 53  1  0  0  0
 49 64  1  0  0  0
 49118  1  0  0  0
 50 51  1  0  0  0
 50119  1  0  0  0
 50120  1  0  0  0
 51 52  1  0  0  0
 51121  1  0  0  0
 51122  1  0  0  0
 52123  1  0  0  0
 52124  1  0  0  0
 53 54  1  0  0  0
 54 55  2  0  0  0
 54125  1  0  0  0
 55 57  1  0  0  0
 55126  1  0  0  0
 56 69  2  0  0  0
 57 58  2  0  0  0
 57127  1  0  0  0
 58128  1  0  0  0
 59 60  1  0  0  0
 59 61  1  0  0  0
 59 62  1  0  0  0
 60129  1  0  0  0
 60130  1  0  0  0
 60131  1  0  0  0
 61132  1  0  0  0
 61133  1  0  0  0
 61134  1  0  0  0
 62135  1  0  0  0
 62136  1  0  0  0
 62137  1  0  0  0
 63 65  1  0  0  0
 63138  1  0  0  0
 63139  1  0  0  0
 63140  1  0  0  0
 64141  1  0  0  0
 65142  1  0  0  0
 68 80  1  0  0  0
 71 72  2  0  0  0
 71 74  1  0  0  0
 71143  1  0  0  0
 72 76  1  0  0  0
 72144  1  0  0  0
 73 75  1  0  0  0
 73 76  2  0  0  0
 73145  1  0  0  0
 74 75  2  0  0  0
 74 78  1  0  0  0
 75 82  1  0  0  0
 76 83  1  0  0  0
 77 78  1  0  0  0
 77146  1  0  0  0
 77147  1  0  0  0
 77148  1  0  0  0
 78149  1  0  0  0
 78150  1  0  0  0
 79 80  1  0  0  0
 79 81  1  0  0  0
 79151  1  0  0  0
 79152  1  0  0  0
 80153  1  0  0  0
 80154  1  0  0  0
 81 83  1  0  0  0
 81155  1  0  0  0
 81156  1  0  0  0
 82157  1  0  0  0
M  ISO  4   1 100  68 101  80 101  82 100
M  END
> <chiral flag>
0

> <version>
0

> <s_m_source_file>
/data/baiqing/PycharmProjects/Reinvent-master-3.2/result/LINK_invent/BTK/process_docking_weight1_custom_product_contain_oxygen_bond_distance_aromatic_linkinvent_7_9_3/rearranged_h_0134.sdf

> <i_m_source_file_index>
14

> <r_mmod_Potential_Energy-OPLS-2005>
230.822937011719

> <r_mmod_Stretch_Energy-OPLS-2005>
131.579483032227

> <r_mmod_Bend_Energy-OPLS-2005>
173.651031494141

> <r_mmod_Torsional_Energy-OPLS-2005>
266.398529052734

> <r_mmod_Improper_Torsional_Energy-OPLS-2005>
7.67518901824951

> <r_mmod_Van_der_Waal_Energy-OPLS-2005>
132.84521484375

> <r_mmod_Electrostatic_Energy-OPLS-2005>
-372.466094970703

> <r_mmod_Solvation_Energy-OPLS-2005>
-207.079696655273

> <b_mmod_Minimization_Converged-OPLS-2005>
0

> <r_mmod_RMS_Derivative-OPLS-2005>
10.2601871490479

$$$$
14
                    3D
 Structure written by MMmdl.
151159  0  0  1  0            999 V2000
  -30.6604  -14.4927   20.4770 C   0  0  0  0  0  0
  -30.3979  -12.2897   19.4294 C   0  0  0  0  0  0
  -29.4961  -12.5304   18.1993 C   0  0  0  0  0  0
  -28.0011  -12.4370   18.5800 C   0  0  0  0  0  0
  -27.6488  -13.2300   19.8699 C   0  0  2  0  0  0
  -28.6922  -13.0012   20.9867 C   0  0  0  0  0  0
  -25.2456  -13.8137   20.5737 C   0  0  0  0  0  0
  -24.1729  -13.0409   20.9164 C   0  0  0  0  0  0
  -24.6324  -11.6907   20.8661 C   0  0  0  0  0  0
  -23.9023  -10.4277   21.0337 C   0  0  0  0  0  0
  -24.3605   -9.4223   21.9136 C   0  0  0  0  0  0
  -23.6285   -8.2241   22.0713 C   0  0  0  0  0  0
  -22.4230   -8.0271   21.3558 C   0  0  0  0  0  0
  -21.9854   -9.0245   20.4691 C   0  0  0  0  0  0
  -22.7164  -10.2129   20.3045 C   0  0  0  0  0  0
  -21.6859   -6.0733   22.5259 C   0  0  0  0  0  0
  -21.4046   -6.5635   23.8203 C   0  0  0  0  0  0
  -21.3687   -5.6800   24.9161 C   0  0  0  0  0  0
  -21.6011   -4.3051   24.7206 C   0  0  0  0  0  0
  -21.8828   -3.8149   23.4339 C   0  0  0  0  0  0
  -21.9186   -4.6979   22.3411 C   0  0  0  0  0  0
  -22.7767  -13.5221   21.1841 C   0  0  0  0  0  0
  -22.1660   -4.2178   21.0973 F   0  0  0  0  0  0
  -21.5611   -3.4531   25.7730 F   0  0  0  0  0  0
  -30.0246  -13.2851   20.4424 N   0  0  0  0  0  0
  -26.2922  -12.9404   20.3323 N   0  0  0  0  0  0
  -25.9248  -11.6541   20.5620 N   0  0  0  0  0  0
  -22.0430  -12.8281   22.0472 N   0  0  0  0  0  0
  -25.4157  -15.1845   20.4310 N   0  0  0  0  0  0
  -31.8434  -14.6234   20.1482 O   0  0  0  0  0  0
  -21.6621   -6.8863   21.4216 O   0  0  0  0  0  0
  -22.3484  -14.5486   20.6669 O   0  0  0  0  0  0
  -24.6228  -31.8656   23.2060 C   0  0  0  0  0  0
  -25.9112  -32.4793   23.8369 C   0  0  1  0  0  0
  -27.2073  -27.3772   20.0741 C   0  0  0  0  0  0
  -25.5940  -33.8593   24.2285 N   0  0  0  0  0  0
  -23.4088  -30.4946   21.5500 C   0  0  2  0  0  0
  -24.8456  -28.9571   20.1157 C   0  0  0  0  0  0
  -22.7444  -29.4667   22.4953 C   0  0  0  0  0  0
  -18.0303  -28.1392   22.8475 C   0  0  0  0  0  0
  -24.1475  -36.7273   23.2636 C   0  0  0  0  0  0
  -25.9481  -30.8058   21.3757 C   0  0  0  0  0  0
  -26.0158  -29.4412   20.7135 C   0  0  0  0  0  0
  -27.2030  -28.6604   20.6889 C   0  0  0  0  0  0
  -26.0212  -26.9448   19.4407 C   0  0  0  0  0  0
  -24.8430  -27.7067   19.4812 C   0  0  0  0  0  0
  -23.6152  -29.8351   20.1653 C   0  0  0  0  0  0
  -25.4105  -36.3067   24.0317 C   0  0  1  0  0  0
  -20.5895  -28.3684   23.1298 C   0  0  2  0  0  0
  -20.6774  -26.9406   22.5455 C   0  0  0  0  0  0
  -19.5759  -26.6353   21.5239 C   0  0  0  0  0  0
  -18.1926  -26.7928   22.1618 C   0  0  0  0  0  0
  -19.1549  -28.8852   23.2873 C   0  0  0  0  0  0
  -18.9472  -30.1453   23.8884 C   0  0  0  0  0  0
  -17.6470  -30.6599   24.0552 C   0  0  0  0  0  0
  -25.9050  -34.9456   23.5083 C   0  0  0  0  0  0
  -16.5364  -29.9092   23.6344 C   0  0  0  0  0  0
  -16.7273  -28.6525   23.0340 C   0  0  0  0  0  0
  -26.4488  -31.6623   25.0723 C   0  0  0  0  0  0
  -25.3741  -31.3836   26.1488 C   0  0  0  0  0  0
  -27.0304  -30.3020   24.6230 C   0  0  0  0  0  0
  -27.6057  -32.4344   25.7490 C   0  0  0  0  0  0
  -27.5571  -37.1780   24.8451 C   0  0  0  0  0  0
  -21.4175  -29.3040   22.3693 N   0  0  0  0  0  0
  -26.4274  -37.3771   23.9408 N   0  0  0  0  0  0
  -24.6771  -31.0739   22.0980 N   0  0  0  0  0  0
  -23.4215  -28.8228   23.3024 O   0  0  0  0  0  0
  -28.3294  -26.5556   20.0764 O   0  0  0  0  0  0
  -26.5634  -34.8921   22.4663 O   0  0  0  0  0  0
  -23.5406  -32.1444   23.7450 O   0  0  0  0  0  0
  -27.7531  -18.1409   20.0228 C   0  0  0  0  0  0
  -27.5792  -19.5576   19.9099 C   0  0  0  0  0  0
  -29.0844  -17.8979   19.7824 C   0  0  0  0  0  0
  -28.8198  -20.1065   19.6716 C   0  0  0  0  0  0
  -29.8944  -16.7177   19.8397 C   0  0  0  0  0  0
  -29.7753  -15.6427   20.6576 C   0  0  0  0  0  0
  -28.9827  -24.1442   19.5663 C   0  0  0  0  0  0
  -29.4109  -21.5179   19.6385 C   0  0  0  0  0  0
  -28.4443  -22.7048   19.3060 C   0  0  0  0  0  0
  -28.0654  -25.1365   20.3365 C   0  0  0  0  0  0
  -30.0914  -24.4923   19.1470 O   0  0  0  0  0  0
  -29.7297  -19.0882   19.5558 O   0  0  0  0  0  0
  -31.4536  -12.3428   19.1628 H   0  0  0  0  0  0
  -30.2366  -11.2845   19.8161 H   0  0  0  0  0  0
  -29.7325  -11.8224   17.4065 H   0  0  0  0  0  0
  -29.7054  -13.5183   17.7826 H   0  0  0  0  0  0
  -27.7349  -11.3862   18.7004 H   0  0  0  0  0  0
  -27.3933  -12.8145   17.7555 H   0  0  0  0  0  0
  -27.6878  -14.2845   19.5952 H   0  0  0  0  0  0
  -28.6526  -11.9702   21.3448 H   0  0  0  0  0  0
  -28.4776  -13.6161   21.8597 H   0  0  0  0  0  0
  -25.2791   -9.5726   22.4673 H   0  0  0  0  0  0
  -24.0084   -7.4605   22.7381 H   0  0  0  0  0  0
  -21.0788   -8.8728   19.8999 H   0  0  0  0  0  0
  -22.3581  -10.9660   19.6152 H   0  0  0  0  0  0
  -21.2072   -7.6160   23.9732 H   0  0  0  0  0  0
  -21.1486   -6.0518   25.9084 H   0  0  0  0  0  0
  -22.0582   -2.7622   23.2793 H   0  0  0  0  0  0
  -22.4103  -12.0068   22.5035 H   0  0  0  0  0  0
  -21.1041  -13.1287   22.2636 H   0  0  0  0  0  0
  -24.6526  -15.8438   20.5473 H   0  0  0  0  0  0
  -26.2964  -15.6258   20.2022 H   0  0  0  0  0  0
  -26.7188  -32.5445   23.1111 H   0  0  0  0  0  0
  -25.0063  -33.9736   25.0408 H   0  0  0  0  0  0
  -22.6999  -31.3122   21.4144 H   0  0  0  0  0  0
  -23.3744  -35.9599   23.3308 H   0  0  0  0  0  0
  -24.3570  -36.8901   22.2052 H   0  0  0  0  0  0
  -23.7229  -37.6469   23.6673 H   0  0  0  0  0  0
  -26.0958  -31.5747   20.6167 H   0  0  0  0  0  0
  -26.8256  -30.8362   22.0096 H   0  0  0  0  0  0
  -28.1039  -29.0251   21.1632 H   0  0  0  0  0  0
  -25.9837  -26.0149   18.8939 H   0  0  0  0  0  0
  -23.9447  -27.3332   19.0084 H   0  0  0  0  0  0
  -23.7368  -30.6103   19.4079 H   0  0  0  0  0  0
  -22.7341  -29.2652   19.8628 H   0  0  0  0  0  0
  -25.1282  -36.1897   25.0808 H   0  0  0  0  0  0
  -20.9983  -28.3285   24.1403 H   0  0  0  0  0  0
  -20.5652  -26.2300   23.3656 H   0  0  0  0  0  0
  -21.6649  -26.7399   22.1268 H   0  0  0  0  0  0
  -19.6909  -25.6247   21.1288 H   0  0  0  0  0  0
  -19.6729  -27.3138   20.6748 H   0  0  0  0  0  0
  -17.4208  -26.6684   21.4007 H   0  0  0  0  0  0
  -18.0310  -26.0095   22.9030 H   0  0  0  0  0  0
  -19.7951  -30.7269   24.2249 H   0  0  0  0  0  0
  -17.5036  -31.6272   24.5140 H   0  0  0  0  0  0
  -15.5371  -30.2972   23.7672 H   0  0  0  0  0  0
  -15.8669  -28.0812   22.7055 H   0  0  0  0  0  0
  -24.5804  -30.7302   25.7842 H   0  0  0  0  0  0
  -24.9061  -32.3064   26.4942 H   0  0  0  0  0  0
  -25.8038  -30.8964   27.0247 H   0  0  0  0  0  0
  -26.2887  -29.6818   24.1176 H   0  0  0  0  0  0
  -27.3893  -29.7241   25.4757 H   0  0  0  0  0  0
  -27.8815  -30.4278   23.9524 H   0  0  0  0  0  0
  -27.2668  -33.3641   26.2092 H   0  0  0  0  0  0
  -28.3845  -32.6951   25.0298 H   0  0  0  0  0  0
  -28.0766  -31.8474   26.5385 H   0  0  0  0  0  0
  -28.2585  -38.0076   24.7482 H   0  0  0  0  0  0
  -28.1056  -36.2602   24.6259 H   0  0  0  0  0  0
  -27.2306  -37.1435   25.8863 H   0  0  0  0  0  0
  -20.9343  -29.8779   21.6910 H   0  0  0  0  0  0
  -26.0136  -38.2830   24.1467 H   0  0  0  0  0  0
  -26.9958  -17.3969   20.2604 H   0  0  0  0  0  0
  -26.6458  -20.0873   20.0486 H   0  0  0  0  0  0
  -30.6737  -16.6891   19.0866 H   0  0  0  0  0  0
  -29.0150  -15.6550   21.4242 H   0  0  0  0  0  0
  -30.2568  -21.5220   18.9471 H   0  0  0  0  0  0
  -29.8465  -21.7050   20.6219 H   0  0  0  0  0  0
  -28.1547  -22.6621   18.2562 H   0  0  0  0  0  0
  -27.5290  -22.5902   19.8832 H   0  0  0  0  0  0
  -28.1710  -24.9670   21.4086 H   0  0  0  0  0  0
  -27.0480  -24.8340   20.1026 H   0  0  0  0  0  0
  1 25  1  0  0  0
  1 30  2  0  0  0
  1 76  1  0  0  0
  2  3  1  0  0  0
  2 25  1  0  0  0
  2 83  1  0  0  0
  2 84  1  0  0  0
  3  4  1  0  0  0
  3 85  1  0  0  0
  3 86  1  0  0  0
  4  5  1  0  0  0
  4 87  1  0  0  0
  4 88  1  0  0  0
  5  6  1  0  0  0
  5 26  1  0  0  0
  5 89  1  0  0  0
  6 25  1  0  0  0
  6 90  1  0  0  0
  6 91  1  0  0  0
  7  8  2  0  0  0
  7 26  1  0  0  0
  7 29  1  0  0  0
  8  9  1  0  0  0
  8 22  1  0  0  0
  9 10  1  0  0  0
  9 27  2  0  0  0
 10 11  2  0  0  0
 10 15  1  0  0  0
 11 12  1  0  0  0
 11 92  1  0  0  0
 12 13  2  0  0  0
 12 93  1  0  0  0
 13 14  1  0  0  0
 13 31  1  0  0  0
 14 15  2  0  0  0
 14 94  1  0  0  0
 15 95  1  0  0  0
 16 17  2  0  0  0
 16 21  1  0  0  0
 16 31  1  0  0  0
 17 18  1  0  0  0
 17 96  1  0  0  0
 18 19  2  0  0  0
 18 97  1  0  0  0
 19 20  1  0  0  0
 19 24  1  0  0  0
 20 21  2  0  0  0
 20 98  1  0  0  0
 21 23  1  0  0  0
 22 28  1  0  0  0
 22 32  2  0  0  0
 26 27  1  0  0  0
 28 99  1  0  0  0
 28100  1  0  0  0
 29101  1  0  0  0
 29102  1  0  0  0
 33 34  1  0  0  0
 33 66  1  0  0  0
 33 70  2  0  0  0
 34 36  1  0  0  0
 34 59  1  0  0  0
 34103  1  0  0  0
 35 44  2  0  0  0
 35 45  1  0  0  0
 35 68  1  0  0  0
 36 56  1  0  0  0
 36104  1  0  0  0
 37 39  1  0  0  0
 37 47  1  0  0  0
 37 66  1  0  0  0
 37105  1  0  0  0
 38 43  2  0  0  0
 38 46  1  0  0  0
 38 47  1  0  0  0
 39 64  1  0  0  0
 39 67  2  0  0  0
 40 52  1  0  0  0
 40 53  2  0  0  0
 40 58  1  0  0  0
 41106  1  0  0  0
 41107  1  0  0  0
 41108  1  0  0  0
 41 48  1  0  0  0
 42 43  1  0  0  0
 42 66  1  0  0  0
 42109  1  0  0  0
 42110  1  0  0  0
 43 44  1  0  0  0
 44111  1  0  0  0
 45 46  2  0  0  0
 45112  1  0  0  0
 46113  1  0  0  0
 47114  1  0  0  0
 47115  1  0  0  0
 48 56  1  0  0  0
 48 65  1  0  0  0
 48116  1  0  0  0
 49 50  1  0  0  0
 49 53  1  0  0  0
 49 64  1  0  0  0
 49117  1  0  0  0
 50 51  1  0  0  0
 50118  1  0  0  0
 50119  1  0  0  0
 51 52  1  0  0  0
 51120  1  0  0  0
 51121  1  0  0  0
 52122  1  0  0  0
 52123  1  0  0  0
 53 54  1  0  0  0
 54 55  2  0  0  0
 54124  1  0  0  0
 55 57  1  0  0  0
 55125  1  0  0  0
 56 69  2  0  0  0
 57 58  2  0  0  0
 57126  1  0  0  0
 58127  1  0  0  0
 59 60  1  0  0  0
 59 61  1  0  0  0
 59 62  1  0  0  0
 60128  1  0  0  0
 60129  1  0  0  0
 60130  1  0  0  0
 61131  1  0  0  0
 61132  1  0  0  0
 61133  1  0  0  0
 62134  1  0  0  0
 62135  1  0  0  0
 62136  1  0  0  0
 63 65  1  0  0  0
 63137  1  0  0  0
 63138  1  0  0  0
 63139  1  0  0  0
 64140  1  0  0  0
 65141  1  0  0  0
 68 80  1  0  0  0
 71 72  1  0  0  0
 71 73  2  0  0  0
 71142  1  0  0  0
 72 74  2  0  0  0
 72143  1  0  0  0
 73 75  1  0  0  0
 73 82  1  0  0  0
 74 78  1  0  0  0
 74 82  1  0  0  0
 75 76  2  0  0  0
 75144  1  0  0  0
 76145  1  0  0  0
 77 79  1  0  0  0
 77 80  1  0  0  0
 77 81  2  0  0  0
 78 79  1  0  0  0
 78146  1  0  0  0
 78147  1  0  0  0
 79148  1  0  0  0
 79149  1  0  0  0
 80150  1  0  0  0
 80151  1  0  0  0
M  ISO  4   1 100  68 101  76 100  80 101
M  END
> <chiral flag>
0

> <version>
0

> <s_m_source_file>
/data/baiqing/PycharmProjects/Reinvent-master-3.2/result/LINK_invent/BTK/process_docking_weight1_custom_product_contain_oxygen_bond_distance_aromatic_linkinvent_7_9_3/rearranged_h_0134.sdf

> <i_m_source_file_index>
15

> <r_mmod_Potential_Energy-OPLS-2005>
-37.4646034240723

> <r_mmod_Stretch_Energy-OPLS-2005>
45.2319107055664

> <r_mmod_Bend_Energy-OPLS-2005>
96.653923034668

> <r_mmod_Torsional_Energy-OPLS-2005>
224.829223632812

> <r_mmod_Improper_Torsional_Energy-OPLS-2005>
7.1965184211731

> <r_mmod_Van_der_Waal_Energy-OPLS-2005>
130.938461303711

> <r_mmod_Electrostatic_Energy-OPLS-2005>
-345.483703613281

> <r_mmod_Solvation_Energy-OPLS-2005>
-222.824676513672

> <b_mmod_Minimization_Converged-OPLS-2005>
0

> <r_mmod_RMS_Derivative-OPLS-2005>
8.69717597961426

$$$$
15
                    3D
 Structure written by MMmdl.
159167  0  0  1  0            999 V2000
  -30.7549  -14.4056   20.6358 C   0  0  0  0  0  0
  -30.4106  -12.2943   19.4052 C   0  0  0  0  0  0
  -29.4831  -12.5114   18.1952 C   0  0  0  0  0  0
  -28.0065  -12.3746   18.6123 C   0  0  0  0  0  0
  -27.6615  -13.2068   19.8765 C   0  0  2  0  0  0
  -28.7026  -12.9752   20.9940 C   0  0  0  0  0  0
  -25.2584  -13.8164   20.5675 C   0  0  0  0  0  0
  -24.1836  -13.0443   20.9166 C   0  0  0  0  0  0
  -24.6388  -11.6909   20.8735 C   0  0  0  0  0  0
  -23.9053  -10.4295   21.0401 C   0  0  0  0  0  0
  -24.3607   -9.4210   21.9179 C   0  0  0  0  0  0
  -23.6287   -8.2244   22.0752 C   0  0  0  0  0  0
  -22.4271   -8.0279   21.3542 C   0  0  0  0  0  0
  -21.9903   -9.0252   20.4643 C   0  0  0  0  0  0
  -22.7227  -10.2133   20.3051 C   0  0  0  0  0  0
  -21.6852   -6.0731   22.5277 C   0  0  0  0  0  0
  -21.4013   -6.5636   23.8211 C   0  0  0  0  0  0
  -21.3658   -5.6791   24.9173 C   0  0  0  0  0  0
  -21.6045   -4.3055   24.7225 C   0  0  0  0  0  0
  -21.8821   -3.8144   23.4347 C   0  0  0  0  0  0
  -21.9195   -4.6959   22.3401 C   0  0  0  0  0  0
  -22.7859  -13.5237   21.1836 C   0  0  0  0  0  0
  -22.1663   -4.2143   21.0980 F   0  0  0  0  0  0
  -21.5631   -3.4538   25.7739 F   0  0  0  0  0  0
  -30.0353  -13.2689   20.4407 N   0  0  0  0  0  0
  -26.3022  -12.9336   20.3373 N   0  0  0  0  0  0
  -25.9314  -11.6493   20.5765 N   0  0  0  0  0  0
  -22.0506  -12.8232   22.0394 N   0  0  0  0  0  0
  -25.4326  -15.1879   20.4072 N   0  0  0  0  0  0
  -31.8332  -14.6153   20.0713 O   0  0  0  0  0  0
  -21.6640   -6.8871   21.4237 O   0  0  0  0  0  0
  -22.3546  -14.5549   20.6689 O   0  0  0  0  0  0
  -24.6142  -31.8704   23.2129 C   0  0  0  0  0  0
  -25.9033  -32.4846   23.8417 C   0  0  1  0  0  0
  -27.2299  -27.4390   20.0892 C   0  0  0  0  0  0
  -25.5875  -33.8641   24.2343 N   0  0  0  0  0  0
  -23.4008  -30.4952   21.5540 C   0  0  2  0  0  0
  -24.8453  -28.9676   20.1118 C   0  0  0  0  0  0
  -22.7420  -29.4663   22.5010 C   0  0  0  0  0  0
  -18.0270  -28.1365   22.8503 C   0  0  0  0  0  0
  -24.1479  -36.7324   23.2637 C   0  0  0  0  0  0
  -25.9298  -30.8369   21.3659 C   0  0  0  0  0  0
  -26.0063  -29.4735   20.7092 C   0  0  0  0  0  0
  -27.2003  -28.7162   20.6960 C   0  0  0  0  0  0
  -26.0492  -26.9571   19.4743 C   0  0  0  0  0  0
  -24.8621  -27.7087   19.4911 C   0  0  0  0  0  0
  -23.6070  -29.8324   20.1667 C   0  0  0  0  0  0
  -25.4101  -36.3132   24.0338 C   0  0  1  0  0  0
  -20.5865  -28.3658   23.1324 C   0  0  2  0  0  0
  -20.6768  -26.9403   22.5424 C   0  0  0  0  0  0
  -19.5739  -26.6379   21.5228 C   0  0  0  0  0  0
  -18.1918  -26.7920   22.1636 C   0  0  0  0  0  0
  -19.1518  -28.8832   23.2907 C   0  0  0  0  0  0
  -18.9457  -30.1438   23.8919 C   0  0  0  0  0  0
  -17.6461  -30.6582   24.0563 C   0  0  0  0  0  0
  -25.9022  -34.9493   23.5141 C   0  0  0  0  0  0
  -16.5346  -29.9086   23.6324 C   0  0  0  0  0  0
  -16.7261  -28.6495   23.0358 C   0  0  0  0  0  0
  -26.4456  -31.6615   25.0740 C   0  0  0  0  0  0
  -25.3713  -31.3710   26.1482 C   0  0  0  0  0  0
  -27.0282  -30.3059   24.6097 C   0  0  0  0  0  0
  -27.6039  -32.4333   25.7492 C   0  0  0  0  0  0
  -27.5585  -37.1815   24.8464 C   0  0  0  0  0  0
  -21.4151  -29.3024   22.3747 N   0  0  0  0  0  0
  -26.4297  -37.3808   23.9406 N   0  0  0  0  0  0
  -24.6665  -31.0818   22.1022 N   0  0  0  0  0  0
  -23.4205  -28.8207   23.3040 O   0  0  0  0  0  0
  -28.4001  -26.7023   20.1240 O   0  0  0  0  0  0
  -26.5607  -34.8937   22.4719 O   0  0  0  0  0  0
  -23.5340  -32.1452   23.7530 O   0  0  0  0  0  0
  -32.1262  -16.2896   22.6022 C   0  0  0  0  0  0
  -32.1547  -18.6382   23.2378 C   0  0  0  0  0  0
  -30.2422  -17.7349   22.0185 C   0  0  0  0  0  0
  -32.7761  -17.3762   23.2151 C   0  0  0  0  0  0
  -30.8583  -16.4576   21.9973 C   0  0  0  0  0  0
  -30.8998  -18.8339   22.6307 C   0  0  0  0  0  0
  -30.0639  -22.1234   21.4288 C   0  0  0  0  0  0
  -34.1362  -17.1829   23.8544 C   0  0  0  0  0  0
  -29.2050  -22.9704   20.4812 C   0  0  0  0  0  0
  -29.7148  -20.6292   21.5642 C   0  0  0  0  0  0
  -29.4317  -24.5015   20.5843 C   0  0  0  0  0  0
  -28.2794  -25.2855   19.9374 C   0  0  0  0  0  0
  -30.1892  -15.3382   21.4232 N   0  0  0  0  0  0
  -31.0049  -22.6258   22.0554 O   0  0  0  0  0  0
  -30.3746  -20.1019   22.7138 O   0  0  0  0  0  0
  -31.4552  -12.3799   19.1013 H   0  0  0  0  0  0
  -30.3000  -11.2802   19.7934 H   0  0  0  0  0  0
  -29.7162  -11.7934   17.4075 H   0  0  0  0  0  0
  -29.6563  -13.5008   17.7689 H   0  0  0  0  0  0
  -27.8113  -11.3179   18.7996 H   0  0  0  0  0  0
  -27.3545  -12.6606   17.7856 H   0  0  0  0  0  0
  -27.7113  -14.2567   19.5880 H   0  0  0  0  0  0
  -28.6718  -11.9373   21.3299 H   0  0  0  0  0  0
  -28.4607  -13.5696   21.8754 H   0  0  0  0  0  0
  -25.2756   -9.5692   22.4749 H   0  0  0  0  0  0
  -24.0000   -7.4639   22.7476 H   0  0  0  0  0  0
  -21.0832   -8.8767   19.8948 H   0  0  0  0  0  0
  -22.3683  -10.9669   19.6159 H   0  0  0  0  0  0
  -21.2004   -7.6146   23.9709 H   0  0  0  0  0  0
  -21.1479   -6.0523   25.9074 H   0  0  0  0  0  0
  -22.0602   -2.7606   23.2851 H   0  0  0  0  0  0
  -22.4127  -11.9889   22.4777 H   0  0  0  0  0  0
  -21.1125  -13.1258   22.2609 H   0  0  0  0  0  0
  -24.6675  -15.8464   20.5055 H   0  0  0  0  0  0
  -26.2896  -15.6227   20.0891 H   0  0  0  0  0  0
  -26.7114  -32.5558   23.1189 H   0  0  0  0  0  0
  -24.9994  -33.9788   25.0470 H   0  0  0  0  0  0
  -22.6880  -31.3118   21.4208 H   0  0  0  0  0  0
  -23.3743  -35.9656   23.3317 H   0  0  0  0  0  0
  -24.3579  -36.8921   22.2049 H   0  0  0  0  0  0
  -23.7225  -37.6527   23.6651 H   0  0  0  0  0  0
  -26.0425  -31.6066   20.6008 H   0  0  0  0  0  0
  -26.8180  -30.8889   21.9834 H   0  0  0  0  0  0
  -28.0953  -29.0993   21.1670 H   0  0  0  0  0  0
  -26.0224  -26.0016   18.9713 H   0  0  0  0  0  0
  -23.9708  -27.3165   19.0203 H   0  0  0  0  0  0
  -23.7111  -30.6097   19.4090 H   0  0  0  0  0  0
  -22.7325  -29.2488   19.8750 H   0  0  0  0  0  0
  -25.1281  -36.2006   25.0832 H   0  0  0  0  0  0
  -20.9945  -28.3235   24.1447 H   0  0  0  0  0  0
  -20.5700  -26.2272   23.3612 H   0  0  0  0  0  0
  -21.6634  -26.7465   22.1204 H   0  0  0  0  0  0
  -19.6900  -25.6304   21.1235 H   0  0  0  0  0  0
  -19.6665  -27.3211   20.6783 H   0  0  0  0  0  0
  -17.4195  -26.6677   21.4028 H   0  0  0  0  0  0
  -18.0293  -26.0049   22.9015 H   0  0  0  0  0  0
  -19.7928  -30.7233   24.2303 H   0  0  0  0  0  0
  -17.5018  -31.6268   24.5163 H   0  0  0  0  0  0
  -15.5350  -30.2997   23.7636 H   0  0  0  0  0  0
  -15.8654  -28.0821   22.7071 H   0  0  0  0  0  0
  -24.5893  -30.7057   25.7808 H   0  0  0  0  0  0
  -24.8895  -32.2857   26.4940 H   0  0  0  0  0  0
  -25.8053  -30.8872   27.0236 H   0  0  0  0  0  0
  -26.2827  -29.6823   24.1149 H   0  0  0  0  0  0
  -27.4049  -29.7290   25.4550 H   0  0  0  0  0  0
  -27.8665  -30.4383   23.9250 H   0  0  0  0  0  0
  -27.2667  -33.3630   26.2092 H   0  0  0  0  0  0
  -28.3826  -32.6891   25.0293 H   0  0  0  0  0  0
  -28.0727  -31.8435   26.5378 H   0  0  0  0  0  0
  -28.2612  -38.0108   24.7531 H   0  0  0  0  0  0
  -28.1068  -36.2638   24.6275 H   0  0  0  0  0  0
  -27.2303  -37.1449   25.8867 H   0  0  0  0  0  0
  -20.9324  -29.8738   21.6952 H   0  0  0  0  0  0
  -26.0192  -38.2886   24.1411 H   0  0  0  0  0  0
  -32.6045  -15.3196   22.6086 H   0  0  0  0  0  0
  -32.6477  -19.4745   23.7157 H   0  0  0  0  0  0
  -29.2645  -17.8656   21.5758 H   0  0  0  0  0  0
  -34.7290  -16.4605   23.2922 H   0  0  0  0  0  0
  -34.0268  -16.8166   24.8756 H   0  0  0  0  0  0
  -34.6933  -18.1199   23.8833 H   0  0  0  0  0  0
  -28.1650  -22.7433   20.7125 H   0  0  0  0  0  0
  -29.3766  -22.6301   19.4600 H   0  0  0  0  0  0
  -30.0245  -20.1096   20.6562 H   0  0  0  0  0  0
  -28.6366  -20.5104   21.6725 H   0  0  0  0  0  0
  -30.3785  -24.7734   20.1168 H   0  0  0  0  0  0
  -29.5078  -24.7966   21.6317 H   0  0  0  0  0  0
  -27.3588  -24.9186   20.3949 H   0  0  0  0  0  0
  -28.2274  -25.0638   18.8708 H   0  0  0  0  0  0
  -29.2251  -15.1907   21.6817 H   0  0  0  0  0  0
  1 25  1  0  0  0
  1 30  2  0  0  0
  1 83  1  0  0  0
  2  3  1  0  0  0
  2 25  1  0  0  0
  2 86  1  0  0  0
  2 87  1  0  0  0
  3  4  1  0  0  0
  3 88  1  0  0  0
  3 89  1  0  0  0
  4  5  1  0  0  0
  4 90  1  0  0  0
  4 91  1  0  0  0
  5  6  1  0  0  0
  5 26  1  0  0  0
  5 92  1  0  0  0
  6 25  1  0  0  0
  6 93  1  0  0  0
  6 94  1  0  0  0
  7  8  2  0  0  0
  7 26  1  0  0  0
  7 29  1  0  0  0
  8  9  1  0  0  0
  8 22  1  0  0  0
  9 10  1  0  0  0
  9 27  2  0  0  0
 10 11  2  0  0  0
 10 15  1  0  0  0
 11 12  1  0  0  0
 11 95  1  0  0  0
 12 13  2  0  0  0
 12 96  1  0  0  0
 13 14  1  0  0  0
 13 31  1  0  0  0
 14 15  2  0  0  0
 14 97  1  0  0  0
 15 98  1  0  0  0
 16 17  2  0  0  0
 16 21  1  0  0  0
 16 31  1  0  0  0
 17 18  1  0  0  0
 17 99  1  0  0  0
 18 19  2  0  0  0
 18100  1  0  0  0
 19 20  1  0  0  0
 19 24  1  0  0  0
 20 21  2  0  0  0
 20101  1  0  0  0
 21 23  1  0  0  0
 22 28  1  0  0  0
 22 32  2  0  0  0
 26 27  1  0  0  0
 28102  1  0  0  0
 28103  1  0  0  0
 29104  1  0  0  0
 29105  1  0  0  0
 33 34  1  0  0  0
 33 66  1  0  0  0
 33 70  2  0  0  0
 34 36  1  0  0  0
 34 59  1  0  0  0
 34106  1  0  0  0
 35 44  2  0  0  0
 35 45  1  0  0  0
 35 68  1  0  0  0
 36 56  1  0  0  0
 36107  1  0  0  0
 37 39  1  0  0  0
 37 47  1  0  0  0
 37 66  1  0  0  0
 37108  1  0  0  0
 38 43  2  0  0  0
 38 46  1  0  0  0
 38 47  1  0  0  0
 39 64  1  0  0  0
 39 67  2  0  0  0
 40 52  1  0  0  0
 40 53  2  0  0  0
 40 58  1  0  0  0
 41109  1  0  0  0
 41110  1  0  0  0
 41111  1  0  0  0
 41 48  1  0  0  0
 42 43  1  0  0  0
 42 66  1  0  0  0
 42112  1  0  0  0
 42113  1  0  0  0
 43 44  1  0  0  0
 44114  1  0  0  0
 45 46  2  0  0  0
 45115  1  0  0  0
 46116  1  0  0  0
 47117  1  0  0  0
 47118  1  0  0  0
 48 56  1  0  0  0
 48 65  1  0  0  0
 48119  1  0  0  0
 49 50  1  0  0  0
 49 53  1  0  0  0
 49 64  1  0  0  0
 49120  1  0  0  0
 50 51  1  0  0  0
 50121  1  0  0  0
 50122  1  0  0  0
 51 52  1  0  0  0
 51123  1  0  0  0
 51124  1  0  0  0
 52125  1  0  0  0
 52126  1  0  0  0
 53 54  1  0  0  0
 54 55  2  0  0  0
 54127  1  0  0  0
 55 57  1  0  0  0
 55128  1  0  0  0
 56 69  2  0  0  0
 57 58  2  0  0  0
 57129  1  0  0  0
 58130  1  0  0  0
 59 60  1  0  0  0
 59 61  1  0  0  0
 59 62  1  0  0  0
 60131  1  0  0  0
 60132  1  0  0  0
 60133  1  0  0  0
 61134  1  0  0  0
 61135  1  0  0  0
 61136  1  0  0  0
 62137  1  0  0  0
 62138  1  0  0  0
 62139  1  0  0  0
 63 65  1  0  0  0
 63140  1  0  0  0
 63141  1  0  0  0
 63142  1  0  0  0
 64143  1  0  0  0
 65144  1  0  0  0
 68 82  1  0  0  0
 71 74  2  0  0  0
 71 75  1  0  0  0
 71145  1  0  0  0
 72 74  1  0  0  0
 72 76  2  0  0  0
 72146  1  0  0  0
 73 75  2  0  0  0
 73 76  1  0  0  0
 73147  1  0  0  0
 74 78  1  0  0  0
 75 83  1  0  0  0
 76 85  1  0  0  0
 77 79  1  0  0  0
 77 80  1  0  0  0
 77 84  2  0  0  0
 78148  1  0  0  0
 78149  1  0  0  0
 78150  1  0  0  0
 79 81  1  0  0  0
 79151  1  0  0  0
 79152  1  0  0  0
 80 85  1  0  0  0
 80153  1  0  0  0
 80154  1  0  0  0
 81 82  1  0  0  0
 81155  1  0  0  0
 81156  1  0  0  0
 82157  1  0  0  0
 82158  1  0  0  0
 83159  1  0  0  0
M  ISO  4   1 100  68 101  82 101  83 100
M  END
> <chiral flag>
0

> <version>
0

> <s_m_source_file>
/data/baiqing/PycharmProjects/Reinvent-master-3.2/result/LINK_invent/BTK/process_docking_weight1_custom_product_contain_oxygen_bond_distance_aromatic_linkinvent_7_9_3/rearranged_h_0134.sdf

> <i_m_source_file_index>
16

> <r_mmod_Potential_Energy-OPLS-2005>
-39.2492752075195

> <r_mmod_Stretch_Energy-OPLS-2005>
35.2788314819336

> <r_mmod_Bend_Energy-OPLS-2005>
95.182487487793

> <r_mmod_Torsional_Energy-OPLS-2005>
231.504409790039

> <r_mmod_Improper_Torsional_Energy-OPLS-2005>
2.1671302318573

> <r_mmod_Van_der_Waal_Energy-OPLS-2005>
162.70182800293

> <r_mmod_Electrostatic_Energy-OPLS-2005>
-339.63623046875

> <r_mmod_Solvation_Energy-OPLS-2005>
-236.623992919922

> <b_mmod_Minimization_Converged-OPLS-2005>
0

> <r_mmod_RMS_Derivative-OPLS-2005>
1.44590532779694

$$$$
16
                    3D
 Structure written by MMmdl.
162170  0  0  1  0            999 V2000
  -30.6420  -14.5983   20.4448 C   0  0  0  0  0  0
  -30.4294  -12.3467   19.4577 C   0  0  0  0  0  0
  -29.5101  -12.4673   18.2242 C   0  0  0  0  0  0
  -28.0262  -12.3425   18.6327 C   0  0  0  0  0  0
  -27.6525  -13.2056   19.8694 C   0  0  2  0  0  0
  -28.7009  -13.0712   20.9976 C   0  0  0  0  0  0
  -25.2553  -13.8116   20.5681 C   0  0  0  0  0  0
  -24.1811  -13.0406   20.9182 C   0  0  0  0  0  0
  -24.6372  -11.6873   20.8758 C   0  0  0  0  0  0
  -23.9036  -10.4267   21.0425 C   0  0  0  0  0  0
  -24.3588   -9.4163   21.9197 C   0  0  0  0  0  0
  -23.6266   -8.2223   22.0774 C   0  0  0  0  0  0
  -22.4241   -8.0288   21.3560 C   0  0  0  0  0  0
  -21.9868   -9.0254   20.4651 C   0  0  0  0  0  0
  -22.7224  -10.2130   20.3069 C   0  0  0  0  0  0
  -21.6847   -6.0708   22.5255 C   0  0  0  0  0  0
  -21.4009   -6.5604   23.8197 C   0  0  0  0  0  0
  -21.3652   -5.6771   24.9162 C   0  0  0  0  0  0
  -21.6038   -4.3039   24.7221 C   0  0  0  0  0  0
  -21.8820   -3.8130   23.4351 C   0  0  0  0  0  0
  -21.9205   -4.6936   22.3386 C   0  0  0  0  0  0
  -22.7843  -13.5240   21.1828 C   0  0  0  0  0  0
  -22.1686   -4.2119   21.0973 F   0  0  0  0  0  0
  -21.5617   -3.4533   25.7744 F   0  0  0  0  0  0
  -30.0199  -13.3827   20.4250 N   0  0  0  0  0  0
  -26.2980  -12.9270   20.3369 N   0  0  0  0  0  0
  -25.9296  -11.6444   20.5798 N   0  0  0  0  0  0
  -22.0454  -12.8269   22.0383 N   0  0  0  0  0  0
  -25.4217  -15.1843   20.4014 N   0  0  0  0  0  0
  -31.7958  -14.7487   20.0389 O   0  0  0  0  0  0
  -21.6641   -6.8870   21.4239 O   0  0  0  0  0  0
  -22.3560  -14.5557   20.6678 O   0  0  0  0  0  0
  -24.6163  -31.8661   23.2087 C   0  0  0  0  0  0
  -25.9042  -32.4821   23.8380 C   0  0  1  0  0  0
  -27.2225  -27.3706   20.0972 C   0  0  0  0  0  0
  -25.5893  -33.8608   24.2334 N   0  0  0  0  0  0
  -23.4043  -30.4894   21.5486 C   0  0  2  0  0  0
  -24.8479  -28.9432   20.1158 C   0  0  0  0  0  0
  -22.7408  -29.4659   22.4963 C   0  0  0  0  0  0
  -18.0268  -28.1444   22.8505 C   0  0  0  0  0  0
  -24.1471  -36.7265   23.2636 C   0  0  0  0  0  0
  -25.9393  -30.8098   21.3684 C   0  0  0  0  0  0
  -26.0116  -29.4362   20.7182 C   0  0  0  0  0  0
  -27.1936  -28.6507   20.7146 C   0  0  0  0  0  0
  -26.0325  -26.9027   19.4915 C   0  0  0  0  0  0
  -24.8560  -27.6768   19.5059 C   0  0  0  0  0  0
  -23.6149  -29.8203   20.1645 C   0  0  0  0  0  0
  -25.4106  -36.3092   24.0345 C   0  0  1  0  0  0
  -20.5854  -28.3715   23.1310 C   0  0  2  0  0  0
  -20.6742  -26.9448   22.5423 C   0  0  0  0  0  0
  -19.5729  -26.6435   21.5212 C   0  0  0  0  0  0
  -18.1911  -26.7999   22.1621 C   0  0  0  0  0  0
  -19.1521  -28.8903   23.2905 C   0  0  0  0  0  0
  -18.9460  -30.1497   23.8941 C   0  0  0  0  0  0
  -17.6463  -30.6642   24.0600 C   0  0  0  0  0  0
  -25.9037  -34.9464   23.5136 C   0  0  0  0  0  0
  -16.5354  -29.9142   23.6356 C   0  0  0  0  0  0
  -16.7252  -28.6556   23.0375 C   0  0  0  0  0  0
  -26.4493  -31.6608   25.0716 C   0  0  0  0  0  0
  -25.3777  -31.3712   26.1479 C   0  0  0  0  0  0
  -27.0328  -30.3058   24.6108 C   0  0  0  0  0  0
  -27.6091  -32.4314   25.7438 C   0  0  0  0  0  0
  -27.5582  -37.1782   24.8473 C   0  0  0  0  0  0
  -21.4118  -29.3066   22.3710 N   0  0  0  0  0  0
  -26.4283  -37.3797   23.9434 N   0  0  0  0  0  0
  -24.6721  -31.0714   22.1005 N   0  0  0  0  0  0
  -23.4145  -28.8182   23.3025 O   0  0  0  0  0  0
  -28.3891  -26.6170   20.1312 O   0  0  0  0  0  0
  -26.5580  -34.8908   22.4684 O   0  0  0  0  0  0
  -23.5350  -32.1415   23.7468 O   0  0  0  0  0  0
  -28.9083  -16.4126   18.6342 C   0  0  0  0  0  0
  -29.3363  -18.1058   20.3099 C   0  0  0  0  0  0
  -28.1450  -17.3339   17.8925 C   0  0  0  0  0  0
  -27.9698  -18.6708   18.3533 C   0  0  0  0  0  0
  -29.4374  -16.7404   19.8950 C   0  0  0  0  0  0
  -28.6529  -19.1023   19.5376 C   0  0  0  0  0  0
  -28.1636  -24.0695   20.1470 C   0  0  0  0  0  0
  -27.4644  -16.7862   16.6390 C   0  0  0  0  0  0
  -27.3361  -20.1097   16.2940 C   0  0  0  0  0  0
  -26.9247  -19.5574   17.6690 C   0  0  0  0  0  0
  -29.1490  -22.8584   20.1407 C   0  0  0  0  0  0
  -28.5453  -25.3752   19.3781 C   0  0  0  0  0  0
  -28.8105  -21.5903   19.2728 C   0  0  0  0  0  0
  -29.8737  -15.6739   20.7785 N   0  0  0  0  0  0
  -27.1045  -23.9949   20.7755 O   0  0  0  0  0  0
  -28.5603  -20.3978   20.0739 O   0  0  0  0  0  0
  -31.4758  -12.4366   19.1627 H   0  0  0  0  0  0
  -30.3389  -11.3602   19.9130 H   0  0  0  0  0  0
  -29.7610  -11.6948   17.4958 H   0  0  0  0  0  0
  -29.6848  -13.4156   17.7173 H   0  0  0  0  0  0
  -27.8318  -11.2925   18.8518 H   0  0  0  0  0  0
  -27.3870  -12.5937   17.7866 H   0  0  0  0  0  0
  -27.6520  -14.2391   19.5389 H   0  0  0  0  0  0
  -28.7043  -12.0575   21.4002 H   0  0  0  0  0  0
  -28.4540  -13.7260   21.8354 H   0  0  0  0  0  0
  -25.2714   -9.5646   22.4798 H   0  0  0  0  0  0
  -23.9967   -7.4593   22.7482 H   0  0  0  0  0  0
  -21.0800   -8.8767   19.8950 H   0  0  0  0  0  0
  -22.3659  -10.9681   19.6202 H   0  0  0  0  0  0
  -21.1994   -7.6103   23.9673 H   0  0  0  0  0  0
  -21.1474   -6.0511   25.9061 H   0  0  0  0  0  0
  -22.0615   -2.7597   23.2861 H   0  0  0  0  0  0
  -22.4059  -11.9999   22.4877 H   0  0  0  0  0  0
  -21.1073  -13.1357   22.2554 H   0  0  0  0  0  0
  -24.6396  -15.8256   20.4660 H   0  0  0  0  0  0
  -26.2573  -15.6170   20.0276 H   0  0  0  0  0  0
  -26.7076  -32.5545   23.1092 H   0  0  0  0  0  0
  -25.0094  -33.9759   25.0515 H   0  0  0  0  0  0
  -22.6938  -31.3069   21.4099 H   0  0  0  0  0  0
  -23.3748  -35.9575   23.3310 H   0  0  0  0  0  0
  -24.3561  -36.8882   22.2051 H   0  0  0  0  0  0
  -23.7218  -37.6469   23.6641 H   0  0  0  0  0  0
  -26.0516  -31.5699   20.5922 H   0  0  0  0  0  0
  -26.8255  -30.8697   21.9887 H   0  0  0  0  0  0
  -28.0872  -29.0167   21.1992 H   0  0  0  0  0  0
  -25.9850  -25.9281   19.0332 H   0  0  0  0  0  0
  -23.9549  -27.2860   19.0525 H   0  0  0  0  0  0
  -23.7239  -30.5892   19.3990 H   0  0  0  0  0  0
  -22.7353  -29.2408   19.8770 H   0  0  0  0  0  0
  -25.1283  -36.1954   25.0844 H   0  0  0  0  0  0
  -20.9957  -28.3300   24.1420 H   0  0  0  0  0  0
  -20.5645  -26.2317   23.3600 H   0  0  0  0  0  0
  -21.6617  -26.7488   22.1256 H   0  0  0  0  0  0
  -19.6841  -25.6339   21.1251 H   0  0  0  0  0  0
  -19.6676  -27.3218   20.6719 H   0  0  0  0  0  0
  -17.4179  -26.6765   21.4025 H   0  0  0  0  0  0
  -18.0280  -26.0152   22.9014 H   0  0  0  0  0  0
  -19.7945  -30.7312   24.2310 H   0  0  0  0  0  0
  -17.5039  -31.6327   24.5195 H   0  0  0  0  0  0
  -15.5367  -30.3060   23.7695 H   0  0  0  0  0  0
  -15.8636  -28.0893   22.7090 H   0  0  0  0  0  0
  -24.5930  -30.7074   25.7830 H   0  0  0  0  0  0
  -24.8979  -32.2862   26.4965 H   0  0  0  0  0  0
  -25.8154  -30.8868   27.0216 H   0  0  0  0  0  0
  -26.2862  -29.6770   24.1250 H   0  0  0  0  0  0
  -27.4186  -29.7377   25.4585 H   0  0  0  0  0  0
  -27.8643  -30.4382   23.9179 H   0  0  0  0  0  0
  -27.2781  -33.3644   26.1994 H   0  0  0  0  0  0
  -28.3879  -32.6834   25.0227 H   0  0  0  0  0  0
  -28.0750  -31.8449   26.5365 H   0  0  0  0  0  0
  -28.2619  -38.0068   24.7568 H   0  0  0  0  0  0
  -28.1068  -36.2614   24.6241 H   0  0  0  0  0  0
  -27.2307  -37.1406   25.8881 H   0  0  0  0  0  0
  -20.9250  -29.8783   21.6955 H   0  0  0  0  0  0
  -26.0154  -38.2853   24.1496 H   0  0  0  0  0  0
  -28.9796  -15.4042   18.2594 H   0  0  0  0  0  0
  -29.7540  -18.3939   21.2633 H   0  0  0  0  0  0
  -27.3193  -15.7083   16.7234 H   0  0  0  0  0  0
  -28.0809  -16.9563   15.7561 H   0  0  0  0  0  0
  -26.4778  -17.2094   16.4626 H   0  0  0  0  0  0
  -26.5563  -20.7633   15.9003 H   0  0  0  0  0  0
  -27.4773  -19.3125   15.5653 H   0  0  0  0  0  0
  -28.2557  -20.6902   16.3413 H   0  0  0  0  0  0
  -26.6091  -20.3578   18.3284 H   0  0  0  0  0  0
  -26.0021  -18.9899   17.5633 H   0  0  0  0  0  0
  -29.2641  -22.5442   21.1763 H   0  0  0  0  0  0
  -30.1272  -23.2348   19.8446 H   0  0  0  0  0  0
  -28.0180  -25.4191   18.4254 H   0  0  0  0  0  0
  -29.6027  -25.2964   19.1310 H   0  0  0  0  0  0
  -29.6534  -21.3872   18.6099 H   0  0  0  0  0  0
  -27.9789  -21.8525   18.6227 H   0  0  0  0  0  0
  -29.1627  -15.4203   21.4477 H   0  0  0  0  0  0
  1 25  1  0  0  0
  1 30  2  0  0  0
  1 84  1  0  0  0
  2  3  1  0  0  0
  2 25  1  0  0  0
  2 87  1  0  0  0
  2 88  1  0  0  0
  3  4  1  0  0  0
  3 89  1  0  0  0
  3 90  1  0  0  0
  4  5  1  0  0  0
  4 91  1  0  0  0
  4 92  1  0  0  0
  5  6  1  0  0  0
  5 26  1  0  0  0
  5 93  1  0  0  0
  6 25  1  0  0  0
  6 94  1  0  0  0
  6 95  1  0  0  0
  7  8  2  0  0  0
  7 26  1  0  0  0
  7 29  1  0  0  0
  8  9  1  0  0  0
  8 22  1  0  0  0
  9 10  1  0  0  0
  9 27  2  0  0  0
 10 11  2  0  0  0
 10 15  1  0  0  0
 11 12  1  0  0  0
 11 96  1  0  0  0
 12 13  2  0  0  0
 12 97  1  0  0  0
 13 14  1  0  0  0
 13 31  1  0  0  0
 14 15  2  0  0  0
 14 98  1  0  0  0
 15 99  1  0  0  0
 16 17  2  0  0  0
 16 21  1  0  0  0
 16 31  1  0  0  0
 17 18  1  0  0  0
 17100  1  0  0  0
 18 19  2  0  0  0
 18101  1  0  0  0
 19 20  1  0  0  0
 19 24  1  0  0  0
 20 21  2  0  0  0
 20102  1  0  0  0
 21 23  1  0  0  0
 22 28  1  0  0  0
 22 32  2  0  0  0
 26 27  1  0  0  0
 28103  1  0  0  0
 28104  1  0  0  0
 29105  1  0  0  0
 29106  1  0  0  0
 33 34  1  0  0  0
 33 66  1  0  0  0
 33 70  2  0  0  0
 34 36  1  0  0  0
 34 59  1  0  0  0
 34107  1  0  0  0
 35 44  2  0  0  0
 35 45  1  0  0  0
 35 68  1  0  0  0
 36 56  1  0  0  0
 36108  1  0  0  0
 37 39  1  0  0  0
 37 47  1  0  0  0
 37 66  1  0  0  0
 37109  1  0  0  0
 38 43  2  0  0  0
 38 46  1  0  0  0
 38 47  1  0  0  0
 39 64  1  0  0  0
 39 67  2  0  0  0
 40 52  1  0  0  0
 40 53  2  0  0  0
 40 58  1  0  0  0
 41110  1  0  0  0
 41111  1  0  0  0
 41112  1  0  0  0
 41 48  1  0  0  0
 42 43  1  0  0  0
 42 66  1  0  0  0
 42113  1  0  0  0
 42114  1  0  0  0
 43 44  1  0  0  0
 44115  1  0  0  0
 45 46  2  0  0  0
 45116  1  0  0  0
 46117  1  0  0  0
 47118  1  0  0  0
 47119  1  0  0  0
 48 56  1  0  0  0
 48 65  1  0  0  0
 48120  1  0  0  0
 49 50  1  0  0  0
 49 53  1  0  0  0
 49 64  1  0  0  0
 49121  1  0  0  0
 50 51  1  0  0  0
 50122  1  0  0  0
 50123  1  0  0  0
 51 52  1  0  0  0
 51124  1  0  0  0
 51125  1  0  0  0
 52126  1  0  0  0
 52127  1  0  0  0
 53 54  1  0  0  0
 54 55  2  0  0  0
 54128  1  0  0  0
 55 57  1  0  0  0
 55129  1  0  0  0
 56 69  2  0  0  0
 57 58  2  0  0  0
 57130  1  0  0  0
 58131  1  0  0  0
 59 60  1  0  0  0
 59 61  1  0  0  0
 59 62  1  0  0  0
 60132  1  0  0  0
 60133  1  0  0  0
 60134  1  0  0  0
 61135  1  0  0  0
 61136  1  0  0  0
 61137  1  0  0  0
 62138  1  0  0  0
 62139  1  0  0  0
 62140  1  0  0  0
 63 65  1  0  0  0
 63141  1  0  0  0
 63142  1  0  0  0
 63143  1  0  0  0
 64144  1  0  0  0
 65145  1  0  0  0
 68 82  1  0  0  0
 71 73  2  0  0  0
 71 75  1  0  0  0
 71146  1  0  0  0
 72 75  2  0  0  0
 72 76  1  0  0  0
 72147  1  0  0  0
 73 74  1  0  0  0
 73 78  1  0  0  0
 74 76  2  0  0  0
 74 80  1  0  0  0
 75 84  1  0  0  0
 76 86  1  0  0  0
 77 81  1  0  0  0
 77 82  1  0  0  0
 77 85  2  0  0  0
 78148  1  0  0  0
 78149  1  0  0  0
 78150  1  0  0  0
 79 80  1  0  0  0
 79151  1  0  0  0
 79152  1  0  0  0
 79153  1  0  0  0
 80154  1  0  0  0
 80155  1  0  0  0
 81 83  1  0  0  0
 81156  1  0  0  0
 81157  1  0  0  0
 82158  1  0  0  0
 82159  1  0  0  0
 83 86  1  0  0  0
 83160  1  0  0  0
 83161  1  0  0  0
 84162  1  0  0  0
M  ISO  4   1 100  68 101  82 101  84 100
M  END
> <chiral flag>
0

> <version>
0

> <s_m_source_file>
/data/baiqing/PycharmProjects/Reinvent-master-3.2/result/LINK_invent/BTK/process_docking_weight1_custom_product_contain_oxygen_bond_distance_aromatic_linkinvent_7_9_3/rearranged_h_0134.sdf

> <i_m_source_file_index>
17

> <r_mmod_Potential_Energy-OPLS-2005>
91.244384765625

> <r_mmod_Stretch_Energy-OPLS-2005>
63.2745056152344

> <r_mmod_Bend_Energy-OPLS-2005>
140.201171875

> <r_mmod_Torsional_Energy-OPLS-2005>
293.869415283203

> <r_mmod_Improper_Torsional_Energy-OPLS-2005>
9.63065910339355

> <r_mmod_Van_der_Waal_Energy-OPLS-2005>
142.508697509766

> <r_mmod_Electrostatic_Energy-OPLS-2005>
-361.819671630859

> <r_mmod_Solvation_Energy-OPLS-2005>
-230.202087402344

> <b_mmod_Minimization_Converged-OPLS-2005>
0

> <r_mmod_RMS_Derivative-OPLS-2005>
4.84487581253052

$$$$
17
                    3D
 Structure written by MMmdl.
160168  0  0  1  0            999 V2000
  -30.7438  -14.3791   20.6821 C   0  0  0  0  0  0
  -30.4271  -12.2934   19.3950 C   0  0  0  0  0  0
  -29.4886  -12.5305   18.1956 C   0  0  0  0  0  0
  -28.0135  -12.3790   18.6122 C   0  0  0  0  0  0
  -27.6710  -13.1983   19.8833 C   0  0  2  0  0  0
  -28.7076  -12.9252   20.9955 C   0  0  0  0  0  0
  -25.2631  -13.8146   20.5673 C   0  0  0  0  0  0
  -24.1862  -13.0436   20.9152 C   0  0  0  0  0  0
  -24.6401  -11.6898   20.8714 C   0  0  0  0  0  0
  -23.9061  -10.4290   21.0394 C   0  0  0  0  0  0
  -24.3613   -9.4211   21.9177 C   0  0  0  0  0  0
  -23.6290   -8.2246   22.0753 C   0  0  0  0  0  0
  -22.4270   -8.0281   21.3545 C   0  0  0  0  0  0
  -21.9905   -9.0253   20.4644 C   0  0  0  0  0  0
  -22.7234  -10.2131   20.3045 C   0  0  0  0  0  0
  -21.6856   -6.0734   22.5279 C   0  0  0  0  0  0
  -21.4016   -6.5639   23.8211 C   0  0  0  0  0  0
  -21.3655   -5.6794   24.9174 C   0  0  0  0  0  0
  -21.6042   -4.3055   24.7229 C   0  0  0  0  0  0
  -21.8821   -3.8146   23.4350 C   0  0  0  0  0  0
  -21.9194   -4.6961   22.3404 C   0  0  0  0  0  0
  -22.7886  -13.5240   21.1830 C   0  0  0  0  0  0
  -22.1663   -4.2146   21.0983 F   0  0  0  0  0  0
  -21.5627   -3.4538   25.7741 F   0  0  0  0  0  0
  -30.0556  -13.2263   20.4691 N   0  0  0  0  0  0
  -26.3071  -12.9304   20.3391 N   0  0  0  0  0  0
  -25.9326  -11.6468   20.5752 N   0  0  0  0  0  0
  -22.0530  -12.8225   22.0386 N   0  0  0  0  0  0
  -25.4381  -15.1863   20.4099 N   0  0  0  0  0  0
  -31.7594  -14.6889   20.0499 O   0  0  0  0  0  0
  -21.6639   -6.8876   21.4240 O   0  0  0  0  0  0
  -22.3569  -14.5552   20.6690 O   0  0  0  0  0  0
  -24.6138  -31.8700   23.2131 C   0  0  0  0  0  0
  -25.9042  -32.4831   23.8415 C   0  0  1  0  0  0
  -27.2330  -27.4474   20.0817 C   0  0  0  0  0  0
  -25.5907  -33.8630   24.2346 N   0  0  0  0  0  0
  -23.3997  -30.4961   21.5543 C   0  0  2  0  0  0
  -24.8433  -28.9686   20.1147 C   0  0  0  0  0  0
  -22.7403  -29.4669   22.5004 C   0  0  0  0  0  0
  -18.0272  -28.1372   22.8494 C   0  0  0  0  0  0
  -24.1488  -36.7318   23.2636 C   0  0  0  0  0  0
  -25.9292  -30.8378   21.3663 C   0  0  0  0  0  0
  -26.0045  -29.4747   20.7109 C   0  0  0  0  0  0
  -27.1999  -28.7207   20.6943 C   0  0  0  0  0  0
  -26.0473  -26.9599   19.4765 C   0  0  0  0  0  0
  -24.8588  -27.7089   19.4973 C   0  0  0  0  0  0
  -23.6058  -29.8336   20.1671 C   0  0  0  0  0  0
  -25.4108  -36.3117   24.0339 C   0  0  1  0  0  0
  -20.5861  -28.3655   23.1323 C   0  0  2  0  0  0
  -20.6763  -26.9395   22.5414 C   0  0  0  0  0  0
  -19.5742  -26.6386   21.5209 C   0  0  0  0  0  0
  -18.1920  -26.7922   22.1620 C   0  0  0  0  0  0
  -19.1520  -28.8831   23.2907 C   0  0  0  0  0  0
  -18.9449  -30.1439   23.8914 C   0  0  0  0  0  0
  -17.6450  -30.6578   24.0567 C   0  0  0  0  0  0
  -25.9034  -34.9480   23.5136 C   0  0  0  0  0  0
  -16.5342  -29.9080   23.6326 C   0  0  0  0  0  0
  -16.7261  -28.6497   23.0346 C   0  0  0  0  0  0
  -26.4475  -31.6600   25.0734 C   0  0  0  0  0  0
  -25.3745  -31.3692   26.1483 C   0  0  0  0  0  0
  -27.0308  -30.3049   24.6097 C   0  0  0  0  0  0
  -27.6055  -32.4313   25.7493 C   0  0  0  0  0  0
  -27.5582  -37.1816   24.8464 C   0  0  0  0  0  0
  -21.4133  -29.3031   22.3739 N   0  0  0  0  0  0
  -26.4297  -37.3798   23.9405 N   0  0  0  0  0  0
  -24.6658  -31.0815   22.1028 N   0  0  0  0  0  0
  -23.4187  -28.8205   23.3033 O   0  0  0  0  0  0
  -28.4137  -26.7270   20.0979 O   0  0  0  0  0  0
  -26.5589  -34.8925   22.4693 O   0  0  0  0  0  0
  -23.5335  -32.1448   23.7534 O   0  0  0  0  0  0
  -29.7320  -18.3812   23.4050 C   0  0  0  0  0  0
  -30.1926  -19.2978   22.4438 C   0  0  0  0  0  0
  -30.8093  -17.4475   20.9831 C   0  0  0  0  0  0
  -29.7827  -16.9950   23.1541 C   0  0  0  0  0  0
  -30.3234  -16.5147   21.9356 C   0  0  0  0  0  0
  -30.7245  -18.8364   21.2219 C   0  0  0  0  0  0
  -29.2384  -16.0371   24.2023 C   0  0  0  0  0  0
  -29.3968  -23.0589   19.7351 C   0  0  0  0  0  0
  -29.5764  -24.5381   20.1318 C   0  0  0  0  0  0
  -30.4951  -22.0972   20.2239 C   0  0  0  0  0  0
  -28.3347  -25.3487   19.7268 C   0  0  0  0  0  0
  -30.1794  -20.6497   19.8002 C   0  0  0  0  0  0
  -30.2745  -15.1092   21.7052 N   0  0  0  0  0  0
  -31.1549  -19.7099   20.2511 O   0  0  0  0  0  0
  -31.4686  -12.4076   19.0888 H   0  0  0  0  0  0
  -30.3364  -11.2666   19.7527 H   0  0  0  0  0  0
  -29.7222  -11.8327   17.3905 H   0  0  0  0  0  0
  -29.6541  -13.5304   17.7915 H   0  0  0  0  0  0
  -27.8264  -11.3198   18.7934 H   0  0  0  0  0  0
  -27.3575  -12.6665   17.7898 H   0  0  0  0  0  0
  -27.7339  -14.2542   19.6181 H   0  0  0  0  0  0
  -28.6698  -11.8761   21.2923 H   0  0  0  0  0  0
  -28.4430  -13.4805   21.8955 H   0  0  0  0  0  0
  -25.2760   -9.5686   22.4749 H   0  0  0  0  0  0
  -24.0001   -7.4636   22.7470 H   0  0  0  0  0  0
  -21.0837   -8.8768   19.8950 H   0  0  0  0  0  0
  -22.3697  -10.9664   19.6145 H   0  0  0  0  0  0
  -21.2011   -7.6148   23.9713 H   0  0  0  0  0  0
  -21.1474   -6.0525   25.9076 H   0  0  0  0  0  0
  -22.0604   -2.7608   23.2853 H   0  0  0  0  0  0
  -22.4150  -11.9872   22.4745 H   0  0  0  0  0  0
  -21.1148  -13.1244   22.2602 H   0  0  0  0  0  0
  -24.6782  -15.8481   20.5233 H   0  0  0  0  0  0
  -26.3058  -15.6234   20.1240 H   0  0  0  0  0  0
  -26.7112  -32.5544   23.1180 H   0  0  0  0  0  0
  -25.0082  -33.9799   25.0507 H   0  0  0  0  0  0
  -22.6877  -31.3130   21.4190 H   0  0  0  0  0  0
  -23.3746  -35.9654   23.3308 H   0  0  0  0  0  0
  -24.3586  -36.8920   22.2048 H   0  0  0  0  0  0
  -23.7241  -37.6528   23.6641 H   0  0  0  0  0  0
  -26.0432  -31.6059   20.6000 H   0  0  0  0  0  0
  -26.8169  -30.8873   21.9850 H   0  0  0  0  0  0
  -28.0959  -29.1098   21.1578 H   0  0  0  0  0  0
  -26.0104  -26.0047   18.9741 H   0  0  0  0  0  0
  -23.9669  -27.3148   19.0298 H   0  0  0  0  0  0
  -23.7124  -30.6105   19.4092 H   0  0  0  0  0  0
  -22.7298  -29.2535   19.8714 H   0  0  0  0  0  0
  -25.1283  -36.1990   25.0832 H   0  0  0  0  0  0
  -20.9954  -28.3213   24.1443 H   0  0  0  0  0  0
  -20.5670  -26.2259   23.3596 H   0  0  0  0  0  0
  -21.6634  -26.7444   22.1201 H   0  0  0  0  0  0
  -19.6904  -25.6304   21.1221 H   0  0  0  0  0  0
  -19.6682  -27.3213   20.6753 H   0  0  0  0  0  0
  -17.4193  -26.6678   21.4018 H   0  0  0  0  0  0
  -18.0318  -26.0053   22.9005 H   0  0  0  0  0  0
  -19.7924  -30.7253   24.2289 H   0  0  0  0  0  0
  -17.5003  -31.6259   24.5164 H   0  0  0  0  0  0
  -15.5342  -30.2985   23.7640 H   0  0  0  0  0  0
  -15.8662  -28.0823   22.7048 H   0  0  0  0  0  0
  -24.5922  -30.7038   25.7816 H   0  0  0  0  0  0
  -24.8934  -32.2840   26.4950 H   0  0  0  0  0  0
  -25.8104  -30.8847   27.0228 H   0  0  0  0  0  0
  -26.2852  -29.6808   24.1156 H   0  0  0  0  0  0
  -27.4097  -29.7283   25.4546 H   0  0  0  0  0  0
  -27.8678  -30.4379   23.9237 H   0  0  0  0  0  0
  -27.2684  -33.3604   26.2101 H   0  0  0  0  0  0
  -28.3851  -32.6885   25.0309 H   0  0  0  0  0  0
  -28.0739  -31.8416   26.5383 H   0  0  0  0  0  0
  -28.2604  -38.0110   24.7510 H   0  0  0  0  0  0
  -28.1075  -36.2642   24.6291 H   0  0  0  0  0  0
  -27.2300  -37.1469   25.8867 H   0  0  0  0  0  0
  -20.9289  -29.8766   21.6975 H   0  0  0  0  0  0
  -26.0188  -38.2879   24.1397 H   0  0  0  0  0  0
  -29.3228  -18.7531   24.3342 H   0  0  0  0  0  0
  -30.1318  -20.3558   22.6532 H   0  0  0  0  0  0
  -31.2099  -17.1195   20.0354 H   0  0  0  0  0  0
  -30.0000  -15.3144   24.4972 H   0  0  0  0  0  0
  -28.3752  -15.4955   23.8142 H   0  0  0  0  0  0
  -28.9210  -16.5661   25.1017 H   0  0  0  0  0  0
  -29.3186  -22.9908   18.6488 H   0  0  0  0  0  0
  -28.4401  -22.7068   20.1244 H   0  0  0  0  0  0
  -30.4675  -24.9516   19.6583 H   0  0  0  0  0  0
  -29.7240  -24.6185   21.2096 H   0  0  0  0  0  0
  -30.5795  -22.1599   21.3084 H   0  0  0  0  0  0
  -31.4625  -22.3968   19.8191 H   0  0  0  0  0  0
  -27.4757  -24.8836   20.2141 H   0  0  0  0  0  0
  -28.1860  -25.2753   18.6482 H   0  0  0  0  0  0
  -30.1579  -20.5928   18.7113 H   0  0  0  0  0  0
  -29.1739  -20.3726   20.1256 H   0  0  0  0  0  0
  -29.6175  -14.6093   22.2833 H   0  0  0  0  0  0
  1 25  1  0  0  0
  1 30  2  0  0  0
  1 83  1  0  0  0
  2  3  1  0  0  0
  2 25  1  0  0  0
  2 85  1  0  0  0
  2 86  1  0  0  0
  3  4  1  0  0  0
  3 87  1  0  0  0
  3 88  1  0  0  0
  4  5  1  0  0  0
  4 89  1  0  0  0
  4 90  1  0  0  0
  5  6  1  0  0  0
  5 26  1  0  0  0
  5 91  1  0  0  0
  6 25  1  0  0  0
  6 92  1  0  0  0
  6 93  1  0  0  0
  7  8  2  0  0  0
  7 26  1  0  0  0
  7 29  1  0  0  0
  8  9  1  0  0  0
  8 22  1  0  0  0
  9 10  1  0  0  0
  9 27  2  0  0  0
 10 11  2  0  0  0
 10 15  1  0  0  0
 11 12  1  0  0  0
 11 94  1  0  0  0
 12 13  2  0  0  0
 12 95  1  0  0  0
 13 14  1  0  0  0
 13 31  1  0  0  0
 14 15  2  0  0  0
 14 96  1  0  0  0
 15 97  1  0  0  0
 16 17  2  0  0  0
 16 21  1  0  0  0
 16 31  1  0  0  0
 17 18  1  0  0  0
 17 98  1  0  0  0
 18 19  2  0  0  0
 18 99  1  0  0  0
 19 20  1  0  0  0
 19 24  1  0  0  0
 20 21  2  0  0  0
 20100  1  0  0  0
 21 23  1  0  0  0
 22 28  1  0  0  0
 22 32  2  0  0  0
 26 27  1  0  0  0
 28101  1  0  0  0
 28102  1  0  0  0
 29103  1  0  0  0
 29104  1  0  0  0
 33 34  1  0  0  0
 33 66  1  0  0  0
 33 70  2  0  0  0
 34 36  1  0  0  0
 34 59  1  0  0  0
 34105  1  0  0  0
 35 44  2  0  0  0
 35 45  1  0  0  0
 35 68  1  0  0  0
 36 56  1  0  0  0
 36106  1  0  0  0
 37 39  1  0  0  0
 37 47  1  0  0  0
 37 66  1  0  0  0
 37107  1  0  0  0
 38 43  2  0  0  0
 38 46  1  0  0  0
 38 47  1  0  0  0
 39 64  1  0  0  0
 39 67  2  0  0  0
 40 52  1  0  0  0
 40 53  2  0  0  0
 40 58  1  0  0  0
 41108  1  0  0  0
 41109  1  0  0  0
 41110  1  0  0  0
 41 48  1  0  0  0
 42 43  1  0  0  0
 42 66  1  0  0  0
 42111  1  0  0  0
 42112  1  0  0  0
 43 44  1  0  0  0
 44113  1  0  0  0
 45 46  2  0  0  0
 45114  1  0  0  0
 46115  1  0  0  0
 47116  1  0  0  0
 47117  1  0  0  0
 48 56  1  0  0  0
 48 65  1  0  0  0
 48118  1  0  0  0
 49 50  1  0  0  0
 49 53  1  0  0  0
 49 64  1  0  0  0
 49119  1  0  0  0
 50 51  1  0  0  0
 50120  1  0  0  0
 50121  1  0  0  0
 51 52  1  0  0  0
 51122  1  0  0  0
 51123  1  0  0  0
 52124  1  0  0  0
 52125  1  0  0  0
 53 54  1  0  0  0
 54 55  2  0  0  0
 54126  1  0  0  0
 55 57  1  0  0  0
 55127  1  0  0  0
 56 69  2  0  0  0
 57 58  2  0  0  0
 57128  1  0  0  0
 58129  1  0  0  0
 59 60  1  0  0  0
 59 61  1  0  0  0
 59 62  1  0  0  0
 60130  1  0  0  0
 60131  1  0  0  0
 60132  1  0  0  0
 61133  1  0  0  0
 61134  1  0  0  0
 61135  1  0  0  0
 62136  1  0  0  0
 62137  1  0  0  0
 62138  1  0  0  0
 63 65  1  0  0  0
 63139  1  0  0  0
 63140  1  0  0  0
 63141  1  0  0  0
 64142  1  0  0  0
 65143  1  0  0  0
 68 81  1  0  0  0
 71 72  2  0  0  0
 71 74  1  0  0  0
 71144  1  0  0  0
 72 76  1  0  0  0
 72145  1  0  0  0
 73 75  1  0  0  0
 73 76  2  0  0  0
 73146  1  0  0  0
 74 75  2  0  0  0
 74 77  1  0  0  0
 75 83  1  0  0  0
 76 84  1  0  0  0
 77147  1  0  0  0
 77148  1  0  0  0
 77149  1  0  0  0
 78 79  1  0  0  0
 78 80  1  0  0  0
 78150  1  0  0  0
 78151  1  0  0  0
 79 81  1  0  0  0
 79152  1  0  0  0
 79153  1  0  0  0
 80 82  1  0  0  0
 80154  1  0  0  0
 80155  1  0  0  0
 81156  1  0  0  0
 81157  1  0  0  0
 82 84  1  0  0  0
 82158  1  0  0  0
 82159  1  0  0  0
 83160  1  0  0  0
M  ISO  4   1 100  68 101  81 101  83 100
M  END
> <chiral flag>
0

> <version>
0

> <s_m_source_file>
/data/baiqing/PycharmProjects/Reinvent-master-3.2/result/LINK_invent/BTK/process_docking_weight1_custom_product_contain_oxygen_bond_distance_aromatic_linkinvent_7_9_3/rearranged_h_0134.sdf

> <i_m_source_file_index>
18

> <r_mmod_Potential_Energy-OPLS-2005>
-46.0257835388184

> <r_mmod_Stretch_Energy-OPLS-2005>
34.5368194580078

> <r_mmod_Bend_Energy-OPLS-2005>
98.4157409667969

> <r_mmod_Torsional_Energy-OPLS-2005>
224.291290283203

> <r_mmod_Improper_Torsional_Energy-OPLS-2005>
3.0217297077179

> <r_mmod_Van_der_Waal_Energy-OPLS-2005>
164.625625610352

> <r_mmod_Electrostatic_Energy-OPLS-2005>
-371.041748046875

> <r_mmod_Solvation_Energy-OPLS-2005>
-208.214477539062

> <b_mmod_Minimization_Converged-OPLS-2005>
0

> <r_mmod_RMS_Derivative-OPLS-2005>
0.399788439273834

$$$$
18
                    3D
 Structure written by MMmdl.
168177  0  0  1  0            999 V2000
  -30.6578  -14.5888   20.4597 C   0  0  0  0  0  0
  -30.4119  -12.3514   19.4313 C   0  0  0  0  0  0
  -29.4748  -12.4578   18.2105 C   0  0  0  0  0  0
  -28.0015  -12.3198   18.6404 C   0  0  0  0  0  0
  -27.6458  -13.2084   19.8621 C   0  0  2  0  0  0
  -28.7006  -13.0723   20.9836 C   0  0  0  0  0  0
  -25.2568  -13.8184   20.5684 C   0  0  0  0  0  0
  -24.1837  -13.0458   20.9247 C   0  0  0  0  0  0
  -24.6389  -11.6916   20.8846 C   0  0  0  0  0  0
  -23.9035  -10.4333   21.0511 C   0  0  0  0  0  0
  -24.3629   -9.4226   21.9246 C   0  0  0  0  0  0
  -23.6362   -8.2244   22.0701 C   0  0  0  0  0  0
  -22.4301   -8.0350   21.3548 C   0  0  0  0  0  0
  -21.9948   -9.0311   20.4610 C   0  0  0  0  0  0
  -22.7246  -10.2198   20.3100 C   0  0  0  0  0  0
  -21.6850   -6.0823   22.5348 C   0  0  0  0  0  0
  -21.4012   -6.5683   23.8294 C   0  0  0  0  0  0
  -21.3638   -5.6777   24.9245 C   0  0  0  0  0  0
  -21.6039   -4.3046   24.7239 C   0  0  0  0  0  0
  -21.8827   -3.8190   23.4340 C   0  0  0  0  0  0
  -21.9182   -4.7072   22.3427 C   0  0  0  0  0  0
  -22.7896  -13.5225   21.1947 C   0  0  0  0  0  0
  -22.1636   -4.2276   21.1009 F   0  0  0  0  0  0
  -21.5650   -3.4485   25.7716 F   0  0  0  0  0  0
  -30.0005  -13.3929   20.3823 N   0  0  0  0  0  0
  -26.2968  -12.9337   20.3407 N   0  0  0  0  0  0
  -25.9300  -11.6508   20.5879 N   0  0  0  0  0  0
  -22.0559  -12.8200   22.0491 N   0  0  0  0  0  0
  -25.4288  -15.1902   20.3897 N   0  0  0  0  0  0
  -31.8609  -14.6789   20.2084 O   0  0  0  0  0  0
  -21.6659   -6.8969   21.4274 O   0  0  0  0  0  0
  -22.3561  -14.5535   20.6813 O   0  0  0  0  0  0
  -24.6321  -31.8656   23.2066 C   0  0  0  0  0  0
  -25.9165  -32.4817   23.8407 C   0  0  1  0  0  0
  -27.2305  -27.3772   20.0885 C   0  0  0  0  0  0
  -25.5969  -33.8607   24.2312 N   0  0  0  0  0  0
  -23.4227  -30.4989   21.5514 C   0  0  2  0  0  0
  -24.8654  -28.9705   20.1214 C   0  0  0  0  0  0
  -22.7534  -29.4698   22.4923 C   0  0  0  0  0  0
  -18.0312  -28.1413   22.8452 C   0  0  0  0  0  0
  -24.1478  -36.7354   23.2629 C   0  0  0  0  0  0
  -25.9688  -30.8226   21.3629 C   0  0  0  0  0  0
  -26.0428  -29.4570   20.7019 C   0  0  0  0  0  0
  -27.2374  -28.6781   20.6692 C   0  0  0  0  0  0
  -26.0021  -26.9149   19.5940 C   0  0  0  0  0  0
  -24.8388  -27.6896   19.5674 C   0  0  0  0  0  0
  -23.6389  -29.8525   20.1618 C   0  0  0  0  0  0
  -25.4104  -36.3104   24.0315 C   0  0  1  0  0  0
  -20.5912  -28.3723   23.1273 C   0  0  2  0  0  0
  -20.6807  -26.9425   22.5400 C   0  0  0  0  0  0
  -19.5780  -26.6396   21.5209 C   0  0  0  0  0  0
  -18.1951  -26.7950   22.1593 C   0  0  0  0  0  0
  -19.1553  -28.8901   23.2849 C   0  0  0  0  0  0
  -18.9468  -30.1491   23.8906 C   0  0  0  0  0  0
  -17.6455  -30.6584   24.0590 C   0  0  0  0  0  0
  -25.9059  -34.9470   23.5108 C   0  0  0  0  0  0
  -16.5355  -29.9097   23.6306 C   0  0  0  0  0  0
  -16.7303  -28.6520   23.0321 C   0  0  0  0  0  0
  -26.4522  -31.6625   25.0779 C   0  0  0  0  0  0
  -25.3773  -31.3819   26.1544 C   0  0  0  0  0  0
  -27.0281  -30.3027   24.6189 C   0  0  0  0  0  0
  -27.6061  -32.4364   25.7546 C   0  0  0  0  0  0
  -27.5579  -37.1825   24.8450 C   0  0  0  0  0  0
  -21.4248  -29.3073   22.3666 N   0  0  0  0  0  0
  -26.4271  -37.3801   23.9411 N   0  0  0  0  0  0
  -24.6945  -31.0777   22.0972 N   0  0  0  0  0  0
  -23.4286  -28.8205   23.2951 O   0  0  0  0  0  0
  -28.3548  -26.5514   20.0601 O   0  0  0  0  0  0
  -26.5574  -34.8926   22.4650 O   0  0  0  0  0  0
  -23.5487  -32.1364   23.7438 O   0  0  0  0  0  0
  -30.8511  -19.6725   18.1294 C   0  0  0  0  0  0
  -30.0906  -20.7665   18.5901 C   0  0  0  0  0  0
  -29.4014  -19.4341   20.5052 C   0  0  0  0  0  0
  -30.9032  -18.4574   18.8530 C   0  0  0  0  0  0
  -30.1797  -18.3136   20.0669 C   0  0  0  0  0  0
  -29.3436  -20.6692   19.7780 C   0  0  0  0  0  0
  -26.4966  -22.1161   18.8977 C   0  0  0  0  0  0
  -27.0976  -21.4833   20.1513 C   0  0  0  0  0  0
  -28.9443  -23.1847   20.1081 C   0  0  0  0  0  0
  -26.6771  -23.6398   18.8944 C   0  0  1  0  0  0
  -28.1843  -24.0296   19.0186 C   0  0  1  0  0  0
  -31.7686  -17.3341   18.3132 C   0  0  0  0  0  0
  -25.9830  -24.1429   17.5986 C   0  0  0  0  0  0
  -30.3626  -17.0702   20.9954 C   0  0  0  0  0  0
  -28.5426  -25.5882   18.9659 C   0  0  0  0  0  0
  -28.5304  -21.7557   20.2053 N   0  0  0  0  0  0
  -29.8944  -15.7025   20.6214 N   0  0  0  0  0  0
  -31.4482  -12.4548   19.1102 H   0  0  0  0  0  0
  -30.3408  -11.3671   19.8966 H   0  0  0  0  0  0
  -29.7187  -11.6760   17.4839 H   0  0  0  0  0  0
  -29.6244  -13.4115   17.7067 H   0  0  0  0  0  0
  -27.8207  -11.2691   18.8837 H   0  0  0  0  0  0
  -27.3435  -12.5536   17.8028 H   0  0  0  0  0  0
  -27.6560  -14.2452   19.5166 H   0  0  0  0  0  0
  -28.7239  -12.0512   21.3771 H   0  0  0  0  0  0
  -28.4733  -13.7217   21.8352 H   0  0  0  0  0  0
  -25.2805   -9.5724   22.4771 H   0  0  0  0  0  0
  -24.0160   -7.4575   22.7281 H   0  0  0  0  0  0
  -21.0952   -8.8778   19.8829 H   0  0  0  0  0  0
  -22.3743  -10.9761   19.6199 H   0  0  0  0  0  0
  -21.1972   -7.6167   23.9845 H   0  0  0  0  0  0
  -21.1437   -6.0498   25.9143 H   0  0  0  0  0  0
  -22.0604   -2.7674   23.2785 H   0  0  0  0  0  0
  -22.4109  -11.9809   22.4826 H   0  0  0  0  0  0
  -21.1182  -13.1221   22.2727 H   0  0  0  0  0  0
  -24.6578  -15.8413   20.4668 H   0  0  0  0  0  0
  -26.2562  -15.5992   19.9733 H   0  0  0  0  0  0
  -26.7276  -32.5469   23.1203 H   0  0  0  0  0  0
  -25.0147  -33.9755   25.0477 H   0  0  0  0  0  0
  -22.7142  -31.3172   21.4138 H   0  0  0  0  0  0
  -23.3718  -35.9698   23.3213 H   0  0  0  0  0  0
  -24.3599  -36.9066   22.2062 H   0  0  0  0  0  0
  -23.7231  -37.6535   23.6716 H   0  0  0  0  0  0
  -26.0862  -31.5767   20.5848 H   0  0  0  0  0  0
  -26.8603  -30.8790   21.9784 H   0  0  0  0  0  0
  -28.1535  -29.0711   21.0880 H   0  0  0  0  0  0
  -25.8792  -25.9082   19.3049 H   0  0  0  0  0  0
  -23.9263  -27.2663   19.1756 H   0  0  0  0  0  0
  -23.7839  -30.6375   19.4166 H   0  0  0  0  0  0
  -22.7583  -29.2955   19.8382 H   0  0  0  0  0  0
  -25.1269  -36.1940   25.0795 H   0  0  0  0  0  0
  -21.0016  -28.3291   24.1400 H   0  0  0  0  0  0
  -20.5725  -26.2336   23.3619 H   0  0  0  0  0  0
  -21.6672  -26.7481   22.1171 H   0  0  0  0  0  0
  -19.6925  -25.6297   21.1256 H   0  0  0  0  0  0
  -19.6738  -27.3215   20.6736 H   0  0  0  0  0  0
  -17.4234  -26.6749   21.3962 H   0  0  0  0  0  0
  -18.0301  -26.0117   22.9018 H   0  0  0  0  0  0
  -19.7965  -30.7289   24.2297 H   0  0  0  0  0  0
  -17.5029  -31.6268   24.5194 H   0  0  0  0  0  0
  -15.5370  -30.3003   23.7656 H   0  0  0  0  0  0
  -15.8700  -28.0877   22.7000 H   0  0  0  0  0  0
  -24.5920  -30.7169   25.7972 H   0  0  0  0  0  0
  -24.9019  -32.3016   26.4944 H   0  0  0  0  0  0
  -25.8142  -30.9066   27.0332 H   0  0  0  0  0  0
  -26.2808  -29.6837   24.1230 H   0  0  0  0  0  0
  -27.3986  -29.7234   25.4653 H   0  0  0  0  0  0
  -27.8688  -30.4281   23.9365 H   0  0  0  0  0  0
  -27.2642  -33.3654   26.2107 H   0  0  0  0  0  0
  -28.3890  -32.6949   25.0414 H   0  0  0  0  0  0
  -28.0712  -31.8516   26.5487 H   0  0  0  0  0  0
  -28.2579  -38.0134   24.7468 H   0  0  0  0  0  0
  -28.1078  -36.2659   24.6267 H   0  0  0  0  0  0
  -27.2316  -37.1487   25.8857 H   0  0  0  0  0  0
  -20.9446  -29.8869   21.6921 H   0  0  0  0  0  0
  -26.0139  -38.2858   24.1436 H   0  0  0  0  0  0
  -31.4098  -19.7801   17.2082 H   0  0  0  0  0  0
  -30.0638  -21.6841   18.0164 H   0  0  0  0  0  0
  -28.8531  -19.3575   21.4363 H   0  0  0  0  0  0
  -25.4349  -21.8628   18.8439 H   0  0  0  0  0  0
  -26.9507  -21.6991   17.9980 H   0  0  0  0  0  0
  -26.8879  -20.4140   20.1294 H   0  0  0  0  0  0
  -26.6124  -21.8768   21.0456 H   0  0  0  0  0  0
  -28.7960  -23.6499   21.0847 H   0  0  0  0  0  0
  -30.0184  -23.2363   19.9144 H   0  0  0  0  0  0
  -26.1569  -23.9853   19.7889 H   0  0  0  0  0  0
  -28.5968  -23.6584   18.0778 H   0  0  0  0  0  0
  -32.4639  -16.9859   19.0748 H   0  0  0  0  0  0
  -32.3590  -17.6443   17.4501 H   0  0  0  0  0  0
  -31.1417  -16.5036   17.9966 H   0  0  0  0  0  0
  -26.4254  -23.6842   16.7163 H   0  0  0  0  0  0
  -26.0249  -25.2162   17.4209 H   0  0  0  0  0  0
  -24.9257  -23.8710   17.6053 H   0  0  0  0  0  0
  -29.8548  -17.2930   21.9320 H   0  0  0  0  0  0
  -31.4218  -17.0316   21.2462 H   0  0  0  0  0  0
  -28.1539  -26.0149   18.0457 H   0  0  0  0  0  0
  -29.6200  -25.6172   18.8025 H   0  0  0  0  0  0
  -28.8970  -15.5541   20.6773 H   0  0  0  0  0  0
  1 25  1  0  0  0
  1 30  2  0  0  0
  1 87  1  0  0  0
  2  3  1  0  0  0
  2 25  1  0  0  0
  2 88  1  0  0  0
  2 89  1  0  0  0
  3  4  1  0  0  0
  3 90  1  0  0  0
  3 91  1  0  0  0
  4  5  1  0  0  0
  4 92  1  0  0  0
  4 93  1  0  0  0
  5  6  1  0  0  0
  5 26  1  0  0  0
  5 94  1  0  0  0
  6 25  1  0  0  0
  6 95  1  0  0  0
  6 96  1  0  0  0
  7  8  2  0  0  0
  7 26  1  0  0  0
  7 29  1  0  0  0
  8  9  1  0  0  0
  8 22  1  0  0  0
  9 10  1  0  0  0
  9 27  2  0  0  0
 10 11  2  0  0  0
 10 15  1  0  0  0
 11 12  1  0  0  0
 11 97  1  0  0  0
 12 13  2  0  0  0
 12 98  1  0  0  0
 13 14  1  0  0  0
 13 31  1  0  0  0
 14 15  2  0  0  0
 14 99  1  0  0  0
 15100  1  0  0  0
 16 17  2  0  0  0
 16 21  1  0  0  0
 16 31  1  0  0  0
 17 18  1  0  0  0
 17101  1  0  0  0
 18 19  2  0  0  0
 18102  1  0  0  0
 19 20  1  0  0  0
 19 24  1  0  0  0
 20 21  2  0  0  0
 20103  1  0  0  0
 21 23  1  0  0  0
 22 28  1  0  0  0
 22 32  2  0  0  0
 26 27  1  0  0  0
 28104  1  0  0  0
 28105  1  0  0  0
 29106  1  0  0  0
 29107  1  0  0  0
 33 34  1  0  0  0
 33 66  1  0  0  0
 33 70  2  0  0  0
 34 36  1  0  0  0
 34 59  1  0  0  0
 34108  1  0  0  0
 35 44  2  0  0  0
 35 45  1  0  0  0
 35 68  1  0  0  0
 36 56  1  0  0  0
 36109  1  0  0  0
 37 39  1  0  0  0
 37 47  1  0  0  0
 37 66  1  0  0  0
 37110  1  0  0  0
 38 43  2  0  0  0
 38 46  1  0  0  0
 38 47  1  0  0  0
 39 64  1  0  0  0
 39 67  2  0  0  0
 40 52  1  0  0  0
 40 53  2  0  0  0
 40 58  1  0  0  0
 41111  1  0  0  0
 41112  1  0  0  0
 41113  1  0  0  0
 41 48  1  0  0  0
 42 43  1  0  0  0
 42 66  1  0  0  0
 42114  1  0  0  0
 42115  1  0  0  0
 43 44  1  0  0  0
 44116  1  0  0  0
 45 46  2  0  0  0
 45117  1  0  0  0
 46118  1  0  0  0
 47119  1  0  0  0
 47120  1  0  0  0
 48 56  1  0  0  0
 48 65  1  0  0  0
 48121  1  0  0  0
 49 50  1  0  0  0
 49 53  1  0  0  0
 49 64  1  0  0  0
 49122  1  0  0  0
 50 51  1  0  0  0
 50123  1  0  0  0
 50124  1  0  0  0
 51 52  1  0  0  0
 51125  1  0  0  0
 51126  1  0  0  0
 52127  1  0  0  0
 52128  1  0  0  0
 53 54  1  0  0  0
 54 55  2  0  0  0
 54129  1  0  0  0
 55 57  1  0  0  0
 55130  1  0  0  0
 56 69  2  0  0  0
 57 58  2  0  0  0
 57131  1  0  0  0
 58132  1  0  0  0
 59 60  1  0  0  0
 59 61  1  0  0  0
 59 62  1  0  0  0
 60133  1  0  0  0
 60134  1  0  0  0
 60135  1  0  0  0
 61136  1  0  0  0
 61137  1  0  0  0
 61138  1  0  0  0
 62139  1  0  0  0
 62140  1  0  0  0
 62141  1  0  0  0
 63 65  1  0  0  0
 63142  1  0  0  0
 63143  1  0  0  0
 63144  1  0  0  0
 64145  1  0  0  0
 65146  1  0  0  0
 68 85  1  0  0  0
 71 72  2  0  0  0
 71 74  1  0  0  0
 71147  1  0  0  0
 72 76  1  0  0  0
 72148  1  0  0  0
 73 75  1  0  0  0
 73 76  2  0  0  0
 73149  1  0  0  0
 74 75  2  0  0  0
 74 82  1  0  0  0
 75 84  1  0  0  0
 76 86  1  0  0  0
 77 78  1  0  0  0
 77 80  1  0  0  0
 77150  1  0  0  0
 77151  1  0  0  0
 78 86  1  0  0  0
 78152  1  0  0  0
 78153  1  0  0  0
 79 81  1  0  0  0
 79 86  1  0  0  0
 79154  1  0  0  0
 79155  1  0  0  0
 80 81  1  0  0  0
 80 83  1  0  0  0
 80156  1  0  0  0
 81 85  1  0  0  0
 81157  1  0  0  0
 82158  1  0  0  0
 82159  1  0  0  0
 82160  1  0  0  0
 83161  1  0  0  0
 83162  1  0  0  0
 83163  1  0  0  0
 84 87  1  0  0  0
 84164  1  0  0  0
 84165  1  0  0  0
 85166  1  0  0  0
 85167  1  0  0  0
 87168  1  0  0  0
M  ISO  4   1 100  68 101  85 101  87 100
M  END
> <chiral flag>
0

> <version>
0

> <s_m_source_file>
/data/baiqing/PycharmProjects/Reinvent-master-3.2/result/LINK_invent/BTK/process_docking_weight1_custom_product_contain_oxygen_bond_distance_aromatic_linkinvent_7_9_3/rearranged_h_0134.sdf

> <i_m_source_file_index>
19

> <r_mmod_Potential_Energy-OPLS-2005>
87.3049850463867

> <r_mmod_Stretch_Energy-OPLS-2005>
68.0814514160156

> <r_mmod_Bend_Energy-OPLS-2005>
168.376907348633

> <r_mmod_Torsional_Energy-OPLS-2005>
268.913024902344

> <r_mmod_Improper_Torsional_Energy-OPLS-2005>
7.89903116226196

> <r_mmod_Van_der_Waal_Energy-OPLS-2005>
158.774749755859

> <r_mmod_Electrostatic_Energy-OPLS-2005>
-405.934906005859

> <r_mmod_Solvation_Energy-OPLS-2005>
-217.625183105469

> <b_mmod_Minimization_Converged-OPLS-2005>
0

> <r_mmod_RMS_Derivative-OPLS-2005>
7.75728988647461

$$$$
19
                    3D
 Structure written by MMmdl.
158166  0  0  1  0            999 V2000
  -30.7114  -14.4346   20.6616 C   0  0  0  0  0  0
  -30.4260  -12.3142   19.4024 C   0  0  0  0  0  0
  -29.4894  -12.5285   18.1964 C   0  0  0  0  0  0
  -28.0113  -12.3810   18.6091 C   0  0  0  0  0  0
  -27.6636  -13.2062   19.8760 C   0  0  2  0  0  0
  -28.7033  -12.9540   20.9888 C   0  0  0  0  0  0
  -25.2587  -13.8159   20.5689 C   0  0  0  0  0  0
  -24.1835  -13.0436   20.9175 C   0  0  0  0  0  0
  -24.6393  -11.6901   20.8732 C   0  0  0  0  0  0
  -23.9062  -10.4292   21.0408 C   0  0  0  0  0  0
  -24.3620   -9.4206   21.9185 C   0  0  0  0  0  0
  -23.6293   -8.2240   22.0760 C   0  0  0  0  0  0
  -22.4274   -8.0285   21.3549 C   0  0  0  0  0  0
  -21.9916   -9.0259   20.4646 C   0  0  0  0  0  0
  -22.7242  -10.2136   20.3049 C   0  0  0  0  0  0
  -21.6849   -6.0735   22.5283 C   0  0  0  0  0  0
  -21.4011   -6.5641   23.8218 C   0  0  0  0  0  0
  -21.3659   -5.6796   24.9183 C   0  0  0  0  0  0
  -21.6043   -4.3056   24.7226 C   0  0  0  0  0  0
  -21.8820   -3.8146   23.4346 C   0  0  0  0  0  0
  -21.9192   -4.6963   22.3403 C   0  0  0  0  0  0
  -22.7852  -13.5223   21.1847 C   0  0  0  0  0  0
  -22.1659   -4.2146   21.0980 F   0  0  0  0  0  0
  -21.5630   -3.4542   25.7739 F   0  0  0  0  0  0
  -30.0374  -13.2698   20.4504 N   0  0  0  0  0  0
  -26.3031  -12.9335   20.3367 N   0  0  0  0  0  0
  -25.9319  -11.6492   20.5743 N   0  0  0  0  0  0
  -22.0498  -12.8216   22.0406 N   0  0  0  0  0  0
  -25.4309  -15.1884   20.4120 N   0  0  0  0  0  0
  -31.7831  -14.6809   20.0967 O   0  0  0  0  0  0
  -21.6633   -6.8886   21.4248 O   0  0  0  0  0  0
  -22.3534  -14.5536   20.6706 O   0  0  0  0  0  0
  -24.6158  -31.8685   23.2103 C   0  0  0  0  0  0
  -25.9052  -32.4824   23.8399 C   0  0  1  0  0  0
  -27.2350  -27.4262   20.0846 C   0  0  0  0  0  0
  -25.5905  -33.8622   24.2327 N   0  0  0  0  0  0
  -23.4033  -30.4930   21.5518 C   0  0  2  0  0  0
  -24.8471  -28.9594   20.1165 C   0  0  0  0  0  0
  -22.7415  -29.4663   22.4992 C   0  0  0  0  0  0
  -18.0273  -28.1376   22.8491 C   0  0  0  0  0  0
  -24.1484  -36.7308   23.2639 C   0  0  0  0  0  0
  -25.9346  -30.8292   21.3665 C   0  0  0  0  0  0
  -26.0090  -29.4630   20.7131 C   0  0  0  0  0  0
  -27.2025  -28.7023   20.6974 C   0  0  0  0  0  0
  -26.0438  -26.9376   19.4940 C   0  0  0  0  0  0
  -24.8591  -27.6943   19.5085 C   0  0  0  0  0  0
  -23.6110  -29.8276   20.1661 C   0  0  0  0  0  0
  -25.4109  -36.3110   24.0337 C   0  0  1  0  0  0
  -20.5864  -28.3664   23.1316 C   0  0  2  0  0  0
  -20.6767  -26.9400   22.5414 C   0  0  0  0  0  0
  -19.5742  -26.6381   21.5212 C   0  0  0  0  0  0
  -18.1922  -26.7922   22.1624 C   0  0  0  0  0  0
  -19.1522  -28.8836   23.2900 C   0  0  0  0  0  0
  -18.9450  -30.1445   23.8906 C   0  0  0  0  0  0
  -17.6454  -30.6586   24.0560 C   0  0  0  0  0  0
  -25.9039  -34.9477   23.5129 C   0  0  0  0  0  0
  -16.5346  -29.9087   23.6324 C   0  0  0  0  0  0
  -16.7263  -28.6503   23.0348 C   0  0  0  0  0  0
  -26.4471  -31.6603   25.0729 C   0  0  0  0  0  0
  -25.3724  -31.3699   26.1463 C   0  0  0  0  0  0
  -27.0321  -30.3055   24.6108 C   0  0  0  0  0  0
  -27.6041  -32.4320   25.7504 C   0  0  0  0  0  0
  -27.5578  -37.1813   24.8464 C   0  0  0  0  0  0
  -21.4142  -29.3034   22.3726 N   0  0  0  0  0  0
  -26.4292  -37.3797   23.9407 N   0  0  0  0  0  0
  -24.6695  -31.0782   22.1010 N   0  0  0  0  0  0
  -23.4185  -28.8203   23.3033 O   0  0  0  0  0  0
  -28.4188  -26.7054   20.0851 O   0  0  0  0  0  0
  -26.5601  -34.8930   22.4689 O   0  0  0  0  0  0
  -23.5347  -32.1443   23.7490 O   0  0  0  0  0  0
  -30.3246  -20.1458   20.7831 C   0  0  0  0  0  0
  -31.9311  -20.9246   22.8456 C   0  0  0  0  0  0
  -31.8865  -19.5525   22.5273 C   0  0  0  0  0  0
  -31.0201  -19.1300   21.4780 C   0  0  0  0  0  0
  -30.4745  -21.5008   21.1460 C   0  0  0  0  0  0
  -32.8300  -18.6401   23.3016 C   0  0  0  0  0  0
  -30.0897  -15.4938   21.6029 C   0  0  0  0  0  0
  -29.8290  -24.7698   19.4470 C   0  0  0  0  0  0
  -30.9456  -16.7349   21.9603 C   0  0  0  0  0  0
  -28.4257  -25.4087   19.4637 C   0  0  0  0  0  0
  -30.1955  -23.8729   20.6518 C   0  0  0  0  0  0
  -31.2469  -21.8757   22.1848 N   0  0  0  0  0  0
  -30.8202  -17.8252   21.0375 O   0  0  0  0  0  0
  -29.8363  -22.4967   20.4181 O   0  0  0  0  0  0
  -31.4681  -12.4261   19.0989 H   0  0  0  0  0  0
  -30.3353  -11.2935   19.7779 H   0  0  0  0  0  0
  -29.7274  -11.8207   17.4022 H   0  0  0  0  0  0
  -29.6534  -13.5241   17.7806 H   0  0  0  0  0  0
  -27.8201  -11.3226   18.7919 H   0  0  0  0  0  0
  -27.3601  -12.6687   17.7831 H   0  0  0  0  0  0
  -27.7179  -14.2593   19.5995 H   0  0  0  0  0  0
  -28.6762  -11.9077   21.2954 H   0  0  0  0  0  0
  -28.4431  -13.5190   21.8820 H   0  0  0  0  0  0
  -25.2770   -9.5674   22.4754 H   0  0  0  0  0  0
  -24.0001   -7.4627   22.7478 H   0  0  0  0  0  0
  -21.0851   -8.8783   19.8941 H   0  0  0  0  0  0
  -22.3718  -10.9680   19.6147 H   0  0  0  0  0  0
  -21.2004   -7.6150   23.9719 H   0  0  0  0  0  0
  -21.1480   -6.0526   25.9086 H   0  0  0  0  0  0
  -22.0595   -2.7604   23.2850 H   0  0  0  0  0  0
  -22.4107  -11.9860   22.4774 H   0  0  0  0  0  0
  -21.1113  -13.1234   22.2616 H   0  0  0  0  0  0
  -24.6696  -15.8488   20.5262 H   0  0  0  0  0  0
  -26.2917  -15.6284   20.1110 H   0  0  0  0  0  0
  -26.7128  -32.5533   23.1167 H   0  0  0  0  0  0
  -25.0054  -33.9781   25.0472 H   0  0  0  0  0  0
  -22.6923  -31.3101   21.4139 H   0  0  0  0  0  0
  -23.3750  -35.9636   23.3304 H   0  0  0  0  0  0
  -24.3576  -36.8922   22.2054 H   0  0  0  0  0  0
  -23.7230  -37.6510   23.6655 H   0  0  0  0  0  0
  -26.0504  -31.5949   20.5978 H   0  0  0  0  0  0
  -26.8220  -30.8803   21.9861 H   0  0  0  0  0  0
  -28.0999  -29.0902   21.1593 H   0  0  0  0  0  0
  -25.9975  -25.9711   19.0154 H   0  0  0  0  0  0
  -23.9640  -27.2972   19.0496 H   0  0  0  0  0  0
  -23.7212  -30.6033   19.4071 H   0  0  0  0  0  0
  -22.7343  -29.2485   19.8699 H   0  0  0  0  0  0
  -25.1285  -36.1976   25.0829 H   0  0  0  0  0  0
  -20.9953  -28.3228   24.1438 H   0  0  0  0  0  0
  -20.5681  -26.2269   23.3597 H   0  0  0  0  0  0
  -21.6637  -26.7453   22.1201 H   0  0  0  0  0  0
  -19.6906  -25.6295   21.1235 H   0  0  0  0  0  0
  -19.6684  -27.3196   20.6748 H   0  0  0  0  0  0
  -17.4192  -26.6671   21.4023 H   0  0  0  0  0  0
  -18.0322  -26.0064   22.9019 H   0  0  0  0  0  0
  -19.7928  -30.7256   24.2282 H   0  0  0  0  0  0
  -17.5014  -31.6271   24.5153 H   0  0  0  0  0  0
  -15.5349  -30.2996   23.7643 H   0  0  0  0  0  0
  -15.8662  -28.0831   22.7055 H   0  0  0  0  0  0
  -24.5884  -30.7073   25.7776 H   0  0  0  0  0  0
  -24.8927  -32.2852   26.4942 H   0  0  0  0  0  0
  -25.8056  -30.8827   27.0206 H   0  0  0  0  0  0
  -26.2886  -29.6812   24.1140 H   0  0  0  0  0  0
  -27.4083  -29.7293   25.4572 H   0  0  0  0  0  0
  -27.8716  -30.4396   23.9281 H   0  0  0  0  0  0
  -27.2661  -33.3611   26.2108 H   0  0  0  0  0  0
  -28.3845  -32.6891   25.0329 H   0  0  0  0  0  0
  -28.0714  -31.8422   26.5400 H   0  0  0  0  0  0
  -28.2591  -38.0116   24.7525 H   0  0  0  0  0  0
  -28.1076  -36.2646   24.6274 H   0  0  0  0  0  0
  -27.2290  -37.1446   25.8865 H   0  0  0  0  0  0
  -20.9301  -29.8766   21.6958 H   0  0  0  0  0  0
  -26.0176  -38.2872   24.1412 H   0  0  0  0  0  0
  -29.6810  -19.8855   19.9553 H   0  0  0  0  0  0
  -32.5674  -21.2837   23.6415 H   0  0  0  0  0  0
  -33.5585  -19.2235   23.8666 H   0  0  0  0  0  0
  -33.4049  -18.0050   22.6277 H   0  0  0  0  0  0
  -32.2986  -18.0245   24.0271 H   0  0  0  0  0  0
  -29.1233  -15.8125   21.2136 H   0  0  0  0  0  0
  -29.8966  -14.9851   22.5471 H   0  0  0  0  0  0
  -30.5648  -25.5689   19.3492 H   0  0  0  0  0  0
  -29.9377  -24.1726   18.5404 H   0  0  0  0  0  0
  -31.9886  -16.4373   22.0539 H   0  0  0  0  0  0
  -30.6086  -17.0681   22.9424 H   0  0  0  0  0  0
  -27.7159  -24.7351   19.9469 H   0  0  0  0  0  0
  -28.1109  -25.5253   18.4254 H   0  0  0  0  0  0
  -29.7336  -24.2431   21.5685 H   0  0  0  0  0  0
  -31.2761  -23.9570   20.7819 H   0  0  0  0  0  0
  1 25  1  0  0  0
  1 30  2  0  0  0
  1 77  1  0  0  0
  2  3  1  0  0  0
  2 25  1  0  0  0
  2 85  1  0  0  0
  2 86  1  0  0  0
  3  4  1  0  0  0
  3 87  1  0  0  0
  3 88  1  0  0  0
  4  5  1  0  0  0
  4 89  1  0  0  0
  4 90  1  0  0  0
  5  6  1  0  0  0
  5 26  1  0  0  0
  5 91  1  0  0  0
  6 25  1  0  0  0
  6 92  1  0  0  0
  6 93  1  0  0  0
  7  8  2  0  0  0
  7 26  1  0  0  0
  7 29  1  0  0  0
  8  9  1  0  0  0
  8 22  1  0  0  0
  9 10  1  0  0  0
  9 27  2  0  0  0
 10 11  2  0  0  0
 10 15  1  0  0  0
 11 12  1  0  0  0
 11 94  1  0  0  0
 12 13  2  0  0  0
 12 95  1  0  0  0
 13 14  1  0  0  0
 13 31  1  0  0  0
 14 15  2  0  0  0
 14 96  1  0  0  0
 15 97  1  0  0  0
 16 17  2  0  0  0
 16 21  1  0  0  0
 16 31  1  0  0  0
 17 18  1  0  0  0
 17 98  1  0  0  0
 18 19  2  0  0  0
 18 99  1  0  0  0
 19 20  1  0  0  0
 19 24  1  0  0  0
 20 21  2  0  0  0
 20100  1  0  0  0
 21 23  1  0  0  0
 22 28  1  0  0  0
 22 32  2  0  0  0
 26 27  1  0  0  0
 28101  1  0  0  0
 28102  1  0  0  0
 29103  1  0  0  0
 29104  1  0  0  0
 33 34  1  0  0  0
 33 66  1  0  0  0
 33 70  2  0  0  0
 34 36  1  0  0  0
 34 59  1  0  0  0
 34105  1  0  0  0
 35 44  2  0  0  0
 35 45  1  0  0  0
 35 68  1  0  0  0
 36 56  1  0  0  0
 36106  1  0  0  0
 37 39  1  0  0  0
 37 47  1  0  0  0
 37 66  1  0  0  0
 37107  1  0  0  0
 38 43  2  0  0  0
 38 46  1  0  0  0
 38 47  1  0  0  0
 39 64  1  0  0  0
 39 67  2  0  0  0
 40 52  1  0  0  0
 40 53  2  0  0  0
 40 58  1  0  0  0
 41108  1  0  0  0
 41109  1  0  0  0
 41110  1  0  0  0
 41 48  1  0  0  0
 42 43  1  0  0  0
 42 66  1  0  0  0
 42111  1  0  0  0
 42112  1  0  0  0
 43 44  1  0  0  0
 44113  1  0  0  0
 45 46  2  0  0  0
 45114  1  0  0  0
 46115  1  0  0  0
 47116  1  0  0  0
 47117  1  0  0  0
 48 56  1  0  0  0
 48 65  1  0  0  0
 48118  1  0  0  0
 49 50  1  0  0  0
 49 53  1  0  0  0
 49 64  1  0  0  0
 49119  1  0  0  0
 50 51  1  0  0  0
 50120  1  0  0  0
 50121  1  0  0  0
 51 52  1  0  0  0
 51122  1  0  0  0
 51123  1  0  0  0
 52124  1  0  0  0
 52125  1  0  0  0
 53 54  1  0  0  0
 54 55  2  0  0  0
 54126  1  0  0  0
 55 57  1  0  0  0
 55127  1  0  0  0
 56 69  2  0  0  0
 57 58  2  0  0  0
 57128  1  0  0  0
 58129  1  0  0  0
 59 60  1  0  0  0
 59 61  1  0  0  0
 59 62  1  0  0  0
 60130  1  0  0  0
 60131  1  0  0  0
 60132  1  0  0  0
 61133  1  0  0  0
 61134  1  0  0  0
 61135  1  0  0  0
 62136  1  0  0  0
 62137  1  0  0  0
 62138  1  0  0  0
 63 65  1  0  0  0
 63139  1  0  0  0
 63140  1  0  0  0
 63141  1  0  0  0
 64142  1  0  0  0
 65143  1  0  0  0
 68 80  1  0  0  0
 71 74  2  0  0  0
 71 75  1  0  0  0
 71144  1  0  0  0
 72 73  2  0  0  0
 72 82  1  0  0  0
 72145  1  0  0  0
 73 74  1  0  0  0
 73 76  1  0  0  0
 74 83  1  0  0  0
 75 82  2  0  0  0
 75 84  1  0  0  0
 76146  1  0  0  0
 76147  1  0  0  0
 76148  1  0  0  0
 77 79  1  0  0  0
 77149  1  0  0  0
 77150  1  0  0  0
 78 80  1  0  0  0
 78 81  1  0  0  0
 78151  1  0  0  0
 78152  1  0  0  0
 79 83  1  0  0  0
 79153  1  0  0  0
 79154  1  0  0  0
 80155  1  0  0  0
 80156  1  0  0  0
 81 84  1  0  0  0
 81157  1  0  0  0
 81158  1  0  0  0
M  ISO  4   1 100  68 101  77 100  80 101
M  END
> <chiral flag>
0

> <version>
0

> <s_m_source_file>
/data/baiqing/PycharmProjects/Reinvent-master-3.2/result/LINK_invent/BTK/process_docking_weight1_custom_product_contain_oxygen_bond_distance_aromatic_linkinvent_7_9_3/rearranged_h_0134.sdf

> <i_m_source_file_index>
20

> <r_mmod_Potential_Energy-OPLS-2005>
-234.031860351562

> <r_mmod_Stretch_Energy-OPLS-2005>
40.5845527648926

> <r_mmod_Bend_Energy-OPLS-2005>
119.432281494141

> <r_mmod_Torsional_Energy-OPLS-2005>
163.705093383789

> <r_mmod_Improper_Torsional_Energy-OPLS-2005>
1.92758750915527

> <r_mmod_Van_der_Waal_Energy-OPLS-2005>
175.748336791992

> <r_mmod_Electrostatic_Energy-OPLS-2005>
-533.927978515625

> <r_mmod_Solvation_Energy-OPLS-2005>
-211.700729370117

> <b_mmod_Minimization_Converged-OPLS-2005>
0

> <r_mmod_RMS_Derivative-OPLS-2005>
1.1229475736618

$$$$
20
                    3D
 Structure written by MMmdl.
161169  0  0  1  0            999 V2000
  -30.7550  -14.3910   20.6955 C   0  0  0  0  0  0
  -30.4233  -12.3137   19.3928 C   0  0  0  0  0  0
  -29.4849  -12.5429   18.1927 C   0  0  0  0  0  0
  -28.0091  -12.3898   18.6080 C   0  0  0  0  0  0
  -27.6688  -13.1995   19.8862 C   0  0  2  0  0  0
  -28.7075  -12.9134   20.9917 C   0  0  0  0  0  0
  -25.2623  -13.8154   20.5689 C   0  0  0  0  0  0
  -24.1857  -13.0440   20.9167 C   0  0  0  0  0  0
  -24.6395  -11.6903   20.8725 C   0  0  0  0  0  0
  -23.9055  -10.4293   21.0399 C   0  0  0  0  0  0
  -24.3607   -9.4211   21.9182 C   0  0  0  0  0  0
  -23.6284   -8.2246   22.0755 C   0  0  0  0  0  0
  -22.4268   -8.0281   21.3544 C   0  0  0  0  0  0
  -21.9901   -9.0253   20.4645 C   0  0  0  0  0  0
  -22.7227  -10.2134   20.3052 C   0  0  0  0  0  0
  -21.6850   -6.0733   22.5277 C   0  0  0  0  0  0
  -21.4012   -6.5638   23.8210 C   0  0  0  0  0  0
  -21.3659   -5.6791   24.9174 C   0  0  0  0  0  0
  -21.6045   -4.3054   24.7225 C   0  0  0  0  0  0
  -21.8820   -3.8145   23.4346 C   0  0  0  0  0  0
  -21.9192   -4.6961   22.3401 C   0  0  0  0  0  0
  -22.7881  -13.5247   21.1833 C   0  0  0  0  0  0
  -22.1660   -4.2147   21.0979 F   0  0  0  0  0  0
  -21.5630   -3.4539   25.7740 F   0  0  0  0  0  0
  -30.0454  -13.2463   20.4677 N   0  0  0  0  0  0
  -26.3061  -12.9309   20.3414 N   0  0  0  0  0  0
  -25.9321  -11.6471   20.5761 N   0  0  0  0  0  0
  -22.0517  -12.8239   22.0388 N   0  0  0  0  0  0
  -25.4365  -15.1867   20.4104 N   0  0  0  0  0  0
  -31.7506  -14.7070   20.0323 O   0  0  0  0  0  0
  -21.6635   -6.8876   21.4239 O   0  0  0  0  0  0
  -22.3568  -14.5555   20.6687 O   0  0  0  0  0  0
  -24.6134  -31.8683   23.2108 C   0  0  0  0  0  0
  -25.9031  -32.4825   23.8403 C   0  0  1  0  0  0
  -27.2371  -27.4511   20.0940 C   0  0  0  0  0  0
  -25.5893  -33.8623   24.2336 N   0  0  0  0  0  0
  -23.4014  -30.4912   21.5509 C   0  0  2  0  0  0
  -24.8500  -28.9594   20.1136 C   0  0  0  0  0  0
  -22.7402  -29.4659   22.4998 C   0  0  0  0  0  0
  -18.0267  -28.1377   22.8494 C   0  0  0  0  0  0
  -24.1484  -36.7314   23.2640 C   0  0  0  0  0  0
  -25.9285  -30.8399   21.3609 C   0  0  0  0  0  0
  -26.0093  -29.4758   20.7075 C   0  0  0  0  0  0
  -27.2093  -28.7294   20.6932 C   0  0  0  0  0  0
  -26.0653  -26.9462   19.4923 C   0  0  0  0  0  0
  -24.8719  -27.6929   19.5027 C   0  0  0  0  0  0
  -23.6093  -29.8221   20.1656 C   0  0  0  0  0  0
  -25.4106  -36.3113   24.0339 C   0  0  1  0  0  0
  -20.5856  -28.3662   23.1323 C   0  0  2  0  0  0
  -20.6759  -26.9400   22.5420 C   0  0  0  0  0  0
  -19.5739  -26.6385   21.5214 C   0  0  0  0  0  0
  -18.1915  -26.7925   22.1620 C   0  0  0  0  0  0
  -19.1516  -28.8836   23.2906 C   0  0  0  0  0  0
  -18.9446  -30.1444   23.8914 C   0  0  0  0  0  0
  -17.6450  -30.6586   24.0568 C   0  0  0  0  0  0
  -25.9031  -34.9476   23.5134 C   0  0  0  0  0  0
  -16.5340  -29.9089   23.6329 C   0  0  0  0  0  0
  -16.7257  -28.6504   23.0352 C   0  0  0  0  0  0
  -26.4469  -31.6597   25.0722 C   0  0  0  0  0  0
  -25.3745  -31.3679   26.1474 C   0  0  0  0  0  0
  -27.0306  -30.3048   24.6078 C   0  0  0  0  0  0
  -27.6045  -32.4317   25.7487 C   0  0  0  0  0  0
  -27.5579  -37.1812   24.8467 C   0  0  0  0  0  0
  -21.4131  -29.3031   22.3733 N   0  0  0  0  0  0
  -26.4293  -37.3795   23.9408 N   0  0  0  0  0  0
  -24.6660  -31.0799   22.0999 N   0  0  0  0  0  0
  -23.4176  -28.8202   23.3039 O   0  0  0  0  0  0
  -28.3838  -26.6906   20.1027 O   0  0  0  0  0  0
  -26.5592  -34.8924   22.4694 O   0  0  0  0  0  0
  -23.5330  -32.1425   23.7512 O   0  0  0  0  0  0
  -30.5582  -17.5314   20.8881 C   0  0  0  0  0  0
  -30.1454  -18.8742   20.7199 C   0  0  0  0  0  0
  -28.2406  -18.4363   22.1402 C   0  0  0  0  0  0
  -29.8309  -16.6107   21.6895 C   0  0  0  0  0  0
  -28.6396  -17.0938   22.3163 C   0  0  0  0  0  0
  -28.9801  -19.3439   21.3640 C   0  0  0  0  0  0
  -30.3609  -15.2180   21.9217 C   0  0  0  0  0  0
  -27.9723  -16.5000   24.6989 C   0  0  0  0  0  0
  -27.7344  -16.2435   23.2048 C   0  0  0  0  0  0
  -28.9049  -24.2580   20.2677 C   0  0  0  0  0  0
  -28.5329  -22.9837   21.0597 C   0  0  0  0  0  0
  -28.2809  -25.5133   20.9160 C   0  0  0  0  0  0
  -29.1821  -21.6595   20.6034 C   0  0  0  0  0  0
  -30.4822  -14.7449   23.0934 N   0  0  0  0  0  0
  -28.4940  -20.6342   21.3176 O   0  0  0  0  0  0
  -31.4639  -12.4302   19.0855 H   0  0  0  0  0  0
  -30.3395  -11.2859   19.7493 H   0  0  0  0  0  0
  -29.7221  -11.8436   17.3899 H   0  0  0  0  0  0
  -29.6491  -13.5423   17.7868 H   0  0  0  0  0  0
  -27.8175  -11.3297   18.7793 H   0  0  0  0  0  0
  -27.3542  -12.6876   17.7884 H   0  0  0  0  0  0
  -27.7337  -14.2576   19.6315 H   0  0  0  0  0  0
  -28.6825  -11.8566   21.2620 H   0  0  0  0  0  0
  -28.4421  -13.4325   21.9064 H   0  0  0  0  0  0
  -25.2753   -9.5688   22.4755 H   0  0  0  0  0  0
  -23.9995   -7.4640   22.7476 H   0  0  0  0  0  0
  -21.0834   -8.8767   19.8950 H   0  0  0  0  0  0
  -22.3686  -10.9670   19.6158 H   0  0  0  0  0  0
  -21.2004   -7.6146   23.9714 H   0  0  0  0  0  0
  -21.1481   -6.0522   25.9077 H   0  0  0  0  0  0
  -22.0600   -2.7608   23.2848 H   0  0  0  0  0  0
  -22.4122  -11.9890   22.4762 H   0  0  0  0  0  0
  -21.1139  -13.1273   22.2597 H   0  0  0  0  0  0
  -24.6715  -15.8437   20.5160 H   0  0  0  0  0  0
  -26.2957  -15.6261   20.1052 H   0  0  0  0  0  0
  -26.7107  -32.5550   23.1175 H   0  0  0  0  0  0
  -25.0063  -33.9790   25.0493 H   0  0  0  0  0  0
  -22.6897  -31.3073   21.4114 H   0  0  0  0  0  0
  -23.3743  -35.9650   23.3315 H   0  0  0  0  0  0
  -24.3575  -36.8918   22.2051 H   0  0  0  0  0  0
  -23.7239  -37.6523   23.6647 H   0  0  0  0  0  0
  -26.0369  -31.6073   20.5931 H   0  0  0  0  0  0
  -26.8174  -30.8950   21.9775 H   0  0  0  0  0  0
  -28.1049  -29.1215   21.1548 H   0  0  0  0  0  0
  -26.0765  -25.9720   19.0238 H   0  0  0  0  0  0
  -23.9810  -27.2891   19.0416 H   0  0  0  0  0  0
  -23.7126  -30.5961   19.4043 H   0  0  0  0  0  0
  -22.7349  -29.2380   19.8731 H   0  0  0  0  0  0
  -25.1282  -36.1983   25.0833 H   0  0  0  0  0  0
  -20.9947  -28.3226   24.1444 H   0  0  0  0  0  0
  -20.5668  -26.2265   23.3601 H   0  0  0  0  0  0
  -21.6630  -26.7449   22.1212 H   0  0  0  0  0  0
  -19.6903  -25.6301   21.1231 H   0  0  0  0  0  0
  -19.6682  -27.3205   20.6751 H   0  0  0  0  0  0
  -17.4188  -26.6683   21.4016 H   0  0  0  0  0  0
  -18.0307  -26.0059   22.9007 H   0  0  0  0  0  0
  -19.7923  -30.7255   24.2290 H   0  0  0  0  0  0
  -17.5007  -31.6269   24.5165 H   0  0  0  0  0  0
  -15.5343  -30.2999   23.7647 H   0  0  0  0  0  0
  -15.8654  -28.0833   22.7060 H   0  0  0  0  0  0
  -24.5925  -30.7020   25.7809 H   0  0  0  0  0  0
  -24.8927  -32.2823   26.4947 H   0  0  0  0  0  0
  -25.8111  -30.8834   27.0216 H   0  0  0  0  0  0
  -26.2844  -29.6804   24.1151 H   0  0  0  0  0  0
  -27.4113  -29.7285   25.4521 H   0  0  0  0  0  0
  -27.8659  -30.4385   23.9199 H   0  0  0  0  0  0
  -27.2666  -33.3610   26.2085 H   0  0  0  0  0  0
  -28.3844  -32.6887   25.0306 H   0  0  0  0  0  0
  -28.0724  -31.8428   26.5387 H   0  0  0  0  0  0
  -28.2603  -38.0104   24.7514 H   0  0  0  0  0  0
  -28.1070  -36.2636   24.6297 H   0  0  0  0  0  0
  -27.2295  -37.1475   25.8870 H   0  0  0  0  0  0
  -20.9286  -29.8754   21.6960 H   0  0  0  0  0  0
  -26.0185  -38.2874   24.1408 H   0  0  0  0  0  0
  -31.4758  -17.2222   20.4083 H   0  0  0  0  0  0
  -30.7471  -19.5305   20.1080 H   0  0  0  0  0  0
  -27.3451  -18.7899   22.6324 H   0  0  0  0  0  0
  -27.3044  -15.8890   25.3065 H   0  0  0  0  0  0
  -27.7883  -17.5434   24.9562 H   0  0  0  0  0  0
  -28.9945  -16.2621   24.9918 H   0  0  0  0  0  0
  -27.8264  -15.1838   22.9895 H   0  0  0  0  0  0
  -26.6965  -16.4806   22.9655 H   0  0  0  0  0  0
  -28.5480  -24.1587   19.2420 H   0  0  0  0  0  0
  -29.9882  -24.3716   20.2134 H   0  0  0  0  0  0
  -27.4489  -22.8672   21.0160 H   0  0  0  0  0  0
  -28.7710  -23.1348   22.1135 H   0  0  0  0  0  0
  -28.7810  -25.7172   21.8636 H   0  0  0  0  0  0
  -27.2443  -25.2915   21.1786 H   0  0  0  0  0  0
  -30.2485  -21.6672   20.8328 H   0  0  0  0  0  0
  -29.0600  -21.5096   19.5299 H   0  0  0  0  0  0
  -30.1787  -15.4240   23.7801 H   0  0  0  0  0  0
  1 25  1  0  0  0
  1 30  2  0  0  0
  1 77  1  0  0  0
  2  3  1  0  0  0
  2 25  1  0  0  0
  2 86  1  0  0  0
  2 87  1  0  0  0
  3  4  1  0  0  0
  3 88  1  0  0  0
  3 89  1  0  0  0
  4  5  1  0  0  0
  4 90  1  0  0  0
  4 91  1  0  0  0
  5  6  1  0  0  0
  5 26  1  0  0  0
  5 92  1  0  0  0
  6 25  1  0  0  0
  6 93  1  0  0  0
  6 94  1  0  0  0
  7  8  2  0  0  0
  7 26  1  0  0  0
  7 29  1  0  0  0
  8  9  1  0  0  0
  8 22  1  0  0  0
  9 10  1  0  0  0
  9 27  2  0  0  0
 10 11  2  0  0  0
 10 15  1  0  0  0
 11 12  1  0  0  0
 11 95  1  0  0  0
 12 13  2  0  0  0
 12 96  1  0  0  0
 13 14  1  0  0  0
 13 31  1  0  0  0
 14 15  2  0  0  0
 14 97  1  0  0  0
 15 98  1  0  0  0
 16 17  2  0  0  0
 16 21  1  0  0  0
 16 31  1  0  0  0
 17 18  1  0  0  0
 17 99  1  0  0  0
 18 19  2  0  0  0
 18100  1  0  0  0
 19 20  1  0  0  0
 19 24  1  0  0  0
 20 21  2  0  0  0
 20101  1  0  0  0
 21 23  1  0  0  0
 22 28  1  0  0  0
 22 32  2  0  0  0
 26 27  1  0  0  0
 28102  1  0  0  0
 28103  1  0  0  0
 29104  1  0  0  0
 29105  1  0  0  0
 33 34  1  0  0  0
 33 66  1  0  0  0
 33 70  2  0  0  0
 34 36  1  0  0  0
 34 59  1  0  0  0
 34106  1  0  0  0
 35 44  2  0  0  0
 35 45  1  0  0  0
 35 68  1  0  0  0
 36 56  1  0  0  0
 36107  1  0  0  0
 37 39  1  0  0  0
 37 47  1  0  0  0
 37 66  1  0  0  0
 37108  1  0  0  0
 38 43  2  0  0  0
 38 46  1  0  0  0
 38 47  1  0  0  0
 39 64  1  0  0  0
 39 67  2  0  0  0
 40 52  1  0  0  0
 40 53  2  0  0  0
 40 58  1  0  0  0
 41109  1  0  0  0
 41110  1  0  0  0
 41111  1  0  0  0
 41 48  1  0  0  0
 42 43  1  0  0  0
 42 66  1  0  0  0
 42112  1  0  0  0
 42113  1  0  0  0
 43 44  1  0  0  0
 44114  1  0  0  0
 45 46  2  0  0  0
 45115  1  0  0  0
 46116  1  0  0  0
 47117  1  0  0  0
 47118  1  0  0  0
 48 56  1  0  0  0
 48 65  1  0  0  0
 48119  1  0  0  0
 49 50  1  0  0  0
 49 53  1  0  0  0
 49 64  1  0  0  0
 49120  1  0  0  0
 50 51  1  0  0  0
 50121  1  0  0  0
 50122  1  0  0  0
 51 52  1  0  0  0
 51123  1  0  0  0
 51124  1  0  0  0
 52125  1  0  0  0
 52126  1  0  0  0
 53 54  1  0  0  0
 54 55  2  0  0  0
 54127  1  0  0  0
 55 57  1  0  0  0
 55128  1  0  0  0
 56 69  2  0  0  0
 57 58  2  0  0  0
 57129  1  0  0  0
 58130  1  0  0  0
 59 60  1  0  0  0
 59 61  1  0  0  0
 59 62  1  0  0  0
 60131  1  0  0  0
 60132  1  0  0  0
 60133  1  0  0  0
 61134  1  0  0  0
 61135  1  0  0  0
 61136  1  0  0  0
 62137  1  0  0  0
 62138  1  0  0  0
 62139  1  0  0  0
 63 65  1  0  0  0
 63140  1  0  0  0
 63141  1  0  0  0
 63142  1  0  0  0
 64143  1  0  0  0
 65144  1  0  0  0
 68 82  1  0  0  0
 71 72  2  0  0  0
 71 74  1  0  0  0
 71145  1  0  0  0
 72 76  1  0  0  0
 72146  1  0  0  0
 73 75  1  0  0  0
 73 76  2  0  0  0
 73147  1  0  0  0
 74 75  2  0  0  0
 74 77  1  0  0  0
 75 79  1  0  0  0
 76 85  1  0  0  0
 77 84  2  0  0  0
 78 79  1  0  0  0
 78148  1  0  0  0
 78149  1  0  0  0
 78150  1  0  0  0
 79151  1  0  0  0
 79152  1  0  0  0
 80 81  1  0  0  0
 80 82  1  0  0  0
 80153  1  0  0  0
 80154  1  0  0  0
 81 83  1  0  0  0
 81155  1  0  0  0
 81156  1  0  0  0
 82157  1  0  0  0
 82158  1  0  0  0
 83 85  1  0  0  0
 83159  1  0  0  0
 83160  1  0  0  0
 84161  1  0  0  0
M  ISO  4   1 100  68 101  77 100  82 101
M  END
> <chiral flag>
0

> <version>
0

> <s_m_source_file>
/data/baiqing/PycharmProjects/Reinvent-master-3.2/result/LINK_invent/BTK/process_docking_weight1_custom_product_contain_oxygen_bond_distance_aromatic_linkinvent_7_9_3/rearranged_h_0134.sdf

> <i_m_source_file_index>
21

> <r_mmod_Potential_Energy-OPLS-2005>
139.000122070312

> <r_mmod_Stretch_Energy-OPLS-2005>
41.1783561706543

> <r_mmod_Bend_Energy-OPLS-2005>
112.142143249512

> <r_mmod_Torsional_Energy-OPLS-2005>
240.067687988281

> <r_mmod_Improper_Torsional_Energy-OPLS-2005>
2.88571286201477

> <r_mmod_Van_der_Waal_Energy-OPLS-2005>
150.442352294922

> <r_mmod_Electrostatic_Energy-OPLS-2005>
-228.682952880859

> <r_mmod_Solvation_Energy-OPLS-2005>
-187.714385986328

> <b_mmod_Minimization_Converged-OPLS-2005>
0

> <r_mmod_RMS_Derivative-OPLS-2005>
0.301130801439285

$$$$
21
                    3D
 Structure written by MMmdl.
160168  0  0  1  0            999 V2000
  -30.5684  -14.7358   20.5137 C   0  0  0  0  0  0
  -30.4425  -12.4581   19.4808 C   0  0  0  0  0  0
  -29.5265  -12.5134   18.2390 C   0  0  0  0  0  0
  -28.0399  -12.3581   18.6242 C   0  0  0  0  0  0
  -27.6364  -13.2234   19.8480 C   0  0  2  0  0  0
  -28.6731  -13.1288   20.9851 C   0  0  0  0  0  0
  -25.2468  -13.8117   20.5730 C   0  0  0  0  0  0
  -24.1744  -13.0370   20.9203 C   0  0  0  0  0  0
  -24.6288  -11.6853   20.8636 C   0  0  0  0  0  0
  -23.8928  -10.4270   21.0334 C   0  0  0  0  0  0
  -24.3511   -9.4228   21.9155 C   0  0  0  0  0  0
  -23.6263   -8.2226   22.0732 C   0  0  0  0  0  0
  -22.4253   -8.0199   21.3513 C   0  0  0  0  0  0
  -21.9833   -9.0140   20.4615 C   0  0  0  0  0  0
  -22.7084  -10.2061   20.3001 C   0  0  0  0  0  0
  -21.6884   -6.0651   22.5267 C   0  0  0  0  0  0
  -21.4028   -6.5562   23.8187 C   0  0  0  0  0  0
  -21.3696   -5.6740   24.9165 C   0  0  0  0  0  0
  -21.6095   -4.3002   24.7232 C   0  0  0  0  0  0
  -21.8848   -3.8068   23.4364 C   0  0  0  0  0  0
  -21.9212   -4.6872   22.3407 C   0  0  0  0  0  0
  -22.7797  -13.5183   21.1945 C   0  0  0  0  0  0
  -22.1686   -4.2063   21.0980 F   0  0  0  0  0  0
  -21.5673   -3.4487   25.7750 F   0  0  0  0  0  0
  -29.9748  -13.4999   20.4150 N   0  0  0  0  0  0
  -26.2852  -12.9303   20.3174 N   0  0  0  0  0  0
  -25.9214  -11.6458   20.5592 N   0  0  0  0  0  0
  -22.0427  -12.8179   22.0484 N   0  0  0  0  0  0
  -25.4220  -15.1865   20.4410 N   0  0  0  0  0  0
  -31.7685  -14.8737   20.2427 O   0  0  0  0  0  0
  -21.6656   -6.8779   21.4221 O   0  0  0  0  0  0
  -22.3521  -14.5507   20.6795 O   0  0  0  0  0  0
  -24.6339  -31.8536   23.1936 C   0  0  0  0  0  0
  -25.9133  -32.4739   23.8313 C   0  0  1  0  0  0
  -27.2296  -27.2440   20.1561 C   0  0  0  0  0  0
  -25.5922  -33.8545   24.2273 N   0  0  0  0  0  0
  -23.4327  -30.4713   21.5390 C   0  0  2  0  0  0
  -24.8845  -28.9154   20.1146 C   0  0  0  0  0  0
  -22.7520  -29.4577   22.4932 C   0  0  0  0  0  0
  -18.0300  -28.1378   22.8487 C   0  0  0  0  0  0
  -24.1503  -36.7288   23.2622 C   0  0  0  0  0  0
  -25.9769  -30.7669   21.3685 C   0  0  0  0  0  0
  -26.0563  -29.3824   20.7239 C   0  0  0  0  0  0
  -27.2314  -28.5615   20.7301 C   0  0  0  0  0  0
  -26.0304  -26.8481   19.5170 C   0  0  0  0  0  0
  -24.8794  -27.6583   19.4980 C   0  0  0  0  0  0
  -23.6509  -29.7967   20.1587 C   0  0  0  0  0  0
  -25.4117  -36.3076   24.0344 C   0  0  1  0  0  0
  -20.5902  -28.3692   23.1275 C   0  0  2  0  0  0
  -20.6798  -26.9416   22.5398 C   0  0  0  0  0  0
  -19.5774  -26.6390   21.5201 C   0  0  0  0  0  0
  -18.1953  -26.7924   22.1619 C   0  0  0  0  0  0
  -19.1554  -28.8859   23.2877 C   0  0  0  0  0  0
  -18.9465  -30.1455   23.8894 C   0  0  0  0  0  0
  -17.6462  -30.6579   24.0554 C   0  0  0  0  0  0
  -25.9048  -34.9431   23.5117 C   0  0  0  0  0  0
  -16.5352  -29.9072   23.6313 C   0  0  0  0  0  0
  -16.7288  -28.6485   23.0352 C   0  0  0  0  0  0
  -26.4492  -31.6542   25.0681 C   0  0  0  0  0  0
  -25.3689  -31.3657   26.1383 C   0  0  0  0  0  0
  -27.0311  -30.2961   24.6099 C   0  0  0  0  0  0
  -27.6094  -32.4225   25.7444 C   0  0  0  0  0  0
  -27.5617  -37.1775   24.8447 C   0  0  0  0  0  0
  -21.4223  -29.3035   22.3668 N   0  0  0  0  0  0
  -26.4284  -37.3792   23.9442 N   0  0  0  0  0  0
  -24.7010  -31.0500   22.0912 N   0  0  0  0  0  0
  -23.4214  -28.8111   23.3040 O   0  0  0  0  0  0
  -28.3226  -26.3421   20.2294 O   0  0  0  0  0  0
  -26.5638  -34.8926   22.4691 O   0  0  0  0  0  0
  -23.5473  -32.1350   23.7220 O   0  0  0  0  0  0
  -30.1948  -18.7687   22.9859 C   0  0  0  0  0  0
  -29.8909  -19.8934   22.1942 C   0  0  0  0  0  0
  -29.5363  -18.3955   20.3165 C   0  0  0  0  0  0
  -30.1895  -17.4535   22.4675 C   0  0  0  0  0  0
  -29.8822  -17.2165   21.1014 C   0  0  0  0  0  0
  -29.5342  -19.7587   20.8392 C   0  0  0  0  0  0
  -30.4703  -16.3189   23.4392 C   0  0  0  0  0  0
  -31.1879  -24.9425   19.4610 C   0  0  0  0  0  0
  -30.2876  -23.6942   19.4016 C   0  0  0  0  0  0
  -28.0536  -24.8552   20.1710 C   0  0  0  0  0  0
  -28.5822  -22.1503   20.6086 C   0  0  0  0  0  0
  -29.1495  -23.6758   20.4451 C   0  0  1  0  0  0
  -29.7118  -15.8205   20.6303 N   0  0  0  0  0  0
  -29.2713  -20.9299   20.0693 O   0  0  0  0  0  0
  -31.4806  -12.6218   19.1871 H   0  0  0  0  0  0
  -30.4095  -11.4754   19.9544 H   0  0  0  0  0  0
  -29.8162  -11.7401   17.5281 H   0  0  0  0  0  0
  -29.6752  -13.4640   17.7287 H   0  0  0  0  0  0
  -27.8608  -11.3043   18.8354 H   0  0  0  0  0  0
  -27.4057  -12.6122   17.7729 H   0  0  0  0  0  0
  -27.6254  -14.2512   19.4867 H   0  0  0  0  0  0
  -28.7024  -12.1173   21.3911 H   0  0  0  0  0  0
  -28.3959  -13.7840   21.8125 H   0  0  0  0  0  0
  -25.2662   -9.5760   22.4711 H   0  0  0  0  0  0
  -24.0029   -7.4644   22.7450 H   0  0  0  0  0  0
  -21.0766   -8.8543   19.8955 H   0  0  0  0  0  0
  -22.3482  -10.9517   19.6068 H   0  0  0  0  0  0
  -21.2003   -7.6075   23.9646 H   0  0  0  0  0  0
  -21.1525   -6.0481   25.9059 H   0  0  0  0  0  0
  -22.0612   -2.7513   23.2884 H   0  0  0  0  0  0
  -22.4002  -11.9814   22.4887 H   0  0  0  0  0  0
  -21.0999  -13.1165   22.2590 H   0  0  0  0  0  0
  -24.6784  -15.8437   20.6463 H   0  0  0  0  0  0
  -26.2950  -15.6359   20.1994 H   0  0  0  0  0  0
  -26.7196  -32.5428   23.1066 H   0  0  0  0  0  0
  -25.0059  -33.9672   25.0408 H   0  0  0  0  0  0
  -22.7318  -31.2937   21.3832 H   0  0  0  0  0  0
  -23.3792  -35.9582   23.3186 H   0  0  0  0  0  0
  -24.3626  -36.8987   22.2051 H   0  0  0  0  0  0
  -23.7191  -37.6446   23.6679 H   0  0  0  0  0  0
  -26.0945  -31.5180   20.5859 H   0  0  0  0  0  0
  -26.8613  -30.8398   21.9894 H   0  0  0  0  0  0
  -28.1248  -28.9123   21.2303 H   0  0  0  0  0  0
  -25.9400  -25.8839   19.0447 H   0  0  0  0  0  0
  -23.9847  -27.2904   19.0163 H   0  0  0  0  0  0
  -23.7681  -30.5612   19.3903 H   0  0  0  0  0  0
  -22.7761  -29.2151   19.8637 H   0  0  0  0  0  0
  -25.1278  -36.1920   25.0832 H   0  0  0  0  0  0
  -20.9997  -28.3246   24.1396 H   0  0  0  0  0  0
  -20.5697  -26.2299   23.3593 H   0  0  0  0  0  0
  -21.6666  -26.7451   22.1177 H   0  0  0  0  0  0
  -19.6937  -25.6292   21.1251 H   0  0  0  0  0  0
  -19.6712  -27.3198   20.6725 H   0  0  0  0  0  0
  -17.4222  -26.6671   21.4016 H   0  0  0  0  0  0
  -18.0356  -26.0054   22.9009 H   0  0  0  0  0  0
  -19.7936  -30.7286   24.2269 H   0  0  0  0  0  0
  -17.4998  -31.6264   24.5150 H   0  0  0  0  0  0
  -15.5345  -30.2976   23.7627 H   0  0  0  0  0  0
  -15.8684  -28.0793   22.7085 H   0  0  0  0  0  0
  -24.5936  -30.6937   25.7674 H   0  0  0  0  0  0
  -24.8782  -32.2799   26.4747 H   0  0  0  0  0  0
  -25.7987  -30.8876   27.0197 H   0  0  0  0  0  0
  -26.2856  -29.6720   24.1151 H   0  0  0  0  0  0
  -27.4055  -29.7208   25.4578 H   0  0  0  0  0  0
  -27.8721  -30.4261   23.9276 H   0  0  0  0  0  0
  -27.2786  -33.3575   26.2000 H   0  0  0  0  0  0
  -28.3926  -32.6679   25.0240 H   0  0  0  0  0  0
  -28.0733  -31.8308   26.5362 H   0  0  0  0  0  0
  -28.2529  -38.0182   24.7658 H   0  0  0  0  0  0
  -28.1234  -36.2726   24.6063 H   0  0  0  0  0  0
  -27.2371  -37.1157   25.8852 H   0  0  0  0  0  0
  -20.9424  -29.8752   21.6848 H   0  0  0  0  0  0
  -26.0170  -38.2854   24.1507 H   0  0  0  0  0  0
  -30.4214  -18.9380   24.0289 H   0  0  0  0  0  0
  -29.9523  -20.8708   22.6473 H   0  0  0  0  0  0
  -29.2415  -18.2445   19.2866 H   0  0  0  0  0  0
  -30.5527  -16.6880   24.4623 H   0  0  0  0  0  0
  -31.4147  -15.8302   23.1980 H   0  0  0  0  0  0
  -29.6658  -15.5833   23.4261 H   0  0  0  0  0  0
  -32.0832  -24.8162   18.8488 H   0  0  0  0  0  0
  -31.5235  -25.1394   20.4803 H   0  0  0  0  0  0
  -30.6729  -25.8329   19.0980 H   0  0  0  0  0  0
  -30.9235  -22.8225   19.5654 H   0  0  0  0  0  0
  -29.8695  -23.5692   18.4021 H   0  0  0  0  0  0
  -27.2307  -24.6718   20.8628 H   0  0  0  0  0  0
  -27.6610  -24.6415   19.1778 H   0  0  0  0  0  0
  -27.6253  -22.1328   20.0906 H   0  0  0  0  0  0
  -28.2998  -21.9912   21.6492 H   0  0  0  0  0  0
  -29.6123  -23.9087   21.4064 H   0  0  0  0  0  0
  -28.7449  -15.5492   20.5456 H   0  0  0  0  0  0
  1 25  1  0  0  0
  1 30  2  0  0  0
  1 83  1  0  0  0
  2  3  1  0  0  0
  2 25  1  0  0  0
  2 85  1  0  0  0
  2 86  1  0  0  0
  3  4  1  0  0  0
  3 87  1  0  0  0
  3 88  1  0  0  0
  4  5  1  0  0  0
  4 89  1  0  0  0
  4 90  1  0  0  0
  5  6  1  0  0  0
  5 26  1  0  0  0
  5 91  1  0  0  0
  6 25  1  0  0  0
  6 92  1  0  0  0
  6 93  1  0  0  0
  7  8  2  0  0  0
  7 26  1  0  0  0
  7 29  1  0  0  0
  8  9  1  0  0  0
  8 22  1  0  0  0
  9 10  1  0  0  0
  9 27  2  0  0  0
 10 11  2  0  0  0
 10 15  1  0  0  0
 11 12  1  0  0  0
 11 94  1  0  0  0
 12 13  2  0  0  0
 12 95  1  0  0  0
 13 14  1  0  0  0
 13 31  1  0  0  0
 14 15  2  0  0  0
 14 96  1  0  0  0
 15 97  1  0  0  0
 16 17  2  0  0  0
 16 21  1  0  0  0
 16 31  1  0  0  0
 17 18  1  0  0  0
 17 98  1  0  0  0
 18 19  2  0  0  0
 18 99  1  0  0  0
 19 20  1  0  0  0
 19 24  1  0  0  0
 20 21  2  0  0  0
 20100  1  0  0  0
 21 23  1  0  0  0
 22 28  1  0  0  0
 22 32  2  0  0  0
 26 27  1  0  0  0
 28101  1  0  0  0
 28102  1  0  0  0
 29103  1  0  0  0
 29104  1  0  0  0
 33 34  1  0  0  0
 33 66  1  0  0  0
 33 70  2  0  0  0
 34 36  1  0  0  0
 34 59  1  0  0  0
 34105  1  0  0  0
 35 44  2  0  0  0
 35 45  1  0  0  0
 35 68  1  0  0  0
 36 56  1  0  0  0
 36106  1  0  0  0
 37 39  1  0  0  0
 37 47  1  0  0  0
 37 66  1  0  0  0
 37107  1  0  0  0
 38 43  2  0  0  0
 38 46  1  0  0  0
 38 47  1  0  0  0
 39 64  1  0  0  0
 39 67  2  0  0  0
 40 52  1  0  0  0
 40 53  2  0  0  0
 40 58  1  0  0  0
 41108  1  0  0  0
 41109  1  0  0  0
 41110  1  0  0  0
 41 48  1  0  0  0
 42 43  1  0  0  0
 42 66  1  0  0  0
 42111  1  0  0  0
 42112  1  0  0  0
 43 44  1  0  0  0
 44113  1  0  0  0
 45 46  2  0  0  0
 45114  1  0  0  0
 46115  1  0  0  0
 47116  1  0  0  0
 47117  1  0  0  0
 48 56  1  0  0  0
 48 65  1  0  0  0
 48118  1  0  0  0
 49 50  1  0  0  0
 49 53  1  0  0  0
 49 64  1  0  0  0
 49119  1  0  0  0
 50 51  1  0  0  0
 50120  1  0  0  0
 50121  1  0  0  0
 51 52  1  0  0  0
 51122  1  0  0  0
 51123  1  0  0  0
 52124  1  0  0  0
 52125  1  0  0  0
 53 54  1  0  0  0
 54 55  2  0  0  0
 54126  1  0  0  0
 55 57  1  0  0  0
 55127  1  0  0  0
 56 69  2  0  0  0
 57 58  2  0  0  0
 57128  1  0  0  0
 58129  1  0  0  0
 59 60  1  0  0  0
 59 61  1  0  0  0
 59 62  1  0  0  0
 60130  1  0  0  0
 60131  1  0  0  0
 60132  1  0  0  0
 61133  1  0  0  0
 61134  1  0  0  0
 61135  1  0  0  0
 62136  1  0  0  0
 62137  1  0  0  0
 62138  1  0  0  0
 63 65  1  0  0  0
 63139  1  0  0  0
 63140  1  0  0  0
 63141  1  0  0  0
 64142  1  0  0  0
 65143  1  0  0  0
 68 80  1  0  0  0
 71 72  2  0  0  0
 71 74  1  0  0  0
 71144  1  0  0  0
 72 76  1  0  0  0
 72145  1  0  0  0
 73 75  1  0  0  0
 73 76  2  0  0  0
 73146  1  0  0  0
 74 75  2  0  0  0
 74 77  1  0  0  0
 75 83  1  0  0  0
 76 84  1  0  0  0
 77147  1  0  0  0
 77148  1  0  0  0
 77149  1  0  0  0
 78 79  1  0  0  0
 78150  1  0  0  0
 78151  1  0  0  0
 78152  1  0  0  0
 79153  1  0  0  0
 79154  1  0  0  0
 79 82  1  0  0  0
 80 82  1  0  0  0
 80155  1  0  0  0
 80156  1  0  0  0
 81 82  1  0  0  0
 81 84  1  0  0  0
 81157  1  0  0  0
 81158  1  0  0  0
 82159  1  0  0  0
 83160  1  0  0  0
M  ISO  4   1 100  68 101  80 101  83 100
M  END
> <chiral flag>
0

> <version>
0

> <s_m_source_file>
/data/baiqing/PycharmProjects/Reinvent-master-3.2/result/LINK_invent/BTK/process_docking_weight1_custom_product_contain_oxygen_bond_distance_aromatic_linkinvent_7_9_3/rearranged_h_0134.sdf

> <i_m_source_file_index>
22

> <r_mmod_Potential_Energy-OPLS-2005>
258.596771240234

> <r_mmod_Stretch_Energy-OPLS-2005>
131.724487304688

> <r_mmod_Bend_Energy-OPLS-2005>
179.989639282227

> <r_mmod_Torsional_Energy-OPLS-2005>
274.625640869141

> <r_mmod_Improper_Torsional_Energy-OPLS-2005>
8.69153785705566

> <r_mmod_Van_der_Waal_Energy-OPLS-2005>
137.338226318359

> <r_mmod_Electrostatic_Energy-OPLS-2005>
-357.568267822266

> <r_mmod_Solvation_Energy-OPLS-2005>
-208.376495361328

> <b_mmod_Minimization_Converged-OPLS-2005>
0

> <r_mmod_RMS_Derivative-OPLS-2005>
5.08768701553345

$$$$
22
                    3D
 Structure written by MMmdl.
159167  0  0  1  0            999 V2000
  -30.7084  -14.4174   20.6534 C   0  0  0  0  0  0
  -30.4370  -12.3028   19.3993 C   0  0  0  0  0  0
  -29.4980  -12.5250   18.1963 C   0  0  0  0  0  0
  -28.0187  -12.3810   18.6080 C   0  0  0  0  0  0
  -27.6716  -13.1965   19.8814 C   0  0  2  0  0  0
  -28.7091  -12.9163   20.9909 C   0  0  0  0  0  0
  -25.2644  -13.8135   20.5666 C   0  0  0  0  0  0
  -24.1875  -13.0433   20.9155 C   0  0  0  0  0  0
  -24.6404  -11.6893   20.8711 C   0  0  0  0  0  0
  -23.9055  -10.4287   21.0388 C   0  0  0  0  0  0
  -24.3603   -9.4211   21.9170 C   0  0  0  0  0  0
  -23.6281   -8.2250   22.0751 C   0  0  0  0  0  0
  -22.4266   -8.0282   21.3548 C   0  0  0  0  0  0
  -21.9898   -9.0255   20.4648 C   0  0  0  0  0  0
  -22.7225  -10.2131   20.3047 C   0  0  0  0  0  0
  -21.6853   -6.0731   22.5273 C   0  0  0  0  0  0
  -21.4015   -6.5630   23.8209 C   0  0  0  0  0  0
  -21.3659   -5.6781   24.9169 C   0  0  0  0  0  0
  -21.6042   -4.3043   24.7218 C   0  0  0  0  0  0
  -21.8819   -3.8139   23.4337 C   0  0  0  0  0  0
  -21.9197   -4.6961   22.3397 C   0  0  0  0  0  0
  -22.7899  -13.5255   21.1811 C   0  0  0  0  0  0
  -22.1666   -4.2151   21.0975 F   0  0  0  0  0  0
  -21.5628   -3.4526   25.7730 F   0  0  0  0  0  0
  -30.0504  -13.2417   20.4623 N   0  0  0  0  0  0
  -26.3075  -12.9283   20.3359 N   0  0  0  0  0  0
  -25.9326  -11.6451   20.5725 N   0  0  0  0  0  0
  -22.0521  -12.8274   22.0370 N   0  0  0  0  0  0
  -25.4381  -15.1852   20.4080 N   0  0  0  0  0  0
  -31.7669  -14.7028   20.0836 O   0  0  0  0  0  0
  -21.6638   -6.8876   21.4237 O   0  0  0  0  0  0
  -22.3605  -14.5568   20.6658 O   0  0  0  0  0  0
  -24.6161  -31.8698   23.2112 C   0  0  0  0  0  0
  -25.9059  -32.4828   23.8395 C   0  0  1  0  0  0
  -27.2283  -27.4356   20.0787 C   0  0  0  0  0  0
  -25.5917  -33.8623   24.2325 N   0  0  0  0  0  0
  -23.4020  -30.4965   21.5537 C   0  0  2  0  0  0
  -24.8444  -28.9696   20.1138 C   0  0  0  0  0  0
  -22.7411  -29.4671   22.4996 C   0  0  0  0  0  0
  -18.0275  -28.1398   22.8488 C   0  0  0  0  0  0
  -24.1491  -36.7304   23.2634 C   0  0  0  0  0  0
  -25.9339  -30.8339   21.3661 C   0  0  0  0  0  0
  -26.0090  -29.4716   20.7072 C   0  0  0  0  0  0
  -27.2045  -28.7143   20.6859 C   0  0  0  0  0  0
  -26.0381  -26.9564   19.4778 C   0  0  0  0  0  0
  -24.8547  -27.7100   19.4969 C   0  0  0  0  0  0
  -23.6090  -29.8371   20.1660 C   0  0  0  0  0  0
  -25.4110  -36.3108   24.0334 C   0  0  1  0  0  0
  -20.5865  -28.3673   23.1325 C   0  0  2  0  0  0
  -20.6764  -26.9414   22.5421 C   0  0  0  0  0  0
  -19.5745  -26.6401   21.5213 C   0  0  0  0  0  0
  -18.1922  -26.7943   22.1622 C   0  0  0  0  0  0
  -19.1526  -28.8852   23.2901 C   0  0  0  0  0  0
  -18.9451  -30.1457   23.8915 C   0  0  0  0  0  0
  -17.6457  -30.6595   24.0576 C   0  0  0  0  0  0
  -25.9041  -34.9477   23.5124 C   0  0  0  0  0  0
  -16.5345  -29.9100   23.6332 C   0  0  0  0  0  0
  -16.7267  -28.6519   23.0345 C   0  0  0  0  0  0
  -26.4470  -31.6609   25.0728 C   0  0  0  0  0  0
  -25.3729  -31.3735   26.1474 C   0  0  0  0  0  0
  -27.0298  -30.3052   24.6110 C   0  0  0  0  0  0
  -27.6048  -32.4324   25.7489 C   0  0  0  0  0  0
  -27.5589  -37.1800   24.8452 C   0  0  0  0  0  0
  -21.4140  -29.3042   22.3737 N   0  0  0  0  0  0
  -26.4289  -37.3803   23.9423 N   0  0  0  0  0  0
  -24.6689  -31.0802   22.1017 N   0  0  0  0  0  0
  -23.4188  -28.8197   23.3019 O   0  0  0  0  0  0
  -28.3914  -26.6834   20.0918 O   0  0  0  0  0  0
  -26.5600  -34.8925   22.4684 O   0  0  0  0  0  0
  -23.5352  -32.1455   23.7508 O   0  0  0  0  0  0
  -31.1132  -18.8820   21.5011 C   0  0  0  0  0  0
  -31.2071  -17.4797   21.3370 C   0  0  0  0  0  0
  -28.8709  -17.2626   21.9799 C   0  0  0  0  0  0
  -29.9026  -19.4837   21.9186 C   0  0  0  0  0  0
  -30.0814  -16.6579   21.5857 C   0  0  0  0  0  0
  -28.7753  -18.6575   22.1374 C   0  0  0  0  0  0
  -30.7068  -21.3578   23.4169 C   0  0  0  0  0  0
  -28.9728  -23.0112   20.8631 C   0  0  0  0  0  0
  -29.4266  -24.4056   20.3704 C   0  0  0  0  0  0
  -30.0677  -21.9254   21.0113 C   0  0  0  0  0  0
  -28.2011  -25.2625   19.9972 C   0  0  0  0  0  0
  -29.8148  -20.9846   22.2218 C   0  0  1  0  0  0
  -30.0928  -15.2362   21.5215 N   0  0  0  0  0  0
  -27.5922  -19.1893   22.5300 F   0  0  0  0  0  0
  -31.4777  -12.4265   19.0945 H   0  0  0  0  0  0
  -30.3568  -11.2770   19.7628 H   0  0  0  0  0  0
  -29.7340  -11.8186   17.3996 H   0  0  0  0  0  0
  -29.6689  -13.5194   17.7792 H   0  0  0  0  0  0
  -27.8222  -11.3217   18.7827 H   0  0  0  0  0  0
  -27.3700  -12.6772   17.7832 H   0  0  0  0  0  0
  -27.7343  -14.2529   19.6174 H   0  0  0  0  0  0
  -28.6827  -11.8610   21.2686 H   0  0  0  0  0  0
  -28.4468  -13.4480   21.9057 H   0  0  0  0  0  0
  -25.2745   -9.5692   22.4745 H   0  0  0  0  0  0
  -23.9991   -7.4646   22.7475 H   0  0  0  0  0  0
  -21.0829   -8.8771   19.8958 H   0  0  0  0  0  0
  -22.3678  -10.9667   19.6156 H   0  0  0  0  0  0
  -21.2005   -7.6136   23.9712 H   0  0  0  0  0  0
  -21.1478   -6.0507   25.9073 H   0  0  0  0  0  0
  -22.0598   -2.7602   23.2832 H   0  0  0  0  0  0
  -22.4103  -11.9924   22.4764 H   0  0  0  0  0  0
  -21.1143  -13.1337   22.2549 H   0  0  0  0  0  0
  -24.6695  -15.8384   20.5105 H   0  0  0  0  0  0
  -26.2871  -15.6213   20.0706 H   0  0  0  0  0  0
  -26.7129  -32.5537   23.1156 H   0  0  0  0  0  0
  -25.0078  -33.9780   25.0475 H   0  0  0  0  0  0
  -22.6899  -31.3134   21.4197 H   0  0  0  0  0  0
  -23.3757  -35.9635   23.3293 H   0  0  0  0  0  0
  -24.3591  -36.8927   22.2052 H   0  0  0  0  0  0
  -23.7234  -37.6502   23.6647 H   0  0  0  0  0  0
  -26.0540  -31.6029   20.6017 H   0  0  0  0  0  0
  -26.8191  -30.8807   21.9885 H   0  0  0  0  0  0
  -28.1016  -29.0991   21.1500 H   0  0  0  0  0  0
  -25.9920  -25.9977   18.9828 H   0  0  0  0  0  0
  -23.9610  -27.3179   19.0319 H   0  0  0  0  0  0
  -23.7207  -30.6162   19.4104 H   0  0  0  0  0  0
  -22.7310  -29.2618   19.8669 H   0  0  0  0  0  0
  -25.1287  -36.1968   25.0826 H   0  0  0  0  0  0
  -20.9958  -28.3239   24.1444 H   0  0  0  0  0  0
  -20.5680  -26.2272   23.3599 H   0  0  0  0  0  0
  -21.6636  -26.7469   22.1213 H   0  0  0  0  0  0
  -19.6898  -25.6316   21.1235 H   0  0  0  0  0  0
  -19.6691  -27.3209   20.6741 H   0  0  0  0  0  0
  -17.4195  -26.6703   21.4019 H   0  0  0  0  0  0
  -18.0315  -26.0084   22.9018 H   0  0  0  0  0  0
  -19.7929  -30.7271   24.2290 H   0  0  0  0  0  0
  -17.5014  -31.6274   24.5182 H   0  0  0  0  0  0
  -15.5348  -30.3015   23.7643 H   0  0  0  0  0  0
  -15.8663  -28.0849   22.7055 H   0  0  0  0  0  0
  -24.5894  -30.7087   25.7817 H   0  0  0  0  0  0
  -24.8921  -32.2901   26.4905 H   0  0  0  0  0  0
  -25.8078  -30.8917   27.0240 H   0  0  0  0  0  0
  -26.2848  -29.6822   24.1144 H   0  0  0  0  0  0
  -27.4048  -29.7285   25.4574 H   0  0  0  0  0  0
  -27.8692  -30.4371   23.9279 H   0  0  0  0  0  0
  -27.2670  -33.3613   26.2096 H   0  0  0  0  0  0
  -28.3840  -32.6907   25.0306 H   0  0  0  0  0  0
  -28.0728  -31.8428   26.5381 H   0  0  0  0  0  0
  -28.2584  -38.0121   24.7565 H   0  0  0  0  0  0
  -28.1111  -36.2664   24.6197 H   0  0  0  0  0  0
  -27.2321  -37.1362   25.8855 H   0  0  0  0  0  0
  -20.9296  -29.8774   21.6977 H   0  0  0  0  0  0
  -26.0170  -38.2875   24.1455 H   0  0  0  0  0  0
  -31.9887  -19.4942   21.3355 H   0  0  0  0  0  0
  -32.1558  -17.0479   21.0494 H   0  0  0  0  0  0
  -27.9956  -16.6605   22.1785 H   0  0  0  0  0  0
  -30.4388  -20.7758   24.2991 H   0  0  0  0  0  0
  -30.5963  -22.4124   23.6744 H   0  0  0  0  0  0
  -31.7609  -21.1753   23.2066 H   0  0  0  0  0  0
  -28.1978  -22.6214   20.2006 H   0  0  0  0  0  0
  -28.4759  -23.1726   21.8211 H   0  0  0  0  0  0
  -30.0929  -24.3223   19.5106 H   0  0  0  0  0  0
  -29.9945  -24.8939   21.1621 H   0  0  0  0  0  0
  -31.0522  -22.3862   21.0992 H   0  0  0  0  0  0
  -30.1033  -21.3472   20.0865 H   0  0  0  0  0  0
  -27.3823  -24.9864   20.6662 H   0  0  0  0  0  0
  -27.8998  -24.9899   18.9843 H   0  0  0  0  0  0
  -28.7934  -21.1582   22.5586 H   0  0  0  0  0  0
  -29.3029  -14.7885   21.9607 H   0  0  0  0  0  0
  1 25  1  0  0  0
  1 30  2  0  0  0
  1 83  1  0  0  0
  2  3  1  0  0  0
  2 25  1  0  0  0
  2 85  1  0  0  0
  2 86  1  0  0  0
  3  4  1  0  0  0
  3 87  1  0  0  0
  3 88  1  0  0  0
  4  5  1  0  0  0
  4 89  1  0  0  0
  4 90  1  0  0  0
  5  6  1  0  0  0
  5 26  1  0  0  0
  5 91  1  0  0  0
  6 25  1  0  0  0
  6 92  1  0  0  0
  6 93  1  0  0  0
  7  8  2  0  0  0
  7 26  1  0  0  0
  7 29  1  0  0  0
  8  9  1  0  0  0
  8 22  1  0  0  0
  9 10  1  0  0  0
  9 27  2  0  0  0
 10 11  2  0  0  0
 10 15  1  0  0  0
 11 12  1  0  0  0
 11 94  1  0  0  0
 12 13  2  0  0  0
 12 95  1  0  0  0
 13 14  1  0  0  0
 13 31  1  0  0  0
 14 15  2  0  0  0
 14 96  1  0  0  0
 15 97  1  0  0  0
 16 17  2  0  0  0
 16 21  1  0  0  0
 16 31  1  0  0  0
 17 18  1  0  0  0
 17 98  1  0  0  0
 18 19  2  0  0  0
 18 99  1  0  0  0
 19 20  1  0  0  0
 19 24  1  0  0  0
 20 21  2  0  0  0
 20100  1  0  0  0
 21 23  1  0  0  0
 22 28  1  0  0  0
 22 32  2  0  0  0
 26 27  1  0  0  0
 28101  1  0  0  0
 28102  1  0  0  0
 29103  1  0  0  0
 29104  1  0  0  0
 33 34  1  0  0  0
 33 66  1  0  0  0
 33 70  2  0  0  0
 34 36  1  0  0  0
 34 59  1  0  0  0
 34105  1  0  0  0
 35 44  2  0  0  0
 35 45  1  0  0  0
 35 68  1  0  0  0
 36 56  1  0  0  0
 36106  1  0  0  0
 37 39  1  0  0  0
 37 47  1  0  0  0
 37 66  1  0  0  0
 37107  1  0  0  0
 38 43  2  0  0  0
 38 46  1  0  0  0
 38 47  1  0  0  0
 39 64  1  0  0  0
 39 67  2  0  0  0
 40 52  1  0  0  0
 40 53  2  0  0  0
 40 58  1  0  0  0
 41108  1  0  0  0
 41109  1  0  0  0
 41110  1  0  0  0
 41 48  1  0  0  0
 42 43  1  0  0  0
 42 66  1  0  0  0
 42111  1  0  0  0
 42112  1  0  0  0
 43 44  1  0  0  0
 44113  1  0  0  0
 45 46  2  0  0  0
 45114  1  0  0  0
 46115  1  0  0  0
 47116  1  0  0  0
 47117  1  0  0  0
 48 56  1  0  0  0
 48 65  1  0  0  0
 48118  1  0  0  0
 49 50  1  0  0  0
 49 53  1  0  0  0
 49 64  1  0  0  0
 49119  1  0  0  0
 50 51  1  0  0  0
 50120  1  0  0  0
 50121  1  0  0  0
 51 52  1  0  0  0
 51122  1  0  0  0
 51123  1  0  0  0
 52124  1  0  0  0
 52125  1  0  0  0
 53 54  1  0  0  0
 54 55  2  0  0  0
 54126  1  0  0  0
 55 57  1  0  0  0
 55127  1  0  0  0
 56 69  2  0  0  0
 57 58  2  0  0  0
 57128  1  0  0  0
 58129  1  0  0  0
 59 60  1  0  0  0
 59 61  1  0  0  0
 59 62  1  0  0  0
 60130  1  0  0  0
 60131  1  0  0  0
 60132  1  0  0  0
 61133  1  0  0  0
 61134  1  0  0  0
 61135  1  0  0  0
 62136  1  0  0  0
 62137  1  0  0  0
 62138  1  0  0  0
 63 65  1  0  0  0
 63139  1  0  0  0
 63140  1  0  0  0
 63141  1  0  0  0
 64142  1  0  0  0
 65143  1  0  0  0
 68 81  1  0  0  0
 71 72  2  0  0  0
 71 74  1  0  0  0
 71144  1  0  0  0
 72 75  1  0  0  0
 72145  1  0  0  0
 73 75  2  0  0  0
 73 76  1  0  0  0
 73146  1  0  0  0
 74 76  2  0  0  0
 74 82  1  0  0  0
 75 83  1  0  0  0
 76 84  1  0  0  0
 77147  1  0  0  0
 77148  1  0  0  0
 77149  1  0  0  0
 77 82  1  0  0  0
 78 79  1  0  0  0
 78 80  1  0  0  0
 78150  1  0  0  0
 78151  1  0  0  0
 79 81  1  0  0  0
 79152  1  0  0  0
 79153  1  0  0  0
 80 82  1  0  0  0
 80154  1  0  0  0
 80155  1  0  0  0
 81156  1  0  0  0
 81157  1  0  0  0
 82158  1  0  0  0
 83159  1  0  0  0
M  ISO  4   1 100  68 101  81 101  83 100
M  END
> <chiral flag>
0

> <version>
0

> <s_m_source_file>
/data/baiqing/PycharmProjects/Reinvent-master-3.2/result/LINK_invent/BTK/process_docking_weight1_custom_product_contain_oxygen_bond_distance_aromatic_linkinvent_7_9_3/rearranged_h_0134.sdf

> <i_m_source_file_index>
23

> <r_mmod_Potential_Energy-OPLS-2005>
11.4698677062988

> <r_mmod_Stretch_Energy-OPLS-2005>
36.5333404541016

> <r_mmod_Bend_Energy-OPLS-2005>
101.620849609375

> <r_mmod_Torsional_Energy-OPLS-2005>
235.673751831055

> <r_mmod_Improper_Torsional_Energy-OPLS-2005>
3.58472728729248

> <r_mmod_Van_der_Waal_Energy-OPLS-2005>
164.181930541992

> <r_mmod_Electrostatic_Energy-OPLS-2005>
-347.736175537109

> <r_mmod_Solvation_Energy-OPLS-2005>
-192.658706665039

> <b_mmod_Minimization_Converged-OPLS-2005>
0

> <r_mmod_RMS_Derivative-OPLS-2005>
1.42131018638611

$$$$
23
                    3D
 Structure written by MMmdl.
165173  0  0  1  0            999 V2000
  -30.7639  -14.3685   20.6585 C   0  0  0  0  0  0
  -30.4116  -12.2801   19.3978 C   0  0  0  0  0  0
  -29.4855  -12.5236   18.1923 C   0  0  0  0  0  0
  -28.0077  -12.3875   18.6060 C   0  0  0  0  0  0
  -27.6662  -13.2057   19.8796 C   0  0  2  0  0  0
  -28.7035  -12.9487   20.9946 C   0  0  0  0  0  0
  -25.2603  -13.8160   20.5665 C   0  0  0  0  0  0
  -24.1856  -13.0439   20.9158 C   0  0  0  0  0  0
  -24.6408  -11.6901   20.8722 C   0  0  0  0  0  0
  -23.9072  -10.4290   21.0397 C   0  0  0  0  0  0
  -24.3624   -9.4206   21.9177 C   0  0  0  0  0  0
  -23.6298   -8.2244   22.0753 C   0  0  0  0  0  0
  -22.4280   -8.0280   21.3546 C   0  0  0  0  0  0
  -21.9912   -9.0251   20.4647 C   0  0  0  0  0  0
  -22.7240  -10.2131   20.3049 C   0  0  0  0  0  0
  -21.6856   -6.0736   22.5279 C   0  0  0  0  0  0
  -21.4012   -6.5640   23.8212 C   0  0  0  0  0  0
  -21.3661   -5.6793   24.9175 C   0  0  0  0  0  0
  -21.6048   -4.3054   24.7224 C   0  0  0  0  0  0
  -21.8819   -3.8149   23.4345 C   0  0  0  0  0  0
  -21.9192   -4.6965   22.3403 C   0  0  0  0  0  0
  -22.7879  -13.5235   21.1830 C   0  0  0  0  0  0
  -22.1663   -4.2148   21.0979 F   0  0  0  0  0  0
  -21.5630   -3.4539   25.7739 F   0  0  0  0  0  0
  -30.0431  -13.2368   20.4517 N   0  0  0  0  0  0
  -26.3049  -12.9333   20.3374 N   0  0  0  0  0  0
  -25.9332  -11.6491   20.5752 N   0  0  0  0  0  0
  -22.0528  -12.8227   22.0387 N   0  0  0  0  0  0
  -25.4320  -15.1882   20.4061 N   0  0  0  0  0  0
  -31.8228  -14.6069   20.0678 O   0  0  0  0  0  0
  -21.6641   -6.8880   21.4243 O   0  0  0  0  0  0
  -22.3563  -14.5543   20.6683 O   0  0  0  0  0  0
  -24.6109  -31.8713   23.2118 C   0  0  0  0  0  0
  -25.9017  -32.4845   23.8403 C   0  0  1  0  0  0
  -27.2321  -27.4773   20.0846 C   0  0  0  0  0  0
  -25.5893  -33.8637   24.2338 N   0  0  0  0  0  0
  -23.3970  -30.4946   21.5512 C   0  0  2  0  0  0
  -24.8441  -28.9659   20.1105 C   0  0  0  0  0  0
  -22.7394  -29.4676   22.5002 C   0  0  0  0  0  0
  -18.0272  -28.1374   22.8504 C   0  0  0  0  0  0
  -24.1494  -36.7323   23.2640 C   0  0  0  0  0  0
  -25.9207  -30.8492   21.3580 C   0  0  0  0  0  0
  -26.0000  -29.4858   20.7075 C   0  0  0  0  0  0
  -27.1992  -28.7447   20.7006 C   0  0  0  0  0  0
  -26.0680  -26.9611   19.4825 C   0  0  0  0  0  0
  -24.8699  -27.6992   19.4984 C   0  0  0  0  0  0
  -23.6023  -29.8263   20.1649 C   0  0  0  0  0  0
  -25.4108  -36.3123   24.0349 C   0  0  1  0  0  0
  -20.5865  -28.3647   23.1343 C   0  0  2  0  0  0
  -20.6764  -26.9384   22.5432 C   0  0  0  0  0  0
  -19.5739  -26.6382   21.5229 C   0  0  0  0  0  0
  -18.1916  -26.7928   22.1634 C   0  0  0  0  0  0
  -19.1524  -28.8824   23.2923 C   0  0  0  0  0  0
  -18.9449  -30.1438   23.8920 C   0  0  0  0  0  0
  -17.6452  -30.6575   24.0572 C   0  0  0  0  0  0
  -25.9038  -34.9487   23.5138 C   0  0  0  0  0  0
  -16.5343  -29.9079   23.6334 C   0  0  0  0  0  0
  -16.7265  -28.6504   23.0347 C   0  0  0  0  0  0
  -26.4452  -31.6612   25.0717 C   0  0  0  0  0  0
  -25.3733  -31.3711   26.1478 C   0  0  0  0  0  0
  -27.0285  -30.3070   24.6060 C   0  0  0  0  0  0
  -27.6044  -32.4314   25.7476 C   0  0  0  0  0  0
  -27.5582  -37.1807   24.8467 C   0  0  0  0  0  0
  -21.4124  -29.3022   22.3748 N   0  0  0  0  0  0
  -26.4295  -37.3800   23.9418 N   0  0  0  0  0  0
  -24.6608  -31.0864   22.0988 N   0  0  0  0  0  0
  -23.4188  -28.8227   23.3033 O   0  0  0  0  0  0
  -28.3725  -26.7221   20.0861 O   0  0  0  0  0  0
  -26.5594  -34.8933   22.4694 O   0  0  0  0  0  0
  -23.5320  -32.1429   23.7554 O   0  0  0  0  0  0
  -32.7175  -17.5690   23.0339 C   0  0  0  0  0  0
  -32.2214  -18.8113   22.6088 C   0  0  0  0  0  0
  -32.0399  -16.3925   22.6801 C   0  0  0  0  0  0
  -31.0288  -18.8965   21.8584 C   0  0  0  0  0  0
  -30.3126  -17.7110   21.5318 C   0  0  0  0  0  0
  -30.8571  -16.4545   21.9126 C   0  0  0  0  0  0
  -29.1757  -17.6830   19.2476 C   0  0  0  0  0  0
  -30.5840  -20.2890   21.4263 C   0  0  0  0  0  0
  -28.9898  -17.7706   20.7686 C   0  0  0  0  0  0
  -29.8970  -21.0617   22.5671 C   0  0  0  0  0  0
  -30.0441  -22.5884   22.4598 C   0  0  0  0  0  0
  -29.1780  -23.2428   21.3595 C   0  0  0  0  0  0
  -29.4663  -24.7587   21.1221 C   0  0  0  0  0  0
  -28.5100  -25.9731   21.2954 C   0  0  0  0  0  0
  -30.2372  -15.2390   21.5317 N   0  0  0  0  0  0
  -31.4573  -12.3656   19.0957 H   0  0  0  0  0  0
  -30.2958  -11.2597   19.7662 H   0  0  0  0  0  0
  -29.7158  -11.8209   17.3906 H   0  0  0  0  0  0
  -29.6639  -13.5214   17.7868 H   0  0  0  0  0  0
  -27.8073  -11.3294   18.7793 H   0  0  0  0  0  0
  -27.3585  -12.6876   17.7827 H   0  0  0  0  0  0
  -27.7242  -14.2609   19.6095 H   0  0  0  0  0  0
  -28.6644  -11.9054   21.3128 H   0  0  0  0  0  0
  -28.4601  -13.5274   21.8856 H   0  0  0  0  0  0
  -25.2775   -9.5679   22.4742 H   0  0  0  0  0  0
  -24.0007   -7.4638   22.7476 H   0  0  0  0  0  0
  -21.0841   -8.8772   19.8958 H   0  0  0  0  0  0
  -22.3705  -10.9666   19.6154 H   0  0  0  0  0  0
  -21.2004   -7.6148   23.9715 H   0  0  0  0  0  0
  -21.1486   -6.0523   25.9078 H   0  0  0  0  0  0
  -22.0598   -2.7608   23.2846 H   0  0  0  0  0  0
  -22.4156  -11.9885   22.4757 H   0  0  0  0  0  0
  -21.1147  -13.1247   22.2606 H   0  0  0  0  0  0
  -24.6620  -15.8401   20.5059 H   0  0  0  0  0  0
  -26.2825  -15.6257   20.0747 H   0  0  0  0  0  0
  -26.7096  -32.5569   23.1185 H   0  0  0  0  0  0
  -25.0067  -33.9814   25.0496 H   0  0  0  0  0  0
  -22.6825  -31.3089   21.4144 H   0  0  0  0  0  0
  -23.3754  -35.9659   23.3315 H   0  0  0  0  0  0
  -24.3592  -36.8918   22.2053 H   0  0  0  0  0  0
  -23.7251  -37.6534   23.6639 H   0  0  0  0  0  0
  -26.0286  -31.6156   20.5885 H   0  0  0  0  0  0
  -26.8100  -30.9038   21.9734 H   0  0  0  0  0  0
  -28.0927  -29.1387   21.1641 H   0  0  0  0  0  0
  -26.0879  -25.9874   19.0140 H   0  0  0  0  0  0
  -23.9800  -27.2899   19.0398 H   0  0  0  0  0  0
  -23.7016  -30.6000   19.4026 H   0  0  0  0  0  0
  -22.7274  -29.2418   19.8752 H   0  0  0  0  0  0
  -25.1280  -36.1990   25.0843 H   0  0  0  0  0  0
  -20.9961  -28.3196   24.1464 H   0  0  0  0  0  0
  -20.5685  -26.2238   23.3606 H   0  0  0  0  0  0
  -21.6628  -26.7435   22.1203 H   0  0  0  0  0  0
  -19.6901  -25.6301   21.1231 H   0  0  0  0  0  0
  -19.6696  -27.3211   20.6777 H   0  0  0  0  0  0
  -17.4198  -26.6698   21.4022 H   0  0  0  0  0  0
  -18.0285  -26.0062   22.9017 H   0  0  0  0  0  0
  -19.7923  -30.7251   24.2283 H   0  0  0  0  0  0
  -17.5009  -31.6266   24.5153 H   0  0  0  0  0  0
  -15.5342  -30.2987   23.7646 H   0  0  0  0  0  0
  -15.8669  -28.0838   22.7034 H   0  0  0  0  0  0
  -24.5913  -30.7055   25.7809 H   0  0  0  0  0  0
  -24.8924  -32.2872   26.4922 H   0  0  0  0  0  0
  -25.8095  -30.8883   27.0235 H   0  0  0  0  0  0
  -26.2813  -29.6838   24.1138 H   0  0  0  0  0  0
  -27.4110  -29.7300   25.4489 H   0  0  0  0  0  0
  -27.8622  -30.4415   23.9163 H   0  0  0  0  0  0
  -27.2679  -33.3618   26.2058 H   0  0  0  0  0  0
  -28.3844  -32.6854   25.0287 H   0  0  0  0  0  0
  -28.0720  -31.8436   26.5384 H   0  0  0  0  0  0
  -28.2593  -38.0107   24.7511 H   0  0  0  0  0  0
  -28.1079  -36.2638   24.6284 H   0  0  0  0  0  0
  -27.2312  -37.1446   25.8872 H   0  0  0  0  0  0
  -20.9264  -29.8746   21.6987 H   0  0  0  0  0  0
  -26.0198  -38.2885   24.1404 H   0  0  0  0  0  0
  -33.6271  -17.5186   23.6163 H   0  0  0  0  0  0
  -32.7644  -19.7105   22.8667 H   0  0  0  0  0  0
  -32.4427  -15.4379   22.9898 H   0  0  0  0  0  0
  -28.2100  -17.6890   18.7422 H   0  0  0  0  0  0
  -29.6940  -16.7676   18.9616 H   0  0  0  0  0  0
  -29.7529  -18.5240   18.8634 H   0  0  0  0  0  0
  -29.9516  -20.2608   20.5402 H   0  0  0  0  0  0
  -31.4792  -20.8247   21.1075 H   0  0  0  0  0  0
  -28.4460  -18.6788   21.0282 H   0  0  0  0  0  0
  -28.3373  -16.9640   21.1037 H   0  0  0  0  0  0
  -30.3639  -20.7715   23.5089 H   0  0  0  0  0  0
  -28.8501  -20.7661   22.6545 H   0  0  0  0  0  0
  -31.0937  -22.8419   22.3042 H   0  0  0  0  0  0
  -29.7798  -23.0161   23.4287 H   0  0  0  0  0  0
  -28.1235  -23.0841   21.5984 H   0  0  0  0  0  0
  -29.3574  -22.6868   20.4346 H   0  0  0  0  0  0
  -28.8019  -24.5813   20.2738 H   0  0  0  0  0  0
  -29.3661  -24.7947   22.2058 H   0  0  0  0  0  0
  -28.8812  -26.6766   22.0485 H   0  0  0  0  0  0
  -27.5294  -25.6345   21.6492 H   0  0  0  0  0  0
  -29.3126  -15.0447   21.8843 H   0  0  0  0  0  0
  1 25  1  0  0  0
  1 30  2  0  0  0
  1 85  1  0  0  0
  2  3  1  0  0  0
  2 25  1  0  0  0
  2 86  1  0  0  0
  2 87  1  0  0  0
  3  4  1  0  0  0
  3 88  1  0  0  0
  3 89  1  0  0  0
  4  5  1  0  0  0
  4 90  1  0  0  0
  4 91  1  0  0  0
  5  6  1  0  0  0
  5 26  1  0  0  0
  5 92  1  0  0  0
  6 25  1  0  0  0
  6 93  1  0  0  0
  6 94  1  0  0  0
  7  8  2  0  0  0
  7 26  1  0  0  0
  7 29  1  0  0  0
  8  9  1  0  0  0
  8 22  1  0  0  0
  9 10  1  0  0  0
  9 27  2  0  0  0
 10 11  2  0  0  0
 10 15  1  0  0  0
 11 12  1  0  0  0
 11 95  1  0  0  0
 12 13  2  0  0  0
 12 96  1  0  0  0
 13 14  1  0  0  0
 13 31  1  0  0  0
 14 15  2  0  0  0
 14 97  1  0  0  0
 15 98  1  0  0  0
 16 17  2  0  0  0
 16 21  1  0  0  0
 16 31  1  0  0  0
 17 18  1  0  0  0
 17 99  1  0  0  0
 18 19  2  0  0  0
 18100  1  0  0  0
 19 20  1  0  0  0
 19 24  1  0  0  0
 20 21  2  0  0  0
 20101  1  0  0  0
 21 23  1  0  0  0
 22 28  1  0  0  0
 22 32  2  0  0  0
 26 27  1  0  0  0
 28102  1  0  0  0
 28103  1  0  0  0
 29104  1  0  0  0
 29105  1  0  0  0
 33 34  1  0  0  0
 33 66  1  0  0  0
 33 70  2  0  0  0
 34 36  1  0  0  0
 34 59  1  0  0  0
 34106  1  0  0  0
 35 44  2  0  0  0
 35 45  1  0  0  0
 35 68  1  0  0  0
 36 56  1  0  0  0
 36107  1  0  0  0
 37 39  1  0  0  0
 37 47  1  0  0  0
 37 66  1  0  0  0
 37108  1  0  0  0
 38 43  2  0  0  0
 38 46  1  0  0  0
 38 47  1  0  0  0
 39 64  1  0  0  0
 39 67  2  0  0  0
 40 52  1  0  0  0
 40 53  2  0  0  0
 40 58  1  0  0  0
 41109  1  0  0  0
 41110  1  0  0  0
 41111  1  0  0  0
 41 48  1  0  0  0
 42 43  1  0  0  0
 42 66  1  0  0  0
 42112  1  0  0  0
 42113  1  0  0  0
 43 44  1  0  0  0
 44114  1  0  0  0
 45 46  2  0  0  0
 45115  1  0  0  0
 46116  1  0  0  0
 47117  1  0  0  0
 47118  1  0  0  0
 48 56  1  0  0  0
 48 65  1  0  0  0
 48119  1  0  0  0
 49 50  1  0  0  0
 49 53  1  0  0  0
 49 64  1  0  0  0
 49120  1  0  0  0
 50 51  1  0  0  0
 50121  1  0  0  0
 50122  1  0  0  0
 51 52  1  0  0  0
 51123  1  0  0  0
 51124  1  0  0  0
 52125  1  0  0  0
 52126  1  0  0  0
 53 54  1  0  0  0
 54 55  2  0  0  0
 54127  1  0  0  0
 55 57  1  0  0  0
 55128  1  0  0  0
 56 69  2  0  0  0
 57 58  2  0  0  0
 57129  1  0  0  0
 58130  1  0  0  0
 59 60  1  0  0  0
 59 61  1  0  0  0
 59 62  1  0  0  0
 60131  1  0  0  0
 60132  1  0  0  0
 60133  1  0  0  0
 61134  1  0  0  0
 61135  1  0  0  0
 61136  1  0  0  0
 62137  1  0  0  0
 62138  1  0  0  0
 62139  1  0  0  0
 63 65  1  0  0  0
 63140  1  0  0  0
 63141  1  0  0  0
 63142  1  0  0  0
 64143  1  0  0  0
 65144  1  0  0  0
 68 84  1  0  0  0
 71 72  2  0  0  0
 71 73  1  0  0  0
 71145  1  0  0  0
 72 74  1  0  0  0
 72146  1  0  0  0
 73 76  2  0  0  0
 73147  1  0  0  0
 74 75  2  0  0  0
 74 78  1  0  0  0
 75 76  1  0  0  0
 75 79  1  0  0  0
 76 85  1  0  0  0
 77 79  1  0  0  0
 77148  1  0  0  0
 77149  1  0  0  0
 77150  1  0  0  0
 78 80  1  0  0  0
 78151  1  0  0  0
 78152  1  0  0  0
 79153  1  0  0  0
 79154  1  0  0  0
 80 81  1  0  0  0
 80155  1  0  0  0
 80156  1  0  0  0
 81 82  1  0  0  0
 81157  1  0  0  0
 81158  1  0  0  0
 82 83  1  0  0  0
 82159  1  0  0  0
 82160  1  0  0  0
 83 84  1  0  0  0
 83161  1  0  0  0
 83162  1  0  0  0
 84163  1  0  0  0
 84164  1  0  0  0
 85165  1  0  0  0
M  ISO  4   1 100  68 101  84 101  85 100
M  END
> <chiral flag>
0

> <version>
0

> <s_m_source_file>
/data/baiqing/PycharmProjects/Reinvent-master-3.2/result/LINK_invent/BTK/process_docking_weight1_custom_product_contain_oxygen_bond_distance_aromatic_linkinvent_7_9_3/rearranged_h_0134.sdf

> <i_m_source_file_index>
24

> <r_mmod_Potential_Energy-OPLS-2005>
227.022354125977

> <r_mmod_Stretch_Energy-OPLS-2005>
34.4923934936523

> <r_mmod_Bend_Energy-OPLS-2005>
311.242523193359

> <r_mmod_Torsional_Energy-OPLS-2005>
269.330871582031

> <r_mmod_Improper_Torsional_Energy-OPLS-2005>
1.85340046882629

> <r_mmod_Van_der_Waal_Energy-OPLS-2005>
167.764175415039

> <r_mmod_Electrostatic_Energy-OPLS-2005>
-367.519958496094

> <r_mmod_Solvation_Energy-OPLS-2005>
-197.414535522461

> <b_mmod_Minimization_Converged-OPLS-2005>
0

> <r_mmod_RMS_Derivative-OPLS-2005>
1.36045348644257

$$$$
24
                    3D
 Structure written by MMmdl.
162170  0  0  1  0            999 V2000
  -30.6201  -14.7065   20.4916 C   0  0  0  0  0  0
  -30.4482  -12.4368   19.4644 C   0  0  0  0  0  0
  -29.5107  -12.4808   18.2366 C   0  0  0  0  0  0
  -28.0424  -12.2977   18.6623 C   0  0  0  0  0  0
  -27.6476  -13.2131   19.8486 C   0  0  2  0  0  0
  -28.6932  -13.1430   20.9837 C   0  0  0  0  0  0
  -25.2568  -13.8144   20.5690 C   0  0  0  0  0  0
  -24.1814  -13.0444   20.9167 C   0  0  0  0  0  0
  -24.6344  -11.6911   20.8712 C   0  0  0  0  0  0
  -23.9013  -10.4300   21.0415 C   0  0  0  0  0  0
  -24.3575   -9.4231   21.9192 C   0  0  0  0  0  0
  -23.6253   -8.2274   22.0763 C   0  0  0  0  0  0
  -22.4229   -8.0289   21.3561 C   0  0  0  0  0  0
  -21.9850   -9.0263   20.4670 C   0  0  0  0  0  0
  -22.7181  -10.2140   20.3077 C   0  0  0  0  0  0
  -21.6864   -6.0724   22.5282 C   0  0  0  0  0  0
  -21.4042   -6.5628   23.8212 C   0  0  0  0  0  0
  -21.3637   -5.6785   24.9166 C   0  0  0  0  0  0
  -21.6035   -4.3049   24.7224 C   0  0  0  0  0  0
  -21.8820   -3.8134   23.4348 C   0  0  0  0  0  0
  -21.9194   -4.6962   22.3407 C   0  0  0  0  0  0
  -22.7843  -13.5291   21.1799 C   0  0  0  0  0  0
  -22.1681   -4.2159   21.0984 F   0  0  0  0  0  0
  -21.5600   -3.4521   25.7728 F   0  0  0  0  0  0
  -29.9954  -13.4872   20.3960 N   0  0  0  0  0  0
  -26.2954  -12.9319   20.3237 N   0  0  0  0  0  0
  -25.9257  -11.6490   20.5700 N   0  0  0  0  0  0
  -22.0424  -12.8361   22.0360 N   0  0  0  0  0  0
  -25.4282  -15.1859   20.4213 N   0  0  0  0  0  0
  -31.8163  -14.8299   20.2181 O   0  0  0  0  0  0
  -21.6639   -6.8855   21.4237 O   0  0  0  0  0  0
  -22.3581  -14.5594   20.6613 O   0  0  0  0  0  0
  -24.6268  -31.8558   23.2007 C   0  0  0  0  0  0
  -25.9064  -32.4786   23.8377 C   0  0  1  0  0  0
  -27.2292  -27.2897   20.1270 C   0  0  0  0  0  0
  -25.5830  -33.8595   24.2254 N   0  0  0  0  0  0
  -23.4269  -30.4777   21.5433 C   0  0  2  0  0  0
  -24.8778  -28.9286   20.1187 C   0  0  0  0  0  0
  -22.7500  -29.4573   22.4922 C   0  0  0  0  0  0
  -18.0265  -28.1416   22.8470 C   0  0  0  0  0  0
  -24.1467  -36.7313   23.2635 C   0  0  0  0  0  0
  -25.9717  -30.7826   21.3783 C   0  0  0  0  0  0
  -26.0490  -29.4071   20.7191 C   0  0  0  0  0  0
  -27.2307  -28.6012   20.7056 C   0  0  0  0  0  0
  -26.0341  -26.8741   19.4977 C   0  0  0  0  0  0
  -24.8737  -27.6720   19.4973 C   0  0  0  0  0  0
  -23.6484  -29.8134   20.1602 C   0  0  0  0  0  0
  -25.4083  -36.3093   24.0324 C   0  0  1  0  0  0
  -20.5873  -28.3694   23.1275 C   0  0  2  0  0  0
  -20.6750  -26.9411   22.5409 C   0  0  0  0  0  0
  -19.5737  -26.6389   21.5205 C   0  0  0  0  0  0
  -18.1913  -26.7947   22.1625 C   0  0  0  0  0  0
  -19.1524  -28.8872   23.2870 C   0  0  0  0  0  0
  -18.9461  -30.1465   23.8907 C   0  0  0  0  0  0
  -17.6474  -30.6622   24.0553 C   0  0  0  0  0  0
  -25.9022  -34.9464   23.5109 C   0  0  0  0  0  0
  -16.5357  -29.9130   23.6331 C   0  0  0  0  0  0
  -16.7253  -28.6542   23.0354 C   0  0  0  0  0  0
  -26.4406  -31.6650   25.0803 C   0  0  0  0  0  0
  -25.3590  -31.3909   26.1522 C   0  0  0  0  0  0
  -27.0201  -30.3021   24.6366 C   0  0  0  0  0  0
  -27.5968  -32.4396   25.7559 C   0  0  0  0  0  0
  -27.5573  -37.1792   24.8433 C   0  0  0  0  0  0
  -21.4197  -29.3046   22.3676 N   0  0  0  0  0  0
  -26.4251  -37.3789   23.9433 N   0  0  0  0  0  0
  -24.6934  -31.0551   22.0977 N   0  0  0  0  0  0
  -23.4201  -28.8088   23.2988 O   0  0  0  0  0  0
  -28.3394  -26.4222   20.1389 O   0  0  0  0  0  0
  -26.5650  -34.8928   22.4716 O   0  0  0  0  0  0
  -23.5407  -32.1352   23.7313 O   0  0  0  0  0  0
  -30.1788  -19.7714   22.3385 C   0  0  0  0  0  0
  -30.3793  -18.5974   23.0973 C   0  0  0  0  0  0
  -29.8077  -18.3833   20.3812 C   0  0  0  0  0  0
  -29.8736  -19.7128   20.9633 C   0  0  0  0  0  0
  -30.2907  -17.3121   22.5236 C   0  0  0  0  0  0
  -30.0249  -17.1612   21.1386 C   0  0  0  0  0  0
  -30.4374  -16.1041   23.4458 C   0  0  0  0  0  0
  -29.0364  -23.7316   18.5090 C   0  0  0  0  0  0
  -30.5777  -24.3013   20.3999 C   0  0  0  0  0  0
  -29.7769  -21.0742   20.1470 C   0  0  0  0  0  0
  -28.9054  -22.3434   20.6526 C   0  0  0  0  0  0
  -28.1406  -24.9915   20.5404 C   0  0  0  0  0  0
  -29.1530  -23.8324   20.0417 C   0  0  0  0  0  0
  -29.7948  -15.8084   20.6092 N   0  0  0  0  0  0
  -31.4869  -12.5797   19.1580 H   0  0  0  0  0  0
  -30.4124  -11.4635   19.9548 H   0  0  0  0  0  0
  -29.7933  -11.7042   17.5235 H   0  0  0  0  0  0
  -29.6272  -13.4304   17.7118 H   0  0  0  0  0  0
  -27.9105  -11.2518   18.9470 H   0  0  0  0  0  0
  -27.3797  -12.4704   17.8148 H   0  0  0  0  0  0
  -27.6423  -14.2279   19.4523 H   0  0  0  0  0  0
  -28.7209  -12.1492   21.4330 H   0  0  0  0  0  0
  -28.4297  -13.8284   21.7912 H   0  0  0  0  0  0
  -25.2717   -9.5742   22.4758 H   0  0  0  0  0  0
  -23.9974   -7.4680   22.7492 H   0  0  0  0  0  0
  -21.0774   -8.8773   19.8969 H   0  0  0  0  0  0
  -22.3622  -10.9678   19.6193 H   0  0  0  0  0  0
  -21.2063   -7.6151   23.9727 H   0  0  0  0  0  0
  -21.1439   -6.0508   25.9070 H   0  0  0  0  0  0
  -22.0601   -2.7608   23.2850 H   0  0  0  0  0  0
  -22.4020  -12.0089   22.4886 H   0  0  0  0  0  0
  -21.1054  -13.1476   22.2502 H   0  0  0  0  0  0
  -24.6570  -15.8303   20.5488 H   0  0  0  0  0  0
  -26.2740  -15.6366   20.0947 H   0  0  0  0  0  0
  -26.7166  -32.5449   23.1161 H   0  0  0  0  0  0
  -24.9796  -33.9757   25.0268 H   0  0  0  0  0  0
  -22.7209  -31.2976   21.3974 H   0  0  0  0  0  0
  -23.3728  -35.9640   23.3252 H   0  0  0  0  0  0
  -24.3547  -36.8997   22.2054 H   0  0  0  0  0  0
  -23.7239  -37.6505   23.6695 H   0  0  0  0  0  0
  -26.1068  -31.5484   20.6130 H   0  0  0  0  0  0
  -26.8473  -30.8310   22.0149 H   0  0  0  0  0  0
  -28.1378  -28.9661   21.1698 H   0  0  0  0  0  0
  -25.9824  -25.9188   18.9984 H   0  0  0  0  0  0
  -23.9749  -27.3072   19.0201 H   0  0  0  0  0  0
  -23.7795  -30.5905   19.4057 H   0  0  0  0  0  0
  -22.7697  -29.2462   19.8489 H   0  0  0  0  0  0
  -25.1261  -36.1911   25.0810 H   0  0  0  0  0  0
  -20.9948  -28.3269   24.1397 H   0  0  0  0  0  0
  -20.5605  -26.2308   23.3610 H   0  0  0  0  0  0
  -21.6623  -26.7408   22.1235 H   0  0  0  0  0  0
  -19.6873  -25.6280   21.1276 H   0  0  0  0  0  0
  -19.6692  -27.3162   20.6706 H   0  0  0  0  0  0
  -17.4155  -26.6645   21.4056 H   0  0  0  0  0  0
  -18.0337  -26.0120   22.9060 H   0  0  0  0  0  0
  -19.7931  -30.7254   24.2318 H   0  0  0  0  0  0
  -17.5031  -31.6303   24.5150 H   0  0  0  0  0  0
  -15.5359  -30.3057   23.7655 H   0  0  0  0  0  0
  -15.8637  -28.0873   22.7108 H   0  0  0  0  0  0
  -24.5715  -30.7301   25.7876 H   0  0  0  0  0  0
  -24.8825  -32.3134   26.4852 H   0  0  0  0  0  0
  -25.7829  -30.9148   27.0370 H   0  0  0  0  0  0
  -26.2820  -29.6879   24.1194 H   0  0  0  0  0  0
  -27.3559  -29.7220   25.4971 H   0  0  0  0  0  0
  -27.8835  -30.4217   23.9822 H   0  0  0  0  0  0
  -27.2547  -33.3666   26.2178 H   0  0  0  0  0  0
  -28.3729  -32.7034   25.0361 H   0  0  0  0  0  0
  -28.0683  -31.8518   26.5447 H   0  0  0  0  0  0
  -28.2544  -38.0138   24.7526 H   0  0  0  0  0  0
  -28.1124  -36.2672   24.6157 H   0  0  0  0  0  0
  -27.2321  -37.1331   25.8846 H   0  0  0  0  0  0
  -20.9365  -29.8836   21.6954 H   0  0  0  0  0  0
  -26.0121  -38.2839   24.1517 H   0  0  0  0  0  0
  -30.2826  -20.7281   22.8304 H   0  0  0  0  0  0
  -30.5902  -18.6950   24.1530 H   0  0  0  0  0  0
  -29.5882  -18.2982   19.3283 H   0  0  0  0  0  0
  -30.5048  -16.4009   24.4940 H   0  0  0  0  0  0
  -31.3406  -15.5392   23.2135 H   0  0  0  0  0  0
  -29.5807  -15.4343   23.3558 H   0  0  0  0  0  0
  -29.8634  -23.1594   18.0861 H   0  0  0  0  0  0
  -29.0480  -24.7176   18.0405 H   0  0  0  0  0  0
  -28.1107  -23.2369   18.2122 H   0  0  0  0  0  0
  -31.3404  -23.6153   20.0359 H   0  0  0  0  0  0
  -30.7105  -24.4028   21.4780 H   0  0  0  0  0  0
  -30.7951  -25.2748   19.9547 H   0  0  0  0  0  0
  -29.4778  -20.8338   19.1265 H   0  0  0  0  0  0
  -30.8115  -21.4077   20.0656 H   0  0  0  0  0  0
  -29.0005  -22.4158   21.7340 H   0  0  0  0  0  0
  -27.8591  -22.0857   20.4908 H   0  0  0  0  0  0
  -28.1628  -25.0012   21.6316 H   0  0  0  0  0  0
  -27.1321  -24.6590   20.3015 H   0  0  0  0  0  0
  -28.8197  -15.5602   20.5548 H   0  0  0  0  0  0
  1 25  1  0  0  0
  1 30  2  0  0  0
  1 84  1  0  0  0
  2  3  1  0  0  0
  2 25  1  0  0  0
  2 85  1  0  0  0
  2 86  1  0  0  0
  3  4  1  0  0  0
  3 87  1  0  0  0
  3 88  1  0  0  0
  4  5  1  0  0  0
  4 89  1  0  0  0
  4 90  1  0  0  0
  5  6  1  0  0  0
  5 26  1  0  0  0
  5 91  1  0  0  0
  6 25  1  0  0  0
  6 92  1  0  0  0
  6 93  1  0  0  0
  7  8  2  0  0  0
  7 26  1  0  0  0
  7 29  1  0  0  0
  8  9  1  0  0  0
  8 22  1  0  0  0
  9 10  1  0  0  0
  9 27  2  0  0  0
 10 11  2  0  0  0
 10 15  1  0  0  0
 11 12  1  0  0  0
 11 94  1  0  0  0
 12 13  2  0  0  0
 12 95  1  0  0  0
 13 14  1  0  0  0
 13 31  1  0  0  0
 14 15  2  0  0  0
 14 96  1  0  0  0
 15 97  1  0  0  0
 16 17  2  0  0  0
 16 21  1  0  0  0
 16 31  1  0  0  0
 17 18  1  0  0  0
 17 98  1  0  0  0
 18 19  2  0  0  0
 18 99  1  0  0  0
 19 20  1  0  0  0
 19 24  1  0  0  0
 20 21  2  0  0  0
 20100  1  0  0  0
 21 23  1  0  0  0
 22 28  1  0  0  0
 22 32  2  0  0  0
 26 27  1  0  0  0
 28101  1  0  0  0
 28102  1  0  0  0
 29103  1  0  0  0
 29104  1  0  0  0
 33 34  1  0  0  0
 33 66  1  0  0  0
 33 70  2  0  0  0
 34 36  1  0  0  0
 34 59  1  0  0  0
 34105  1  0  0  0
 35 44  2  0  0  0
 35 45  1  0  0  0
 35 68  1  0  0  0
 36 56  1  0  0  0
 36106  1  0  0  0
 37 39  1  0  0  0
 37 47  1  0  0  0
 37 66  1  0  0  0
 37107  1  0  0  0
 38 43  2  0  0  0
 38 46  1  0  0  0
 38 47  1  0  0  0
 39 64  1  0  0  0
 39 67  2  0  0  0
 40 52  1  0  0  0
 40 53  2  0  0  0
 40 58  1  0  0  0
 41108  1  0  0  0
 41109  1  0  0  0
 41110  1  0  0  0
 41 48  1  0  0  0
 42 43  1  0  0  0
 42 66  1  0  0  0
 42111  1  0  0  0
 42112  1  0  0  0
 43 44  1  0  0  0
 44113  1  0  0  0
 45 46  2  0  0  0
 45114  1  0  0  0
 46115  1  0  0  0
 47116  1  0  0  0
 47117  1  0  0  0
 48 56  1  0  0  0
 48 65  1  0  0  0
 48118  1  0  0  0
 49 50  1  0  0  0
 49 53  1  0  0  0
 49 64  1  0  0  0
 49119  1  0  0  0
 50 51  1  0  0  0
 50120  1  0  0  0
 50121  1  0  0  0
 51 52  1  0  0  0
 51122  1  0  0  0
 51123  1  0  0  0
 52124  1  0  0  0
 52125  1  0  0  0
 53 54  1  0  0  0
 54 55  2  0  0  0
 54126  1  0  0  0
 55 57  1  0  0  0
 55127  1  0  0  0
 56 69  2  0  0  0
 57 58  2  0  0  0
 57128  1  0  0  0
 58129  1  0  0  0
 59 60  1  0  0  0
 59 61  1  0  0  0
 59 62  1  0  0  0
 60130  1  0  0  0
 60131  1  0  0  0
 60132  1  0  0  0
 61133  1  0  0  0
 61134  1  0  0  0
 61135  1  0  0  0
 62136  1  0  0  0
 62137  1  0  0  0
 62138  1  0  0  0
 63 65  1  0  0  0
 63139  1  0  0  0
 63140  1  0  0  0
 63141  1  0  0  0
 64142  1  0  0  0
 65143  1  0  0  0
 68 82  1  0  0  0
 71 72  2  0  0  0
 71 74  1  0  0  0
 71144  1  0  0  0
 72 75  1  0  0  0
 72145  1  0  0  0
 73 74  2  0  0  0
 73 76  1  0  0  0
 73146  1  0  0  0
 74 80  1  0  0  0
 75 76  2  0  0  0
 75 77  1  0  0  0
 76 84  1  0  0  0
 77147  1  0  0  0
 77148  1  0  0  0
 77149  1  0  0  0
 78150  1  0  0  0
 78151  1  0  0  0
 78152  1  0  0  0
 78 83  1  0  0  0
 79 83  1  0  0  0
 79153  1  0  0  0
 79154  1  0  0  0
 79155  1  0  0  0
 80 81  1  0  0  0
 80156  1  0  0  0
 80157  1  0  0  0
 81 83  1  0  0  0
 81158  1  0  0  0
 81159  1  0  0  0
 82 83  1  0  0  0
 82160  1  0  0  0
 82161  1  0  0  0
 84162  1  0  0  0
M  ISO  4   1 100  68 101  82 101  84 100
M  END
> <chiral flag>
0

> <version>
0

> <s_m_source_file>
/data/baiqing/PycharmProjects/Reinvent-master-3.2/result/LINK_invent/BTK/process_docking_weight1_custom_product_contain_oxygen_bond_distance_aromatic_linkinvent_7_9_3/rearranged_h_0134.sdf

> <i_m_source_file_index>
25

> <r_mmod_Potential_Energy-OPLS-2005>
164.450424194336

> <r_mmod_Stretch_Energy-OPLS-2005>
112.34693145752

> <r_mmod_Bend_Energy-OPLS-2005>
152.161178588867

> <r_mmod_Torsional_Energy-OPLS-2005>
267.224243164062

> <r_mmod_Improper_Torsional_Energy-OPLS-2005>
9.07799816131592

> <r_mmod_Van_der_Waal_Energy-OPLS-2005>
134.015930175781

> <r_mmod_Electrostatic_Energy-OPLS-2005>
-386.710815429688

> <r_mmod_Solvation_Energy-OPLS-2005>
-195.256378173828

> <b_mmod_Minimization_Converged-OPLS-2005>
0

> <r_mmod_RMS_Derivative-OPLS-2005>
4.81595277786255

$$$$
25
                    3D
 Structure written by MMmdl.
161169  0  0  1  0            999 V2000
  -30.6991  -14.4192   20.6417 C   0  0  0  0  0  0
  -30.4353  -12.3023   19.3963 C   0  0  0  0  0  0
  -29.4933  -12.5295   18.1950 C   0  0  0  0  0  0
  -28.0140  -12.3890   18.6056 C   0  0  0  0  0  0
  -27.6708  -13.1999   19.8835 C   0  0  2  0  0  0
  -28.7087  -12.9135   20.9908 C   0  0  0  0  0  0
  -25.2627  -13.8151   20.5673 C   0  0  0  0  0  0
  -24.1857  -13.0439   20.9152 C   0  0  0  0  0  0
  -24.6404  -11.6902   20.8720 C   0  0  0  0  0  0
  -23.9065  -10.4288   21.0393 C   0  0  0  0  0  0
  -24.3620   -9.4206   21.9173 C   0  0  0  0  0  0
  -23.6288   -8.2241   22.0750 C   0  0  0  0  0  0
  -22.4265   -8.0284   21.3546 C   0  0  0  0  0  0
  -21.9904   -9.0253   20.4642 C   0  0  0  0  0  0
  -22.7236  -10.2128   20.3044 C   0  0  0  0  0  0
  -21.6849   -6.0739   22.5277 C   0  0  0  0  0  0
  -21.4010   -6.5638   23.8211 C   0  0  0  0  0  0
  -21.3658   -5.6788   24.9166 C   0  0  0  0  0  0
  -21.6043   -4.3053   24.7219 C   0  0  0  0  0  0
  -21.8822   -3.8143   23.4340 C   0  0  0  0  0  0
  -21.9193   -4.6961   22.3399 C   0  0  0  0  0  0
  -22.7876  -13.5251   21.1822 C   0  0  0  0  0  0
  -22.1659   -4.2155   21.0978 F   0  0  0  0  0  0
  -21.5626   -3.4541   25.7734 F   0  0  0  0  0  0
  -30.0505  -13.2367   20.4639 N   0  0  0  0  0  0
  -26.3070  -12.9310   20.3390 N   0  0  0  0  0  0
  -25.9331  -11.6480   20.5754 N   0  0  0  0  0  0
  -22.0512  -12.8245   22.0381 N   0  0  0  0  0  0
  -25.4374  -15.1866   20.4094 N   0  0  0  0  0  0
  -31.7484  -14.7133   20.0576 O   0  0  0  0  0  0
  -21.6635   -6.8876   21.4239 O   0  0  0  0  0  0
  -22.3557  -14.5553   20.6670 O   0  0  0  0  0  0
  -24.6169  -31.8658   23.2108 C   0  0  0  0  0  0
  -25.9073  -32.4807   23.8391 C   0  0  1  0  0  0
  -27.2462  -27.4375   20.0862 C   0  0  0  0  0  0
  -25.5945  -33.8606   24.2339 N   0  0  0  0  0  0
  -23.4031  -30.4898   21.5489 C   0  0  2  0  0  0
  -24.8493  -28.9501   20.1161 C   0  0  0  0  0  0
  -22.7404  -29.4647   22.4974 C   0  0  0  0  0  0
  -18.0268  -28.1375   22.8478 C   0  0  0  0  0  0
  -24.1489  -36.7295   23.2636 C   0  0  0  0  0  0
  -25.9300  -30.8298   21.3629 C   0  0  0  0  0  0
  -26.0060  -29.4620   20.7143 C   0  0  0  0  0  0
  -27.2005  -28.7082   20.7044 C   0  0  0  0  0  0
  -26.0641  -26.9297   19.4972 C   0  0  0  0  0  0
  -24.8714  -27.6809   19.5110 C   0  0  0  0  0  0
  -23.6139  -29.8224   20.1631 C   0  0  0  0  0  0
  -25.4108  -36.3089   24.0338 C   0  0  1  0  0  0
  -20.5859  -28.3658   23.1309 C   0  0  2  0  0  0
  -20.6760  -26.9386   22.5421 C   0  0  0  0  0  0
  -19.5750  -26.6376   21.5207 C   0  0  0  0  0  0
  -18.1921  -26.7924   22.1598 C   0  0  0  0  0  0
  -19.1519  -28.8831   23.2894 C   0  0  0  0  0  0
  -18.9462  -30.1449   23.8896 C   0  0  0  0  0  0
  -17.6462  -30.6577   24.0577 C   0  0  0  0  0  0
  -25.9037  -34.9459   23.5124 C   0  0  0  0  0  0
  -16.5355  -29.9083   23.6331 C   0  0  0  0  0  0
  -16.7257  -28.6511   23.0322 C   0  0  0  0  0  0
  -26.4498  -31.6585   25.0710 C   0  0  0  0  0  0
  -25.3786  -31.3699   26.1476 C   0  0  0  0  0  0
  -27.0324  -30.3031   24.6075 C   0  0  0  0  0  0
  -27.6084  -32.4289   25.7472 C   0  0  0  0  0  0
  -27.5575  -37.1805   24.8464 C   0  0  0  0  0  0
  -21.4128  -29.3041   22.3725 N   0  0  0  0  0  0
  -26.4281  -37.3785   23.9415 N   0  0  0  0  0  0
  -24.6679  -31.0767   22.0997 N   0  0  0  0  0  0
  -23.4169  -28.8181   23.3013 O   0  0  0  0  0  0
  -28.4493  -26.7576   20.1027 O   0  0  0  0  0  0
  -26.5563  -34.8915   22.4663 O   0  0  0  0  0  0
  -23.5364  -32.1390   23.7525 O   0  0  0  0  0  0
  -30.5778  -17.5507   20.7184 C   0  0  0  0  0  0
  -30.2357  -18.9015   21.0687 C   0  0  0  0  0  0
  -29.4420  -18.9517   22.1909 C   0  0  0  0  0  0
  -30.0438  -16.5929   21.5540 C   0  0  0  0  0  0
  -28.5324  -24.2864   20.0910 C   0  0  0  0  0  0
  -28.8842  -20.1410   22.9056 C   0  0  0  0  0  0
  -27.5971  -21.7342   18.5376 C   0  0  0  0  0  0
  -30.7220  -20.1122   20.3019 C   0  0  0  0  0  0
  -29.4358  -23.1082   19.6688 C   0  0  0  0  0  0
  -28.6563  -25.5952   19.2845 C   0  0  0  0  0  0
  -29.7600  -20.5945   19.1892 C   0  0  0  0  0  0
  -28.7483  -21.7145   19.5648 C   0  0  2  0  0  0
  -30.1085  -15.2344   21.5301 N   0  0  0  0  0  0
  -27.7517  -24.1801   21.0414 O   0  0  0  0  0  0
  -29.0907  -17.3571   22.7943 S   0  0  0  0  0  0
  -31.4758  -12.4315   19.0908 H   0  0  0  0  0  0
  -30.3609  -11.2739   19.7538 H   0  0  0  0  0  0
  -29.7253  -11.8250   17.3957 H   0  0  0  0  0  0
  -29.6619  -13.5259   17.7829 H   0  0  0  0  0  0
  -27.8116  -11.3304   18.7712 H   0  0  0  0  0  0
  -27.3673  -12.6942   17.7828 H   0  0  0  0  0  0
  -27.7341  -14.2584   19.6297 H   0  0  0  0  0  0
  -28.6751  -11.8585   21.2666 H   0  0  0  0  0  0
  -28.4503  -13.4459   21.9055 H   0  0  0  0  0  0
  -25.2766   -9.5677   22.4750 H   0  0  0  0  0  0
  -23.9995   -7.4637   22.7464 H   0  0  0  0  0  0
  -21.0838   -8.8768   19.8951 H   0  0  0  0  0  0
  -22.3694  -10.9667   19.6155 H   0  0  0  0  0  0
  -21.1998   -7.6145   23.9718 H   0  0  0  0  0  0
  -21.1475   -6.0514   25.9071 H   0  0  0  0  0  0
  -22.0605   -2.7607   23.2836 H   0  0  0  0  0  0
  -22.4121  -11.9912   22.4783 H   0  0  0  0  0  0
  -21.1120  -13.1274   22.2577 H   0  0  0  0  0  0
  -24.6795  -15.8496   20.5249 H   0  0  0  0  0  0
  -26.3031  -15.6238   20.1176 H   0  0  0  0  0  0
  -26.7151  -32.5507   23.1156 H   0  0  0  0  0  0
  -25.0212  -33.9784   25.0564 H   0  0  0  0  0  0
  -22.6936  -31.3077   21.4083 H   0  0  0  0  0  0
  -23.3749  -35.9631   23.3285 H   0  0  0  0  0  0
  -24.3575  -36.8914   22.2050 H   0  0  0  0  0  0
  -23.7248  -37.6502   23.6646 H   0  0  0  0  0  0
  -26.0413  -31.5920   20.5904 H   0  0  0  0  0  0
  -26.8195  -30.8867   21.9786 H   0  0  0  0  0  0
  -28.0943  -29.1025   21.1686 H   0  0  0  0  0  0
  -26.0364  -25.9544   19.0346 H   0  0  0  0  0  0
  -23.9781  -27.2748   19.0561 H   0  0  0  0  0  0
  -23.7356  -30.6005   19.4086 H   0  0  0  0  0  0
  -22.7356  -29.2516   19.8563 H   0  0  0  0  0  0
  -25.1295  -36.1941   25.0837 H   0  0  0  0  0  0
  -20.9951  -28.3223   24.1426 H   0  0  0  0  0  0
  -20.5638  -26.2270   23.3611 H   0  0  0  0  0  0
  -21.6634  -26.7405   22.1233 H   0  0  0  0  0  0
  -19.6916  -25.6284   21.1235 H   0  0  0  0  0  0
  -19.6728  -27.3194   20.6744 H   0  0  0  0  0  0
  -17.4207  -26.6692   21.3980 H   0  0  0  0  0  0
  -18.0305  -26.0048   22.8972 H   0  0  0  0  0  0
  -19.7948  -30.7277   24.2237 H   0  0  0  0  0  0
  -17.5021  -31.6252   24.5192 H   0  0  0  0  0  0
  -15.5358  -30.3002   23.7651 H   0  0  0  0  0  0
  -15.8647  -28.0862   22.6987 H   0  0  0  0  0  0
  -24.6039  -30.6914   25.7876 H   0  0  0  0  0  0
  -24.8885  -32.2850   26.4823 H   0  0  0  0  0  0
  -25.8193  -30.9011   27.0289 H   0  0  0  0  0  0
  -26.2857  -29.6776   24.1161 H   0  0  0  0  0  0
  -27.4147  -29.7279   25.4523 H   0  0  0  0  0  0
  -27.8670  -30.4351   23.9180 H   0  0  0  0  0  0
  -27.2721  -33.3602   26.2045 H   0  0  0  0  0  0
  -28.3908  -32.6815   25.0297 H   0  0  0  0  0  0
  -28.0721  -31.8396   26.5395 H   0  0  0  0  0  0
  -28.2606  -38.0093   24.7497 H   0  0  0  0  0  0
  -28.1065  -36.2629   24.6293 H   0  0  0  0  0  0
  -27.2296  -37.1450   25.8871 H   0  0  0  0  0  0
  -20.9272  -29.8805   21.6995 H   0  0  0  0  0  0
  -26.0159  -38.2856   24.1435 H   0  0  0  0  0  0
  -31.1992  -17.3356   19.8605 H   0  0  0  0  0  0
  -29.3824  -21.0668   22.6198 H   0  0  0  0  0  0
  -28.9975  -20.0295   23.9843 H   0  0  0  0  0  0
  -27.8197  -20.2523   22.6979 H   0  0  0  0  0  0
  -26.8003  -22.4196   18.8313 H   0  0  0  0  0  0
  -27.1387  -20.7503   18.4330 H   0  0  0  0  0  0
  -27.9504  -22.0387   17.5515 H   0  0  0  0  0  0
  -31.6729  -19.8579   19.8310 H   0  0  0  0  0  0
  -30.9703  -20.9313   20.9751 H   0  0  0  0  0  0
  -30.2498  -23.0617   20.3915 H   0  0  0  0  0  0
  -29.8995  -23.3565   18.7139 H   0  0  0  0  0  0
  -28.0023  -25.5718   18.4138 H   0  0  0  0  0  0
  -29.6721  -25.6532   18.8939 H   0  0  0  0  0  0
  -29.2433  -19.7237   18.7822 H   0  0  0  0  0  0
  -30.3641  -20.9714   18.3619 H   0  0  0  0  0  0
  -28.3067  -21.4642   20.5278 H   0  0  0  0  0  0
  -29.4179  -14.7721   22.1017 H   0  0  0  0  0  0
  1 25  1  0  0  0
  1 30  2  0  0  0
  1 83  1  0  0  0
  2  3  1  0  0  0
  2 25  1  0  0  0
  2 86  1  0  0  0
  2 87  1  0  0  0
  3  4  1  0  0  0
  3 88  1  0  0  0
  3 89  1  0  0  0
  4  5  1  0  0  0
  4 90  1  0  0  0
  4 91  1  0  0  0
  5  6  1  0  0  0
  5 26  1  0  0  0
  5 92  1  0  0  0
  6 25  1  0  0  0
  6 93  1  0  0  0
  6 94  1  0  0  0
  7  8  2  0  0  0
  7 26  1  0  0  0
  7 29  1  0  0  0
  8  9  1  0  0  0
  8 22  1  0  0  0
  9 10  1  0  0  0
  9 27  2  0  0  0
 10 11  2  0  0  0
 10 15  1  0  0  0
 11 12  1  0  0  0
 11 95  1  0  0  0
 12 13  2  0  0  0
 12 96  1  0  0  0
 13 14  1  0  0  0
 13 31  1  0  0  0
 14 15  2  0  0  0
 14 97  1  0  0  0
 15 98  1  0  0  0
 16 17  2  0  0  0
 16 21  1  0  0  0
 16 31  1  0  0  0
 17 18  1  0  0  0
 17 99  1  0  0  0
 18 19  2  0  0  0
 18100  1  0  0  0
 19 20  1  0  0  0
 19 24  1  0  0  0
 20 21  2  0  0  0
 20101  1  0  0  0
 21 23  1  0  0  0
 22 28  1  0  0  0
 22 32  2  0  0  0
 26 27  1  0  0  0
 28102  1  0  0  0
 28103  1  0  0  0
 29104  1  0  0  0
 29105  1  0  0  0
 33 34  1  0  0  0
 33 66  1  0  0  0
 33 70  2  0  0  0
 34 36  1  0  0  0
 34 59  1  0  0  0
 34106  1  0  0  0
 35 44  2  0  0  0
 35 45  1  0  0  0
 35 68  1  0  0  0
 36 56  1  0  0  0
 36107  1  0  0  0
 37 39  1  0  0  0
 37 47  1  0  0  0
 37 66  1  0  0  0
 37108  1  0  0  0
 38 43  2  0  0  0
 38 46  1  0  0  0
 38 47  1  0  0  0
 39 64  1  0  0  0
 39 67  2  0  0  0
 40 52  1  0  0  0
 40 53  2  0  0  0
 40 58  1  0  0  0
 41109  1  0  0  0
 41110  1  0  0  0
 41111  1  0  0  0
 41 48  1  0  0  0
 42 43  1  0  0  0
 42 66  1  0  0  0
 42112  1  0  0  0
 42113  1  0  0  0
 43 44  1  0  0  0
 44114  1  0  0  0
 45 46  2  0  0  0
 45115  1  0  0  0
 46116  1  0  0  0
 47117  1  0  0  0
 47118  1  0  0  0
 48 56  1  0  0  0
 48 65  1  0  0  0
 48119  1  0  0  0
 49 50  1  0  0  0
 49 53  1  0  0  0
 49 64  1  0  0  0
 49120  1  0  0  0
 50 51  1  0  0  0
 50121  1  0  0  0
 50122  1  0  0  0
 51 52  1  0  0  0
 51123  1  0  0  0
 51124  1  0  0  0
 52125  1  0  0  0
 52126  1  0  0  0
 53 54  1  0  0  0
 54 55  2  0  0  0
 54127  1  0  0  0
 55 57  1  0  0  0
 55128  1  0  0  0
 56 69  2  0  0  0
 57 58  2  0  0  0
 57129  1  0  0  0
 58130  1  0  0  0
 59 60  1  0  0  0
 59 61  1  0  0  0
 59 62  1  0  0  0
 60131  1  0  0  0
 60132  1  0  0  0
 60133  1  0  0  0
 61134  1  0  0  0
 61135  1  0  0  0
 61136  1  0  0  0
 62137  1  0  0  0
 62138  1  0  0  0
 62139  1  0  0  0
 63 65  1  0  0  0
 63140  1  0  0  0
 63141  1  0  0  0
 63142  1  0  0  0
 64143  1  0  0  0
 65144  1  0  0  0
 68 80  1  0  0  0
 71 72  1  0  0  0
 71 74  2  0  0  0
 71145  1  0  0  0
 72 73  2  0  0  0
 72 78  1  0  0  0
 73 76  1  0  0  0
 73 85  1  0  0  0
 74 83  1  0  0  0
 74 85  1  0  0  0
 75 79  1  0  0  0
 75 80  1  0  0  0
 75 84  2  0  0  0
 76146  1  0  0  0
 76147  1  0  0  0
 76148  1  0  0  0
 77149  1  0  0  0
 77150  1  0  0  0
 77151  1  0  0  0
 77 82  1  0  0  0
 78 81  1  0  0  0
 78152  1  0  0  0
 78153  1  0  0  0
 79 82  1  0  0  0
 79154  1  0  0  0
 79155  1  0  0  0
 80156  1  0  0  0
 80157  1  0  0  0
 81 82  1  0  0  0
 81158  1  0  0  0
 81159  1  0  0  0
 82160  1  0  0  0
 83161  1  0  0  0
M  ISO  4   1 100  68 101  80 101  83 100
M  END
> <chiral flag>
0

> <version>
0

> <s_m_source_file>
/data/baiqing/PycharmProjects/Reinvent-master-3.2/result/LINK_invent/BTK/process_docking_weight1_custom_product_contain_oxygen_bond_distance_aromatic_linkinvent_7_9_3/rearranged_h_0134.sdf

> <i_m_source_file_index>
26

> <r_mmod_Potential_Energy-OPLS-2005>
-44.3460693359375

> <r_mmod_Stretch_Energy-OPLS-2005>
36.3852882385254

> <r_mmod_Bend_Energy-OPLS-2005>
117.983665466309

> <r_mmod_Torsional_Energy-OPLS-2005>
213.391220092773

> <r_mmod_Improper_Torsional_Energy-OPLS-2005>
2.8679895401001

> <r_mmod_Van_der_Waal_Energy-OPLS-2005>
123.621124267578

> <r_mmod_Electrostatic_Energy-OPLS-2005>
-332.601531982422

> <r_mmod_Solvation_Energy-OPLS-2005>
-215.973266601562

> <b_mmod_Minimization_Converged-OPLS-2005>
0

> <r_mmod_RMS_Derivative-OPLS-2005>
1.81318986415863

$$$$
26
                    3D
 Structure written by MMmdl.
166174  0  0  1  0            999 V2000
  -30.7190  -14.4565   20.6140 C   0  0  0  0  0  0
  -30.4196  -12.3163   19.4116 C   0  0  0  0  0  0
  -29.4868  -12.5105   18.1998 C   0  0  0  0  0  0
  -28.0102  -12.3673   18.6171 C   0  0  0  0  0  0
  -27.6593  -13.2074   19.8741 C   0  0  2  0  0  0
  -28.7010  -12.9851   20.9919 C   0  0  0  0  0  0
  -25.2577  -13.8168   20.5670 C   0  0  0  0  0  0
  -24.1833  -13.0442   20.9177 C   0  0  0  0  0  0
  -24.6388  -11.6910   20.8741 C   0  0  0  0  0  0
  -23.9054  -10.4297   21.0407 C   0  0  0  0  0  0
  -24.3609   -9.4214   21.9184 C   0  0  0  0  0  0
  -23.6290   -8.2245   22.0753 C   0  0  0  0  0  0
  -22.4273   -8.0282   21.3544 C   0  0  0  0  0  0
  -21.9908   -9.0251   20.4641 C   0  0  0  0  0  0
  -22.7229  -10.2133   20.3053 C   0  0  0  0  0  0
  -21.6852   -6.0736   22.5280 C   0  0  0  0  0  0
  -21.4010   -6.5636   23.8213 C   0  0  0  0  0  0
  -21.3657   -5.6790   24.9175 C   0  0  0  0  0  0
  -21.6045   -4.3054   24.7226 C   0  0  0  0  0  0
  -21.8820   -3.8147   23.4346 C   0  0  0  0  0  0
  -21.9192   -4.6964   22.3401 C   0  0  0  0  0  0
  -22.7858  -13.5243   21.1848 C   0  0  0  0  0  0
  -22.1663   -4.2150   21.0980 F   0  0  0  0  0  0
  -21.5630   -3.4540   25.7738 F   0  0  0  0  0  0
  -30.0302  -13.2957   20.4387 N   0  0  0  0  0  0
  -26.3013  -12.9337   20.3376 N   0  0  0  0  0  0
  -25.9313  -11.6495   20.5775 N   0  0  0  0  0  0
  -22.0503  -12.8226   22.0399 N   0  0  0  0  0  0
  -25.4296  -15.1877   20.4045 N   0  0  0  0  0  0
  -31.8235  -14.6597   20.1018 O   0  0  0  0  0  0
  -21.6638   -6.8878   21.4241 O   0  0  0  0  0  0
  -22.3540  -14.5554   20.6706 O   0  0  0  0  0  0
  -24.6160  -31.8672   23.2080 C   0  0  0  0  0  0
  -25.9047  -32.4821   23.8382 C   0  0  1  0  0  0
  -27.2295  -27.4196   20.0972 C   0  0  0  0  0  0
  -25.5886  -33.8616   24.2309 N   0  0  0  0  0  0
  -23.4038  -30.4921   21.5493 C   0  0  2  0  0  0
  -24.8485  -28.9558   20.1147 C   0  0  0  0  0  0
  -22.7417  -29.4661   22.4977 C   0  0  0  0  0  0
  -18.0273  -28.1386   22.8491 C   0  0  0  0  0  0
  -24.1475  -36.7300   23.2640 C   0  0  0  0  0  0
  -25.9345  -30.8298   21.3615 C   0  0  0  0  0  0
  -26.0116  -29.4640   20.7067 C   0  0  0  0  0  0
  -27.2067  -28.7058   20.6878 C   0  0  0  0  0  0
  -26.0455  -26.9285   19.5023 C   0  0  0  0  0  0
  -24.8614  -27.6885   19.5089 C   0  0  0  0  0  0
  -23.6122  -29.8249   20.1639 C   0  0  0  0  0  0
  -25.4100  -36.3106   24.0341 C   0  0  1  0  0  0
  -20.5867  -28.3672   23.1311 C   0  0  2  0  0  0
  -20.6763  -26.9407   22.5415 C   0  0  0  0  0  0
  -19.5739  -26.6389   21.5214 C   0  0  0  0  0  0
  -18.1916  -26.7931   22.1623 C   0  0  0  0  0  0
  -19.1525  -28.8844   23.2898 C   0  0  0  0  0  0
  -18.9460  -30.1447   23.8918 C   0  0  0  0  0  0
  -17.6464  -30.6592   24.0572 C   0  0  0  0  0  0
  -25.9039  -34.9477   23.5127 C   0  0  0  0  0  0
  -16.5351  -29.9102   23.6328 C   0  0  0  0  0  0
  -16.7263  -28.6516   23.0349 C   0  0  0  0  0  0
  -26.4463  -31.6609   25.0719 C   0  0  0  0  0  0
  -25.3713  -31.3715   26.1455 C   0  0  0  0  0  0
  -27.0302  -30.3058   24.6094 C   0  0  0  0  0  0
  -27.6031  -32.4335   25.7487 C   0  0  0  0  0  0
  -27.5584  -37.1787   24.8456 C   0  0  0  0  0  0
  -21.4143  -29.3040   22.3718 N   0  0  0  0  0  0
  -26.4275  -37.3803   23.9433 N   0  0  0  0  0  0
  -24.6702  -31.0768   22.0984 N   0  0  0  0  0  0
  -23.4183  -28.8204   23.3024 O   0  0  0  0  0  0
  -28.3939  -26.6738   20.1056 O   0  0  0  0  0  0
  -26.5615  -34.8931   22.4698 O   0  0  0  0  0  0
  -23.5350  -32.1422   23.7476 O   0  0  0  0  0  0
  -30.7311  -20.0704   20.1242 C   0  0  0  0  0  0
  -31.0964  -18.7706   20.5317 C   0  0  0  0  0  0
  -28.5633  -19.7854   21.1807 C   0  0  0  0  0  0
  -29.4679  -20.5998   20.4598 C   0  0  0  0  0  0
  -30.2126  -17.9697   21.2878 C   0  0  0  0  0  0
  -28.9247  -18.4724   21.6040 C   0  0  0  0  0  0
  -26.1447  -17.0676   23.5940 C   0  0  0  0  0  0
  -30.3370  -25.3811   21.7552 C   0  0  0  0  0  0
  -29.1064  -22.0356   20.0503 C   0  0  0  0  0  0
  -30.7191  -16.6349   21.8577 C   0  0  0  0  0  0
  -29.4992  -23.0885   21.1165 C   0  0  0  0  0  0
  -26.8125  -18.1276   22.7146 C   0  0  0  0  0  0
  -28.2521  -25.2523   20.3134 C   0  0  0  0  0  0
  -29.6066  -24.5785   20.6613 C   0  0  1  0  0  0
  -30.1035  -15.4023   21.3452 N   0  0  0  0  0  0
  -28.1009  -17.6521   22.3475 O   0  0  0  0  0  0
  -31.4621  -12.4207   19.1056 H   0  0  0  0  0  0
  -30.3283  -11.3038   19.8075 H   0  0  0  0  0  0
  -29.7254  -11.7857   17.4202 H   0  0  0  0  0  0
  -29.6508  -13.4966   17.7624 H   0  0  0  0  0  0
  -27.8229  -11.3110   18.8139 H   0  0  0  0  0  0
  -27.3564  -12.6407   17.7878 H   0  0  0  0  0  0
  -27.7054  -14.2560   19.5798 H   0  0  0  0  0  0
  -28.6807  -11.9468   21.3264 H   0  0  0  0  0  0
  -28.4544  -13.5757   21.8747 H   0  0  0  0  0  0
  -25.2751   -9.5694   22.4760 H   0  0  0  0  0  0
  -24.0002   -7.4637   22.7472 H   0  0  0  0  0  0
  -21.0842   -8.8759   19.8944 H   0  0  0  0  0  0
  -22.3686  -10.9670   19.6161 H   0  0  0  0  0  0
  -21.1997   -7.6143   23.9715 H   0  0  0  0  0  0
  -21.1477   -6.0520   25.9077 H   0  0  0  0  0  0
  -22.0601   -2.7610   23.2845 H   0  0  0  0  0  0
  -22.4112  -11.9875   22.4772 H   0  0  0  0  0  0
  -21.1122  -13.1252   22.2618 H   0  0  0  0  0  0
  -24.6653  -15.8445   20.5134 H   0  0  0  0  0  0
  -26.2923  -15.6278   20.1102 H   0  0  0  0  0  0
  -26.7122  -32.5528   23.1147 H   0  0  0  0  0  0
  -25.0011  -33.9775   25.0435 H   0  0  0  0  0  0
  -22.6929  -31.3092   21.4094 H   0  0  0  0  0  0
  -23.3762  -35.9604   23.3275 H   0  0  0  0  0  0
  -24.3576  -36.8945   22.2059 H   0  0  0  0  0  0
  -23.7187  -37.6477   23.6677 H   0  0  0  0  0  0
  -26.0471  -31.5972   20.5944 H   0  0  0  0  0  0
  -26.8224  -30.8827   21.9799 H   0  0  0  0  0  0
  -28.1068  -29.0946   21.1439 H   0  0  0  0  0  0
  -26.0218  -25.9609   19.0233 H   0  0  0  0  0  0
  -23.9671  -27.2917   19.0484 H   0  0  0  0  0  0
  -23.7206  -30.5998   19.4041 H   0  0  0  0  0  0
  -22.7348  -29.2465   19.8676 H   0  0  0  0  0  0
  -25.1271  -36.1962   25.0832 H   0  0  0  0  0  0
  -20.9957  -28.3239   24.1431 H   0  0  0  0  0  0
  -20.5665  -26.2282   23.3605 H   0  0  0  0  0  0
  -21.6633  -26.7440   22.1205 H   0  0  0  0  0  0
  -19.6899  -25.6301   21.1236 H   0  0  0  0  0  0
  -19.6683  -27.3208   20.6750 H   0  0  0  0  0  0
  -17.4184  -26.6687   21.4026 H   0  0  0  0  0  0
  -18.0309  -26.0066   22.9013 H   0  0  0  0  0  0
  -19.7937  -30.7252   24.2298 H   0  0  0  0  0  0
  -17.5024  -31.6277   24.5164 H   0  0  0  0  0  0
  -15.5356  -30.3019   23.7644 H   0  0  0  0  0  0
  -15.8657  -28.0850   22.7057 H   0  0  0  0  0  0
  -24.5886  -30.7069   25.7777 H   0  0  0  0  0  0
  -24.8901  -32.2870   26.4909 H   0  0  0  0  0  0
  -25.8044  -30.8871   27.0213 H   0  0  0  0  0  0
  -26.2849  -29.6827   24.1132 H   0  0  0  0  0  0
  -27.4067  -29.7290   25.4551 H   0  0  0  0  0  0
  -27.8681  -30.4395   23.9246 H   0  0  0  0  0  0
  -27.2645  -33.3631   26.2075 H   0  0  0  0  0  0
  -28.3834  -32.6904   25.0310 H   0  0  0  0  0  0
  -28.0700  -31.8450   26.5393 H   0  0  0  0  0  0
  -28.2556  -38.0132   24.7595 H   0  0  0  0  0  0
  -28.1127  -36.2672   24.6166 H   0  0  0  0  0  0
  -27.2315  -37.1291   25.8858 H   0  0  0  0  0  0
  -20.9302  -29.8776   21.6953 H   0  0  0  0  0  0
  -26.0163  -38.2865   24.1504 H   0  0  0  0  0  0
  -31.4395  -20.6702   19.5693 H   0  0  0  0  0  0
  -32.0846  -18.4031   20.2912 H   0  0  0  0  0  0
  -27.5965  -20.2025   21.4212 H   0  0  0  0  0  0
  -25.1468  -17.3857   23.8962 H   0  0  0  0  0  0
  -26.7257  -16.8884   24.4988 H   0  0  0  0  0  0
  -26.0469  -16.1190   23.0659 H   0  0  0  0  0  0
  -31.3105  -24.9475   21.9850 H   0  0  0  0  0  0
  -29.7591  -25.4060   22.6797 H   0  0  0  0  0  0
  -30.5142  -26.4120   21.4481 H   0  0  0  0  0  0
  -28.0386  -22.0999   19.8362 H   0  0  0  0  0  0
  -29.6137  -22.2596   19.1108 H   0  0  0  0  0  0
  -30.5425  -16.6532   22.9338 H   0  0  0  0  0  0
  -31.8052  -16.5907   21.7592 H   0  0  0  0  0  0
  -30.4840  -22.7993   21.4864 H   0  0  0  0  0  0
  -28.8333  -23.0029   21.9760 H   0  0  0  0  0  0
  -26.8892  -19.0622   23.2725 H   0  0  0  0  0  0
  -26.2069  -18.3077   21.8249 H   0  0  0  0  0  0
  -27.5422  -25.0728   21.1235 H   0  0  0  0  0  0
  -27.8471  -24.7807   19.4177 H   0  0  0  0  0  0
  -30.2325  -24.6129   19.7682 H   0  0  0  0  0  0
  -29.1792  -15.1857   21.6860 H   0  0  0  0  0  0
  1 25  1  0  0  0
  1 30  2  0  0  0
  1 85  1  0  0  0
  2  3  1  0  0  0
  2 25  1  0  0  0
  2 87  1  0  0  0
  2 88  1  0  0  0
  3  4  1  0  0  0
  3 89  1  0  0  0
  3 90  1  0  0  0
  4  5  1  0  0  0
  4 91  1  0  0  0
  4 92  1  0  0  0
  5  6  1  0  0  0
  5 26  1  0  0  0
  5 93  1  0  0  0
  6 25  1  0  0  0
  6 94  1  0  0  0
  6 95  1  0  0  0
  7  8  2  0  0  0
  7 26  1  0  0  0
  7 29  1  0  0  0
  8  9  1  0  0  0
  8 22  1  0  0  0
  9 10  1  0  0  0
  9 27  2  0  0  0
 10 11  2  0  0  0
 10 15  1  0  0  0
 11 12  1  0  0  0
 11 96  1  0  0  0
 12 13  2  0  0  0
 12 97  1  0  0  0
 13 14  1  0  0  0
 13 31  1  0  0  0
 14 15  2  0  0  0
 14 98  1  0  0  0
 15 99  1  0  0  0
 16 17  2  0  0  0
 16 21  1  0  0  0
 16 31  1  0  0  0
 17 18  1  0  0  0
 17100  1  0  0  0
 18 19  2  0  0  0
 18101  1  0  0  0
 19 20  1  0  0  0
 19 24  1  0  0  0
 20 21  2  0  0  0
 20102  1  0  0  0
 21 23  1  0  0  0
 22 28  1  0  0  0
 22 32  2  0  0  0
 26 27  1  0  0  0
 28103  1  0  0  0
 28104  1  0  0  0
 29105  1  0  0  0
 29106  1  0  0  0
 33 34  1  0  0  0
 33 66  1  0  0  0
 33 70  2  0  0  0
 34 36  1  0  0  0
 34 59  1  0  0  0
 34107  1  0  0  0
 35 44  2  0  0  0
 35 45  1  0  0  0
 35 68  1  0  0  0
 36 56  1  0  0  0
 36108  1  0  0  0
 37 39  1  0  0  0
 37 47  1  0  0  0
 37 66  1  0  0  0
 37109  1  0  0  0
 38 43  2  0  0  0
 38 46  1  0  0  0
 38 47  1  0  0  0
 39 64  1  0  0  0
 39 67  2  0  0  0
 40 52  1  0  0  0
 40 53  2  0  0  0
 40 58  1  0  0  0
 41110  1  0  0  0
 41111  1  0  0  0
 41112  1  0  0  0
 41 48  1  0  0  0
 42 43  1  0  0  0
 42 66  1  0  0  0
 42113  1  0  0  0
 42114  1  0  0  0
 43 44  1  0  0  0
 44115  1  0  0  0
 45 46  2  0  0  0
 45116  1  0  0  0
 46117  1  0  0  0
 47118  1  0  0  0
 47119  1  0  0  0
 48 56  1  0  0  0
 48 65  1  0  0  0
 48120  1  0  0  0
 49 50  1  0  0  0
 49 53  1  0  0  0
 49 64  1  0  0  0
 49121  1  0  0  0
 50 51  1  0  0  0
 50122  1  0  0  0
 50123  1  0  0  0
 51 52  1  0  0  0
 51124  1  0  0  0
 51125  1  0  0  0
 52126  1  0  0  0
 52127  1  0  0  0
 53 54  1  0  0  0
 54 55  2  0  0  0
 54128  1  0  0  0
 55 57  1  0  0  0
 55129  1  0  0  0
 56 69  2  0  0  0
 57 58  2  0  0  0
 57130  1  0  0  0
 58131  1  0  0  0
 59 60  1  0  0  0
 59 61  1  0  0  0
 59 62  1  0  0  0
 60132  1  0  0  0
 60133  1  0  0  0
 60134  1  0  0  0
 61135  1  0  0  0
 61136  1  0  0  0
 61137  1  0  0  0
 62138  1  0  0  0
 62139  1  0  0  0
 62140  1  0  0  0
 63 65  1  0  0  0
 63141  1  0  0  0
 63142  1  0  0  0
 63143  1  0  0  0
 64144  1  0  0  0
 65145  1  0  0  0
 68 83  1  0  0  0
 71 72  2  0  0  0
 71 74  1  0  0  0
 71146  1  0  0  0
 72 75  1  0  0  0
 72147  1  0  0  0
 73 74  2  0  0  0
 73 76  1  0  0  0
 73148  1  0  0  0
 74 79  1  0  0  0
 75 76  2  0  0  0
 75 80  1  0  0  0
 76 86  1  0  0  0
 77 82  1  0  0  0
 77149  1  0  0  0
 77150  1  0  0  0
 77151  1  0  0  0
 78152  1  0  0  0
 78153  1  0  0  0
 78154  1  0  0  0
 78 84  1  0  0  0
 79 81  1  0  0  0
 79155  1  0  0  0
 79156  1  0  0  0
 80 85  1  0  0  0
 80157  1  0  0  0
 80158  1  0  0  0
 81 84  1  0  0  0
 81159  1  0  0  0
 81160  1  0  0  0
 82 86  1  0  0  0
 82161  1  0  0  0
 82162  1  0  0  0
 83 84  1  0  0  0
 83163  1  0  0  0
 83164  1  0  0  0
 84165  1  0  0  0
 85166  1  0  0  0
M  ISO  4   1 100  68 101  83 101  85 100
M  END
> <chiral flag>
0

> <version>
0

> <s_m_source_file>
/data/baiqing/PycharmProjects/Reinvent-master-3.2/result/LINK_invent/BTK/process_docking_weight1_custom_product_contain_oxygen_bond_distance_aromatic_linkinvent_7_9_3/rearranged_h_0134.sdf

> <i_m_source_file_index>
27

> <r_mmod_Potential_Energy-OPLS-2005>
-91.2118530273438

> <r_mmod_Stretch_Energy-OPLS-2005>
40.4563941955566

> <r_mmod_Bend_Energy-OPLS-2005>
103.747673034668

> <r_mmod_Torsional_Energy-OPLS-2005>
210.809860229492

> <r_mmod_Improper_Torsional_Energy-OPLS-2005>
2.39104962348938

> <r_mmod_Van_der_Waal_Energy-OPLS-2005>
147.369003295898

> <r_mmod_Electrostatic_Energy-OPLS-2005>
-411.840606689453

> <r_mmod_Solvation_Energy-OPLS-2005>
-196.582366943359

> <b_mmod_Minimization_Converged-OPLS-2005>
0

> <r_mmod_RMS_Derivative-OPLS-2005>
0.807418286800385

$$$$
27
                    3D
 Structure written by MMmdl.
165173  0  0  1  0            999 V2000
  -30.6700  -14.5009   20.6497 C   0  0  0  0  0  0
  -30.4442  -12.3519   19.4176 C   0  0  0  0  0  0
  -29.5013  -12.5412   18.2098 C   0  0  0  0  0  0
  -28.0249  -12.3760   18.6220 C   0  0  0  0  0  0
  -27.6697  -13.2021   19.8856 C   0  0  2  0  0  0
  -28.7095  -12.9475   20.9998 C   0  0  0  0  0  0
  -25.2608  -13.8140   20.5654 C   0  0  0  0  0  0
  -24.1843  -13.0433   20.9140 C   0  0  0  0  0  0
  -24.6395  -11.6901   20.8716 C   0  0  0  0  0  0
  -23.9055  -10.4294   21.0395 C   0  0  0  0  0  0
  -24.3608   -9.4211   21.9177 C   0  0  0  0  0  0
  -23.6283   -8.2246   22.0755 C   0  0  0  0  0  0
  -22.4265   -8.0286   21.3545 C   0  0  0  0  0  0
  -21.9898   -9.0259   20.4649 C   0  0  0  0  0  0
  -22.7226  -10.2136   20.3051 C   0  0  0  0  0  0
  -21.6854   -6.0730   22.5276 C   0  0  0  0  0  0
  -21.4017   -6.5631   23.8213 C   0  0  0  0  0  0
  -21.3662   -5.6783   24.9173 C   0  0  0  0  0  0
  -21.6045   -4.3042   24.7227 C   0  0  0  0  0  0
  -21.8820   -3.8141   23.4346 C   0  0  0  0  0  0
  -21.9193   -4.6958   22.3400 C   0  0  0  0  0  0
  -22.7872  -13.5246   21.1817 C   0  0  0  0  0  0
  -22.1661   -4.2142   21.0981 F   0  0  0  0  0  0
  -21.5628   -3.4531   25.7742 F   0  0  0  0  0  0
  -30.0463  -13.2973   20.4763 N   0  0  0  0  0  0
  -26.3063  -12.9303   20.3391 N   0  0  0  0  0  0
  -25.9324  -11.6466   20.5756 N   0  0  0  0  0  0
  -22.0512  -12.8258   22.0382 N   0  0  0  0  0  0
  -25.4309  -15.1852   20.4059 N   0  0  0  0  0  0
  -31.6892  -14.8243   20.0298 O   0  0  0  0  0  0
  -21.6633   -6.8879   21.4243 O   0  0  0  0  0  0
  -22.3555  -14.5558   20.6676 O   0  0  0  0  0  0
  -24.6167  -31.8651   23.2068 C   0  0  0  0  0  0
  -25.9042  -32.4812   23.8381 C   0  0  1  0  0  0
  -27.2422  -27.4022   20.1115 C   0  0  0  0  0  0
  -25.5892  -33.8610   24.2317 N   0  0  0  0  0  0
  -23.4087  -30.4852   21.5475 C   0  0  2  0  0  0
  -24.8594  -28.9400   20.1212 C   0  0  0  0  0  0
  -22.7426  -29.4638   22.4981 C   0  0  0  0  0  0
  -18.0273  -28.1374   22.8494 C   0  0  0  0  0  0
  -24.1486  -36.7307   23.2643 C   0  0  0  0  0  0
  -25.9402  -30.8211   21.3645 C   0  0  0  0  0  0
  -26.0209  -29.4505   20.7155 C   0  0  0  0  0  0
  -27.2179  -28.6914   20.7013 C   0  0  0  0  0  0
  -26.0640  -26.9091   19.5159 C   0  0  0  0  0  0
  -24.8768  -27.6694   19.5173 C   0  0  0  0  0  0
  -23.6224  -29.8113   20.1653 C   0  0  0  0  0  0
  -25.4110  -36.3109   24.0343 C   0  0  1  0  0  0
  -20.5866  -28.3664   23.1311 C   0  0  2  0  0  0
  -20.6763  -26.9395   22.5421 C   0  0  0  0  0  0
  -19.5743  -26.6381   21.5212 C   0  0  0  0  0  0
  -18.1921  -26.7923   22.1621 C   0  0  0  0  0  0
  -19.1525  -28.8834   23.2902 C   0  0  0  0  0  0
  -18.9451  -30.1440   23.8913 C   0  0  0  0  0  0
  -17.6455  -30.6582   24.0561 C   0  0  0  0  0  0
  -25.9038  -34.9472   23.5132 C   0  0  0  0  0  0
  -16.5345  -29.9084   23.6326 C   0  0  0  0  0  0
  -16.7265  -28.6497   23.0355 C   0  0  0  0  0  0
  -26.4469  -31.6598   25.0715 C   0  0  0  0  0  0
  -25.3734  -31.3708   26.1464 C   0  0  0  0  0  0
  -27.0305  -30.3041   24.6102 C   0  0  0  0  0  0
  -27.6053  -32.4320   25.7467 C   0  0  0  0  0  0
  -27.5584  -37.1807   24.8467 C   0  0  0  0  0  0
  -21.4149  -29.3029   22.3717 N   0  0  0  0  0  0
  -26.4298  -37.3793   23.9410 N   0  0  0  0  0  0
  -24.6735  -31.0722   22.0980 N   0  0  0  0  0  0
  -23.4180  -28.8189   23.3044 O   0  0  0  0  0  0
  -28.3993  -26.6443   20.0678 O   0  0  0  0  0  0
  -26.5603  -34.8922   22.4696 O   0  0  0  0  0  0
  -23.5349  -32.1409   23.7440 O   0  0  0  0  0  0
  -27.4521  -17.6797   22.3090 C   0  0  0  0  0  0
  -28.1682  -16.4980   22.0889 C   0  0  0  0  0  0
  -30.0531  -17.7982   21.2679 C   0  0  0  0  0  0
  -28.0316  -18.9391   22.0703 C   0  0  0  0  0  0
  -29.3430  -19.0316   21.5108 C   0  0  0  0  0  0
  -29.4814  -16.5272   21.5905 C   0  0  0  0  0  0
  -27.4789  -20.4869   24.0112 C   0  0  0  0  0  0
  -31.5334  -20.3630   21.1063 C   0  0  0  0  0  0
  -27.2131  -20.1394   22.5410 C   0  0  0  0  0  0
  -29.2482  -22.9389   21.0046 C   0  0  0  0  0  0
  -28.7065  -24.0993   20.0986 C   0  0  0  0  0  0
  -29.3580  -21.4920   20.3939 C   0  0  0  0  0  0
  -28.4262  -25.4363   20.8670 C   0  0  0  0  0  0
  -30.0185  -20.4353   21.3646 C   0  0  1  0  0  0
  -30.1602  -15.2583   21.6433 N   0  0  0  0  0  0
  -31.4833  -12.4921   19.1126 H   0  0  0  0  0  0
  -30.3834  -11.3295   19.7925 H   0  0  0  0  0  0
  -29.7507  -11.8302   17.4209 H   0  0  0  0  0  0
  -29.6491  -13.5348   17.7835 H   0  0  0  0  0  0
  -27.8473  -11.3170   18.8125 H   0  0  0  0  0  0
  -27.3699  -12.6501   17.7942 H   0  0  0  0  0  0
  -27.7227  -14.2552   19.6094 H   0  0  0  0  0  0
  -28.6974  -11.8955   21.2875 H   0  0  0  0  0  0
  -28.4373  -13.4830   21.9077 H   0  0  0  0  0  0
  -25.2763   -9.5682   22.4737 H   0  0  0  0  0  0
  -23.9997   -7.4637   22.7470 H   0  0  0  0  0  0
  -21.0829   -8.8783   19.8952 H   0  0  0  0  0  0
  -22.3700  -10.9672   19.6150 H   0  0  0  0  0  0
  -21.2012   -7.6137   23.9717 H   0  0  0  0  0  0
  -21.1480   -6.0508   25.9075 H   0  0  0  0  0  0
  -22.0595   -2.7603   23.2848 H   0  0  0  0  0  0
  -22.4125  -11.9927   22.4787 H   0  0  0  0  0  0
  -21.1141  -13.1301   22.2594 H   0  0  0  0  0  0
  -24.6667  -15.8418   20.5168 H   0  0  0  0  0  0
  -26.2963  -15.6302   20.1283 H   0  0  0  0  0  0
  -26.7114  -32.5528   23.1146 H   0  0  0  0  0  0
  -25.0045  -33.9771   25.0463 H   0  0  0  0  0  0
  -22.6986  -31.3023   21.4027 H   0  0  0  0  0  0
  -23.3751  -35.9637   23.3320 H   0  0  0  0  0  0
  -24.3576  -36.8906   22.2054 H   0  0  0  0  0  0
  -23.7232  -37.6514   23.6646 H   0  0  0  0  0  0
  -26.0556  -31.5855   20.5948 H   0  0  0  0  0  0
  -26.8260  -30.8774   21.9856 H   0  0  0  0  0  0
  -28.1184  -29.0867   21.1505 H   0  0  0  0  0  0
  -26.0692  -25.9362   19.0451 H   0  0  0  0  0  0
  -23.9845  -27.2706   19.0545 H   0  0  0  0  0  0
  -23.7340  -30.5828   19.4026 H   0  0  0  0  0  0
  -22.7464  -29.2318   19.8687 H   0  0  0  0  0  0
  -25.1286  -36.1984   25.0838 H   0  0  0  0  0  0
  -20.9959  -28.3231   24.1429 H   0  0  0  0  0  0
  -20.5656  -26.2268   23.3609 H   0  0  0  0  0  0
  -21.6637  -26.7433   22.1217 H   0  0  0  0  0  0
  -19.6905  -25.6295   21.1233 H   0  0  0  0  0  0
  -19.6685  -27.3197   20.6747 H   0  0  0  0  0  0
  -17.4194  -26.6675   21.4021 H   0  0  0  0  0  0
  -18.0319  -26.0059   22.9009 H   0  0  0  0  0  0
  -19.7928  -30.7247   24.2297 H   0  0  0  0  0  0
  -17.5012  -31.6265   24.5154 H   0  0  0  0  0  0
  -15.5348  -30.2992   23.7639 H   0  0  0  0  0  0
  -15.8664  -28.0819   22.7070 H   0  0  0  0  0  0
  -24.5894  -30.7075   25.7793 H   0  0  0  0  0  0
  -24.8938  -32.2864   26.4936 H   0  0  0  0  0  0
  -25.8079  -30.8850   27.0210 H   0  0  0  0  0  0
  -26.2849  -29.6795   24.1168 H   0  0  0  0  0  0
  -27.4090  -29.7287   25.4561 H   0  0  0  0  0  0
  -27.8678  -30.4364   23.9246 H   0  0  0  0  0  0
  -27.2682  -33.3609   26.2080 H   0  0  0  0  0  0
  -28.3832  -32.6901   25.0269 H   0  0  0  0  0  0
  -28.0757  -31.8426   26.5346 H   0  0  0  0  0  0
  -28.2617  -38.0091   24.7512 H   0  0  0  0  0  0
  -28.1066  -36.2625   24.6300 H   0  0  0  0  0  0
  -27.2303  -37.1469   25.8870 H   0  0  0  0  0  0
  -20.9312  -29.8742   21.6931 H   0  0  0  0  0  0
  -26.0194  -38.2877   24.1401 H   0  0  0  0  0  0
  -26.4608  -17.6112   22.7363 H   0  0  0  0  0  0
  -27.6964  -15.5666   22.3651 H   0  0  0  0  0  0
  -31.0734  -17.8153   20.9146 H   0  0  0  0  0  0
  -26.8968  -21.3582   24.3111 H   0  0  0  0  0  0
  -28.5286  -20.7179   24.1892 H   0  0  0  0  0  0
  -27.2030  -19.6620   24.6680 H   0  0  0  0  0  0
  -32.0425  -19.7839   21.8774 H   0  0  0  0  0  0
  -31.9781  -21.3584   21.1100 H   0  0  0  0  0  0
  -31.7552  -19.9113   20.1392 H   0  0  0  0  0  0
  -26.1541  -19.9043   22.4250 H   0  0  0  0  0  0
  -27.3529  -21.0192   21.9277 H   0  0  0  0  0  0
  -28.6288  -22.8925   21.9005 H   0  0  0  0  0  0
  -30.2357  -23.2321   21.3621 H   0  0  0  0  0  0
  -27.7889  -23.7836   19.6012 H   0  0  0  0  0  0
  -29.4305  -24.2858   19.3050 H   0  0  0  0  0  0
  -29.9282  -21.5326   19.4650 H   0  0  0  0  0  0
  -28.3712  -21.1573   20.0778 H   0  0  0  0  0  0
  -29.2243  -25.5866   21.5946 H   0  0  0  0  0  0
  -27.5147  -25.3322   21.4588 H   0  0  0  0  0  0
  -29.9347  -20.8550   22.3669 H   0  0  0  0  0  0
  -29.6795  -14.6313   22.2700 H   0  0  0  0  0  0
  1 25  1  0  0  0
  1 30  2  0  0  0
  1 85  1  0  0  0
  2  3  1  0  0  0
  2 25  1  0  0  0
  2 86  1  0  0  0
  2 87  1  0  0  0
  3  4  1  0  0  0
  3 88  1  0  0  0
  3 89  1  0  0  0
  4  5  1  0  0  0
  4 90  1  0  0  0
  4 91  1  0  0  0
  5  6  1  0  0  0
  5 26  1  0  0  0
  5 92  1  0  0  0
  6 25  1  0  0  0
  6 93  1  0  0  0
  6 94  1  0  0  0
  7  8  2  0  0  0
  7 26  1  0  0  0
  7 29  1  0  0  0
  8  9  1  0  0  0
  8 22  1  0  0  0
  9 10  1  0  0  0
  9 27  2  0  0  0
 10 11  2  0  0  0
 10 15  1  0  0  0
 11 12  1  0  0  0
 11 95  1  0  0  0
 12 13  2  0  0  0
 12 96  1  0  0  0
 13 14  1  0  0  0
 13 31  1  0  0  0
 14 15  2  0  0  0
 14 97  1  0  0  0
 15 98  1  0  0  0
 16 17  2  0  0  0
 16 21  1  0  0  0
 16 31  1  0  0  0
 17 18  1  0  0  0
 17 99  1  0  0  0
 18 19  2  0  0  0
 18100  1  0  0  0
 19 20  1  0  0  0
 19 24  1  0  0  0
 20 21  2  0  0  0
 20101  1  0  0  0
 21 23  1  0  0  0
 22 28  1  0  0  0
 22 32  2  0  0  0
 26 27  1  0  0  0
 28102  1  0  0  0
 28103  1  0  0  0
 29104  1  0  0  0
 29105  1  0  0  0
 33 34  1  0  0  0
 33 66  1  0  0  0
 33 70  2  0  0  0
 34 36  1  0  0  0
 34 59  1  0  0  0
 34106  1  0  0  0
 35 44  2  0  0  0
 35 45  1  0  0  0
 35 68  1  0  0  0
 36 56  1  0  0  0
 36107  1  0  0  0
 37 39  1  0  0  0
 37 47  1  0  0  0
 37 66  1  0  0  0
 37108  1  0  0  0
 38 43  2  0  0  0
 38 46  1  0  0  0
 38 47  1  0  0  0
 39 64  1  0  0  0
 39 67  2  0  0  0
 40 52  1  0  0  0
 40 53  2  0  0  0
 40 58  1  0  0  0
 41109  1  0  0  0
 41110  1  0  0  0
 41111  1  0  0  0
 41 48  1  0  0  0
 42 43  1  0  0  0
 42 66  1  0  0  0
 42112  1  0  0  0
 42113  1  0  0  0
 43 44  1  0  0  0
 44114  1  0  0  0
 45 46  2  0  0  0
 45115  1  0  0  0
 46116  1  0  0  0
 47117  1  0  0  0
 47118  1  0  0  0
 48 56  1  0  0  0
 48 65  1  0  0  0
 48119  1  0  0  0
 49 50  1  0  0  0
 49 53  1  0  0  0
 49 64  1  0  0  0
 49120  1  0  0  0
 50 51  1  0  0  0
 50121  1  0  0  0
 50122  1  0  0  0
 51 52  1  0  0  0
 51123  1  0  0  0
 51124  1  0  0  0
 52125  1  0  0  0
 52126  1  0  0  0
 53 54  1  0  0  0
 54 55  2  0  0  0
 54127  1  0  0  0
 55 57  1  0  0  0
 55128  1  0  0  0
 56 69  2  0  0  0
 57 58  2  0  0  0
 57129  1  0  0  0
 58130  1  0  0  0
 59 60  1  0  0  0
 59 61  1  0  0  0
 59 62  1  0  0  0
 60131  1  0  0  0
 60132  1  0  0  0
 60133  1  0  0  0
 61134  1  0  0  0
 61135  1  0  0  0
 61136  1  0  0  0
 62137  1  0  0  0
 62138  1  0  0  0
 62139  1  0  0  0
 63 65  1  0  0  0
 63140  1  0  0  0
 63141  1  0  0  0
 63142  1  0  0  0
 64143  1  0  0  0
 65144  1  0  0  0
 68 83  1  0  0  0
 71 72  2  0  0  0
 71 74  1  0  0  0
 71145  1  0  0  0
 72 76  1  0  0  0
 72146  1  0  0  0
 73 75  1  0  0  0
 73 76  2  0  0  0
 73147  1  0  0  0
 74 75  2  0  0  0
 74 79  1  0  0  0
 75 84  1  0  0  0
 76 85  1  0  0  0
 77 79  1  0  0  0
 77148  1  0  0  0
 77149  1  0  0  0
 77150  1  0  0  0
 78151  1  0  0  0
 78152  1  0  0  0
 78153  1  0  0  0
 78 84  1  0  0  0
 79154  1  0  0  0
 79155  1  0  0  0
 80 81  1  0  0  0
 80 82  1  0  0  0
 80156  1  0  0  0
 80157  1  0  0  0
 81 83  1  0  0  0
 81158  1  0  0  0
 81159  1  0  0  0
 82 84  1  0  0  0
 82160  1  0  0  0
 82161  1  0  0  0
 83162  1  0  0  0
 83163  1  0  0  0
 84164  1  0  0  0
 85165  1  0  0  0
M  ISO  4   1 100  68 101  83 101  85 100
M  END
> <chiral flag>
0

> <version>
0

> <s_m_source_file>
/data/baiqing/PycharmProjects/Reinvent-master-3.2/result/LINK_invent/BTK/process_docking_weight1_custom_product_contain_oxygen_bond_distance_aromatic_linkinvent_7_9_3/rearranged_h_0134.sdf

> <i_m_source_file_index>
28

> <r_mmod_Potential_Energy-OPLS-2005>
51.6450004577637

> <r_mmod_Stretch_Energy-OPLS-2005>
57.081241607666

> <r_mmod_Bend_Energy-OPLS-2005>
131.565719604492

> <r_mmod_Torsional_Energy-OPLS-2005>
278.265960693359

> <r_mmod_Improper_Torsional_Energy-OPLS-2005>
8.81493854522705

> <r_mmod_Van_der_Waal_Energy-OPLS-2005>
138.523056030273

> <r_mmod_Electrostatic_Energy-OPLS-2005>
-389.138549804688

> <r_mmod_Solvation_Energy-OPLS-2005>
-191.665786743164

> <b_mmod_Minimization_Converged-OPLS-2005>
0

> <r_mmod_RMS_Derivative-OPLS-2005>
1.17925381660461

$$$$
28
                    3D
 Structure written by MMmdl.
158166  0  0  1  0            999 V2000
  -30.6219  -14.6731   20.4699 C   0  0  0  0  0  0
  -30.4308  -12.4005   19.4880 C   0  0  0  0  0  0
  -29.5168  -12.4938   18.2459 C   0  0  0  0  0  0
  -28.0374  -12.3402   18.6458 C   0  0  0  0  0  0
  -27.6496  -13.2254   19.8607 C   0  0  2  0  0  0
  -28.6852  -13.1224   21.0033 C   0  0  0  0  0  0
  -25.2526  -13.8188   20.5665 C   0  0  0  0  0  0
  -24.1795  -13.0453   20.9182 C   0  0  0  0  0  0
  -24.6385  -11.6925   20.8729 C   0  0  0  0  0  0
  -23.9074  -10.4295   21.0427 C   0  0  0  0  0  0
  -24.3624   -9.4195   21.9203 C   0  0  0  0  0  0
  -23.6269   -8.2244   22.0758 C   0  0  0  0  0  0
  -22.4252   -8.0281   21.3543 C   0  0  0  0  0  0
  -21.9902   -9.0270   20.4648 C   0  0  0  0  0  0
  -22.7248  -10.2146   20.3069 C   0  0  0  0  0  0
  -21.6860   -6.0729   22.5282 C   0  0  0  0  0  0
  -21.4017   -6.5636   23.8210 C   0  0  0  0  0  0
  -21.3661   -5.6785   24.9183 C   0  0  0  0  0  0
  -21.6042   -4.3051   24.7227 C   0  0  0  0  0  0
  -21.8816   -3.8144   23.4342 C   0  0  0  0  0  0
  -21.9190   -4.6963   22.3395 C   0  0  0  0  0  0
  -22.7829  -13.5258   21.1852 C   0  0  0  0  0  0
  -22.1668   -4.2148   21.0978 F   0  0  0  0  0  0
  -21.5627   -3.4527   25.7741 F   0  0  0  0  0  0
  -30.0055  -13.4460   20.4451 N   0  0  0  0  0  0
  -26.2961  -12.9392   20.3284 N   0  0  0  0  0  0
  -25.9313  -11.6542   20.5727 N   0  0  0  0  0  0
  -22.0483  -12.8266   22.0441 N   0  0  0  0  0  0
  -25.4234  -15.1885   20.4086 N   0  0  0  0  0  0
  -31.7731  -14.8070   20.0462 O   0  0  0  0  0  0
  -21.6638   -6.8867   21.4235 O   0  0  0  0  0  0
  -22.3501  -14.5544   20.6672 O   0  0  0  0  0  0
  -24.6282  -31.8599   23.2015 C   0  0  0  0  0  0
  -25.9128  -32.4773   23.8340 C   0  0  1  0  0  0
  -27.2119  -27.3005   20.1101 C   0  0  0  0  0  0
  -25.5957  -33.8566   24.2275 N   0  0  0  0  0  0
  -23.4189  -30.4855   21.5453 C   0  0  2  0  0  0
  -24.8638  -28.9454   20.1068 C   0  0  0  0  0  0
  -22.7467  -29.4631   22.4932 C   0  0  0  0  0  0
  -18.0298  -28.1361   22.8481 C   0  0  0  0  0  0
  -24.1491  -36.7287   23.2629 C   0  0  0  0  0  0
  -25.9628  -30.7851   21.3748 C   0  0  0  0  0  0
  -26.0363  -29.4121   20.7150 C   0  0  0  0  0  0
  -27.2133  -28.6004   20.7112 C   0  0  0  0  0  0
  -26.0195  -26.9078   19.4551 C   0  0  0  0  0  0
  -24.8598  -27.6999   19.4662 C   0  0  0  0  0  0
  -23.6320  -29.8245   20.1599 C   0  0  0  0  0  0
  -25.4109  -36.3066   24.0326 C   0  0  1  0  0  0
  -20.5892  -28.3685   23.1270 C   0  0  2  0  0  0
  -20.6778  -26.9409   22.5409 C   0  0  0  0  0  0
  -19.5763  -26.6372   21.5195 C   0  0  0  0  0  0
  -18.1937  -26.7904   22.1608 C   0  0  0  0  0  0
  -19.1543  -28.8835   23.2873 C   0  0  0  0  0  0
  -18.9470  -30.1434   23.8899 C   0  0  0  0  0  0
  -17.6470  -30.6571   24.0554 C   0  0  0  0  0  0
  -25.9059  -34.9451   23.5096 C   0  0  0  0  0  0
  -16.5361  -29.9066   23.6327 C   0  0  0  0  0  0
  -16.7279  -28.6475   23.0353 C   0  0  0  0  0  0
  -26.4519  -31.6560   25.0691 C   0  0  0  0  0  0
  -25.3762  -31.3727   26.1429 C   0  0  0  0  0  0
  -27.0326  -30.2962   24.6137 C   0  0  0  0  0  0
  -27.6073  -32.4281   25.7476 C   0  0  0  0  0  0
  -27.5581  -37.1799   24.8463 C   0  0  0  0  0  0
  -21.4180  -29.3044   22.3670 N   0  0  0  0  0  0
  -26.4288  -37.3764   23.9414 N   0  0  0  0  0  0
  -24.6886  -31.0594   22.0973 N   0  0  0  0  0  0
  -23.4183  -28.8173   23.3015 O   0  0  0  0  0  0
  -28.3010  -26.4071   20.1812 O   0  0  0  0  0  0
  -26.5616  -34.8942   22.4656 O   0  0  0  0  0  0
  -23.5446  -32.1419   23.7336 O   0  0  0  0  0  0
  -28.7167  -17.9147   18.0073 C   0  0  0  0  0  0
  -29.1682  -16.8183   18.7598 C   0  0  0  0  0  0
  -29.6222  -18.3413   20.5985 C   0  0  0  0  0  0
  -28.6938  -19.2295   18.5267 C   0  0  0  0  0  0
  -29.2011  -19.5083   19.8370 C   0  0  0  0  0  0
  -29.6092  -16.9856   20.0839 C   0  0  0  0  0  0
  -28.1193  -20.2290   17.5993 C   0  0  0  0  0  0
  -26.6389  -20.5325   17.7879 C   0  0  0  0  0  0
  -29.3635  -20.9823   20.4418 C   0  0  0  0  0  0
  -28.6272  -22.3020   19.8725 C   0  0  0  0  0  0
  -28.9957  -23.7766   20.3933 C   0  0  0  0  0  0
  -28.0270  -24.9621   19.9303 C   0  0  0  0  0  0
  -29.8830  -15.7664   20.8584 N   0  0  0  0  0  0
  -28.7534  -20.7643   16.6874 O   0  0  0  0  0  0
  -31.4785  -12.5006   19.1982 H   0  0  0  0  0  0
  -30.3467  -11.4179   19.9522 H   0  0  0  0  0  0
  -29.7857  -11.7256   17.5208 H   0  0  0  0  0  0
  -29.6628  -13.4506   17.7441 H   0  0  0  0  0  0
  -27.8708  -11.2893   18.8860 H   0  0  0  0  0  0
  -27.3958  -12.5636   17.7932 H   0  0  0  0  0  0
  -27.6543  -14.2541   19.5018 H   0  0  0  0  0  0
  -28.6858  -12.1178   21.4283 H   0  0  0  0  0  0
  -28.4164  -13.7935   21.8216 H   0  0  0  0  0  0
  -25.2790   -9.5661   22.4776 H   0  0  0  0  0  0
  -23.9969   -7.4634   22.7475 H   0  0  0  0  0  0
  -21.0833   -8.8801   19.8942 H   0  0  0  0  0  0
  -22.3713  -10.9690   19.6163 H   0  0  0  0  0  0
  -21.2011   -7.6150   23.9708 H   0  0  0  0  0  0
  -21.1492   -6.0529   25.9078 H   0  0  0  0  0  0
  -22.0591   -2.7599   23.2852 H   0  0  0  0  0  0
  -22.4109  -11.9935   22.4829 H   0  0  0  0  0  0
  -21.1098  -13.1272   22.2666 H   0  0  0  0  0  0
  -24.6545  -15.8434   20.5049 H   0  0  0  0  0  0
  -26.2789  -15.6205   20.0835 H   0  0  0  0  0  0
  -26.7179  -32.5436   23.1078 H   0  0  0  0  0  0
  -25.0130  -33.9702   25.0438 H   0  0  0  0  0  0
  -22.7148  -31.3084   21.4043 H   0  0  0  0  0  0
  -23.3760  -35.9615   23.3278 H   0  0  0  0  0  0
  -24.3585  -36.8908   22.2046 H   0  0  0  0  0  0
  -23.7255  -37.6496   23.6649 H   0  0  0  0  0  0
  -26.0934  -31.5481   20.6062 H   0  0  0  0  0  0
  -26.8421  -30.8326   22.0045 H   0  0  0  0  0  0
  -28.1077  -28.9495   21.2105 H   0  0  0  0  0  0
  -25.9436  -25.9659   18.9327 H   0  0  0  0  0  0
  -23.9657  -27.3399   18.9760 H   0  0  0  0  0  0
  -23.7502  -30.6010   19.4034 H   0  0  0  0  0  0
  -22.7509  -29.2543   19.8586 H   0  0  0  0  0  0
  -25.1282  -36.1915   25.0817 H   0  0  0  0  0  0
  -20.9979  -28.3260   24.1385 H   0  0  0  0  0  0
  -20.5644  -26.2301   23.3608 H   0  0  0  0  0  0
  -21.6653  -26.7419   22.1224 H   0  0  0  0  0  0
  -19.6945  -25.6278   21.1224 H   0  0  0  0  0  0
  -19.6687  -27.3180   20.6713 H   0  0  0  0  0  0
  -17.4201  -26.6640   21.4015 H   0  0  0  0  0  0
  -18.0364  -26.0031   22.8992 H   0  0  0  0  0  0
  -19.7948  -30.7244   24.2265 H   0  0  0  0  0  0
  -17.5027  -31.6255   24.5153 H   0  0  0  0  0  0
  -15.5360  -30.2971   23.7641 H   0  0  0  0  0  0
  -15.8676  -28.0789   22.7077 H   0  0  0  0  0  0
  -24.5944  -30.7049   25.7811 H   0  0  0  0  0  0
  -24.8960  -32.2899   26.4838 H   0  0  0  0  0  0
  -25.8105  -30.8956   27.0217 H   0  0  0  0  0  0
  -26.2892  -29.6745   24.1132 H   0  0  0  0  0  0
  -27.3982  -29.7180   25.4637 H   0  0  0  0  0  0
  -27.8787  -30.4227   23.9376 H   0  0  0  0  0  0
  -27.2677  -33.3582   26.2061 H   0  0  0  0  0  0
  -28.3899  -32.6832   25.0311 H   0  0  0  0  0  0
  -28.0723  -31.8392   26.5400 H   0  0  0  0  0  0
  -28.2591  -38.0104   24.7496 H   0  0  0  0  0  0
  -28.1079  -36.2632   24.6276 H   0  0  0  0  0  0
  -27.2300  -37.1439   25.8867 H   0  0  0  0  0  0
  -20.9366  -29.8808   21.6916 H   0  0  0  0  0  0
  -26.0165  -38.2840   24.1402 H   0  0  0  0  0  0
  -28.3523  -17.7264   17.0059 H   0  0  0  0  0  0
  -29.1211  -15.8356   18.3116 H   0  0  0  0  0  0
  -29.9722  -18.4942   21.6089 H   0  0  0  0  0  0
  -26.3011  -20.2145   18.7749 H   0  0  0  0  0  0
  -26.0487  -20.0055   17.0393 H   0  0  0  0  0  0
  -26.4538  -21.6017   17.6915 H   0  0  0  0  0  0
  -30.4339  -21.1872   20.4248 H   0  0  0  0  0  0
  -29.1060  -20.9044   21.4994 H   0  0  0  0  0  0
  -27.5525  -22.1595   19.9870 H   0  0  0  0  0  0
  -28.8170  -22.3811   18.8058 H   0  0  0  0  0  0
  -30.0051  -24.0114   20.0527 H   0  0  0  0  0  0
  -29.0430  -23.7688   21.4818 H   0  0  0  0  0  0
  -27.0669  -24.7191   20.3900 H   0  0  0  0  0  0
  -27.8961  -24.8554   18.8529 H   0  0  0  0  0  0
  -29.1306  -15.5183   21.4825 H   0  0  0  0  0  0
  1 25  1  0  0  0
  1 30  2  0  0  0
  1 83  1  0  0  0
  2  3  1  0  0  0
  2 25  1  0  0  0
  2 85  1  0  0  0
  2 86  1  0  0  0
  3  4  1  0  0  0
  3 87  1  0  0  0
  3 88  1  0  0  0
  4  5  1  0  0  0
  4 89  1  0  0  0
  4 90  1  0  0  0
  5  6  1  0  0  0
  5 26  1  0  0  0
  5 91  1  0  0  0
  6 25  1  0  0  0
  6 92  1  0  0  0
  6 93  1  0  0  0
  7  8  2  0  0  0
  7 26  1  0  0  0
  7 29  1  0  0  0
  8  9  1  0  0  0
  8 22  1  0  0  0
  9 10  1  0  0  0
  9 27  2  0  0  0
 10 11  2  0  0  0
 10 15  1  0  0  0
 11 12  1  0  0  0
 11 94  1  0  0  0
 12 13  2  0  0  0
 12 95  1  0  0  0
 13 14  1  0  0  0
 13 31  1  0  0  0
 14 15  2  0  0  0
 14 96  1  0  0  0
 15 97  1  0  0  0
 16 17  2  0  0  0
 16 21  1  0  0  0
 16 31  1  0  0  0
 17 18  1  0  0  0
 17 98  1  0  0  0
 18 19  2  0  0  0
 18 99  1  0  0  0
 19 20  1  0  0  0
 19 24  1  0  0  0
 20 21  2  0  0  0
 20100  1  0  0  0
 21 23  1  0  0  0
 22 28  1  0  0  0
 22 32  2  0  0  0
 26 27  1  0  0  0
 28101  1  0  0  0
 28102  1  0  0  0
 29103  1  0  0  0
 29104  1  0  0  0
 33 34  1  0  0  0
 33 66  1  0  0  0
 33 70  2  0  0  0
 34 36  1  0  0  0
 34 59  1  0  0  0
 34105  1  0  0  0
 35 44  2  0  0  0
 35 45  1  0  0  0
 35 68  1  0  0  0
 36 56  1  0  0  0
 36106  1  0  0  0
 37 39  1  0  0  0
 37 47  1  0  0  0
 37 66  1  0  0  0
 37107  1  0  0  0
 38 43  2  0  0  0
 38 46  1  0  0  0
 38 47  1  0  0  0
 39 64  1  0  0  0
 39 67  2  0  0  0
 40 52  1  0  0  0
 40 53  2  0  0  0
 40 58  1  0  0  0
 41108  1  0  0  0
 41109  1  0  0  0
 41110  1  0  0  0
 41 48  1  0  0  0
 42 43  1  0  0  0
 42 66  1  0  0  0
 42111  1  0  0  0
 42112  1  0  0  0
 43 44  1  0  0  0
 44113  1  0  0  0
 45 46  2  0  0  0
 45114  1  0  0  0
 46115  1  0  0  0
 47116  1  0  0  0
 47117  1  0  0  0
 48 56  1  0  0  0
 48 65  1  0  0  0
 48118  1  0  0  0
 49 50  1  0  0  0
 49 53  1  0  0  0
 49 64  1  0  0  0
 49119  1  0  0  0
 50 51  1  0  0  0
 50120  1  0  0  0
 50121  1  0  0  0
 51 52  1  0  0  0
 51122  1  0  0  0
 51123  1  0  0  0
 52124  1  0  0  0
 52125  1  0  0  0
 53 54  1  0  0  0
 54 55  2  0  0  0
 54126  1  0  0  0
 55 57  1  0  0  0
 55127  1  0  0  0
 56 69  2  0  0  0
 57 58  2  0  0  0
 57128  1  0  0  0
 58129  1  0  0  0
 59 60  1  0  0  0
 59 61  1  0  0  0
 59 62  1  0  0  0
 60130  1  0  0  0
 60131  1  0  0  0
 60132  1  0  0  0
 61133  1  0  0  0
 61134  1  0  0  0
 61135  1  0  0  0
 62136  1  0  0  0
 62137  1  0  0  0
 62138  1  0  0  0
 63 65  1  0  0  0
 63139  1  0  0  0
 63140  1  0  0  0
 63141  1  0  0  0
 64142  1  0  0  0
 65143  1  0  0  0
 68 82  1  0  0  0
 71 72  2  0  0  0
 71 74  1  0  0  0
 71144  1  0  0  0
 72 76  1  0  0  0
 72145  1  0  0  0
 73 75  1  0  0  0
 73 76  2  0  0  0
 73146  1  0  0  0
 74 75  2  0  0  0
 74 77  1  0  0  0
 75 79  1  0  0  0
 76 83  1  0  0  0
 77 78  1  0  0  0
 77 84  2  0  0  0
 78147  1  0  0  0
 78148  1  0  0  0
 78149  1  0  0  0
 79 80  1  0  0  0
 79150  1  0  0  0
 79151  1  0  0  0
 80 81  1  0  0  0
 80152  1  0  0  0
 80153  1  0  0  0
 81 82  1  0  0  0
 81154  1  0  0  0
 81155  1  0  0  0
 82156  1  0  0  0
 82157  1  0  0  0
 83158  1  0  0  0
M  ISO  4   1 100  68 101  82 101  83 100
M  END
> <chiral flag>
0

> <version>
0

> <s_m_source_file>
/data/baiqing/PycharmProjects/Reinvent-master-3.2/result/LINK_invent/BTK/process_docking_weight1_custom_product_contain_oxygen_bond_distance_aromatic_linkinvent_7_9_3/rearranged_h_0134.sdf

> <i_m_source_file_index>
29

> <r_mmod_Potential_Energy-OPLS-2005>
203.775741577148

> <r_mmod_Stretch_Energy-OPLS-2005>
104.211502075195

> <r_mmod_Bend_Energy-OPLS-2005>
159.176239013672

> <r_mmod_Torsional_Energy-OPLS-2005>
300.768646240234

> <r_mmod_Improper_Torsional_Energy-OPLS-2005>
6.18643522262573

> <r_mmod_Van_der_Waal_Energy-OPLS-2005>
145.906494140625

> <r_mmod_Electrostatic_Energy-OPLS-2005>
-352.977294921875

> <r_mmod_Solvation_Energy-OPLS-2005>
-222.302017211914

> <b_mmod_Minimization_Converged-OPLS-2005>
0

> <r_mmod_RMS_Derivative-OPLS-2005>
3.4151349067688

$$$$
29
                    3D
 Structure written by MMmdl.
159167  0  0  1  0            999 V2000
  -30.7460  -14.3996   20.6165 C   0  0  0  0  0  0
  -30.4107  -12.2750   19.4110 C   0  0  0  0  0  0
  -29.4873  -12.5072   18.2002 C   0  0  0  0  0  0
  -28.0094  -12.3730   18.6138 C   0  0  0  0  0  0
  -27.6646  -13.2071   19.8768 C   0  0  2  0  0  0
  -28.7064  -12.9819   20.9968 C   0  0  0  0  0  0
  -25.2607  -13.8169   20.5689 C   0  0  0  0  0  0
  -24.1854  -13.0443   20.9169 C   0  0  0  0  0  0
  -24.6399  -11.6907   20.8727 C   0  0  0  0  0  0
  -23.9063  -10.4291   21.0401 C   0  0  0  0  0  0
  -24.3609   -9.4209   21.9188 C   0  0  0  0  0  0
  -23.6284   -8.2247   22.0760 C   0  0  0  0  0  0
  -22.4269   -8.0282   21.3544 C   0  0  0  0  0  0
  -21.9909   -9.0254   20.4644 C   0  0  0  0  0  0
  -22.7234  -10.2136   20.3051 C   0  0  0  0  0  0
  -21.6849   -6.0737   22.5273 C   0  0  0  0  0  0
  -21.4011   -6.5639   23.8207 C   0  0  0  0  0  0
  -21.3660   -5.6793   24.9174 C   0  0  0  0  0  0
  -21.6043   -4.3056   24.7221 C   0  0  0  0  0  0
  -21.8821   -3.8149   23.4340 C   0  0  0  0  0  0
  -21.9193   -4.6968   22.3397 C   0  0  0  0  0  0
  -22.7875  -13.5242   21.1832 C   0  0  0  0  0  0
  -22.1664   -4.2155   21.0977 F   0  0  0  0  0  0
  -21.5631   -3.4539   25.7736 F   0  0  0  0  0  0
  -30.0418  -13.2516   20.4459 N   0  0  0  0  0  0
  -26.3050  -12.9339   20.3386 N   0  0  0  0  0  0
  -25.9333  -11.6495   20.5769 N   0  0  0  0  0  0
  -22.0512  -12.8230   22.0376 N   0  0  0  0  0  0
  -25.4338  -15.1887   20.4107 N   0  0  0  0  0  0
  -31.8424  -14.5733   20.0745 O   0  0  0  0  0  0
  -21.6631   -6.8881   21.4236 O   0  0  0  0  0  0
  -22.3566  -14.5554   20.6688 O   0  0  0  0  0  0
  -24.6082  -31.8716   23.2124 C   0  0  0  0  0  0
  -25.9001  -32.4846   23.8403 C   0  0  1  0  0  0
  -27.2488  -27.4809   20.1023 C   0  0  0  0  0  0
  -25.5882  -33.8643   24.2344 N   0  0  0  0  0  0
  -23.3936  -30.4926   21.5518 C   0  0  2  0  0  0
  -24.8447  -28.9641   20.1148 C   0  0  0  0  0  0
  -22.7374  -29.4664   22.5021 C   0  0  0  0  0  0
  -18.0265  -28.1367   22.8496 C   0  0  0  0  0  0
  -24.1488  -36.7317   23.2640 C   0  0  0  0  0  0
  -25.9140  -30.8561   21.3542 C   0  0  0  0  0  0
  -25.9969  -29.4913   20.7097 C   0  0  0  0  0  0
  -27.2004  -28.7601   20.7034 C   0  0  0  0  0  0
  -26.0851  -26.9653   19.4965 C   0  0  0  0  0  0
  -24.8812  -27.6970   19.5046 C   0  0  0  0  0  0
  -23.5995  -29.8201   20.1664 C   0  0  0  0  0  0
  -25.4108  -36.3127   24.0342 C   0  0  1  0  0  0
  -20.5848  -28.3643   23.1346 C   0  0  2  0  0  0
  -20.6752  -26.9387   22.5433 C   0  0  0  0  0  0
  -19.5743  -26.6385   21.5210 C   0  0  0  0  0  0
  -18.1912  -26.7925   22.1600 C   0  0  0  0  0  0
  -19.1511  -28.8822   23.2919 C   0  0  0  0  0  0
  -18.9441  -30.1434   23.8922 C   0  0  0  0  0  0
  -17.6444  -30.6576   24.0568 C   0  0  0  0  0  0
  -25.9033  -34.9493   23.5141 C   0  0  0  0  0  0
  -16.5338  -29.9080   23.6322 C   0  0  0  0  0  0
  -16.7254  -28.6496   23.0346 C   0  0  0  0  0  0
  -26.4452  -31.6599   25.0699 C   0  0  0  0  0  0
  -25.3736  -31.3672   26.1454 C   0  0  0  0  0  0
  -27.0270  -30.3055   24.6014 C   0  0  0  0  0  0
  -27.6031  -32.4299   25.7475 C   0  0  0  0  0  0
  -27.5591  -37.1814   24.8461 C   0  0  0  0  0  0
  -21.4110  -29.3015   22.3756 N   0  0  0  0  0  0
  -26.4299  -37.3806   23.9414 N   0  0  0  0  0  0
  -24.6566  -31.0864   22.0995 N   0  0  0  0  0  0
  -23.4174  -28.8226   23.3055 O   0  0  0  0  0  0
  -28.3800  -26.6992   20.0646 O   0  0  0  0  0  0
  -26.5589  -34.8937   22.4698 O   0  0  0  0  0  0
  -23.5288  -32.1437   23.7554 O   0  0  0  0  0  0
  -28.8968  -20.0437   21.2880 C   0  0  0  0  0  0
  -30.2014  -19.9852   23.3480 C   0  0  0  0  0  0
  -29.4028  -18.7803   20.9312 C   0  0  0  0  0  0
  -30.7070  -18.7192   22.9914 C   0  0  0  0  0  0
  -29.3162  -20.6630   22.4827 C   0  0  0  0  0  0
  -30.3308  -18.1269   21.7676 C   0  0  0  0  0  0
  -29.2685  -24.5479   22.1299 C   0  0  0  0  0  0
  -28.8699  -22.0803   22.7875 C   0  0  0  0  0  0
  -30.9987  -16.8515   21.2886 C   0  0  0  0  0  0
  -29.6956  -23.0895   21.9670 C   0  0  0  0  0  0
  -30.0916  -25.5810   21.3528 C   0  0  0  0  0  0
  -30.1417  -15.5711   21.4147 C   0  0  0  0  0  0
  -29.3575  -26.9043   21.0834 C   0  0  0  0  0  0
  -28.3285  -24.8710   22.8632 O   0  0  0  0  0  0
  -31.4568  -12.3496   19.1097 H   0  0  0  0  0  0
  -30.2873  -11.2621   19.7968 H   0  0  0  0  0  0
  -29.7189  -11.7958   17.4065 H   0  0  0  0  0  0
  -29.6652  -13.5004   17.7844 H   0  0  0  0  0  0
  -27.8125  -11.3173   18.8015 H   0  0  0  0  0  0
  -27.3595  -12.6597   17.7864 H   0  0  0  0  0  0
  -27.7128  -14.2566   19.5864 H   0  0  0  0  0  0
  -28.6654  -11.9511   21.3526 H   0  0  0  0  0  0
  -28.4790  -13.6007   21.8646 H   0  0  0  0  0  0
  -25.2751   -9.5690   22.4765 H   0  0  0  0  0  0
  -23.9989   -7.4647   22.7487 H   0  0  0  0  0  0
  -21.0844   -8.8766   19.8949 H   0  0  0  0  0  0
  -22.3689  -10.9673   19.6159 H   0  0  0  0  0  0
  -21.1998   -7.6149   23.9711 H   0  0  0  0  0  0
  -21.1484   -6.0526   25.9076 H   0  0  0  0  0  0
  -22.0602   -2.7612   23.2838 H   0  0  0  0  0  0
  -22.4114  -11.9876   22.4746 H   0  0  0  0  0  0
  -21.1136  -13.1272   22.2585 H   0  0  0  0  0  0
  -24.6725  -15.8489   20.5255 H   0  0  0  0  0  0
  -26.2971  -15.6277   20.1155 H   0  0  0  0  0  0
  -26.7080  -32.5597   23.1184 H   0  0  0  0  0  0
  -25.0064  -33.9812   25.0511 H   0  0  0  0  0  0
  -22.6785  -31.3059   21.4129 H   0  0  0  0  0  0
  -23.3767  -35.9630   23.3278 H   0  0  0  0  0  0
  -24.3595  -36.8954   22.2059 H   0  0  0  0  0  0
  -23.7210  -37.6503   23.6667 H   0  0  0  0  0  0
  -26.0085  -31.6204   20.5811 H   0  0  0  0  0  0
  -26.8073  -30.9213   21.9631 H   0  0  0  0  0  0
  -28.0817  -29.1935   21.1537 H   0  0  0  0  0  0
  -26.1112  -25.9909   19.0287 H   0  0  0  0  0  0
  -23.9956  -27.2842   19.0408 H   0  0  0  0  0  0
  -23.6943  -30.5915   19.4016 H   0  0  0  0  0  0
  -22.7277  -29.2284   19.8807 H   0  0  0  0  0  0
  -25.1280  -36.1996   25.0835 H   0  0  0  0  0  0
  -20.9936  -28.3205   24.1467 H   0  0  0  0  0  0
  -20.5646  -26.2245   23.3607 H   0  0  0  0  0  0
  -21.6631  -26.7427   22.1239 H   0  0  0  0  0  0
  -19.6910  -25.6300   21.1226 H   0  0  0  0  0  0
  -19.6703  -27.3203   20.6750 H   0  0  0  0  0  0
  -17.4200  -26.6709   21.3979 H   0  0  0  0  0  0
  -18.0279  -26.0042   22.8964 H   0  0  0  0  0  0
  -19.7917  -30.7246   24.2301 H   0  0  0  0  0  0
  -17.4997  -31.6257   24.5168 H   0  0  0  0  0  0
  -15.5341  -30.2993   23.7626 H   0  0  0  0  0  0
  -15.8654  -28.0827   22.7043 H   0  0  0  0  0  0
  -24.5939  -30.6980   25.7797 H   0  0  0  0  0  0
  -24.8887  -32.2812   26.4893 H   0  0  0  0  0  0
  -25.8115  -30.8868   27.0212 H   0  0  0  0  0  0
  -26.2792  -29.6845   24.1069 H   0  0  0  0  0  0
  -27.4066  -29.7255   25.4436 H   0  0  0  0  0  0
  -27.8613  -30.4391   23.9121 H   0  0  0  0  0  0
  -27.2647  -33.3583   26.2089 H   0  0  0  0  0  0
  -28.3837  -32.6879   25.0306 H   0  0  0  0  0  0
  -28.0697  -31.8389   26.5367 H   0  0  0  0  0  0
  -28.2600  -38.0121   24.7538 H   0  0  0  0  0  0
  -28.1097  -36.2657   24.6253 H   0  0  0  0  0  0
  -27.2316  -37.1428   25.8865 H   0  0  0  0  0  0
  -20.9260  -29.8731   21.6979 H   0  0  0  0  0  0
  -26.0196  -38.2883   24.1434 H   0  0  0  0  0  0
  -28.2182  -20.5552   20.6185 H   0  0  0  0  0  0
  -30.5284  -20.4492   24.2689 H   0  0  0  0  0  0
  -29.1114  -18.3372   19.9884 H   0  0  0  0  0  0
  -31.4203  -18.2286   23.6401 H   0  0  0  0  0  0
  -28.9759  -22.2813   23.8546 H   0  0  0  0  0  0
  -27.8075  -22.1765   22.5575 H   0  0  0  0  0  0
  -31.9420  -16.7155   21.8202 H   0  0  0  0  0  0
  -31.2711  -17.0225   20.2452 H   0  0  0  0  0  0
  -30.7489  -23.0103   22.2359 H   0  0  0  0  0  0
  -29.6243  -22.8439   20.9077 H   0  0  0  0  0  0
  -30.4294  -25.1421   20.4141 H   0  0  0  0  0  0
  -30.9870  -25.7830   21.9403 H   0  0  0  0  0  0
  -29.1438  -15.7687   21.0230 H   0  0  0  0  0  0
  -30.0316  -15.2914   22.4623 H   0  0  0  0  0  0
  -30.0673  -27.6595   20.7439 H   0  0  0  0  0  0
  -28.9239  -27.2706   22.0160 H   0  0  0  0  0  0
  1 25  1  0  0  0
  1 30  2  0  0  0
  1 82  1  0  0  0
  2  3  1  0  0  0
  2 25  1  0  0  0
  2 85  1  0  0  0
  2 86  1  0  0  0
  3  4  1  0  0  0
  3 87  1  0  0  0
  3 88  1  0  0  0
  4  5  1  0  0  0
  4 89  1  0  0  0
  4 90  1  0  0  0
  5  6  1  0  0  0
  5 26  1  0  0  0
  5 91  1  0  0  0
  6 25  1  0  0  0
  6 92  1  0  0  0
  6 93  1  0  0  0
  7  8  2  0  0  0
  7 26  1  0  0  0
  7 29  1  0  0  0
  8  9  1  0  0  0
  8 22  1  0  0  0
  9 10  1  0  0  0
  9 27  2  0  0  0
 10 11  2  0  0  0
 10 15  1  0  0  0
 11 12  1  0  0  0
 11 94  1  0  0  0
 12 13  2  0  0  0
 12 95  1  0  0  0
 13 14  1  0  0  0
 13 31  1  0  0  0
 14 15  2  0  0  0
 14 96  1  0  0  0
 15 97  1  0  0  0
 16 17  2  0  0  0
 16 21  1  0  0  0
 16 31  1  0  0  0
 17 18  1  0  0  0
 17 98  1  0  0  0
 18 19  2  0  0  0
 18 99  1  0  0  0
 19 20  1  0  0  0
 19 24  1  0  0  0
 20 21  2  0  0  0
 20100  1  0  0  0
 21 23  1  0  0  0
 22 28  1  0  0  0
 22 32  2  0  0  0
 26 27  1  0  0  0
 28101  1  0  0  0
 28102  1  0  0  0
 29103  1  0  0  0
 29104  1  0  0  0
 33 34  1  0  0  0
 33 66  1  0  0  0
 33 70  2  0  0  0
 34 36  1  0  0  0
 34 59  1  0  0  0
 34105  1  0  0  0
 35 44  2  0  0  0
 35 45  1  0  0  0
 35 68  1  0  0  0
 36 56  1  0  0  0
 36106  1  0  0  0
 37 39  1  0  0  0
 37 47  1  0  0  0
 37 66  1  0  0  0
 37107  1  0  0  0
 38 43  2  0  0  0
 38 46  1  0  0  0
 38 47  1  0  0  0
 39 64  1  0  0  0
 39 67  2  0  0  0
 40 52  1  0  0  0
 40 53  2  0  0  0
 40 58  1  0  0  0
 41108  1  0  0  0
 41109  1  0  0  0
 41110  1  0  0  0
 41 48  1  0  0  0
 42 43  1  0  0  0
 42 66  1  0  0  0
 42111  1  0  0  0
 42112  1  0  0  0
 43 44  1  0  0  0
 44113  1  0  0  0
 45 46  2  0  0  0
 45114  1  0  0  0
 46115  1  0  0  0
 47116  1  0  0  0
 47117  1  0  0  0
 48 56  1  0  0  0
 48 65  1  0  0  0
 48118  1  0  0  0
 49 50  1  0  0  0
 49 53  1  0  0  0
 49 64  1  0  0  0
 49119  1  0  0  0
 50 51  1  0  0  0
 50120  1  0  0  0
 50121  1  0  0  0
 51 52  1  0  0  0
 51122  1  0  0  0
 51123  1  0  0  0
 52124  1  0  0  0
 52125  1  0  0  0
 53 54  1  0  0  0
 54 55  2  0  0  0
 54126  1  0  0  0
 55 57  1  0  0  0
 55127  1  0  0  0
 56 69  2  0  0  0
 57 58  2  0  0  0
 57128  1  0  0  0
 58129  1  0  0  0
 59 60  1  0  0  0
 59 61  1  0  0  0
 59 62  1  0  0  0
 60130  1  0  0  0
 60131  1  0  0  0
 60132  1  0  0  0
 61133  1  0  0  0
 61134  1  0  0  0
 61135  1  0  0  0
 62136  1  0  0  0
 62137  1  0  0  0
 62138  1  0  0  0
 63 65  1  0  0  0
 63139  1  0  0  0
 63140  1  0  0  0
 63141  1  0  0  0
 64142  1  0  0  0
 65143  1  0  0  0
 68 83  1  0  0  0
 71 73  2  0  0  0
 71 75  1  0  0  0
 71144  1  0  0  0
 72 74  1  0  0  0
 72 75  2  0  0  0
 72145  1  0  0  0
 73 76  1  0  0  0
 73146  1  0  0  0
 74 76  2  0  0  0
 74147  1  0  0  0
 75 78  1  0  0  0
 76 79  1  0  0  0
 77 80  1  0  0  0
 77 81  1  0  0  0
 77 84  2  0  0  0
 78 80  1  0  0  0
 78148  1  0  0  0
 78149  1  0  0  0
 79 82  1  0  0  0
 79150  1  0  0  0
 79151  1  0  0  0
 80152  1  0  0  0
 80153  1  0  0  0
 81 83  1  0  0  0
 81154  1  0  0  0
 81155  1  0  0  0
 82156  1  0  0  0
 82157  1  0  0  0
 83158  1  0  0  0
 83159  1  0  0  0
M  ISO  4   1 100  68 101  82 100  83 101
M  END
> <chiral flag>
0

> <version>
0

> <s_m_source_file>
/data/baiqing/PycharmProjects/Reinvent-master-3.2/result/LINK_invent/BTK/process_docking_weight1_custom_product_contain_oxygen_bond_distance_aromatic_linkinvent_7_9_3/rearranged_h_0134.sdf

> <i_m_source_file_index>
30

> <r_mmod_Potential_Energy-OPLS-2005>
-123.549751281738

> <r_mmod_Stretch_Energy-OPLS-2005>
31.1128635406494

> <r_mmod_Bend_Energy-OPLS-2005>
87.803337097168

> <r_mmod_Torsional_Energy-OPLS-2005>
162.945419311523

> <r_mmod_Improper_Torsional_Energy-OPLS-2005>
2.71416592597961

> <r_mmod_Van_der_Waal_Energy-OPLS-2005>
154.510345458984

> <r_mmod_Electrostatic_Energy-OPLS-2005>
-365.658447265625

> <r_mmod_Solvation_Energy-OPLS-2005>
-204.842971801758

> <b_mmod_Minimization_Converged-OPLS-2005>
0

> <r_mmod_RMS_Derivative-OPLS-2005>
0.86979478597641

$$$$
30
                    3D
 Structure written by MMmdl.
159167  0  0  1  0            999 V2000
  -30.6269  -14.7429   20.4648 C   0  0  0  0  0  0
  -30.4275  -12.4552   19.4733 C   0  0  0  0  0  0
  -29.5071  -12.5084   18.2348 C   0  0  0  0  0  0
  -28.0354  -12.3276   18.6527 C   0  0  0  0  0  0
  -27.6402  -13.2337   19.8496 C   0  0  2  0  0  0
  -28.6856  -13.1806   20.9851 C   0  0  0  0  0  0
  -25.2500  -13.8204   20.5687 C   0  0  0  0  0  0
  -24.1802  -13.0442   20.9223 C   0  0  0  0  0  0
  -24.6407  -11.6929   20.8766 C   0  0  0  0  0  0
  -23.9093  -10.4302   21.0427 C   0  0  0  0  0  0
  -24.3637   -9.4205   21.9199 C   0  0  0  0  0  0
  -23.6302   -8.2243   22.0760 C   0  0  0  0  0  0
  -22.4284   -8.0289   21.3547 C   0  0  0  0  0  0
  -21.9931   -9.0269   20.4652 C   0  0  0  0  0  0
  -22.7268  -10.2146   20.3067 C   0  0  0  0  0  0
  -21.6854   -6.0748   22.5283 C   0  0  0  0  0  0
  -21.4014   -6.5650   23.8219 C   0  0  0  0  0  0
  -21.3657   -5.6798   24.9180 C   0  0  0  0  0  0
  -21.6039   -4.3061   24.7226 C   0  0  0  0  0  0
  -21.8819   -3.8158   23.4348 C   0  0  0  0  0  0
  -21.9188   -4.6976   22.3402 C   0  0  0  0  0  0
  -22.7825  -13.5214   21.1875 C   0  0  0  0  0  0
  -22.1658   -4.2162   21.0977 F   0  0  0  0  0  0
  -21.5625   -3.4543   25.7741 F   0  0  0  0  0  0
  -29.9856  -13.5252   20.3978 N   0  0  0  0  0  0
  -26.2938  -12.9419   20.3292 N   0  0  0  0  0  0
  -25.9337  -11.6565   20.5769 N   0  0  0  0  0  0
  -22.0475  -12.8199   22.0440 N   0  0  0  0  0  0
  -25.4168  -15.1923   20.4086 N   0  0  0  0  0  0
  -31.8199  -14.8074   20.1556 O   0  0  0  0  0  0
  -21.6636   -6.8890   21.4249 O   0  0  0  0  0  0
  -22.3511  -14.5524   20.6730 O   0  0  0  0  0  0
  -24.6300  -31.8548   23.1973 C   0  0  0  0  0  0
  -25.9130  -32.4754   23.8321 C   0  0  1  0  0  0
  -27.2199  -27.2656   20.1322 C   0  0  0  0  0  0
  -25.5939  -33.8548   24.2253 N   0  0  0  0  0  0
  -23.4270  -30.4749   21.5412 C   0  0  2  0  0  0
  -24.8755  -28.9192   20.1132 C   0  0  0  0  0  0
  -22.7503  -29.4571   22.4918 C   0  0  0  0  0  0
  -18.0287  -28.1358   22.8477 C   0  0  0  0  0  0
  -24.1489  -36.7280   23.2644 C   0  0  0  0  0  0
  -25.9719  -30.7691   21.3760 C   0  0  0  0  0  0
  -26.0462  -29.3902   20.7206 C   0  0  0  0  0  0
  -27.2249  -28.5770   20.7155 C   0  0  0  0  0  0
  -26.0279  -26.8561   19.5002 C   0  0  0  0  0  0
  -24.8694  -27.6581   19.4921 C   0  0  0  0  0  0
  -23.6467  -29.8084   20.1579 C   0  0  0  0  0  0
  -25.4114  -36.3054   24.0322 C   0  0  1  0  0  0
  -20.5888  -28.3669   23.1267 C   0  0  2  0  0  0
  -20.6774  -26.9385   22.5405 C   0  0  0  0  0  0
  -19.5755  -26.6363   21.5201 C   0  0  0  0  0  0
  -18.1925  -26.7906   22.1601 C   0  0  0  0  0  0
  -19.1543  -28.8831   23.2858 C   0  0  0  0  0  0
  -18.9479  -30.1431   23.8879 C   0  0  0  0  0  0
  -17.6479  -30.6573   24.0544 C   0  0  0  0  0  0
  -25.9061  -34.9429   23.5086 C   0  0  0  0  0  0
  -16.5360  -29.9071   23.6320 C   0  0  0  0  0  0
  -16.7274  -28.6477   23.0356 C   0  0  0  0  0  0
  -26.4511  -31.6591   25.0719 C   0  0  0  0  0  0
  -25.3734  -31.3746   26.1446 C   0  0  0  0  0  0
  -27.0376  -30.3012   24.6205 C   0  0  0  0  0  0
  -27.6070  -32.4331   25.7484 C   0  0  0  0  0  0
  -27.5578  -37.1785   24.8460 C   0  0  0  0  0  0
  -21.4213  -29.3015   22.3669 N   0  0  0  0  0  0
  -26.4282  -37.3755   23.9408 N   0  0  0  0  0  0
  -24.6944  -31.0514   22.0947 N   0  0  0  0  0  0
  -23.4209  -28.8126   23.3014 O   0  0  0  0  0  0
  -28.3164  -26.3780   20.1370 O   0  0  0  0  0  0
  -26.5636  -34.8915   22.4660 O   0  0  0  0  0  0
  -23.5455  -32.1377   23.7278 O   0  0  0  0  0  0
  -31.9935  -19.0439   21.0327 C   0  0  0  0  0  0
  -31.5633  -17.7014   21.0442 C   0  0  0  0  0  0
  -29.3637  -18.4579   20.3729 C   0  0  0  0  0  0
  -31.1408  -20.1107   20.6615 C   0  0  0  0  0  0
  -30.2504  -17.3381   20.6706 C   0  0  0  0  0  0
  -29.7680  -19.8632   20.3678 C   0  0  0  0  0  0
  -31.7828  -21.4330   20.4260 C   0  0  0  0  0  0
  -32.7672  -23.5694   21.4461 C   0  0  0  0  0  0
  -32.5538  -22.0510   21.5967 C   0  0  0  0  0  0
  -28.6884  -23.6490   19.8998 C   0  0  0  0  0  0
  -28.1220  -24.9748   20.6461 C   0  0  0  0  0  0
  -28.7299  -22.2249   20.6868 C   0  0  0  0  0  0
  -29.8634  -15.8958   20.6417 N   0  0  0  0  0  0
  -31.6967  -22.0378   19.3534 O   0  0  0  0  0  0
  -28.8872  -20.9183   19.9681 O   0  0  0  0  0  0
  -31.4694  -12.5710   19.1716 H   0  0  0  0  0  0
  -30.3639  -11.4806   19.9618 H   0  0  0  0  0  0
  -29.7904  -11.7349   17.5192 H   0  0  0  0  0  0
  -29.6308  -13.4629   17.7211 H   0  0  0  0  0  0
  -27.8999  -11.2803   18.9255 H   0  0  0  0  0  0
  -27.3740  -12.5079   17.8040 H   0  0  0  0  0  0
  -27.6308  -14.2520   19.4600 H   0  0  0  0  0  0
  -28.7205  -12.1899   21.4417 H   0  0  0  0  0  0
  -28.4215  -13.8760   21.7834 H   0  0  0  0  0  0
  -25.2786   -9.5672   22.4780 H   0  0  0  0  0  0
  -24.0004   -7.4636   22.7485 H   0  0  0  0  0  0
  -21.0862   -8.8812   19.8960 H   0  0  0  0  0  0
  -22.3743  -10.9697   19.6181 H   0  0  0  0  0  0
  -21.2014   -7.6162   23.9728 H   0  0  0  0  0  0
  -21.1473   -6.0529   25.9080 H   0  0  0  0  0  0
  -22.0597   -2.7623   23.2846 H   0  0  0  0  0  0
  -22.4079  -11.9836   22.4797 H   0  0  0  0  0  0
  -21.1111  -13.1243   22.2679 H   0  0  0  0  0  0
  -24.6430  -15.8410   20.5043 H   0  0  0  0  0  0
  -26.2582  -15.6358   20.0640 H   0  0  0  0  0  0
  -26.7210  -32.5414   23.1080 H   0  0  0  0  0  0
  -25.0061  -33.9678   25.0382 H   0  0  0  0  0  0
  -22.7210  -31.2957   21.3967 H   0  0  0  0  0  0
  -23.3752  -35.9615   23.3290 H   0  0  0  0  0  0
  -24.3576  -36.8928   22.2062 H   0  0  0  0  0  0
  -23.7251  -37.6473   23.6694 H   0  0  0  0  0  0
  -26.1064  -31.5299   20.6054 H   0  0  0  0  0  0
  -26.8477  -30.8195   22.0100 H   0  0  0  0  0  0
  -28.1245  -28.9337   21.1988 H   0  0  0  0  0  0
  -25.9845  -25.8887   19.0194 H   0  0  0  0  0  0
  -23.9728  -27.2916   19.0103 H   0  0  0  0  0  0
  -23.7731  -30.5859   19.4031 H   0  0  0  0  0  0
  -22.7652  -29.2435   19.8501 H   0  0  0  0  0  0
  -25.1296  -36.1897   25.0814 H   0  0  0  0  0  0
  -20.9961  -28.3263   24.1397 H   0  0  0  0  0  0
  -20.5661  -26.2285   23.3608 H   0  0  0  0  0  0
  -21.6652  -26.7411   22.1206 H   0  0  0  0  0  0
  -19.6923  -25.6275   21.1225 H   0  0  0  0  0  0
  -19.6709  -27.3182   20.6730 H   0  0  0  0  0  0
  -17.4200  -26.6649   21.3991 H   0  0  0  0  0  0
  -18.0316  -26.0046   22.8994 H   0  0  0  0  0  0
  -19.7966  -30.7223   24.2263 H   0  0  0  0  0  0
  -17.5046  -31.6259   24.5147 H   0  0  0  0  0  0
  -15.5361  -30.2967   23.7666 H   0  0  0  0  0  0
  -15.8668  -28.0790   22.7098 H   0  0  0  0  0  0
  -24.5919  -30.7080   25.7797 H   0  0  0  0  0  0
  -24.8909  -32.2914   26.4845 H   0  0  0  0  0  0
  -25.8042  -30.8964   27.0253 H   0  0  0  0  0  0
  -26.2963  -29.6730   24.1245 H   0  0  0  0  0  0
  -27.4102  -29.7302   25.4723 H   0  0  0  0  0  0
  -27.8822  -30.4301   23.9421 H   0  0  0  0  0  0
  -27.2694  -33.3653   26.2017 H   0  0  0  0  0  0
  -28.3891  -32.6846   25.0308 H   0  0  0  0  0  0
  -28.0721  -31.8476   26.5425 H   0  0  0  0  0  0
  -28.2580  -38.0099   24.7513 H   0  0  0  0  0  0
  -28.1081  -36.2620   24.6263 H   0  0  0  0  0  0
  -27.2289  -37.1407   25.8863 H   0  0  0  0  0  0
  -20.9407  -29.8761   21.6895 H   0  0  0  0  0  0
  -26.0160  -38.2825   24.1441 H   0  0  0  0  0  0
  -33.0327  -19.2439   21.2577 H   0  0  0  0  0  0
  -32.2855  -16.9481   21.3233 H   0  0  0  0  0  0
  -28.3398  -18.2362   20.1103 H   0  0  0  0  0  0
  -33.2538  -23.9864   22.3277 H   0  0  0  0  0  0
  -31.8191  -24.0916   21.3139 H   0  0  0  0  0  0
  -33.3966  -23.7975   20.5845 H   0  0  0  0  0  0
  -33.5162  -21.5496   21.6925 H   0  0  0  0  0  0
  -32.0014  -21.8484   22.5137 H   0  0  0  0  0  0
  -29.6986  -23.8646   19.5547 H   0  0  0  0  0  0
  -28.1036  -23.5094   18.9904 H   0  0  0  0  0  0
  -28.5748  -24.9838   21.6371 H   0  0  0  0  0  0
  -27.0637  -24.8045   20.8455 H   0  0  0  0  0  0
  -27.7696  -22.1280   21.1942 H   0  0  0  0  0  0
  -29.4440  -22.2944   21.5052 H   0  0  0  0  0  0
  -28.8744  -15.7158   20.7194 H   0  0  0  0  0  0
  1 25  1  0  0  0
  1 30  2  0  0  0
  1 83  1  0  0  0
  2  3  1  0  0  0
  2 25  1  0  0  0
  2 86  1  0  0  0
  2 87  1  0  0  0
  3  4  1  0  0  0
  3 88  1  0  0  0
  3 89  1  0  0  0
  4  5  1  0  0  0
  4 90  1  0  0  0
  4 91  1  0  0  0
  5  6  1  0  0  0
  5 26  1  0  0  0
  5 92  1  0  0  0
  6 25  1  0  0  0
  6 93  1  0  0  0
  6 94  1  0  0  0
  7  8  2  0  0  0
  7 26  1  0  0  0
  7 29  1  0  0  0
  8  9  1  0  0  0
  8 22  1  0  0  0
  9 10  1  0  0  0
  9 27  2  0  0  0
 10 11  2  0  0  0
 10 15  1  0  0  0
 11 12  1  0  0  0
 11 95  1  0  0  0
 12 13  2  0  0  0
 12 96  1  0  0  0
 13 14  1  0  0  0
 13 31  1  0  0  0
 14 15  2  0  0  0
 14 97  1  0  0  0
 15 98  1  0  0  0
 16 17  2  0  0  0
 16 21  1  0  0  0
 16 31  1  0  0  0
 17 18  1  0  0  0
 17 99  1  0  0  0
 18 19  2  0  0  0
 18100  1  0  0  0
 19 20  1  0  0  0
 19 24  1  0  0  0
 20 21  2  0  0  0
 20101  1  0  0  0
 21 23  1  0  0  0
 22 28  1  0  0  0
 22 32  2  0  0  0
 26 27  1  0  0  0
 28102  1  0  0  0
 28103  1  0  0  0
 29104  1  0  0  0
 29105  1  0  0  0
 33 34  1  0  0  0
 33 66  1  0  0  0
 33 70  2  0  0  0
 34 36  1  0  0  0
 34 59  1  0  0  0
 34106  1  0  0  0
 35 44  2  0  0  0
 35 45  1  0  0  0
 35 68  1  0  0  0
 36 56  1  0  0  0
 36107  1  0  0  0
 37 39  1  0  0  0
 37 47  1  0  0  0
 37 66  1  0  0  0
 37108  1  0  0  0
 38 43  2  0  0  0
 38 46  1  0  0  0
 38 47  1  0  0  0
 39 64  1  0  0  0
 39 67  2  0  0  0
 40 52  1  0  0  0
 40 53  2  0  0  0
 40 58  1  0  0  0
 41109  1  0  0  0
 41110  1  0  0  0
 41111  1  0  0  0
 41 48  1  0  0  0
 42 43  1  0  0  0
 42 66  1  0  0  0
 42112  1  0  0  0
 42113  1  0  0  0
 43 44  1  0  0  0
 44114  1  0  0  0
 45 46  2  0  0  0
 45115  1  0  0  0
 46116  1  0  0  0
 47117  1  0  0  0
 47118  1  0  0  0
 48 56  1  0  0  0
 48 65  1  0  0  0
 48119  1  0  0  0
 49 50  1  0  0  0
 49 53  1  0  0  0
 49 64  1  0  0  0
 49120  1  0  0  0
 50 51  1  0  0  0
 50121  1  0  0  0
 50122  1  0  0  0
 51 52  1  0  0  0
 51123  1  0  0  0
 51124  1  0  0  0
 52125  1  0  0  0
 52126  1  0  0  0
 53 54  1  0  0  0
 54 55  2  0  0  0
 54127  1  0  0  0
 55 57  1  0  0  0
 55128  1  0  0  0
 56 69  2  0  0  0
 57 58  2  0  0  0
 57129  1  0  0  0
 58130  1  0  0  0
 59 60  1  0  0  0
 59 61  1  0  0  0
 59 62  1  0  0  0
 60131  1  0  0  0
 60132  1  0  0  0
 60133  1  0  0  0
 61134  1  0  0  0
 61135  1  0  0  0
 61136  1  0  0  0
 62137  1  0  0  0
 62138  1  0  0  0
 62139  1  0  0  0
 63 65  1  0  0  0
 63140  1  0  0  0
 63141  1  0  0  0
 63142  1  0  0  0
 64143  1  0  0  0
 65144  1  0  0  0
 68 81  1  0  0  0
 71 72  2  0  0  0
 71 74  1  0  0  0
 71145  1  0  0  0
 72 75  1  0  0  0
 72146  1  0  0  0
 73 75  2  0  0  0
 73 76  1  0  0  0
 73147  1  0  0  0
 74 76  2  0  0  0
 74 77  1  0  0  0
 75 83  1  0  0  0
 76 85  1  0  0  0
 77 79  1  0  0  0
 77 84  2  0  0  0
 78 79  1  0  0  0
 78148  1  0  0  0
 78149  1  0  0  0
 78150  1  0  0  0
 79151  1  0  0  0
 79152  1  0  0  0
 80 81  1  0  0  0
 80 82  1  0  0  0
 80153  1  0  0  0
 80154  1  0  0  0
 81155  1  0  0  0
 81156  1  0  0  0
 82 85  1  0  0  0
 82157  1  0  0  0
 82158  1  0  0  0
 83159  1  0  0  0
M  ISO  4   1 100  68 101  81 101  83 100
M  END
> <chiral flag>
0

> <version>
0

> <s_m_source_file>
/data/baiqing/PycharmProjects/Reinvent-master-3.2/result/LINK_invent/BTK/process_docking_weight1_custom_product_contain_oxygen_bond_distance_aromatic_linkinvent_7_9_3/rearranged_h_0134.sdf

> <i_m_source_file_index>
31

> <r_mmod_Potential_Energy-OPLS-2005>
281.390472412109

> <r_mmod_Stretch_Energy-OPLS-2005>
130.945587158203

> <r_mmod_Bend_Energy-OPLS-2005>
172.784042358398

> <r_mmod_Torsional_Energy-OPLS-2005>
295.340179443359

> <r_mmod_Improper_Torsional_Energy-OPLS-2005>
6.58140563964844

> <r_mmod_Van_der_Waal_Energy-OPLS-2005>
139.412033081055

> <r_mmod_Electrostatic_Energy-OPLS-2005>
-323.427398681641

> <r_mmod_Solvation_Energy-OPLS-2005>
-222.874877929688

> <b_mmod_Minimization_Converged-OPLS-2005>
0

> <r_mmod_RMS_Derivative-OPLS-2005>
2.0135293006897

$$$$
31
                    3D
 Structure written by MMmdl.
155163  0  0  1  0            999 V2000
  -30.7308  -14.4861   20.5942 C   0  0  0  0  0  0
  -30.4221  -12.3310   19.4189 C   0  0  0  0  0  0
  -29.4903  -12.5179   18.2053 C   0  0  0  0  0  0
  -28.0169  -12.3645   18.6246 C   0  0  0  0  0  0
  -27.6615  -13.2136   19.8748 C   0  0  2  0  0  0
  -28.7074  -13.0190   20.9963 C   0  0  0  0  0  0
  -25.2560  -13.8177   20.5704 C   0  0  0  0  0  0
  -24.1820  -13.0444   20.9183 C   0  0  0  0  0  0
  -24.6394  -11.6916   20.8753 C   0  0  0  0  0  0
  -23.9073  -10.4299   21.0414 C   0  0  0  0  0  0
  -24.3624   -9.4206   21.9181 C   0  0  0  0  0  0
  -23.6294   -8.2249   22.0763 C   0  0  0  0  0  0
  -22.4276   -8.0291   21.3561 C   0  0  0  0  0  0
  -21.9920   -9.0263   20.4658 C   0  0  0  0  0  0
  -22.7255  -10.2138   20.3056 C   0  0  0  0  0  0
  -21.6856   -6.0737   22.5293 C   0  0  0  0  0  0
  -21.4018   -6.5640   23.8227 C   0  0  0  0  0  0
  -21.3650   -5.6794   24.9187 C   0  0  0  0  0  0
  -21.6036   -4.3058   24.7247 C   0  0  0  0  0  0
  -21.8815   -3.8148   23.4368 C   0  0  0  0  0  0
  -21.9189   -4.6964   22.3419 C   0  0  0  0  0  0
  -22.7823  -13.5220   21.1828 C   0  0  0  0  0  0
  -22.1654   -4.2147   21.0997 F   0  0  0  0  0  0
  -21.5620   -3.4536   25.7751 F   0  0  0  0  0  0
  -30.0395  -13.3206   20.4422 N   0  0  0  0  0  0
  -26.3028  -12.9370   20.3407 N   0  0  0  0  0  0
  -25.9334  -11.6523   20.5799 N   0  0  0  0  0  0
  -22.0447  -12.8235   22.0399 N   0  0  0  0  0  0
  -25.4232  -15.1905   20.4119 N   0  0  0  0  0  0
  -31.8139  -14.6982   20.0482 O   0  0  0  0  0  0
  -21.6641   -6.8888   21.4257 O   0  0  0  0  0  0
  -22.3503  -14.5510   20.6639 O   0  0  0  0  0  0
  -24.6178  -31.8647   23.2098 C   0  0  0  0  0  0
  -25.9052  -32.4807   23.8392 C   0  0  1  0  0  0
  -27.2340  -27.3926   20.0950 C   0  0  0  0  0  0
  -25.5911  -33.8608   24.2327 N   0  0  0  0  0  0
  -23.4088  -30.4895   21.5516 C   0  0  2  0  0  0
  -24.8539  -28.9526   20.1145 C   0  0  0  0  0  0
  -22.7430  -29.4638   22.4979 C   0  0  0  0  0  0
  -18.0278  -28.1378   22.8491 C   0  0  0  0  0  0
  -24.1495  -36.7295   23.2640 C   0  0  0  0  0  0
  -25.9431  -30.8162   21.3713 C   0  0  0  0  0  0
  -26.0189  -29.4503   20.7112 C   0  0  0  0  0  0
  -27.2093  -28.6790   20.6949 C   0  0  0  0  0  0
  -26.0455  -26.9249   19.4855 C   0  0  0  0  0  0
  -24.8649  -27.6911   19.4985 C   0  0  0  0  0  0
  -23.6178  -29.8239   20.1664 C   0  0  0  0  0  0
  -25.4119  -36.3103   24.0343 C   0  0  1  0  0  0
  -20.5869  -28.3665   23.1316 C   0  0  2  0  0  0
  -20.6772  -26.9396   22.5425 C   0  0  0  0  0  0
  -19.5743  -26.6383   21.5225 C   0  0  0  0  0  0
  -18.1918  -26.7926   22.1627 C   0  0  0  0  0  0
  -19.1530  -28.8836   23.2899 C   0  0  0  0  0  0
  -18.9458  -30.1445   23.8897 C   0  0  0  0  0  0
  -17.6457  -30.6581   24.0556 C   0  0  0  0  0  0
  -25.9045  -34.9467   23.5133 C   0  0  0  0  0  0
  -16.5347  -29.9072   23.6332 C   0  0  0  0  0  0
  -16.7269  -28.6499   23.0342 C   0  0  0  0  0  0
  -26.4470  -31.6589   25.0726 C   0  0  0  0  0  0
  -25.3724  -31.3680   26.1466 C   0  0  0  0  0  0
  -27.0318  -30.3031   24.6124 C   0  0  0  0  0  0
  -27.6063  -32.4303   25.7472 C   0  0  0  0  0  0
  -27.5585  -37.1805   24.8469 C   0  0  0  0  0  0
  -21.4153  -29.3028   22.3721 N   0  0  0  0  0  0
  -26.4302  -37.3792   23.9409 N   0  0  0  0  0  0
  -24.6749  -31.0713   22.1023 N   0  0  0  0  0  0
  -23.4183  -28.8152   23.3014 O   0  0  0  0  0  0
  -28.3988  -26.6317   20.1285 O   0  0  0  0  0  0
  -26.5607  -34.8920   22.4693 O   0  0  0  0  0  0
  -23.5361  -32.1417   23.7479 O   0  0  0  0  0  0
  -30.0026  -20.4856   20.3819 C   0  0  0  0  0  0
  -28.2005  -21.7906   21.3850 C   0  0  0  0  0  0
  -28.4648  -19.4286   21.9432 C   0  0  0  0  0  0
  -29.3266  -21.7383   20.5357 C   0  0  0  0  0  0
  -29.5895  -19.3211   21.0981 C   0  0  0  0  0  0
  -27.7726  -20.6450   22.0787 C   0  0  0  0  0  0
  -29.7455  -22.9761   19.7802 C   0  0  0  0  0  0
  -30.3801  -17.9903   21.0836 C   0  0  0  0  0  0
  -29.5092  -24.3831   20.4008 C   0  0  0  0  0  0
  -29.5504  -16.6834   20.8332 C   0  0  0  0  0  0
  -28.3225  -25.2112   19.8211 C   0  0  0  0  0  0
  -30.1633  -15.4394   21.3558 N   0  0  0  0  0  0
  -30.3435  -22.9070   18.7023 O   0  0  0  0  0  0
  -26.6933  -20.7154   22.8923 F   0  0  0  0  0  0
  -31.4644  -12.4297   19.1114 H   0  0  0  0  0  0
  -30.3284  -11.3205   19.8206 H   0  0  0  0  0  0
  -29.7368  -11.7980   17.4234 H   0  0  0  0  0  0
  -29.6455  -13.5068   17.7710 H   0  0  0  0  0  0
  -27.8412  -11.3087   18.8330 H   0  0  0  0  0  0
  -27.3594  -12.6207   17.7928 H   0  0  0  0  0  0
  -27.6976  -14.2587   19.5680 H   0  0  0  0  0  0
  -28.6874  -11.9904   21.3570 H   0  0  0  0  0  0
  -28.4612  -13.6382   21.8598 H   0  0  0  0  0  0
  -25.2773   -9.5671   22.4765 H   0  0  0  0  0  0
  -23.9993   -7.4634   22.7485 H   0  0  0  0  0  0
  -21.0850   -8.8797   19.8965 H   0  0  0  0  0  0
  -22.3725  -10.9679   19.6163 H   0  0  0  0  0  0
  -21.2029   -7.6147   23.9741 H   0  0  0  0  0  0
  -21.1460   -6.0520   25.9089 H   0  0  0  0  0  0
  -22.0603   -2.7612   23.2880 H   0  0  0  0  0  0
  -22.4041  -11.9923   22.4857 H   0  0  0  0  0  0
  -21.1047  -13.1266   22.2537 H   0  0  0  0  0  0
  -24.6559  -15.8438   20.5320 H   0  0  0  0  0  0
  -26.2836  -15.6417   20.1305 H   0  0  0  0  0  0
  -26.7101  -32.5500   23.1128 H   0  0  0  0  0  0
  -25.0076  -33.9770   25.0482 H   0  0  0  0  0  0
  -22.6998  -31.3087   21.4121 H   0  0  0  0  0  0
  -23.3769  -35.9618   23.3316 H   0  0  0  0  0  0
  -24.3581  -36.8895   22.2049 H   0  0  0  0  0  0
  -23.7241  -37.6503   23.6639 H   0  0  0  0  0  0
  -26.0697  -31.5856   20.6089 H   0  0  0  0  0  0
  -26.8270  -30.8614   21.9966 H   0  0  0  0  0  0
  -28.1081  -29.0571   21.1618 H   0  0  0  0  0  0
  -26.0046  -25.9639   18.9956 H   0  0  0  0  0  0
  -23.9699  -27.3058   19.0287 H   0  0  0  0  0  0
  -23.7266  -30.6010   19.4092 H   0  0  0  0  0  0
  -22.7408  -29.2474   19.8680 H   0  0  0  0  0  0
  -25.1300  -36.1971   25.0839 H   0  0  0  0  0  0
  -20.9968  -28.3236   24.1432 H   0  0  0  0  0  0
  -20.5698  -26.2258   23.3607 H   0  0  0  0  0  0
  -21.6633  -26.7449   22.1190 H   0  0  0  0  0  0
  -19.6906  -25.6302   21.1231 H   0  0  0  0  0  0
  -19.6686  -27.3208   20.6766 H   0  0  0  0  0  0
  -17.4195  -26.6687   21.4017 H   0  0  0  0  0  0
  -18.0298  -26.0069   22.9020 H   0  0  0  0  0  0
  -19.7934  -30.7269   24.2253 H   0  0  0  0  0  0
  -17.5010  -31.6263   24.5151 H   0  0  0  0  0  0
  -15.5342  -30.2960   23.7681 H   0  0  0  0  0  0
  -15.8670  -28.0824   22.7034 H   0  0  0  0  0  0
  -24.5913  -30.7018   25.7774 H   0  0  0  0  0  0
  -24.8889  -32.2819   26.4922 H   0  0  0  0  0  0
  -25.8066  -30.8828   27.0218 H   0  0  0  0  0  0
  -26.2875  -29.6770   24.1186 H   0  0  0  0  0  0
  -27.4088  -29.7284   25.4595 H   0  0  0  0  0  0
  -27.8706  -30.4345   23.9290 H   0  0  0  0  0  0
  -27.2713  -33.3607   26.2067 H   0  0  0  0  0  0
  -28.3849  -32.6855   25.0269 H   0  0  0  0  0  0
  -28.0749  -31.8407   26.5358 H   0  0  0  0  0  0
  -28.2620  -38.0088   24.7531 H   0  0  0  0  0  0
  -28.1071  -36.2627   24.6296 H   0  0  0  0  0  0
  -27.2297  -37.1459   25.8871 H   0  0  0  0  0  0
  -20.9309  -29.8739   21.6939 H   0  0  0  0  0  0
  -26.0194  -38.2875   24.1407 H   0  0  0  0  0  0
  -30.8692  -20.4320   19.7358 H   0  0  0  0  0  0
  -27.6411  -22.7052   21.5122 H   0  0  0  0  0  0
  -28.1286  -18.5798   22.5189 H   0  0  0  0  0  0
  -30.8640  -17.9200   22.0583 H   0  0  0  0  0  0
  -31.1921  -18.0523   20.3576 H   0  0  0  0  0  0
  -30.4295  -24.9438   20.2367 H   0  0  0  0  0  0
  -29.4091  -24.2896   21.4807 H   0  0  0  0  0  0
  -29.3174  -16.5894   19.7719 H   0  0  0  0  0  0
  -28.5880  -16.7510   21.3373 H   0  0  0  0  0  0
  -27.4094  -24.7840   20.2379 H   0  0  0  0  0  0
  -28.2734  -25.0914   18.7379 H   0  0  0  0  0  0
  -30.7123  -15.6128   22.1867 H   0  0  0  0  0  0
  1 25  1  0  0  0
  1 30  2  0  0  0
  1 82  1  0  0  0
  2  3  1  0  0  0
  2 25  1  0  0  0
  2 85  1  0  0  0
  2 86  1  0  0  0
  3  4  1  0  0  0
  3 87  1  0  0  0
  3 88  1  0  0  0
  4  5  1  0  0  0
  4 89  1  0  0  0
  4 90  1  0  0  0
  5  6  1  0  0  0
  5 26  1  0  0  0
  5 91  1  0  0  0
  6 25  1  0  0  0
  6 92  1  0  0  0
  6 93  1  0  0  0
  7  8  2  0  0  0
  7 26  1  0  0  0
  7 29  1  0  0  0
  8  9  1  0  0  0
  8 22  1  0  0  0
  9 10  1  0  0  0
  9 27  2  0  0  0
 10 11  2  0  0  0
 10 15  1  0  0  0
 11 12  1  0  0  0
 11 94  1  0  0  0
 12 13  2  0  0  0
 12 95  1  0  0  0
 13 14  1  0  0  0
 13 31  1  0  0  0
 14 15  2  0  0  0
 14 96  1  0  0  0
 15 97  1  0  0  0
 16 17  2  0  0  0
 16 21  1  0  0  0
 16 31  1  0  0  0
 17 18  1  0  0  0
 17 98  1  0  0  0
 18 19  2  0  0  0
 18 99  1  0  0  0
 19 20  1  0  0  0
 19 24  1  0  0  0
 20 21  2  0  0  0
 20100  1  0  0  0
 21 23  1  0  0  0
 22 28  1  0  0  0
 22 32  2  0  0  0
 26 27  1  0  0  0
 28101  1  0  0  0
 28102  1  0  0  0
 29103  1  0  0  0
 29104  1  0  0  0
 33 34  1  0  0  0
 33 66  1  0  0  0
 33 70  2  0  0  0
 34 36  1  0  0  0
 34 59  1  0  0  0
 34105  1  0  0  0
 35 44  2  0  0  0
 35 45  1  0  0  0
 35 68  1  0  0  0
 36 56  1  0  0  0
 36106  1  0  0  0
 37 39  1  0  0  0
 37 47  1  0  0  0
 37 66  1  0  0  0
 37107  1  0  0  0
 38 43  2  0  0  0
 38 46  1  0  0  0
 38 47  1  0  0  0
 39 64  1  0  0  0
 39 67  2  0  0  0
 40 52  1  0  0  0
 40 53  2  0  0  0
 40 58  1  0  0  0
 41108  1  0  0  0
 41109  1  0  0  0
 41110  1  0  0  0
 41 48  1  0  0  0
 42 43  1  0  0  0
 42 66  1  0  0  0
 42111  1  0  0  0
 42112  1  0  0  0
 43 44  1  0  0  0
 44113  1  0  0  0
 45 46  2  0  0  0
 45114  1  0  0  0
 46115  1  0  0  0
 47116  1  0  0  0
 47117  1  0  0  0
 48 56  1  0  0  0
 48 65  1  0  0  0
 48118  1  0  0  0
 49 50  1  0  0  0
 49 53  1  0  0  0
 49 64  1  0  0  0
 49119  1  0  0  0
 50 51  1  0  0  0
 50120  1  0  0  0
 50121  1  0  0  0
 51 52  1  0  0  0
 51122  1  0  0  0
 51123  1  0  0  0
 52124  1  0  0  0
 52125  1  0  0  0
 53 54  1  0  0  0
 54 55  2  0  0  0
 54126  1  0  0  0
 55 57  1  0  0  0
 55127  1  0  0  0
 56 69  2  0  0  0
 57 58  2  0  0  0
 57128  1  0  0  0
 58129  1  0  0  0
 59 60  1  0  0  0
 59 61  1  0  0  0
 59 62  1  0  0  0
 60130  1  0  0  0
 60131  1  0  0  0
 60132  1  0  0  0
 61133  1  0  0  0
 61134  1  0  0  0
 61135  1  0  0  0
 62136  1  0  0  0
 62137  1  0  0  0
 62138  1  0  0  0
 63 65  1  0  0  0
 63139  1  0  0  0
 63140  1  0  0  0
 63141  1  0  0  0
 64142  1  0  0  0
 65143  1  0  0  0
 68 81  1  0  0  0
 71 74  2  0  0  0
 71 75  1  0  0  0
 71144  1  0  0  0
 72 74  1  0  0  0
 72 76  2  0  0  0
 72145  1  0  0  0
 73 75  2  0  0  0
 73 76  1  0  0  0
 73146  1  0  0  0
 74 77  1  0  0  0
 75 78  1  0  0  0
 76 84  1  0  0  0
 77 79  1  0  0  0
 77 83  2  0  0  0
 78 80  1  0  0  0
 78147  1  0  0  0
 78148  1  0  0  0
 79 81  1  0  0  0
 79149  1  0  0  0
 79150  1  0  0  0
 80 82  1  0  0  0
 80151  1  0  0  0
 80152  1  0  0  0
 81153  1  0  0  0
 81154  1  0  0  0
 82155  1  0  0  0
M  ISO  4   1 100  68 101  81 101  82 100
M  END
> <chiral flag>
0

> <version>
0

> <s_m_source_file>
/data/baiqing/PycharmProjects/Reinvent-master-3.2/result/LINK_invent/BTK/process_docking_weight1_custom_product_contain_oxygen_bond_distance_aromatic_linkinvent_7_9_3/rearranged_h_0134.sdf

> <i_m_source_file_index>
32

> <r_mmod_Potential_Energy-OPLS-2005>
4.0040283203125

> <r_mmod_Stretch_Energy-OPLS-2005>
49.0934791564941

> <r_mmod_Bend_Energy-OPLS-2005>
108.573310852051

> <r_mmod_Torsional_Energy-OPLS-2005>
295.595306396484

> <r_mmod_Improper_Torsional_Energy-OPLS-2005>
6.20470809936523

> <r_mmod_Van_der_Waal_Energy-OPLS-2005>
145.671966552734

> <r_mmod_Electrostatic_Energy-OPLS-2005>
-400.88525390625

> <r_mmod_Solvation_Energy-OPLS-2005>
-217.02799987793

> <b_mmod_Minimization_Converged-OPLS-2005>
0

> <r_mmod_RMS_Derivative-OPLS-2005>
2.17626428604126

$$$$
32
                    3D
 Structure written by MMmdl.
153161  0  0  1  0            999 V2000
  -30.5927  -14.7428   20.4772 C   0  0  0  0  0  0
  -30.4429  -12.4637   19.4510 C   0  0  0  0  0  0
  -29.5072  -12.5057   18.2209 C   0  0  0  0  0  0
  -28.0302  -12.3386   18.6348 C   0  0  0  0  0  0
  -27.6425  -13.2264   19.8471 C   0  0  2  0  0  0
  -28.6916  -13.1361   20.9749 C   0  0  0  0  0  0
  -25.2523  -13.8192   20.5678 C   0  0  0  0  0  0
  -24.1813  -13.0444   20.9187 C   0  0  0  0  0  0
  -24.6387  -11.6920   20.8734 C   0  0  0  0  0  0
  -23.9051  -10.4300   21.0403 C   0  0  0  0  0  0
  -24.3611   -9.4225   21.9178 C   0  0  0  0  0  0
  -23.6298   -8.2257   22.0751 C   0  0  0  0  0  0
  -22.4279   -8.0285   21.3544 C   0  0  0  0  0  0
  -21.9905   -9.0251   20.4639 C   0  0  0  0  0  0
  -22.7223  -10.2137   20.3054 C   0  0  0  0  0  0
  -21.6851   -6.0735   22.5269 C   0  0  0  0  0  0
  -21.4010   -6.5639   23.8197 C   0  0  0  0  0  0
  -21.3665   -5.6793   24.9163 C   0  0  0  0  0  0
  -21.6046   -4.3054   24.7217 C   0  0  0  0  0  0
  -21.8825   -3.8146   23.4335 C   0  0  0  0  0  0
  -21.9197   -4.6963   22.3391 C   0  0  0  0  0  0
  -22.7835  -13.5225   21.1855 C   0  0  0  0  0  0
  -22.1668   -4.2146   21.0971 F   0  0  0  0  0  0
  -21.5634   -3.4541   25.7732 F   0  0  0  0  0  0
  -29.9858  -13.5100   20.3912 N   0  0  0  0  0  0
  -26.2946  -12.9380   20.3262 N   0  0  0  0  0  0
  -25.9314  -11.6529   20.5731 N   0  0  0  0  0  0
  -22.0485  -12.8222   22.0419 N   0  0  0  0  0  0
  -25.4214  -15.1921   20.4096 N   0  0  0  0  0  0
  -31.7876  -14.8680   20.1975 O   0  0  0  0  0  0
  -21.6650   -6.8886   21.4233 O   0  0  0  0  0  0
  -22.3507  -14.5526   20.6690 O   0  0  0  0  0  0
  -24.6317  -31.8530   23.1972 C   0  0  0  0  0  0
  -25.9133  -32.4747   23.8335 C   0  0  1  0  0  0
  -27.2359  -27.2653   20.1452 C   0  0  0  0  0  0
  -25.5927  -33.8550   24.2260 N   0  0  0  0  0  0
  -23.4308  -30.4716   21.5397 C   0  0  2  0  0  0
  -24.8807  -28.9063   20.1208 C   0  0  0  0  0  0
  -22.7511  -29.4586   22.4924 C   0  0  0  0  0  0
  -18.0291  -28.1376   22.8486 C   0  0  0  0  0  0
  -24.1477  -36.7273   23.2644 C   0  0  0  0  0  0
  -25.9748  -30.7683   21.3736 C   0  0  0  0  0  0
  -26.0505  -29.3868   20.7230 C   0  0  0  0  0  0
  -27.2341  -28.5823   20.7135 C   0  0  0  0  0  0
  -26.0422  -26.8352   19.5325 C   0  0  0  0  0  0
  -24.8818  -27.6389   19.5113 C   0  0  0  0  0  0
  -23.6515  -29.7952   20.1593 C   0  0  0  0  0  0
  -25.4106  -36.3069   24.0331 C   0  0  1  0  0  0
  -20.5894  -28.3683   23.1270 C   0  0  2  0  0  0
  -20.6774  -26.9400   22.5405 C   0  0  0  0  0  0
  -19.5756  -26.6375   21.5207 C   0  0  0  0  0  0
  -18.1937  -26.7919   22.1622 C   0  0  0  0  0  0
  -19.1546  -28.8850   23.2871 C   0  0  0  0  0  0
  -18.9462  -30.1451   23.8890 C   0  0  0  0  0  0
  -17.6457  -30.6579   24.0554 C   0  0  0  0  0  0
  -25.9054  -34.9433   23.5102 C   0  0  0  0  0  0
  -16.5350  -29.9076   23.6323 C   0  0  0  0  0  0
  -16.7276  -28.6490   23.0354 C   0  0  0  0  0  0
  -26.4508  -31.6579   25.0727 C   0  0  0  0  0  0
  -25.3746  -31.3693   26.1458 C   0  0  0  0  0  0
  -27.0357  -30.3003   24.6204 C   0  0  0  0  0  0
  -27.6063  -32.4324   25.7493 C   0  0  0  0  0  0
  -27.5574  -37.1796   24.8470 C   0  0  0  0  0  0
  -21.4217  -29.3031   22.3664 N   0  0  0  0  0  0
  -26.4279  -37.3769   23.9418 N   0  0  0  0  0  0
  -24.6985  -31.0501   22.0937 N   0  0  0  0  0  0
  -23.4203  -28.8124   23.3022 O   0  0  0  0  0  0
  -28.3640  -26.4221   20.0895 O   0  0  0  0  0  0
  -26.5623  -34.8913   22.4671 O   0  0  0  0  0  0
  -23.5469  -32.1335   23.7274 O   0  0  0  0  0  0
  -29.7502  -20.3156   18.4774 C   0  0  0  0  0  0
  -30.2435  -19.4095   17.5846 C   0  0  0  0  0  0
  -29.5408  -19.8068   19.7986 C   0  0  0  0  0  0
  -29.9133  -18.4202   19.8765 C   0  0  0  0  0  0
  -28.9210  -20.8403   20.8068 C   0  0  0  0  0  0
  -30.0551  -17.3213   20.9884 C   0  0  0  0  0  0
  -29.3022  -22.4309   20.7988 C   0  0  0  0  0  0
  -28.4854  -23.6399   20.0732 C   0  0  0  0  0  0
  -28.3980  -25.0978   20.7937 C   0  0  0  0  0  0
  -29.7770  -15.8415   20.6945 N   0  0  0  0  0  0
  -30.4781  -17.8617   18.3144 S   0  0  0  0  0  0
  -31.4755  -12.6238   19.1343 H   0  0  0  0  0  0
  -30.4231  -11.4833   19.9300 H   0  0  0  0  0  0
  -29.7848  -11.7263   17.5088 H   0  0  0  0  0  0
  -29.6338  -13.4540   17.6972 H   0  0  0  0  0  0
  -27.8702  -11.2880   18.8780 H   0  0  0  0  0  0
  -27.3768  -12.5537   17.7886 H   0  0  0  0  0  0
  -27.6405  -14.2523   19.4775 H   0  0  0  0  0  0
  -28.7360  -12.1245   21.3809 H   0  0  0  0  0  0
  -28.4290  -13.7873   21.8104 H   0  0  0  0  0  0
  -25.2766   -9.5709   22.4740 H   0  0  0  0  0  0
  -24.0012   -7.4656   22.7472 H   0  0  0  0  0  0
  -21.0839   -8.8756   19.8948 H   0  0  0  0  0  0
  -22.3669  -10.9673   19.6162 H   0  0  0  0  0  0
  -21.1994   -7.6145   23.9691 H   0  0  0  0  0  0
  -21.1484   -6.0529   25.9062 H   0  0  0  0  0  0
  -22.0600   -2.7608   23.2827 H   0  0  0  0  0  0
  -22.4112  -11.9901   22.4830 H   0  0  0  0  0  0
  -21.1087  -13.1224   22.2600 H   0  0  0  0  0  0
  -24.6481  -15.8411   20.5132 H   0  0  0  0  0  0
  -26.2608  -15.6360   20.0607 H   0  0  0  0  0  0
  -26.7202  -32.5397   23.1085 H   0  0  0  0  0  0
  -25.0085  -33.9681   25.0416 H   0  0  0  0  0  0
  -22.7274  -31.2927   21.3870 H   0  0  0  0  0  0
  -23.3749  -35.9596   23.3308 H   0  0  0  0  0  0
  -24.3569  -36.8900   22.2060 H   0  0  0  0  0  0
  -23.7228  -37.6474   23.6665 H   0  0  0  0  0  0
  -26.1119  -31.5272   20.6019 H   0  0  0  0  0  0
  -26.8533  -30.8217   22.0050 H   0  0  0  0  0  0
  -28.1410  -28.9582   21.1666 H   0  0  0  0  0  0
  -26.0108  -25.8600   19.0660 H   0  0  0  0  0  0
  -23.9878  -27.2665   19.0295 H   0  0  0  0  0  0
  -23.7770  -30.5660   19.3979 H   0  0  0  0  0  0
  -22.7715  -29.2254   19.8557 H   0  0  0  0  0  0
  -25.1289  -36.1914   25.0822 H   0  0  0  0  0  0
  -20.9985  -28.3256   24.1393 H   0  0  0  0  0  0
  -20.5653  -26.2298   23.3611 H   0  0  0  0  0  0
  -21.6645  -26.7411   22.1213 H   0  0  0  0  0  0
  -19.6911  -25.6284   21.1248 H   0  0  0  0  0  0
  -19.6694  -27.3175   20.6728 H   0  0  0  0  0  0
  -17.4203  -26.6664   21.4024 H   0  0  0  0  0  0
  -18.0336  -26.0056   22.9010 H   0  0  0  0  0  0
  -19.7932  -30.7269   24.2267 H   0  0  0  0  0  0
  -17.5006  -31.6260   24.5150 H   0  0  0  0  0  0
  -15.5351  -30.2969   23.7650 H   0  0  0  0  0  0
  -15.8679  -28.0802   22.7078 H   0  0  0  0  0  0
  -24.5930  -30.7031   25.7790 H   0  0  0  0  0  0
  -24.8919  -32.2832   26.4917 H   0  0  0  0  0  0
  -25.8089  -30.8860   27.0218 H   0  0  0  0  0  0
  -26.2929  -29.6747   24.1238 H   0  0  0  0  0  0
  -27.4058  -29.7274   25.4717 H   0  0  0  0  0  0
  -27.8797  -30.4295   23.9427 H   0  0  0  0  0  0
  -27.2681  -33.3630   26.2058 H   0  0  0  0  0  0
  -28.3872  -32.6880   25.0319 H   0  0  0  0  0  0
  -28.0730  -31.8463   26.5422 H   0  0  0  0  0  0
  -28.2595  -38.0088   24.7519 H   0  0  0  0  0  0
  -28.1071  -36.2628   24.6290 H   0  0  0  0  0  0
  -27.2296  -37.1434   25.8873 H   0  0  0  0  0  0
  -20.9411  -29.8765   21.6873 H   0  0  0  0  0  0
  -26.0161  -38.2841   24.1427 H   0  0  0  0  0  0
  -29.5237  -21.3419   18.2205 H   0  0  0  0  0  0
  -30.4856  -19.5615   16.5386 H   0  0  0  0  0  0
  -29.1640  -20.4781   21.8064 H   0  0  0  0  0  0
  -27.8336  -20.7670   20.7586 H   0  0  0  0  0  0
  -31.0778  -17.3706   21.3673 H   0  0  0  0  0  0
  -29.4338  -17.6020   21.8383 H   0  0  0  0  0  0
  -30.3627  -22.5368   20.5652 H   0  0  0  0  0  0
  -29.2520  -22.7009   21.8543 H   0  0  0  0  0  0
  -27.4654  -23.3096   19.8775 H   0  0  0  0  0  0
  -28.9293  -23.7767   19.0876 H   0  0  0  0  0  0
  -29.3025  -25.1725   21.3971 H   0  0  0  0  0  0
  -27.5915  -25.0733   21.5283 H   0  0  0  0  0  0
  -28.8045  -15.5935   20.7922 H   0  0  0  0  0  0
  1 25  1  0  0  0
  1 30  2  0  0  0
  1 80  1  0  0  0
  2  3  1  0  0  0
  2 25  1  0  0  0
  2 82  1  0  0  0
  2 83  1  0  0  0
  3  4  1  0  0  0
  3 84  1  0  0  0
  3 85  1  0  0  0
  4  5  1  0  0  0
  4 86  1  0  0  0
  4 87  1  0  0  0
  5  6  1  0  0  0
  5 26  1  0  0  0
  5 88  1  0  0  0
  6 25  1  0  0  0
  6 89  1  0  0  0
  6 90  1  0  0  0
  7  8  2  0  0  0
  7 26  1  0  0  0
  7 29  1  0  0  0
  8  9  1  0  0  0
  8 22  1  0  0  0
  9 10  1  0  0  0
  9 27  2  0  0  0
 10 11  2  0  0  0
 10 15  1  0  0  0
 11 12  1  0  0  0
 11 91  1  0  0  0
 12 13  2  0  0  0
 12 92  1  0  0  0
 13 14  1  0  0  0
 13 31  1  0  0  0
 14 15  2  0  0  0
 14 93  1  0  0  0
 15 94  1  0  0  0
 16 17  2  0  0  0
 16 21  1  0  0  0
 16 31  1  0  0  0
 17 18  1  0  0  0
 17 95  1  0  0  0
 18 19  2  0  0  0
 18 96  1  0  0  0
 19 20  1  0  0  0
 19 24  1  0  0  0
 20 21  2  0  0  0
 20 97  1  0  0  0
 21 23  1  0  0  0
 22 28  1  0  0  0
 22 32  2  0  0  0
 26 27  1  0  0  0
 28 98  1  0  0  0
 28 99  1  0  0  0
 29100  1  0  0  0
 29101  1  0  0  0
 33 34  1  0  0  0
 33 66  1  0  0  0
 33 70  2  0  0  0
 34 36  1  0  0  0
 34 59  1  0  0  0
 34102  1  0  0  0
 35 44  2  0  0  0
 35 45  1  0  0  0
 35 68  1  0  0  0
 36 56  1  0  0  0
 36103  1  0  0  0
 37 39  1  0  0  0
 37 47  1  0  0  0
 37 66  1  0  0  0
 37104  1  0  0  0
 38 43  2  0  0  0
 38 46  1  0  0  0
 38 47  1  0  0  0
 39 64  1  0  0  0
 39 67  2  0  0  0
 40 52  1  0  0  0
 40 53  2  0  0  0
 40 58  1  0  0  0
 41105  1  0  0  0
 41106  1  0  0  0
 41107  1  0  0  0
 41 48  1  0  0  0
 42 43  1  0  0  0
 42 66  1  0  0  0
 42108  1  0  0  0
 42109  1  0  0  0
 43 44  1  0  0  0
 44110  1  0  0  0
 45 46  2  0  0  0
 45111  1  0  0  0
 46112  1  0  0  0
 47113  1  0  0  0
 47114  1  0  0  0
 48 56  1  0  0  0
 48 65  1  0  0  0
 48115  1  0  0  0
 49 50  1  0  0  0
 49 53  1  0  0  0
 49 64  1  0  0  0
 49116  1  0  0  0
 50 51  1  0  0  0
 50117  1  0  0  0
 50118  1  0  0  0
 51 52  1  0  0  0
 51119  1  0  0  0
 51120  1  0  0  0
 52121  1  0  0  0
 52122  1  0  0  0
 53 54  1  0  0  0
 54 55  2  0  0  0
 54123  1  0  0  0
 55 57  1  0  0  0
 55124  1  0  0  0
 56 69  2  0  0  0
 57 58  2  0  0  0
 57125  1  0  0  0
 58126  1  0  0  0
 59 60  1  0  0  0
 59 61  1  0  0  0
 59 62  1  0  0  0
 60127  1  0  0  0
 60128  1  0  0  0
 60129  1  0  0  0
 61130  1  0  0  0
 61131  1  0  0  0
 61132  1  0  0  0
 62133  1  0  0  0
 62134  1  0  0  0
 62135  1  0  0  0
 63 65  1  0  0  0
 63136  1  0  0  0
 63137  1  0  0  0
 63138  1  0  0  0
 64139  1  0  0  0
 65140  1  0  0  0
 68 79  1  0  0  0
 71 72  2  0  0  0
 71 73  1  0  0  0
 71141  1  0  0  0
 72 81  1  0  0  0
 72142  1  0  0  0
 73 74  2  0  0  0
 73 75  1  0  0  0
 74 76  1  0  0  0
 74 81  1  0  0  0
 75 77  1  0  0  0
 75143  1  0  0  0
 75144  1  0  0  0
 76 80  1  0  0  0
 76145  1  0  0  0
 76146  1  0  0  0
 77 78  1  0  0  0
 77147  1  0  0  0
 77148  1  0  0  0
 78 79  1  0  0  0
 78149  1  0  0  0
 78150  1  0  0  0
 79151  1  0  0  0
 79152  1  0  0  0
 80153  1  0  0  0
M  ISO  4   1 100  68 101  79 101  80 100
M  END
> <chiral flag>
0

> <version>
0

> <s_m_source_file>
/data/baiqing/PycharmProjects/Reinvent-master-3.2/result/LINK_invent/BTK/process_docking_weight1_custom_product_contain_oxygen_bond_distance_aromatic_linkinvent_7_9_3/rearranged_h_0134.sdf

> <i_m_source_file_index>
33

> <r_mmod_Potential_Energy-OPLS-2005>
180.953384399414

> <r_mmod_Stretch_Energy-OPLS-2005>
129.048782348633

> <r_mmod_Bend_Energy-OPLS-2005>
215.768890380859

> <r_mmod_Torsional_Energy-OPLS-2005>
240.965087890625

> <r_mmod_Improper_Torsional_Energy-OPLS-2005>
4.63068628311157

> <r_mmod_Van_der_Waal_Energy-OPLS-2005>
105.781173706055

> <r_mmod_Electrostatic_Energy-OPLS-2005>
-380.259979248047

> <r_mmod_Solvation_Energy-OPLS-2005>
-214.265228271484

> <b_mmod_Minimization_Converged-OPLS-2005>
0

> <r_mmod_RMS_Derivative-OPLS-2005>
1.93918824195862

$$$$
33
                    3D
 Structure written by MMmdl.
158167  0  0  1  0            999 V2000
  -30.6283  -14.7990   20.4405 C   0  0  0  0  0  0
  -30.4168  -12.4873   19.4976 C   0  0  0  0  0  0
  -29.5096  -12.5089   18.2487 C   0  0  0  0  0  0
  -28.0379  -12.3246   18.6591 C   0  0  0  0  0  0
  -27.6302  -13.2486   19.8377 C   0  0  2  0  0  0
  -28.6684  -13.2494   20.9776 C   0  0  0  0  0  0
  -25.2468  -13.8235   20.5715 C   0  0  0  0  0  0
  -24.1777  -13.0454   20.9207 C   0  0  0  0  0  0
  -24.6389  -11.6937   20.8741 C   0  0  0  0  0  0
  -23.9075  -10.4303   21.0403 C   0  0  0  0  0  0
  -24.3625   -9.4217   21.9181 C   0  0  0  0  0  0
  -23.6300   -8.2250   22.0753 C   0  0  0  0  0  0
  -22.4282   -8.0285   21.3543 C   0  0  0  0  0  0
  -21.9917   -9.0258   20.4644 C   0  0  0  0  0  0
  -22.7247  -10.2138   20.3053 C   0  0  0  0  0  0
  -21.6858   -6.0738   22.5279 C   0  0  0  0  0  0
  -21.4017   -6.5641   23.8212 C   0  0  0  0  0  0
  -21.3660   -5.6795   24.9174 C   0  0  0  0  0  0
  -21.6043   -4.3058   24.7225 C   0  0  0  0  0  0
  -21.8818   -3.8149   23.4347 C   0  0  0  0  0  0
  -21.9195   -4.6965   22.3403 C   0  0  0  0  0  0
  -22.7800  -13.5221   21.1878 C   0  0  0  0  0  0
  -22.1664   -4.2149   21.0980 F   0  0  0  0  0  0
  -21.5628   -3.4541   25.7738 F   0  0  0  0  0  0
  -29.9680  -13.5853   20.3930 N   0  0  0  0  0  0
  -26.2886  -12.9470   20.3245 N   0  0  0  0  0  0
  -25.9321  -11.6594   20.5732 N   0  0  0  0  0  0
  -22.0463  -12.8196   22.0436 N   0  0  0  0  0  0
  -25.4174  -15.1961   20.4186 N   0  0  0  0  0  0
  -31.8222  -14.8147   20.1289 O   0  0  0  0  0  0
  -21.6647   -6.8880   21.4240 O   0  0  0  0  0  0
  -22.3468  -14.5522   20.6731 O   0  0  0  0  0  0
  -24.6361  -31.8500   23.1941 C   0  0  0  0  0  0
  -25.9167  -32.4721   23.8301 C   0  0  1  0  0  0
  -27.2151  -27.2079   20.1316 C   0  0  0  0  0  0
  -25.5944  -33.8526   24.2221 N   0  0  0  0  0  0
  -23.4343  -30.4722   21.5385 C   0  0  2  0  0  0
  -24.8800  -28.9109   20.1080 C   0  0  0  0  0  0
  -22.7523  -29.4576   22.4889 C   0  0  0  0  0  0
  -18.0293  -28.1389   22.8480 C   0  0  0  0  0  0
  -24.1491  -36.7269   23.2642 C   0  0  0  0  0  0
  -25.9842  -30.7472   21.3800 C   0  0  0  0  0  0
  -26.0534  -29.3654   20.7206 C   0  0  0  0  0  0
  -27.2196  -28.5267   20.7195 C   0  0  0  0  0  0
  -26.0128  -26.8323   19.4915 C   0  0  0  0  0  0
  -24.8679  -27.6557   19.4823 C   0  0  0  0  0  0
  -23.6541  -29.8051   20.1550 C   0  0  0  0  0  0
  -25.4119  -36.3047   24.0320 C   0  0  1  0  0  0
  -20.5900  -28.3705   23.1256 C   0  0  2  0  0  0
  -20.6779  -26.9415   22.5408 C   0  0  0  0  0  0
  -19.5755  -26.6380   21.5211 C   0  0  0  0  0  0
  -18.1936  -26.7930   22.1623 C   0  0  0  0  0  0
  -19.1548  -28.8865   23.2862 C   0  0  0  0  0  0
  -18.9468  -30.1463   23.8882 C   0  0  0  0  0  0
  -17.6466  -30.6587   24.0561 C   0  0  0  0  0  0
  -25.9065  -34.9421   23.5076 C   0  0  0  0  0  0
  -16.5357  -29.9083   23.6333 C   0  0  0  0  0  0
  -16.7279  -28.6503   23.0350 C   0  0  0  0  0  0
  -26.4515  -31.6566   25.0715 C   0  0  0  0  0  0
  -25.3725  -31.3734   26.1427 C   0  0  0  0  0  0
  -27.0371  -30.2972   24.6246 C   0  0  0  0  0  0
  -27.6054  -32.4321   25.7498 C   0  0  0  0  0  0
  -27.5575  -37.1792   24.8465 C   0  0  0  0  0  0
  -21.4224  -29.3042   22.3636 N   0  0  0  0  0  0
  -26.4286  -37.3754   23.9408 N   0  0  0  0  0  0
  -24.7044  -31.0426   22.0935 N   0  0  0  0  0  0
  -23.4202  -28.8117   23.3006 O   0  0  0  0  0  0
  -28.3164  -26.3067   20.2233 O   0  0  0  0  0  0
  -26.5645  -34.8909   22.4649 O   0  0  0  0  0  0
  -23.5500  -32.1343   23.7213 O   0  0  0  0  0  0
  -29.3755  -16.9762   19.6016 C   0  0  0  0  0  0
  -29.0244  -18.3797   19.6784 C   0  0  0  0  0  0
  -29.8438  -18.4163   21.9007 C   0  0  0  0  0  0
  -29.9769  -16.2251   20.6682 C   0  0  0  0  0  0
  -30.1918  -17.0118   21.8522 C   0  0  0  0  0  0
  -29.2647  -19.1771   20.8372 C   0  0  0  0  0  0
  -30.5756  -16.8702   24.4868 C   0  0  0  0  0  0
  -31.9300  -17.0552   23.8381 C   0  0  0  0  0  0
  -30.8177  -16.3717   23.0780 C   0  0  0  0  0  0
  -28.8258  -20.7203   21.1028 C   0  0  0  0  0  0
  -28.8429  -22.0113   20.0914 C   0  0  0  0  0  0
  -28.5111  -23.5286   20.6697 C   0  0  0  0  0  0
  -28.3471  -24.8634   19.7220 C   0  0  0  0  0  0
  -31.4618  -12.5855   19.2004 H   0  0  0  0  0  0
  -30.3454  -11.5269   20.0100 H   0  0  0  0  0  0
  -29.8048  -11.7234   17.5517 H   0  0  0  0  0  0
  -29.6305  -13.4550   17.7186 H   0  0  0  0  0  0
  -27.9088  -11.2807   18.9467 H   0  0  0  0  0  0
  -27.3803  -12.4870   17.8043 H   0  0  0  0  0  0
  -27.6066  -14.2585   19.4268 H   0  0  0  0  0  0
  -28.7088  -12.2800   21.4761 H   0  0  0  0  0  0
  -28.3963  -13.9822   21.7392 H   0  0  0  0  0  0
  -25.2769   -9.5698   22.4758 H   0  0  0  0  0  0
  -24.0011   -7.4642   22.7476 H   0  0  0  0  0  0
  -21.0847   -8.8774   19.8950 H   0  0  0  0  0  0
  -22.3699  -10.9675   19.6163 H   0  0  0  0  0  0
  -21.2010   -7.6150   23.9714 H   0  0  0  0  0  0
  -21.1483   -6.0527   25.9076 H   0  0  0  0  0  0
  -22.0597   -2.7611   23.2850 H   0  0  0  0  0  0
  -22.4095  -11.9850   22.4797 H   0  0  0  0  0  0
  -21.1081  -13.1204   22.2660 H   0  0  0  0  0  0
  -24.6599  -15.8570   20.5510 H   0  0  0  0  0  0
  -26.2870  -15.6397   20.1489 H   0  0  0  0  0  0
  -26.7230  -32.5349   23.1033 H   0  0  0  0  0  0
  -25.0081  -33.9648   25.0361 H   0  0  0  0  0  0
  -22.7336  -31.2963   21.3902 H   0  0  0  0  0  0
  -23.3752  -35.9603   23.3299 H   0  0  0  0  0  0
  -24.3575  -36.8903   22.2057 H   0  0  0  0  0  0
  -23.7248  -37.6468   23.6678 H   0  0  0  0  0  0
  -26.1303  -31.5063   20.6104 H   0  0  0  0  0  0
  -26.8590  -30.7951   22.0172 H   0  0  0  0  0  0
  -28.1168  -28.8696   21.2158 H   0  0  0  0  0  0
  -25.9032  -25.8729   19.0143 H   0  0  0  0  0  0
  -23.9676  -27.3007   18.9996 H   0  0  0  0  0  0
  -23.7839  -30.5809   19.3998 H   0  0  0  0  0  0
  -22.7706  -29.2427   19.8475 H   0  0  0  0  0  0
  -25.1306  -36.1883   25.0812 H   0  0  0  0  0  0
  -20.9993  -28.3291   24.1376 H   0  0  0  0  0  0
  -20.5670  -26.2318   23.3620 H   0  0  0  0  0  0
  -21.6648  -26.7429   22.1207 H   0  0  0  0  0  0
  -19.6918  -25.6288   21.1247 H   0  0  0  0  0  0
  -19.6694  -27.3185   20.6736 H   0  0  0  0  0  0
  -17.4205  -26.6671   21.4026 H   0  0  0  0  0  0
  -18.0339  -26.0073   22.9022 H   0  0  0  0  0  0
  -19.7944  -30.7283   24.2245 H   0  0  0  0  0  0
  -17.5020  -31.6265   24.5167 H   0  0  0  0  0  0
  -15.5357  -30.2981   23.7663 H   0  0  0  0  0  0
  -15.8680  -28.0818   22.7070 H   0  0  0  0  0  0
  -24.5907  -30.7074   25.7757 H   0  0  0  0  0  0
  -24.8911  -32.2908   26.4822 H   0  0  0  0  0  0
  -25.8029  -30.8934   27.0224 H   0  0  0  0  0  0
  -26.2968  -29.6707   24.1256 H   0  0  0  0  0  0
  -27.4009  -29.7253   25.4794 H   0  0  0  0  0  0
  -27.8867  -30.4223   23.9530 H   0  0  0  0  0  0
  -27.2647  -33.3625   26.2053 H   0  0  0  0  0  0
  -28.3880  -32.6871   25.0341 H   0  0  0  0  0  0
  -28.0707  -31.8463   26.5437 H   0  0  0  0  0  0
  -28.2588  -38.0092   24.7501 H   0  0  0  0  0  0
  -28.1073  -36.2618   24.6302 H   0  0  0  0  0  0
  -27.2290  -37.1453   25.8868 H   0  0  0  0  0  0
  -20.9419  -29.8768   21.6837 H   0  0  0  0  0  0
  -26.0156  -38.2825   24.1407 H   0  0  0  0  0  0
  -29.2144  -16.4692   18.6601 H   0  0  0  0  0  0
  -28.5660  -18.8462   18.8170 H   0  0  0  0  0  0
  -30.0325  -18.9540   22.8179 H   0  0  0  0  0  0
  -29.9595  -17.7526   24.6415 H   0  0  0  0  0  0
  -30.5155  -16.1278   25.2804 H   0  0  0  0  0  0
  -32.7445  -16.4341   24.2068 H   0  0  0  0  0  0
  -32.2117  -18.0644   23.5438 H   0  0  0  0  0  0
  -30.8655  -15.2881   23.0013 H   0  0  0  0  0  0
  -29.4198  -21.0316   21.9627 H   0  0  0  0  0  0
  -27.8109  -20.6547   21.4951 H   0  0  0  0  0  0
  -28.1494  -21.7997   19.2773 H   0  0  0  0  0  0
  -29.8270  -22.0507   19.6236 H   0  0  0  0  0  0
  -27.5966  -23.4539   21.2588 H   0  0  0  0  0  0
  -29.2888  -23.7584   21.3980 H   0  0  0  0  0  0
  -27.5372  -24.6661   19.0268 H   0  0  0  0  0  0
  -29.2238  -24.8535   19.0739 H   0  0  0  0  0  0
  1 25  1  0  0  0
  1 30  2  0  0  0
  1 74  1  0  0  0
  2  3  1  0  0  0
  2 25  1  0  0  0
  2 84  1  0  0  0
  2 85  1  0  0  0
  3  4  1  0  0  0
  3 86  1  0  0  0
  3 87  1  0  0  0
  4  5  1  0  0  0
  4 88  1  0  0  0
  4 89  1  0  0  0
  5  6  1  0  0  0
  5 26  1  0  0  0
  5 90  1  0  0  0
  6 25  1  0  0  0
  6 91  1  0  0  0
  6 92  1  0  0  0
  7  8  2  0  0  0
  7 26  1  0  0  0
  7 29  1  0  0  0
  8  9  1  0  0  0
  8 22  1  0  0  0
  9 10  1  0  0  0
  9 27  2  0  0  0
 10 11  2  0  0  0
 10 15  1  0  0  0
 11 12  1  0  0  0
 11 93  1  0  0  0
 12 13  2  0  0  0
 12 94  1  0  0  0
 13 14  1  0  0  0
 13 31  1  0  0  0
 14 15  2  0  0  0
 14 95  1  0  0  0
 15 96  1  0  0  0
 16 17  2  0  0  0
 16 21  1  0  0  0
 16 31  1  0  0  0
 17 18  1  0  0  0
 17 97  1  0  0  0
 18 19  2  0  0  0
 18 98  1  0  0  0
 19 20  1  0  0  0
 19 24  1  0  0  0
 20 21  2  0  0  0
 20 99  1  0  0  0
 21 23  1  0  0  0
 22 28  1  0  0  0
 22 32  2  0  0  0
 26 27  1  0  0  0
 28100  1  0  0  0
 28101  1  0  0  0
 29102  1  0  0  0
 29103  1  0  0  0
 33 34  1  0  0  0
 33 66  1  0  0  0
 33 70  2  0  0  0
 34 36  1  0  0  0
 34 59  1  0  0  0
 34104  1  0  0  0
 35 44  2  0  0  0
 35 45  1  0  0  0
 35 68  1  0  0  0
 36 56  1  0  0  0
 36105  1  0  0  0
 37 39  1  0  0  0
 37 47  1  0  0  0
 37 66  1  0  0  0
 37106  1  0  0  0
 38 43  2  0  0  0
 38 46  1  0  0  0
 38 47  1  0  0  0
 39 64  1  0  0  0
 39 67  2  0  0  0
 40 52  1  0  0  0
 40 53  2  0  0  0
 40 58  1  0  0  0
 41107  1  0  0  0
 41108  1  0  0  0
 41109  1  0  0  0
 41 48  1  0  0  0
 42 43  1  0  0  0
 42 66  1  0  0  0
 42110  1  0  0  0
 42111  1  0  0  0
 43 44  1  0  0  0
 44112  1  0  0  0
 45 46  2  0  0  0
 45113  1  0  0  0
 46114  1  0  0  0
 47115  1  0  0  0
 47116  1  0  0  0
 48 56  1  0  0  0
 48 65  1  0  0  0
 48117  1  0  0  0
 49 50  1  0  0  0
 49 53  1  0  0  0
 49 64  1  0  0  0
 49118  1  0  0  0
 50 51  1  0  0  0
 50119  1  0  0  0
 50120  1  0  0  0
 51 52  1  0  0  0
 51121  1  0  0  0
 51122  1  0  0  0
 52123  1  0  0  0
 52124  1  0  0  0
 53 54  1  0  0  0
 54 55  2  0  0  0
 54125  1  0  0  0
 55 57  1  0  0  0
 55126  1  0  0  0
 56 69  2  0  0  0
 57 58  2  0  0  0
 57127  1  0  0  0
 58128  1  0  0  0
 59 60  1  0  0  0
 59 61  1  0  0  0
 59 62  1  0  0  0
 60129  1  0  0  0
 60130  1  0  0  0
 60131  1  0  0  0
 61132  1  0  0  0
 61133  1  0  0  0
 61134  1  0  0  0
 62135  1  0  0  0
 62136  1  0  0  0
 62137  1  0  0  0
 63 65  1  0  0  0
 63138  1  0  0  0
 63139  1  0  0  0
 63140  1  0  0  0
 64141  1  0  0  0
 65142  1  0  0  0
 68 83  1  0  0  0
 71 72  2  0  0  0
 71 74  1  0  0  0
 71143  1  0  0  0
 72 76  1  0  0  0
 72144  1  0  0  0
 73 75  1  0  0  0
 73 76  2  0  0  0
 73145  1  0  0  0
 74 75  2  0  0  0
 75 79  1  0  0  0
 76 80  1  0  0  0
 77 78  1  0  0  0
 77 79  1  0  0  0
 77146  1  0  0  0
 77147  1  0  0  0
 78 79  1  0  0  0
 78148  1  0  0  0
 78149  1  0  0  0
 79150  1  0  0  0
 80 81  1  0  0  0
 80151  1  0  0  0
 80152  1  0  0  0
 81 82  1  0  0  0
 81153  1  0  0  0
 81154  1  0  0  0
 82 83  1  0  0  0
 82155  1  0  0  0
 82156  1  0  0  0
 83157  1  0  0  0
 83158  1  0  0  0
M  ISO  4   1 100  68 101  74 100  83 101
M  END
> <chiral flag>
0

> <version>
0

> <s_m_source_file>
/data/baiqing/PycharmProjects/Reinvent-master-3.2/result/LINK_invent/BTK/process_docking_weight1_custom_product_contain_oxygen_bond_distance_aromatic_linkinvent_7_9_3/rearranged_h_0134.sdf

> <i_m_source_file_index>
34

> <r_mmod_Potential_Energy-OPLS-2005>
422.215545654297

> <r_mmod_Stretch_Energy-OPLS-2005>
166.503540039062

> <r_mmod_Bend_Energy-OPLS-2005>
229.634262084961

> <r_mmod_Torsional_Energy-OPLS-2005>
239.505416870117

> <r_mmod_Improper_Torsional_Energy-OPLS-2005>
5.82408761978149

> <r_mmod_Van_der_Waal_Energy-OPLS-2005>
134.197998046875

> <r_mmod_Electrostatic_Energy-OPLS-2005>
-285.612335205078

> <r_mmod_Solvation_Energy-OPLS-2005>
-183.445617675781

> <b_mmod_Minimization_Converged-OPLS-2005>
0

> <r_mmod_RMS_Derivative-OPLS-2005>
0.588598072528839

$$$$
34
                    3D
 Structure written by MMmdl.
168176  0  0  1  0            999 V2000
  -30.6571  -14.5793   20.5662 C   0  0  0  0  0  0
  -30.4449  -12.3728   19.4355 C   0  0  0  0  0  0
  -29.5069  -12.4992   18.2141 C   0  0  0  0  0  0
  -28.0283  -12.3450   18.6293 C   0  0  0  0  0  0
  -27.6621  -13.2041   19.8686 C   0  0  2  0  0  0
  -28.7075  -13.0296   20.9926 C   0  0  0  0  0  0
  -25.2654  -13.8166   20.5702 C   0  0  0  0  0  0
  -24.1860  -13.0457   20.9187 C   0  0  0  0  0  0
  -24.6397  -11.6927   20.8740 C   0  0  0  0  0  0
  -23.9044  -10.4321   21.0420 C   0  0  0  0  0  0
  -24.3594   -9.4237   21.9195 C   0  0  0  0  0  0
  -23.6289   -8.2260   22.0750 C   0  0  0  0  0  0
  -22.4271   -8.0293   21.3543 C   0  0  0  0  0  0
  -21.9914   -9.0259   20.4633 C   0  0  0  0  0  0
  -22.7226  -10.2150   20.3059 C   0  0  0  0  0  0
  -21.6858   -6.0747   22.5271 C   0  0  0  0  0  0
  -21.4016   -6.5638   23.8213 C   0  0  0  0  0  0
  -21.3655   -5.6783   24.9168 C   0  0  0  0  0  0
  -21.6041   -4.3053   24.7211 C   0  0  0  0  0  0
  -21.8817   -3.8154   23.4335 C   0  0  0  0  0  0
  -21.9199   -4.6979   22.3385 C   0  0  0  0  0  0
  -22.7895  -13.5302   21.1834 C   0  0  0  0  0  0
  -22.1666   -4.2174   21.0964 F   0  0  0  0  0  0
  -21.5624   -3.4525   25.7718 F   0  0  0  0  0  0
  -30.0251  -13.3743   20.4312 N   0  0  0  0  0  0
  -26.3046  -12.9298   20.3358 N   0  0  0  0  0  0
  -25.9324  -11.6470   20.5783 N   0  0  0  0  0  0
  -22.0482  -12.8295   22.0363 N   0  0  0  0  0  0
  -25.4506  -15.1853   20.4089 N   0  0  0  0  0  0
  -31.8047  -14.7710   20.1481 O   0  0  0  0  0  0
  -21.6634   -6.8890   21.4230 O   0  0  0  0  0  0
  -22.3622  -14.5635   20.6720 O   0  0  0  0  0  0
  -24.6116  -31.8685   23.1954 C   0  0  0  0  0  0
  -25.8964  -32.4863   23.8277 C   0  0  1  0  0  0
  -27.2407  -27.3758   20.1025 C   0  0  0  0  0  0
  -25.5860  -33.8644   24.2285 N   0  0  0  0  0  0
  -23.4064  -30.4868   21.5389 C   0  0  2  0  0  0
  -24.8599  -28.9447   20.1116 C   0  0  0  0  0  0
  -22.7433  -29.4622   22.4895 C   0  0  0  0  0  0
  -18.0306  -28.1314   22.8510 C   0  0  0  0  0  0
  -24.1497  -36.7285   23.2661 C   0  0  0  0  0  0
  -25.9409  -30.8199   21.3500 C   0  0  0  0  0  0
  -26.0251  -29.4448   20.7040 C   0  0  0  0  0  0
  -27.2204  -28.6727   20.6853 C   0  0  0  0  0  0
  -26.0513  -26.9058   19.5036 C   0  0  0  0  0  0
  -24.8710  -27.6787   19.5037 C   0  0  0  0  0  0
  -23.6205  -29.8163   20.1560 C   0  0  0  0  0  0
  -25.4141  -36.3152   24.0371 C   0  0  1  0  0  0
  -20.5908  -28.3608   23.1317 C   0  0  2  0  0  0
  -20.6822  -26.9344   22.5401 C   0  0  0  0  0  0
  -19.5810  -26.6354   21.5169 C   0  0  0  0  0  0
  -18.1965  -26.7887   22.1574 C   0  0  0  0  0  0
  -19.1561  -28.8759   23.2946 C   0  0  0  0  0  0
  -18.9514  -30.1356   23.8985 C   0  0  0  0  0  0
  -17.6527  -30.6567   24.0523 C   0  0  0  0  0  0
  -25.9052  -34.9517   23.5136 C   0  0  0  0  0  0
  -16.5408  -29.9068   23.6306 C   0  0  0  0  0  0
  -16.7293  -28.6446   23.0387 C   0  0  0  0  0  0
  -26.4437  -31.6623   25.0562 C   0  0  0  0  0  0
  -25.3679  -31.3594   26.1255 C   0  0  0  0  0  0
  -27.0306  -30.3167   24.5775 C   0  0  0  0  0  0
  -27.6088  -32.4286   25.7283 C   0  0  0  0  0  0
  -27.5622  -37.1769   24.8495 C   0  0  0  0  0  0
  -21.4142  -29.3012   22.3723 N   0  0  0  0  0  0
  -26.4344  -37.3828   23.9447 N   0  0  0  0  0  0
  -24.6733  -31.0724   22.0884 N   0  0  0  0  0  0
  -23.4241  -28.8149   23.2887 O   0  0  0  0  0  0
  -28.4132  -26.6180   20.0894 O   0  0  0  0  0  0
  -26.5594  -34.8975   22.4692 O   0  0  0  0  0  0
  -23.5297  -32.1420   23.7344 O   0  0  0  0  0  0
  -30.4907  -19.5607   22.5014 C   0  0  0  0  0  0
  -30.4286  -18.4519   23.3696 C   0  0  0  0  0  0
  -30.2512  -18.0613   20.5985 C   0  0  0  0  0  0
  -30.3855  -19.3986   21.1031 C   0  0  0  0  0  0
  -30.2483  -17.1423   22.8699 C   0  0  0  0  0  0
  -30.1884  -16.9216   21.4690 C   0  0  0  0  0  0
  -30.0745  -15.9950   23.8574 C   0  0  0  0  0  0
  -28.8445  -21.8750   18.0012 C   0  0  0  0  0  0
  -30.4147  -24.6320   18.8835 C   0  0  0  0  0  0
  -28.1708  -24.6851   17.8309 C   0  0  0  0  0  0
  -30.4808  -20.6528   20.1809 C   0  0  0  0  0  0
  -29.5489  -21.9122   20.4966 C   0  0  0  0  0  0
  -28.3552  -25.1629   20.2766 C   0  0  0  0  0  0
  -28.7718  -22.6749   19.3292 C   0  0  1  0  0  0
  -28.9361  -24.2656   19.1121 C   0  0  0  0  0  0
  -29.8623  -15.5935   21.0004 N   0  0  0  0  0  0
  -31.4845  -12.5047   19.1296 H   0  0  0  0  0  0
  -30.3844  -11.3734   19.8691 H   0  0  0  0  0  0
  -29.7637  -11.7438   17.4695 H   0  0  0  0  0  0
  -29.6518  -13.4662   17.7300 H   0  0  0  0  0  0
  -27.8551  -11.2910   18.8509 H   0  0  0  0  0  0
  -27.3733  -12.5933   17.7921 H   0  0  0  0  0  0
  -27.6944  -14.2440   19.5429 H   0  0  0  0  0  0
  -28.7166  -11.9998   21.3497 H   0  0  0  0  0  0
  -28.4558  -13.6354   21.8638 H   0  0  0  0  0  0
  -25.2723   -9.5731   22.4789 H   0  0  0  0  0  0
  -23.9999   -7.4658   22.7475 H   0  0  0  0  0  0
  -21.0847   -8.8769   19.8933 H   0  0  0  0  0  0
  -22.3670  -10.9692   19.6171 H   0  0  0  0  0  0
  -21.2005   -7.6142   23.9733 H   0  0  0  0  0  0
  -21.1472   -6.0499   25.9074 H   0  0  0  0  0  0
  -22.0605   -2.7623   23.2812 H   0  0  0  0  0  0
  -22.3994  -11.9874   22.4665 H   0  0  0  0  0  0
  -21.1147  -13.1414   22.2596 H   0  0  0  0  0  0
  -24.7064  -15.8653   20.5166 H   0  0  0  0  0  0
  -26.3155  -15.5976   20.0802 H   0  0  0  0  0  0
  -26.6992  -32.5594   23.0997 H   0  0  0  0  0  0
  -25.0141  -33.9801   25.0523 H   0  0  0  0  0  0
  -22.6969  -31.3053   21.3945 H   0  0  0  0  0  0
  -23.3848  -35.9521   23.3339 H   0  0  0  0  0  0
  -24.3637  -36.8874   22.2082 H   0  0  0  0  0  0
  -23.7127  -37.6458   23.6627 H   0  0  0  0  0  0
  -26.0363  -31.5783   20.5711 H   0  0  0  0  0  0
  -26.8368  -30.8961   21.9534 H   0  0  0  0  0  0
  -28.1281  -29.0579   21.1290 H   0  0  0  0  0  0
  -26.0208  -25.9411   19.0225 H   0  0  0  0  0  0
  -23.9771  -27.2939   19.0339 H   0  0  0  0  0  0
  -23.7301  -30.5892   19.3935 H   0  0  0  0  0  0
  -22.7421  -29.2404   19.8596 H   0  0  0  0  0  0
  -25.1314  -36.2050   25.0867 H   0  0  0  0  0  0
  -21.0054  -28.3144   24.1407 H   0  0  0  0  0  0
  -20.5685  -26.2170   23.3553 H   0  0  0  0  0  0
  -21.6694  -26.7327   22.1207 H   0  0  0  0  0  0
  -19.6976  -25.6256   21.1204 H   0  0  0  0  0  0
  -19.6819  -27.3156   20.6700 H   0  0  0  0  0  0
  -17.4240  -26.6621   21.3977 H   0  0  0  0  0  0
  -18.0410  -25.9973   22.8917 H   0  0  0  0  0  0
  -19.7990  -30.7103   24.2473 H   0  0  0  0  0  0
  -17.5097  -31.6300   24.5028 H   0  0  0  0  0  0
  -15.5420  -30.3006   23.7616 H   0  0  0  0  0  0
  -15.8664  -28.0778   22.7147 H   0  0  0  0  0  0
  -24.5928  -30.6924   25.7441 H   0  0  0  0  0  0
  -24.8737  -32.2674   26.4721 H   0  0  0  0  0  0
  -25.7980  -30.8684   26.9989 H   0  0  0  0  0  0
  -26.2775  -29.6883   24.1012 H   0  0  0  0  0  0
  -27.4507  -29.7415   25.4030 H   0  0  0  0  0  0
  -27.8380  -30.4704   23.8614 H   0  0  0  0  0  0
  -27.2885  -33.3687   26.1782 H   0  0  0  0  0  0
  -28.3885  -32.6684   25.0026 H   0  0  0  0  0  0
  -28.0721  -31.8392   26.5204 H   0  0  0  0  0  0
  -28.2608  -38.0100   24.7709 H   0  0  0  0  0  0
  -28.1170  -36.2664   24.6194 H   0  0  0  0  0  0
  -27.2350  -37.1261   25.8889 H   0  0  0  0  0  0
  -20.9209  -29.8832   21.7093 H   0  0  0  0  0  0
  -26.0292  -38.2914   24.1514 H   0  0  0  0  0  0
  -30.6136  -20.5490   22.9249 H   0  0  0  0  0  0
  -30.5006  -18.6190   24.4369 H   0  0  0  0  0  0
  -30.1649  -17.9085   19.5320 H   0  0  0  0  0  0
  -30.1429  -16.3276   24.8948 H   0  0  0  0  0  0
  -30.8258  -15.2193   23.7084 H   0  0  0  0  0  0
  -29.0906  -15.5445   23.7289 H   0  0  0  0  0  0
  -28.5913  -20.8252   18.1497 H   0  0  0  0  0  0
  -29.8387  -21.9271   17.5514 H   0  0  0  0  0  0
  -28.1269  -22.2126   17.2558 H   0  0  0  0  0  0
  -30.5490  -25.7146   18.8112 H   0  0  0  0  0  0
  -30.7784  -24.1975   17.9524 H   0  0  0  0  0  0
  -31.0604  -24.2807   19.6878 H   0  0  0  0  0  0
  -28.1221  -25.7678   17.7269 H   0  0  0  0  0  0
  -27.1486  -24.3022   17.8210 H   0  0  0  0  0  0
  -28.6593  -24.3229   16.9250 H   0  0  0  0  0  0
  -30.4015  -20.3004   19.1575 H   0  0  0  0  0  0
  -31.5151  -20.9985   20.2409 H   0  0  0  0  0  0
  -30.1119  -22.6292   21.0986 H   0  0  0  0  0  0
  -28.7823  -21.5550   21.1882 H   0  0  0  0  0  0
  -28.9391  -24.9547   21.1735 H   0  0  0  0  0  0
  -27.3450  -24.8402   20.5247 H   0  0  0  0  0  0
  -27.7264  -22.5756   19.6267 H   0  0  0  0  0  0
  -28.9355  -15.2782   21.2441 H   0  0  0  0  0  0
  1 25  1  0  0  0
  1 30  2  0  0  0
  1 86  1  0  0  0
  2  3  1  0  0  0
  2 25  1  0  0  0
  2 87  1  0  0  0
  2 88  1  0  0  0
  3  4  1  0  0  0
  3 89  1  0  0  0
  3 90  1  0  0  0
  4  5  1  0  0  0
  4 91  1  0  0  0
  4 92  1  0  0  0
  5  6  1  0  0  0
  5 26  1  0  0  0
  5 93  1  0  0  0
  6 25  1  0  0  0
  6 94  1  0  0  0
  6 95  1  0  0  0
  7  8  2  0  0  0
  7 26  1  0  0  0
  7 29  1  0  0  0
  8  9  1  0  0  0
  8 22  1  0  0  0
  9 10  1  0  0  0
  9 27  2  0  0  0
 10 11  2  0  0  0
 10 15  1  0  0  0
 11 12  1  0  0  0
 11 96  1  0  0  0
 12 13  2  0  0  0
 12 97  1  0  0  0
 13 14  1  0  0  0
 13 31  1  0  0  0
 14 15  2  0  0  0
 14 98  1  0  0  0
 15 99  1  0  0  0
 16 17  2  0  0  0
 16 21  1  0  0  0
 16 31  1  0  0  0
 17 18  1  0  0  0
 17100  1  0  0  0
 18 19  2  0  0  0
 18101  1  0  0  0
 19 20  1  0  0  0
 19 24  1  0  0  0
 20 21  2  0  0  0
 20102  1  0  0  0
 21 23  1  0  0  0
 22 28  1  0  0  0
 22 32  2  0  0  0
 26 27  1  0  0  0
 28103  1  0  0  0
 28104  1  0  0  0
 29105  1  0  0  0
 29106  1  0  0  0
 33 34  1  0  0  0
 33 66  1  0  0  0
 33 70  2  0  0  0
 34 36  1  0  0  0
 34 59  1  0  0  0
 34107  1  0  0  0
 35 44  2  0  0  0
 35 45  1  0  0  0
 35 68  1  0  0  0
 36 56  1  0  0  0
 36108  1  0  0  0
 37 39  1  0  0  0
 37 47  1  0  0  0
 37 66  1  0  0  0
 37109  1  0  0  0
 38 43  2  0  0  0
 38 46  1  0  0  0
 38 47  1  0  0  0
 39 64  1  0  0  0
 39 67  2  0  0  0
 40 52  1  0  0  0
 40 53  2  0  0  0
 40 58  1  0  0  0
 41110  1  0  0  0
 41111  1  0  0  0
 41112  1  0  0  0
 41 48  1  0  0  0
 42 43  1  0  0  0
 42 66  1  0  0  0
 42113  1  0  0  0
 42114  1  0  0  0
 43 44  1  0  0  0
 44115  1  0  0  0
 45 46  2  0  0  0
 45116  1  0  0  0
 46117  1  0  0  0
 47118  1  0  0  0
 47119  1  0  0  0
 48 56  1  0  0  0
 48 65  1  0  0  0
 48120  1  0  0  0
 49 50  1  0  0  0
 49 53  1  0  0  0
 49 64  1  0  0  0
 49121  1  0  0  0
 50 51  1  0  0  0
 50122  1  0  0  0
 50123  1  0  0  0
 51 52  1  0  0  0
 51124  1  0  0  0
 51125  1  0  0  0
 52126  1  0  0  0
 52127  1  0  0  0
 53 54  1  0  0  0
 54 55  2  0  0  0
 54128  1  0  0  0
 55 57  1  0  0  0
 55129  1  0  0  0
 56 69  2  0  0  0
 57 58  2  0  0  0
 57130  1  0  0  0
 58131  1  0  0  0
 59 60  1  0  0  0
 59 61  1  0  0  0
 59 62  1  0  0  0
 60132  1  0  0  0
 60133  1  0  0  0
 60134  1  0  0  0
 61135  1  0  0  0
 61136  1  0  0  0
 61137  1  0  0  0
 62138  1  0  0  0
 62139  1  0  0  0
 62140  1  0  0  0
 63 65  1  0  0  0
 63141  1  0  0  0
 63142  1  0  0  0
 63143  1  0  0  0
 64144  1  0  0  0
 65145  1  0  0  0
 68 83  1  0  0  0
 71 72  2  0  0  0
 71 74  1  0  0  0
 71146  1  0  0  0
 72 75  1  0  0  0
 72147  1  0  0  0
 73 74  2  0  0  0
 73 76  1  0  0  0
 73148  1  0  0  0
 74 81  1  0  0  0
 75 76  2  0  0  0
 75 77  1  0  0  0
 76 86  1  0  0  0
 77149  1  0  0  0
 77150  1  0  0  0
 77151  1  0  0  0
 78152  1  0  0  0
 78153  1  0  0  0
 78154  1  0  0  0
 78 84  1  0  0  0
 79155  1  0  0  0
 79156  1  0  0  0
 79157  1  0  0  0
 79 85  1  0  0  0
 80 85  1  0  0  0
 80158  1  0  0  0
 80159  1  0  0  0
 80160  1  0  0  0
 81 82  1  0  0  0
 81161  1  0  0  0
 81162  1  0  0  0
 82 84  1  0  0  0
 82163  1  0  0  0
 82164  1  0  0  0
 83 85  1  0  0  0
 83165  1  0  0  0
 83166  1  0  0  0
 84 85  1  0  0  0
 84167  1  0  0  0
 86168  1  0  0  0
M  ISO  4   1 100  68 101  83 101  86 100
M  END
> <chiral flag>
0

> <version>
0

> <s_m_source_file>
/data/baiqing/PycharmProjects/Reinvent-master-3.2/result/LINK_invent/BTK/process_docking_weight1_custom_product_contain_oxygen_bond_distance_aromatic_linkinvent_7_9_3/rearranged_h_0134.sdf

> <i_m_source_file_index>
35

> <r_mmod_Potential_Energy-OPLS-2005>
103.563812255859

> <r_mmod_Stretch_Energy-OPLS-2005>
75.9076461791992

> <r_mmod_Bend_Energy-OPLS-2005>
144.369750976562

> <r_mmod_Torsional_Energy-OPLS-2005>
287.278991699219

> <r_mmod_Improper_Torsional_Energy-OPLS-2005>
6.09414005279541

> <r_mmod_Van_der_Waal_Energy-OPLS-2005>
153.732513427734

> <r_mmod_Electrostatic_Energy-OPLS-2005>
-398.583740234375

> <r_mmod_Solvation_Energy-OPLS-2005>
-192.368148803711

> <b_mmod_Minimization_Converged-OPLS-2005>
0

> <r_mmod_RMS_Derivative-OPLS-2005>
4.65939235687256

$$$$
35
                    3D
 Structure written by MMmdl.
168176  0  0  1  0            999 V2000
  -30.7603  -14.5031   20.6245 C   0  0  0  0  0  0
  -30.4114  -12.3524   19.4337 C   0  0  0  0  0  0
  -29.4845  -12.5130   18.2126 C   0  0  0  0  0  0
  -28.0126  -12.3490   18.6285 C   0  0  0  0  0  0
  -27.6548  -13.2075   19.8679 C   0  0  2  0  0  0
  -28.7027  -13.0416   20.9983 C   0  0  0  0  0  0
  -25.2439  -13.8036   20.5528 C   0  0  0  0  0  0
  -24.1770  -13.0320   20.9200 C   0  0  0  0  0  0
  -24.6402  -11.6834   20.8793 C   0  0  0  0  0  0
  -23.9063  -10.4231   21.0429 C   0  0  0  0  0  0
  -24.3611   -9.4154   21.9210 C   0  0  0  0  0  0
  -23.6277   -8.2199   22.0755 C   0  0  0  0  0  0
  -22.4259   -8.0265   21.3546 C   0  0  0  0  0  0
  -21.9912   -9.0233   20.4639 C   0  0  0  0  0  0
  -22.7242  -10.2104   20.3060 C   0  0  0  0  0  0
  -21.6845   -6.0730   22.5280 C   0  0  0  0  0  0
  -21.4008   -6.5639   23.8212 C   0  0  0  0  0  0
  -21.3663   -5.6790   24.9181 C   0  0  0  0  0  0
  -21.6051   -4.3054   24.7230 C   0  0  0  0  0  0
  -21.8813   -3.8144   23.4350 C   0  0  0  0  0  0
  -21.9185   -4.6959   22.3407 C   0  0  0  0  0  0
  -22.7799  -13.5143   21.1855 C   0  0  0  0  0  0
  -22.1655   -4.2144   21.0985 F   0  0  0  0  0  0
  -21.5651   -3.4537   25.7744 F   0  0  0  0  0  0
  -30.0264  -13.3602   20.4453 N   0  0  0  0  0  0
  -26.2981  -12.9291   20.3359 N   0  0  0  0  0  0
  -25.9347  -11.6452   20.5871 N   0  0  0  0  0  0
  -22.0439  -12.8162   22.0441 N   0  0  0  0  0  0
  -25.3812  -15.1698   20.3602 N   0  0  0  0  0  0
  -31.8366  -14.6626   20.0500 O   0  0  0  0  0  0
  -21.6635   -6.8868   21.4238 O   0  0  0  0  0  0
  -22.3483  -14.5443   20.6693 O   0  0  0  0  0  0
  -24.6156  -31.8658   23.2112 C   0  0  0  0  0  0
  -25.9035  -32.4814   23.8406 C   0  0  1  0  0  0
  -27.2344  -27.4028   20.1070 C   0  0  0  0  0  0
  -25.5867  -33.8616   24.2326 N   0  0  0  0  0  0
  -23.4093  -30.4896   21.5501 C   0  0  2  0  0  0
  -24.8610  -28.9573   20.1122 C   0  0  0  0  0  0
  -22.7441  -29.4634   22.4969 C   0  0  0  0  0  0
  -18.0280  -28.1384   22.8489 C   0  0  0  0  0  0
  -24.1481  -36.7316   23.2646 C   0  0  0  0  0  0
  -25.9434  -30.8131   21.3814 C   0  0  0  0  0  0
  -26.0193  -29.4452   20.7332 C   0  0  0  0  0  0
  -27.2066  -28.6684   20.7452 C   0  0  0  0  0  0
  -26.0776  -26.9699   19.4292 C   0  0  0  0  0  0
  -24.8859  -27.7158   19.4584 C   0  0  0  0  0  0
  -23.6238  -29.8269   20.1625 C   0  0  0  0  0  0
  -25.4101  -36.3118   24.0342 C   0  0  1  0  0  0
  -20.5880  -28.3645   23.1301 C   0  0  2  0  0  0
  -20.6767  -26.9372   22.5413 C   0  0  0  0  0  0
  -19.5732  -26.6372   21.5221 C   0  0  0  0  0  0
  -18.1913  -26.7930   22.1631 C   0  0  0  0  0  0
  -19.1537  -28.8836   23.2897 C   0  0  0  0  0  0
  -18.9463  -30.1449   23.8895 C   0  0  0  0  0  0
  -17.6460  -30.6585   24.0566 C   0  0  0  0  0  0
  -25.9019  -34.9475   23.5141 C   0  0  0  0  0  0
  -16.5351  -29.9075   23.6343 C   0  0  0  0  0  0
  -16.7269  -28.6504   23.0351 C   0  0  0  0  0  0
  -26.4456  -31.6599   25.0743 C   0  0  0  0  0  0
  -25.3736  -31.3682   26.1503 C   0  0  0  0  0  0
  -27.0288  -30.3037   24.6128 C   0  0  0  0  0  0
  -27.6025  -32.4329   25.7495 C   0  0  0  0  0  0
  -27.5583  -37.1816   24.8475 C   0  0  0  0  0  0
  -21.4168  -29.3008   22.3701 N   0  0  0  0  0  0
  -26.4297  -37.3798   23.9411 N   0  0  0  0  0  0
  -24.6740  -31.0712   22.1043 N   0  0  0  0  0  0
  -23.4201  -28.8180   23.3022 O   0  0  0  0  0  0
  -28.3577  -26.5909   20.0808 O   0  0  0  0  0  0
  -26.5609  -34.8923   22.4719 O   0  0  0  0  0  0
  -23.5334  -32.1424   23.7468 O   0  0  0  0  0  0
  -27.4322  -17.6625   20.9413 C   0  0  0  0  0  0
  -28.0029  -18.9398   20.9031 C   0  0  0  0  0  0
  -28.2347  -16.5297   21.1323 C   0  0  0  0  0  0
  -29.3921  -19.1307   21.0795 C   0  0  0  0  0  0
  -30.2116  -17.9573   21.2557 C   0  0  0  0  0  0
  -29.6290  -16.6393   21.2557 C   0  0  0  0  0  0
  -32.4919  -18.0813   20.1382 C   0  0  0  0  0  0
  -27.0006  -24.0342   20.4241 C   0  0  0  0  0  0
  -27.6629  -24.1053   22.8142 C   0  0  0  0  0  0
  -29.9475  -20.5912   21.0961 C   0  0  0  0  0  0
  -31.7166  -18.1112   21.4594 C   0  0  0  0  0  0
  -28.8890  -21.7505   20.9794 C   0  0  0  0  0  0
  -29.3391  -23.2570   21.1024 C   0  0  0  0  0  0
  -28.6431  -25.8294   21.2816 C   0  0  0  0  0  0
  -28.1830  -24.3093   21.3715 C   0  0  0  0  0  0
  -30.3728  -15.4345   21.5294 N   0  0  0  0  0  0
  -31.4543  -12.4373   19.1244 H   0  0  0  0  0  0
  -30.3148  -11.3481   19.8507 H   0  0  0  0  0  0
  -29.7356  -11.7785   17.4461 H   0  0  0  0  0  0
  -29.6315  -13.4949   17.7603 H   0  0  0  0  0  0
  -27.8437  -11.2939   18.8454 H   0  0  0  0  0  0
  -27.3473  -12.5954   17.7996 H   0  0  0  0  0  0
  -27.6808  -14.2388   19.5219 H   0  0  0  0  0  0
  -28.6998  -12.0121   21.3580 H   0  0  0  0  0  0
  -28.4613  -13.6484   21.8702 H   0  0  0  0  0  0
  -25.2733   -9.5633   22.4821 H   0  0  0  0  0  0
  -23.9972   -7.4585   22.7466 H   0  0  0  0  0  0
  -21.0850   -8.8742   19.8940 H   0  0  0  0  0  0
  -22.3682  -10.9664   19.6193 H   0  0  0  0  0  0
  -21.1985   -7.6143   23.9725 H   0  0  0  0  0  0
  -21.1507   -6.0517   25.9088 H   0  0  0  0  0  0
  -22.0588   -2.7605   23.2843 H   0  0  0  0  0  0
  -22.4029  -11.9839   22.4873 H   0  0  0  0  0  0
  -21.1067  -13.1216   22.2644 H   0  0  0  0  0  0
  -24.5838  -15.7922   20.4247 H   0  0  0  0  0  0
  -26.2081  -15.6170   19.9869 H   0  0  0  0  0  0
  -26.7110  -32.5522   23.1171 H   0  0  0  0  0  0
  -25.0031  -33.9784   25.0479 H   0  0  0  0  0  0
  -22.7025  -31.3108   21.4124 H   0  0  0  0  0  0
  -23.3743  -35.9651   23.3331 H   0  0  0  0  0  0
  -24.3581  -36.8906   22.2059 H   0  0  0  0  0  0
  -23.7236  -37.6527   23.6643 H   0  0  0  0  0  0
  -26.0728  -31.5750   20.6111 H   0  0  0  0  0  0
  -26.8257  -30.8624   22.0073 H   0  0  0  0  0  0
  -28.0969  -29.0348   21.2376 H   0  0  0  0  0  0
  -26.0904  -26.0447   18.8727 H   0  0  0  0  0  0
  -24.0062  -27.3447   18.9508 H   0  0  0  0  0  0
  -23.7388  -30.6067   19.4088 H   0  0  0  0  0  0
  -22.7475  -29.2498   19.8593 H   0  0  0  0  0  0
  -25.1287  -36.2001   25.0837 H   0  0  0  0  0  0
  -20.9982  -28.3200   24.1417 H   0  0  0  0  0  0
  -20.5678  -26.2243   23.3597 H   0  0  0  0  0  0
  -21.6635  -26.7415   22.1195 H   0  0  0  0  0  0
  -19.6885  -25.6292   21.1218 H   0  0  0  0  0  0
  -19.6683  -27.3215   20.6776 H   0  0  0  0  0  0
  -17.4195  -26.6683   21.4019 H   0  0  0  0  0  0
  -18.0299  -26.0080   22.9030 H   0  0  0  0  0  0
  -19.7935  -30.7276   24.2244 H   0  0  0  0  0  0
  -17.5012  -31.6263   24.5165 H   0  0  0  0  0  0
  -15.5349  -30.2979   23.7667 H   0  0  0  0  0  0
  -15.8669  -28.0825   22.7061 H   0  0  0  0  0  0
  -24.5917  -30.7015   25.7849 H   0  0  0  0  0  0
  -24.8921  -32.2823   26.4983 H   0  0  0  0  0  0
  -25.8110  -30.8842   27.0248 H   0  0  0  0  0  0
  -26.2823  -29.6791   24.1206 H   0  0  0  0  0  0
  -27.4092  -29.7269   25.4569 H   0  0  0  0  0  0
  -27.8651  -30.4355   23.9260 H   0  0  0  0  0  0
  -27.2636  -33.3622   26.2082 H   0  0  0  0  0  0
  -28.3810  -32.6900   25.0303 H   0  0  0  0  0  0
  -28.0718  -31.8460   26.5398 H   0  0  0  0  0  0
  -28.2623  -38.0097   24.7527 H   0  0  0  0  0  0
  -28.1056  -36.2629   24.6301 H   0  0  0  0  0  0
  -27.2308  -37.1498   25.8883 H   0  0  0  0  0  0
  -20.9328  -29.8748   21.6940 H   0  0  0  0  0  0
  -26.0189  -38.2877   24.1403 H   0  0  0  0  0  0
  -26.3604  -17.5621   20.8562 H   0  0  0  0  0  0
  -27.3259  -19.7689   20.7658 H   0  0  0  0  0  0
  -27.7567  -15.5748   21.2369 H   0  0  0  0  0  0
  -32.3758  -17.1254   19.6309 H   0  0  0  0  0  0
  -33.5560  -18.2351   20.3144 H   0  0  0  0  0  0
  -32.1551  -18.8587   19.4538 H   0  0  0  0  0  0
  -26.6235  -23.0164   20.5160 H   0  0  0  0  0  0
  -27.2797  -24.1914   19.3812 H   0  0  0  0  0  0
  -26.1522  -24.6734   20.6634 H   0  0  0  0  0  0
  -28.4488  -24.2745   23.5523 H   0  0  0  0  0  0
  -27.2637  -23.1064   22.9838 H   0  0  0  0  0  0
  -26.8511  -24.7994   23.0410 H   0  0  0  0  0  0
  -30.6859  -20.6892   20.2999 H   0  0  0  0  0  0
  -30.4846  -20.7297   22.0337 H   0  0  0  0  0  0
  -32.0895  -17.3273   22.1191 H   0  0  0  0  0  0
  -31.9360  -19.0392   21.9837 H   0  0  0  0  0  0
  -28.1472  -21.5711   21.7524 H   0  0  0  0  0  0
  -28.3720  -21.6391   20.0259 H   0  0  0  0  0  0
  -29.8749  -23.5377   20.1932 H   0  0  0  0  0  0
  -30.0749  -23.3349   21.9047 H   0  0  0  0  0  0
  -29.7230  -25.8691   21.4326 H   0  0  0  0  0  0
  -28.2429  -26.3923   22.1281 H   0  0  0  0  0  0
  -31.2080  -15.6861   22.0352 H   0  0  0  0  0  0
  1 25  1  0  0  0
  1 30  2  0  0  0
  1 86  1  0  0  0
  2  3  1  0  0  0
  2 25  1  0  0  0
  2 87  1  0  0  0
  2 88  1  0  0  0
  3  4  1  0  0  0
  3 89  1  0  0  0
  3 90  1  0  0  0
  4  5  1  0  0  0
  4 91  1  0  0  0
  4 92  1  0  0  0
  5  6  1  0  0  0
  5 26  1  0  0  0
  5 93  1  0  0  0
  6 25  1  0  0  0
  6 94  1  0  0  0
  6 95  1  0  0  0
  7  8  2  0  0  0
  7 26  1  0  0  0
  7 29  1  0  0  0
  8  9  1  0  0  0
  8 22  1  0  0  0
  9 10  1  0  0  0
  9 27  2  0  0  0
 10 11  2  0  0  0
 10 15  1  0  0  0
 11 12  1  0  0  0
 11 96  1  0  0  0
 12 13  2  0  0  0
 12 97  1  0  0  0
 13 14  1  0  0  0
 13 31  1  0  0  0
 14 15  2  0  0  0
 14 98  1  0  0  0
 15 99  1  0  0  0
 16 17  2  0  0  0
 16 21  1  0  0  0
 16 31  1  0  0  0
 17 18  1  0  0  0
 17100  1  0  0  0
 18 19  2  0  0  0
 18101  1  0  0  0
 19 20  1  0  0  0
 19 24  1  0  0  0
 20 21  2  0  0  0
 20102  1  0  0  0
 21 23  1  0  0  0
 22 28  1  0  0  0
 22 32  2  0  0  0
 26 27  1  0  0  0
 28103  1  0  0  0
 28104  1  0  0  0
 29105  1  0  0  0
 29106  1  0  0  0
 33 34  1  0  0  0
 33 66  1  0  0  0
 33 70  2  0  0  0
 34 36  1  0  0  0
 34 59  1  0  0  0
 34107  1  0  0  0
 35 44  2  0  0  0
 35 45  1  0  0  0
 35 68  1  0  0  0
 36 56  1  0  0  0
 36108  1  0  0  0
 37 39  1  0  0  0
 37 47  1  0  0  0
 37 66  1  0  0  0
 37109  1  0  0  0
 38 43  2  0  0  0
 38 46  1  0  0  0
 38 47  1  0  0  0
 39 64  1  0  0  0
 39 67  2  0  0  0
 40 52  1  0  0  0
 40 53  2  0  0  0
 40 58  1  0  0  0
 41110  1  0  0  0
 41111  1  0  0  0
 41112  1  0  0  0
 41 48  1  0  0  0
 42 43  1  0  0  0
 42 66  1  0  0  0
 42113  1  0  0  0
 42114  1  0  0  0
 43 44  1  0  0  0
 44115  1  0  0  0
 45 46  2  0  0  0
 45116  1  0  0  0
 46117  1  0  0  0
 47118  1  0  0  0
 47119  1  0  0  0
 48 56  1  0  0  0
 48 65  1  0  0  0
 48120  1  0  0  0
 49 50  1  0  0  0
 49 53  1  0  0  0
 49 64  1  0  0  0
 49121  1  0  0  0
 50 51  1  0  0  0
 50122  1  0  0  0
 50123  1  0  0  0
 51 52  1  0  0  0
 51124  1  0  0  0
 51125  1  0  0  0
 52126  1  0  0  0
 52127  1  0  0  0
 53 54  1  0  0  0
 54 55  2  0  0  0
 54128  1  0  0  0
 55 57  1  0  0  0
 55129  1  0  0  0
 56 69  2  0  0  0
 57 58  2  0  0  0
 57130  1  0  0  0
 58131  1  0  0  0
 59 60  1  0  0  0
 59 61  1  0  0  0
 59 62  1  0  0  0
 60132  1  0  0  0
 60133  1  0  0  0
 60134  1  0  0  0
 61135  1  0  0  0
 61136  1  0  0  0
 61137  1  0  0  0
 62138  1  0  0  0
 62139  1  0  0  0
 62140  1  0  0  0
 63 65  1  0  0  0
 63141  1  0  0  0
 63142  1  0  0  0
 63143  1  0  0  0
 64144  1  0  0  0
 65145  1  0  0  0
 68 84  1  0  0  0
 71 72  2  0  0  0
 71 73  1  0  0  0
 71146  1  0  0  0
 72 74  1  0  0  0
 72147  1  0  0  0
 73 76  2  0  0  0
 73148  1  0  0  0
 74 75  2  0  0  0
 74 80  1  0  0  0
 75 76  1  0  0  0
 75 81  1  0  0  0
 76 86  1  0  0  0
 77 81  1  0  0  0
 77149  1  0  0  0
 77150  1  0  0  0
 77151  1  0  0  0
 78152  1  0  0  0
 78153  1  0  0  0
 78154  1  0  0  0
 78 85  1  0  0  0
 79 85  1  0  0  0
 79155  1  0  0  0
 79156  1  0  0  0
 79157  1  0  0  0
 80 82  1  0  0  0
 80158  1  0  0  0
 80159  1  0  0  0
 81160  1  0  0  0
 81161  1  0  0  0
 82 83  1  0  0  0
 82162  1  0  0  0
 82163  1  0  0  0
 83 85  1  0  0  0
 83164  1  0  0  0
 83165  1  0  0  0
 84 85  1  0  0  0
 84166  1  0  0  0
 84167  1  0  0  0
 86168  1  0  0  0
M  ISO  4   1 100  68 101  84 101  86 100
M  END
> <chiral flag>
0

> <version>
0

> <s_m_source_file>
/data/baiqing/PycharmProjects/Reinvent-master-3.2/result/LINK_invent/BTK/process_docking_weight1_custom_product_contain_oxygen_bond_distance_aromatic_linkinvent_7_9_3/rearranged_h_0134.sdf

> <i_m_source_file_index>
36

> <r_mmod_Potential_Energy-OPLS-2005>
112.808166503906

> <r_mmod_Stretch_Energy-OPLS-2005>
61.6396141052246

> <r_mmod_Bend_Energy-OPLS-2005>
142.507308959961

> <r_mmod_Torsional_Energy-OPLS-2005>
300.183166503906

> <r_mmod_Improper_Torsional_Energy-OPLS-2005>
8.59380722045898

> <r_mmod_Van_der_Waal_Energy-OPLS-2005>
155.821914672852

> <r_mmod_Electrostatic_Energy-OPLS-2005>
-402.419036865234

> <r_mmod_Solvation_Energy-OPLS-2005>
-173.885543823242

> <b_mmod_Minimization_Converged-OPLS-2005>
0

> <r_mmod_RMS_Derivative-OPLS-2005>
2.655277967453

$$$$
36
                    3D
 Structure written by MMmdl.
190198  0  0  1  0            999 V2000
  -27.6608  -17.5303   20.4764 C   0  0  0  0  0  0
  -29.4610  -14.8681   19.6256 C   0  0  0  0  0  0
  -29.3232  -13.5249   18.6471 C   0  0  0  0  0  0
  -28.2390  -12.5468   19.0803 C   0  0  0  0  0  0
  -27.3299  -13.4639   19.8741 C   0  0  2  0  0  0
  -27.9100  -14.4223   20.9746 C   0  0  0  0  0  0
  -25.0574  -13.8173   20.5647 C   0  0  0  0  0  0
  -24.0546  -13.0065   20.9420 C   0  0  0  0  0  0
  -24.5722  -11.6732   20.8895 C   0  0  0  0  0  0
  -23.8753  -10.4066   21.0474 C   0  0  0  0  0  0
  -24.3446   -9.4062   21.9232 C   0  0  0  0  0  0
  -23.6196   -8.2058   22.0763 C   0  0  0  0  0  0
  -22.4173   -8.0090   21.3538 C   0  0  0  0  0  0
  -21.9754   -9.0003   20.4603 C   0  0  0  0  0  0
  -22.7007  -10.1900   20.3044 C   0  0  0  0  0  0
  -21.6806   -6.0619   22.5291 C   0  0  0  0  0  0
  -21.3983   -6.5570   23.8209 C   0  0  0  0  0  0
  -21.3657   -5.6750   24.9186 C   0  0  0  0  0  0
  -21.6053   -4.3012   24.7263 C   0  0  0  0  0  0
  -21.8818   -3.8073   23.4394 C   0  0  0  0  0  0
  -21.9177   -4.6860   22.3434 C   0  0  0  0  0  0
  -22.6685  -13.4752   21.2143 C   0  0  0  0  0  0
  -22.1645   -4.2053   21.1015 F   0  0  0  0  0  0
  -21.5645   -3.4512   25.7790 F   0  0  0  0  0  0
  -28.1739  -15.8165   20.3229 N   0  0  0  0  0  0
  -26.1069  -12.9705   20.3281 N   0  0  0  0  0  0
  -25.8621  -11.6683   20.5703 N   0  0  0  0  0  0
  -21.9572  -12.7762   22.0827 N   0  0  0  0  0  0
  -25.1539  -15.1974   20.3720 N   0  0  0  0  0  0
  -29.0066  -17.5127   20.3266 O   0  0  0  0  0  0
  -21.6557   -6.8704   21.4226 O   0  0  0  0  0  0
  -22.2421  -14.5113   20.7038 O   0  0  0  0  0  0
  -24.6189  -31.9217   23.1915 C   0  0  0  0  0  0
  -25.9105  -32.5035   23.8400 C   0  0  1  0  0  0
  -27.0411  -27.3734   20.4085 C   0  0  0  0  0  0
  -25.6032  -33.8772   24.2427 N   0  0  0  0  0  0
  -23.4352  -30.4915   21.5640 C   0  0  2  0  0  0
  -24.8443  -29.0450   20.0402 C   0  0  0  0  0  0
  -23.1349  -29.3317   22.5262 C   0  0  0  0  0  0
  -18.5772  -26.5867   23.2145 C   0  0  0  0  0  0
  -24.1493  -36.7355   23.2620 C   0  0  0  0  0  0
  -25.9322  -30.9026   21.3362 C   0  0  0  0  0  0
  -25.9876  -29.5343   20.6900 C   0  0  0  0  0  0
  -27.1183  -28.7104   20.8346 C   0  0  0  0  0  0
  -25.9702  -26.9331   19.6105 C   0  0  0  0  0  0
  -24.8473  -27.7654   19.4494 C   0  0  0  0  0  0
  -23.6075  -29.9063   20.1334 C   0  0  0  0  0  0
  -25.4120  -36.3161   24.0326 C   0  0  1  0  0  0
  -21.6835  -27.6357   23.3709 C   0  0  2  0  0  0
  -22.4430  -25.7613   23.2333 C   0  0  0  0  0  0
  -20.8018  -24.0839   23.0967 C   0  0  0  0  0  0
  -18.9043  -24.8869   22.9451 C   0  0  0  0  0  0
  -20.0200  -27.9743   23.5265 C   0  0  0  0  0  0
  -19.7763  -29.4585   22.8728 C   0  0  0  0  0  0
  -18.5324  -29.7925   21.9932 C   0  0  0  0  0  0
  -25.9091  -34.9569   23.5126 C   0  0  0  0  0  0
  -17.4237  -28.7349   21.6360 C   0  0  0  0  0  0
  -17.3836  -27.1911   22.1561 C   0  0  0  0  0  0
  -26.4500  -31.6630   25.0655 C   0  0  0  0  0  0
  -25.3742  -31.3576   26.1323 C   0  0  0  0  0  0
  -27.0443  -30.3120   24.5962 C   0  0  0  0  0  0
  -27.6041  -32.4276   25.7581 C   0  0  0  0  0  0
  -27.5584  -37.1838   24.8459 C   0  0  0  0  0  0
  -22.0812  -28.5985   22.3417 N   0  0  0  0  0  0
  -26.4286  -37.3846   23.9419 N   0  0  0  0  0  0
  -24.6712  -31.1669   22.0606 N   0  0  0  0  0  0
  -23.8883  -29.0265   23.4363 O   0  0  0  0  0  0
  -27.8162  -26.4532   21.0527 O   0  0  0  0  0  0
  -26.5542  -34.8986   22.4613 O   0  0  0  0  0  0
  -23.5403  -32.1774   23.7452 O   0  0  0  0  0  0
  -20.0081  -27.2550   20.0372 C   0  0  0  0  0  0
  -21.8231  -25.1031   19.7245 C   0  0  0  0  0  0
  -20.9731  -26.3054   19.3467 C   0  0  0  0  0  0
  -19.6857  -27.2891   21.4401 C   0  0  0  0  0  0
  -22.1340  -24.3690   20.9727 C   0  0  0  0  0  0
  -20.7562  -25.9025   21.8063 C   0  0  0  0  0  0
  -21.1469  -26.6894   17.8992 C   0  0  0  0  0  0
  -16.3307  -28.4408   24.2440 C   0  0  0  0  0  0
  -21.4361  -23.1332   27.1369 C   0  0  0  0  0  0
  -22.6948  -24.8854   28.4718 C   0  0  0  0  0  0
  -25.2626  -23.6680   24.0081 C   0  0  0  0  0  0
  -28.2881  -24.8683   22.7501 C   0  0  0  0  0  0
  -17.8962  -28.5685   23.9145 C   0  0  0  0  0  0
  -23.9601  -22.1966   20.7183 C   0  0  0  0  0  0
  -20.5220  -25.8509   24.4548 C   0  0  0  0  0  0
  -25.7851  -19.6742   20.7981 C   0  0  0  0  0  0
  -21.6605  -25.8649   25.6862 C   0  0  0  0  0  0
  -24.4546  -25.5089   25.7114 C   0  0  0  0  0  0
  -26.0731  -26.1208   23.3355 C   0  0  0  0  0  0
  -22.6992  -24.0296   27.1824 C   0  0  0  0  0  0
  -25.5504  -25.0941   24.5281 C   0  0  2  0  0  0
  -22.9281  -24.8677   25.8743 C   0  0  1  0  0  0
  -27.1037  -25.6238   22.1302 C   0  0  1  0  0  0
  -29.9978  -15.5819   19.0002 H   0  0  0  0  0  0
  -30.2284  -14.6658   20.3785 H   0  0  0  0  0  0
  -30.2790  -13.0101   18.5533 H   0  0  0  0  0  0
  -29.0778  -13.8688   17.6410 H   0  0  0  0  0  0
  -28.6411  -11.7616   19.7239 H   0  0  0  0  0  0
  -27.7361  -12.0747   18.2348 H   0  0  0  0  0  0
  -26.9961  -14.1137   19.0599 H   0  0  0  0  0  0
  -28.7087  -13.9539   21.5603 H   0  0  0  0  0  0
  -27.2009  -14.6147   21.7785 H   0  0  0  0  0  0
  -25.2547   -9.5627   22.4847 H   0  0  0  0  0  0
  -23.9905   -7.4459   22.7500 H   0  0  0  0  0  0
  -21.0690   -8.8463   19.8914 H   0  0  0  0  0  0
  -22.3423  -10.9429   19.6174 H   0  0  0  0  0  0
  -21.1962   -7.6078   23.9684 H   0  0  0  0  0  0
  -21.1496   -6.0494   25.9093 H   0  0  0  0  0  0
  -22.0613   -2.7530   23.2929 H   0  0  0  0  0  0
  -22.3344  -11.9442   22.5114 H   0  0  0  0  0  0
  -21.0245  -13.0753   22.3249 H   0  0  0  0  0  0
  -24.3469  -15.8073   20.4270 H   0  0  0  0  0  0
  -25.9536  -15.6121   19.9143 H   0  0  0  0  0  0
  -26.7169  -32.5780   23.1205 H   0  0  0  0  0  0
  -25.0312  -33.9979   25.0642 H   0  0  0  0  0  0
  -22.5959  -31.1839   21.5698 H   0  0  0  0  0  0
  -23.3748  -35.9687   23.3296 H   0  0  0  0  0  0
  -24.3579  -36.8972   22.2031 H   0  0  0  0  0  0
  -23.7279  -37.6569   23.6656 H   0  0  0  0  0  0
  -26.0731  -31.6737   20.5773 H   0  0  0  0  0  0
  -26.8100  -30.9352   21.9687 H   0  0  0  0  0  0
  -27.9453  -29.0347   21.4504 H   0  0  0  0  0  0
  -25.9193  -25.9110   19.2577 H   0  0  0  0  0  0
  -23.9656  -27.3956   18.9440 H   0  0  0  0  0  0
  -23.6941  -30.7192   19.4056 H   0  0  0  0  0  0
  -22.7248  -29.3352   19.8540 H   0  0  0  0  0  0
  -25.1294  -36.2009   25.0817 H   0  0  0  0  0  0
  -21.9897  -28.0781   24.3121 H   0  0  0  0  0  0
  -23.3402  -25.5815   23.7294 H   0  0  0  0  0  0
  -23.0886  -25.8955   22.3698 H   0  0  0  0  0  0
  -20.9081  -23.4884   24.0066 H   0  0  0  0  0  0
  -20.8502  -23.2203   22.4426 H   0  0  0  0  0  0
  -18.5368  -24.6413   21.9437 H   0  0  0  0  0  0
  -18.2651  -24.3068   23.6028 H   0  0  0  0  0  0
  -20.4957  -30.2587   22.9892 H   0  0  0  0  0  0
  -18.4612  -30.7797   21.5587 H   0  0  0  0  0  0
  -16.6356  -29.0583   20.9692 H   0  0  0  0  0  0
  -16.6213  -26.5342   21.7687 H   0  0  0  0  0  0
  -24.5929  -30.7021   25.7480 H   0  0  0  0  0  0
  -24.8958  -32.2687   26.4927 H   0  0  0  0  0  0
  -25.8093  -30.8548   26.9960 H   0  0  0  0  0  0
  -26.3109  -29.6864   24.0910 H   0  0  0  0  0  0
  -27.4191  -29.7342   25.4415 H   0  0  0  0  0  0
  -27.8875  -30.4522   23.9188 H   0  0  0  0  0  0
  -27.2618  -33.3475   26.2323 H   0  0  0  0  0  0
  -28.3892  -32.6962   25.0506 H   0  0  0  0  0  0
  -28.0651  -31.8236   26.5412 H   0  0  0  0  0  0
  -28.2578  -38.0154   24.7513 H   0  0  0  0  0  0
  -28.1105  -36.2688   24.6269 H   0  0  0  0  0  0
  -27.2298  -37.1456   25.8856 H   0  0  0  0  0  0
  -21.4202  -28.7845   21.5936 H   0  0  0  0  0  0
  -26.0165  -38.2904   24.1438 H   0  0  0  0  0  0
  -19.5098  -28.0004   19.4309 H   0  0  0  0  0  0
  -22.3442  -24.6685   18.8817 H   0  0  0  0  0  0
  -20.4959  -26.0854   17.2696 H   0  0  0  0  0  0
  -22.1808  -26.5509   17.5830 H   0  0  0  0  0  0
  -20.9015  -27.7415   17.7490 H   0  0  0  0  0  0
  -16.1197  -28.8578   25.2274 H   0  0  0  0  0  0
  -15.9587  -27.4135   24.2488 H   0  0  0  0  0  0
  -15.7178  -29.0088   23.5436 H   0  0  0  0  0  0
  -21.3556  -22.5382   28.0461 H   0  0  0  0  0  0
  -21.4495  -22.4263   26.3048 H   0  0  0  0  0  0
  -20.5105  -23.7039   27.0683 H   0  0  0  0  0  0
  -22.2374  -24.3585   29.3115 H   0  0  0  0  0  0
  -22.1517  -25.8280   28.3737 H   0  0  0  0  0  0
  -23.7068  -25.1237   28.7816 H   0  0  0  0  0  0
  -24.6635  -23.0660   24.6916 H   0  0  0  0  0  0
  -26.1712  -23.0843   23.9040 H   0  0  0  0  0  0
  -24.7706  -23.6989   23.0362 H   0  0  0  0  0  0
  -27.9778  -24.0276   23.3623 H   0  0  0  0  0  0
  -28.8865  -25.5200   23.3838 H   0  0  0  0  0  0
  -28.9339  -24.4629   21.9714 H   0  0  0  0  0  0
  -17.9382  -29.6324   24.2043 H   0  0  0  0  0  0
  -18.2152  -28.2053   24.9118 H   0  0  0  0  0  0
  -24.6409  -22.7845   20.1036 H   0  0  0  0  0  0
  -23.2625  -21.7252   20.0323 H   0  0  0  0  0  0
  -19.8351  -26.4408   25.0749 H   0  0  0  0  0  0
  -19.9947  -25.0116   24.9353 H   0  0  0  0  0  0
  -26.3570  -20.0655   21.6449 H   0  0  0  0  0  0
  -26.2134  -20.0438   19.8639 H   0  0  0  0  0  0
  -21.0359  -25.7710   26.5720 H   0  0  0  0  0  0
  -22.0302  -26.8636   25.8739 H   0  0  0  0  0  0
  -24.9545  -25.2689   26.6515 H   0  0  0  0  0  0
  -24.4116  -26.6013   25.7724 H   0  0  0  0  0  0
  -26.5333  -26.9583   23.8539 H   0  0  0  0  0  0
  -25.1948  -26.5703   22.8724 H   0  0  0  0  0  0
  -23.5194  -23.3166   27.2937 H   0  0  0  0  0  0
  -26.4821  -24.9635   25.0900 H   0  0  0  0  0  0
  -22.8365  -24.0770   25.1290 H   0  0  0  0  0  0
  -26.5173  -24.8915   21.5684 H   0  0  0  0  0  0
  1 25  1  0  0  0
  1 30  2  0  0  0
  1 86  1  0  0  0
  2  3  1  0  0  0
  2 25  1  0  0  0
  2 94  1  0  0  0
  2 95  1  0  0  0
  3  4  1  0  0  0
  3 96  1  0  0  0
  3 97  1  0  0  0
  4  5  1  0  0  0
  4 98  1  0  0  0
  4 99  1  0  0  0
  5  6  1  0  0  0
  5 26  1  0  0  0
  5100  1  0  0  0
  6 25  1  0  0  0
  6101  1  0  0  0
  6102  1  0  0  0
  7  8  2  0  0  0
  7 26  1  0  0  0
  7 29  1  0  0  0
  8  9  1  0  0  0
  8 22  1  0  0  0
  9 10  1  0  0  0
  9 27  2  0  0  0
 10 11  2  0  0  0
 10 15  1  0  0  0
 11 12  1  0  0  0
 11103  1  0  0  0
 12 13  2  0  0  0
 12104  1  0  0  0
 13 14  1  0  0  0
 13 31  1  0  0  0
 14 15  2  0  0  0
 14105  1  0  0  0
 15106  1  0  0  0
 16 17  2  0  0  0
 16 21  1  0  0  0
 16 31  1  0  0  0
 17 18  1  0  0  0
 17107  1  0  0  0
 18 19  2  0  0  0
 18108  1  0  0  0
 19 20  1  0  0  0
 19 24  1  0  0  0
 20 21  2  0  0  0
 20109  1  0  0  0
 21 23  1  0  0  0
 22 28  1  0  0  0
 22 32  2  0  0  0
 26 27  1  0  0  0
 28110  1  0  0  0
 28111  1  0  0  0
 29112  1  0  0  0
 29113  1  0  0  0
 33 34  1  0  0  0
 33 66  1  0  0  0
 33 70  2  0  0  0
 34 36  1  0  0  0
 34 59  1  0  0  0
 34114  1  0  0  0
 35 44  2  0  0  0
 35 45  1  0  0  0
 35 68  1  0  0  0
 36 56  1  0  0  0
 36115  1  0  0  0
 37 39  1  0  0  0
 37 47  1  0  0  0
 37 66  1  0  0  0
 37116  1  0  0  0
 38 43  2  0  0  0
 38 46  1  0  0  0
 38 47  1  0  0  0
 39 64  1  0  0  0
 39 67  2  0  0  0
 40 52  1  0  0  0
 40 53  2  0  0  0
 40 58  1  0  0  0
 41117  1  0  0  0
 41118  1  0  0  0
 41119  1  0  0  0
 41 48  1  0  0  0
 42 43  1  0  0  0
 42 66  1  0  0  0
 42120  1  0  0  0
 42121  1  0  0  0
 43 44  1  0  0  0
 44122  1  0  0  0
 45 46  2  0  0  0
 45123  1  0  0  0
 46124  1  0  0  0
 47125  1  0  0  0
 47126  1  0  0  0
 48 56  1  0  0  0
 48 65  1  0  0  0
 48127  1  0  0  0
 49 50  1  0  0  0
 49 53  1  0  0  0
 49 64  1  0  0  0
 49128  1  0  0  0
 50 51  1  0  0  0
 50129  1  0  0  0
 50130  1  0  0  0
 51 52  1  0  0  0
 51131  1  0  0  0
 51132  1  0  0  0
 52133  1  0  0  0
 52134  1  0  0  0
 53 54  1  0  0  0
 54 55  2  0  0  0
 54135  1  0  0  0
 55 57  1  0  0  0
 55136  1  0  0  0
 56 69  2  0  0  0
 57 58  2  0  0  0
 57137  1  0  0  0
 58138  1  0  0  0
 59 60  1  0  0  0
 59 61  1  0  0  0
 59 62  1  0  0  0
 60139  1  0  0  0
 60140  1  0  0  0
 60141  1  0  0  0
 61142  1  0  0  0
 61143  1  0  0  0
 61144  1  0  0  0
 62145  1  0  0  0
 62146  1  0  0  0
 62147  1  0  0  0
 63 65  1  0  0  0
 63148  1  0  0  0
 63149  1  0  0  0
 63150  1  0  0  0
 64151  1  0  0  0
 65152  1  0  0  0
 68 93  1  0  0  0
 71 73  2  0  0  0
 71 74  1  0  0  0
 71153  1  0  0  0
 72 73  1  0  0  0
 72 75  2  0  0  0
 72154  1  0  0  0
 73 77  1  0  0  0
 74 76  2  0  0  0
 74 83  1  0  0  0
 75 76  1  0  0  0
 75 84  1  0  0  0
 76 85  1  0  0  0
 77155  1  0  0  0
 77156  1  0  0  0
 77157  1  0  0  0
 78 83  1  0  0  0
 78158  1  0  0  0
 78159  1  0  0  0
 78160  1  0  0  0
 79161  1  0  0  0
 79162  1  0  0  0
 79163  1  0  0  0
 79 90  1  0  0  0
 80 90  1  0  0  0
 80164  1  0  0  0
 80165  1  0  0  0
 80166  1  0  0  0
 81167  1  0  0  0
 81168  1  0  0  0
 81169  1  0  0  0
 81 91  1  0  0  0
 82170  1  0  0  0
 82171  1  0  0  0
 82172  1  0  0  0
 82 93  1  0  0  0
 83173  1  0  0  0
 83174  1  0  0  0
 84 86  1  0  0  0
 84175  1  0  0  0
 84176  1  0  0  0
 85 87  1  0  0  0
 85177  1  0  0  0
 85178  1  0  0  0
 86179  1  0  0  0
 86180  1  0  0  0
 87181  1  0  0  0
 87182  1  0  0  0
 87 92  1  0  0  0
 88 91  1  0  0  0
 88 92  1  0  0  0
 88183  1  0  0  0
 88184  1  0  0  0
 89 91  1  0  0  0
 89 93  1  0  0  0
 89185  1  0  0  0
 89186  1  0  0  0
 90 92  1  0  0  0
 90187  1  0  0  0
 91188  1  0  0  0
 92189  1  0  0  0
 93190  1  0  0  0
M  ISO  4   1 100  68 101  86 100  93 101
M  END
> <chiral flag>
0

> <version>
0

> <s_m_source_file>
/data/baiqing/PycharmProjects/Reinvent-master-3.2/result/LINK_invent/BTK/process_docking_weight1_custom_product_contain_oxygen_bond_distance_aromatic_linkinvent_7_9_3/rearranged_h_0134.sdf

> <i_m_source_file_index>
37

> <r_mmod_Potential_Energy-OPLS-2005>
36087.60546875

> <r_mmod_Stretch_Energy-OPLS-2005>
18928.7109375

> <r_mmod_Bend_Energy-OPLS-2005>
2511.52758789062

> <r_mmod_Torsional_Energy-OPLS-2005>
424.503845214844

> <r_mmod_Improper_Torsional_Energy-OPLS-2005>
33.4026412963867

> <r_mmod_Van_der_Waal_Energy-OPLS-2005>
4136.32275390625

> <r_mmod_Electrostatic_Energy-OPLS-2005>
-371.540710449219

> <r_mmod_Solvation_Energy-OPLS-2005>
-154.08479309082

> <b_mmod_Minimization_Converged-OPLS-2005>
0

> <r_mmod_RMS_Derivative-OPLS-2005>
20.9285736083984

$$$$
37
                    3D
 Structure written by MMmdl.
168177  0  0  1  0            999 V2000
  -30.6976  -14.4057   20.6297 C   0  0  0  0  0  0
  -30.4362  -12.2837   19.3953 C   0  0  0  0  0  0
  -29.4936  -12.5025   18.1941 C   0  0  0  0  0  0
  -28.0160  -12.3638   18.6113 C   0  0  0  0  0  0
  -27.6734  -13.1866   19.8803 C   0  0  2  0  0  0
  -28.7151  -12.9133   20.9905 C   0  0  0  0  0  0
  -25.2678  -13.8137   20.5643 C   0  0  0  0  0  0
  -24.1893  -13.0433   20.9130 C   0  0  0  0  0  0
  -24.6416  -11.6889   20.8727 C   0  0  0  0  0  0
  -23.9073  -10.4276   21.0419 C   0  0  0  0  0  0
  -24.3626   -9.4180   21.9196 C   0  0  0  0  0  0
  -23.6287   -8.2217   22.0766 C   0  0  0  0  0  0
  -22.4266   -8.0272   21.3555 C   0  0  0  0  0  0
  -21.9921   -9.0238   20.4641 C   0  0  0  0  0  0
  -22.7259  -10.2112   20.3051 C   0  0  0  0  0  0
  -21.6834   -6.0731   22.5275 C   0  0  0  0  0  0
  -21.4003   -6.5640   23.8212 C   0  0  0  0  0  0
  -21.3653   -5.6799   24.9179 C   0  0  0  0  0  0
  -21.6033   -4.3064   24.7221 C   0  0  0  0  0  0
  -21.8834   -3.8142   23.4351 C   0  0  0  0  0  0
  -21.9200   -4.6955   22.3407 C   0  0  0  0  0  0
  -22.7931  -13.5236   21.1799 C   0  0  0  0  0  0
  -22.1688   -4.2141   21.0991 F   0  0  0  0  0  0
  -21.5610   -3.4557   25.7736 F   0  0  0  0  0  0
  -30.0450  -13.2301   20.4479 N   0  0  0  0  0  0
  -26.3092  -12.9252   20.3366 N   0  0  0  0  0  0
  -25.9329  -11.6437   20.5754 N   0  0  0  0  0  0
  -22.0574  -12.8183   22.0333 N   0  0  0  0  0  0
  -25.4481  -15.1839   20.4054 N   0  0  0  0  0  0
  -31.7930  -14.6402   20.1074 O   0  0  0  0  0  0
  -21.6619   -6.8871   21.4241 O   0  0  0  0  0  0
  -22.3630  -14.5561   20.6688 O   0  0  0  0  0  0
  -24.6097  -31.8704   23.2126 C   0  0  0  0  0  0
  -25.9010  -32.4834   23.8403 C   0  0  1  0  0  0
  -27.2509  -27.4826   20.0845 C   0  0  0  0  0  0
  -25.5892  -33.8631   24.2340 N   0  0  0  0  0  0
  -23.3947  -30.4923   21.5548 C   0  0  2  0  0  0
  -24.8426  -28.9595   20.1238 C   0  0  0  0  0  0
  -22.7377  -29.4660   22.5041 C   0  0  0  0  0  0
  -18.0259  -28.1359   22.8498 C   0  0  0  0  0  0
  -24.1496  -36.7316   23.2637 C   0  0  0  0  0  0
  -25.9179  -30.8520   21.3562 C   0  0  0  0  0  0
  -25.9992  -29.4881   20.7094 C   0  0  0  0  0  0
  -27.2042  -28.7581   20.6956 C   0  0  0  0  0  0
  -26.0709  -26.9486   19.5280 C   0  0  0  0  0  0
  -24.8685  -27.6817   19.5388 C   0  0  0  0  0  0
  -23.6003  -29.8194   20.1707 C   0  0  0  0  0  0
  -25.4114  -36.3124   24.0341 C   0  0  1  0  0  0
  -20.5842  -28.3634   23.1352 C   0  0  2  0  0  0
  -20.6752  -26.9381   22.5433 C   0  0  0  0  0  0
  -19.5731  -26.6361   21.5226 C   0  0  0  0  0  0
  -18.1901  -26.7915   22.1619 C   0  0  0  0  0  0
  -19.1504  -28.8817   23.2922 C   0  0  0  0  0  0
  -18.9435  -30.1428   23.8914 C   0  0  0  0  0  0
  -17.6438  -30.6582   24.0559 C   0  0  0  0  0  0
  -25.9034  -34.9485   23.5140 C   0  0  0  0  0  0
  -16.5332  -29.9084   23.6324 C   0  0  0  0  0  0
  -16.7249  -28.6494   23.0355 C   0  0  0  0  0  0
  -26.4452  -31.6593   25.0707 C   0  0  0  0  0  0
  -25.3725  -31.3659   26.1448 C   0  0  0  0  0  0
  -27.0299  -30.3062   24.6035 C   0  0  0  0  0  0
  -27.6012  -32.4308   25.7504 C   0  0  0  0  0  0
  -27.5587  -37.1825   24.8469 C   0  0  0  0  0  0
  -21.4114  -29.3007   22.3768 N   0  0  0  0  0  0
  -26.4307  -37.3802   23.9404 N   0  0  0  0  0  0
  -24.6589  -31.0844   22.1008 N   0  0  0  0  0  0
  -23.4174  -28.8197   23.3065 O   0  0  0  0  0  0
  -28.3872  -26.7136   19.9825 O   0  0  0  0  0  0
  -26.5599  -34.8932   22.4705 O   0  0  0  0  0  0
  -23.5305  -32.1440   23.7553 O   0  0  0  0  0  0
  -28.3070  -20.3619   19.1555 C   0  0  0  0  0  0
  -28.6443  -19.2310   19.9215 C   0  0  0  0  0  0
  -28.8441  -21.6212   19.4773 C   0  0  0  0  0  0
  -30.0699  -20.6166   21.3215 C   0  0  0  0  0  0
  -29.5408  -19.3491   21.0029 C   0  0  0  0  0  0
  -29.7296  -21.7652   20.5755 C   0  0  0  0  0  0
  -31.3924  -17.7263   21.9330 C   0  0  0  0  0  0
  -29.9446  -18.1376   21.7862 C   0  0  2  0  0  0
  -30.4634  -16.9245   21.0488 C   0  0  2  0  0  0
  -32.2258  -24.4355   19.5130 C   0  0  0  0  0  0
  -31.6802  -25.4405   21.7549 C   0  0  0  0  0  0
  -30.0055  -15.5255   21.4304 C   0  0  0  0  0  0
  -30.7718  -26.4637   19.6196 C   0  0  0  0  0  0
  -29.6464  -27.3267   20.2250 C   0  0  0  0  0  0
  -29.9122  -24.1914   20.4201 C   0  0  0  0  0  0
  -31.1308  -25.1394   20.3452 C   0  0  0  0  0  0
  -30.3207  -22.9434   20.9792 O   0  0  0  0  0  0
  -31.4749  -12.4100   19.0844 H   0  0  0  0  0  0
  -30.3650  -11.2597   19.7665 H   0  0  0  0  0  0
  -29.7240  -11.7886   17.4017 H   0  0  0  0  0  0
  -29.6598  -13.4957   17.7726 H   0  0  0  0  0  0
  -27.8222  -11.3077   18.7995 H   0  0  0  0  0  0
  -27.3649  -12.6510   17.7856 H   0  0  0  0  0  0
  -27.7369  -14.2370   19.6019 H   0  0  0  0  0  0
  -28.6863  -11.8623   21.2829 H   0  0  0  0  0  0
  -28.4829  -13.4619   21.9038 H   0  0  0  0  0  0
  -25.2799   -9.5617   22.4753 H   0  0  0  0  0  0
  -23.9983   -7.4608   22.7499 H   0  0  0  0  0  0
  -21.0856   -8.8763   19.8936 H   0  0  0  0  0  0
  -22.3764  -10.9646   19.6132 H   0  0  0  0  0  0
  -21.2007   -7.6156   23.9703 H   0  0  0  0  0  0
  -21.1461   -6.0540   25.9081 H   0  0  0  0  0  0
  -22.0627   -2.7602   23.2845 H   0  0  0  0  0  0
  -22.4237  -11.9811   22.4630 H   0  0  0  0  0  0
  -21.1188  -13.1163   22.2577 H   0  0  0  0  0  0
  -24.6932  -15.8519   20.5179 H   0  0  0  0  0  0
  -26.3103  -15.6099   20.0872 H   0  0  0  0  0  0
  -26.7094  -32.5577   23.1189 H   0  0  0  0  0  0
  -25.0081  -33.9807   25.0512 H   0  0  0  0  0  0
  -22.6811  -31.3074   21.4162 H   0  0  0  0  0  0
  -23.3767  -35.9645   23.3307 H   0  0  0  0  0  0
  -24.3595  -36.8915   22.2050 H   0  0  0  0  0  0
  -23.7243  -37.6518   23.6651 H   0  0  0  0  0  0
  -26.0214  -31.6177   20.5857 H   0  0  0  0  0  0
  -26.8080  -30.9107   21.9711 H   0  0  0  0  0  0
  -28.0846  -29.1873   21.1497 H   0  0  0  0  0  0
  -26.0880  -25.9659   19.0775 H   0  0  0  0  0  0
  -23.9754  -27.2562   19.1029 H   0  0  0  0  0  0
  -23.7030  -30.5920   19.4076 H   0  0  0  0  0  0
  -22.7256  -29.2342   19.8795 H   0  0  0  0  0  0
  -25.1293  -36.1995   25.0835 H   0  0  0  0  0  0
  -20.9929  -28.3182   24.1473 H   0  0  0  0  0  0
  -20.5663  -26.2229   23.3598 H   0  0  0  0  0  0
  -21.6626  -26.7431   22.1215 H   0  0  0  0  0  0
  -19.6897  -25.6274   21.1246 H   0  0  0  0  0  0
  -19.6678  -27.3179   20.6760 H   0  0  0  0  0  0
  -17.4180  -26.6678   21.4013 H   0  0  0  0  0  0
  -18.0286  -26.0049   22.8996 H   0  0  0  0  0  0
  -19.7912  -30.7247   24.2284 H   0  0  0  0  0  0
  -17.4996  -31.6273   24.5140 H   0  0  0  0  0  0
  -15.5336  -30.2992   23.7631 H   0  0  0  0  0  0
  -15.8645  -28.0821   22.7065 H   0  0  0  0  0  0
  -24.5912  -30.7004   25.7772 H   0  0  0  0  0  0
  -24.8897  -32.2792   26.4926 H   0  0  0  0  0  0
  -25.8070  -30.8802   27.0189 H   0  0  0  0  0  0
  -26.2852  -29.6846   24.1054 H   0  0  0  0  0  0
  -27.4073  -29.7259   25.4461 H   0  0  0  0  0  0
  -27.8669  -30.4419   23.9183 H   0  0  0  0  0  0
  -27.2610  -33.3583   26.2129 H   0  0  0  0  0  0
  -28.3816  -32.6906   25.0340 H   0  0  0  0  0  0
  -28.0696  -31.8400   26.5391 H   0  0  0  0  0  0
  -28.2608  -38.0118   24.7520 H   0  0  0  0  0  0
  -28.1074  -36.2647   24.6302 H   0  0  0  0  0  0
  -27.2296  -37.1479   25.8868 H   0  0  0  0  0  0
  -20.9261  -29.8743   21.7009 H   0  0  0  0  0  0
  -26.0195  -38.2887   24.1385 H   0  0  0  0  0  0
  -27.6381  -20.2637   18.3124 H   0  0  0  0  0  0
  -28.2226  -18.2690   19.6646 H   0  0  0  0  0  0
  -28.5521  -22.4437   18.8457 H   0  0  0  0  0  0
  -30.7591  -20.7102   22.1500 H   0  0  0  0  0  0
  -31.6964  -17.2649   22.8712 H   0  0  0  0  0  0
  -32.1436  -18.3475   21.4498 H   0  0  0  0  0  0
  -29.2920  -17.9871   22.6449 H   0  0  0  0  0  0
  -30.5837  -17.0691   19.9756 H   0  0  0  0  0  0
  -33.0844  -25.0820   19.3353 H   0  0  0  0  0  0
  -31.8417  -24.1254   18.5407 H   0  0  0  0  0  0
  -32.5973  -23.5377   20.0076 H   0  0  0  0  0  0
  -32.4851  -26.1751   21.7164 H   0  0  0  0  0  0
  -32.0793  -24.5437   22.2291 H   0  0  0  0  0  0
  -30.9068  -25.8329   22.4161 H   0  0  0  0  0  0
  -28.9315  -15.5081   21.2554 H   0  0  0  0  0  0
  -30.1635  -15.3538   22.4952 H   0  0  0  0  0  0
  -31.6691  -27.0818   19.5782 H   0  0  0  0  0  0
  -30.5264  -26.2570   18.5777 H   0  0  0  0  0  0
  -29.6818  -28.3010   19.7360 H   0  0  0  0  0  0
  -29.7901  -27.4951   21.2916 H   0  0  0  0  0  0
  -29.5049  -24.1193   19.4152 H   0  0  0  0  0  0
  -29.1241  -24.5999   21.0557 H   0  0  0  0  0  0
  1 25  1  0  0  0
  1 30  2  0  0  0
  1 82  1  0  0  0
  2  3  1  0  0  0
  2 25  1  0  0  0
  2 88  1  0  0  0
  2 89  1  0  0  0
  3  4  1  0  0  0
  3 90  1  0  0  0
  3 91  1  0  0  0
  4  5  1  0  0  0
  4 92  1  0  0  0
  4 93  1  0  0  0
  5  6  1  0  0  0
  5 26  1  0  0  0
  5 94  1  0  0  0
  6 25  1  0  0  0
  6 95  1  0  0  0
  6 96  1  0  0  0
  7  8  2  0  0  0
  7 26  1  0  0  0
  7 29  1  0  0  0
  8  9  1  0  0  0
  8 22  1  0  0  0
  9 10  1  0  0  0
  9 27  2  0  0  0
 10 11  2  0  0  0
 10 15  1  0  0  0
 11 12  1  0  0  0
 11 97  1  0  0  0
 12 13  2  0  0  0
 12 98  1  0  0  0
 13 14  1  0  0  0
 13 31  1  0  0  0
 14 15  2  0  0  0
 14 99  1  0  0  0
 15100  1  0  0  0
 16 17  2  0  0  0
 16 21  1  0  0  0
 16 31  1  0  0  0
 17 18  1  0  0  0
 17101  1  0  0  0
 18 19  2  0  0  0
 18102  1  0  0  0
 19 20  1  0  0  0
 19 24  1  0  0  0
 20 21  2  0  0  0
 20103  1  0  0  0
 21 23  1  0  0  0
 22 28  1  0  0  0
 22 32  2  0  0  0
 26 27  1  0  0  0
 28104  1  0  0  0
 28105  1  0  0  0
 29106  1  0  0  0
 29107  1  0  0  0
 33 34  1  0  0  0
 33 66  1  0  0  0
 33 70  2  0  0  0
 34 36  1  0  0  0
 34 59  1  0  0  0
 34108  1  0  0  0
 35 44  2  0  0  0
 35 45  1  0  0  0
 35 68  1  0  0  0
 36 56  1  0  0  0
 36109  1  0  0  0
 37 39  1  0  0  0
 37 47  1  0  0  0
 37 66  1  0  0  0
 37110  1  0  0  0
 38 43  2  0  0  0
 38 46  1  0  0  0
 38 47  1  0  0  0
 39 64  1  0  0  0
 39 67  2  0  0  0
 40 52  1  0  0  0
 40 53  2  0  0  0
 40 58  1  0  0  0
 41111  1  0  0  0
 41112  1  0  0  0
 41113  1  0  0  0
 41 48  1  0  0  0
 42 43  1  0  0  0
 42 66  1  0  0  0
 42114  1  0  0  0
 42115  1  0  0  0
 43 44  1  0  0  0
 44116  1  0  0  0
 45 46  2  0  0  0
 45117  1  0  0  0
 46118  1  0  0  0
 47119  1  0  0  0
 47120  1  0  0  0
 48 56  1  0  0  0
 48 65  1  0  0  0
 48121  1  0  0  0
 49 50  1  0  0  0
 49 53  1  0  0  0
 49 64  1  0  0  0
 49122  1  0  0  0
 50 51  1  0  0  0
 50123  1  0  0  0
 50124  1  0  0  0
 51 52  1  0  0  0
 51125  1  0  0  0
 51126  1  0  0  0
 52127  1  0  0  0
 52128  1  0  0  0
 53 54  1  0  0  0
 54 55  2  0  0  0
 54129  1  0  0  0
 55 57  1  0  0  0
 55130  1  0  0  0
 56 69  2  0  0  0
 57 58  2  0  0  0
 57131  1  0  0  0
 58132  1  0  0  0
 59 60  1  0  0  0
 59 61  1  0  0  0
 59 62  1  0  0  0
 60133  1  0  0  0
 60134  1  0  0  0
 60135  1  0  0  0
 61136  1  0  0  0
 61137  1  0  0  0
 61138  1  0  0  0
 62139  1  0  0  0
 62140  1  0  0  0
 62141  1  0  0  0
 63 65  1  0  0  0
 63142  1  0  0  0
 63143  1  0  0  0
 63144  1  0  0  0
 64145  1  0  0  0
 65146  1  0  0  0
 68 84  1  0  0  0
 71 72  2  0  0  0
 71 73  1  0  0  0
 71147  1  0  0  0
 72 75  1  0  0  0
 72148  1  0  0  0
 73 76  2  0  0  0
 73149  1  0  0  0
 74 75  2  0  0  0
 74 76  1  0  0  0
 74150  1  0  0  0
 75 78  1  0  0  0
 76 87  1  0  0  0
 77 78  1  0  0  0
 77 79  1  0  0  0
 77151  1  0  0  0
 77152  1  0  0  0
 78 79  1  0  0  0
 78153  1  0  0  0
 79 82  1  0  0  0
 79154  1  0  0  0
 80155  1  0  0  0
 80156  1  0  0  0
 80157  1  0  0  0
 80 86  1  0  0  0
 81 86  1  0  0  0
 81158  1  0  0  0
 81159  1  0  0  0
 81160  1  0  0  0
 82161  1  0  0  0
 82162  1  0  0  0
 83 84  1  0  0  0
 83 86  1  0  0  0
 83163  1  0  0  0
 83164  1  0  0  0
 84165  1  0  0  0
 84166  1  0  0  0
 85 86  1  0  0  0
 85 87  1  0  0  0
 85167  1  0  0  0
 85168  1  0  0  0
M  ISO  4   1 100  68 101  82 100  84 101
M  END
> <chiral flag>
0

> <version>
0

> <s_m_source_file>
/data/baiqing/PycharmProjects/Reinvent-master-3.2/result/LINK_invent/BTK/process_docking_weight1_custom_product_contain_oxygen_bond_distance_aromatic_linkinvent_7_9_3/rearranged_h_0134.sdf

> <i_m_source_file_index>
38

> <r_mmod_Potential_Energy-OPLS-2005>
2.61938548088074

> <r_mmod_Stretch_Energy-OPLS-2005>
32.8826332092285

> <r_mmod_Bend_Energy-OPLS-2005>
112.287994384766

> <r_mmod_Torsional_Energy-OPLS-2005>
209.754699707031

> <r_mmod_Improper_Torsional_Energy-OPLS-2005>
2.38094925880432

> <r_mmod_Van_der_Waal_Energy-OPLS-2005>
159.910125732422

> <r_mmod_Electrostatic_Energy-OPLS-2005>
-332.011596679688

> <r_mmod_Solvation_Energy-OPLS-2005>
-189.941055297852

> <b_mmod_Minimization_Converged-OPLS-2005>
0

> <r_mmod_RMS_Derivative-OPLS-2005>
3.13892912864685

$$$$
38
                    3D
 Structure written by MMmdl.
164172  0  0  1  0            999 V2000
  -30.7702  -14.3753   20.6489 C   0  0  0  0  0  0
  -30.4095  -12.2834   19.4051 C   0  0  0  0  0  0
  -29.4849  -12.5292   18.1980 C   0  0  0  0  0  0
  -28.0062  -12.3911   18.6082 C   0  0  0  0  0  0
  -27.6631  -13.2064   19.8833 C   0  0  2  0  0  0
  -28.7006  -12.9417   20.9960 C   0  0  0  0  0  0
  -25.2554  -13.8141   20.5615 C   0  0  0  0  0  0
  -24.1824  -13.0427   20.9151 C   0  0  0  0  0  0
  -24.6390  -11.6898   20.8734 C   0  0  0  0  0  0
  -23.9059  -10.4287   21.0408 C   0  0  0  0  0  0
  -24.3611   -9.4204   21.9187 C   0  0  0  0  0  0
  -23.6285   -8.2241   22.0759 C   0  0  0  0  0  0
  -22.4269   -8.0277   21.3545 C   0  0  0  0  0  0
  -21.9903   -9.0251   20.4648 C   0  0  0  0  0  0
  -22.7233  -10.2130   20.3056 C   0  0  0  0  0  0
  -21.6850   -6.0732   22.5278 C   0  0  0  0  0  0
  -21.4014   -6.5638   23.8212 C   0  0  0  0  0  0
  -21.3660   -5.6790   24.9173 C   0  0  0  0  0  0
  -21.6045   -4.3051   24.7224 C   0  0  0  0  0  0
  -21.8818   -3.8143   23.4346 C   0  0  0  0  0  0
  -21.9192   -4.6960   22.3400 C   0  0  0  0  0  0
  -22.7848  -13.5229   21.1826 C   0  0  0  0  0  0
  -22.1660   -4.2148   21.0976 F   0  0  0  0  0  0
  -21.5630   -3.4535   25.7737 F   0  0  0  0  0  0
  -30.0392  -13.2422   20.4565 N   0  0  0  0  0  0
  -26.3028  -12.9336   20.3398 N   0  0  0  0  0  0
  -25.9324  -11.6494   20.5788 N   0  0  0  0  0  0
  -22.0499  -12.8225   22.0391 N   0  0  0  0  0  0
  -25.4203  -15.1837   20.3904 N   0  0  0  0  0  0
  -31.8467  -14.5982   20.0827 O   0  0  0  0  0  0
  -21.6635   -6.8875   21.4240 O   0  0  0  0  0  0
  -22.3528  -14.5545   20.6693 O   0  0  0  0  0  0
  -24.6121  -31.8700   23.2138 C   0  0  0  0  0  0
  -25.9026  -32.4838   23.8419 C   0  0  1  0  0  0
  -27.2356  -27.4750   20.0850 C   0  0  0  0  0  0
  -25.5896  -33.8639   24.2358 N   0  0  0  0  0  0
  -23.3969  -30.4935   21.5540 C   0  0  2  0  0  0
  -24.8427  -28.9659   20.1148 C   0  0  0  0  0  0
  -22.7391  -29.4666   22.5022 C   0  0  0  0  0  0
  -18.0259  -28.1373   22.8502 C   0  0  0  0  0  0
  -24.1485  -36.7317   23.2637 C   0  0  0  0  0  0
  -25.9206  -30.8505   21.3568 C   0  0  0  0  0  0
  -26.0019  -29.4892   20.7013 C   0  0  0  0  0  0
  -27.2050  -28.7534   20.6775 C   0  0  0  0  0  0
  -26.0586  -26.9531   19.5030 C   0  0  0  0  0  0
  -24.8641  -27.6955   19.5132 C   0  0  0  0  0  0
  -23.6017  -29.8253   20.1682 C   0  0  0  0  0  0
  -25.4105  -36.3128   24.0342 C   0  0  1  0  0  0
  -20.5847  -28.3651   23.1340 C   0  0  2  0  0  0
  -20.6757  -26.9395   22.5422 C   0  0  0  0  0  0
  -19.5735  -26.6386   21.5219 C   0  0  0  0  0  0
  -18.1906  -26.7925   22.1626 C   0  0  0  0  0  0
  -19.1509  -28.8830   23.2910 C   0  0  0  0  0  0
  -18.9439  -30.1439   23.8915 C   0  0  0  0  0  0
  -17.6443  -30.6582   24.0564 C   0  0  0  0  0  0
  -25.9023  -34.9487   23.5142 C   0  0  0  0  0  0
  -16.5332  -29.9082   23.6330 C   0  0  0  0  0  0
  -16.7246  -28.6495   23.0359 C   0  0  0  0  0  0
  -26.4466  -31.6605   25.0734 C   0  0  0  0  0  0
  -25.3753  -31.3660   26.1493 C   0  0  0  0  0  0
  -27.0306  -30.3069   24.6061 C   0  0  0  0  0  0
  -27.6052  -32.4321   25.7485 C   0  0  0  0  0  0
  -27.5580  -37.1815   24.8466 C   0  0  0  0  0  0
  -21.4126  -29.3022   22.3759 N   0  0  0  0  0  0
  -26.4297  -37.3812   23.9410 N   0  0  0  0  0  0
  -24.6615  -31.0838   22.1011 N   0  0  0  0  0  0
  -23.4180  -28.8220   23.3058 O   0  0  0  0  0  0
  -28.4064  -26.7568   20.0943 O   0  0  0  0  0  0
  -26.5571  -34.8931   22.4696 O   0  0  0  0  0  0
  -23.5332  -32.1420   23.7566 O   0  0  0  0  0  0
  -29.8325  -17.0416   19.6797 C   0  0  0  0  0  0
  -29.1219  -18.0441   18.9991 C   0  0  0  0  0  0
  -27.4568  -18.0312   20.7572 C   0  0  0  0  0  0
  -29.3713  -16.4921   20.9051 C   0  0  0  0  0  0
  -28.1530  -17.0104   21.4437 C   0  0  0  0  0  0
  -27.9383  -18.5620   19.5425 C   0  0  0  0  0  0
  -30.1922  -15.4288   21.5770 C   0  0  0  0  0  0
  -27.8818  -17.4193   23.9360 C   0  0  0  0  0  0
  -27.5247  -16.5201   22.7460 C   0  0  0  0  0  0
  -27.6022  -23.0889   20.0938 C   0  0  0  0  0  0
  -28.3344  -24.3513   19.6118 C   0  0  0  0  0  0
  -27.8019  -21.8719   19.1818 C   0  0  0  0  0  0
  -28.2926  -25.4600   20.6749 C   0  0  0  0  0  0
  -26.8998  -20.7000   19.5926 C   0  0  0  0  0  0
  -30.4157  -15.4041   22.8254 N   0  0  0  0  0  0
  -27.2779  -19.5458   18.8484 O   0  0  0  0  0  0
  -31.4555  -12.3661   19.1049 H   0  0  0  0  0  0
  -30.2915  -11.2632   19.7737 H   0  0  0  0  0  0
  -29.7178  -11.8289   17.3950 H   0  0  0  0  0  0
  -29.6627  -13.5276   17.7952 H   0  0  0  0  0  0
  -27.8051  -11.3330   18.7792 H   0  0  0  0  0  0
  -27.3581  -12.6930   17.7849 H   0  0  0  0  0  0
  -27.7202  -14.2621   19.6173 H   0  0  0  0  0  0
  -28.6635  -11.8946   21.3001 H   0  0  0  0  0  0
  -28.4527  -13.5010   21.8968 H   0  0  0  0  0  0
  -25.2756   -9.5682   22.4763 H   0  0  0  0  0  0
  -23.9994   -7.4634   22.7480 H   0  0  0  0  0  0
  -21.0835   -8.8770   19.8951 H   0  0  0  0  0  0
  -22.3694  -10.9670   19.6163 H   0  0  0  0  0  0
  -21.2005   -7.6144   23.9715 H   0  0  0  0  0  0
  -21.1484   -6.0519   25.9078 H   0  0  0  0  0  0
  -22.0597   -2.7606   23.2844 H   0  0  0  0  0  0
  -22.4111  -11.9876   22.4766 H   0  0  0  0  0  0
  -21.1126  -13.1258   22.2619 H   0  0  0  0  0  0
  -24.6490  -15.8331   20.4906 H   0  0  0  0  0  0
  -26.2820  -15.6327   20.1072 H   0  0  0  0  0  0
  -26.7112  -32.5555   23.1201 H   0  0  0  0  0  0
  -25.0111  -33.9821   25.0551 H   0  0  0  0  0  0
  -22.6831  -31.3078   21.4167 H   0  0  0  0  0  0
  -23.3757  -35.9641   23.3322 H   0  0  0  0  0  0
  -24.3577  -36.8912   22.2046 H   0  0  0  0  0  0
  -23.7231  -37.6522   23.6644 H   0  0  0  0  0  0
  -26.0231  -31.6219   20.5925 H   0  0  0  0  0  0
  -26.8121  -30.9045   21.9698 H   0  0  0  0  0  0
  -28.1038  -29.1539   21.1262 H   0  0  0  0  0  0
  -26.0561  -25.9769   19.0412 H   0  0  0  0  0  0
  -23.9708  -27.2848   19.0619 H   0  0  0  0  0  0
  -23.7025  -30.5987   19.4058 H   0  0  0  0  0  0
  -22.7281  -29.2381   19.8791 H   0  0  0  0  0  0
  -25.1290  -36.2005   25.0836 H   0  0  0  0  0  0
  -20.9908  -28.3215   24.1472 H   0  0  0  0  0  0
  -20.5688  -26.2249   23.3601 H   0  0  0  0  0  0
  -21.6628  -26.7464   22.1198 H   0  0  0  0  0  0
  -19.6902  -25.6301   21.1235 H   0  0  0  0  0  0
  -19.6691  -27.3215   20.6766 H   0  0  0  0  0  0
  -17.4184  -26.6691   21.4011 H   0  0  0  0  0  0
  -18.0286  -26.0051   22.9006 H   0  0  0  0  0  0
  -19.7916  -30.7243   24.2298 H   0  0  0  0  0  0
  -17.4997  -31.6267   24.5160 H   0  0  0  0  0  0
  -15.5332  -30.2989   23.7636 H   0  0  0  0  0  0
  -15.8648  -28.0809   22.7083 H   0  0  0  0  0  0
  -24.5952  -30.6978   25.7820 H   0  0  0  0  0  0
  -24.8910  -32.2787   26.4979 H   0  0  0  0  0  0
  -25.8138  -30.8811   27.0229 H   0  0  0  0  0  0
  -26.2822  -29.6817   24.1171 H   0  0  0  0  0  0
  -27.4165  -29.7317   25.4492 H   0  0  0  0  0  0
  -27.8623  -30.4422   23.9139 H   0  0  0  0  0  0
  -27.2692  -33.3623   26.2078 H   0  0  0  0  0  0
  -28.3846  -32.6873   25.0296 H   0  0  0  0  0  0
  -28.0738  -31.8434   26.5383 H   0  0  0  0  0  0
  -28.2602  -38.0108   24.7520 H   0  0  0  0  0  0
  -28.1072  -36.2641   24.6301 H   0  0  0  0  0  0
  -27.2285  -37.1461   25.8864 H   0  0  0  0  0  0
  -20.9284  -29.8727   21.6969 H   0  0  0  0  0  0
  -26.0196  -38.2889   24.1432 H   0  0  0  0  0  0
  -30.7589  -16.7096   19.2342 H   0  0  0  0  0  0
  -29.5034  -18.4338   18.0658 H   0  0  0  0  0  0
  -26.5297  -18.4025   21.1709 H   0  0  0  0  0  0
  -27.4088  -17.0573   24.8491 H   0  0  0  0  0  0
  -27.5403  -18.4414   23.7709 H   0  0  0  0  0  0
  -28.9564  -17.4550   24.1112 H   0  0  0  0  0  0
  -27.7800  -15.4826   22.9548 H   0  0  0  0  0  0
  -26.4403  -16.5148   22.6304 H   0  0  0  0  0  0
  -26.5366  -23.3117   20.1717 H   0  0  0  0  0  0
  -27.9342  -22.8338   21.1016 H   0  0  0  0  0  0
  -27.8773  -24.6932   18.6834 H   0  0  0  0  0  0
  -29.3744  -24.1284   19.3706 H   0  0  0  0  0  0
  -28.8477  -21.5637   19.2204 H   0  0  0  0  0  0
  -27.5953  -22.1397   18.1449 H   0  0  0  0  0  0
  -29.1166  -25.3224   21.3753 H   0  0  0  0  0  0
  -27.3877  -25.3779   21.2815 H   0  0  0  0  0  0
  -25.8579  -20.9349   19.3709 H   0  0  0  0  0  0
  -26.9631  -20.5593   20.6722 H   0  0  0  0  0  0
  -29.9582  -16.1847   23.2797 H   0  0  0  0  0  0
  1 25  1  0  0  0
  1 30  2  0  0  0
  1 77  1  0  0  0
  2  3  1  0  0  0
  2 25  1  0  0  0
  2 87  1  0  0  0
  2 88  1  0  0  0
  3  4  1  0  0  0
  3 89  1  0  0  0
  3 90  1  0  0  0
  4  5  1  0  0  0
  4 91  1  0  0  0
  4 92  1  0  0  0
  5  6  1  0  0  0
  5 26  1  0  0  0
  5 93  1  0  0  0
  6 25  1  0  0  0
  6 94  1  0  0  0
  6 95  1  0  0  0
  7  8  2  0  0  0
  7 26  1  0  0  0
  7 29  1  0  0  0
  8  9  1  0  0  0
  8 22  1  0  0  0
  9 10  1  0  0  0
  9 27  2  0  0  0
 10 11  2  0  0  0
 10 15  1  0  0  0
 11 12  1  0  0  0
 11 96  1  0  0  0
 12 13  2  0  0  0
 12 97  1  0  0  0
 13 14  1  0  0  0
 13 31  1  0  0  0
 14 15  2  0  0  0
 14 98  1  0  0  0
 15 99  1  0  0  0
 16 17  2  0  0  0
 16 21  1  0  0  0
 16 31  1  0  0  0
 17 18  1  0  0  0
 17100  1  0  0  0
 18 19  2  0  0  0
 18101  1  0  0  0
 19 20  1  0  0  0
 19 24  1  0  0  0
 20 21  2  0  0  0
 20102  1  0  0  0
 21 23  1  0  0  0
 22 28  1  0  0  0
 22 32  2  0  0  0
 26 27  1  0  0  0
 28103  1  0  0  0
 28104  1  0  0  0
 29105  1  0  0  0
 29106  1  0  0  0
 33 34  1  0  0  0
 33 66  1  0  0  0
 33 70  2  0  0  0
 34 36  1  0  0  0
 34 59  1  0  0  0
 34107  1  0  0  0
 35 44  2  0  0  0
 35 45  1  0  0  0
 35 68  1  0  0  0
 36 56  1  0  0  0
 36108  1  0  0  0
 37 39  1  0  0  0
 37 47  1  0  0  0
 37 66  1  0  0  0
 37109  1  0  0  0
 38 43  2  0  0  0
 38 46  1  0  0  0
 38 47  1  0  0  0
 39 64  1  0  0  0
 39 67  2  0  0  0
 40 52  1  0  0  0
 40 53  2  0  0  0
 40 58  1  0  0  0
 41110  1  0  0  0
 41111  1  0  0  0
 41112  1  0  0  0
 41 48  1  0  0  0
 42 43  1  0  0  0
 42 66  1  0  0  0
 42113  1  0  0  0
 42114  1  0  0  0
 43 44  1  0  0  0
 44115  1  0  0  0
 45 46  2  0  0  0
 45116  1  0  0  0
 46117  1  0  0  0
 47118  1  0  0  0
 47119  1  0  0  0
 48 56  1  0  0  0
 48 65  1  0  0  0
 48120  1  0  0  0
 49 50  1  0  0  0
 49 53  1  0  0  0
 49 64  1  0  0  0
 49121  1  0  0  0
 50 51  1  0  0  0
 50122  1  0  0  0
 50123  1  0  0  0
 51 52  1  0  0  0
 51124  1  0  0  0
 51125  1  0  0  0
 52126  1  0  0  0
 52127  1  0  0  0
 53 54  1  0  0  0
 54 55  2  0  0  0
 54128  1  0  0  0
 55 57  1  0  0  0
 55129  1  0  0  0
 56 69  2  0  0  0
 57 58  2  0  0  0
 57130  1  0  0  0
 58131  1  0  0  0
 59 60  1  0  0  0
 59 61  1  0  0  0
 59 62  1  0  0  0
 60132  1  0  0  0
 60133  1  0  0  0
 60134  1  0  0  0
 61135  1  0  0  0
 61136  1  0  0  0
 61137  1  0  0  0
 62138  1  0  0  0
 62139  1  0  0  0
 62140  1  0  0  0
 63 65  1  0  0  0
 63141  1  0  0  0
 63142  1  0  0  0
 63143  1  0  0  0
 64144  1  0  0  0
 65145  1  0  0  0
 68 83  1  0  0  0
 71 72  2  0  0  0
 71 74  1  0  0  0
 71146  1  0  0  0
 72 76  1  0  0  0
 72147  1  0  0  0
 73 75  1  0  0  0
 73 76  2  0  0  0
 73148  1  0  0  0
 74 75  2  0  0  0
 74 77  1  0  0  0
 75 79  1  0  0  0
 76 86  1  0  0  0
 77 85  2  0  0  0
 78 79  1  0  0  0
 78149  1  0  0  0
 78150  1  0  0  0
 78151  1  0  0  0
 79152  1  0  0  0
 79153  1  0  0  0
 80 81  1  0  0  0
 80 82  1  0  0  0
 80154  1  0  0  0
 80155  1  0  0  0
 81 83  1  0  0  0
 81156  1  0  0  0
 81157  1  0  0  0
 82 84  1  0  0  0
 82158  1  0  0  0
 82159  1  0  0  0
 83160  1  0  0  0
 83161  1  0  0  0
 84 86  1  0  0  0
 84162  1  0  0  0
 84163  1  0  0  0
 85164  1  0  0  0
M  ISO  4   1 100  68 101  77 100  83 101
M  END
> <chiral flag>
0

> <version>
0

> <s_m_source_file>
/data/baiqing/PycharmProjects/Reinvent-master-3.2/result/LINK_invent/BTK/process_docking_weight1_custom_product_contain_oxygen_bond_distance_aromatic_linkinvent_7_9_3/rearranged_h_0134.sdf

> <i_m_source_file_index>
39

> <r_mmod_Potential_Energy-OPLS-2005>
153.674270629883

> <r_mmod_Stretch_Energy-OPLS-2005>
36.0478744506836

> <r_mmod_Bend_Energy-OPLS-2005>
97.2661743164062

> <r_mmod_Torsional_Energy-OPLS-2005>
258.260528564453

> <r_mmod_Improper_Torsional_Energy-OPLS-2005>
1.80379676818848

> <r_mmod_Van_der_Waal_Energy-OPLS-2005>
152.728240966797

> <r_mmod_Electrostatic_Energy-OPLS-2005>
-214.216186523438

> <r_mmod_Solvation_Energy-OPLS-2005>
-186.245452880859

> <b_mmod_Minimization_Converged-OPLS-2005>
0

> <r_mmod_RMS_Derivative-OPLS-2005>
1.01604509353638

$$$$
39
                    3D
 Structure written by MMmdl.
165173  0  0  1  0            999 V2000
  -30.7039  -14.4650   20.6019 C   0  0  0  0  0  0
  -30.4259  -12.3269   19.3961 C   0  0  0  0  0  0
  -29.4709  -12.5227   18.1975 C   0  0  0  0  0  0
  -28.0038  -12.3456   18.6273 C   0  0  0  0  0  0
  -27.6572  -13.1976   19.8735 C   0  0  2  0  0  0
  -28.7083  -12.9714   20.9862 C   0  0  0  0  0  0
  -25.2565  -13.8143   20.5650 C   0  0  0  0  0  0
  -24.1794  -13.0428   20.9202 C   0  0  0  0  0  0
  -24.6356  -11.6896   20.8781 C   0  0  0  0  0  0
  -23.9025  -10.4274   21.0440 C   0  0  0  0  0  0
  -24.3600   -9.4186   21.9192 C   0  0  0  0  0  0
  -23.6291   -8.2205   22.0712 C   0  0  0  0  0  0
  -22.4265   -8.0260   21.3528 C   0  0  0  0  0  0
  -21.9915   -9.0228   20.4628 C   0  0  0  0  0  0
  -22.7220  -10.2129   20.3072 C   0  0  0  0  0  0
  -21.6826   -6.0723   22.5275 C   0  0  0  0  0  0
  -21.3986   -6.5627   23.8217 C   0  0  0  0  0  0
  -21.3670   -5.6806   24.9190 C   0  0  0  0  0  0
  -21.6048   -4.3058   24.7261 C   0  0  0  0  0  0
  -21.8822   -3.8141   23.4376 C   0  0  0  0  0  0
  -21.9184   -4.6940   22.3421 C   0  0  0  0  0  0
  -22.7842  -13.5252   21.1888 C   0  0  0  0  0  0
  -22.1660   -4.2133   21.0992 F   0  0  0  0  0  0
  -21.5649   -3.4536   25.7766 F   0  0  0  0  0  0
  -30.0376  -13.2918   20.4347 N   0  0  0  0  0  0
  -26.2990  -12.9289   20.3384 N   0  0  0  0  0  0
  -25.9283  -11.6473   20.5835 N   0  0  0  0  0  0
  -22.0547  -12.8167   22.0475 N   0  0  0  0  0  0
  -25.4358  -15.1823   20.3990 N   0  0  0  0  0  0
  -31.8149  -14.6877   20.1067 O   0  0  0  0  0  0
  -21.6620   -6.8853   21.4235 O   0  0  0  0  0  0
  -22.3488  -14.5576   20.6786 O   0  0  0  0  0  0
  -24.6094  -31.8699   23.2161 C   0  0  0  0  0  0
  -25.9013  -32.4845   23.8411 C   0  0  1  0  0  0
  -27.1965  -27.4323   20.0581 C   0  0  0  0  0  0
  -25.5908  -33.8679   24.2341 N   0  0  0  0  0  0
  -23.3919  -30.4995   21.5614 C   0  0  2  0  0  0
  -24.8208  -28.9683   20.1133 C   0  0  0  0  0  0
  -22.7371  -29.4678   22.5069 C   0  0  0  0  0  0
  -18.0341  -28.1301   22.8503 C   0  0  0  0  0  0
  -24.1494  -36.7333   23.2630 C   0  0  0  0  0  0
  -25.9261  -30.8250   21.3765 C   0  0  0  0  0  0
  -25.9861  -29.4640   20.7094 C   0  0  0  0  0  0
  -27.1746  -28.6986   20.6855 C   0  0  0  0  0  0
  -26.0056  -26.9417   19.4722 C   0  0  0  0  0  0
  -24.8246  -27.7050   19.4965 C   0  0  0  0  0  0
  -23.5917  -29.8475   20.1718 C   0  0  0  0  0  0
  -25.4136  -36.3158   24.0340 C   0  0  1  0  0  0
  -20.5893  -28.3594   23.1371 C   0  0  2  0  0  0
  -20.6825  -26.9359   22.5426 C   0  0  0  0  0  0
  -19.5839  -26.6465   21.5157 C   0  0  0  0  0  0
  -18.2021  -26.7873   22.1574 C   0  0  0  0  0  0
  -19.1554  -28.8737   23.2965 C   0  0  0  0  0  0
  -18.9508  -30.1321   23.9027 C   0  0  0  0  0  0
  -17.6508  -30.6481   24.0660 C   0  0  0  0  0  0
  -25.9066  -34.9514   23.5137 C   0  0  0  0  0  0
  -16.5414  -29.9054   23.6335 C   0  0  0  0  0  0
  -16.7329  -28.6465   23.0344 C   0  0  0  0  0  0
  -26.4415  -31.6650   25.0781 C   0  0  0  0  0  0
  -25.3676  -31.3804   26.1548 C   0  0  0  0  0  0
  -27.0270  -30.3085   24.6264 C   0  0  0  0  0  0
  -27.5971  -32.4388   25.7548 C   0  0  0  0  0  0
  -27.5606  -37.1849   24.8468 C   0  0  0  0  0  0
  -21.4100  -29.3053   22.3813 N   0  0  0  0  0  0
  -26.4316  -37.3855   23.9408 N   0  0  0  0  0  0
  -24.6605  -31.0787   22.1077 N   0  0  0  0  0  0
  -23.4206  -28.8192   23.3044 O   0  0  0  0  0  0
  -28.3789  -26.7237   20.0453 O   0  0  0  0  0  0
  -26.5625  -34.8960   22.4704 O   0  0  0  0  0  0
  -23.5289  -32.1465   23.7564 O   0  0  0  0  0  0
  -28.4500  -18.4974   19.0300 C   0  0  0  0  0  0
  -28.5220  -19.5830   19.8610 C   0  0  0  0  0  0
  -29.2799  -19.1298   20.9915 C   0  0  0  0  0  0
  -29.6193  -17.8172   20.7512 C   0  0  0  0  0  0
  -28.4101  -21.3975   23.9571 C   0  0  0  0  0  0
  -27.9057  -20.9680   19.6489 C   0  0  0  0  0  0
  -29.6054  -19.9535   22.2097 C   0  0  0  0  0  0
  -30.4170  -16.7920   21.5202 C   0  0  0  0  0  0
  -28.3794  -20.1079   23.1269 C   0  0  0  0  0  0
  -28.6466  -21.8375   18.6034 C   0  0  0  0  0  0
  -29.2162  -23.1842   19.1139 C   0  0  0  0  0  0
  -28.1857  -24.2600   19.5548 C   0  0  0  0  0  0
  -28.5594  -25.6864   19.0713 C   0  0  0  0  0  0
  -30.0153  -15.4001   21.2706 N   0  0  0  0  0  0
  -29.1169  -17.4279   19.5490 O   0  0  0  0  0  0
  -31.4566  -12.4639   19.0679 H   0  0  0  0  0  0
  -30.3680  -11.3117   19.7987 H   0  0  0  0  0  0
  -29.7183  -11.8236   17.3959 H   0  0  0  0  0  0
  -29.5928  -13.5250   17.7809 H   0  0  0  0  0  0
  -27.8513  -11.2889   18.8508 H   0  0  0  0  0  0
  -27.3263  -12.5901   17.8067 H   0  0  0  0  0  0
  -27.6994  -14.2437   19.5689 H   0  0  0  0  0  0
  -28.6968  -11.9290   21.3108 H   0  0  0  0  0  0
  -28.4561  -13.5456   21.8788 H   0  0  0  0  0  0
  -25.2745   -9.5613   22.4801 H   0  0  0  0  0  0
  -24.0014   -7.4536   22.7354 H   0  0  0  0  0  0
  -21.0882   -8.8725   19.8892 H   0  0  0  0  0  0
  -22.3664  -10.9683   19.6202 H   0  0  0  0  0  0
  -21.1946   -7.6140   23.9703 H   0  0  0  0  0  0
  -21.1507   -6.0545   25.9093 H   0  0  0  0  0  0
  -22.0599   -2.7603   23.2888 H   0  0  0  0  0  0
  -22.4267  -11.9844   22.4835 H   0  0  0  0  0  0
  -21.1164  -13.1055   22.2805 H   0  0  0  0  0  0
  -24.6885  -15.8626   20.4984 H   0  0  0  0  0  0
  -26.3157  -15.5975   20.1153 H   0  0  0  0  0  0
  -26.7090  -32.5473   23.1154 H   0  0  0  0  0  0
  -25.0087  -33.9862   25.0516 H   0  0  0  0  0  0
  -22.6785  -31.3181   21.4453 H   0  0  0  0  0  0
  -23.3783  -35.9635   23.3327 H   0  0  0  0  0  0
  -24.3549  -36.8929   22.2021 H   0  0  0  0  0  0
  -23.7227  -37.6562   23.6612 H   0  0  0  0  0  0
  -26.0750  -31.6033   20.6243 H   0  0  0  0  0  0
  -26.7941  -30.8363   22.0200 H   0  0  0  0  0  0
  -28.0736  -29.0844   21.1448 H   0  0  0  0  0  0
  -25.9560  -25.9763   18.9916 H   0  0  0  0  0  0
  -23.9172  -27.3254   19.0485 H   0  0  0  0  0  0
  -23.7110  -30.6404   19.4328 H   0  0  0  0  0  0
  -22.6996  -29.2937   19.8712 H   0  0  0  0  0  0
  -25.1310  -36.2041   25.0835 H   0  0  0  0  0  0
  -21.0070  -28.3102   24.1476 H   0  0  0  0  0  0
  -20.5673  -26.2175   23.3540 H   0  0  0  0  0  0
  -21.6686  -26.7369   22.1236 H   0  0  0  0  0  0
  -19.7041  -25.6448   21.1054 H   0  0  0  0  0  0
  -19.6780  -27.3373   20.6727 H   0  0  0  0  0  0
  -17.4312  -26.6680   21.3943 H   0  0  0  0  0  0
  -18.0477  -25.9913   22.8848 H   0  0  0  0  0  0
  -19.7982  -30.7087   24.2484 H   0  0  0  0  0  0
  -17.5075  -31.6094   24.5415 H   0  0  0  0  0  0
  -15.5418  -30.2985   23.7675 H   0  0  0  0  0  0
  -15.8741  -28.0837   22.7002 H   0  0  0  0  0  0
  -24.5757  -30.7268   25.7904 H   0  0  0  0  0  0
  -24.8942  -32.2949   26.5084 H   0  0  0  0  0  0
  -25.7939  -30.8888   27.0288 H   0  0  0  0  0  0
  -26.2804  -29.6777   24.1441 H   0  0  0  0  0  0
  -27.4112  -29.7444   25.4771 H   0  0  0  0  0  0
  -27.8612  -30.4392   23.9391 H   0  0  0  0  0  0
  -27.2582  -33.3626   26.2263 H   0  0  0  0  0  0
  -28.3701  -32.7085   25.0342 H   0  0  0  0  0  0
  -28.0767  -31.8475   26.5352 H   0  0  0  0  0  0
  -28.2670  -38.0110   24.7535 H   0  0  0  0  0  0
  -28.1058  -36.2652   24.6275 H   0  0  0  0  0  0
  -27.2315  -37.1531   25.8873 H   0  0  0  0  0  0
  -20.9261  -29.8912   21.7144 H   0  0  0  0  0  0
  -26.0218  -38.2950   24.1414 H   0  0  0  0  0  0
  -27.9746  -18.3154   18.0739 H   0  0  0  0  0  0
  -27.4634  -21.5594   24.4774 H   0  0  0  0  0  0
  -28.5611  -22.2651   23.3144 H   0  0  0  0  0  0
  -29.1977  -21.3719   24.7059 H   0  0  0  0  0  0
  -27.8216  -21.4999   20.5959 H   0  0  0  0  0  0
  -26.8732  -20.8429   19.3237 H   0  0  0  0  0  0
  -29.9567  -20.9243   21.8540 H   0  0  0  0  0  0
  -30.4353  -19.5101   22.7635 H   0  0  0  0  0  0
  -31.4795  -16.9257   21.3120 H   0  0  0  0  0  0
  -30.3106  -16.9851   22.5896 H   0  0  0  0  0  0
  -27.4741  -20.1415   22.5250 H   0  0  0  0  0  0
  -28.2807  -19.2307   23.7663 H   0  0  0  0  0  0
  -27.9735  -22.0503   17.7692 H   0  0  0  0  0  0
  -29.4594  -21.2481   18.1714 H   0  0  0  0  0  0
  -29.8233  -23.6002   18.3097 H   0  0  0  0  0  0
  -29.9173  -23.0020   19.9312 H   0  0  0  0  0  0
  -28.0970  -24.2510   20.6428 H   0  0  0  0  0  0
  -27.1927  -24.0019   19.1805 H   0  0  0  0  0  0
  -28.0531  -25.9090   18.1309 H   0  0  0  0  0  0
  -29.6168  -25.7356   18.8210 H   0  0  0  0  0  0
  -29.1078  -15.1201   21.6091 H   0  0  0  0  0  0
  1 25  1  0  0  0
  1 30  2  0  0  0
  1 84  1  0  0  0
  2  3  1  0  0  0
  2 25  1  0  0  0
  2 86  1  0  0  0
  2 87  1  0  0  0
  3  4  1  0  0  0
  3 88  1  0  0  0
  3 89  1  0  0  0
  4  5  1  0  0  0
  4 90  1  0  0  0
  4 91  1  0  0  0
  5  6  1  0  0  0
  5 26  1  0  0  0
  5 92  1  0  0  0
  6 25  1  0  0  0
  6 93  1  0  0  0
  6 94  1  0  0  0
  7  8  2  0  0  0
  7 26  1  0  0  0
  7 29  1  0  0  0
  8  9  1  0  0  0
  8 22  1  0  0  0
  9 10  1  0  0  0
  9 27  2  0  0  0
 10 11  2  0  0  0
 10 15  1  0  0  0
 11 12  1  0  0  0
 11 95  1  0  0  0
 12 13  2  0  0  0
 12 96  1  0  0  0
 13 14  1  0  0  0
 13 31  1  0  0  0
 14 15  2  0  0  0
 14 97  1  0  0  0
 15 98  1  0  0  0
 16 17  2  0  0  0
 16 21  1  0  0  0
 16 31  1  0  0  0
 17 18  1  0  0  0
 17 99  1  0  0  0
 18 19  2  0  0  0
 18100  1  0  0  0
 19 20  1  0  0  0
 19 24  1  0  0  0
 20 21  2  0  0  0
 20101  1  0  0  0
 21 23  1  0  0  0
 22 28  1  0  0  0
 22 32  2  0  0  0
 26 27  1  0  0  0
 28102  1  0  0  0
 28103  1  0  0  0
 29104  1  0  0  0
 29105  1  0  0  0
 33 34  1  0  0  0
 33 66  1  0  0  0
 33 70  2  0  0  0
 34 36  1  0  0  0
 34 59  1  0  0  0
 34106  1  0  0  0
 35 44  2  0  0  0
 35 45  1  0  0  0
 35 68  1  0  0  0
 36 56  1  0  0  0
 36107  1  0  0  0
 37 39  1  0  0  0
 37 47  1  0  0  0
 37 66  1  0  0  0
 37108  1  0  0  0
 38 43  2  0  0  0
 38 46  1  0  0  0
 38 47  1  0  0  0
 39 64  1  0  0  0
 39 67  2  0  0  0
 40 52  1  0  0  0
 40 53  2  0  0  0
 40 58  1  0  0  0
 41109  1  0  0  0
 41110  1  0  0  0
 41111  1  0  0  0
 41 48  1  0  0  0
 42 43  1  0  0  0
 42 66  1  0  0  0
 42112  1  0  0  0
 42113  1  0  0  0
 43 44  1  0  0  0
 44114  1  0  0  0
 45 46  2  0  0  0
 45115  1  0  0  0
 46116  1  0  0  0
 47117  1  0  0  0
 47118  1  0  0  0
 48 56  1  0  0  0
 48 65  1  0  0  0
 48119  1  0  0  0
 49 50  1  0  0  0
 49 53  1  0  0  0
 49 64  1  0  0  0
 49120  1  0  0  0
 50 51  1  0  0  0
 50121  1  0  0  0
 50122  1  0  0  0
 51 52  1  0  0  0
 51123  1  0  0  0
 51124  1  0  0  0
 52125  1  0  0  0
 52126  1  0  0  0
 53 54  1  0  0  0
 54 55  2  0  0  0
 54127  1  0  0  0
 55 57  1  0  0  0
 55128  1  0  0  0
 56 69  2  0  0  0
 57 58  2  0  0  0
 57129  1  0  0  0
 58130  1  0  0  0
 59 60  1  0  0  0
 59 61  1  0  0  0
 59 62  1  0  0  0
 60131  1  0  0  0
 60132  1  0  0  0
 60133  1  0  0  0
 61134  1  0  0  0
 61135  1  0  0  0
 61136  1  0  0  0
 62137  1  0  0  0
 62138  1  0  0  0
 62139  1  0  0  0
 63 65  1  0  0  0
 63140  1  0  0  0
 63141  1  0  0  0
 63142  1  0  0  0
 64143  1  0  0  0
 65144  1  0  0  0
 68 83  1  0  0  0
 71 72  2  0  0  0
 71 85  1  0  0  0
 71145  1  0  0  0
 72 73  1  0  0  0
 72 76  1  0  0  0
 73 74  2  0  0  0
 73 77  1  0  0  0
 74 78  1  0  0  0
 74 85  1  0  0  0
 75 79  1  0  0  0
 75146  1  0  0  0
 75147  1  0  0  0
 75148  1  0  0  0
 76 80  1  0  0  0
 76149  1  0  0  0
 76150  1  0  0  0
 77 79  1  0  0  0
 77151  1  0  0  0
 77152  1  0  0  0
 78 84  1  0  0  0
 78153  1  0  0  0
 78154  1  0  0  0
 79155  1  0  0  0
 79156  1  0  0  0
 80 81  1  0  0  0
 80157  1  0  0  0
 80158  1  0  0  0
 81 82  1  0  0  0
 81159  1  0  0  0
 81160  1  0  0  0
 82 83  1  0  0  0
 82161  1  0  0  0
 82162  1  0  0  0
 83163  1  0  0  0
 83164  1  0  0  0
 84165  1  0  0  0
M  ISO  4   1 100  68 101  83 101  84 100
M  END
> <chiral flag>
0

> <version>
0

> <s_m_source_file>
/data/baiqing/PycharmProjects/Reinvent-master-3.2/result/LINK_invent/BTK/process_docking_weight1_custom_product_contain_oxygen_bond_distance_aromatic_linkinvent_7_9_3/rearranged_h_0134.sdf

> <i_m_source_file_index>
40

> <r_mmod_Potential_Energy-OPLS-2005>
-110.998809814453

> <r_mmod_Stretch_Energy-OPLS-2005>
35.154052734375

> <r_mmod_Bend_Energy-OPLS-2005>
102.121490478516

> <r_mmod_Torsional_Energy-OPLS-2005>
223.085403442383

> <r_mmod_Improper_Torsional_Energy-OPLS-2005>
2.33184242248535

> <r_mmod_Van_der_Waal_Energy-OPLS-2005>
126.167846679688

> <r_mmod_Electrostatic_Energy-OPLS-2005>
-412.518676757812

> <r_mmod_Solvation_Energy-OPLS-2005>
-201.830123901367

> <b_mmod_Minimization_Converged-OPLS-2005>
0

> <r_mmod_RMS_Derivative-OPLS-2005>
7.6170539855957

$$$$
40
                    3D
 Structure written by MMmdl.
160168  0  0  1  0            999 V2000
  -30.7087  -14.4877   20.5867 C   0  0  0  0  0  0
  -30.4202  -12.3259   19.4208 C   0  0  0  0  0  0
  -29.4899  -12.5057   18.2045 C   0  0  0  0  0  0
  -28.0127  -12.3630   18.6200 C   0  0  0  0  0  0
  -27.6567  -13.2110   19.8707 C   0  0  2  0  0  0
  -28.6993  -13.0093   20.9920 C   0  0  0  0  0  0
  -25.2551  -13.8164   20.5649 C   0  0  0  0  0  0
  -24.1822  -13.0437   20.9187 C   0  0  0  0  0  0
  -24.6388  -11.6908   20.8749 C   0  0  0  0  0  0
  -23.9059  -10.4293   21.0410 C   0  0  0  0  0  0
  -24.3612   -9.4207   21.9187 C   0  0  0  0  0  0
  -23.6289   -8.2241   22.0755 C   0  0  0  0  0  0
  -22.4271   -8.0279   21.3546 C   0  0  0  0  0  0
  -21.9906   -9.0251   20.4647 C   0  0  0  0  0  0
  -22.7233  -10.2131   20.3056 C   0  0  0  0  0  0
  -21.6851   -6.0732   22.5278 C   0  0  0  0  0  0
  -21.4012   -6.5636   23.8211 C   0  0  0  0  0  0
  -21.3658   -5.6790   24.9173 C   0  0  0  0  0  0
  -21.6043   -4.3052   24.7226 C   0  0  0  0  0  0
  -21.8821   -3.8144   23.4347 C   0  0  0  0  0  0
  -21.9195   -4.6961   22.3402 C   0  0  0  0  0  0
  -22.7845  -13.5234   21.1849 C   0  0  0  0  0  0
  -22.1661   -4.2144   21.0980 F   0  0  0  0  0  0
  -21.5631   -3.4537   25.7739 F   0  0  0  0  0  0
  -30.0258  -13.3192   20.4337 N   0  0  0  0  0  0
  -26.2994  -12.9347   20.3348 N   0  0  0  0  0  0
  -25.9317  -11.6505   20.5781 N   0  0  0  0  0  0
  -22.0488  -12.8227   22.0406 N   0  0  0  0  0  0
  -25.4236  -15.1872   20.3978 N   0  0  0  0  0  0
  -31.8324  -14.6634   20.1077 O   0  0  0  0  0  0
  -21.6640   -6.8872   21.4238 O   0  0  0  0  0  0
  -22.3529  -14.5540   20.6699 O   0  0  0  0  0  0
  -24.6152  -31.8662   23.2065 C   0  0  0  0  0  0
  -25.9037  -32.4818   23.8374 C   0  0  1  0  0  0
  -27.2363  -27.4174   20.1104 C   0  0  0  0  0  0
  -25.5891  -33.8615   24.2304 N   0  0  0  0  0  0
  -23.4042  -30.4869   21.5477 C   0  0  2  0  0  0
  -24.8508  -28.9447   20.1165 C   0  0  0  0  0  0
  -22.7416  -29.4644   22.4987 C   0  0  0  0  0  0
  -18.0272  -28.1379   22.8495 C   0  0  0  0  0  0
  -24.1483  -36.7298   23.2642 C   0  0  0  0  0  0
  -25.9322  -30.8289   21.3584 C   0  0  0  0  0  0
  -26.0103  -29.4604   20.7079 C   0  0  0  0  0  0
  -27.2076  -28.7078   20.6917 C   0  0  0  0  0  0
  -26.0595  -26.9133   19.5173 C   0  0  0  0  0  0
  -24.8713  -27.6723   19.5155 C   0  0  0  0  0  0
  -23.6125  -29.8133   20.1642 C   0  0  0  0  0  0
  -25.4107  -36.3105   24.0338 C   0  0  1  0  0  0
  -20.5865  -28.3661   23.1321 C   0  0  2  0  0  0
  -20.6762  -26.9396   22.5421 C   0  0  0  0  0  0
  -19.5743  -26.6383   21.5216 C   0  0  0  0  0  0
  -18.1919  -26.7925   22.1623 C   0  0  0  0  0  0
  -19.1525  -28.8835   23.2910 C   0  0  0  0  0  0
  -18.9453  -30.1444   23.8916 C   0  0  0  0  0  0
  -17.6458  -30.6587   24.0568 C   0  0  0  0  0  0
  -25.9035  -34.9473   23.5118 C   0  0  0  0  0  0
  -16.5346  -29.9090   23.6327 C   0  0  0  0  0  0
  -16.7262  -28.6507   23.0347 C   0  0  0  0  0  0
  -26.4465  -31.6606   25.0709 C   0  0  0  0  0  0
  -25.3729  -31.3704   26.1458 C   0  0  0  0  0  0
  -27.0299  -30.3055   24.6076 C   0  0  0  0  0  0
  -27.6047  -32.4325   25.7470 C   0  0  0  0  0  0
  -27.5578  -37.1799   24.8468 C   0  0  0  0  0  0
  -21.4144  -29.3028   22.3729 N   0  0  0  0  0  0
  -26.4289  -37.3790   23.9418 N   0  0  0  0  0  0
  -24.6690  -31.0755   22.0962 N   0  0  0  0  0  0
  -23.4186  -28.8194   23.3038 O   0  0  0  0  0  0
  -28.4161  -26.7003   20.1033 O   0  0  0  0  0  0
  -26.5611  -34.8931   22.4688 O   0  0  0  0  0  0
  -23.5342  -32.1411   23.7454 O   0  0  0  0  0  0
  -30.8404  -19.0348   20.5401 C   0  0  0  0  0  0
  -30.3731  -20.3294   20.2189 C   0  0  0  0  0  0
  -28.2070  -19.7559   21.1215 C   0  0  0  0  0  0
  -30.0133  -18.0830   21.1797 C   0  0  0  0  0  0
  -28.6729  -18.4576   21.4624 C   0  0  0  0  0  0
  -29.0439  -20.7222   20.5171 C   0  0  0  0  0  0
  -27.7308  -17.5076   22.1806 C   0  0  0  0  0  0
  -29.5672  -25.0261   18.2056 C   0  0  0  0  0  0
  -30.6486  -16.7605   21.6657 C   0  0  0  0  0  0
  -28.3897  -25.2956   20.4469 C   0  0  0  0  0  0
  -29.3711  -22.9797   19.6693 C   0  0  0  0  0  0
  -28.6864  -24.3276   19.2610 C   0  0  2  0  0  0
  -30.0576  -15.4824   21.2241 N   0  0  0  0  0  0
  -28.5192  -21.9902   20.2684 O   0  0  0  0  0  0
  -31.4632  -12.4278   19.1161 H   0  0  0  0  0  0
  -30.3292  -11.3182   19.8297 H   0  0  0  0  0  0
  -29.7326  -11.7734   17.4333 H   0  0  0  0  0  0
  -29.6521  -13.4875   17.7567 H   0  0  0  0  0  0
  -27.8273  -11.3077   18.8237 H   0  0  0  0  0  0
  -27.3601  -12.6282   17.7877 H   0  0  0  0  0  0
  -27.6961  -14.2567   19.5649 H   0  0  0  0  0  0
  -28.6830  -11.9768   21.3446 H   0  0  0  0  0  0
  -28.4556  -13.6172   21.8638 H   0  0  0  0  0  0
  -25.2757   -9.5685   22.4760 H   0  0  0  0  0  0
  -24.0000   -7.4633   22.7473 H   0  0  0  0  0  0
  -21.0840   -8.8767   19.8950 H   0  0  0  0  0  0
  -22.3693  -10.9669   19.6164 H   0  0  0  0  0  0
  -21.1998   -7.6145   23.9713 H   0  0  0  0  0  0
  -21.1478   -6.0520   25.9077 H   0  0  0  0  0  0
  -22.0601   -2.7606   23.2849 H   0  0  0  0  0  0
  -22.4101  -11.9888   22.4793 H   0  0  0  0  0  0
  -21.1108  -13.1256   22.2618 H   0  0  0  0  0  0
  -24.6501  -15.8367   20.4863 H   0  0  0  0  0  0
  -26.2617  -15.6180   20.0295 H   0  0  0  0  0  0
  -26.7112  -32.5522   23.1139 H   0  0  0  0  0  0
  -25.0052  -33.9780   25.0461 H   0  0  0  0  0  0
  -22.6932  -31.3033   21.4053 H   0  0  0  0  0  0
  -23.3754  -35.9623   23.3317 H   0  0  0  0  0  0
  -24.3574  -36.8896   22.2053 H   0  0  0  0  0  0
  -23.7224  -37.6501   23.6651 H   0  0  0  0  0  0
  -26.0436  -31.5932   20.5874 H   0  0  0  0  0  0
  -26.8199  -30.8846   21.9766 H   0  0  0  0  0  0
  -28.1068  -29.1056   21.1405 H   0  0  0  0  0  0
  -26.0600  -25.9397   19.0488 H   0  0  0  0  0  0
  -23.9799  -27.2701   19.0542 H   0  0  0  0  0  0
  -23.7206  -30.5857   19.4018 H   0  0  0  0  0  0
  -22.7362  -29.2323   19.8706 H   0  0  0  0  0  0
  -25.1285  -36.1962   25.0829 H   0  0  0  0  0  0
  -20.9960  -28.3221   24.1440 H   0  0  0  0  0  0
  -20.5663  -26.2266   23.3608 H   0  0  0  0  0  0
  -21.6633  -26.7437   22.1212 H   0  0  0  0  0  0
  -19.6910  -25.6298   21.1232 H   0  0  0  0  0  0
  -19.6691  -27.3207   20.6760 H   0  0  0  0  0  0
  -17.4195  -26.6686   21.4021 H   0  0  0  0  0  0
  -18.0315  -26.0059   22.9010 H   0  0  0  0  0  0
  -19.7933  -30.7252   24.2292 H   0  0  0  0  0  0
  -17.5015  -31.6272   24.5162 H   0  0  0  0  0  0
  -15.5349  -30.3001   23.7642 H   0  0  0  0  0  0
  -15.8661  -28.0833   22.7053 H   0  0  0  0  0  0
  -24.5910  -30.7045   25.7789 H   0  0  0  0  0  0
  -24.8915  -32.2855   26.4922 H   0  0  0  0  0  0
  -25.8081  -30.8865   27.0212 H   0  0  0  0  0  0
  -26.2834  -29.6815   24.1146 H   0  0  0  0  0  0
  -27.4103  -29.7294   25.4521 H   0  0  0  0  0  0
  -27.8652  -30.4396   23.9194 H   0  0  0  0  0  0
  -27.2678  -33.3623   26.2069 H   0  0  0  0  0  0
  -28.3842  -32.6886   25.0281 H   0  0  0  0  0  0
  -28.0732  -31.8434   26.5364 H   0  0  0  0  0  0
  -28.2598  -38.0097   24.7527 H   0  0  0  0  0  0
  -28.1068  -36.2630   24.6274 H   0  0  0  0  0  0
  -27.2300  -37.1416   25.8872 H   0  0  0  0  0  0
  -20.9304  -29.8743   21.6946 H   0  0  0  0  0  0
  -26.0175  -38.2863   24.1440 H   0  0  0  0  0  0
  -31.8718  -18.7921   20.3243 H   0  0  0  0  0  0
  -31.0725  -21.0128   19.7608 H   0  0  0  0  0  0
  -27.1891  -20.0338   21.3572 H   0  0  0  0  0  0
  -26.7589  -17.9673   22.3628 H   0  0  0  0  0  0
  -28.1424  -17.2110   23.1456 H   0  0  0  0  0  0
  -27.5620  -16.6112   21.5864 H   0  0  0  0  0  0
  -29.0889  -25.9233   17.8121 H   0  0  0  0  0  0
  -29.7594  -24.3753   17.3523 H   0  0  0  0  0  0
  -30.5307  -25.3180   18.6255 H   0  0  0  0  0  0
  -30.6052  -16.7679   22.7555 H   0  0  0  0  0  0
  -31.7159  -16.7811   21.4377 H   0  0  0  0  0  0
  -29.1688  -25.1704   21.1992 H   0  0  0  0  0  0
  -27.4625  -25.0131   20.9493 H   0  0  0  0  0  0
  -30.2186  -23.1809   20.3271 H   0  0  0  0  0  0
  -29.7810  -22.5352   18.7609 H   0  0  0  0  0  0
  -27.7411  -24.0929   18.7708 H   0  0  0  0  0  0
  -29.1260  -15.2743   21.5455 H   0  0  0  0  0  0
  1 25  1  0  0  0
  1 30  2  0  0  0
  1 83  1  0  0  0
  2  3  1  0  0  0
  2 25  1  0  0  0
  2 85  1  0  0  0
  2 86  1  0  0  0
  3  4  1  0  0  0
  3 87  1  0  0  0
  3 88  1  0  0  0
  4  5  1  0  0  0
  4 89  1  0  0  0
  4 90  1  0  0  0
  5  6  1  0  0  0
  5 26  1  0  0  0
  5 91  1  0  0  0
  6 25  1  0  0  0
  6 92  1  0  0  0
  6 93  1  0  0  0
  7  8  2  0  0  0
  7 26  1  0  0  0
  7 29  1  0  0  0
  8  9  1  0  0  0
  8 22  1  0  0  0
  9 10  1  0  0  0
  9 27  2  0  0  0
 10 11  2  0  0  0
 10 15  1  0  0  0
 11 12  1  0  0  0
 11 94  1  0  0  0
 12 13  2  0  0  0
 12 95  1  0  0  0
 13 14  1  0  0  0
 13 31  1  0  0  0
 14 15  2  0  0  0
 14 96  1  0  0  0
 15 97  1  0  0  0
 16 17  2  0  0  0
 16 21  1  0  0  0
 16 31  1  0  0  0
 17 18  1  0  0  0
 17 98  1  0  0  0
 18 19  2  0  0  0
 18 99  1  0  0  0
 19 20  1  0  0  0
 19 24  1  0  0  0
 20 21  2  0  0  0
 20100  1  0  0  0
 21 23  1  0  0  0
 22 28  1  0  0  0
 22 32  2  0  0  0
 26 27  1  0  0  0
 28101  1  0  0  0
 28102  1  0  0  0
 29103  1  0  0  0
 29104  1  0  0  0
 33 34  1  0  0  0
 33 66  1  0  0  0
 33 70  2  0  0  0
 34 36  1  0  0  0
 34 59  1  0  0  0
 34105  1  0  0  0
 35 44  2  0  0  0
 35 45  1  0  0  0
 35 68  1  0  0  0
 36 56  1  0  0  0
 36106  1  0  0  0
 37 39  1  0  0  0
 37 47  1  0  0  0
 37 66  1  0  0  0
 37107  1  0  0  0
 38 43  2  0  0  0
 38 46  1  0  0  0
 38 47  1  0  0  0
 39 64  1  0  0  0
 39 67  2  0  0  0
 40 52  1  0  0  0
 40 53  2  0  0  0
 40 58  1  0  0  0
 41108  1  0  0  0
 41109  1  0  0  0
 41110  1  0  0  0
 41 48  1  0  0  0
 42 43  1  0  0  0
 42 66  1  0  0  0
 42111  1  0  0  0
 42112  1  0  0  0
 43 44  1  0  0  0
 44113  1  0  0  0
 45 46  2  0  0  0
 45114  1  0  0  0
 46115  1  0  0  0
 47116  1  0  0  0
 47117  1  0  0  0
 48 56  1  0  0  0
 48 65  1  0  0  0
 48118  1  0  0  0
 49 50  1  0  0  0
 49 53  1  0  0  0
 49 64  1  0  0  0
 49119  1  0  0  0
 50 51  1  0  0  0
 50120  1  0  0  0
 50121  1  0  0  0
 51 52  1  0  0  0
 51122  1  0  0  0
 51123  1  0  0  0
 52124  1  0  0  0
 52125  1  0  0  0
 53 54  1  0  0  0
 54 55  2  0  0  0
 54126  1  0  0  0
 55 57  1  0  0  0
 55127  1  0  0  0
 56 69  2  0  0  0
 57 58  2  0  0  0
 57128  1  0  0  0
 58129  1  0  0  0
 59 60  1  0  0  0
 59 61  1  0  0  0
 59 62  1  0  0  0
 60130  1  0  0  0
 60131  1  0  0  0
 60132  1  0  0  0
 61133  1  0  0  0
 61134  1  0  0  0
 61135  1  0  0  0
 62136  1  0  0  0
 62137  1  0  0  0
 62138  1  0  0  0
 63 65  1  0  0  0
 63139  1  0  0  0
 63140  1  0  0  0
 63141  1  0  0  0
 64142  1  0  0  0
 65143  1  0  0  0
 68 80  1  0  0  0
 71 72  2  0  0  0
 71 74  1  0  0  0
 71144  1  0  0  0
 72 76  1  0  0  0
 72145  1  0  0  0
 73 75  1  0  0  0
 73 76  2  0  0  0
 73146  1  0  0  0
 74 75  2  0  0  0
 74 79  1  0  0  0
 75 77  1  0  0  0
 76 84  1  0  0  0
 77147  1  0  0  0
 77148  1  0  0  0
 77149  1  0  0  0
 78150  1  0  0  0
 78151  1  0  0  0
 78152  1  0  0  0
 78 82  1  0  0  0
 79 83  1  0  0  0
 79153  1  0  0  0
 79154  1  0  0  0
 80 82  1  0  0  0
 80155  1  0  0  0
 80156  1  0  0  0
 81 82  1  0  0  0
 81 84  1  0  0  0
 81157  1  0  0  0
 81158  1  0  0  0
 82159  1  0  0  0
 83160  1  0  0  0
M  ISO  4   1 100  68 101  80 101  83 100
M  END
> <chiral flag>
0

> <version>
0

> <s_m_source_file>
/data/baiqing/PycharmProjects/Reinvent-master-3.2/result/LINK_invent/BTK/process_docking_weight1_custom_product_contain_oxygen_bond_distance_aromatic_linkinvent_7_9_3/rearranged_h_0134.sdf

> <i_m_source_file_index>
41

> <r_mmod_Potential_Energy-OPLS-2005>
-71.7883987426758

> <r_mmod_Stretch_Energy-OPLS-2005>
43.9806098937988

> <r_mmod_Bend_Energy-OPLS-2005>
113.579856872559

> <r_mmod_Torsional_Energy-OPLS-2005>
219.214965820312

> <r_mmod_Improper_Torsional_Energy-OPLS-2005>
3.15107345581055

> <r_mmod_Van_der_Waal_Energy-OPLS-2005>
152.001251220703

> <r_mmod_Electrostatic_Energy-OPLS-2005>
-412.346557617188

> <r_mmod_Solvation_Energy-OPLS-2005>
-205.697128295898

> <b_mmod_Minimization_Converged-OPLS-2005>
0

> <r_mmod_RMS_Derivative-OPLS-2005>
0.800756454467773

$$$$
41
                    3D
 Structure written by MMmdl.
168176  0  0  1  0            999 V2000
  -30.6672  -14.4173   20.6663 C   0  0  0  0  0  0
  -30.4469  -12.3168   19.3752 C   0  0  0  0  0  0
  -29.4854  -12.5383   18.1864 C   0  0  0  0  0  0
  -28.0058  -12.4028   18.6081 C   0  0  0  0  0  0
  -27.6756  -13.1914   19.9012 C   0  0  2  0  0  0
  -28.7224  -12.8484   20.9851 C   0  0  0  0  0  0
  -25.2634  -13.8132   20.5661 C   0  0  0  0  0  0
  -24.1852  -13.0425   20.9140 C   0  0  0  0  0  0
  -24.6390  -11.6890   20.8725 C   0  0  0  0  0  0
  -23.9035  -10.4289   21.0396 C   0  0  0  0  0  0
  -24.3574   -9.4211   21.9187 C   0  0  0  0  0  0
  -23.6266   -8.2236   22.0746 C   0  0  0  0  0  0
  -22.4259   -8.0267   21.3533 C   0  0  0  0  0  0
  -21.9880   -9.0243   20.4641 C   0  0  0  0  0  0
  -22.7189  -10.2137   20.3061 C   0  0  0  0  0  0
  -21.6849   -6.0733   22.5279 C   0  0  0  0  0  0
  -21.3997   -6.5642   23.8210 C   0  0  0  0  0  0
  -21.3648   -5.6788   24.9171 C   0  0  0  0  0  0
  -21.6045   -4.3053   24.7225 C   0  0  0  0  0  0
  -21.8810   -3.8150   23.4347 C   0  0  0  0  0  0
  -21.9183   -4.6964   22.3395 C   0  0  0  0  0  0
  -22.7891  -13.5256   21.1812 C   0  0  0  0  0  0
  -22.1652   -4.2137   21.0974 F   0  0  0  0  0  0
  -21.5639   -3.4537   25.7753 F   0  0  0  0  0  0
  -30.0535  -13.2186   20.4675 N   0  0  0  0  0  0
  -26.3103  -12.9271   20.3505 N   0  0  0  0  0  0
  -25.9325  -11.6440   20.5798 N   0  0  0  0  0  0
  -22.0537  -12.8279   22.0396 N   0  0  0  0  0  0
  -25.4344  -15.1832   20.4042 N   0  0  0  0  0  0
  -31.6999  -14.7556   20.0749 O   0  0  0  0  0  0
  -21.6616   -6.8878   21.4244 O   0  0  0  0  0  0
  -22.3576  -14.5556   20.6672 O   0  0  0  0  0  0
  -24.6120  -31.8715   23.2139 C   0  0  0  0  0  0
  -25.9030  -32.4834   23.8425 C   0  0  1  0  0  0
  -27.2375  -27.4756   20.0877 C   0  0  0  0  0  0
  -25.5915  -33.8630   24.2357 N   0  0  0  0  0  0
  -23.3994  -30.4941   21.5538 C   0  0  2  0  0  0
  -24.8453  -28.9626   20.1141 C   0  0  0  0  0  0
  -22.7401  -29.4684   22.5031 C   0  0  0  0  0  0
  -18.0273  -28.1343   22.8532 C   0  0  0  0  0  0
  -24.1477  -36.7318   23.2636 C   0  0  0  0  0  0
  -25.9214  -30.8453   21.3622 C   0  0  0  0  0  0
  -26.0004  -29.4812   20.7146 C   0  0  0  0  0  0
  -27.2003  -28.7412   20.7082 C   0  0  0  0  0  0
  -26.0760  -26.9617   19.4813 C   0  0  0  0  0  0
  -24.8755  -27.6969   19.4990 C   0  0  0  0  0  0
  -23.6057  -29.8238   20.1679 C   0  0  0  0  0  0
  -25.4107  -36.3122   24.0338 C   0  0  1  0  0  0
  -20.5866  -28.3643   23.1304 C   0  0  2  0  0  0
  -20.6804  -26.9413   22.5312 C   0  0  0  0  0  0
  -19.5693  -26.6333   21.5224 C   0  0  0  0  0  0
  -18.1922  -26.7852   22.1742 C   0  0  0  0  0  0
  -19.1527  -28.8813   23.2909 C   0  0  0  0  0  0
  -18.9455  -30.1426   23.8896 C   0  0  0  0  0  0
  -17.6454  -30.6564   24.0559 C   0  0  0  0  0  0
  -25.9041  -34.9480   23.5140 C   0  0  0  0  0  0
  -16.5348  -29.9059   23.6323 C   0  0  0  0  0  0
  -16.7267  -28.6471   23.0364 C   0  0  0  0  0  0
  -26.4462  -31.6606   25.0735 C   0  0  0  0  0  0
  -25.3736  -31.3717   26.1494 C   0  0  0  0  0  0
  -27.0275  -30.3051   24.6083 C   0  0  0  0  0  0
  -27.6038  -32.4330   25.7488 C   0  0  0  0  0  0
  -27.5582  -37.1816   24.8467 C   0  0  0  0  0  0
  -21.4129  -29.3066   22.3769 N   0  0  0  0  0  0
  -26.4288  -37.3810   23.9407 N   0  0  0  0  0  0
  -24.6620  -31.0845   22.1016 N   0  0  0  0  0  0
  -23.4179  -28.8224   23.3072 O   0  0  0  0  0  0
  -28.3800  -26.7191   20.0671 O   0  0  0  0  0  0
  -26.5590  -34.8930   22.4692 O   0  0  0  0  0  0
  -23.5331  -32.1462   23.7549 O   0  0  0  0  0  0
  -29.3886  -18.6773   20.3335 C   0  0  0  0  0  0
  -30.0431  -17.4446   20.5522 C   0  0  0  0  0  0
  -27.6543  -18.0174   21.8992 C   0  0  0  0  0  0
  -28.1684  -18.9607   20.9860 C   0  0  0  0  0  0
  -28.3023  -16.7822   22.1357 C   0  0  0  0  0  0
  -29.4931  -16.4745   21.4233 C   0  0  0  0  0  0
  -26.0891  -15.1659   24.9922 C   0  0  0  0  0  0
  -27.3164  -20.2008   20.6972 C   0  0  0  0  0  0
  -27.6934  -15.7606   23.1011 C   0  0  0  0  0  0
  -26.5701  -16.2581   24.0280 C   0  0  0  0  0  0
  -27.9364  -21.3587   19.8833 C   0  0  0  0  0  0
  -28.8324  -22.3274   20.6884 C   0  0  0  0  0  0
  -28.4278  -23.8091   20.5104 C   0  0  0  0  0  0
  -29.3488  -24.8124   21.2342 C   0  0  0  0  0  0
  -28.7462  -26.2252   21.3535 C   0  0  0  0  0  0
  -30.0735  -15.1815   21.6019 N   0  0  0  0  0  0
  -31.4804  -12.4788   19.0593 H   0  0  0  0  0  0
  -30.4014  -11.2805   19.7134 H   0  0  0  0  0  0
  -29.7044  -11.8295   17.3863 H   0  0  0  0  0  0
  -29.6505  -13.5325   17.7663 H   0  0  0  0  0  0
  -27.7943  -11.3432   18.7551 H   0  0  0  0  0  0
  -27.3502  -12.7294   17.8006 H   0  0  0  0  0  0
  -27.7526  -14.2547   19.6725 H   0  0  0  0  0  0
  -28.6985  -11.7746   21.1846 H   0  0  0  0  0  0
  -28.4912  -13.2878   21.9503 H   0  0  0  0  0  0
  -25.2711   -9.5722   22.4759 H   0  0  0  0  0  0
  -24.0006   -7.4638   22.7458 H   0  0  0  0  0  0
  -21.0805   -8.8737   19.8946 H   0  0  0  0  0  0
  -22.3620  -10.9675   19.6177 H   0  0  0  0  0  0
  -21.1974   -7.6151   23.9711 H   0  0  0  0  0  0
  -21.1481   -6.0520   25.9071 H   0  0  0  0  0  0
  -22.0606   -2.7619   23.2844 H   0  0  0  0  0  0
  -22.4174  -11.9955   22.4799 H   0  0  0  0  0  0
  -21.1181  -13.1341   22.2632 H   0  0  0  0  0  0
  -24.6758  -15.8408   20.5395 H   0  0  0  0  0  0
  -26.3063  -15.6323   20.1487 H   0  0  0  0  0  0
  -26.7110  -32.5561   23.1206 H   0  0  0  0  0  0
  -25.0054  -33.9797   25.0500 H   0  0  0  0  0  0
  -22.6867  -31.3098   21.4153 H   0  0  0  0  0  0
  -23.3724  -35.9666   23.3316 H   0  0  0  0  0  0
  -24.3582  -36.8920   22.2051 H   0  0  0  0  0  0
  -23.7230  -37.6531   23.6633 H   0  0  0  0  0  0
  -26.0288  -31.6112   20.5942 H   0  0  0  0  0  0
  -26.8105  -30.8990   21.9772 H   0  0  0  0  0  0
  -28.0946  -29.1376   21.1667 H   0  0  0  0  0  0
  -26.1062  -25.9909   19.0063 H   0  0  0  0  0  0
  -23.9886  -27.2856   19.0363 H   0  0  0  0  0  0
  -23.7051  -30.5957   19.4031 H   0  0  0  0  0  0
  -22.7315  -29.2379   19.8797 H   0  0  0  0  0  0
  -25.1272  -36.1998   25.0832 H   0  0  0  0  0  0
  -20.9950  -28.3136   24.1424 H   0  0  0  0  0  0
  -20.5911  -26.2218   23.3466 H   0  0  0  0  0  0
  -21.6622  -26.7578   22.0927 H   0  0  0  0  0  0
  -19.6832  -25.6218   21.1318 H   0  0  0  0  0  0
  -19.6523  -27.3086   20.6688 H   0  0  0  0  0  0
  -17.4123  -26.6499   21.4234 H   0  0  0  0  0  0
  -18.0417  -26.0029   22.9206 H   0  0  0  0  0  0
  -19.7933  -30.7245   24.2256 H   0  0  0  0  0  0
  -17.5014  -31.6240   24.5152 H   0  0  0  0  0  0
  -15.5347  -30.2961   23.7636 H   0  0  0  0  0  0
  -15.8684  -28.0790   22.7070 H   0  0  0  0  0  0
  -24.5888  -30.7085   25.7836 H   0  0  0  0  0  0
  -24.8943  -32.2875   26.4972 H   0  0  0  0  0  0
  -25.8107  -30.8865   27.0233 H   0  0  0  0  0  0
  -26.2807  -29.6842   24.1115 H   0  0  0  0  0  0
  -27.4019  -29.7266   25.4542 H   0  0  0  0  0  0
  -27.8661  -30.4373   23.9237 H   0  0  0  0  0  0
  -27.2647  -33.3610   26.2117 H   0  0  0  0  0  0
  -28.3814  -32.6951   25.0289 H   0  0  0  0  0  0
  -28.0738  -31.8424   26.5371 H   0  0  0  0  0  0
  -28.2613  -38.0099   24.7508 H   0  0  0  0  0  0
  -28.1058  -36.2634   24.6284 H   0  0  0  0  0  0
  -27.2303  -37.1466   25.8872 H   0  0  0  0  0  0
  -20.9257  -29.8844   21.7065 H   0  0  0  0  0  0
  -26.0177  -38.2887   24.1413 H   0  0  0  0  0  0
  -29.8199  -19.3749   19.6310 H   0  0  0  0  0  0
  -30.9606  -17.2435   20.0185 H   0  0  0  0  0  0
  -26.7207  -18.2478   22.3913 H   0  0  0  0  0  0
  -25.2762  -15.5307   25.6204 H   0  0  0  0  0  0
  -26.8948  -14.8372   25.6497 H   0  0  0  0  0  0
  -25.7212  -14.2936   24.4493 H   0  0  0  0  0  0
  -26.9215  -20.5905   21.6370 H   0  0  0  0  0  0
  -26.4406  -19.8441   20.1515 H   0  0  0  0  0  0
  -28.4941  -15.3448   23.7145 H   0  0  0  0  0  0
  -27.2837  -14.9482   22.5057 H   0  0  0  0  0  0
  -26.9137  -17.1195   24.6012 H   0  0  0  0  0  0
  -25.7160  -16.5899   23.4368 H   0  0  0  0  0  0
  -27.0955  -21.9340   19.4932 H   0  0  0  0  0  0
  -28.4429  -20.9961   18.9889 H   0  0  0  0  0  0
  -29.8713  -22.1832   20.3865 H   0  0  0  0  0  0
  -28.7946  -22.0775   21.7495 H   0  0  0  0  0  0
  -27.4048  -23.9406   20.8680 H   0  0  0  0  0  0
  -28.4103  -24.0583   19.4472 H   0  0  0  0  0  0
  -30.3052  -24.8657   20.7148 H   0  0  0  0  0  0
  -29.5677  -24.4498   22.2409 H   0  0  0  0  0  0
  -29.4641  -26.9099   21.8074 H   0  0  0  0  0  0
  -27.8830  -26.1855   22.0222 H   0  0  0  0  0  0
  -29.5306  -14.6116   22.2302 H   0  0  0  0  0  0
  1 25  1  0  0  0
  1 30  2  0  0  0
  1 86  1  0  0  0
  2  3  1  0  0  0
  2 25  1  0  0  0
  2 87  1  0  0  0
  2 88  1  0  0  0
  3  4  1  0  0  0
  3 89  1  0  0  0
  3 90  1  0  0  0
  4  5  1  0  0  0
  4 91  1  0  0  0
  4 92  1  0  0  0
  5  6  1  0  0  0
  5 26  1  0  0  0
  5 93  1  0  0  0
  6 25  1  0  0  0
  6 94  1  0  0  0
  6 95  1  0  0  0
  7  8  2  0  0  0
  7 26  1  0  0  0
  7 29  1  0  0  0
  8  9  1  0  0  0
  8 22  1  0  0  0
  9 10  1  0  0  0
  9 27  2  0  0  0
 10 11  2  0  0  0
 10 15  1  0  0  0
 11 12  1  0  0  0
 11 96  1  0  0  0
 12 13  2  0  0  0
 12 97  1  0  0  0
 13 14  1  0  0  0
 13 31  1  0  0  0
 14 15  2  0  0  0
 14 98  1  0  0  0
 15 99  1  0  0  0
 16 17  2  0  0  0
 16 21  1  0  0  0
 16 31  1  0  0  0
 17 18  1  0  0  0
 17100  1  0  0  0
 18 19  2  0  0  0
 18101  1  0  0  0
 19 20  1  0  0  0
 19 24  1  0  0  0
 20 21  2  0  0  0
 20102  1  0  0  0
 21 23  1  0  0  0
 22 28  1  0  0  0
 22 32  2  0  0  0
 26 27  1  0  0  0
 28103  1  0  0  0
 28104  1  0  0  0
 29105  1  0  0  0
 29106  1  0  0  0
 33 34  1  0  0  0
 33 66  1  0  0  0
 33 70  2  0  0  0
 34 36  1  0  0  0
 34 59  1  0  0  0
 34107  1  0  0  0
 35 44  2  0  0  0
 35 45  1  0  0  0
 35 68  1  0  0  0
 36 56  1  0  0  0
 36108  1  0  0  0
 37 39  1  0  0  0
 37 47  1  0  0  0
 37 66  1  0  0  0
 37109  1  0  0  0
 38 43  2  0  0  0
 38 46  1  0  0  0
 38 47  1  0  0  0
 39 64  1  0  0  0
 39 67  2  0  0  0
 40 52  1  0  0  0
 40 53  2  0  0  0
 40 58  1  0  0  0
 41110  1  0  0  0
 41111  1  0  0  0
 41112  1  0  0  0
 41 48  1  0  0  0
 42 43  1  0  0  0
 42 66  1  0  0  0
 42113  1  0  0  0
 42114  1  0  0  0
 43 44  1  0  0  0
 44115  1  0  0  0
 45 46  2  0  0  0
 45116  1  0  0  0
 46117  1  0  0  0
 47118  1  0  0  0
 47119  1  0  0  0
 48 56  1  0  0  0
 48 65  1  0  0  0
 48120  1  0  0  0
 49 50  1  0  0  0
 49 53  1  0  0  0
 49 64  1  0  0  0
 49121  1  0  0  0
 50 51  1  0  0  0
 50122  1  0  0  0
 50123  1  0  0  0
 51 52  1  0  0  0
 51124  1  0  0  0
 51125  1  0  0  0
 52126  1  0  0  0
 52127  1  0  0  0
 53 54  1  0  0  0
 54 55  2  0  0  0
 54128  1  0  0  0
 55 57  1  0  0  0
 55129  1  0  0  0
 56 69  2  0  0  0
 57 58  2  0  0  0
 57130  1  0  0  0
 58131  1  0  0  0
 59 60  1  0  0  0
 59 61  1  0  0  0
 59 62  1  0  0  0
 60132  1  0  0  0
 60133  1  0  0  0
 60134  1  0  0  0
 61135  1  0  0  0
 61136  1  0  0  0
 61137  1  0  0  0
 62138  1  0  0  0
 62139  1  0  0  0
 62140  1  0  0  0
 63 65  1  0  0  0
 63141  1  0  0  0
 63142  1  0  0  0
 63143  1  0  0  0
 64144  1  0  0  0
 65145  1  0  0  0
 68 85  1  0  0  0
 71 72  2  0  0  0
 71 74  1  0  0  0
 71146  1  0  0  0
 72 76  1  0  0  0
 72147  1  0  0  0
 73 74  2  0  0  0
 73 75  1  0  0  0
 73148  1  0  0  0
 74 78  1  0  0  0
 75 76  2  0  0  0
 75 79  1  0  0  0
 76 86  1  0  0  0
 77 80  1  0  0  0
 77149  1  0  0  0
 77150  1  0  0  0
 77151  1  0  0  0
 78 81  1  0  0  0
 78152  1  0  0  0
 78153  1  0  0  0
 79 80  1  0  0  0
 79154  1  0  0  0
 79155  1  0  0  0
 80156  1  0  0  0
 80157  1  0  0  0
 81 82  1  0  0  0
 81158  1  0  0  0
 81159  1  0  0  0
 82 83  1  0  0  0
 82160  1  0  0  0
 82161  1  0  0  0
 83 84  1  0  0  0
 83162  1  0  0  0
 83163  1  0  0  0
 84 85  1  0  0  0
 84164  1  0  0  0
 84165  1  0  0  0
 85166  1  0  0  0
 85167  1  0  0  0
 86168  1  0  0  0
M  ISO  4   1 100  68 101  85 101  86 100
M  END
> <chiral flag>
0

> <version>
0

> <s_m_source_file>
/data/baiqing/PycharmProjects/Reinvent-master-3.2/result/LINK_invent/BTK/process_docking_weight1_custom_product_contain_oxygen_bond_distance_aromatic_linkinvent_7_9_3/rearranged_h_0134.sdf

> <i_m_source_file_index>
42

> <r_mmod_Potential_Energy-OPLS-2005>
4.22536849975586

> <r_mmod_Stretch_Energy-OPLS-2005>
35.2644348144531

> <r_mmod_Bend_Energy-OPLS-2005>
103.898170471191

> <r_mmod_Torsional_Energy-OPLS-2005>
267.486999511719

> <r_mmod_Improper_Torsional_Energy-OPLS-2005>
5.69906759262085

> <r_mmod_Van_der_Waal_Energy-OPLS-2005>
142.740142822266

> <r_mmod_Electrostatic_Energy-OPLS-2005>
-375.474395751953

> <r_mmod_Solvation_Energy-OPLS-2005>
-186.241485595703

> <b_mmod_Minimization_Converged-OPLS-2005>
0

> <r_mmod_RMS_Derivative-OPLS-2005>
2.94840884208679

$$$$
42
                    3D
 Structure written by MMmdl.
172180  0  0  1  0            999 V2000
  -30.5866  -14.5974   20.4381 C   0  0  0  0  0  0
  -30.4485  -12.3252   19.4300 C   0  0  0  0  0  0
  -29.5211  -12.4370   18.2031 C   0  0  0  0  0  0
  -28.0270  -12.3273   18.6245 C   0  0  0  0  0  0
  -27.6529  -13.1622   19.8868 C   0  0  2  0  0  0
  -28.7191  -12.9801   20.9859 C   0  0  0  0  0  0
  -25.2565  -13.7992   20.5754 C   0  0  0  0  0  0
  -24.1745  -13.0373   20.9147 C   0  0  0  0  0  0
  -24.6147  -11.6799   20.8530 C   0  0  0  0  0  0
  -23.8747  -10.4269   21.0189 C   0  0  0  0  0  0
  -24.3383   -9.4295   21.9033 C   0  0  0  0  0  0
  -23.6200   -8.2273   22.0646 C   0  0  0  0  0  0
  -22.4182   -8.0185   21.3503 C   0  0  0  0  0  0
  -21.9695   -9.0057   20.4580 C   0  0  0  0  0  0
  -22.6871  -10.2013   20.2912 C   0  0  0  0  0  0
  -21.6870   -6.0651   22.5268 C   0  0  0  0  0  0
  -21.4053   -6.5597   23.8183 C   0  0  0  0  0  0
  -21.3640   -5.6762   24.9165 C   0  0  0  0  0  0
  -21.6021   -4.3018   24.7215 C   0  0  0  0  0  0
  -21.8855   -3.8090   23.4349 C   0  0  0  0  0  0
  -21.9241   -4.6891   22.3410 C   0  0  0  0  0  0
  -22.7808  -13.5167   21.1913 C   0  0  0  0  0  0
  -22.1705   -4.2093   21.0992 F   0  0  0  0  0  0
  -21.5593   -3.4507   25.7728 F   0  0  0  0  0  0
  -30.0191  -13.3468   20.4033 N   0  0  0  0  0  0
  -26.2924  -12.9017   20.3476 N   0  0  0  0  0  0
  -25.9094  -11.6220   20.5683 N   0  0  0  0  0  0
  -22.0503  -12.8121   22.0472 N   0  0  0  0  0  0
  -25.4593  -15.1720   20.4178 N   0  0  0  0  0  0
  -31.7296  -14.7881   20.0181 O   0  0  0  0  0  0
  -21.6666   -6.8723   21.4196 O   0  0  0  0  0  0
  -22.3520  -14.5507   20.6782 O   0  0  0  0  0  0
  -24.6200  -31.8613   23.2014 C   0  0  0  0  0  0
  -25.9074  -32.4779   23.8318 C   0  0  1  0  0  0
  -27.2504  -27.3846   20.0920 C   0  0  0  0  0  0
  -25.5912  -33.8567   24.2293 N   0  0  0  0  0  0
  -23.4119  -30.4727   21.5476 C   0  0  2  0  0  0
  -24.8578  -28.9135   20.1325 C   0  0  0  0  0  0
  -22.7439  -29.4594   22.5023 C   0  0  0  0  0  0
  -18.0299  -28.1368   22.8545 C   0  0  0  0  0  0
  -24.1503  -36.7272   23.2642 C   0  0  0  0  0  0
  -25.9416  -30.8022   21.3563 C   0  0  0  0  0  0
  -26.0201  -29.4241   20.7231 C   0  0  0  0  0  0
  -27.2181  -28.6654   20.7020 C   0  0  0  0  0  0
  -26.0633  -26.8894   19.5059 C   0  0  0  0  0  0
  -24.8712  -27.6436   19.5282 C   0  0  0  0  0  0
  -23.6250  -29.7932   20.1682 C   0  0  0  0  0  0
  -25.4116  -36.3062   24.0350 C   0  0  1  0  0  0
  -20.5888  -28.3630   23.1394 C   0  0  2  0  0  0
  -20.6796  -26.9374   22.5467 C   0  0  0  0  0  0
  -19.5774  -26.6386   21.5267 C   0  0  0  0  0  0
  -18.1936  -26.7926   22.1636 C   0  0  0  0  0  0
  -19.1549  -28.8823   23.2966 C   0  0  0  0  0  0
  -18.9445  -30.1427   23.8982 C   0  0  0  0  0  0
  -17.6449  -30.6589   24.0565 C   0  0  0  0  0  0
  -25.9044  -34.9427   23.5109 C   0  0  0  0  0  0
  -16.5349  -29.9083   23.6319 C   0  0  0  0  0  0
  -16.7279  -28.6478   23.0369 C   0  0  0  0  0  0
  -26.4484  -31.6554   25.0620 C   0  0  0  0  0  0
  -25.3759  -31.3656   26.1371 C   0  0  0  0  0  0
  -27.0322  -30.3046   24.5890 C   0  0  0  0  0  0
  -27.6083  -32.4226   25.7397 C   0  0  0  0  0  0
  -27.5600  -37.1781   24.8481 C   0  0  0  0  0  0
  -21.4140  -29.2989   22.3800 N   0  0  0  0  0  0
  -26.4317  -37.3738   23.9418 N   0  0  0  0  0  0
  -24.6777  -31.0620   22.0970 N   0  0  0  0  0  0
  -23.4187  -28.8148   23.3110 O   0  0  0  0  0  0
  -28.4281  -26.6686   19.9894 O   0  0  0  0  0  0
  -26.5585  -34.8906   22.4667 O   0  0  0  0  0  0
  -23.5401  -32.1392   23.7361 O   0  0  0  0  0  0
  -29.9798  -18.9618   16.3479 C   0  0  0  0  0  0
  -29.4207  -17.7050   16.5833 C   0  0  0  0  0  0
  -30.2764  -19.7894   17.4420 C   0  0  0  0  0  0
  -29.2432  -17.2517   17.9075 C   0  0  0  0  0  0
  -30.1451  -19.3315   18.7847 C   0  0  0  0  0  0
  -29.7899  -17.9566   19.0212 C   0  0  0  0  0  0
  -28.3128  -16.0873   18.0610 C   0  0  0  0  0  0
  -31.5950  -24.0154   22.2392 C   0  0  0  0  0  0
  -29.0632  -22.5225   21.8513 C   0  0  0  0  0  0
  -30.3065  -20.3778   19.9279 C   0  0  0  0  0  0
  -30.0240  -17.3259   20.4400 C   0  0  0  0  0  0
  -29.7280  -15.8300   20.9030 C   0  0  0  0  0  0
  -31.2374  -23.4922   20.8286 C   0  0  0  0  0  0
  -29.7886  -21.8142   19.5386 C   0  0  0  0  0  0
  -28.9782  -24.1831   19.8407 C   0  0  0  0  0  0
  -28.5347  -25.4147   20.6997 C   0  0  0  0  0  0
  -29.7706  -23.0065   20.5601 C   0  0  1  0  0  0
  -31.4945  -12.4277   19.1321 H   0  0  0  0  0  0
  -30.3748  -11.3283   19.8638 H   0  0  0  0  0  0
  -29.7599  -11.6644   17.4673 H   0  0  0  0  0  0
  -29.7552  -13.3664   17.6957 H   0  0  0  0  0  0
  -27.8455  -11.2743   18.8435 H   0  0  0  0  0  0
  -27.3725  -12.5827   17.7892 H   0  0  0  0  0  0
  -27.6561  -14.1977   19.5991 H   0  0  0  0  0  0
  -28.7304  -11.9290   21.2803 H   0  0  0  0  0  0
  -28.4893  -13.5404   21.8934 H   0  0  0  0  0  0
  -25.2478   -9.5971   22.4633 H   0  0  0  0  0  0
  -24.0042   -7.4698   22.7304 H   0  0  0  0  0  0
  -21.0662   -8.8292   19.8885 H   0  0  0  0  0  0
  -22.3075  -10.9444   19.6018 H   0  0  0  0  0  0
  -21.2076   -7.6115   23.9640 H   0  0  0  0  0  0
  -21.1422   -6.0532   25.9064 H   0  0  0  0  0  0
  -22.0676   -2.7556   23.2861 H   0  0  0  0  0  0
  -22.4065  -11.9733   22.4843 H   0  0  0  0  0  0
  -21.1080  -13.1020   22.2633 H   0  0  0  0  0  0
  -24.7336  -15.8720   20.5048 H   0  0  0  0  0  0
  -26.3443  -15.5559   20.1197 H   0  0  0  0  0  0
  -26.7097  -32.5492   23.1044 H   0  0  0  0  0  0
  -25.0136  -33.9674   25.0489 H   0  0  0  0  0  0
  -22.7081  -31.2928   21.3970 H   0  0  0  0  0  0
  -23.3749  -35.9616   23.3296 H   0  0  0  0  0  0
  -24.3686  -36.8880   22.2075 H   0  0  0  0  0  0
  -23.7257  -37.6475   23.6662 H   0  0  0  0  0  0
  -26.0401  -31.5437   20.5629 H   0  0  0  0  0  0
  -26.8384  -30.8847   21.9579 H   0  0  0  0  0  0
  -28.1193  -29.0545   21.1481 H   0  0  0  0  0  0
  -26.0659  -25.9274   19.0134 H   0  0  0  0  0  0
  -23.9755  -27.2383   19.0728 H   0  0  0  0  0  0
  -23.7546  -30.5592   19.4068 H   0  0  0  0  0  0
  -22.7454  -29.2192   19.8671 H   0  0  0  0  0  0
  -25.1296  -36.1904   25.0843 H   0  0  0  0  0  0
  -20.9972  -28.3153   24.1512 H   0  0  0  0  0  0
  -20.5740  -26.2206   23.3612 H   0  0  0  0  0  0
  -21.6649  -26.7447   22.1220 H   0  0  0  0  0  0
  -19.6920  -25.6305   21.1250 H   0  0  0  0  0  0
  -19.6735  -27.3245   20.6835 H   0  0  0  0  0  0
  -17.4228  -26.6769   21.3984 H   0  0  0  0  0  0
  -18.0243  -26.0044   22.8987 H   0  0  0  0  0  0
  -19.7919  -30.7231   24.2380 H   0  0  0  0  0  0
  -17.4995  -31.6277   24.5121 H   0  0  0  0  0  0
  -15.5338  -30.2987   23.7605 H   0  0  0  0  0  0
  -15.8669  -28.0784   22.7066 H   0  0  0  0  0  0
  -24.5917  -30.7009   25.7719 H   0  0  0  0  0  0
  -24.8936  -32.2808   26.4816 H   0  0  0  0  0  0
  -25.8092  -30.8825   27.0134 H   0  0  0  0  0  0
  -26.2817  -29.6764   24.1073 H   0  0  0  0  0  0
  -27.4381  -29.7287   25.4217 H   0  0  0  0  0  0
  -27.8509  -30.4489   23.8835 H   0  0  0  0  0  0
  -27.2729  -33.3503   26.2044 H   0  0  0  0  0  0
  -28.3859  -32.6803   25.0189 H   0  0  0  0  0  0
  -28.0772  -31.8275   26.5241 H   0  0  0  0  0  0
  -28.2578  -38.0096   24.7506 H   0  0  0  0  0  0
  -28.1106  -36.2632   24.6298 H   0  0  0  0  0  0
  -27.2349  -37.1425   25.8884 H   0  0  0  0  0  0
  -20.9310  -29.8706   21.7010 H   0  0  0  0  0  0
  -26.0179  -38.2805   24.1402 H   0  0  0  0  0  0
  -30.1036  -19.3213   15.3322 H   0  0  0  0  0  0
  -29.0795  -17.1022   15.7483 H   0  0  0  0  0  0
  -30.5927  -20.7937   17.2025 H   0  0  0  0  0  0
  -28.8965  -15.1722   18.0981 H   0  0  0  0  0  0
  -27.6025  -16.0405   17.2211 H   0  0  0  0  0  0
  -27.7207  -16.2231   18.9705 H   0  0  0  0  0  0
  -32.5417  -24.5606   22.2172 H   0  0  0  0  0  0
  -31.7178  -23.1948   22.9454 H   0  0  0  0  0  0
  -30.8508  -24.6922   22.6559 H   0  0  0  0  0  0
  -29.6738  -21.8162   22.4155 H   0  0  0  0  0  0
  -28.1278  -22.0080   21.6257 H   0  0  0  0  0  0
  -28.8315  -23.3440   22.5299 H   0  0  0  0  0  0
  -31.3454  -20.3909   20.2722 H   0  0  0  0  0  0
  -29.7090  -20.0597   20.7840 H   0  0  0  0  0  0
  -29.4384  -17.9440   21.1218 H   0  0  0  0  0  0
  -31.0675  -17.5286   20.6793 H   0  0  0  0  0  0
  -28.6614  -15.6261   20.8452 H   0  0  0  0  0  0
  -29.9177  -15.8478   21.9808 H   0  0  0  0  0  0
  -31.9507  -22.7059   20.5794 H   0  0  0  0  0  0
  -31.4775  -24.2984   20.1340 H   0  0  0  0  0  0
  -28.7685  -21.6671   19.1873 H   0  0  0  0  0  0
  -30.3478  -22.1819   18.6842 H   0  0  0  0  0  0
  -29.5917  -24.5566   19.0150 H   0  0  0  0  0  0
  -28.0997  -23.7747   19.3300 H   0  0  0  0  0  0
  -29.3044  -25.5938   21.4446 H   0  0  0  0  0  0
  -27.6268  -25.1766   21.2539 H   0  0  0  0  0  0
  1 25  1  0  0  0
  1 30  2  0  0  0
  1 82  1  0  0  0
  2  3  1  0  0  0
  2 25  1  0  0  0
  2 88  1  0  0  0
  2 89  1  0  0  0
  3  4  1  0  0  0
  3 90  1  0  0  0
  3 91  1  0  0  0
  4  5  1  0  0  0
  4 92  1  0  0  0
  4 93  1  0  0  0
  5  6  1  0  0  0
  5 26  1  0  0  0
  5 94  1  0  0  0
  6 25  1  0  0  0
  6 95  1  0  0  0
  6 96  1  0  0  0
  7  8  2  0  0  0
  7 26  1  0  0  0
  7 29  1  0  0  0
  8  9  1  0  0  0
  8 22  1  0  0  0
  9 10  1  0  0  0
  9 27  2  0  0  0
 10 11  2  0  0  0
 10 15  1  0  0  0
 11 12  1  0  0  0
 11 97  1  0  0  0
 12 13  2  0  0  0
 12 98  1  0  0  0
 13 14  1  0  0  0
 13 31  1  0  0  0
 14 15  2  0  0  0
 14 99  1  0  0  0
 15100  1  0  0  0
 16 17  2  0  0  0
 16 21  1  0  0  0
 16 31  1  0  0  0
 17 18  1  0  0  0
 17101  1  0  0  0
 18 19  2  0  0  0
 18102  1  0  0  0
 19 20  1  0  0  0
 19 24  1  0  0  0
 20 21  2  0  0  0
 20103  1  0  0  0
 21 23  1  0  0  0
 22 28  1  0  0  0
 22 32  2  0  0  0
 26 27  1  0  0  0
 28104  1  0  0  0
 28105  1  0  0  0
 29106  1  0  0  0
 29107  1  0  0  0
 33 34  1  0  0  0
 33 66  1  0  0  0
 33 70  2  0  0  0
 34 36  1  0  0  0
 34 59  1  0  0  0
 34108  1  0  0  0
 35 44  2  0  0  0
 35 45  1  0  0  0
 35 68  1  0  0  0
 36 56  1  0  0  0
 36109  1  0  0  0
 37 39  1  0  0  0
 37 47  1  0  0  0
 37 66  1  0  0  0
 37110  1  0  0  0
 38 43  2  0  0  0
 38 46  1  0  0  0
 38 47  1  0  0  0
 39 64  1  0  0  0
 39 67  2  0  0  0
 40 52  1  0  0  0
 40 53  2  0  0  0
 40 58  1  0  0  0
 41111  1  0  0  0
 41112  1  0  0  0
 41113  1  0  0  0
 41 48  1  0  0  0
 42 43  1  0  0  0
 42 66  1  0  0  0
 42114  1  0  0  0
 42115  1  0  0  0
 43 44  1  0  0  0
 44116  1  0  0  0
 45 46  2  0  0  0
 45117  1  0  0  0
 46118  1  0  0  0
 47119  1  0  0  0
 47120  1  0  0  0
 48 56  1  0  0  0
 48 65  1  0  0  0
 48121  1  0  0  0
 49 50  1  0  0  0
 49 53  1  0  0  0
 49 64  1  0  0  0
 49122  1  0  0  0
 50 51  1  0  0  0
 50123  1  0  0  0
 50124  1  0  0  0
 51 52  1  0  0  0
 51125  1  0  0  0
 51126  1  0  0  0
 52127  1  0  0  0
 52128  1  0  0  0
 53 54  1  0  0  0
 54 55  2  0  0  0
 54129  1  0  0  0
 55 57  1  0  0  0
 55130  1  0  0  0
 56 69  2  0  0  0
 57 58  2  0  0  0
 57131  1  0  0  0
 58132  1  0  0  0
 59 60  1  0  0  0
 59 61  1  0  0  0
 59 62  1  0  0  0
 60133  1  0  0  0
 60134  1  0  0  0
 60135  1  0  0  0
 61136  1  0  0  0
 61137  1  0  0  0
 61138  1  0  0  0
 62139  1  0  0  0
 62140  1  0  0  0
 62141  1  0  0  0
 63 65  1  0  0  0
 63142  1  0  0  0
 63143  1  0  0  0
 63144  1  0  0  0
 64145  1  0  0  0
 65146  1  0  0  0
 68 86  1  0  0  0
 71 72  2  0  0  0
 71 73  1  0  0  0
 71147  1  0  0  0
 72 74  1  0  0  0
 72148  1  0  0  0
 73 75  2  0  0  0
 73149  1  0  0  0
 74 76  2  0  0  0
 74 77  1  0  0  0
 75 76  1  0  0  0
 75 80  1  0  0  0
 76 81  1  0  0  0
 77150  1  0  0  0
 77151  1  0  0  0
 77152  1  0  0  0
 78 83  1  0  0  0
 78153  1  0  0  0
 78154  1  0  0  0
 78155  1  0  0  0
 79156  1  0  0  0
 79157  1  0  0  0
 79158  1  0  0  0
 79 87  1  0  0  0
 80 84  1  0  0  0
 80159  1  0  0  0
 80160  1  0  0  0
 81 82  1  0  0  0
 81161  1  0  0  0
 81162  1  0  0  0
 82163  1  0  0  0
 82164  1  0  0  0
 83 87  1  0  0  0
 83165  1  0  0  0
 83166  1  0  0  0
 84 87  1  0  0  0
 84167  1  0  0  0
 84168  1  0  0  0
 85 86  1  0  0  0
 85 87  1  0  0  0
 85169  1  0  0  0
 85170  1  0  0  0
 86171  1  0  0  0
 86172  1  0  0  0
M  ISO  4   1 100  68 101  82 100  86 101
M  END
> <chiral flag>
0

> <version>
0

> <s_m_source_file>
/data/baiqing/PycharmProjects/Reinvent-master-3.2/result/LINK_invent/BTK/process_docking_weight1_custom_product_contain_oxygen_bond_distance_aromatic_linkinvent_7_9_3/rearranged_h_0134.sdf

> <i_m_source_file_index>
43

> <r_mmod_Potential_Energy-OPLS-2005>
175.685241699219

> <r_mmod_Stretch_Energy-OPLS-2005>
70.8014297485352

> <r_mmod_Bend_Energy-OPLS-2005>
173.947143554688

> <r_mmod_Torsional_Energy-OPLS-2005>
271.589965820312

> <r_mmod_Improper_Torsional_Energy-OPLS-2005>
3.71155643463135

> <r_mmod_Van_der_Waal_Energy-OPLS-2005>
158.096755981445

> <r_mmod_Electrostatic_Energy-OPLS-2005>
-348.530151367188

> <r_mmod_Solvation_Energy-OPLS-2005>
-188.064910888672

> <b_mmod_Minimization_Converged-OPLS-2005>
0

> <r_mmod_RMS_Derivative-OPLS-2005>
9.38710689544678

$$$$
43
                    3D
 Structure written by MMmdl.
157165  0  0  1  0            999 V2000
  -30.7335  -14.4536   20.5695 C   0  0  0  0  0  0
  -30.4202  -12.2978   19.4131 C   0  0  0  0  0  0
  -29.4887  -12.4783   18.1985 C   0  0  0  0  0  0
  -28.0109  -12.3467   18.6197 C   0  0  0  0  0  0
  -27.6599  -13.2056   19.8652 C   0  0  2  0  0  0
  -28.7066  -13.0020   20.9855 C   0  0  0  0  0  0
  -25.2585  -13.8176   20.5675 C   0  0  0  0  0  0
  -24.1840  -13.0453   20.9193 C   0  0  0  0  0  0
  -24.6380  -11.6923   20.8734 C   0  0  0  0  0  0
  -23.9030  -10.4318   21.0410 C   0  0  0  0  0  0
  -24.3601   -9.4240   21.9183 C   0  0  0  0  0  0
  -23.6308   -8.2252   22.0742 C   0  0  0  0  0  0
  -22.4287   -8.0284   21.3540 C   0  0  0  0  0  0
  -21.9910   -9.0242   20.4623 C   0  0  0  0  0  0
  -22.7210  -10.2139   20.3046 C   0  0  0  0  0  0
  -21.6846   -6.0738   22.5294 C   0  0  0  0  0  0
  -21.3996   -6.5639   23.8226 C   0  0  0  0  0  0
  -21.3663   -5.6791   24.9190 C   0  0  0  0  0  0
  -21.6048   -4.3042   24.7226 C   0  0  0  0  0  0
  -21.8829   -3.8142   23.4337 C   0  0  0  0  0  0
  -21.9191   -4.6972   22.3402 C   0  0  0  0  0  0
  -22.7860  -13.5243   21.1868 C   0  0  0  0  0  0
  -22.1666   -4.2157   21.0976 F   0  0  0  0  0  0
  -21.5634   -3.4528   25.7729 F   0  0  0  0  0  0
  -30.0364  -13.2960   20.4237 N   0  0  0  0  0  0
  -26.3022  -12.9335   20.3344 N   0  0  0  0  0  0
  -25.9305  -11.6501   20.5779 N   0  0  0  0  0  0
  -22.0482  -12.8238   22.0408 N   0  0  0  0  0  0
  -25.4303  -15.1889   20.4087 N   0  0  0  0  0  0
  -31.8615  -14.6189   20.0966 O   0  0  0  0  0  0
  -21.6646   -6.8889   21.4251 O   0  0  0  0  0  0
  -22.3554  -14.5553   20.6719 O   0  0  0  0  0  0
  -24.6146  -31.8675   23.2079 C   0  0  0  0  0  0
  -25.9010  -32.4815   23.8397 C   0  0  1  0  0  0
  -27.2187  -27.3851   20.1101 C   0  0  0  0  0  0
  -25.5905  -33.8620   24.2318 N   0  0  0  0  0  0
  -23.4069  -30.4930   21.5485 C   0  0  2  0  0  0
  -24.8515  -28.9626   20.1093 C   0  0  0  0  0  0
  -22.7435  -29.4667   22.4950 C   0  0  0  0  0  0
  -18.0289  -28.1385   22.8478 C   0  0  0  0  0  0
  -24.1496  -36.7284   23.2638 C   0  0  0  0  0  0
  -25.9437  -30.8173   21.3721 C   0  0  0  0  0  0
  -26.0181  -29.4535   20.7084 C   0  0  0  0  0  0
  -27.2080  -28.6774   20.7008 C   0  0  0  0  0  0
  -26.0303  -26.9382   19.4816 C   0  0  0  0  0  0
  -24.8556  -27.7068   19.4876 C   0  0  0  0  0  0
  -23.6156  -29.8330   20.1617 C   0  0  0  0  0  0
  -25.4119  -36.3102   24.0346 C   0  0  1  0  0  0
  -20.5889  -28.3677   23.1292 C   0  0  2  0  0  0
  -20.6800  -26.9414   22.5394 C   0  0  0  0  0  0
  -19.5776  -26.6392   21.5195 C   0  0  0  0  0  0
  -18.1948  -26.7937   22.1599 C   0  0  0  0  0  0
  -19.1539  -28.8851   23.2886 C   0  0  0  0  0  0
  -18.9469  -30.1457   23.8898 C   0  0  0  0  0  0
  -17.6469  -30.6591   24.0552 C   0  0  0  0  0  0
  -25.9055  -34.9473   23.5127 C   0  0  0  0  0  0
  -16.5351  -29.9089   23.6336 C   0  0  0  0  0  0
  -16.7275  -28.6506   23.0353 C   0  0  0  0  0  0
  -26.4451  -31.6605   25.0723 C   0  0  0  0  0  0
  -25.3741  -31.3676   26.1483 C   0  0  0  0  0  0
  -27.0258  -30.3045   24.6092 C   0  0  0  0  0  0
  -27.6025  -32.4353   25.7469 C   0  0  0  0  0  0
  -27.5591  -37.1800   24.8468 C   0  0  0  0  0  0
  -21.4159  -29.3020   22.3676 N   0  0  0  0  0  0
  -26.4295  -37.3793   23.9415 N   0  0  0  0  0  0
  -24.6727  -31.0755   22.0986 N   0  0  0  0  0  0
  -23.4197  -28.8203   23.3000 O   0  0  0  0  0  0
  -28.3376  -26.5578   20.1782 O   0  0  0  0  0  0
  -26.5609  -34.8926   22.4681 O   0  0  0  0  0  0
  -23.5328  -32.1430   23.7454 O   0  0  0  0  0  0
  -27.6654  -18.8659   22.7613 C   0  0  0  0  0  0
  -27.9565  -20.1478   22.2552 C   0  0  0  0  0  0
  -29.9690  -19.2640   21.2452 C   0  0  0  0  0  0
  -28.5163  -17.7678   22.5222 C   0  0  0  0  0  0
  -29.6702  -17.9518   21.7114 C   0  0  0  0  0  0
  -29.1347  -20.3811   21.5059 C   0  0  0  0  0  0
  -28.1554  -16.4419   23.1818 C   0  0  0  0  0  0
  -30.6502  -16.8164   21.3540 C   0  0  0  0  0  0
  -29.1650  -24.1283   20.6854 C   0  0  0  0  0  0
  -28.0258  -25.1490   20.3959 C   0  0  0  0  0  0
  -28.5906  -22.7356   21.1095 C   0  0  0  0  0  0
  -30.0859  -15.4717   21.1578 N   0  0  0  0  0  0
  -29.5210  -21.6357   21.0317 O   0  0  0  0  0  0
  -31.4641  -12.3865   19.1043 H   0  0  0  0  0  0
  -30.3181  -11.2905   19.8211 H   0  0  0  0  0  0
  -29.7246  -11.7328   17.4361 H   0  0  0  0  0  0
  -29.6600  -13.4519   17.7371 H   0  0  0  0  0  0
  -27.8301  -11.2933   18.8404 H   0  0  0  0  0  0
  -27.3514  -12.5970   17.7873 H   0  0  0  0  0  0
  -27.7007  -14.2483   19.5492 H   0  0  0  0  0  0
  -28.6877  -11.9703   21.3388 H   0  0  0  0  0  0
  -28.4750  -13.6116   21.8585 H   0  0  0  0  0  0
  -25.2754   -9.5732   22.4738 H   0  0  0  0  0  0
  -24.0039   -7.4642   22.7436 H   0  0  0  0  0  0
  -21.0852   -8.8717   19.8925 H   0  0  0  0  0  0
  -22.3652  -10.9655   19.6134 H   0  0  0  0  0  0
  -21.1968   -7.6148   23.9732 H   0  0  0  0  0  0
  -21.1486   -6.0512   25.9098 H   0  0  0  0  0  0
  -22.0603   -2.7604   23.2822 H   0  0  0  0  0  0
  -22.4104  -11.9913   22.4824 H   0  0  0  0  0  0
  -21.1068  -13.1220   22.2557 H   0  0  0  0  0  0
  -24.6583  -15.8387   20.5195 H   0  0  0  0  0  0
  -26.2808  -15.6306   20.0822 H   0  0  0  0  0  0
  -26.7060  -32.5501   23.1145 H   0  0  0  0  0  0
  -25.0117  -33.9826   25.0504 H   0  0  0  0  0  0
  -22.6946  -31.3094   21.4126 H   0  0  0  0  0  0
  -23.3795  -35.9581   23.3304 H   0  0  0  0  0  0
  -24.3615  -36.8878   22.2051 H   0  0  0  0  0  0
  -23.7196  -37.6473   23.6642 H   0  0  0  0  0  0
  -26.0825  -31.5904   20.6150 H   0  0  0  0  0  0
  -26.8212  -30.8486   22.0050 H   0  0  0  0  0  0
  -28.1010  -29.0495   21.1834 H   0  0  0  0  0  0
  -25.9727  -25.9843   18.9826 H   0  0  0  0  0  0
  -23.9620  -27.3243   19.0109 H   0  0  0  0  0  0
  -23.7264  -30.6118   19.4051 H   0  0  0  0  0  0
  -22.7380  -29.2566   19.8634 H   0  0  0  0  0  0
  -25.1298  -36.1971   25.0843 H   0  0  0  0  0  0
  -21.0002  -28.3231   24.1404 H   0  0  0  0  0  0
  -20.5719  -26.2277   23.3575 H   0  0  0  0  0  0
  -21.6657  -26.7483   22.1161 H   0  0  0  0  0  0
  -19.6951  -25.6302   21.1216 H   0  0  0  0  0  0
  -19.6728  -27.3207   20.6723 H   0  0  0  0  0  0
  -17.4230  -26.6683   21.3982 H   0  0  0  0  0  0
  -18.0357  -26.0074   22.9001 H   0  0  0  0  0  0
  -19.7949  -30.7272   24.2266 H   0  0  0  0  0  0
  -17.5025  -31.6276   24.5143 H   0  0  0  0  0  0
  -15.5351  -30.2986   23.7682 H   0  0  0  0  0  0
  -15.8673  -28.0825   22.7071 H   0  0  0  0  0  0
  -24.5954  -30.6975   25.7826 H   0  0  0  0  0  0
  -24.8891  -32.2800   26.4968 H   0  0  0  0  0  0
  -25.8148  -30.8851   27.0215 H   0  0  0  0  0  0
  -26.2762  -29.6839   24.1158 H   0  0  0  0  0  0
  -27.4027  -29.7255   25.4529 H   0  0  0  0  0  0
  -27.8629  -30.4370   23.9229 H   0  0  0  0  0  0
  -27.2644  -33.3677   26.2017 H   0  0  0  0  0  0
  -28.3830  -32.6882   25.0277 H   0  0  0  0  0  0
  -28.0687  -31.8498   26.5405 H   0  0  0  0  0  0
  -28.2591  -38.0114   24.7565 H   0  0  0  0  0  0
  -28.1116  -36.2663   24.6256 H   0  0  0  0  0  0
  -27.2334  -37.1375   25.8873 H   0  0  0  0  0  0
  -20.9323  -29.8712   21.6869 H   0  0  0  0  0  0
  -26.0199  -38.2868   24.1449 H   0  0  0  0  0  0
  -26.7747  -18.7319   23.3610 H   0  0  0  0  0  0
  -27.2608  -20.9397   22.4839 H   0  0  0  0  0  0
  -30.8676  -19.4211   20.6654 H   0  0  0  0  0  0
  -27.5688  -16.6003   24.0879 H   0  0  0  0  0  0
  -29.0376  -15.8805   23.4913 H   0  0  0  0  0  0
  -27.5588  -15.8277   22.5070 H   0  0  0  0  0  0
  -31.4192  -16.7667   22.1263 H   0  0  0  0  0  0
  -31.1710  -17.0988   20.4359 H   0  0  0  0  0  0
  -29.8171  -24.5053   21.4729 H   0  0  0  0  0  0
  -29.7854  -24.0170   19.7949 H   0  0  0  0  0  0
  -27.3153  -25.0891   21.2228 H   0  0  0  0  0  0
  -27.5242  -24.7492   19.5167 H   0  0  0  0  0  0
  -27.7393  -22.4881   20.4736 H   0  0  0  0  0  0
  -28.2088  -22.8364   22.1264 H   0  0  0  0  0  0
  -29.1468  -15.3058   21.4816 H   0  0  0  0  0  0
  1 25  1  0  0  0
  1 30  2  0  0  0
  1 82  1  0  0  0
  2  3  1  0  0  0
  2 25  1  0  0  0
  2 84  1  0  0  0
  2 85  1  0  0  0
  3  4  1  0  0  0
  3 86  1  0  0  0
  3 87  1  0  0  0
  4  5  1  0  0  0
  4 88  1  0  0  0
  4 89  1  0  0  0
  5  6  1  0  0  0
  5 26  1  0  0  0
  5 90  1  0  0  0
  6 25  1  0  0  0
  6 91  1  0  0  0
  6 92  1  0  0  0
  7  8  2  0  0  0
  7 26  1  0  0  0
  7 29  1  0  0  0
  8  9  1  0  0  0
  8 22  1  0  0  0
  9 10  1  0  0  0
  9 27  2  0  0  0
 10 11  2  0  0  0
 10 15  1  0  0  0
 11 12  1  0  0  0
 11 93  1  0  0  0
 12 13  2  0  0  0
 12 94  1  0  0  0
 13 14  1  0  0  0
 13 31  1  0  0  0
 14 15  2  0  0  0
 14 95  1  0  0  0
 15 96  1  0  0  0
 16 17  2  0  0  0
 16 21  1  0  0  0
 16 31  1  0  0  0
 17 18  1  0  0  0
 17 97  1  0  0  0
 18 19  2  0  0  0
 18 98  1  0  0  0
 19 20  1  0  0  0
 19 24  1  0  0  0
 20 21  2  0  0  0
 20 99  1  0  0  0
 21 23  1  0  0  0
 22 28  1  0  0  0
 22 32  2  0  0  0
 26 27  1  0  0  0
 28100  1  0  0  0
 28101  1  0  0  0
 29102  1  0  0  0
 29103  1  0  0  0
 33 34  1  0  0  0
 33 66  1  0  0  0
 33 70  2  0  0  0
 34 36  1  0  0  0
 34 59  1  0  0  0
 34104  1  0  0  0
 35 44  2  0  0  0
 35 45  1  0  0  0
 35 68  1  0  0  0
 36 56  1  0  0  0
 36105  1  0  0  0
 37 39  1  0  0  0
 37 47  1  0  0  0
 37 66  1  0  0  0
 37106  1  0  0  0
 38 43  2  0  0  0
 38 46  1  0  0  0
 38 47  1  0  0  0
 39 64  1  0  0  0
 39 67  2  0  0  0
 40 52  1  0  0  0
 40 53  2  0  0  0
 40 58  1  0  0  0
 41107  1  0  0  0
 41108  1  0  0  0
 41109  1  0  0  0
 41 48  1  0  0  0
 42 43  1  0  0  0
 42 66  1  0  0  0
 42110  1  0  0  0
 42111  1  0  0  0
 43 44  1  0  0  0
 44112  1  0  0  0
 45 46  2  0  0  0
 45113  1  0  0  0
 46114  1  0  0  0
 47115  1  0  0  0
 47116  1  0  0  0
 48 56  1  0  0  0
 48 65  1  0  0  0
 48117  1  0  0  0
 49 50  1  0  0  0
 49 53  1  0  0  0
 49 64  1  0  0  0
 49118  1  0  0  0
 50 51  1  0  0  0
 50119  1  0  0  0
 50120  1  0  0  0
 51 52  1  0  0  0
 51121  1  0  0  0
 51122  1  0  0  0
 52123  1  0  0  0
 52124  1  0  0  0
 53 54  1  0  0  0
 54 55  2  0  0  0
 54125  1  0  0  0
 55 57  1  0  0  0
 55126  1  0  0  0
 56 69  2  0  0  0
 57 58  2  0  0  0
 57127  1  0  0  0
 58128  1  0  0  0
 59 60  1  0  0  0
 59 61  1  0  0  0
 59 62  1  0  0  0
 60129  1  0  0  0
 60130  1  0  0  0
 60131  1  0  0  0
 61132  1  0  0  0
 61133  1  0  0  0
 61134  1  0  0  0
 62135  1  0  0  0
 62136  1  0  0  0
 62137  1  0  0  0
 63 65  1  0  0  0
 63138  1  0  0  0
 63139  1  0  0  0
 63140  1  0  0  0
 64141  1  0  0  0
 65142  1  0  0  0
 68 80  1  0  0  0
 71 72  2  0  0  0
 71 74  1  0  0  0
 71143  1  0  0  0
 72 76  1  0  0  0
 72144  1  0  0  0
 73 75  1  0  0  0
 73 76  2  0  0  0
 73145  1  0  0  0
 74 75  2  0  0  0
 74 77  1  0  0  0
 75 78  1  0  0  0
 76 83  1  0  0  0
 77146  1  0  0  0
 77147  1  0  0  0
 77148  1  0  0  0
 78 82  1  0  0  0
 78149  1  0  0  0
 78150  1  0  0  0
 79 80  1  0  0  0
 79 81  1  0  0  0
 79151  1  0  0  0
 79152  1  0  0  0
 80153  1  0  0  0
 80154  1  0  0  0
 81 83  1  0  0  0
 81155  1  0  0  0
 81156  1  0  0  0
 82157  1  0  0  0
M  ISO  4   1 100  68 101  80 101  82 100
M  END
> <chiral flag>
0

> <version>
0

> <s_m_source_file>
/data/baiqing/PycharmProjects/Reinvent-master-3.2/result/LINK_invent/BTK/process_docking_weight1_custom_product_contain_oxygen_bond_distance_aromatic_linkinvent_7_9_3/rearranged_h_0134.sdf

> <i_m_source_file_index>
44

> <r_mmod_Potential_Energy-OPLS-2005>
-87.5130844116211

> <r_mmod_Stretch_Energy-OPLS-2005>
47.0947074890137

> <r_mmod_Bend_Energy-OPLS-2005>
111.829086303711

> <r_mmod_Torsional_Energy-OPLS-2005>
203.62419128418

> <r_mmod_Improper_Torsional_Energy-OPLS-2005>
2.7074978351593

> <r_mmod_Van_der_Waal_Energy-OPLS-2005>
162.315582275391

> <r_mmod_Electrostatic_Energy-OPLS-2005>
-427.762603759766

> <r_mmod_Solvation_Energy-OPLS-2005>
-208.381851196289

> <b_mmod_Minimization_Converged-OPLS-2005>
0

> <r_mmod_RMS_Derivative-OPLS-2005>
3.16644930839539

$$$$
44
                    3D
 Structure written by MMmdl.
163171  0  0  1  0            999 V2000
  -30.7272  -14.3921   20.6853 C   0  0  0  0  0  0
  -30.4306  -12.3038   19.3898 C   0  0  0  0  0  0
  -29.4884  -12.5357   18.1917 C   0  0  0  0  0  0
  -28.0123  -12.3864   18.6083 C   0  0  0  0  0  0
  -27.6710  -13.1995   19.8832 C   0  0  2  0  0  0
  -28.7081  -12.9195   20.9925 C   0  0  0  0  0  0
  -25.2624  -13.8148   20.5661 C   0  0  0  0  0  0
  -24.1857  -13.0439   20.9155 C   0  0  0  0  0  0
  -24.6400  -11.6900   20.8721 C   0  0  0  0  0  0
  -23.9063  -10.4291   21.0400 C   0  0  0  0  0  0
  -24.3610   -9.4209   21.9182 C   0  0  0  0  0  0
  -23.6286   -8.2245   22.0758 C   0  0  0  0  0  0
  -22.4269   -8.0281   21.3544 C   0  0  0  0  0  0
  -21.9903   -9.0257   20.4647 C   0  0  0  0  0  0
  -22.7235  -10.2133   20.3055 C   0  0  0  0  0  0
  -21.6854   -6.0734   22.5274 C   0  0  0  0  0  0
  -21.4017   -6.5638   23.8208 C   0  0  0  0  0  0
  -21.3660   -5.6790   24.9172 C   0  0  0  0  0  0
  -21.6047   -4.3052   24.7224 C   0  0  0  0  0  0
  -21.8821   -3.8143   23.4343 C   0  0  0  0  0  0
  -21.9193   -4.6961   22.3398 C   0  0  0  0  0  0
  -22.7880  -13.5242   21.1830 C   0  0  0  0  0  0
  -22.1660   -4.2144   21.0976 F   0  0  0  0  0  0
  -21.5630   -3.4539   25.7738 F   0  0  0  0  0  0
  -30.0564  -13.2289   20.4694 N   0  0  0  0  0  0
  -26.3070  -12.9309   20.3386 N   0  0  0  0  0  0
  -25.9326  -11.6472   20.5749 N   0  0  0  0  0  0
  -22.0523  -12.8232   22.0386 N   0  0  0  0  0  0
  -25.4366  -15.1865   20.4075 N   0  0  0  0  0  0
  -31.7163  -14.7447   20.0352 O   0  0  0  0  0  0
  -21.6637   -6.8874   21.4236 O   0  0  0  0  0  0
  -22.3565  -14.5554   20.6691 O   0  0  0  0  0  0
  -24.6124  -31.8700   23.2107 C   0  0  0  0  0  0
  -25.9019  -32.4838   23.8408 C   0  0  1  0  0  0
  -27.2389  -27.4555   20.0977 C   0  0  0  0  0  0
  -25.5883  -33.8634   24.2344 N   0  0  0  0  0  0
  -23.4022  -30.4912   21.5498 C   0  0  2  0  0  0
  -24.8517  -28.9598   20.1131 C   0  0  0  0  0  0
  -22.7417  -29.4648   22.4982 C   0  0  0  0  0  0
  -18.0274  -28.1367   22.8478 C   0  0  0  0  0  0
  -24.1489  -36.7326   23.2641 C   0  0  0  0  0  0
  -25.9269  -30.8418   21.3604 C   0  0  0  0  0  0
  -26.0089  -29.4750   20.7133 C   0  0  0  0  0  0
  -27.2076  -28.7281   20.7093 C   0  0  0  0  0  0
  -26.0725  -26.9489   19.4909 C   0  0  0  0  0  0
  -24.8768  -27.6934   19.4998 C   0  0  0  0  0  0
  -23.6128  -29.8260   20.1630 C   0  0  0  0  0  0
  -25.4104  -36.3123   24.0345 C   0  0  1  0  0  0
  -20.5866  -28.3657   23.1313 C   0  0  2  0  0  0
  -20.6776  -26.9397   22.5413 C   0  0  0  0  0  0
  -19.5761  -26.6373   21.5206 C   0  0  0  0  0  0
  -18.1933  -26.7910   22.1609 C   0  0  0  0  0  0
  -19.1523  -28.8826   23.2896 C   0  0  0  0  0  0
  -18.9460  -30.1435   23.8909 C   0  0  0  0  0  0
  -17.6463  -30.6586   24.0562 C   0  0  0  0  0  0
  -25.9023  -34.9486   23.5139 C   0  0  0  0  0  0
  -16.5353  -29.9093   23.6316 C   0  0  0  0  0  0
  -16.7266  -28.6508   23.0331 C   0  0  0  0  0  0
  -26.4458  -31.6599   25.0716 C   0  0  0  0  0  0
  -25.3730  -31.3703   26.1473 C   0  0  0  0  0  0
  -27.0281  -30.3057   24.6035 C   0  0  0  0  0  0
  -27.6038  -32.4313   25.7482 C   0  0  0  0  0  0
  -27.5582  -37.1822   24.8469 C   0  0  0  0  0  0
  -21.4145  -29.3027   22.3729 N   0  0  0  0  0  0
  -26.4300  -37.3796   23.9405 N   0  0  0  0  0  0
  -24.6650  -31.0812   22.0994 N   0  0  0  0  0  0
  -23.4188  -28.8172   23.3015 O   0  0  0  0  0  0
  -28.3755  -26.6856   20.0998 O   0  0  0  0  0  0
  -26.5591  -34.8934   22.4704 O   0  0  0  0  0  0
  -23.5317  -32.1433   23.7504 O   0  0  0  0  0  0
  -29.2278  -19.1047   22.4405 C   0  0  0  0  0  0
  -28.9382  -18.0893   23.3686 C   0  0  0  0  0  0
  -30.3415  -17.4796   21.0015 C   0  0  0  0  0  0
  -29.9299  -18.8233   21.2429 C   0  0  0  0  0  0
  -30.0295  -16.4496   21.9294 C   0  0  0  0  0  0
  -29.3314  -16.7685   23.1089 C   0  0  0  0  0  0
  -29.3961  -21.1876   20.3297 C   0  0  0  0  0  0
  -29.8894  -22.4248   20.1094 C   0  0  0  0  0  0
  -30.1741  -19.9239   20.2585 C   0  0  0  0  0  0
  -29.6860  -24.1371   22.5974 C   0  0  0  0  0  0
  -30.9125  -25.3539   20.7817 C   0  0  0  0  0  0
  -29.0574  -23.7051   20.1784 C   0  0  0  0  0  0
  -28.5058  -25.9218   21.3016 C   0  0  0  0  0  0
  -29.5464  -24.7724   21.1970 C   0  0  0  0  0  0
  -31.0312  -19.8048   19.3331 N   0  0  0  0  0  0
  -30.2976  -15.0636   21.7599 N   0  0  0  0  0  0
  -29.0184  -15.7872   23.9901 F   0  0  0  0  0  0
  -31.4707  -12.4290   19.0834 H   0  0  0  0  0  0
  -30.3481  -11.2753   19.7439 H   0  0  0  0  0  0
  -29.7206  -11.8344   17.3892 H   0  0  0  0  0  0
  -29.6537  -13.5335   17.7830 H   0  0  0  0  0  0
  -27.8184  -11.3269   18.7808 H   0  0  0  0  0  0
  -27.3586  -12.6837   17.7875 H   0  0  0  0  0  0
  -27.7346  -14.2564   19.6238 H   0  0  0  0  0  0
  -28.6721  -11.8687   21.2825 H   0  0  0  0  0  0
  -28.4389  -13.4689   21.8949 H   0  0  0  0  0  0
  -25.2759   -9.5685   22.4752 H   0  0  0  0  0  0
  -23.9998   -7.4639   22.7477 H   0  0  0  0  0  0
  -21.0837   -8.8776   19.8952 H   0  0  0  0  0  0
  -22.3697  -10.9672   19.6160 H   0  0  0  0  0  0
  -21.2011   -7.6147   23.9710 H   0  0  0  0  0  0
  -21.1482   -6.0521   25.9073 H   0  0  0  0  0  0
  -22.0600   -2.7606   23.2845 H   0  0  0  0  0  0
  -22.4132  -11.9879   22.4752 H   0  0  0  0  0  0
  -21.1152  -13.1268   22.2617 H   0  0  0  0  0  0
  -24.6752  -15.8475   20.5178 H   0  0  0  0  0  0
  -26.3010  -15.6225   20.1117 H   0  0  0  0  0  0
  -26.7096  -32.5574   23.1188 H   0  0  0  0  0  0
  -25.0056  -33.9801   25.0501 H   0  0  0  0  0  0
  -22.6893  -31.3063   21.4107 H   0  0  0  0  0  0
  -23.3744  -35.9666   23.3324 H   0  0  0  0  0  0
  -24.3594  -36.8914   22.2050 H   0  0  0  0  0  0
  -23.7255  -37.6542   23.6636 H   0  0  0  0  0  0
  -26.0276  -31.6045   20.5872 H   0  0  0  0  0  0
  -26.8182  -30.9049   21.9720 H   0  0  0  0  0  0
  -28.1016  -29.1178   21.1778 H   0  0  0  0  0  0
  -26.0903  -25.9743   19.0250 H   0  0  0  0  0  0
  -23.9890  -27.2912   19.0315 H   0  0  0  0  0  0
  -23.7244  -30.6046   19.4074 H   0  0  0  0  0  0
  -22.7372  -29.2486   19.8637 H   0  0  0  0  0  0
  -25.1279  -36.1995   25.0835 H   0  0  0  0  0  0
  -20.9954  -28.3227   24.1440 H   0  0  0  0  0  0
  -20.5696  -26.2270   23.3598 H   0  0  0  0  0  0
  -21.6648  -26.7462   22.1204 H   0  0  0  0  0  0
  -19.6942  -25.6286   21.1238 H   0  0  0  0  0  0
  -19.6710  -27.3186   20.6737 H   0  0  0  0  0  0
  -17.4209  -26.6649   21.4007 H   0  0  0  0  0  0
  -18.0346  -26.0044   22.9002 H   0  0  0  0  0  0
  -19.7945  -30.7230   24.2295 H   0  0  0  0  0  0
  -17.5034  -31.6269   24.5162 H   0  0  0  0  0  0
  -15.5359  -30.3010   23.7635 H   0  0  0  0  0  0
  -15.8656  -28.0852   22.7020 H   0  0  0  0  0  0
  -24.5898  -30.7044   25.7832 H   0  0  0  0  0  0
  -24.8914  -32.2859   26.4922 H   0  0  0  0  0  0
  -25.8085  -30.8886   27.0240 H   0  0  0  0  0  0
  -26.2810  -29.6841   24.1086 H   0  0  0  0  0  0
  -27.4096  -29.7257   25.4446 H   0  0  0  0  0  0
  -27.8619  -30.4420   23.9146 H   0  0  0  0  0  0
  -27.2659  -33.3609   26.2084 H   0  0  0  0  0  0
  -28.3835  -32.6885   25.0300 H   0  0  0  0  0  0
  -28.0713  -31.8416   26.5380 H   0  0  0  0  0  0
  -28.2608  -38.0108   24.7498 H   0  0  0  0  0  0
  -28.1067  -36.2639   24.6314 H   0  0  0  0  0  0
  -27.2304  -37.1498   25.8875 H   0  0  0  0  0  0
  -20.9299  -29.8775   21.6978 H   0  0  0  0  0  0
  -26.0193  -38.2877   24.1403 H   0  0  0  0  0  0
  -28.9034  -20.1093   22.6708 H   0  0  0  0  0  0
  -28.3990  -18.3194   24.2755 H   0  0  0  0  0  0
  -30.8601  -17.2358   20.0856 H   0  0  0  0  0  0
  -28.3543  -21.0605   20.5884 H   0  0  0  0  0  0
  -30.9337  -22.5414   19.8565 H   0  0  0  0  0  0
  -30.4483  -23.3575   22.6183 H   0  0  0  0  0  0
  -28.7492  -23.6870   22.9257 H   0  0  0  0  0  0
  -29.9699  -24.8785   23.3459 H   0  0  0  0  0  0
  -31.7010  -24.6020   20.8159 H   0  0  0  0  0  0
  -31.2142  -26.1652   21.4447 H   0  0  0  0  0  0
  -30.8838  -25.7585   19.7695 H   0  0  0  0  0  0
  -28.0273  -23.4292   20.4106 H   0  0  0  0  0  0
  -29.0259  -24.1433   19.1796 H   0  0  0  0  0  0
  -28.7853  -26.6032   22.1078 H   0  0  0  0  0  0
  -27.5383  -25.4997   21.5856 H   0  0  0  0  0  0
  -31.5066  -18.9109   19.3713 H   0  0  0  0  0  0
  -29.7583  -14.4914   22.3935 H   0  0  0  0  0  0
  1 25  1  0  0  0
  1 30  2  0  0  0
  1 86  1  0  0  0
  2  3  1  0  0  0
  2 25  1  0  0  0
  2 88  1  0  0  0
  2 89  1  0  0  0
  3  4  1  0  0  0
  3 90  1  0  0  0
  3 91  1  0  0  0
  4  5  1  0  0  0
  4 92  1  0  0  0
  4 93  1  0  0  0
  5  6  1  0  0  0
  5 26  1  0  0  0
  5 94  1  0  0  0
  6 25  1  0  0  0
  6 95  1  0  0  0
  6 96  1  0  0  0
  7  8  2  0  0  0
  7 26  1  0  0  0
  7 29  1  0  0  0
  8  9  1  0  0  0
  8 22  1  0  0  0
  9 10  1  0  0  0
  9 27  2  0  0  0
 10 11  2  0  0  0
 10 15  1  0  0  0
 11 12  1  0  0  0
 11 97  1  0  0  0
 12 13  2  0  0  0
 12 98  1  0  0  0
 13 14  1  0  0  0
 13 31  1  0  0  0
 14 15  2  0  0  0
 14 99  1  0  0  0
 15100  1  0  0  0
 16 17  2  0  0  0
 16 21  1  0  0  0
 16 31  1  0  0  0
 17 18  1  0  0  0
 17101  1  0  0  0
 18 19  2  0  0  0
 18102  1  0  0  0
 19 20  1  0  0  0
 19 24  1  0  0  0
 20 21  2  0  0  0
 20103  1  0  0  0
 21 23  1  0  0  0
 22 28  1  0  0  0
 22 32  2  0  0  0
 26 27  1  0  0  0
 28104  1  0  0  0
 28105  1  0  0  0
 29106  1  0  0  0
 29107  1  0  0  0
 33 34  1  0  0  0
 33 66  1  0  0  0
 33 70  2  0  0  0
 34 36  1  0  0  0
 34 59  1  0  0  0
 34108  1  0  0  0
 35 44  2  0  0  0
 35 45  1  0  0  0
 35 68  1  0  0  0
 36 56  1  0  0  0
 36109  1  0  0  0
 37 39  1  0  0  0
 37 47  1  0  0  0
 37 66  1  0  0  0
 37110  1  0  0  0
 38 43  2  0  0  0
 38 46  1  0  0  0
 38 47  1  0  0  0
 39 64  1  0  0  0
 39 67  2  0  0  0
 40 52  1  0  0  0
 40 53  2  0  0  0
 40 58  1  0  0  0
 41111  1  0  0  0
 41112  1  0  0  0
 41113  1  0  0  0
 41 48  1  0  0  0
 42 43  1  0  0  0
 42 66  1  0  0  0
 42114  1  0  0  0
 42115  1  0  0  0
 43 44  1  0  0  0
 44116  1  0  0  0
 45 46  2  0  0  0
 45117  1  0  0  0
 46118  1  0  0  0
 47119  1  0  0  0
 47120  1  0  0  0
 48 56  1  0  0  0
 48 65  1  0  0  0
 48121  1  0  0  0
 49 50  1  0  0  0
 49 53  1  0  0  0
 49 64  1  0  0  0
 49122  1  0  0  0
 50 51  1  0  0  0
 50123  1  0  0  0
 50124  1  0  0  0
 51 52  1  0  0  0
 51125  1  0  0  0
 51126  1  0  0  0
 52127  1  0  0  0
 52128  1  0  0  0
 53 54  1  0  0  0
 54 55  2  0  0  0
 54129  1  0  0  0
 55 57  1  0  0  0
 55130  1  0  0  0
 56 69  2  0  0  0
 57 58  2  0  0  0
 57131  1  0  0  0
 58132  1  0  0  0
 59 60  1  0  0  0
 59 61  1  0  0  0
 59 62  1  0  0  0
 60133  1  0  0  0
 60134  1  0  0  0
 60135  1  0  0  0
 61136  1  0  0  0
 61137  1  0  0  0
 61138  1  0  0  0
 62139  1  0  0  0
 62140  1  0  0  0
 62141  1  0  0  0
 63 65  1  0  0  0
 63142  1  0  0  0
 63143  1  0  0  0
 63144  1  0  0  0
 64145  1  0  0  0
 65146  1  0  0  0
 68 83  1  0  0  0
 71 72  2  0  0  0
 71 74  1  0  0  0
 71147  1  0  0  0
 72 76  1  0  0  0
 72148  1  0  0  0
 73 74  2  0  0  0
 73 75  1  0  0  0
 73149  1  0  0  0
 74 79  1  0  0  0
 75 76  2  0  0  0
 75 86  1  0  0  0
 76 87  1  0  0  0
 77 78  2  0  0  0
 77 79  1  0  0  0
 77150  1  0  0  0
 78 82  1  0  0  0
 78151  1  0  0  0
 79 85  2  0  0  0
 80152  1  0  0  0
 80153  1  0  0  0
 80154  1  0  0  0
 80 84  1  0  0  0
 81 84  1  0  0  0
 81155  1  0  0  0
 81156  1  0  0  0
 81157  1  0  0  0
 82 84  1  0  0  0
 82158  1  0  0  0
 82159  1  0  0  0
 83 84  1  0  0  0
 83160  1  0  0  0
 83161  1  0  0  0
 85162  1  0  0  0
 86163  1  0  0  0
M  ISO  4   1 100  68 101  83 101  86 100
M  END
> <chiral flag>
0

> <version>
0

> <s_m_source_file>
/data/baiqing/PycharmProjects/Reinvent-master-3.2/result/LINK_invent/BTK/process_docking_weight1_custom_product_contain_oxygen_bond_distance_aromatic_linkinvent_7_9_3/rearranged_h_0134.sdf

> <i_m_source_file_index>
45

> <r_mmod_Potential_Energy-OPLS-2005>
-58.943302154541

> <r_mmod_Stretch_Energy-OPLS-2005>
37.6203880310059

> <r_mmod_Bend_Energy-OPLS-2005>
104.684722900391

> <r_mmod_Torsional_Energy-OPLS-2005>
263.766174316406

> <r_mmod_Improper_Torsional_Energy-OPLS-2005>
4.81115436553955

> <r_mmod_Van_der_Waal_Energy-OPLS-2005>
154.605987548828

> <r_mmod_Electrostatic_Energy-OPLS-2005>
-431.441619873047

> <r_mmod_Solvation_Energy-OPLS-2005>
-202.078506469727

> <b_mmod_Minimization_Converged-OPLS-2005>
0

> <r_mmod_RMS_Derivative-OPLS-2005>
1.48755383491516

$$$$
45
                    3D
 Structure written by MMmdl.
161169  0  0  1  0            999 V2000
  -30.6545  -14.5747   20.4966 C   0  0  0  0  0  0
  -30.4406  -12.3374   19.4701 C   0  0  0  0  0  0
  -29.5137  -12.4176   18.2355 C   0  0  0  0  0  0
  -28.0247  -12.3338   18.6279 C   0  0  0  0  0  0
  -27.6526  -13.2122   19.8539 C   0  0  2  0  0  0
  -28.6903  -13.0597   20.9875 C   0  0  0  0  0  0
  -25.2530  -13.8159   20.5667 C   0  0  0  0  0  0
  -24.1797  -13.0436   20.9185 C   0  0  0  0  0  0
  -24.6358  -11.6902   20.8717 C   0  0  0  0  0  0
  -23.9042  -10.4274   21.0402 C   0  0  0  0  0  0
  -24.3611   -9.4185   21.9176 C   0  0  0  0  0  0
  -23.6272   -8.2229   22.0754 C   0  0  0  0  0  0
  -22.4250   -8.0282   21.3560 C   0  0  0  0  0  0
  -21.9896   -9.0242   20.4649 C   0  0  0  0  0  0
  -22.7222  -10.2110   20.3050 C   0  0  0  0  0  0
  -21.6840   -6.0744   22.5306 C   0  0  0  0  0  0
  -21.4002   -6.5635   23.8249 C   0  0  0  0  0  0
  -21.3667   -5.6778   24.9206 C   0  0  0  0  0  0
  -21.6052   -4.3046   24.7239 C   0  0  0  0  0  0
  -21.8810   -3.8150   23.4354 C   0  0  0  0  0  0
  -21.9184   -4.6974   22.3420 C   0  0  0  0  0  0
  -22.7820  -13.5238   21.1840 C   0  0  0  0  0  0
  -22.1663   -4.2163   21.0995 F   0  0  0  0  0  0
  -21.5628   -3.4531   25.7749 F   0  0  0  0  0  0
  -30.0158  -13.3693   20.4323 N   0  0  0  0  0  0
  -26.2959  -12.9340   20.3243 N   0  0  0  0  0  0
  -25.9276  -11.6501   20.5721 N   0  0  0  0  0  0
  -22.0453  -12.8248   22.0411 N   0  0  0  0  0  0
  -25.4226  -15.1877   20.4131 N   0  0  0  0  0  0
  -31.8287  -14.7084   20.1410 O   0  0  0  0  0  0
  -21.6616   -6.8888   21.4272 O   0  0  0  0  0  0
  -22.3518  -14.5556   20.6699 O   0  0  0  0  0  0
  -24.6203  -31.8663   23.2122 C   0  0  0  0  0  0
  -25.9086  -32.4821   23.8399 C   0  0  1  0  0  0
  -27.2275  -27.3876   20.1020 C   0  0  0  0  0  0
  -25.5930  -33.8618   24.2322 N   0  0  0  0  0  0
  -23.4086  -30.4923   21.5560 C   0  0  2  0  0  0
  -24.8494  -28.9525   20.1192 C   0  0  0  0  0  0
  -22.7454  -29.4641   22.5012 C   0  0  0  0  0  0
  -18.0281  -28.1404   22.8465 C   0  0  0  0  0  0
  -24.1474  -36.7328   23.2632 C   0  0  0  0  0  0
  -25.9431  -30.8133   21.3753 C   0  0  0  0  0  0
  -26.0129  -29.4465   20.7192 C   0  0  0  0  0  0
  -27.2001  -28.6734   20.7044 C   0  0  0  0  0  0
  -26.0315  -26.9118   19.5092 C   0  0  0  0  0  0
  -24.8560  -27.6863   19.5135 C   0  0  0  0  0  0
  -23.6215  -29.8345   20.1680 C   0  0  0  0  0  0
  -25.4095  -36.3126   24.0338 C   0  0  1  0  0  0
  -20.5867  -28.3703   23.1346 C   0  0  2  0  0  0
  -20.6783  -26.9407   22.5514 C   0  0  0  0  0  0
  -19.5817  -26.6404   21.5238 C   0  0  0  0  0  0
  -18.1939  -26.7970   22.1542 C   0  0  0  0  0  0
  -19.1515  -28.8870   23.2895 C   0  0  0  0  0  0
  -18.9426  -30.1476   23.8929 C   0  0  0  0  0  0
  -17.6415  -30.6586   24.0606 C   0  0  0  0  0  0
  -25.9034  -34.9486   23.5135 C   0  0  0  0  0  0
  -16.5323  -29.9077   23.6326 C   0  0  0  0  0  0
  -16.7271  -28.6518   23.0309 C   0  0  0  0  0  0
  -26.4468  -31.6627   25.0754 C   0  0  0  0  0  0
  -25.3707  -31.3758   26.1485 C   0  0  0  0  0  0
  -27.0278  -30.3066   24.6154 C   0  0  0  0  0  0
  -27.6065  -32.4341   25.7490 C   0  0  0  0  0  0
  -27.5573  -37.1810   24.8452 C   0  0  0  0  0  0
  -21.4176  -29.3064   22.3763 N   0  0  0  0  0  0
  -26.4278  -37.3820   23.9414 N   0  0  0  0  0  0
  -24.6767  -31.0710   22.1059 N   0  0  0  0  0  0
  -23.4205  -28.8144   23.3030 O   0  0  0  0  0  0
  -28.4096  -26.6563   20.1302 O   0  0  0  0  0  0
  -26.5594  -34.8927   22.4686 O   0  0  0  0  0  0
  -23.5393  -32.1439   23.7502 O   0  0  0  0  0  0
  -30.0401  -19.5918   19.0146 C   0  0  0  0  0  0
  -30.0932  -18.4484   18.2048 C   0  0  0  0  0  0
  -29.8717  -18.1598   20.9835 C   0  0  0  0  0  0
  -29.9088  -19.4696   20.4077 C   0  0  0  0  0  0
  -30.0271  -17.1563   18.7622 C   0  0  0  0  0  0
  -29.9622  -16.9786   20.1780 C   0  0  0  0  0  0
  -28.5693  -24.1860   20.6182 C   0  0  0  0  0  0
  -29.9510  -15.9982   17.7847 C   0  0  0  0  0  0
  -26.8079  -22.6151   19.7274 C   0  0  0  0  0  0
  -29.8827  -20.7710   21.2365 C   0  0  0  0  0  0
  -28.4984  -25.3236   19.5535 C   0  0  0  0  0  0
  -28.5407  -21.5736   21.2469 C   0  0  0  0  0  0
  -28.2833  -22.7091   20.1740 C   0  0  2  0  0  0
  -29.8834  -15.6589   20.7805 N   0  0  0  0  0  0
  -28.8575  -24.4511   21.7885 O   0  0  0  0  0  0
  -31.4797  -12.4655   19.1610 H   0  0  0  0  0  0
  -30.3911  -11.3500   19.9329 H   0  0  0  0  0  0
  -29.7530  -11.6079   17.5428 H   0  0  0  0  0  0
  -29.7086  -13.3286   17.6794 H   0  0  0  0  0  0
  -27.8078  -11.2881   18.8457 H   0  0  0  0  0  0
  -27.3988  -12.5987   17.7740 H   0  0  0  0  0  0
  -27.6740  -14.2466   19.5121 H   0  0  0  0  0  0
  -28.6763  -12.0386   21.3728 H   0  0  0  0  0  0
  -28.4414  -13.7067   21.8294 H   0  0  0  0  0  0
  -25.2767   -9.5663   22.4733 H   0  0  0  0  0  0
  -23.9991   -7.4627   22.7470 H   0  0  0  0  0  0
  -21.0831   -8.8749   19.8955 H   0  0  0  0  0  0
  -22.3685  -10.9642   19.6148 H   0  0  0  0  0  0
  -21.1985   -7.6138   23.9777 H   0  0  0  0  0  0
  -21.1510   -6.0492   25.9117 H   0  0  0  0  0  0
  -22.0574   -2.7608   23.2844 H   0  0  0  0  0  0
  -22.4032  -11.9866   22.4758 H   0  0  0  0  0  0
  -21.1108  -13.1312   22.2687 H   0  0  0  0  0  0
  -24.6570  -15.8395   20.5477 H   0  0  0  0  0  0
  -26.2706  -15.6323   20.0822 H   0  0  0  0  0  0
  -26.7168  -32.5494   23.1163 H   0  0  0  0  0  0
  -25.0088  -33.9760   25.0471 H   0  0  0  0  0  0
  -22.6978  -31.3118   21.4243 H   0  0  0  0  0  0
  -23.3752  -35.9652   23.3298 H   0  0  0  0  0  0
  -24.3556  -36.8934   22.2043 H   0  0  0  0  0  0
  -23.7182  -37.6519   23.6636 H   0  0  0  0  0  0
  -26.0634  -31.5779   20.6063 H   0  0  0  0  0  0
  -26.8292  -30.8620   21.9973 H   0  0  0  0  0  0
  -28.0948  -29.0551   21.1744 H   0  0  0  0  0  0
  -25.9599  -25.9412   19.0447 H   0  0  0  0  0  0
  -23.9592  -27.2997   19.0478 H   0  0  0  0  0  0
  -23.7580  -30.6195   19.4229 H   0  0  0  0  0  0
  -22.7383  -29.2781   19.8517 H   0  0  0  0  0  0
  -25.1258  -36.2023   25.0837 H   0  0  0  0  0  0
  -20.9913  -28.3333   24.1489 H   0  0  0  0  0  0
  -20.5599  -26.2318   23.3731 H   0  0  0  0  0  0
  -21.6675  -26.7405   22.1388 H   0  0  0  0  0  0
  -19.6991  -25.6320   21.1266 H   0  0  0  0  0  0
  -19.6840  -27.3231   20.6789 H   0  0  0  0  0  0
  -18.0210  -26.0059   22.8849 H   0  0  0  0  0  0
  -17.4274  -26.6821   21.3864 H   0  0  0  0  0  0
  -19.7883  -30.7313   24.2313 H   0  0  0  0  0  0
  -17.4942  -31.6238   24.5240 H   0  0  0  0  0  0
  -15.5321  -30.2973   23.7631 H   0  0  0  0  0  0
  -15.8685  -28.0861   22.6939 H   0  0  0  0  0  0
  -24.5901  -30.7084   25.7816 H   0  0  0  0  0  0
  -24.8862  -32.2918   26.4900 H   0  0  0  0  0  0
  -25.8031  -30.8949   27.0272 H   0  0  0  0  0  0
  -26.2829  -29.6861   24.1159 H   0  0  0  0  0  0
  -27.3977  -29.7275   25.4623 H   0  0  0  0  0  0
  -27.8707  -30.4377   23.9359 H   0  0  0  0  0  0
  -27.2729  -33.3652   26.2087 H   0  0  0  0  0  0
  -28.3845  -32.6888   25.0282 H   0  0  0  0  0  0
  -28.0772  -31.8450   26.5364 H   0  0  0  0  0  0
  -28.2612  -38.0092   24.7518 H   0  0  0  0  0  0
  -28.1046  -36.2626   24.6274 H   0  0  0  0  0  0
  -27.2283  -37.1464   25.8850 H   0  0  0  0  0  0
  -20.9356  -29.8881   21.7054 H   0  0  0  0  0  0
  -26.0189  -38.2909   24.1444 H   0  0  0  0  0  0
  -30.0925  -20.5674   18.5549 H   0  0  0  0  0  0
  -30.1673  -18.5775   17.1335 H   0  0  0  0  0  0
  -29.7800  -18.0610   22.0569 H   0  0  0  0  0  0
  -29.0934  -15.3712   18.0231 H   0  0  0  0  0  0
  -30.8612  -15.3998   17.7962 H   0  0  0  0  0  0
  -29.8108  -16.3477   16.7620 H   0  0  0  0  0  0
  -26.5842  -23.2635   18.8805 H   0  0  0  0  0  0
  -26.1366  -22.8909   20.5435 H   0  0  0  0  0  0
  -26.5415  -21.6024   19.4244 H   0  0  0  0  0  0
  -30.7004  -21.4168   20.9088 H   0  0  0  0  0  0
  -30.1315  -20.4996   22.2636 H   0  0  0  0  0  0
  -27.7369  -25.1189   18.8067 H   0  0  0  0  0  0
  -29.4381  -25.2927   19.0025 H   0  0  0  0  0  0
  -28.4521  -22.0184   22.2388 H   0  0  0  0  0  0
  -27.7273  -20.8464   21.2335 H   0  0  0  0  0  0
  -28.9117  -22.5145   19.3043 H   0  0  0  0  0  0
  -29.0366  -15.4632   21.2937 H   0  0  0  0  0  0
  1 25  1  0  0  0
  1 30  2  0  0  0
  1 84  1  0  0  0
  2  3  1  0  0  0
  2 25  1  0  0  0
  2 86  1  0  0  0
  2 87  1  0  0  0
  3  4  1  0  0  0
  3 88  1  0  0  0
  3 89  1  0  0  0
  4  5  1  0  0  0
  4 90  1  0  0  0
  4 91  1  0  0  0
  5  6  1  0  0  0
  5 26  1  0  0  0
  5 92  1  0  0  0
  6 25  1  0  0  0
  6 93  1  0  0  0
  6 94  1  0  0  0
  7  8  2  0  0  0
  7 26  1  0  0  0
  7 29  1  0  0  0
  8  9  1  0  0  0
  8 22  1  0  0  0
  9 10  1  0  0  0
  9 27  2  0  0  0
 10 11  2  0  0  0
 10 15  1  0  0  0
 11 12  1  0  0  0
 11 95  1  0  0  0
 12 13  2  0  0  0
 12 96  1  0  0  0
 13 14  1  0  0  0
 13 31  1  0  0  0
 14 15  2  0  0  0
 14 97  1  0  0  0
 15 98  1  0  0  0
 16 17  2  0  0  0
 16 21  1  0  0  0
 16 31  1  0  0  0
 17 18  1  0  0  0
 17 99  1  0  0  0
 18 19  2  0  0  0
 18100  1  0  0  0
 19 20  1  0  0  0
 19 24  1  0  0  0
 20 21  2  0  0  0
 20101  1  0  0  0
 21 23  1  0  0  0
 22 28  1  0  0  0
 22 32  2  0  0  0
 26 27  1  0  0  0
 28102  1  0  0  0
 28103  1  0  0  0
 29104  1  0  0  0
 29105  1  0  0  0
 33 34  1  0  0  0
 33 66  1  0  0  0
 33 70  2  0  0  0
 34 36  1  0  0  0
 34 59  1  0  0  0
 34106  1  0  0  0
 35 44  2  0  0  0
 35 45  1  0  0  0
 35 68  1  0  0  0
 36 56  1  0  0  0
 36107  1  0  0  0
 37 39  1  0  0  0
 37 47  1  0  0  0
 37 66  1  0  0  0
 37108  1  0  0  0
 38 43  2  0  0  0
 38 46  1  0  0  0
 38 47  1  0  0  0
 39 64  1  0  0  0
 39 67  2  0  0  0
 40 52  1  0  0  0
 40 53  2  0  0  0
 40 58  1  0  0  0
 41109  1  0  0  0
 41110  1  0  0  0
 41111  1  0  0  0
 41 48  1  0  0  0
 42 43  1  0  0  0
 42 66  1  0  0  0
 42112  1  0  0  0
 42113  1  0  0  0
 43 44  1  0  0  0
 44114  1  0  0  0
 45 46  2  0  0  0
 45115  1  0  0  0
 46116  1  0  0  0
 47117  1  0  0  0
 47118  1  0  0  0
 48 56  1  0  0  0
 48 65  1  0  0  0
 48119  1  0  0  0
 49 50  1  0  0  0
 49 53  1  0  0  0
 49 64  1  0  0  0
 49120  1  0  0  0
 50 51  1  0  0  0
 50121  1  0  0  0
 50122  1  0  0  0
 51 52  1  0  0  0
 51123  1  0  0  0
 51124  1  0  0  0
 52125  1  0  0  0
 52126  1  0  0  0
 53 54  1  0  0  0
 54 55  2  0  0  0
 54127  1  0  0  0
 55 57  1  0  0  0
 55128  1  0  0  0
 56 69  2  0  0  0
 57 58  2  0  0  0
 57129  1  0  0  0
 58130  1  0  0  0
 59 60  1  0  0  0
 59 61  1  0  0  0
 59 62  1  0  0  0
 60131  1  0  0  0
 60132  1  0  0  0
 60133  1  0  0  0
 61134  1  0  0  0
 61135  1  0  0  0
 61136  1  0  0  0
 62137  1  0  0  0
 62138  1  0  0  0
 62139  1  0  0  0
 63 65  1  0  0  0
 63140  1  0  0  0
 63141  1  0  0  0
 63142  1  0  0  0
 64143  1  0  0  0
 65144  1  0  0  0
 68 81  1  0  0  0
 71 72  2  0  0  0
 71 74  1  0  0  0
 71145  1  0  0  0
 72 75  1  0  0  0
 72146  1  0  0  0
 73 74  2  0  0  0
 73 76  1  0  0  0
 73147  1  0  0  0
 74 80  1  0  0  0
 75 76  2  0  0  0
 75 78  1  0  0  0
 76 84  1  0  0  0
 77 81  1  0  0  0
 77 83  1  0  0  0
 77 85  2  0  0  0
 78148  1  0  0  0
 78149  1  0  0  0
 78150  1  0  0  0
 79151  1  0  0  0
 79152  1  0  0  0
 79153  1  0  0  0
 79 83  1  0  0  0
 80 82  1  0  0  0
 80154  1  0  0  0
 80155  1  0  0  0
 81156  1  0  0  0
 81157  1  0  0  0
 82 83  1  0  0  0
 82158  1  0  0  0
 82159  1  0  0  0
 83160  1  0  0  0
 84161  1  0  0  0
M  ISO  4   1 100  68 101  81 101  84 100
M  END
> <chiral flag>
0

> <version>
0

> <s_m_source_file>
/data/baiqing/PycharmProjects/Reinvent-master-3.2/result/LINK_invent/BTK/process_docking_weight1_custom_product_contain_oxygen_bond_distance_aromatic_linkinvent_7_9_3/rearranged_h_0134.sdf

> <i_m_source_file_index>
46

> <r_mmod_Potential_Energy-OPLS-2005>
43.6456184387207

> <r_mmod_Stretch_Energy-OPLS-2005>
56.8302001953125

> <r_mmod_Bend_Energy-OPLS-2005>
122.826095581055

> <r_mmod_Torsional_Energy-OPLS-2005>
249.706390380859

> <r_mmod_Improper_Torsional_Energy-OPLS-2005>
5.38294363021851

> <r_mmod_Van_der_Waal_Energy-OPLS-2005>
148.737380981445

> <r_mmod_Electrostatic_Energy-OPLS-2005>
-344.398681640625

> <r_mmod_Solvation_Energy-OPLS-2005>
-224.942321777344

> <b_mmod_Minimization_Converged-OPLS-2005>
0

> <r_mmod_RMS_Derivative-OPLS-2005>
3.4662230014801

$$$$
46
                    3D
 Structure written by MMmdl.
170178  0  0  1  0            999 V2000
  -30.6221  -14.6080   20.4862 C   0  0  0  0  0  0
  -30.4425  -12.3471   19.4697 C   0  0  0  0  0  0
  -29.5251  -12.4106   18.2242 C   0  0  0  0  0  0
  -28.0353  -12.3242   18.6221 C   0  0  0  0  0  0
  -27.6580  -13.2072   19.8485 C   0  0  2  0  0  0
  -28.6950  -13.0581   20.9843 C   0  0  0  0  0  0
  -25.2615  -13.8135   20.5644 C   0  0  0  0  0  0
  -24.1870  -13.0414   20.9147 C   0  0  0  0  0  0
  -24.6421  -11.6873   20.8718 C   0  0  0  0  0  0
  -23.9085  -10.4251   21.0385 C   0  0  0  0  0  0
  -24.3637   -9.4168   21.9173 C   0  0  0  0  0  0
  -23.6289   -8.2219   22.0783 C   0  0  0  0  0  0
  -22.4272   -8.0258   21.3553 C   0  0  0  0  0  0
  -21.9901   -9.0233   20.4676 C   0  0  0  0  0  0
  -22.7244  -10.2095   20.3038 C   0  0  0  0  0  0
  -21.6830   -6.0711   22.5249 C   0  0  0  0  0  0
  -21.4016   -6.5620   23.8181 C   0  0  0  0  0  0
  -21.3658   -5.6787   24.9151 C   0  0  0  0  0  0
  -21.6030   -4.3043   24.7218 C   0  0  0  0  0  0
  -21.8826   -3.8125   23.4351 C   0  0  0  0  0  0
  -21.9200   -4.6932   22.3394 C   0  0  0  0  0  0
  -22.7888  -13.5228   21.1779 C   0  0  0  0  0  0
  -22.1639   -4.2105   21.0979 F   0  0  0  0  0  0
  -21.5644   -3.4543   25.7746 F   0  0  0  0  0  0
  -30.0146  -13.3850   20.4275 N   0  0  0  0  0  0
  -26.3023  -12.9302   20.3231 N   0  0  0  0  0  0
  -25.9353  -11.6463   20.5741 N   0  0  0  0  0  0
  -22.0499  -12.8277   22.0350 N   0  0  0  0  0  0
  -25.4306  -15.1872   20.4116 N   0  0  0  0  0  0
  -31.7905  -14.7700   20.1217 O   0  0  0  0  0  0
  -21.6631   -6.8862   21.4221 O   0  0  0  0  0  0
  -22.3568  -14.5514   20.6576 O   0  0  0  0  0  0
  -24.6218  -31.8656   23.2084 C   0  0  0  0  0  0
  -25.9101  -32.4800   23.8373 C   0  0  1  0  0  0
  -27.2083  -27.3794   20.1121 C   0  0  0  0  0  0
  -25.5910  -33.8602   24.2292 N   0  0  0  0  0  0
  -23.4072  -30.4944   21.5516 C   0  0  2  0  0  0
  -24.8445  -28.9529   20.1133 C   0  0  0  0  0  0
  -22.7444  -29.4666   22.4976 C   0  0  0  0  0  0
  -18.0279  -28.1385   22.8497 C   0  0  0  0  0  0
  -24.1475  -36.7327   23.2635 C   0  0  0  0  0  0
  -25.9414  -30.8162   21.3637 C   0  0  0  0  0  0
  -26.0117  -29.4465   20.7110 C   0  0  0  0  0  0
  -27.1990  -28.6712   20.6978 C   0  0  0  0  0  0
  -26.0259  -26.9145   19.4962 C   0  0  0  0  0  0
  -24.8490  -27.6887   19.5010 C   0  0  0  0  0  0
  -23.6135  -29.8338   20.1629 C   0  0  0  0  0  0
  -25.4098  -36.3113   24.0331 C   0  0  1  0  0  0
  -20.5883  -28.3681   23.1314 C   0  0  2  0  0  0
  -20.6766  -26.9412   22.5426 C   0  0  0  0  0  0
  -19.5732  -26.6383   21.5243 C   0  0  0  0  0  0
  -18.1917  -26.7931   22.1645 C   0  0  0  0  0  0
  -19.1541  -28.8849   23.2897 C   0  0  0  0  0  0
  -18.9457  -30.1455   23.8905 C   0  0  0  0  0  0
  -17.6462  -30.6591   24.0586 C   0  0  0  0  0  0
  -25.9041  -34.9474   23.5129 C   0  0  0  0  0  0
  -16.5346  -29.9109   23.6324 C   0  0  0  0  0  0
  -16.7269  -28.6527   23.0336 C   0  0  0  0  0  0
  -26.4484  -31.6598   25.0736 C   0  0  0  0  0  0
  -25.3716  -31.3751   26.1475 C   0  0  0  0  0  0
  -27.0298  -30.3016   24.6149 C   0  0  0  0  0  0
  -27.6033  -32.4332   25.7523 C   0  0  0  0  0  0
  -27.5586  -37.1815   24.8453 C   0  0  0  0  0  0
  -21.4164  -29.3061   22.3719 N   0  0  0  0  0  0
  -26.4274  -37.3819   23.9428 N   0  0  0  0  0  0
  -24.6765  -31.0737   22.0986 N   0  0  0  0  0  0
  -23.4211  -28.8195   23.3012 O   0  0  0  0  0  0
  -28.3524  -26.5955   20.1079 O   0  0  0  0  0  0
  -26.5627  -34.8941   22.4699 O   0  0  0  0  0  0
  -23.5407  -32.1417   23.7466 O   0  0  0  0  0  0
  -29.3648  -18.1188   21.0484 C   0  0  0  0  0  0
  -29.2754  -19.6398   19.1630 C   0  0  0  0  0  0
  -29.7707  -17.2702   18.7923 C   0  0  0  0  0  0
  -29.7109  -17.0110   20.2009 C   0  0  0  0  0  0
  -29.1530  -19.4469   20.5466 C   0  0  0  0  0  0
  -29.5266  -18.5702   18.2845 C   0  0  0  0  0  0
  -31.3571  -16.1746   17.0935 C   0  0  0  0  0  0
  -28.1860  -19.3732   14.9813 C   0  0  0  0  0  0
  -30.5567  -24.9079   19.5774 C   0  0  0  0  0  0
  -29.9666  -16.1795   17.7480 C   0  0  0  0  0  0
  -29.5118  -22.8554   20.6250 C   0  0  0  0  0  0
  -28.5253  -19.6903   16.4386 C   0  0  0  0  0  0
  -28.3762  -21.8060   20.8434 C   0  0  0  0  0  0
  -28.2364  -25.2161   20.5725 C   0  0  0  0  0  0
  -29.2115  -24.2103   19.8675 C   0  0  1  0  0  0
  -29.8012  -15.6629   20.7802 N   0  0  0  0  0  0
  -28.8224  -20.5181   21.3875 O   0  0  0  0  0  0
  -29.5018  -18.7667   16.9185 O   0  0  0  0  0  0
  -31.4903  -12.4503   19.1865 H   0  0  0  0  0  0
  -30.3634  -11.3668   19.9398 H   0  0  0  0  0  0
  -29.7756  -11.5908   17.5488 H   0  0  0  0  0  0
  -29.7185  -13.2968   17.6316 H   0  0  0  0  0  0
  -27.8480  -11.2780   18.8610 H   0  0  0  0  0  0
  -27.3995  -12.5545   17.7640 H   0  0  0  0  0  0
  -27.6774  -14.2419   19.5087 H   0  0  0  0  0  0
  -28.6999  -12.0364   21.3673 H   0  0  0  0  0  0
  -28.4432  -13.6992   21.8311 H   0  0  0  0  0  0
  -25.2794   -9.5615   22.4746 H   0  0  0  0  0  0
  -23.9941   -7.4642   22.7563 H   0  0  0  0  0  0
  -21.0781   -8.8754   19.9057 H   0  0  0  0  0  0
  -22.3685  -10.9623   19.6143 H   0  0  0  0  0  0
  -21.1980   -7.6120   23.9645 H   0  0  0  0  0  0
  -21.1485   -6.0542   25.9052 H   0  0  0  0  0  0
  -22.0625   -2.7588   23.2859 H   0  0  0  0  0  0
  -22.4083  -11.9988   22.4837 H   0  0  0  0  0  0
  -21.1103  -13.1334   22.2445 H   0  0  0  0  0  0
  -24.6614  -15.8408   20.5172 H   0  0  0  0  0  0
  -26.2825  -15.6378   20.1017 H   0  0  0  0  0  0
  -26.7176  -32.5491   23.1133 H   0  0  0  0  0  0
  -24.9996  -33.9739   25.0397 H   0  0  0  0  0  0
  -22.6989  -31.3154   21.4181 H   0  0  0  0  0  0
  -23.3741  -35.9658   23.3266 H   0  0  0  0  0  0
  -24.3574  -36.8983   22.2058 H   0  0  0  0  0  0
  -23.7216  -37.6515   23.6671 H   0  0  0  0  0  0
  -26.0615  -31.5812   20.5946 H   0  0  0  0  0  0
  -26.8288  -30.8669   21.9832 H   0  0  0  0  0  0
  -28.1023  -29.0472   21.1565 H   0  0  0  0  0  0
  -26.0041  -25.9542   19.0009 H   0  0  0  0  0  0
  -23.9536  -27.3090   19.0303 H   0  0  0  0  0  0
  -23.7304  -30.6158   19.4111 H   0  0  0  0  0  0
  -22.7285  -29.2698   19.8618 H   0  0  0  0  0  0
  -25.1272  -36.1963   25.0823 H   0  0  0  0  0  0
  -20.9974  -28.3254   24.1440 H   0  0  0  0  0  0
  -20.5700  -26.2300   23.3625 H   0  0  0  0  0  0
  -21.6626  -26.7461   22.1203 H   0  0  0  0  0  0
  -19.6886  -25.6303   21.1266 H   0  0  0  0  0  0
  -19.6666  -27.3208   20.6781 H   0  0  0  0  0  0
  -17.4197  -26.6709   21.4038 H   0  0  0  0  0  0
  -18.0276  -26.0075   22.9026 H   0  0  0  0  0  0
  -19.7936  -30.7276   24.2271 H   0  0  0  0  0  0
  -17.5017  -31.6284   24.5178 H   0  0  0  0  0  0
  -15.5349  -30.3022   23.7626 H   0  0  0  0  0  0
  -15.8663  -28.0864   22.7013 H   0  0  0  0  0  0
  -24.5843  -30.7148   25.7823 H   0  0  0  0  0  0
  -24.8967  -32.2931   26.4945 H   0  0  0  0  0  0
  -25.8039  -30.8891   27.0228 H   0  0  0  0  0  0
  -26.2860  -29.6814   24.1122 H   0  0  0  0  0  0
  -27.3939  -29.7231   25.4652 H   0  0  0  0  0  0
  -27.8761  -30.4302   23.9393 H   0  0  0  0  0  0
  -27.2600  -33.3595   26.2145 H   0  0  0  0  0  0
  -28.3832  -32.6953   25.0361 H   0  0  0  0  0  0
  -28.0704  -31.8428   26.5416 H   0  0  0  0  0  0
  -28.2573  -38.0143   24.7553 H   0  0  0  0  0  0
  -28.1103  -36.2682   24.6187 H   0  0  0  0  0  0
  -27.2318  -37.1365   25.8855 H   0  0  0  0  0  0
  -20.9315  -29.8807   21.6960 H   0  0  0  0  0  0
  -26.0153  -38.2885   24.1465 H   0  0  0  0  0  0
  -29.2481  -17.9403   22.1075 H   0  0  0  0  0  0
  -29.1608  -20.6263   18.7485 H   0  0  0  0  0  0
  -31.4715  -15.3037   16.4466 H   0  0  0  0  0  0
  -32.1606  -16.1517   17.8284 H   0  0  0  0  0  0
  -31.5012  -17.0618   16.4777 H   0  0  0  0  0  0
  -27.3877  -20.0298   14.6297 H   0  0  0  0  0  0
  -27.8377  -18.3449   14.8711 H   0  0  0  0  0  0
  -29.0493  -19.5066   14.3277 H   0  0  0  0  0  0
  -31.2222  -24.2674   18.9964 H   0  0  0  0  0  0
  -31.0685  -25.1730   20.5052 H   0  0  0  0  0  0
  -30.4325  -25.8226   18.9960 H   0  0  0  0  0  0
  -29.2132  -16.2895   16.9679 H   0  0  0  0  0  0
  -29.7338  -15.2277   18.1828 H   0  0  0  0  0  0
  -30.3016  -22.3476   20.0691 H   0  0  0  0  0  0
  -29.9531  -23.0893   21.5934 H   0  0  0  0  0  0
  -27.6108  -19.6149   17.0295 H   0  0  0  0  0  0
  -28.8892  -20.7149   16.5290 H   0  0  0  0  0  0
  -27.7859  -21.6858   19.9337 H   0  0  0  0  0  0
  -27.6692  -22.2310   21.5589 H   0  0  0  0  0  0
  -28.4472  -25.2230   21.6421 H   0  0  0  0  0  0
  -27.2228  -24.8235   20.4904 H   0  0  0  0  0  0
  -28.7758  -23.9621   18.8970 H   0  0  0  0  0  0
  -28.9765  -15.3761   21.2838 H   0  0  0  0  0  0
  1 25  1  0  0  0
  1 30  2  0  0  0
  1 86  1  0  0  0
  2  3  1  0  0  0
  2 25  1  0  0  0
  2 89  1  0  0  0
  2 90  1  0  0  0
  3  4  1  0  0  0
  3 91  1  0  0  0
  3 92  1  0  0  0
  4  5  1  0  0  0
  4 93  1  0  0  0
  4 94  1  0  0  0
  5  6  1  0  0  0
  5 26  1  0  0  0
  5 95  1  0  0  0
  6 25  1  0  0  0
  6 96  1  0  0  0
  6 97  1  0  0  0
  7  8  2  0  0  0
  7 26  1  0  0  0
  7 29  1  0  0  0
  8  9  1  0  0  0
  8 22  1  0  0  0
  9 10  1  0  0  0
  9 27  2  0  0  0
 10 11  2  0  0  0
 10 15  1  0  0  0
 11 12  1  0  0  0
 11 98  1  0  0  0
 12 13  2  0  0  0
 12 99  1  0  0  0
 13 14  1  0  0  0
 13 31  1  0  0  0
 14 15  2  0  0  0
 14100  1  0  0  0
 15101  1  0  0  0
 16 17  2  0  0  0
 16 21  1  0  0  0
 16 31  1  0  0  0
 17 18  1  0  0  0
 17102  1  0  0  0
 18 19  2  0  0  0
 18103  1  0  0  0
 19 20  1  0  0  0
 19 24  1  0  0  0
 20 21  2  0  0  0
 20104  1  0  0  0
 21 23  1  0  0  0
 22 28  1  0  0  0
 22 32  2  0  0  0
 26 27  1  0  0  0
 28105  1  0  0  0
 28106  1  0  0  0
 29107  1  0  0  0
 29108  1  0  0  0
 33 34  1  0  0  0
 33 66  1  0  0  0
 33 70  2  0  0  0
 34 36  1  0  0  0
 34 59  1  0  0  0
 34109  1  0  0  0
 35 44  2  0  0  0
 35 45  1  0  0  0
 35 68  1  0  0  0
 36 56  1  0  0  0
 36110  1  0  0  0
 37 39  1  0  0  0
 37 47  1  0  0  0
 37 66  1  0  0  0
 37111  1  0  0  0
 38 43  2  0  0  0
 38 46  1  0  0  0
 38 47  1  0  0  0
 39 64  1  0  0  0
 39 67  2  0  0  0
 40 52  1  0  0  0
 40 53  2  0  0  0
 40 58  1  0  0  0
 41112  1  0  0  0
 41113  1  0  0  0
 41114  1  0  0  0
 41 48  1  0  0  0
 42 43  1  0  0  0
 42 66  1  0  0  0
 42115  1  0  0  0
 42116  1  0  0  0
 43 44  1  0  0  0
 44117  1  0  0  0
 45 46  2  0  0  0
 45118  1  0  0  0
 46119  1  0  0  0
 47120  1  0  0  0
 47121  1  0  0  0
 48 56  1  0  0  0
 48 65  1  0  0  0
 48122  1  0  0  0
 49 50  1  0  0  0
 49 53  1  0  0  0
 49 64  1  0  0  0
 49123  1  0  0  0
 50 51  1  0  0  0
 50124  1  0  0  0
 50125  1  0  0  0
 51 52  1  0  0  0
 51126  1  0  0  0
 51127  1  0  0  0
 52128  1  0  0  0
 52129  1  0  0  0
 53 54  1  0  0  0
 54 55  2  0  0  0
 54130  1  0  0  0
 55 57  1  0  0  0
 55131  1  0  0  0
 56 69  2  0  0  0
 57 58  2  0  0  0
 57132  1  0  0  0
 58133  1  0  0  0
 59 60  1  0  0  0
 59 61  1  0  0  0
 59 62  1  0  0  0
 60134  1  0  0  0
 60135  1  0  0  0
 60136  1  0  0  0
 61137  1  0  0  0
 61138  1  0  0  0
 61139  1  0  0  0
 62140  1  0  0  0
 62141  1  0  0  0
 62142  1  0  0  0
 63 65  1  0  0  0
 63143  1  0  0  0
 63144  1  0  0  0
 63145  1  0  0  0
 64146  1  0  0  0
 65147  1  0  0  0
 68 84  1  0  0  0
 71 74  2  0  0  0
 71 75  1  0  0  0
 71148  1  0  0  0
 72 75  2  0  0  0
 72 76  1  0  0  0
 72149  1  0  0  0
 73 74  1  0  0  0
 73 76  2  0  0  0
 73 80  1  0  0  0
 74 86  1  0  0  0
 75 87  1  0  0  0
 76 88  1  0  0  0
 77 80  1  0  0  0
 77150  1  0  0  0
 77151  1  0  0  0
 77152  1  0  0  0
 78 82  1  0  0  0
 78153  1  0  0  0
 78154  1  0  0  0
 78155  1  0  0  0
 79156  1  0  0  0
 79157  1  0  0  0
 79158  1  0  0  0
 79 85  1  0  0  0
 80159  1  0  0  0
 80160  1  0  0  0
 81 83  1  0  0  0
 81 85  1  0  0  0
 81161  1  0  0  0
 81162  1  0  0  0
 82 88  1  0  0  0
 82163  1  0  0  0
 82164  1  0  0  0
 83 87  1  0  0  0
 83165  1  0  0  0
 83166  1  0  0  0
 84 85  1  0  0  0
 84167  1  0  0  0
 84168  1  0  0  0
 85169  1  0  0  0
 86170  1  0  0  0
M  ISO  4   1 100  68 101  84 101  86 100
M  END
> <chiral flag>
0

> <version>
0

> <s_m_source_file>
/data/baiqing/PycharmProjects/Reinvent-master-3.2/result/LINK_invent/BTK/process_docking_weight1_custom_product_contain_oxygen_bond_distance_aromatic_linkinvent_7_9_3/rearranged_h_0134.sdf

> <i_m_source_file_index>
47

> <r_mmod_Potential_Energy-OPLS-2005>
111.52027130127

> <r_mmod_Stretch_Energy-OPLS-2005>
68.3495407104492

> <r_mmod_Bend_Energy-OPLS-2005>
134.037536621094

> <r_mmod_Torsional_Energy-OPLS-2005>
277.992248535156

> <r_mmod_Improper_Torsional_Energy-OPLS-2005>
6.34850263595581

> <r_mmod_Van_der_Waal_Energy-OPLS-2005>
158.908752441406

> <r_mmod_Electrostatic_Energy-OPLS-2005>
-361.336975097656

> <r_mmod_Solvation_Energy-OPLS-2005>
-207.875762939453

> <b_mmod_Minimization_Converged-OPLS-2005>
0

> <r_mmod_RMS_Derivative-OPLS-2005>
4.54250955581665

$$$$
47
                    3D
 Structure written by MMmdl.
160168  0  0  1  0            999 V2000
  -30.6752  -14.5395   20.5067 C   0  0  0  0  0  0
  -30.4275  -12.3245   19.4563 C   0  0  0  0  0  0
  -29.5075  -12.4957   18.2276 C   0  0  0  0  0  0
  -28.0276  -12.3538   18.6343 C   0  0  0  0  0  0
  -27.6615  -13.2115   19.8752 C   0  0  2  0  0  0
  -28.7027  -13.0358   21.0068 C   0  0  0  0  0  0
  -25.2584  -13.8165   20.5683 C   0  0  0  0  0  0
  -24.1840  -13.0434   20.9182 C   0  0  0  0  0  0
  -24.6403  -11.6905   20.8732 C   0  0  0  0  0  0
  -23.9068  -10.4290   21.0404 C   0  0  0  0  0  0
  -24.3617   -9.4205   21.9184 C   0  0  0  0  0  0
  -23.6292   -8.2242   22.0758 C   0  0  0  0  0  0
  -22.4276   -8.0282   21.3547 C   0  0  0  0  0  0
  -21.9911   -9.0256   20.4648 C   0  0  0  0  0  0
  -22.7239  -10.2136   20.3058 C   0  0  0  0  0  0
  -21.6854   -6.0733   22.5283 C   0  0  0  0  0  0
  -21.4010   -6.5638   23.8214 C   0  0  0  0  0  0
  -21.3659   -5.6793   24.9176 C   0  0  0  0  0  0
  -21.6045   -4.3056   24.7229 C   0  0  0  0  0  0
  -21.8815   -3.8144   23.4350 C   0  0  0  0  0  0
  -21.9195   -4.6959   22.3405 C   0  0  0  0  0  0
  -22.7859  -13.5233   21.1839 C   0  0  0  0  0  0
  -22.1662   -4.2144   21.0980 F   0  0  0  0  0  0
  -21.5636   -3.4540   25.7740 F   0  0  0  0  0  0
  -30.0342  -13.3357   20.4555 N   0  0  0  0  0  0
  -26.3027  -12.9347   20.3365 N   0  0  0  0  0  0
  -25.9336  -11.6504   20.5773 N   0  0  0  0  0  0
  -22.0501  -12.8227   22.0399 N   0  0  0  0  0  0
  -25.4298  -15.1883   20.4088 N   0  0  0  0  0  0
  -31.8097  -14.6930   20.0570 O   0  0  0  0  0  0
  -21.6640   -6.8879   21.4246 O   0  0  0  0  0  0
  -22.3544  -14.5541   20.6697 O   0  0  0  0  0  0
  -24.6188  -31.8661   23.2102 C   0  0  0  0  0  0
  -25.9071  -32.4809   23.8395 C   0  0  1  0  0  0
  -27.2245  -27.3843   20.1023 C   0  0  0  0  0  0
  -25.5918  -33.8607   24.2322 N   0  0  0  0  0  0
  -23.4082  -30.4922   21.5521 C   0  0  2  0  0  0
  -24.8529  -28.9606   20.1111 C   0  0  0  0  0  0
  -22.7434  -29.4656   22.4983 C   0  0  0  0  0  0
  -18.0277  -28.1370   22.8490 C   0  0  0  0  0  0
  -24.1491  -36.7305   23.2637 C   0  0  0  0  0  0
  -25.9439  -30.8152   21.3742 C   0  0  0  0  0  0
  -26.0169  -29.4487   20.7166 C   0  0  0  0  0  0
  -27.2029  -28.6678   20.7115 C   0  0  0  0  0  0
  -26.0419  -26.9455   19.4576 C   0  0  0  0  0  0
  -24.8633  -27.7100   19.4771 C   0  0  0  0  0  0
  -23.6174  -29.8309   20.1649 C   0  0  0  0  0  0
  -25.4114  -36.3101   24.0333 C   0  0  1  0  0  0
  -20.5869  -28.3663   23.1308 C   0  0  2  0  0  0
  -20.6767  -26.9397   22.5410 C   0  0  0  0  0  0
  -19.5741  -26.6378   21.5209 C   0  0  0  0  0  0
  -18.1924  -26.7913   22.1624 C   0  0  0  0  0  0
  -19.1527  -28.8833   23.2893 C   0  0  0  0  0  0
  -18.9451  -30.1437   23.8905 C   0  0  0  0  0  0
  -17.6455  -30.6577   24.0556 C   0  0  0  0  0  0
  -25.9044  -34.9466   23.5122 C   0  0  0  0  0  0
  -16.5346  -29.9076   23.6327 C   0  0  0  0  0  0
  -16.7265  -28.6490   23.0354 C   0  0  0  0  0  0
  -26.4477  -31.6592   25.0737 C   0  0  0  0  0  0
  -25.3729  -31.3719   26.1476 C   0  0  0  0  0  0
  -27.0305  -30.3021   24.6149 C   0  0  0  0  0  0
  -27.6051  -32.4307   25.7506 C   0  0  0  0  0  0
  -27.5582  -37.1809   24.8465 C   0  0  0  0  0  0
  -21.4158  -29.3033   22.3717 N   0  0  0  0  0  0
  -26.4299  -37.3785   23.9405 N   0  0  0  0  0  0
  -24.6754  -31.0731   22.1026 N   0  0  0  0  0  0
  -23.4194  -28.8194   23.3032 O   0  0  0  0  0  0
  -28.3677  -26.5889   20.1662 O   0  0  0  0  0  0
  -26.5599  -34.8916   22.4681 O   0  0  0  0  0  0
  -23.5371  -32.1424   23.7479 O   0  0  0  0  0  0
  -31.9787  -19.7042   19.2680 C   0  0  0  0  0  0
  -31.2781  -20.7841   19.8303 C   0  0  0  0  0  0
  -29.5902  -19.2294   20.6362 C   0  0  0  0  0  0
  -31.4776  -18.3863   19.3400 C   0  0  0  0  0  0
  -30.2665  -18.1198   20.0396 C   0  0  0  0  0  0
  -30.0635  -20.5681   20.5058 C   0  0  0  0  0  0
  -32.2621  -17.3174   18.5986 C   0  0  0  0  0  0
  -28.8854  -24.2881   22.1774 C   0  0  0  0  0  0
  -29.5668  -16.7329   19.9691 C   0  0  0  0  0  0
  -28.2268  -25.1651   19.8880 C   0  0  0  0  0  0
  -28.9681  -22.7043   20.1549 C   0  0  0  0  0  0
  -29.1563  -24.1785   20.6672 C   0  0  2  0  0  0
  -29.9152  -15.6000   20.8670 N   0  0  0  0  0  0
  -29.3774  -21.6432   21.0523 O   0  0  0  0  0  0
  -31.4744  -12.4127   19.1608 H   0  0  0  0  0  0
  -30.3250  -11.3226   19.8761 H   0  0  0  0  0  0
  -29.7562  -11.7549   17.4664 H   0  0  0  0  0  0
  -29.6742  -13.4723   17.7703 H   0  0  0  0  0  0
  -27.8459  -11.2998   18.8478 H   0  0  0  0  0  0
  -27.3793  -12.6080   17.7951 H   0  0  0  0  0  0
  -27.6926  -14.2515   19.5516 H   0  0  0  0  0  0
  -28.6825  -12.0138   21.3868 H   0  0  0  0  0  0
  -28.4636  -13.6710   21.8605 H   0  0  0  0  0  0
  -25.2766   -9.5678   22.4751 H   0  0  0  0  0  0
  -24.0005   -7.4627   22.7471 H   0  0  0  0  0  0
  -21.0845   -8.8767   19.8946 H   0  0  0  0  0  0
  -22.3701  -10.9668   19.6159 H   0  0  0  0  0  0
  -21.1995   -7.6146   23.9717 H   0  0  0  0  0  0
  -21.1489   -6.0522   25.9079 H   0  0  0  0  0  0
  -22.0597   -2.7607   23.2854 H   0  0  0  0  0  0
  -22.4123  -11.9895   22.4789 H   0  0  0  0  0  0
  -21.1117  -13.1247   22.2597 H   0  0  0  0  0  0
  -24.6613  -15.8417   20.5155 H   0  0  0  0  0  0
  -26.2789  -15.6275   20.0781 H   0  0  0  0  0  0
  -26.7147  -32.5500   23.1160 H   0  0  0  0  0  0
  -25.0081  -33.9760   25.0473 H   0  0  0  0  0  0
  -22.6975  -31.3102   21.4153 H   0  0  0  0  0  0
  -23.3748  -35.9641   23.3306 H   0  0  0  0  0  0
  -24.3584  -36.8909   22.2049 H   0  0  0  0  0  0
  -23.7245  -37.6515   23.6642 H   0  0  0  0  0  0
  -26.0674  -31.5825   20.6081 H   0  0  0  0  0  0
  -26.8282  -30.8618   21.9985 H   0  0  0  0  0  0
  -28.0948  -29.0337   21.1997 H   0  0  0  0  0  0
  -25.9926  -26.0055   18.9293 H   0  0  0  0  0  0
  -23.9732  -27.3327   18.9928 H   0  0  0  0  0  0
  -23.7260  -30.6081   19.4071 H   0  0  0  0  0  0
  -22.7404  -29.2532   19.8678 H   0  0  0  0  0  0
  -25.1290  -36.1969   25.0826 H   0  0  0  0  0  0
  -20.9951  -28.3220   24.1432 H   0  0  0  0  0  0
  -20.5675  -26.2265   23.3594 H   0  0  0  0  0  0
  -21.6637  -26.7441   22.1198 H   0  0  0  0  0  0
  -19.6903  -25.6292   21.1234 H   0  0  0  0  0  0
  -19.6681  -27.3193   20.6742 H   0  0  0  0  0  0
  -17.4189  -26.6658   21.4031 H   0  0  0  0  0  0
  -18.0329  -26.0054   22.9019 H   0  0  0  0  0  0
  -19.7927  -30.7246   24.2286 H   0  0  0  0  0  0
  -17.5009  -31.6264   24.5141 H   0  0  0  0  0  0
  -15.5345  -30.2980   23.7643 H   0  0  0  0  0  0
  -15.8663  -28.0808   22.7077 H   0  0  0  0  0  0
  -24.5911  -30.7050   25.7823 H   0  0  0  0  0  0
  -24.8907  -32.2877   26.4905 H   0  0  0  0  0  0
  -25.8067  -30.8912   27.0252 H   0  0  0  0  0  0
  -26.2862  -29.6798   24.1167 H   0  0  0  0  0  0
  -27.4009  -29.7249   25.4632 H   0  0  0  0  0  0
  -27.8729  -30.4322   23.9351 H   0  0  0  0  0  0
  -27.2675  -33.3604   26.2098 H   0  0  0  0  0  0
  -28.3858  -32.6865   25.0331 H   0  0  0  0  0  0
  -28.0714  -31.8416   26.5412 H   0  0  0  0  0  0
  -28.2605  -38.0103   24.7504 H   0  0  0  0  0  0
  -28.1071  -36.2628   24.6300 H   0  0  0  0  0  0
  -27.2292  -37.1470   25.8868 H   0  0  0  0  0  0
  -20.9317  -29.8764   21.6947 H   0  0  0  0  0  0
  -26.0185  -38.2865   24.1398 H   0  0  0  0  0  0
  -32.9008  -19.9047   18.7395 H   0  0  0  0  0  0
  -31.6798  -21.7833   19.7369 H   0  0  0  0  0  0
  -28.6530  -19.0637   21.1477 H   0  0  0  0  0  0
  -32.8049  -17.7521   17.7583 H   0  0  0  0  0  0
  -31.6304  -16.5362   18.1815 H   0  0  0  0  0  0
  -32.9984  -16.8635   19.2621 H   0  0  0  0  0  0
  -29.0212  -25.3120   22.5272 H   0  0  0  0  0  0
  -29.5674  -23.6562   22.7473 H   0  0  0  0  0  0
  -27.8673  -23.9854   22.4228 H   0  0  0  0  0  0
  -29.5844  -16.3857   18.9355 H   0  0  0  0  0  0
  -28.5063  -16.9150   20.1472 H   0  0  0  0  0  0
  -27.2216  -24.8195   20.1266 H   0  0  0  0  0  0
  -28.3618  -25.0220   18.8152 H   0  0  0  0  0  0
  -29.4369  -22.6109   19.1738 H   0  0  0  0  0  0
  -27.9063  -22.5322   19.9769 H   0  0  0  0  0  0
  -30.1935  -24.4664   20.4930 H   0  0  0  0  0  0
  -29.1377  -15.3289   21.4502 H   0  0  0  0  0  0
  1 25  1  0  0  0
  1 30  2  0  0  0
  1 83  1  0  0  0
  2  3  1  0  0  0
  2 25  1  0  0  0
  2 85  1  0  0  0
  2 86  1  0  0  0
  3  4  1  0  0  0
  3 87  1  0  0  0
  3 88  1  0  0  0
  4  5  1  0  0  0
  4 89  1  0  0  0
  4 90  1  0  0  0
  5  6  1  0  0  0
  5 26  1  0  0  0
  5 91  1  0  0  0
  6 25  1  0  0  0
  6 92  1  0  0  0
  6 93  1  0  0  0
  7  8  2  0  0  0
  7 26  1  0  0  0
  7 29  1  0  0  0
  8  9  1  0  0  0
  8 22  1  0  0  0
  9 10  1  0  0  0
  9 27  2  0  0  0
 10 11  2  0  0  0
 10 15  1  0  0  0
 11 12  1  0  0  0
 11 94  1  0  0  0
 12 13  2  0  0  0
 12 95  1  0  0  0
 13 14  1  0  0  0
 13 31  1  0  0  0
 14 15  2  0  0  0
 14 96  1  0  0  0
 15 97  1  0  0  0
 16 17  2  0  0  0
 16 21  1  0  0  0
 16 31  1  0  0  0
 17 18  1  0  0  0
 17 98  1  0  0  0
 18 19  2  0  0  0
 18 99  1  0  0  0
 19 20  1  0  0  0
 19 24  1  0  0  0
 20 21  2  0  0  0
 20100  1  0  0  0
 21 23  1  0  0  0
 22 28  1  0  0  0
 22 32  2  0  0  0
 26 27  1  0  0  0
 28101  1  0  0  0
 28102  1  0  0  0
 29103  1  0  0  0
 29104  1  0  0  0
 33 34  1  0  0  0
 33 66  1  0  0  0
 33 70  2  0  0  0
 34 36  1  0  0  0
 34 59  1  0  0  0
 34105  1  0  0  0
 35 44  2  0  0  0
 35 45  1  0  0  0
 35 68  1  0  0  0
 36 56  1  0  0  0
 36106  1  0  0  0
 37 39  1  0  0  0
 37 47  1  0  0  0
 37 66  1  0  0  0
 37107  1  0  0  0
 38 43  2  0  0  0
 38 46  1  0  0  0
 38 47  1  0  0  0
 39 64  1  0  0  0
 39 67  2  0  0  0
 40 52  1  0  0  0
 40 53  2  0  0  0
 40 58  1  0  0  0
 41108  1  0  0  0
 41109  1  0  0  0
 41110  1  0  0  0
 41 48  1  0  0  0
 42 43  1  0  0  0
 42 66  1  0  0  0
 42111  1  0  0  0
 42112  1  0  0  0
 43 44  1  0  0  0
 44113  1  0  0  0
 45 46  2  0  0  0
 45114  1  0  0  0
 46115  1  0  0  0
 47116  1  0  0  0
 47117  1  0  0  0
 48 56  1  0  0  0
 48 65  1  0  0  0
 48118  1  0  0  0
 49 50  1  0  0  0
 49 53  1  0  0  0
 49 64  1  0  0  0
 49119  1  0  0  0
 50 51  1  0  0  0
 50120  1  0  0  0
 50121  1  0  0  0
 51 52  1  0  0  0
 51122  1  0  0  0
 51123  1  0  0  0
 52124  1  0  0  0
 52125  1  0  0  0
 53 54  1  0  0  0
 54 55  2  0  0  0
 54126  1  0  0  0
 55 57  1  0  0  0
 55127  1  0  0  0
 56 69  2  0  0  0
 57 58  2  0  0  0
 57128  1  0  0  0
 58129  1  0  0  0
 59 60  1  0  0  0
 59 61  1  0  0  0
 59 62  1  0  0  0
 60130  1  0  0  0
 60131  1  0  0  0
 60132  1  0  0  0
 61133  1  0  0  0
 61134  1  0  0  0
 61135  1  0  0  0
 62136  1  0  0  0
 62137  1  0  0  0
 62138  1  0  0  0
 63 65  1  0  0  0
 63139  1  0  0  0
 63140  1  0  0  0
 63141  1  0  0  0
 64142  1  0  0  0
 65143  1  0  0  0
 68 80  1  0  0  0
 71 72  2  0  0  0
 71 74  1  0  0  0
 71144  1  0  0  0
 72 76  1  0  0  0
 72145  1  0  0  0
 73 75  1  0  0  0
 73 76  2  0  0  0
 73146  1  0  0  0
 74 75  2  0  0  0
 74 77  1  0  0  0
 75 79  1  0  0  0
 76 84  1  0  0  0
 77147  1  0  0  0
 77148  1  0  0  0
 77149  1  0  0  0
 78150  1  0  0  0
 78151  1  0  0  0
 78152  1  0  0  0
 78 82  1  0  0  0
 79 83  1  0  0  0
 79153  1  0  0  0
 79154  1  0  0  0
 80 82  1  0  0  0
 80155  1  0  0  0
 80156  1  0  0  0
 81 82  1  0  0  0
 81 84  1  0  0  0
 81157  1  0  0  0
 81158  1  0  0  0
 82159  1  0  0  0
 83160  1  0  0  0
M  ISO  4   1 100  68 101  80 101  83 100
M  END
> <chiral flag>
0

> <version>
0

> <s_m_source_file>
/data/baiqing/PycharmProjects/Reinvent-master-3.2/result/LINK_invent/BTK/process_docking_weight1_custom_product_contain_oxygen_bond_distance_aromatic_linkinvent_7_9_3/rearranged_h_0134.sdf

> <i_m_source_file_index>
48

> <r_mmod_Potential_Energy-OPLS-2005>
7.15890836715698

> <r_mmod_Stretch_Energy-OPLS-2005>
52.5179290771484

> <r_mmod_Bend_Energy-OPLS-2005>
125.626396179199

> <r_mmod_Torsional_Energy-OPLS-2005>
270.924865722656

> <r_mmod_Improper_Torsional_Energy-OPLS-2005>
9.96020126342773

> <r_mmod_Van_der_Waal_Energy-OPLS-2005>
152.337051391602

> <r_mmod_Electrostatic_Energy-OPLS-2005>
-413.211639404297

> <r_mmod_Solvation_Energy-OPLS-2005>
-216.256530761719

> <b_mmod_Minimization_Converged-OPLS-2005>
0

> <r_mmod_RMS_Derivative-OPLS-2005>
1.10483932495117

$$$$
48
                    3D
 Structure written by MMmdl.
168176  0  0  1  0            999 V2000
  -30.6967  -14.4796   20.5939 C   0  0  0  0  0  0
  -30.4243  -12.3216   19.4235 C   0  0  0  0  0  0
  -29.4960  -12.5183   18.2086 C   0  0  0  0  0  0
  -28.0190  -12.3648   18.6215 C   0  0  0  0  0  0
  -27.6595  -13.2074   19.8749 C   0  0  2  0  0  0
  -28.6995  -12.9900   20.9972 C   0  0  0  0  0  0
  -25.2520  -13.8111   20.5613 C   0  0  0  0  0  0
  -24.1813  -13.0410   20.9191 C   0  0  0  0  0  0
  -24.6389  -11.6887   20.8774 C   0  0  0  0  0  0
  -23.9065  -10.4271   21.0431 C   0  0  0  0  0  0
  -24.3615   -9.4196   21.9210 C   0  0  0  0  0  0
  -23.6298   -8.2226   22.0754 C   0  0  0  0  0  0
  -22.4274   -8.0280   21.3546 C   0  0  0  0  0  0
  -21.9912   -9.0261   20.4645 C   0  0  0  0  0  0
  -22.7240  -10.2136   20.3073 C   0  0  0  0  0  0
  -21.6830   -6.0738   22.5289 C   0  0  0  0  0  0
  -21.3991   -6.5637   23.8223 C   0  0  0  0  0  0
  -21.3657   -5.6789   24.9182 C   0  0  0  0  0  0
  -21.6042   -4.3052   24.7227 C   0  0  0  0  0  0
  -21.8822   -3.8147   23.4353 C   0  0  0  0  0  0
  -21.9179   -4.6970   22.3411 C   0  0  0  0  0  0
  -22.7823  -13.5219   21.1842 C   0  0  0  0  0  0
  -22.1640   -4.2154   21.0982 F   0  0  0  0  0  0
  -21.5638   -3.4541   25.7745 F   0  0  0  0  0  0
  -30.0318  -13.3011   20.4511 N   0  0  0  0  0  0
  -26.2998  -12.9310   20.3347 N   0  0  0  0  0  0
  -25.9310  -11.6471   20.5790 N   0  0  0  0  0  0
  -22.0432  -12.8237   22.0392 N   0  0  0  0  0  0
  -25.4106  -15.1792   20.3803 N   0  0  0  0  0  0
  -31.8122  -14.6795   20.1057 O   0  0  0  0  0  0
  -21.6625   -6.8891   21.4247 O   0  0  0  0  0  0
  -22.3536  -14.5525   20.6680 O   0  0  0  0  0  0
  -24.6160  -31.8683   23.2106 C   0  0  0  0  0  0
  -25.9052  -32.4818   23.8400 C   0  0  1  0  0  0
  -27.2238  -27.4218   20.0945 C   0  0  0  0  0  0
  -25.5919  -33.8621   24.2347 N   0  0  0  0  0  0
  -23.4014  -30.4956   21.5521 C   0  0  2  0  0  0
  -24.8439  -28.9664   20.1099 C   0  0  0  0  0  0
  -22.7414  -29.4664   22.4977 C   0  0  0  0  0  0
  -18.0263  -28.1380   22.8490 C   0  0  0  0  0  0
  -24.1477  -36.7309   23.2641 C   0  0  0  0  0  0
  -25.9316  -30.8316   21.3645 C   0  0  0  0  0  0
  -26.0050  -29.4675   20.7082 C   0  0  0  0  0  0
  -27.1948  -28.7041   20.6962 C   0  0  0  0  0  0
  -26.0398  -26.9440   19.4827 C   0  0  0  0  0  0
  -24.8568  -27.7051   19.4942 C   0  0  0  0  0  0
  -23.6088  -29.8361   20.1631 C   0  0  0  0  0  0
  -25.4096  -36.3117   24.0346 C   0  0  1  0  0  0
  -20.5862  -28.3668   23.1305 C   0  0  2  0  0  0
  -20.6763  -26.9401   22.5416 C   0  0  0  0  0  0
  -19.5746  -26.6387   21.5212 C   0  0  0  0  0  0
  -18.1918  -26.7921   22.1620 C   0  0  0  0  0  0
  -19.1518  -28.8839   23.2897 C   0  0  0  0  0  0
  -18.9450  -30.1444   23.8916 C   0  0  0  0  0  0
  -17.6454  -30.6594   24.0566 C   0  0  0  0  0  0
  -25.9029  -34.9484   23.5132 C   0  0  0  0  0  0
  -16.5342  -29.9102   23.6328 C   0  0  0  0  0  0
  -16.7251  -28.6511   23.0357 C   0  0  0  0  0  0
  -26.4483  -31.6586   25.0721 C   0  0  0  0  0  0
  -25.3753  -31.3694   26.1474 C   0  0  0  0  0  0
  -27.0316  -30.3029   24.6095 C   0  0  0  0  0  0
  -27.6070  -32.4293   25.7476 C   0  0  0  0  0  0
  -27.5568  -37.1813   24.8473 C   0  0  0  0  0  0
  -21.4143  -29.3030   22.3719 N   0  0  0  0  0  0
  -26.4283  -37.3805   23.9421 N   0  0  0  0  0  0
  -24.6680  -31.0800   22.1000 N   0  0  0  0  0  0
  -23.4179  -28.8204   23.3016 O   0  0  0  0  0  0
  -28.4079  -26.7033   20.1454 O   0  0  0  0  0  0
  -26.5592  -34.8930   22.4692 O   0  0  0  0  0  0
  -23.5360  -32.1447   23.7504 O   0  0  0  0  0  0
  -26.9690  -18.5314   20.7455 C   0  0  0  0  0  0
  -27.2545  -19.8864   20.9932 C   0  0  0  0  0  0
  -27.9854  -17.5612   20.8361 C   0  0  0  0  0  0
  -29.5790  -19.3023   21.4290 C   0  0  0  0  0  0
  -28.5647  -20.2912   21.3279 C   0  0  0  0  0  0
  -29.3011  -17.9302   21.1880 C   0  0  0  0  0  0
  -26.4222  -23.6952   22.8112 C   0  0  0  0  0  0
  -29.8389  -25.2015   19.0829 C   0  0  0  0  0  0
  -29.4350  -24.6465   22.0906 C   0  0  0  0  0  0
  -28.8512  -21.7624   21.6638 C   0  0  0  0  0  0
  -30.4221  -16.8818   21.3016 C   0  0  0  0  0  0
  -26.9328  -24.6352   21.7083 C   0  0  0  0  0  0
  -28.3736  -22.8184   20.6131 C   0  0  0  0  0  0
  -28.4851  -25.2960   19.8138 C   0  0  1  0  0  0
  -28.3218  -24.3316   21.0638 C   0  0  2  0  0  0
  -30.0098  -15.4698   21.1966 N   0  0  0  0  0  0
  -31.4670  -12.4329   19.1208 H   0  0  0  0  0  0
  -30.3345  -11.3063   19.8139 H   0  0  0  0  0  0
  -29.7441  -11.7991   17.4287 H   0  0  0  0  0  0
  -29.6570  -13.5092   17.7803 H   0  0  0  0  0  0
  -27.8392  -11.3079   18.8244 H   0  0  0  0  0  0
  -27.3639  -12.6288   17.7910 H   0  0  0  0  0  0
  -27.7023  -14.2542   19.5772 H   0  0  0  0  0  0
  -28.6790  -11.9526   21.3339 H   0  0  0  0  0  0
  -28.4530  -13.5846   21.8782 H   0  0  0  0  0  0
  -25.2760   -9.5667   22.4785 H   0  0  0  0  0  0
  -24.0010   -7.4606   22.7450 H   0  0  0  0  0  0
  -21.0842   -8.8801   19.8937 H   0  0  0  0  0  0
  -22.3741  -10.9687   19.6182 H   0  0  0  0  0  0
  -21.1973   -7.6135   23.9737 H   0  0  0  0  0  0
  -21.1462   -6.0504   25.9092 H   0  0  0  0  0  0
  -22.0602   -2.7614   23.2850 H   0  0  0  0  0  0
  -22.4046  -11.9934   22.4846 H   0  0  0  0  0  0
  -21.1040  -13.1265   22.2559 H   0  0  0  0  0  0
  -24.6189  -15.8104   20.4277 H   0  0  0  0  0  0
  -26.2175  -15.5876   19.9305 H   0  0  0  0  0  0
  -26.7126  -32.5539   23.1167 H   0  0  0  0  0  0
  -25.0078  -33.9790   25.0497 H   0  0  0  0  0  0
  -22.6877  -31.3122   21.4191 H   0  0  0  0  0  0
  -23.3742  -35.9641   23.3313 H   0  0  0  0  0  0
  -24.3572  -36.8904   22.2055 H   0  0  0  0  0  0
  -23.7217  -37.6510   23.6638 H   0  0  0  0  0  0
  -26.0474  -31.5982   20.5973 H   0  0  0  0  0  0
  -26.8185  -30.8806   21.9846 H   0  0  0  0  0  0
  -28.0903  -29.0936   21.1601 H   0  0  0  0  0  0
  -25.9820  -25.9854   18.9941 H   0  0  0  0  0  0
  -23.9638  -27.3150   19.0270 H   0  0  0  0  0  0
  -23.7213  -30.6174   19.4095 H   0  0  0  0  0  0
  -22.7298  -29.2623   19.8627 H   0  0  0  0  0  0
  -25.1266  -36.1979   25.0840 H   0  0  0  0  0  0
  -20.9954  -28.3242   24.1426 H   0  0  0  0  0  0
  -20.5664  -26.2281   23.3609 H   0  0  0  0  0  0
  -21.6633  -26.7443   22.1213 H   0  0  0  0  0  0
  -19.6903  -25.6304   21.1224 H   0  0  0  0  0  0
  -19.6683  -27.3218   20.6758 H   0  0  0  0  0  0
  -17.4188  -26.6674   21.4014 H   0  0  0  0  0  0
  -18.0316  -26.0062   22.9016 H   0  0  0  0  0  0
  -19.7934  -30.7252   24.2301 H   0  0  0  0  0  0
  -17.5018  -31.6275   24.5167 H   0  0  0  0  0  0
  -15.5354  -30.3021   23.7642 H   0  0  0  0  0  0
  -15.8641  -28.0842   22.7074 H   0  0  0  0  0  0
  -24.5943  -30.7009   25.7812 H   0  0  0  0  0  0
  -24.8929  -32.2855   26.4899 H   0  0  0  0  0  0
  -25.8122  -30.8885   27.0237 H   0  0  0  0  0  0
  -26.2858  -29.6774   24.1171 H   0  0  0  0  0  0
  -27.4110  -29.7268   25.4542 H   0  0  0  0  0  0
  -27.8680  -30.4336   23.9227 H   0  0  0  0  0  0
  -27.2711  -33.3602   26.2058 H   0  0  0  0  0  0
  -28.3887  -32.6826   25.0297 H   0  0  0  0  0  0
  -28.0732  -31.8401   26.5389 H   0  0  0  0  0  0
  -28.2612  -38.0089   24.7518 H   0  0  0  0  0  0
  -28.1042  -36.2624   24.6301 H   0  0  0  0  0  0
  -27.2302  -37.1471   25.8884 H   0  0  0  0  0  0
  -20.9301  -29.8764   21.6951 H   0  0  0  0  0  0
  -26.0168  -38.2877   24.1428 H   0  0  0  0  0  0
  -25.9607  -18.2342   20.4916 H   0  0  0  0  0  0
  -26.4501  -20.6084   20.9422 H   0  0  0  0  0  0
  -27.7402  -16.5291   20.6410 H   0  0  0  0  0  0
  -30.5818  -19.5948   21.7114 H   0  0  0  0  0  0
  -25.4772  -24.0628   23.2093 H   0  0  0  0  0  0
  -27.1144  -23.6174   23.6480 H   0  0  0  0  0  0
  -26.2238  -22.6957   22.4244 H   0  0  0  0  0  0
  -30.0556  -24.2065   18.7030 H   0  0  0  0  0  0
  -30.6698  -25.5032   19.7189 H   0  0  0  0  0  0
  -29.8459  -25.8681   18.2206 H   0  0  0  0  0  0
  -29.3239  -24.0723   23.0090 H   0  0  0  0  0  0
  -29.4284  -25.6980   22.3793 H   0  0  0  0  0  0
  -30.4241  -24.4239   21.6945 H   0  0  0  0  0  0
  -29.9220  -21.8852   21.8279 H   0  0  0  0  0  0
  -28.3939  -21.9447   22.6339 H   0  0  0  0  0  0
  -30.9265  -17.0115   22.2599 H   0  0  0  0  0  0
  -31.1555  -17.1239   20.5286 H   0  0  0  0  0  0
  -26.9337  -25.6482   22.1145 H   0  0  0  0  0  0
  -26.1741  -24.6347   20.9267 H   0  0  0  0  0  0
  -27.3802  -22.5579   20.2488 H   0  0  0  0  0  0
  -29.0119  -22.6924   19.7423 H   0  0  0  0  0  0
  -27.7534  -25.0099   19.0634 H   0  0  0  0  0  0
  -29.1051  -15.2306   21.5719 H   0  0  0  0  0  0
  1 25  1  0  0  0
  1 30  2  0  0  0
  1 86  1  0  0  0
  2  3  1  0  0  0
  2 25  1  0  0  0
  2 87  1  0  0  0
  2 88  1  0  0  0
  3  4  1  0  0  0
  3 89  1  0  0  0
  3 90  1  0  0  0
  4  5  1  0  0  0
  4 91  1  0  0  0
  4 92  1  0  0  0
  5  6  1  0  0  0
  5 26  1  0  0  0
  5 93  1  0  0  0
  6 25  1  0  0  0
  6 94  1  0  0  0
  6 95  1  0  0  0
  7  8  2  0  0  0
  7 26  1  0  0  0
  7 29  1  0  0  0
  8  9  1  0  0  0
  8 22  1  0  0  0
  9 10  1  0  0  0
  9 27  2  0  0  0
 10 11  2  0  0  0
 10 15  1  0  0  0
 11 12  1  0  0  0
 11 96  1  0  0  0
 12 13  2  0  0  0
 12 97  1  0  0  0
 13 14  1  0  0  0
 13 31  1  0  0  0
 14 15  2  0  0  0
 14 98  1  0  0  0
 15 99  1  0  0  0
 16 17  2  0  0  0
 16 21  1  0  0  0
 16 31  1  0  0  0
 17 18  1  0  0  0
 17100  1  0  0  0
 18 19  2  0  0  0
 18101  1  0  0  0
 19 20  1  0  0  0
 19 24  1  0  0  0
 20 21  2  0  0  0
 20102  1  0  0  0
 21 23  1  0  0  0
 22 28  1  0  0  0
 22 32  2  0  0  0
 26 27  1  0  0  0
 28103  1  0  0  0
 28104  1  0  0  0
 29105  1  0  0  0
 29106  1  0  0  0
 33 34  1  0  0  0
 33 66  1  0  0  0
 33 70  2  0  0  0
 34 36  1  0  0  0
 34 59  1  0  0  0
 34107  1  0  0  0
 35 44  2  0  0  0
 35 45  1  0  0  0
 35 68  1  0  0  0
 36 56  1  0  0  0
 36108  1  0  0  0
 37 39  1  0  0  0
 37 47  1  0  0  0
 37 66  1  0  0  0
 37109  1  0  0  0
 38 43  2  0  0  0
 38 46  1  0  0  0
 38 47  1  0  0  0
 39 64  1  0  0  0
 39 67  2  0  0  0
 40 52  1  0  0  0
 40 53  2  0  0  0
 40 58  1  0  0  0
 41110  1  0  0  0
 41111  1  0  0  0
 41112  1  0  0  0
 41 48  1  0  0  0
 42 43  1  0  0  0
 42 66  1  0  0  0
 42113  1  0  0  0
 42114  1  0  0  0
 43 44  1  0  0  0
 44115  1  0  0  0
 45 46  2  0  0  0
 45116  1  0  0  0
 46117  1  0  0  0
 47118  1  0  0  0
 47119  1  0  0  0
 48 56  1  0  0  0
 48 65  1  0  0  0
 48120  1  0  0  0
 49 50  1  0  0  0
 49 53  1  0  0  0
 49 64  1  0  0  0
 49121  1  0  0  0
 50 51  1  0  0  0
 50122  1  0  0  0
 50123  1  0  0  0
 51 52  1  0  0  0
 51124  1  0  0  0
 51125  1  0  0  0
 52126  1  0  0  0
 52127  1  0  0  0
 53 54  1  0  0  0
 54 55  2  0  0  0
 54128  1  0  0  0
 55 57  1  0  0  0
 55129  1  0  0  0
 56 69  2  0  0  0
 57 58  2  0  0  0
 57130  1  0  0  0
 58131  1  0  0  0
 59 60  1  0  0  0
 59 61  1  0  0  0
 59 62  1  0  0  0
 60132  1  0  0  0
 60133  1  0  0  0
 60134  1  0  0  0
 61135  1  0  0  0
 61136  1  0  0  0
 61137  1  0  0  0
 62138  1  0  0  0
 62139  1  0  0  0
 62140  1  0  0  0
 63 65  1  0  0  0
 63141  1  0  0  0
 63142  1  0  0  0
 63143  1  0  0  0
 64144  1  0  0  0
 65145  1  0  0  0
 68 84  1  0  0  0
 71 72  2  0  0  0
 71 73  1  0  0  0
 71146  1  0  0  0
 72 75  1  0  0  0
 72147  1  0  0  0
 73 76  2  0  0  0
 73148  1  0  0  0
 74 75  2  0  0  0
 74 76  1  0  0  0
 74149  1  0  0  0
 75 80  1  0  0  0
 76 81  1  0  0  0
 77 82  1  0  0  0
 77150  1  0  0  0
 77151  1  0  0  0
 77152  1  0  0  0
 78153  1  0  0  0
 78154  1  0  0  0
 78155  1  0  0  0
 78 84  1  0  0  0
 79156  1  0  0  0
 79157  1  0  0  0
 79158  1  0  0  0
 79 85  1  0  0  0
 80 83  1  0  0  0
 80159  1  0  0  0
 80160  1  0  0  0
 81 86  1  0  0  0
 81161  1  0  0  0
 81162  1  0  0  0
 82 85  1  0  0  0
 82163  1  0  0  0
 82164  1  0  0  0
 83 85  1  0  0  0
 83165  1  0  0  0
 83166  1  0  0  0
 84 85  1  0  0  0
 84167  1  0  0  0
 86168  1  0  0  0
M  ISO  4   1 100  68 101  84 101  86 100
M  END
> <chiral flag>
0

> <version>
0

> <s_m_source_file>
/data/baiqing/PycharmProjects/Reinvent-master-3.2/result/LINK_invent/BTK/process_docking_weight1_custom_product_contain_oxygen_bond_distance_aromatic_linkinvent_7_9_3/rearranged_h_0134.sdf

> <i_m_source_file_index>
49

> <r_mmod_Potential_Energy-OPLS-2005>
-64.8372421264648

> <r_mmod_Stretch_Energy-OPLS-2005>
47.7790794372559

> <r_mmod_Bend_Energy-OPLS-2005>
121.047142028809

> <r_mmod_Torsional_Energy-OPLS-2005>
213.598693847656

> <r_mmod_Improper_Torsional_Energy-OPLS-2005>
3.89634084701538

> <r_mmod_Van_der_Waal_Energy-OPLS-2005>
158.360992431641

> <r_mmod_Electrostatic_Energy-OPLS-2005>
-436.657897949219

> <r_mmod_Solvation_Energy-OPLS-2005>
-187.34944152832

> <b_mmod_Minimization_Converged-OPLS-2005>
0

> <r_mmod_RMS_Derivative-OPLS-2005>
2.67616748809814

$$$$
49
                    3D
 Structure written by MMmdl.
162170  0  0  1  0            999 V2000
  -30.6554  -14.6835   20.4777 C   0  0  0  0  0  0
  -30.4238  -12.4171   19.4675 C   0  0  0  0  0  0
  -29.5056  -12.5040   18.2302 C   0  0  0  0  0  0
  -28.0305  -12.3392   18.6432 C   0  0  0  0  0  0
  -27.6451  -13.2313   19.8543 C   0  0  2  0  0  0
  -28.6909  -13.1504   20.9890 C   0  0  0  0  0  0
  -25.2522  -13.8200   20.5692 C   0  0  0  0  0  0
  -24.1810  -13.0444   20.9199 C   0  0  0  0  0  0
  -24.6407  -11.6923   20.8755 C   0  0  0  0  0  0
  -23.9083  -10.4296   21.0414 C   0  0  0  0  0  0
  -24.3627   -9.4208   21.9190 C   0  0  0  0  0  0
  -23.6297   -8.2247   22.0760 C   0  0  0  0  0  0
  -22.4280   -8.0287   21.3549 C   0  0  0  0  0  0
  -21.9922   -9.0261   20.4649 C   0  0  0  0  0  0
  -22.7256  -10.2137   20.3057 C   0  0  0  0  0  0
  -21.6854   -6.0738   22.5278 C   0  0  0  0  0  0
  -21.4014   -6.5640   23.8210 C   0  0  0  0  0  0
  -21.3659   -5.6794   24.9173 C   0  0  0  0  0  0
  -21.6045   -4.3057   24.7225 C   0  0  0  0  0  0
  -21.8818   -3.8147   23.4345 C   0  0  0  0  0  0
  -21.9192   -4.6964   22.3400 C   0  0  0  0  0  0
  -22.7827  -13.5224   21.1850 C   0  0  0  0  0  0
  -22.1660   -4.2146   21.0979 F   0  0  0  0  0  0
  -21.5628   -3.4542   25.7739 F   0  0  0  0  0  0
  -29.9981  -13.4785   20.4074 N   0  0  0  0  0  0
  -26.2960  -12.9415   20.3308 N   0  0  0  0  0  0
  -25.9340  -11.6555   20.5771 N   0  0  0  0  0  0
  -22.0473  -12.8210   22.0404 N   0  0  0  0  0  0
  -25.4202  -15.1928   20.4100 N   0  0  0  0  0  0
  -31.8360  -14.7448   20.1266 O   0  0  0  0  0  0
  -21.6643   -6.8883   21.4242 O   0  0  0  0  0  0
  -22.3513  -14.5534   20.6703 O   0  0  0  0  0  0
  -24.6287  -31.8580   23.2020 C   0  0  0  0  0  0
  -25.9128  -32.4771   23.8357 C   0  0  1  0  0  0
  -27.2154  -27.2907   20.1228 C   0  0  0  0  0  0
  -25.5936  -33.8573   24.2279 N   0  0  0  0  0  0
  -23.4233  -30.4827   21.5437 C   0  0  2  0  0  0
  -24.8694  -28.9386   20.1065 C   0  0  0  0  0  0
  -22.7490  -29.4610   22.4914 C   0  0  0  0  0  0
  -18.0289  -28.1388   22.8472 C   0  0  0  0  0  0
  -24.1491  -36.7281   23.2643 C   0  0  0  0  0  0
  -25.9672  -30.7802   21.3777 C   0  0  0  0  0  0
  -26.0386  -29.4062   20.7188 C   0  0  0  0  0  0
  -27.2130  -28.5927   20.7199 C   0  0  0  0  0  0
  -26.0273  -26.8925   19.4676 C   0  0  0  0  0  0
  -24.8676  -27.6883   19.4709 C   0  0  0  0  0  0
  -23.6394  -29.8224   20.1573 C   0  0  0  0  0  0
  -25.4112  -36.3074   24.0334 C   0  0  1  0  0  0
  -20.5893  -28.3687   23.1270 C   0  0  2  0  0  0
  -20.6781  -26.9407   22.5405 C   0  0  0  0  0  0
  -19.5756  -26.6375   21.5212 C   0  0  0  0  0  0
  -18.1933  -26.7927   22.1613 C   0  0  0  0  0  0
  -19.1543  -28.8852   23.2869 C   0  0  0  0  0  0
  -18.9472  -30.1455   23.8886 C   0  0  0  0  0  0
  -17.6471  -30.6582   24.0565 C   0  0  0  0  0  0
  -25.9050  -34.9449   23.5103 C   0  0  0  0  0  0
  -16.5358  -29.9081   23.6336 C   0  0  0  0  0  0
  -16.7275  -28.6506   23.0339 C   0  0  0  0  0  0
  -26.4505  -31.6586   25.0737 C   0  0  0  0  0  0
  -25.3727  -31.3712   26.1457 C   0  0  0  0  0  0
  -27.0371  -30.3021   24.6185 C   0  0  0  0  0  0
  -27.6068  -32.4323   25.7498 C   0  0  0  0  0  0
  -27.5576  -37.1799   24.8468 C   0  0  0  0  0  0
  -21.4200  -29.3044   22.3667 N   0  0  0  0  0  0
  -26.4287  -37.3770   23.9412 N   0  0  0  0  0  0
  -24.6924  -31.0573   22.0981 N   0  0  0  0  0  0
  -23.4204  -28.8136   23.2993 O   0  0  0  0  0  0
  -28.3151  -26.4134   20.2052 O   0  0  0  0  0  0
  -26.5615  -34.8917   22.4668 O   0  0  0  0  0  0
  -23.5443  -32.1393   23.7324 O   0  0  0  0  0  0
  -31.1712  -20.0035   20.9246 C   0  0  0  0  0  0
  -31.6829  -17.6056   20.9341 C   0  0  0  0  0  0
  -29.3916  -18.3667   20.6765 C   0  0  0  0  0  0
  -32.1009  -18.9493   21.0122 C   0  0  0  0  0  0
  -29.7906  -19.7657   20.7502 C   0  0  0  0  0  0
  -30.3222  -17.2548   20.7596 C   0  0  0  0  0  0
  -33.5698  -19.2662   21.2156 C   0  0  0  0  0  0
  -27.4300  -20.6466   20.2408 C   0  0  0  0  0  0
  -28.6163  -21.3242   22.3149 C   0  0  0  0  0  0
  -29.0978  -23.8891   20.6267 C   0  0  0  0  0  0
  -29.2662  -22.3838   20.0459 C   0  0  0  0  0  0
  -28.1213  -24.9550   19.9434 C   0  0  0  0  0  0
  -28.8089  -21.0253   20.8167 C   0  0  0  0  0  0
  -29.9161  -15.8287   20.7261 N   0  0  0  0  0  0
  -31.4685  -12.5144   19.1677 H   0  0  0  0  0  0
  -30.3424  -11.4372   19.9406 H   0  0  0  0  0  0
  -29.7786  -11.7397   17.5016 H   0  0  0  0  0  0
  -29.6444  -13.4653   17.7326 H   0  0  0  0  0  0
  -27.8756  -11.2889   18.8931 H   0  0  0  0  0  0
  -27.3758  -12.5483   17.7961 H   0  0  0  0  0  0
  -27.6452  -14.2566   19.4838 H   0  0  0  0  0  0
  -28.7119  -12.1524   21.4297 H   0  0  0  0  0  0
  -28.4383  -13.8366   21.7996 H   0  0  0  0  0  0
  -25.2770   -9.5680   22.4768 H   0  0  0  0  0  0
  -23.9997   -7.4640   22.7487 H   0  0  0  0  0  0
  -21.0848   -8.8784   19.8956 H   0  0  0  0  0  0
  -22.3719  -10.9676   19.6162 H   0  0  0  0  0  0
  -21.2008   -7.6148   23.9711 H   0  0  0  0  0  0
  -21.1482   -6.0526   25.9073 H   0  0  0  0  0  0
  -22.0599   -2.7609   23.2847 H   0  0  0  0  0  0
  -22.4084  -11.9862   22.4776 H   0  0  0  0  0  0
  -21.1093  -13.1236   22.2618 H   0  0  0  0  0  0
  -24.6489  -15.8430   20.5139 H   0  0  0  0  0  0
  -26.2629  -15.6341   20.0651 H   0  0  0  0  0  0
  -26.7189  -32.5417   23.1097 H   0  0  0  0  0  0
  -25.0135  -33.9724   25.0458 H   0  0  0  0  0  0
  -22.7182  -31.3043   21.3997 H   0  0  0  0  0  0
  -23.3763  -35.9608   23.3301 H   0  0  0  0  0  0
  -24.3587  -36.8901   22.2060 H   0  0  0  0  0  0
  -23.7235  -37.6479   23.6664 H   0  0  0  0  0  0
  -26.1020  -31.5416   20.6084 H   0  0  0  0  0  0
  -26.8474  -30.8283   22.0073 H   0  0  0  0  0  0
  -28.1057  -28.9406   21.2200 H   0  0  0  0  0  0
  -25.9610  -25.9452   18.9544 H   0  0  0  0  0  0
  -23.9755  -27.3275   18.9787 H   0  0  0  0  0  0
  -23.7611  -30.6023   19.4046 H   0  0  0  0  0  0
  -22.7582  -29.2562   19.8504 H   0  0  0  0  0  0
  -25.1290  -36.1932   25.0826 H   0  0  0  0  0  0
  -20.9980  -28.3261   24.1394 H   0  0  0  0  0  0
  -20.5678  -26.2296   23.3606 H   0  0  0  0  0  0
  -21.6643  -26.7428   22.1197 H   0  0  0  0  0  0
  -19.6925  -25.6289   21.1238 H   0  0  0  0  0  0
  -19.6707  -27.3185   20.6747 H   0  0  0  0  0  0
  -17.4206  -26.6686   21.4005 H   0  0  0  0  0  0
  -18.0317  -26.0065   22.9002 H   0  0  0  0  0  0
  -19.7955  -30.7278   24.2234 H   0  0  0  0  0  0
  -17.5028  -31.6260   24.5171 H   0  0  0  0  0  0
  -15.5359  -30.2982   23.7671 H   0  0  0  0  0  0
  -15.8674  -28.0832   22.7044 H   0  0  0  0  0  0
  -24.5936  -30.7013   25.7790 H   0  0  0  0  0  0
  -24.8876  -32.2867   26.4854 H   0  0  0  0  0  0
  -25.8054  -30.8930   27.0252 H   0  0  0  0  0  0
  -26.2960  -29.6746   24.1218 H   0  0  0  0  0  0
  -27.4111  -29.7292   25.4680 H   0  0  0  0  0  0
  -27.8795  -30.4338   23.9391 H   0  0  0  0  0  0
  -27.2705  -33.3651   26.2031 H   0  0  0  0  0  0
  -28.3897  -32.6827   25.0327 H   0  0  0  0  0  0
  -28.0708  -31.8467   26.5443 H   0  0  0  0  0  0
  -28.2588  -38.0102   24.7514 H   0  0  0  0  0  0
  -28.1076  -36.2630   24.6289 H   0  0  0  0  0  0
  -27.2296  -37.1439   25.8873 H   0  0  0  0  0  0
  -20.9373  -29.8802   21.6909 H   0  0  0  0  0  0
  -26.0169  -38.2845   24.1417 H   0  0  0  0  0  0
  -31.5350  -21.0138   21.0417 H   0  0  0  0  0  0
  -32.4438  -16.8479   21.0390 H   0  0  0  0  0  0
  -28.3425  -18.1311   20.5789 H   0  0  0  0  0  0
  -33.6990  -20.1882   21.7839 H   0  0  0  0  0  0
  -34.0670  -19.3869   20.2528 H   0  0  0  0  0  0
  -34.0746  -18.4686   21.7620 H   0  0  0  0  0  0
  -26.9448  -19.8543   20.8117 H   0  0  0  0  0  0
  -27.5135  -20.3088   19.2069 H   0  0  0  0  0  0
  -26.7511  -21.5005   20.2507 H   0  0  0  0  0  0
  -28.2943  -20.4340   22.8570 H   0  0  0  0  0  0
  -27.8547  -22.0848   22.4843 H   0  0  0  0  0  0
  -29.5440  -21.6648   22.7754 H   0  0  0  0  0  0
  -30.0893  -24.3373   20.5581 H   0  0  0  0  0  0
  -28.9038  -23.8791   21.6975 H   0  0  0  0  0  0
  -30.3344  -22.2981   19.8615 H   0  0  0  0  0  0
  -28.8705  -22.3644   19.0291 H   0  0  0  0  0  0
  -27.1197  -24.6541   20.2516 H   0  0  0  0  0  0
  -28.1623  -24.8192   18.8626 H   0  0  0  0  0  0
  -28.9332  -15.6551   20.8677 H   0  0  0  0  0  0
  1 25  1  0  0  0
  1 30  2  0  0  0
  1 84  1  0  0  0
  2  3  1  0  0  0
  2 25  1  0  0  0
  2 85  1  0  0  0
  2 86  1  0  0  0
  3  4  1  0  0  0
  3 87  1  0  0  0
  3 88  1  0  0  0
  4  5  1  0  0  0
  4 89  1  0  0  0
  4 90  1  0  0  0
  5  6  1  0  0  0
  5 26  1  0  0  0
  5 91  1  0  0  0
  6 25  1  0  0  0
  6 92  1  0  0  0
  6 93  1  0  0  0
  7  8  2  0  0  0
  7 26  1  0  0  0
  7 29  1  0  0  0
  8  9  1  0  0  0
  8 22  1  0  0  0
  9 10  1  0  0  0
  9 27  2  0  0  0
 10 11  2  0  0  0
 10 15  1  0  0  0
 11 12  1  0  0  0
 11 94  1  0  0  0
 12 13  2  0  0  0
 12 95  1  0  0  0
 13 14  1  0  0  0
 13 31  1  0  0  0
 14 15  2  0  0  0
 14 96  1  0  0  0
 15 97  1  0  0  0
 16 17  2  0  0  0
 16 21  1  0  0  0
 16 31  1  0  0  0
 17 18  1  0  0  0
 17 98  1  0  0  0
 18 19  2  0  0  0
 18 99  1  0  0  0
 19 20  1  0  0  0
 19 24  1  0  0  0
 20 21  2  0  0  0
 20100  1  0  0  0
 21 23  1  0  0  0
 22 28  1  0  0  0
 22 32  2  0  0  0
 26 27  1  0  0  0
 28101  1  0  0  0
 28102  1  0  0  0
 29103  1  0  0  0
 29104  1  0  0  0
 33 34  1  0  0  0
 33 66  1  0  0  0
 33 70  2  0  0  0
 34 36  1  0  0  0
 34 59  1  0  0  0
 34105  1  0  0  0
 35 44  2  0  0  0
 35 45  1  0  0  0
 35 68  1  0  0  0
 36 56  1  0  0  0
 36106  1  0  0  0
 37 39  1  0  0  0
 37 47  1  0  0  0
 37 66  1  0  0  0
 37107  1  0  0  0
 38 43  2  0  0  0
 38 46  1  0  0  0
 38 47  1  0  0  0
 39 64  1  0  0  0
 39 67  2  0  0  0
 40 52  1  0  0  0
 40 53  2  0  0  0
 40 58  1  0  0  0
 41108  1  0  0  0
 41109  1  0  0  0
 41110  1  0  0  0
 41 48  1  0  0  0
 42 43  1  0  0  0
 42 66  1  0  0  0
 42111  1  0  0  0
 42112  1  0  0  0
 43 44  1  0  0  0
 44113  1  0  0  0
 45 46  2  0  0  0
 45114  1  0  0  0
 46115  1  0  0  0
 47116  1  0  0  0
 47117  1  0  0  0
 48 56  1  0  0  0
 48 65  1  0  0  0
 48118  1  0  0  0
 49 50  1  0  0  0
 49 53  1  0  0  0
 49 64  1  0  0  0
 49119  1  0  0  0
 50 51  1  0  0  0
 50120  1  0  0  0
 50121  1  0  0  0
 51 52  1  0  0  0
 51122  1  0  0  0
 51123  1  0  0  0
 52124  1  0  0  0
 52125  1  0  0  0
 53 54  1  0  0  0
 54 55  2  0  0  0
 54126  1  0  0  0
 55 57  1  0  0  0
 55127  1  0  0  0
 56 69  2  0  0  0
 57 58  2  0  0  0
 57128  1  0  0  0
 58129  1  0  0  0
 59 60  1  0  0  0
 59 61  1  0  0  0
 59 62  1  0  0  0
 60130  1  0  0  0
 60131  1  0  0  0
 60132  1  0  0  0
 61133  1  0  0  0
 61134  1  0  0  0
 61135  1  0  0  0
 62136  1  0  0  0
 62137  1  0  0  0
 62138  1  0  0  0
 63 65  1  0  0  0
 63139  1  0  0  0
 63140  1  0  0  0
 63141  1  0  0  0
 64142  1  0  0  0
 65143  1  0  0  0
 68 82  1  0  0  0
 71 74  2  0  0  0
 71 75  1  0  0  0
 71144  1  0  0  0
 72 74  1  0  0  0
 72 76  2  0  0  0
 72145  1  0  0  0
 73 75  2  0  0  0
 73 76  1  0  0  0
 73146  1  0  0  0
 74 77  1  0  0  0
 75 83  1  0  0  0
 76 84  1  0  0  0
 77147  1  0  0  0
 77148  1  0  0  0
 77149  1  0  0  0
 78150  1  0  0  0
 78151  1  0  0  0
 78152  1  0  0  0
 78 83  1  0  0  0
 79 83  1  0  0  0
 79153  1  0  0  0
 79154  1  0  0  0
 79155  1  0  0  0
 80 81  1  0  0  0
 80 82  1  0  0  0
 80156  1  0  0  0
 80157  1  0  0  0
 81 83  1  0  0  0
 81158  1  0  0  0
 81159  1  0  0  0
 82160  1  0  0  0
 82161  1  0  0  0
 84162  1  0  0  0
M  ISO  4   1 100  68 101  82 101  84 100
M  END
> <chiral flag>
0

> <version>
0

> <s_m_source_file>
/data/baiqing/PycharmProjects/Reinvent-master-3.2/result/LINK_invent/BTK/process_docking_weight1_custom_product_contain_oxygen_bond_distance_aromatic_linkinvent_7_9_3/rearranged_h_0134.sdf

> <i_m_source_file_index>
50

> <r_mmod_Potential_Energy-OPLS-2005>
143.868408203125

> <r_mmod_Stretch_Energy-OPLS-2005>
113.592300415039

> <r_mmod_Bend_Energy-OPLS-2005>
163.490280151367

> <r_mmod_Torsional_Energy-OPLS-2005>
237.427871704102

> <r_mmod_Improper_Torsional_Energy-OPLS-2005>
5.59230470657349

> <r_mmod_Van_der_Waal_Energy-OPLS-2005>
155.748245239258

> <r_mmod_Electrostatic_Energy-OPLS-2005>
-402.229217529297

> <r_mmod_Solvation_Energy-OPLS-2005>
-195.586044311523

> <b_mmod_Minimization_Converged-OPLS-2005>
0

> <r_mmod_RMS_Derivative-OPLS-2005>
1.22219336032867

$$$$
50
                    3D
 Structure written by MMmdl.
163171  0  0  1  0            999 V2000
  -30.6567  -14.6012   20.5219 C   0  0  0  0  0  0
  -30.4276  -12.3798   19.4400 C   0  0  0  0  0  0
  -29.4861  -12.5062   18.2223 C   0  0  0  0  0  0
  -28.0140  -12.3396   18.6458 C   0  0  0  0  0  0
  -27.6487  -13.2020   19.8845 C   0  0  2  0  0  0
  -28.7038  -13.0537   21.0058 C   0  0  0  0  0  0
  -25.2509  -13.8046   20.5861 C   0  0  0  0  0  0
  -24.1746  -13.0342   20.9217 C   0  0  0  0  0  0
  -24.6315  -11.6813   20.8767 C   0  0  0  0  0  0
  -23.8981  -10.4233   21.0400 C   0  0  0  0  0  0
  -24.3552   -9.4163   21.9180 C   0  0  0  0  0  0
  -23.6248   -8.2203   22.0732 C   0  0  0  0  0  0
  -22.4245   -8.0233   21.3512 C   0  0  0  0  0  0
  -21.9865   -9.0197   20.4615 C   0  0  0  0  0  0
  -22.7163  -10.2081   20.3038 C   0  0  0  0  0  0
  -21.6830   -6.0705   22.5274 C   0  0  0  0  0  0
  -21.4012   -6.5613   23.8203 C   0  0  0  0  0  0
  -21.3649   -5.6768   24.9169 C   0  0  0  0  0  0
  -21.6032   -4.3029   24.7219 C   0  0  0  0  0  0
  -21.8830   -3.8117   23.4343 C   0  0  0  0  0  0
  -21.9205   -4.6940   22.3400 C   0  0  0  0  0  0
  -22.7773  -13.5165   21.1860 C   0  0  0  0  0  0
  -22.1665   -4.2114   21.0980 F   0  0  0  0  0  0
  -21.5627   -3.4525   25.7737 F   0  0  0  0  0  0
  -30.0189  -13.3913   20.4341 N   0  0  0  0  0  0
  -26.2944  -12.9239   20.3495 N   0  0  0  0  0  0
  -25.9246  -11.6383   20.5824 N   0  0  0  0  0  0
  -22.0400  -12.8184   22.0400 N   0  0  0  0  0  0
  -25.4199  -15.1776   20.4555 N   0  0  0  0  0  0
  -31.8034  -14.7657   20.0988 O   0  0  0  0  0  0
  -21.6604   -6.8839   21.4225 O   0  0  0  0  0  0
  -22.3499  -14.5501   20.6700 O   0  0  0  0  0  0
  -24.6168  -31.8628   23.2061 C   0  0  0  0  0  0
  -25.9043  -32.4785   23.8374 C   0  0  1  0  0  0
  -27.2461  -27.3681   20.1347 C   0  0  0  0  0  0
  -25.5887  -33.8578   24.2303 N   0  0  0  0  0  0
  -23.4115  -30.4855   21.5409 C   0  0  2  0  0  0
  -24.8659  -28.9462   20.1241 C   0  0  0  0  0  0
  -22.7396  -29.4652   22.4897 C   0  0  0  0  0  0
  -18.0284  -28.1362   22.8516 C   0  0  0  0  0  0
  -24.1497  -36.7283   23.2643 C   0  0  0  0  0  0
  -25.9471  -30.8192   21.3686 C   0  0  0  0  0  0
  -26.0282  -29.4465   20.7211 C   0  0  0  0  0  0
  -27.2157  -28.6678   20.7194 C   0  0  0  0  0  0
  -26.0501  -26.9054   19.5302 C   0  0  0  0  0  0
  -24.8741  -27.6766   19.5307 C   0  0  0  0  0  0
  -23.6324  -29.8192   20.1569 C   0  0  0  0  0  0
  -25.4116  -36.3069   24.0340 C   0  0  1  0  0  0
  -20.5873  -28.3656   23.1294 C   0  0  2  0  0  0
  -20.6751  -26.9294   22.5651 C   0  0  0  0  0  0
  -19.5729  -26.6115   21.5492 C   0  0  0  0  0  0
  -18.1912  -26.7790   22.1890 C   0  0  0  0  0  0
  -19.1538  -28.8846   23.2882 C   0  0  0  0  0  0
  -18.9436  -30.1433   23.8943 C   0  0  0  0  0  0
  -17.6407  -30.6559   24.0581 C   0  0  0  0  0  0
  -25.9038  -34.9442   23.5121 C   0  0  0  0  0  0
  -16.5316  -29.9055   23.6302 C   0  0  0  0  0  0
  -16.7276  -28.6453   23.0370 C   0  0  0  0  0  0
  -26.4459  -31.6543   25.0685 C   0  0  0  0  0  0
  -25.3716  -31.3672   26.1422 C   0  0  0  0  0  0
  -27.0304  -30.2977   24.6084 C   0  0  0  0  0  0
  -27.6015  -32.4265   25.7458 C   0  0  0  0  0  0
  -27.5578  -37.1805   24.8469 C   0  0  0  0  0  0
  -21.4137  -29.2869   22.3494 N   0  0  0  0  0  0
  -26.4300  -37.3755   23.9401 N   0  0  0  0  0  0
  -24.6764  -31.0699   22.0978 N   0  0  0  0  0  0
  -23.4113  -28.8353   23.3100 O   0  0  0  0  0  0
  -28.4237  -26.6150   20.1912 O   0  0  0  0  0  0
  -26.5601  -34.8895   22.4682 O   0  0  0  0  0  0
  -23.5344  -32.1394   23.7412 O   0  0  0  0  0  0
  -26.7618  -17.5124   18.8598 C   0  0  0  0  0  0
  -28.0399  -17.0865   19.2524 C   0  0  0  0  0  0
  -27.1054  -19.5523   20.1101 C   0  0  0  0  0  0
  -26.2586  -18.7167   19.3684 C   0  0  0  0  0  0
  -28.8626  -17.8678   20.1009 C   0  0  0  0  0  0
  -28.4476  -19.2234   20.4004 C   0  0  0  0  0  0
  -24.8167  -19.1196   19.1385 C   0  0  0  0  0  0
  -26.6671  -22.8994   20.8763 C   0  0  0  0  0  0
  -30.1090  -17.1351   20.6705 C   0  0  0  0  0  0
  -28.8396  -24.1205   20.8552 C   0  0  0  0  0  0
  -28.5014  -25.2151   19.7650 C   0  0  0  0  0  0
  -28.7776  -21.4784   21.4861 C   0  0  0  0  0  0
  -28.1899  -22.6952   20.6194 C   0  0  1  0  0  0
  -29.8952  -15.6614   20.9043 N   0  0  0  0  0  0
  -29.2879  -20.2154   20.9195 O   0  0  0  0  0  0
  -31.4640  -12.5071   19.1230 H   0  0  0  0  0  0
  -30.3707  -11.3800   19.8723 H   0  0  0  0  0  0
  -29.7404  -11.7609   17.4664 H   0  0  0  0  0  0
  -29.6219  -13.4793   17.7494 H   0  0  0  0  0  0
  -27.8523  -11.2839   18.8738 H   0  0  0  0  0  0
  -27.3494  -12.5716   17.8116 H   0  0  0  0  0  0
  -27.6594  -14.2347   19.5494 H   0  0  0  0  0  0
  -28.7124  -12.0269   21.3794 H   0  0  0  0  0  0
  -28.4584  -13.6837   21.8636 H   0  0  0  0  0  0
  -25.2691   -9.5653   22.4762 H   0  0  0  0  0  0
  -23.9947   -7.4591   22.7453 H   0  0  0  0  0  0
  -21.0793   -8.8670   19.8928 H   0  0  0  0  0  0
  -22.3585  -10.9612   19.6154 H   0  0  0  0  0  0
  -21.1998   -7.6121   23.9689 H   0  0  0  0  0  0
  -21.1455   -6.0503   25.9061 H   0  0  0  0  0  0
  -22.0633   -2.7585   23.2849 H   0  0  0  0  0  0
  -22.3985  -11.9840   22.4816 H   0  0  0  0  0  0
  -21.1003  -13.1177   22.2553 H   0  0  0  0  0  0
  -24.6488  -15.8225   20.5882 H   0  0  0  0  0  0
  -26.2822  -15.6480   20.2141 H   0  0  0  0  0  0
  -26.7112  -32.5512   23.1135 H   0  0  0  0  0  0
  -25.0060  -33.9759   25.0456 H   0  0  0  0  0  0
  -22.7070  -31.3067   21.3922 H   0  0  0  0  0  0
  -23.3751  -35.9620   23.3303 H   0  0  0  0  0  0
  -24.3606  -36.8897   22.2062 H   0  0  0  0  0  0
  -23.7277  -37.6501   23.6657 H   0  0  0  0  0  0
  -26.0655  -31.5881   20.6024 H   0  0  0  0  0  0
  -26.8320  -30.8737   21.9919 H   0  0  0  0  0  0
  -28.1103  -29.0518   21.1918 H   0  0  0  0  0  0
  -25.9680  -25.9412   19.0610 H   0  0  0  0  0  0
  -23.9748  -27.2816   19.0808 H   0  0  0  0  0  0
  -23.7569  -30.5924   19.3968 H   0  0  0  0  0  0
  -22.7595  -29.2405   19.8506 H   0  0  0  0  0  0
  -25.1298  -36.1926   25.0839 H   0  0  0  0  0  0
  -21.0012  -28.3408   24.1406 H   0  0  0  0  0  0
  -21.6607  -26.7234   22.1447 H   0  0  0  0  0  0
  -20.5662  -26.2325   23.3987 H   0  0  0  0  0  0
  -19.6616  -27.2813   20.6923 H   0  0  0  0  0  0
  -19.6850  -25.5926   21.1705 H   0  0  0  0  0  0
  -17.4132  -26.6297   21.4395 H   0  0  0  0  0  0
  -18.0369  -26.0151   22.9529 H   0  0  0  0  0  0
  -19.7873  -30.7232   24.2452 H   0  0  0  0  0  0
  -17.4932  -31.6228   24.5221 H   0  0  0  0  0  0
  -15.5308  -30.2950   23.7590 H   0  0  0  0  0  0
  -15.8706  -28.0742   22.7087 H   0  0  0  0  0  0
  -24.5912  -30.6977   25.7780 H   0  0  0  0  0  0
  -24.8861  -32.2835   26.4798 H   0  0  0  0  0  0
  -25.8054  -30.8913   27.0230 H   0  0  0  0  0  0
  -26.2872  -29.6739   24.1096 H   0  0  0  0  0  0
  -27.4044  -29.7192   25.4550 H   0  0  0  0  0  0
  -27.8713  -30.4286   23.9263 H   0  0  0  0  0  0
  -27.2614  -33.3571   26.2020 H   0  0  0  0  0  0
  -28.3825  -32.6828   25.0278 H   0  0  0  0  0  0
  -28.0663  -31.8391   26.5395 H   0  0  0  0  0  0
  -28.2589  -38.0104   24.7482 H   0  0  0  0  0  0
  -28.1081  -36.2635   24.6316 H   0  0  0  0  0  0
  -27.2292  -37.1460   25.8872 H   0  0  0  0  0  0
  -20.9386  -29.7974   21.6186 H   0  0  0  0  0  0
  -26.0176  -38.2828   24.1378 H   0  0  0  0  0  0
  -26.1466  -16.8725   18.2415 H   0  0  0  0  0  0
  -28.3795  -16.1227   18.9064 H   0  0  0  0  0  0
  -26.6834  -20.4656   20.4647 H   0  0  0  0  0  0
  -24.7386  -20.1873   18.9260 H   0  0  0  0  0  0
  -24.2309  -18.9048   20.0341 H   0  0  0  0  0  0
  -24.3754  -18.5674   18.3107 H   0  0  0  0  0  0
  -26.3913  -22.6234   21.8953 H   0  0  0  0  0  0
  -26.0247  -22.3491   20.1904 H   0  0  0  0  0  0
  -26.3535  -23.9380   20.7607 H   0  0  0  0  0  0
  -30.9430  -17.3052   19.9874 H   0  0  0  0  0  0
  -30.3851  -17.6018   21.6161 H   0  0  0  0  0  0
  -28.5371  -24.4893   21.8358 H   0  0  0  0  0  0
  -29.9245  -24.0190   20.9141 H   0  0  0  0  0  0
  -27.6497  -24.8872   19.1797 H   0  0  0  0  0  0
  -29.3063  -25.1836   19.0327 H   0  0  0  0  0  0
  -28.0704  -21.1997   22.2664 H   0  0  0  0  0  0
  -29.6264  -21.8722   22.0479 H   0  0  0  0  0  0
  -28.3423  -22.4498   19.5684 H   0  0  0  0  0  0
  -28.9839  -15.4237   21.2666 H   0  0  0  0  0  0
  1 25  1  0  0  0
  1 30  2  0  0  0
  1 84  1  0  0  0
  2  3  1  0  0  0
  2 25  1  0  0  0
  2 86  1  0  0  0
  2 87  1  0  0  0
  3  4  1  0  0  0
  3 88  1  0  0  0
  3 89  1  0  0  0
  4  5  1  0  0  0
  4 90  1  0  0  0
  4 91  1  0  0  0
  5  6  1  0  0  0
  5 26  1  0  0  0
  5 92  1  0  0  0
  6 25  1  0  0  0
  6 93  1  0  0  0
  6 94  1  0  0  0
  7  8  2  0  0  0
  7 26  1  0  0  0
  7 29  1  0  0  0
  8  9  1  0  0  0
  8 22  1  0  0  0
  9 10  1  0  0  0
  9 27  2  0  0  0
 10 11  2  0  0  0
 10 15  1  0  0  0
 11 12  1  0  0  0
 11 95  1  0  0  0
 12 13  2  0  0  0
 12 96  1  0  0  0
 13 14  1  0  0  0
 13 31  1  0  0  0
 14 15  2  0  0  0
 14 97  1  0  0  0
 15 98  1  0  0  0
 16 17  2  0  0  0
 16 21  1  0  0  0
 16 31  1  0  0  0
 17 18  1  0  0  0
 17 99  1  0  0  0
 18 19  2  0  0  0
 18100  1  0  0  0
 19 20  1  0  0  0
 19 24  1  0  0  0
 20 21  2  0  0  0
 20101  1  0  0  0
 21 23  1  0  0  0
 22 28  1  0  0  0
 22 32  2  0  0  0
 26 27  1  0  0  0
 28102  1  0  0  0
 28103  1  0  0  0
 29104  1  0  0  0
 29105  1  0  0  0
 33 34  1  0  0  0
 33 66  1  0  0  0
 33 70  2  0  0  0
 34 36  1  0  0  0
 34 59  1  0  0  0
 34106  1  0  0  0
 35 44  2  0  0  0
 35 45  1  0  0  0
 35 68  1  0  0  0
 36 56  1  0  0  0
 36107  1  0  0  0
 37 39  1  0  0  0
 37 47  1  0  0  0
 37 66  1  0  0  0
 37108  1  0  0  0
 38 43  2  0  0  0
 38 46  1  0  0  0
 38 47  1  0  0  0
 39 64  1  0  0  0
 39 67  2  0  0  0
 40 52  1  0  0  0
 40 53  2  0  0  0
 40 58  1  0  0  0
 41109  1  0  0  0
 41110  1  0  0  0
 41111  1  0  0  0
 41 48  1  0  0  0
 42 43  1  0  0  0
 42 66  1  0  0  0
 42112  1  0  0  0
 42113  1  0  0  0
 43 44  1  0  0  0
 44114  1  0  0  0
 45 46  2  0  0  0
 45115  1  0  0  0
 46116  1  0  0  0
 47117  1  0  0  0
 47118  1  0  0  0
 48 56  1  0  0  0
 48 65  1  0  0  0
 48119  1  0  0  0
 49 50  1  0  0  0
 49 53  1  0  0  0
 49 64  1  0  0  0
 49120  1  0  0  0
 50 51  1  0  0  0
 50121  1  0  0  0
 50122  1  0  0  0
 51 52  1  0  0  0
 51123  1  0  0  0
 51124  1  0  0  0
 52125  1  0  0  0
 52126  1  0  0  0
 53 54  1  0  0  0
 54 55  2  0  0  0
 54127  1  0  0  0
 55 57  1  0  0  0
 55128  1  0  0  0
 56 69  2  0  0  0
 57 58  2  0  0  0
 57129  1  0  0  0
 58130  1  0  0  0
 59 60  1  0  0  0
 59 61  1  0  0  0
 59 62  1  0  0  0
 60131  1  0  0  0
 60132  1  0  0  0
 60133  1  0  0  0
 61134  1  0  0  0
 61135  1  0  0  0
 61136  1  0  0  0
 62137  1  0  0  0
 62138  1  0  0  0
 62139  1  0  0  0
 63 65  1  0  0  0
 63140  1  0  0  0
 63141  1  0  0  0
 63142  1  0  0  0
 64143  1  0  0  0
 65144  1  0  0  0
 68 81  1  0  0  0
 71 72  2  0  0  0
 71 74  1  0  0  0
 71145  1  0  0  0
 72 75  1  0  0  0
 72146  1  0  0  0
 73 74  2  0  0  0
 73 76  1  0  0  0
 73147  1  0  0  0
 74 77  1  0  0  0
 75 76  2  0  0  0
 75 79  1  0  0  0
 76 85  1  0  0  0
 77148  1  0  0  0
 77149  1  0  0  0
 77150  1  0  0  0
 78151  1  0  0  0
 78152  1  0  0  0
 78153  1  0  0  0
 78 83  1  0  0  0
 79 84  1  0  0  0
 79154  1  0  0  0
 79155  1  0  0  0
 80 81  1  0  0  0
 80 83  1  0  0  0
 80156  1  0  0  0
 80157  1  0  0  0
 81158  1  0  0  0
 81159  1  0  0  0
 82 83  1  0  0  0
 82 85  1  0  0  0
 82160  1  0  0  0
 82161  1  0  0  0
 83162  1  0  0  0
 84163  1  0  0  0
M  ISO  4   1 100  68 101  81 101  84 100
M  END
> <chiral flag>
0

> <version>
0

> <s_m_source_file>
/data/baiqing/PycharmProjects/Reinvent-master-3.2/result/LINK_invent/BTK/process_docking_weight1_custom_product_contain_oxygen_bond_distance_aromatic_linkinvent_7_9_3/rearranged_h_0134.sdf

> <i_m_source_file_index>
51

> <r_mmod_Potential_Energy-OPLS-2005>
71.2880249023438

> <r_mmod_Stretch_Energy-OPLS-2005>
75.9138870239258

> <r_mmod_Bend_Energy-OPLS-2005>
163.56689453125

> <r_mmod_Torsional_Energy-OPLS-2005>
243.040405273438

> <r_mmod_Improper_Torsional_Energy-OPLS-2005>
4.80343961715698

> <r_mmod_Van_der_Waal_Energy-OPLS-2005>
158.984619140625

> <r_mmod_Electrostatic_Energy-OPLS-2005>
-404.872741699219

> <r_mmod_Solvation_Energy-OPLS-2005>
-203.38215637207

> <b_mmod_Minimization_Converged-OPLS-2005>
0

> <r_mmod_RMS_Derivative-OPLS-2005>
4.82733917236328

$$$$
51
                    3D
 Structure written by MMmdl.
165174  0  0  1  0            999 V2000
  -30.5665  -14.7692   20.4843 C   0  0  0  0  0  0
  -30.4432  -12.4648   19.4815 C   0  0  0  0  0  0
  -29.5121  -12.5109   18.2469 C   0  0  0  0  0  0
  -28.0429  -12.3138   18.6668 C   0  0  0  0  0  0
  -27.6436  -13.2226   19.8569 C   0  0  2  0  0  0
  -28.6881  -13.1496   20.9936 C   0  0  0  0  0  0
  -25.2519  -13.8170   20.5722 C   0  0  0  0  0  0
  -24.1805  -13.0420   20.9216 C   0  0  0  0  0  0
  -24.6395  -11.6897   20.8744 C   0  0  0  0  0  0
  -23.9063  -10.4277   21.0419 C   0  0  0  0  0  0
  -24.3621   -9.4191   21.9204 C   0  0  0  0  0  0
  -23.6299   -8.2229   22.0749 C   0  0  0  0  0  0
  -22.4271   -8.0281   21.3555 C   0  0  0  0  0  0
  -21.9921   -9.0238   20.4646 C   0  0  0  0  0  0
  -22.7234  -10.2130   20.3057 C   0  0  0  0  0  0
  -21.6858   -6.0742   22.5287 C   0  0  0  0  0  0
  -21.4012   -6.5654   23.8212 C   0  0  0  0  0  0
  -21.3649   -5.6798   24.9174 C   0  0  0  0  0  0
  -21.6048   -4.3061   24.7233 C   0  0  0  0  0  0
  -21.8808   -3.8155   23.4343 C   0  0  0  0  0  0
  -21.9188   -4.6967   22.3407 C   0  0  0  0  0  0
  -22.7826  -13.5197   21.1896 C   0  0  0  0  0  0
  -22.1648   -4.2162   21.0988 F   0  0  0  0  0  0
  -21.5634   -3.4540   25.7736 F   0  0  0  0  0  0
  -29.9927  -13.5139   20.4278 N   0  0  0  0  0  0
  -26.2954  -12.9371   20.3334 N   0  0  0  0  0  0
  -25.9325  -11.6519   20.5780 N   0  0  0  0  0  0
  -22.0499  -12.8164   22.0464 N   0  0  0  0  0  0
  -25.4214  -15.1887   20.4142 N   0  0  0  0  0  0
  -31.7329  -14.9004   20.0996 O   0  0  0  0  0  0
  -21.6631   -6.8884   21.4241 O   0  0  0  0  0  0
  -22.3500  -14.5516   20.6762 O   0  0  0  0  0  0
  -24.6299  -31.8531   23.1901 C   0  0  0  0  0  0
  -25.9131  -32.4693   23.8263 C   0  0  1  0  0  0
  -27.2336  -27.2613   20.1181 C   0  0  0  0  0  0
  -25.5950  -33.8517   24.2199 N   0  0  0  0  0  0
  -23.4262  -30.4679   21.5329 C   0  0  2  0  0  0
  -24.8743  -28.9131   20.0975 C   0  0  0  0  0  0
  -22.7509  -29.4571   22.4908 C   0  0  0  0  0  0
  -18.0301  -28.1344   22.8524 C   0  0  0  0  0  0
  -24.1511  -36.7269   23.2656 C   0  0  0  0  0  0
  -25.9695  -30.7586   21.3744 C   0  0  0  0  0  0
  -26.0394  -29.3825   20.7140 C   0  0  0  0  0  0
  -27.2130  -28.5635   20.7219 C   0  0  0  0  0  0
  -26.0492  -26.8546   19.4702 C   0  0  0  0  0  0
  -24.8864  -27.6571   19.4645 C   0  0  0  0  0  0
  -23.6383  -29.7942   20.1495 C   0  0  0  0  0  0
  -25.4119  -36.3027   24.0322 C   0  0  1  0  0  0
  -20.5905  -28.3646   23.1289 C   0  0  2  0  0  0
  -20.6806  -26.9373   22.5417 C   0  0  0  0  0  0
  -19.5772  -26.6333   21.5242 C   0  0  0  0  0  0
  -18.1937  -26.7899   22.1628 C   0  0  0  0  0  0
  -19.1560  -28.8814   23.2904 C   0  0  0  0  0  0
  -18.9486  -30.1433   23.8891 C   0  0  0  0  0  0
  -17.6489  -30.6576   24.0551 C   0  0  0  0  0  0
  -25.9064  -34.9402   23.5055 C   0  0  0  0  0  0
  -16.5377  -29.9054   23.6348 C   0  0  0  0  0  0
  -16.7289  -28.6461   23.0387 C   0  0  0  0  0  0
  -26.4511  -31.6562   25.0680 C   0  0  0  0  0  0
  -25.3753  -31.3698   26.1432 C   0  0  0  0  0  0
  -27.0412  -30.2996   24.6159 C   0  0  0  0  0  0
  -27.5998  -32.4382   25.7453 C   0  0  0  0  0  0
  -27.5579  -37.1785   24.8477 C   0  0  0  0  0  0
  -21.4207  -29.3019   22.3679 N   0  0  0  0  0  0
  -26.4286  -37.3732   23.9424 N   0  0  0  0  0  0
  -24.6932  -31.0491   22.0855 N   0  0  0  0  0  0
  -23.4230  -28.8114   23.3009 O   0  0  0  0  0  0
  -28.3344  -26.3860   20.2535 O   0  0  0  0  0  0
  -26.5641  -34.8913   22.4630 O   0  0  0  0  0  0
  -23.5432  -32.1370   23.7174 O   0  0  0  0  0  0
  -30.0731  -21.0529   22.4821 C   0  0  0  0  0  0
  -30.7463  -20.5797   23.6171 C   0  0  0  0  0  0
  -30.9063  -18.4029   22.5772 C   0  0  0  0  0  0
  -29.7907  -20.2466   21.3461 C   0  0  0  0  0  0
  -31.1727  -19.2506   23.6669 C   0  0  0  0  0  0
  -30.1959  -18.8147   21.4168 C   0  0  0  0  0  0
  -29.2610  -22.6706   20.1028 C   0  0  0  0  0  0
  -28.3240  -23.6595   19.8202 C   0  0  0  0  0  0
  -26.8786  -23.2232   19.5896 C   0  0  0  0  0  0
  -26.7169  -21.7053   19.3287 C   0  0  0  0  0  0
  -27.5157  -20.8328   20.3126 C   0  0  0  0  0  0
  -29.0326  -21.0821   20.2218 C   0  0  2  0  0  0
  -31.9081  -18.7319   24.8898 C   0  0  0  0  0  0
  -30.0394  -17.6118   20.3814 C   0  0  0  0  0  0
  -28.6158  -25.1841   19.4068 C   0  0  0  0  0  0
  -29.7334  -16.0859   20.9192 C   0  0  0  0  0  0
  -31.4808  -12.6040   19.1779 H   0  0  0  0  0  0
  -30.4011  -11.4853   19.9567 H   0  0  0  0  0  0
  -29.8000  -11.7414   17.5307 H   0  0  0  0  0  0
  -29.6211  -13.4680   17.7340 H   0  0  0  0  0  0
  -27.9277  -11.2677   18.9551 H   0  0  0  0  0  0
  -27.3708  -12.4720   17.8211 H   0  0  0  0  0  0
  -27.6390  -14.2388   19.4693 H   0  0  0  0  0  0
  -28.7238  -12.1477   21.4236 H   0  0  0  0  0  0
  -28.4149  -13.8159   21.8132 H   0  0  0  0  0  0
  -25.2768   -9.5674   22.4764 H   0  0  0  0  0  0
  -24.0006   -7.4623   22.7462 H   0  0  0  0  0  0
  -21.0853   -8.8753   19.8949 H   0  0  0  0  0  0
  -22.3693  -10.9668   19.6157 H   0  0  0  0  0  0
  -21.1994   -7.6149   23.9733 H   0  0  0  0  0  0
  -21.1488   -6.0526   25.9084 H   0  0  0  0  0  0
  -22.0593   -2.7613   23.2845 H   0  0  0  0  0  0
  -22.4137  -11.9798   22.4784 H   0  0  0  0  0  0
  -21.1130  -13.1179   22.2744 H   0  0  0  0  0  0
  -24.6554  -15.8416   20.5327 H   0  0  0  0  0  0
  -26.2785  -15.6355   20.1149 H   0  0  0  0  0  0
  -26.7158  -32.5358   23.0978 H   0  0  0  0  0  0
  -25.0248  -33.9648   25.0448 H   0  0  0  0  0  0
  -22.7250  -31.2916   21.3852 H   0  0  0  0  0  0
  -23.3769  -35.9625   23.3275 H   0  0  0  0  0  0
  -24.3623  -36.8921   22.2088 H   0  0  0  0  0  0
  -23.7266  -37.6453   23.6722 H   0  0  0  0  0  0
  -26.1271  -31.5143   20.6060 H   0  0  0  0  0  0
  -26.8388  -30.7952   22.0162 H   0  0  0  0  0  0
  -28.1011  -28.9126   21.2284 H   0  0  0  0  0  0
  -25.9914  -25.8871   18.9970 H   0  0  0  0  0  0
  -23.9941  -27.2867   18.9801 H   0  0  0  0  0  0
  -23.7465  -30.5709   19.3920 H   0  0  0  0  0  0
  -22.7601  -29.2183   19.8520 H   0  0  0  0  0  0
  -25.1285  -36.1858   25.0810 H   0  0  0  0  0  0
  -21.0020  -28.3198   24.1403 H   0  0  0  0  0  0
  -20.5788  -26.2237   23.3606 H   0  0  0  0  0  0
  -21.6646  -26.7440   22.1143 H   0  0  0  0  0  0
  -19.6940  -25.6248   21.1256 H   0  0  0  0  0  0
  -19.6684  -27.3171   20.6795 H   0  0  0  0  0  0
  -17.4224  -26.6729   21.3986 H   0  0  0  0  0  0
  -18.0261  -25.9995   22.8953 H   0  0  0  0  0  0
  -19.7969  -30.7273   24.2214 H   0  0  0  0  0  0
  -17.5031  -31.6266   24.5122 H   0  0  0  0  0  0
  -15.5378  -30.2943   23.7669 H   0  0  0  0  0  0
  -15.8683  -28.0752   22.7129 H   0  0  0  0  0  0
  -24.5958  -30.6972   25.7808 H   0  0  0  0  0  0
  -24.8934  -32.2868   26.4837 H   0  0  0  0  0  0
  -25.8118  -30.8943   27.0232 H   0  0  0  0  0  0
  -26.2986  -29.6681   24.1262 H   0  0  0  0  0  0
  -27.4227  -29.7278   25.4639 H   0  0  0  0  0  0
  -27.8787  -30.4292   23.9300 H   0  0  0  0  0  0
  -27.2522  -33.3721   26.1896 H   0  0  0  0  0  0
  -28.3864  -32.6902   25.0321 H   0  0  0  0  0  0
  -28.0631  -31.8650   26.5510 H   0  0  0  0  0  0
  -28.2541  -38.0135   24.7543 H   0  0  0  0  0  0
  -28.1115  -36.2656   24.6242 H   0  0  0  0  0  0
  -27.2328  -37.1325   25.8889 H   0  0  0  0  0  0
  -20.9375  -29.8755   21.6898 H   0  0  0  0  0  0
  -26.0153  -38.2806   24.1392 H   0  0  0  0  0  0
  -29.7598  -22.0875   22.5127 H   0  0  0  0  0  0
  -30.9349  -21.2470   24.4479 H   0  0  0  0  0  0
  -31.2764  -17.3901   22.6502 H   0  0  0  0  0  0
  -30.2963  -22.9781   20.1582 H   0  0  0  0  0  0
  -26.4777  -23.7461   18.7198 H   0  0  0  0  0  0
  -26.2800  -23.5365   20.4445 H   0  0  0  0  0  0
  -27.0355  -21.4757   18.3099 H   0  0  0  0  0  0
  -25.6599  -21.4439   19.3736 H   0  0  0  0  0  0
  -27.3005  -19.7766   20.1442 H   0  0  0  0  0  0
  -27.1748  -21.0585   21.3240 H   0  0  0  0  0  0
  -29.3911  -20.6787   19.2698 H   0  0  0  0  0  0
  -31.5739  -19.2427   25.7942 H   0  0  0  0  0  0
  -32.9816  -18.8884   24.7945 H   0  0  0  0  0  0
  -31.7367  -17.6660   25.0369 H   0  0  0  0  0  0
  -30.9541  -17.5845   19.7877 H   0  0  0  0  0  0
  -29.2552  -17.8940   19.6781 H   0  0  0  0  0  0
  -28.2072  -25.3525   18.4102 H   0  0  0  0  0  0
  -29.6954  -25.2328   19.2575 H   0  0  0  0  0  0
  -28.6968  -15.8976   20.6444 H   0  0  0  0  0  0
  -29.6948  -16.0687   22.0066 H   0  0  0  0  0  0
  1 25  1  0  0  0
  1 30  2  0  0  0
  1 86  1  0  0  0
  2  3  1  0  0  0
  2 25  1  0  0  0
  2 87  1  0  0  0
  2 88  1  0  0  0
  3  4  1  0  0  0
  3 89  1  0  0  0
  3 90  1  0  0  0
  4  5  1  0  0  0
  4 91  1  0  0  0
  4 92  1  0  0  0
  5  6  1  0  0  0
  5 26  1  0  0  0
  5 93  1  0  0  0
  6 25  1  0  0  0
  6 94  1  0  0  0
  6 95  1  0  0  0
  7  8  2  0  0  0
  7 26  1  0  0  0
  7 29  1  0  0  0
  8  9  1  0  0  0
  8 22  1  0  0  0
  9 10  1  0  0  0
  9 27  2  0  0  0
 10 11  2  0  0  0
 10 15  1  0  0  0
 11 12  1  0  0  0
 11 96  1  0  0  0
 12 13  2  0  0  0
 12 97  1  0  0  0
 13 14  1  0  0  0
 13 31  1  0  0  0
 14 15  2  0  0  0
 14 98  1  0  0  0
 15 99  1  0  0  0
 16 17  2  0  0  0
 16 21  1  0  0  0
 16 31  1  0  0  0
 17 18  1  0  0  0
 17100  1  0  0  0
 18 19  2  0  0  0
 18101  1  0  0  0
 19 20  1  0  0  0
 19 24  1  0  0  0
 20 21  2  0  0  0
 20102  1  0  0  0
 21 23  1  0  0  0
 22 28  1  0  0  0
 22 32  2  0  0  0
 26 27  1  0  0  0
 28103  1  0  0  0
 28104  1  0  0  0
 29105  1  0  0  0
 29106  1  0  0  0
 33 34  1  0  0  0
 33 66  1  0  0  0
 33 70  2  0  0  0
 34 36  1  0  0  0
 34 59  1  0  0  0
 34107  1  0  0  0
 35 44  2  0  0  0
 35 45  1  0  0  0
 35 68  1  0  0  0
 36 56  1  0  0  0
 36108  1  0  0  0
 37 39  1  0  0  0
 37 47  1  0  0  0
 37 66  1  0  0  0
 37109  1  0  0  0
 38 43  2  0  0  0
 38 46  1  0  0  0
 38 47  1  0  0  0
 39 64  1  0  0  0
 39 67  2  0  0  0
 40 52  1  0  0  0
 40 53  2  0  0  0
 40 58  1  0  0  0
 41110  1  0  0  0
 41111  1  0  0  0
 41112  1  0  0  0
 41 48  1  0  0  0
 42 43  1  0  0  0
 42 66  1  0  0  0
 42113  1  0  0  0
 42114  1  0  0  0
 43 44  1  0  0  0
 44115  1  0  0  0
 45 46  2  0  0  0
 45116  1  0  0  0
 46117  1  0  0  0
 47118  1  0  0  0
 47119  1  0  0  0
 48 56  1  0  0  0
 48 65  1  0  0  0
 48120  1  0  0  0
 49 50  1  0  0  0
 49 53  1  0  0  0
 49 64  1  0  0  0
 49121  1  0  0  0
 50 51  1  0  0  0
 50122  1  0  0  0
 50123  1  0  0  0
 51 52  1  0  0  0
 51124  1  0  0  0
 51125  1  0  0  0
 52126  1  0  0  0
 52127  1  0  0  0
 53 54  1  0  0  0
 54 55  2  0  0  0
 54128  1  0  0  0
 55 57  1  0  0  0
 55129  1  0  0  0
 56 69  2  0  0  0
 57 58  2  0  0  0
 57130  1  0  0  0
 58131  1  0  0  0
 59 60  1  0  0  0
 59 61  1  0  0  0
 59 62  1  0  0  0
 60132  1  0  0  0
 60133  1  0  0  0
 60134  1  0  0  0
 61135  1  0  0  0
 61136  1  0  0  0
 61137  1  0  0  0
 62138  1  0  0  0
 62139  1  0  0  0
 62140  1  0  0  0
 63 65  1  0  0  0
 63141  1  0  0  0
 63142  1  0  0  0
 63143  1  0  0  0
 64144  1  0  0  0
 65145  1  0  0  0
 68 85  1  0  0  0
 71 72  2  0  0  0
 71 74  1  0  0  0
 71146  1  0  0  0
 72 75  1  0  0  0
 72147  1  0  0  0
 73 75  2  0  0  0
 73 76  1  0  0  0
 73148  1  0  0  0
 74 76  2  0  0  0
 74 82  1  0  0  0
 75 83  1  0  0  0
 76 84  1  0  0  0
 77 78  2  0  0  0
 77 82  1  0  0  0
 77149  1  0  0  0
 78 79  1  0  0  0
 78 85  1  0  0  0
 79 80  1  0  0  0
 79150  1  0  0  0
 79151  1  0  0  0
 80 81  1  0  0  0
 80152  1  0  0  0
 80153  1  0  0  0
 81 82  1  0  0  0
 81154  1  0  0  0
 81155  1  0  0  0
 82156  1  0  0  0
 83157  1  0  0  0
 83158  1  0  0  0
 83159  1  0  0  0
 84 86  1  0  0  0
 84160  1  0  0  0
 84161  1  0  0  0
 85162  1  0  0  0
 85163  1  0  0  0
 86164  1  0  0  0
 86165  1  0  0  0
M  ISO  4   1 100  68 101  85 101  86 100
M  END
> <chiral flag>
0

> <version>
0

> <s_m_source_file>
/data/baiqing/PycharmProjects/Reinvent-master-3.2/result/LINK_invent/BTK/process_docking_weight1_custom_product_contain_oxygen_bond_distance_aromatic_linkinvent_7_9_3/rearranged_h_0134.sdf

> <i_m_source_file_index>
52

> <r_mmod_Potential_Energy-OPLS-2005>
276.972717285156

> <r_mmod_Stretch_Energy-OPLS-2005>
150.326690673828

> <r_mmod_Bend_Energy-OPLS-2005>
222.070434570312

> <r_mmod_Torsional_Energy-OPLS-2005>
197.594512939453

> <r_mmod_Improper_Torsional_Energy-OPLS-2005>
3.57373738288879

> <r_mmod_Van_der_Waal_Energy-OPLS-2005>
139.810913085938

> <r_mmod_Electrostatic_Energy-OPLS-2005>
-337.251708984375

> <r_mmod_Solvation_Energy-OPLS-2005>
-191.349197387695

> <b_mmod_Minimization_Converged-OPLS-2005>
0

> <r_mmod_RMS_Derivative-OPLS-2005>
4.44699430465698

$$$$
52
                    3D
 Structure written by MMmdl.
159167  0  0  1  0            999 V2000
  -30.6206  -14.6050   20.5299 C   0  0  0  0  0  0
  -30.4463  -12.3725   19.4535 C   0  0  0  0  0  0
  -29.5177  -12.5047   18.2252 C   0  0  0  0  0  0
  -28.0355  -12.3517   18.6285 C   0  0  0  0  0  0
  -27.6583  -13.2114   19.8649 C   0  0  2  0  0  0
  -28.6981  -13.0319   20.9955 C   0  0  0  0  0  0
  -25.2556  -13.8146   20.5590 C   0  0  0  0  0  0
  -24.1817  -13.0450   20.9178 C   0  0  0  0  0  0
  -24.6377  -11.6916   20.8740 C   0  0  0  0  0  0
  -23.9029  -10.4320   21.0411 C   0  0  0  0  0  0
  -24.3586   -9.4248   21.9202 C   0  0  0  0  0  0
  -23.6281   -8.2268   22.0761 C   0  0  0  0  0  0
  -22.4269   -8.0294   21.3547 C   0  0  0  0  0  0
  -21.9893   -9.0267   20.4652 C   0  0  0  0  0  0
  -22.7202  -10.2163   20.3059 C   0  0  0  0  0  0
  -21.6858   -6.0735   22.5282 C   0  0  0  0  0  0
  -21.4005   -6.5633   23.8215 C   0  0  0  0  0  0
  -21.3654   -5.6780   24.9182 C   0  0  0  0  0  0
  -21.6042   -4.3043   24.7223 C   0  0  0  0  0  0
  -21.8816   -3.8139   23.4343 C   0  0  0  0  0  0
  -21.9189   -4.6960   22.3411 C   0  0  0  0  0  0
  -22.7833  -13.5277   21.1833 C   0  0  0  0  0  0
  -22.1664   -4.2146   21.0982 F   0  0  0  0  0  0
  -21.5643   -3.4528   25.7739 F   0  0  0  0  0  0
  -30.0190  -13.3782   20.4457 N   0  0  0  0  0  0
  -26.2995  -12.9327   20.3271 N   0  0  0  0  0  0
  -25.9310  -11.6496   20.5743 N   0  0  0  0  0  0
  -22.0409  -12.8325   22.0377 N   0  0  0  0  0  0
  -25.4259  -15.1846   20.3866 N   0  0  0  0  0  0
  -31.7691  -14.7834   20.1114 O   0  0  0  0  0  0
  -21.6649   -6.8882   21.4239 O   0  0  0  0  0  0
  -22.3545  -14.5585   20.6668 O   0  0  0  0  0  0
  -24.6217  -31.8625   23.2051 C   0  0  0  0  0  0
  -25.9079  -32.4786   23.8387 C   0  0  1  0  0  0
  -27.2324  -27.3537   20.1122 C   0  0  0  0  0  0
  -25.5912  -33.8584   24.2310 N   0  0  0  0  0  0
  -23.4141  -30.4870   21.5470 C   0  0  2  0  0  0
  -24.8631  -28.9465   20.1129 C   0  0  0  0  0  0
  -22.7450  -29.4636   22.4953 C   0  0  0  0  0  0
  -18.0268  -28.1416   22.8490 C   0  0  0  0  0  0
  -24.1491  -36.7294   23.2637 C   0  0  0  0  0  0
  -25.9533  -30.8046   21.3709 C   0  0  0  0  0  0
  -26.0305  -29.4354   20.7117 C   0  0  0  0  0  0
  -27.2195  -28.6514   20.7035 C   0  0  0  0  0  0
  -26.0429  -26.9135   19.4856 C   0  0  0  0  0  0
  -24.8685  -27.6885   19.4921 C   0  0  0  0  0  0
  -23.6271  -29.8201   20.1634 C   0  0  0  0  0  0
  -25.4109  -36.3071   24.0339 C   0  0  1  0  0  0
  -20.5865  -28.3691   23.1307 C   0  0  2  0  0  0
  -20.6747  -26.9424   22.5405 C   0  0  0  0  0  0
  -19.5715  -26.6402   21.5215 C   0  0  0  0  0  0
  -18.1897  -26.7959   22.1629 C   0  0  0  0  0  0
  -19.1523  -28.8873   23.2891 C   0  0  0  0  0  0
  -18.9446  -30.1482   23.8895 C   0  0  0  0  0  0
  -17.6452  -30.6615   24.0575 C   0  0  0  0  0  0
  -25.9039  -34.9448   23.5127 C   0  0  0  0  0  0
  -16.5344  -29.9111   23.6358 C   0  0  0  0  0  0
  -16.7262  -28.6539   23.0362 C   0  0  0  0  0  0
  -26.4470  -31.6573   25.0734 C   0  0  0  0  0  0
  -25.3723  -31.3693   26.1481 C   0  0  0  0  0  0
  -27.0309  -30.3005   24.6154 C   0  0  0  0  0  0
  -27.6062  -32.4285   25.7494 C   0  0  0  0  0  0
  -27.5582  -37.1811   24.8464 C   0  0  0  0  0  0
  -21.4166  -29.3069   22.3735 N   0  0  0  0  0  0
  -26.4282  -37.3764   23.9408 N   0  0  0  0  0  0
  -24.6815  -31.0676   22.0980 N   0  0  0  0  0  0
  -23.4187  -28.8146   23.2996 O   0  0  0  0  0  0
  -28.3590  -26.5259   20.1638 O   0  0  0  0  0  0
  -26.5592  -34.8915   22.4679 O   0  0  0  0  0  0
  -23.5402  -32.1417   23.7406 O   0  0  0  0  0  0
  -30.9822  -19.1798   20.1184 C   0  0  0  0  0  0
  -30.9453  -17.7610   20.1991 C   0  0  0  0  0  0
  -28.9227  -19.3239   21.3500 C   0  0  0  0  0  0
  -29.9843  -19.9997   20.7001 C   0  0  0  0  0  0
  -28.8691  -17.8976   21.4303 C   0  0  0  0  0  0
  -29.8967  -17.0770   20.8669 C   0  0  0  0  0  0
  -27.6824  -17.2885   22.1692 C   0  0  0  0  0  0
  -29.8639  -24.5109   21.9260 C   0  0  0  0  0  0
  -30.1737  -21.5543   20.7364 C   0  0  0  0  0  0
  -28.9720  -22.5533   20.4917 C   0  0  0  0  0  0
  -28.1241  -25.0726   20.1436 C   0  0  0  0  0  0
  -29.3141  -24.1112   20.5433 C   0  0  1  0  0  0
  -29.8223  -15.6211   20.9810 N   0  0  0  0  0  0
  -31.4876  -12.5057   19.1514 H   0  0  0  0  0  0
  -30.3898  -11.3710   19.8834 H   0  0  0  0  0  0
  -29.7839  -11.7557   17.4790 H   0  0  0  0  0  0
  -29.6746  -13.4743   17.7500 H   0  0  0  0  0  0
  -27.8593  -11.2982   18.8462 H   0  0  0  0  0  0
  -27.3893  -12.5958   17.7853 H   0  0  0  0  0  0
  -27.6881  -14.2534   19.5444 H   0  0  0  0  0  0
  -28.7035  -12.0004   21.3504 H   0  0  0  0  0  0
  -28.4407  -13.6354   21.8671 H   0  0  0  0  0  0
  -25.2728   -9.5741   22.4780 H   0  0  0  0  0  0
  -24.0007   -7.4656   22.7471 H   0  0  0  0  0  0
  -21.0832   -8.8763   19.8956 H   0  0  0  0  0  0
  -22.3651  -10.9689   19.6155 H   0  0  0  0  0  0
  -21.1984   -7.6140   23.9723 H   0  0  0  0  0  0
  -21.1484   -6.0508   25.9087 H   0  0  0  0  0  0
  -22.0599   -2.7595   23.2838 H   0  0  0  0  0  0
  -22.3959  -12.0019   22.4859 H   0  0  0  0  0  0
  -21.1021  -13.1412   22.2494 H   0  0  0  0  0  0
  -24.6514  -15.8349   20.4683 H   0  0  0  0  0  0
  -26.2585  -15.6039   19.9919 H   0  0  0  0  0  0
  -26.7157  -32.5465   23.1163 H   0  0  0  0  0  0
  -25.0085  -33.9736   25.0473 H   0  0  0  0  0  0
  -22.7071  -31.3067   21.4050 H   0  0  0  0  0  0
  -23.3742  -35.9635   23.3293 H   0  0  0  0  0  0
  -24.3589  -36.8905   22.2051 H   0  0  0  0  0  0
  -23.7276  -37.6518   23.6647 H   0  0  0  0  0  0
  -26.0835  -31.5719   20.6066 H   0  0  0  0  0  0
  -26.8351  -30.8543   21.9977 H   0  0  0  0  0  0
  -28.1145  -29.0242   21.1837 H   0  0  0  0  0  0
  -25.9927  -25.9589   18.9847 H   0  0  0  0  0  0
  -23.9755  -27.3046   19.0168 H   0  0  0  0  0  0
  -23.7379  -30.5947   19.4036 H   0  0  0  0  0  0
  -22.7515  -29.2421   19.8653 H   0  0  0  0  0  0
  -25.1296  -36.1925   25.0833 H   0  0  0  0  0  0
  -20.9973  -28.3240   24.1420 H   0  0  0  0  0  0
  -20.5646  -26.2297   23.3587 H   0  0  0  0  0  0
  -21.6613  -26.7447   22.1203 H   0  0  0  0  0  0
  -19.6836  -25.6297   21.1276 H   0  0  0  0  0  0
  -19.6664  -27.3190   20.6723 H   0  0  0  0  0  0
  -17.4170  -26.6733   21.4028 H   0  0  0  0  0  0
  -18.0281  -26.0120   22.9047 H   0  0  0  0  0  0
  -19.7915  -30.7312   24.2257 H   0  0  0  0  0  0
  -17.5007  -31.6297   24.5165 H   0  0  0  0  0  0
  -15.5349  -30.3019   23.7687 H   0  0  0  0  0  0
  -15.8659  -28.0879   22.7063 H   0  0  0  0  0  0
  -24.5896  -30.7031   25.7832 H   0  0  0  0  0  0
  -24.8900  -32.2838   26.4949 H   0  0  0  0  0  0
  -25.8073  -30.8862   27.0237 H   0  0  0  0  0  0
  -26.2866  -29.6770   24.1183 H   0  0  0  0  0  0
  -27.4035  -29.7247   25.4639 H   0  0  0  0  0  0
  -27.8726  -30.4321   23.9348 H   0  0  0  0  0  0
  -27.2709  -33.3597   26.2086 H   0  0  0  0  0  0
  -28.3863  -32.6823   25.0296 H   0  0  0  0  0  0
  -28.0734  -31.8380   26.5393 H   0  0  0  0  0  0
  -28.2595  -38.0113   24.7508 H   0  0  0  0  0  0
  -28.1082  -36.2651   24.6278 H   0  0  0  0  0  0
  -27.2298  -37.1453   25.8864 H   0  0  0  0  0  0
  -20.9314  -29.8887   21.7052 H   0  0  0  0  0  0
  -26.0162  -38.2830   24.1409 H   0  0  0  0  0  0
  -31.8265  -19.6401   19.6237 H   0  0  0  0  0  0
  -31.7572  -17.2133   19.7443 H   0  0  0  0  0  0
  -28.1470  -19.9100   21.8215 H   0  0  0  0  0  0
  -27.8378  -17.3367   23.2491 H   0  0  0  0  0  0
  -27.4992  -16.2482   21.9030 H   0  0  0  0  0  0
  -26.7680  -17.8406   21.9409 H   0  0  0  0  0  0
  -30.8038  -24.0070   22.1483 H   0  0  0  0  0  0
  -29.1571  -24.2729   22.7220 H   0  0  0  0  0  0
  -30.0673  -25.5811   21.9767 H   0  0  0  0  0  0
  -30.9600  -21.8073   20.0236 H   0  0  0  0  0  0
  -30.6008  -21.7634   21.7176 H   0  0  0  0  0  0
  -28.1836  -22.3390   21.2147 H   0  0  0  0  0  0
  -28.5379  -22.3330   19.5163 H   0  0  0  0  0  0
  -27.2841  -24.8513   20.8038 H   0  0  0  0  0  0
  -27.8078  -24.7880   19.1399 H   0  0  0  0  0  0
  -30.1075  -24.2872   19.8150 H   0  0  0  0  0  0
  -28.9535  -15.2829   21.3631 H   0  0  0  0  0  0
  1 25  1  0  0  0
  1 30  2  0  0  0
  1 83  1  0  0  0
  2  3  1  0  0  0
  2 25  1  0  0  0
  2 84  1  0  0  0
  2 85  1  0  0  0
  3  4  1  0  0  0
  3 86  1  0  0  0
  3 87  1  0  0  0
  4  5  1  0  0  0
  4 88  1  0  0  0
  4 89  1  0  0  0
  5  6  1  0  0  0
  5 26  1  0  0  0
  5 90  1  0  0  0
  6 25  1  0  0  0
  6 91  1  0  0  0
  6 92  1  0  0  0
  7  8  2  0  0  0
  7 26  1  0  0  0
  7 29  1  0  0  0
  8  9  1  0  0  0
  8 22  1  0  0  0
  9 10  1  0  0  0
  9 27  2  0  0  0
 10 11  2  0  0  0
 10 15  1  0  0  0
 11 12  1  0  0  0
 11 93  1  0  0  0
 12 13  2  0  0  0
 12 94  1  0  0  0
 13 14  1  0  0  0
 13 31  1  0  0  0
 14 15  2  0  0  0
 14 95  1  0  0  0
 15 96  1  0  0  0
 16 17  2  0  0  0
 16 21  1  0  0  0
 16 31  1  0  0  0
 17 18  1  0  0  0
 17 97  1  0  0  0
 18 19  2  0  0  0
 18 98  1  0  0  0
 19 20  1  0  0  0
 19 24  1  0  0  0
 20 21  2  0  0  0
 20 99  1  0  0  0
 21 23  1  0  0  0
 22 28  1  0  0  0
 22 32  2  0  0  0
 26 27  1  0  0  0
 28100  1  0  0  0
 28101  1  0  0  0
 29102  1  0  0  0
 29103  1  0  0  0
 33 34  1  0  0  0
 33 66  1  0  0  0
 33 70  2  0  0  0
 34 36  1  0  0  0
 34 59  1  0  0  0
 34104  1  0  0  0
 35 44  2  0  0  0
 35 45  1  0  0  0
 35 68  1  0  0  0
 36 56  1  0  0  0
 36105  1  0  0  0
 37 39  1  0  0  0
 37 47  1  0  0  0
 37 66  1  0  0  0
 37106  1  0  0  0
 38 43  2  0  0  0
 38 46  1  0  0  0
 38 47  1  0  0  0
 39 64  1  0  0  0
 39 67  2  0  0  0
 40 52  1  0  0  0
 40 53  2  0  0  0
 40 58  1  0  0  0
 41107  1  0  0  0
 41108  1  0  0  0
 41109  1  0  0  0
 41 48  1  0  0  0
 42 43  1  0  0  0
 42 66  1  0  0  0
 42110  1  0  0  0
 42111  1  0  0  0
 43 44  1  0  0  0
 44112  1  0  0  0
 45 46  2  0  0  0
 45113  1  0  0  0
 46114  1  0  0  0
 47115  1  0  0  0
 47116  1  0  0  0
 48 56  1  0  0  0
 48 65  1  0  0  0
 48117  1  0  0  0
 49 50  1  0  0  0
 49 53  1  0  0  0
 49 64  1  0  0  0
 49118  1  0  0  0
 50 51  1  0  0  0
 50119  1  0  0  0
 50120  1  0  0  0
 51 52  1  0  0  0
 51121  1  0  0  0
 51122  1  0  0  0
 52123  1  0  0  0
 52124  1  0  0  0
 53 54  1  0  0  0
 54 55  2  0  0  0
 54125  1  0  0  0
 55 57  1  0  0  0
 55126  1  0  0  0
 56 69  2  0  0  0
 57 58  2  0  0  0
 57127  1  0  0  0
 58128  1  0  0  0
 59 60  1  0  0  0
 59 61  1  0  0  0
 59 62  1  0  0  0
 60129  1  0  0  0
 60130  1  0  0  0
 60131  1  0  0  0
 61132  1  0  0  0
 61133  1  0  0  0
 61134  1  0  0  0
 62135  1  0  0  0
 62136  1  0  0  0
 62137  1  0  0  0
 63 65  1  0  0  0
 63138  1  0  0  0
 63139  1  0  0  0
 63140  1  0  0  0
 64141  1  0  0  0
 65142  1  0  0  0
 68 81  1  0  0  0
 71 72  2  0  0  0
 71 74  1  0  0  0
 71143  1  0  0  0
 72 76  1  0  0  0
 72144  1  0  0  0
 73 74  2  0  0  0
 73 75  1  0  0  0
 73145  1  0  0  0
 74 79  1  0  0  0
 75 76  2  0  0  0
 75 77  1  0  0  0
 76 83  1  0  0  0
 77146  1  0  0  0
 77147  1  0  0  0
 77148  1  0  0  0
 78149  1  0  0  0
 78150  1  0  0  0
 78151  1  0  0  0
 78 82  1  0  0  0
 79 80  1  0  0  0
 79152  1  0  0  0
 79153  1  0  0  0
 80 82  1  0  0  0
 80154  1  0  0  0
 80155  1  0  0  0
 81 82  1  0  0  0
 81156  1  0  0  0
 81157  1  0  0  0
 82158  1  0  0  0
 83159  1  0  0  0
M  ISO  4   1 100  68 101  81 101  83 100
M  END
> <chiral flag>
0

> <version>
0

> <s_m_source_file>
/data/baiqing/PycharmProjects/Reinvent-master-3.2/result/LINK_invent/BTK/process_docking_weight1_custom_product_contain_oxygen_bond_distance_aromatic_linkinvent_7_9_3/rearranged_h_0134.sdf

> <i_m_source_file_index>
53

> <r_mmod_Potential_Energy-OPLS-2005>
15.8904638290405

> <r_mmod_Stretch_Energy-OPLS-2005>
70.5188446044922

> <r_mmod_Bend_Energy-OPLS-2005>
128.081344604492

> <r_mmod_Torsional_Energy-OPLS-2005>
215.542877197266

> <r_mmod_Improper_Torsional_Energy-OPLS-2005>
4.20820188522339

> <r_mmod_Van_der_Waal_Energy-OPLS-2005>
145.297241210938

> <r_mmod_Electrostatic_Energy-OPLS-2005>
-389.328765869141

> <r_mmod_Solvation_Energy-OPLS-2005>
-195.099517822266

> <b_mmod_Minimization_Converged-OPLS-2005>
0

> <r_mmod_RMS_Derivative-OPLS-2005>
2.95085787773132

$$$$
53
                    3D
 Structure written by MMmdl.
156165  0  0  1  0            999 V2000
  -30.7030  -14.5072   20.5255 C   0  0  0  0  0  0
  -30.4175  -12.3166   19.4305 C   0  0  0  0  0  0
  -29.4929  -12.4945   18.2085 C   0  0  0  0  0  0
  -28.0136  -12.3604   18.6220 C   0  0  0  0  0  0
  -27.6564  -13.2117   19.8710 C   0  0  2  0  0  0
  -28.7031  -13.0190   20.9913 C   0  0  0  0  0  0
  -25.2576  -13.8174   20.5703 C   0  0  0  0  0  0
  -24.1829  -13.0444   20.9186 C   0  0  0  0  0  0
  -24.6389  -11.6913   20.8743 C   0  0  0  0  0  0
  -23.9057  -10.4294   21.0405 C   0  0  0  0  0  0
  -24.3610   -9.4210   21.9183 C   0  0  0  0  0  0
  -23.6286   -8.2245   22.0753 C   0  0  0  0  0  0
  -22.4270   -8.0281   21.3543 C   0  0  0  0  0  0
  -21.9904   -9.0253   20.4645 C   0  0  0  0  0  0
  -22.7231  -10.2134   20.3053 C   0  0  0  0  0  0
  -21.6852   -6.0734   22.5277 C   0  0  0  0  0  0
  -21.4015   -6.5638   23.8211 C   0  0  0  0  0  0
  -21.3659   -5.6790   24.9173 C   0  0  0  0  0  0
  -21.6042   -4.3053   24.7224 C   0  0  0  0  0  0
  -21.8819   -3.8145   23.4345 C   0  0  0  0  0  0
  -21.9193   -4.6962   22.3401 C   0  0  0  0  0  0
  -22.7853  -13.5240   21.1845 C   0  0  0  0  0  0
  -22.1662   -4.2149   21.0978 F   0  0  0  0  0  0
  -21.5629   -3.4537   25.7735 F   0  0  0  0  0  0
  -30.0217  -13.3298   20.4231 N   0  0  0  0  0  0
  -26.3007  -12.9347   20.3377 N   0  0  0  0  0  0
  -25.9320  -11.6503   20.5785 N   0  0  0  0  0  0
  -22.0494  -12.8228   22.0399 N   0  0  0  0  0  0
  -25.4304  -15.1891   20.4124 N   0  0  0  0  0  0
  -31.8788  -14.5977   20.1566 O   0  0  0  0  0  0
  -21.6638   -6.8876   21.4238 O   0  0  0  0  0  0
  -22.3541  -14.5548   20.6698 O   0  0  0  0  0  0
  -24.6175  -31.8678   23.2111 C   0  0  0  0  0  0
  -25.9060  -32.4821   23.8405 C   0  0  1  0  0  0
  -27.2224  -27.4081   20.0935 C   0  0  0  0  0  0
  -25.5912  -33.8620   24.2333 N   0  0  0  0  0  0
  -23.4053  -30.4948   21.5531 C   0  0  2  0  0  0
  -24.8487  -28.9661   20.1121 C   0  0  0  0  0  0
  -22.7424  -29.4663   22.4984 C   0  0  0  0  0  0
  -18.0275  -28.1377   22.8495 C   0  0  0  0  0  0
  -24.1488  -36.7314   23.2637 C   0  0  0  0  0  0
  -25.9391  -30.8257   21.3692 C   0  0  0  0  0  0
  -26.0138  -29.4610   20.7109 C   0  0  0  0  0  0
  -27.2040  -28.6908   20.6978 C   0  0  0  0  0  0
  -26.0344  -26.9480   19.4726 C   0  0  0  0  0  0
  -24.8556  -27.7104   19.4888 C   0  0  0  0  0  0
  -23.6133  -29.8352   20.1656 C   0  0  0  0  0  0
  -25.4108  -36.3111   24.0338 C   0  0  1  0  0  0
  -20.5869  -28.3670   23.1311 C   0  0  2  0  0  0
  -20.6765  -26.9405   22.5414 C   0  0  0  0  0  0
  -19.5742  -26.6386   21.5212 C   0  0  0  0  0  0
  -18.1922  -26.7924   22.1626 C   0  0  0  0  0  0
  -19.1525  -28.8840   23.2900 C   0  0  0  0  0  0
  -18.9451  -30.1445   23.8911 C   0  0  0  0  0  0
  -17.6454  -30.6585   24.0566 C   0  0  0  0  0  0
  -25.9039  -34.9476   23.5131 C   0  0  0  0  0  0
  -16.5345  -29.9087   23.6326 C   0  0  0  0  0  0
  -16.7264  -28.6501   23.0351 C   0  0  0  0  0  0
  -26.4478  -31.6598   25.0737 C   0  0  0  0  0  0
  -25.3739  -31.3703   26.1481 C   0  0  0  0  0  0
  -27.0309  -30.3038   24.6122 C   0  0  0  0  0  0
  -27.6055  -32.4314   25.7499 C   0  0  0  0  0  0
  -27.5584  -37.1810   24.8463 C   0  0  0  0  0  0
  -21.4150  -29.3040   22.3721 N   0  0  0  0  0  0
  -26.4293  -37.3797   23.9412 N   0  0  0  0  0  0
  -24.6726  -31.0766   22.1024 N   0  0  0  0  0  0
  -23.4191  -28.8194   23.3021 O   0  0  0  0  0  0
  -28.3671  -26.6242   20.1341 O   0  0  0  0  0  0
  -26.5598  -34.8926   22.4691 O   0  0  0  0  0  0
  -23.5361  -32.1439   23.7492 O   0  0  0  0  0  0
  -29.0917  -18.6466   22.6830 C   0  0  0  0  0  0
  -29.2980  -20.0105   22.3553 C   0  0  0  0  0  0
  -30.1492  -19.3818   20.1481 C   0  0  0  0  0  0
  -29.4385  -17.6680   21.7330 C   0  0  0  0  0  0
  -29.9389  -18.0293   20.4991 C   0  0  0  0  0  0
  -29.8401  -20.3917   21.0987 C   0  0  0  0  0  0
  -29.2865  -24.3060   20.4576 C   0  0  0  0  0  0
  -29.3650  -16.1600   21.8507 C   0  0  0  0  0  0
  -30.2297  -16.7888   19.6939 C   0  0  0  0  0  0
  -30.1723  -21.8659   20.8189 C   0  0  0  0  0  0
  -28.9506  -22.8044   20.6338 C   0  0  0  0  0  0
  -28.1495  -25.2054   19.9349 C   0  0  0  0  0  0
  -29.9404  -15.6338   20.5892 N   0  0  0  0  0  0
  -30.4051  -24.7598   20.7227 O   0  0  0  0  0  0
  -31.4626  -12.4033   19.1277 H   0  0  0  0  0  0
  -30.3133  -11.3148   19.8500 H   0  0  0  0  0  0
  -29.7340  -11.7566   17.4421 H   0  0  0  0  0  0
  -29.6611  -13.4729   17.7553 H   0  0  0  0  0  0
  -27.8250  -11.3062   18.8281 H   0  0  0  0  0  0
  -27.3633  -12.6261   17.7877 H   0  0  0  0  0  0
  -27.6894  -14.2554   19.5583 H   0  0  0  0  0  0
  -28.6894  -11.9890   21.3515 H   0  0  0  0  0  0
  -28.4748  -13.6316   21.8614 H   0  0  0  0  0  0
  -25.2754   -9.5689   22.4758 H   0  0  0  0  0  0
  -23.9997   -7.4636   22.7473 H   0  0  0  0  0  0
  -21.0837   -8.8768   19.8949 H   0  0  0  0  0  0
  -22.3687  -10.9672   19.6162 H   0  0  0  0  0  0
  -21.2008   -7.6147   23.9713 H   0  0  0  0  0  0
  -21.1482   -6.0522   25.9076 H   0  0  0  0  0  0
  -22.0599   -2.7608   23.2845 H   0  0  0  0  0  0
  -22.4108  -11.9883   22.4778 H   0  0  0  0  0  0
  -21.1115  -13.1256   22.2612 H   0  0  0  0  0  0
  -24.6670  -15.8472   20.5252 H   0  0  0  0  0  0
  -26.2896  -15.6286   20.1071 H   0  0  0  0  0  0
  -26.7131  -32.5524   23.1167 H   0  0  0  0  0  0
  -25.0065  -33.9783   25.0480 H   0  0  0  0  0  0
  -22.6946  -31.3128   21.4175 H   0  0  0  0  0  0
  -23.3748  -35.9650   23.3304 H   0  0  0  0  0  0
  -24.3582  -36.8923   22.2051 H   0  0  0  0  0  0
  -23.7240  -37.6522   23.6647 H   0  0  0  0  0  0
  -26.0568  -31.5935   20.6033 H   0  0  0  0  0  0
  -26.8252  -30.8743   21.9902 H   0  0  0  0  0  0
  -28.1001  -29.0666   21.1718 H   0  0  0  0  0  0
  -25.9851  -25.9949   18.9671 H   0  0  0  0  0  0
  -23.9619  -27.3269   19.0159 H   0  0  0  0  0  0
  -23.7241  -30.6139   19.4100 H   0  0  0  0  0  0
  -22.7354  -29.2594   19.8668 H   0  0  0  0  0  0
  -25.1280  -36.1977   25.0831 H   0  0  0  0  0  0
  -20.9960  -28.3235   24.1432 H   0  0  0  0  0  0
  -20.5671  -26.2278   23.3602 H   0  0  0  0  0  0
  -21.6635  -26.7448   22.1206 H   0  0  0  0  0  0
  -19.6904  -25.6302   21.1231 H   0  0  0  0  0  0
  -19.6677  -27.3205   20.6749 H   0  0  0  0  0  0
  -17.4192  -26.6677   21.4028 H   0  0  0  0  0  0
  -18.0322  -26.0061   22.9018 H   0  0  0  0  0  0
  -19.7927  -30.7257   24.2289 H   0  0  0  0  0  0
  -17.5009  -31.6266   24.5165 H   0  0  0  0  0  0
  -15.5346  -30.2993   23.7642 H   0  0  0  0  0  0
  -15.8664  -28.0825   22.7059 H   0  0  0  0  0  0
  -24.5917  -30.7044   25.7814 H   0  0  0  0  0  0
  -24.8925  -32.2857   26.4932 H   0  0  0  0  0  0
  -25.8092  -30.8870   27.0236 H   0  0  0  0  0  0
  -26.2858  -29.6802   24.1167 H   0  0  0  0  0  0
  -27.4062  -29.7269   25.4584 H   0  0  0  0  0  0
  -27.8702  -30.4351   23.9288 H   0  0  0  0  0  0
  -27.2679  -33.3608   26.2098 H   0  0  0  0  0  0
  -28.3855  -32.6880   25.0319 H   0  0  0  0  0  0
  -28.0733  -31.8423   26.5397 H   0  0  0  0  0  0
  -28.2595  -38.0114   24.7525 H   0  0  0  0  0  0
  -28.1088  -36.2647   24.6269 H   0  0  0  0  0  0
  -27.2306  -37.1436   25.8866 H   0  0  0  0  0  0
  -20.9309  -29.8779   21.6959 H   0  0  0  0  0  0
  -26.0183  -38.2875   24.1417 H   0  0  0  0  0  0
  -28.6966  -18.3652   23.6495 H   0  0  0  0  0  0
  -29.0638  -20.7685   23.0903 H   0  0  0  0  0  0
  -30.5717  -19.6355   19.1853 H   0  0  0  0  0  0
  -28.3229  -15.8589   21.9579 H   0  0  0  0  0  0
  -29.9219  -15.8170   22.7244 H   0  0  0  0  0  0
  -31.2622  -16.8265   19.3427 H   0  0  0  0  0  0
  -29.5798  -16.7491   18.8193 H   0  0  0  0  0  0
  -30.8078  -21.9258   19.9343 H   0  0  0  0  0  0
  -30.7853  -22.2262   21.6465 H   0  0  0  0  0  0
  -28.3690  -22.4800   19.7710 H   0  0  0  0  0  0
  -28.2930  -22.7191   21.4987 H   0  0  0  0  0  0
  -27.2422  -24.8887   20.4513 H   0  0  0  0  0  0
  -28.0143  -25.0028   18.8722 H   0  0  0  0  0  0
  1 25  1  0  0  0
  1 30  2  0  0  0
  1 83  1  0  0  0
  2  3  1  0  0  0
  2 25  1  0  0  0
  2 85  1  0  0  0
  2 86  1  0  0  0
  3  4  1  0  0  0
  3 87  1  0  0  0
  3 88  1  0  0  0
  4  5  1  0  0  0
  4 89  1  0  0  0
  4 90  1  0  0  0
  5  6  1  0  0  0
  5 26  1  0  0  0
  5 91  1  0  0  0
  6 25  1  0  0  0
  6 92  1  0  0  0
  6 93  1  0  0  0
  7  8  2  0  0  0
  7 26  1  0  0  0
  7 29  1  0  0  0
  8  9  1  0  0  0
  8 22  1  0  0  0
  9 10  1  0  0  0
  9 27  2  0  0  0
 10 11  2  0  0  0
 10 15  1  0  0  0
 11 12  1  0  0  0
 11 94  1  0  0  0
 12 13  2  0  0  0
 12 95  1  0  0  0
 13 14  1  0  0  0
 13 31  1  0  0  0
 14 15  2  0  0  0
 14 96  1  0  0  0
 15 97  1  0  0  0
 16 17  2  0  0  0
 16 21  1  0  0  0
 16 31  1  0  0  0
 17 18  1  0  0  0
 17 98  1  0  0  0
 18 19  2  0  0  0
 18 99  1  0  0  0
 19 20  1  0  0  0
 19 24  1  0  0  0
 20 21  2  0  0  0
 20100  1  0  0  0
 21 23  1  0  0  0
 22 28  1  0  0  0
 22 32  2  0  0  0
 26 27  1  0  0  0
 28101  1  0  0  0
 28102  1  0  0  0
 29103  1  0  0  0
 29104  1  0  0  0
 33 34  1  0  0  0
 33 66  1  0  0  0
 33 70  2  0  0  0
 34 36  1  0  0  0
 34 59  1  0  0  0
 34105  1  0  0  0
 35 44  2  0  0  0
 35 45  1  0  0  0
 35 68  1  0  0  0
 36 56  1  0  0  0
 36106  1  0  0  0
 37 39  1  0  0  0
 37 47  1  0  0  0
 37 66  1  0  0  0
 37107  1  0  0  0
 38 43  2  0  0  0
 38 46  1  0  0  0
 38 47  1  0  0  0
 39 64  1  0  0  0
 39 67  2  0  0  0
 40 52  1  0  0  0
 40 53  2  0  0  0
 40 58  1  0  0  0
 41108  1  0  0  0
 41109  1  0  0  0
 41110  1  0  0  0
 41 48  1  0  0  0
 42 43  1  0  0  0
 42 66  1  0  0  0
 42111  1  0  0  0
 42112  1  0  0  0
 43 44  1  0  0  0
 44113  1  0  0  0
 45 46  2  0  0  0
 45114  1  0  0  0
 46115  1  0  0  0
 47116  1  0  0  0
 47117  1  0  0  0
 48 56  1  0  0  0
 48 65  1  0  0  0
 48118  1  0  0  0
 49 50  1  0  0  0
 49 53  1  0  0  0
 49 64  1  0  0  0
 49119  1  0  0  0
 50 51  1  0  0  0
 50120  1  0  0  0
 50121  1  0  0  0
 51 52  1  0  0  0
 51122  1  0  0  0
 51123  1  0  0  0
 52124  1  0  0  0
 52125  1  0  0  0
 53 54  1  0  0  0
 54 55  2  0  0  0
 54126  1  0  0  0
 55 57  1  0  0  0
 55127  1  0  0  0
 56 69  2  0  0  0
 57 58  2  0  0  0
 57128  1  0  0  0
 58129  1  0  0  0
 59 60  1  0  0  0
 59 61  1  0  0  0
 59 62  1  0  0  0
 60130  1  0  0  0
 60131  1  0  0  0
 60132  1  0  0  0
 61133  1  0  0  0
 61134  1  0  0  0
 61135  1  0  0  0
 62136  1  0  0  0
 62137  1  0  0  0
 62138  1  0  0  0
 63 65  1  0  0  0
 63139  1  0  0  0
 63140  1  0  0  0
 63141  1  0  0  0
 64142  1  0  0  0
 65143  1  0  0  0
 68 82  1  0  0  0
 71 72  2  0  0  0
 71 74  1  0  0  0
 71144  1  0  0  0
 72 76  1  0  0  0
 72145  1  0  0  0
 73 75  1  0  0  0
 73 76  2  0  0  0
 73146  1  0  0  0
 74 75  2  0  0  0
 74 78  1  0  0  0
 75 79  1  0  0  0
 76 80  1  0  0  0
 77 81  1  0  0  0
 77 82  1  0  0  0
 77 84  2  0  0  0
 78 83  1  0  0  0
 78147  1  0  0  0
 78148  1  0  0  0
 79 83  1  0  0  0
 79149  1  0  0  0
 79150  1  0  0  0
 80 81  1  0  0  0
 80151  1  0  0  0
 80152  1  0  0  0
 81153  1  0  0  0
 81154  1  0  0  0
 82155  1  0  0  0
 82156  1  0  0  0
M  ISO  4   1 100  68 101  82 101  83 100
M  END
> <chiral flag>
0

> <version>
0

> <s_m_source_file>
/data/baiqing/PycharmProjects/Reinvent-master-3.2/result/LINK_invent/BTK/process_docking_weight1_custom_product_contain_oxygen_bond_distance_aromatic_linkinvent_7_9_3/rearranged_h_0134.sdf

> <i_m_source_file_index>
54

> <r_mmod_Potential_Energy-OPLS-2005>
79.3866119384766

> <r_mmod_Stretch_Energy-OPLS-2005>
45.3822250366211

> <r_mmod_Bend_Energy-OPLS-2005>
138.565826416016

> <r_mmod_Torsional_Energy-OPLS-2005>
250.795211791992

> <r_mmod_Improper_Torsional_Energy-OPLS-2005>
16.9672145843506

> <r_mmod_Van_der_Waal_Energy-OPLS-2005>
149.260787963867

> <r_mmod_Electrostatic_Energy-OPLS-2005>
-323.351318359375

> <r_mmod_Solvation_Energy-OPLS-2005>
-219.811813354492

> <b_mmod_Minimization_Converged-OPLS-2005>
0

> <r_mmod_RMS_Derivative-OPLS-2005>
0.336527973413467

$$$$
54
                    3D
 Structure written by MMmdl.
165173  0  0  1  0            999 V2000
  -30.6341  -14.5664   20.5637 C   0  0  0  0  0  0
  -30.4420  -12.3633   19.4338 C   0  0  0  0  0  0
  -29.5040  -12.5224   18.2156 C   0  0  0  0  0  0
  -28.0243  -12.3690   18.6247 C   0  0  0  0  0  0
  -27.6623  -13.2082   19.8790 C   0  0  2  0  0  0
  -28.7056  -12.9891   20.9978 C   0  0  0  0  0  0
  -25.2560  -13.8133   20.5609 C   0  0  0  0  0  0
  -24.1834  -13.0423   20.9166 C   0  0  0  0  0  0
  -24.6402  -11.6898   20.8745 C   0  0  0  0  0  0
  -23.9059  -10.4286   21.0412 C   0  0  0  0  0  0
  -24.3614   -9.4204   21.9189 C   0  0  0  0  0  0
  -23.6293   -8.2239   22.0754 C   0  0  0  0  0  0
  -22.4273   -8.0277   21.3546 C   0  0  0  0  0  0
  -21.9910   -9.0248   20.4643 C   0  0  0  0  0  0
  -22.7236  -10.2127   20.3058 C   0  0  0  0  0  0
  -21.6849   -6.0737   22.5281 C   0  0  0  0  0  0
  -21.4005   -6.5638   23.8214 C   0  0  0  0  0  0
  -21.3654   -5.6792   24.9175 C   0  0  0  0  0  0
  -21.6044   -4.3055   24.7223 C   0  0  0  0  0  0
  -21.8820   -3.8145   23.4346 C   0  0  0  0  0  0
  -21.9194   -4.6966   22.3405 C   0  0  0  0  0  0
  -22.7861  -13.5224   21.1835 C   0  0  0  0  0  0
  -22.1665   -4.2153   21.0982 F   0  0  0  0  0  0
  -21.5632   -3.4534   25.7737 F   0  0  0  0  0  0
  -30.0296  -13.3439   20.4564 N   0  0  0  0  0  0
  -26.3029  -12.9322   20.3373 N   0  0  0  0  0  0
  -25.9335  -11.6483   20.5798 N   0  0  0  0  0  0
  -22.0495  -12.8229   22.0396 N   0  0  0  0  0  0
  -25.4224  -15.1833   20.3896 N   0  0  0  0  0  0
  -31.7524  -14.7838   20.0844 O   0  0  0  0  0  0
  -21.6638   -6.8875   21.4242 O   0  0  0  0  0  0
  -22.3553  -14.5536   20.6691 O   0  0  0  0  0  0
  -24.6222  -31.8610   23.2030 C   0  0  0  0  0  0
  -25.9076  -32.4791   23.8355 C   0  0  1  0  0  0
  -27.2225  -27.3450   20.1282 C   0  0  0  0  0  0
  -25.5902  -33.8586   24.2277 N   0  0  0  0  0  0
  -23.4160  -30.4839   21.5433 C   0  0  2  0  0  0
  -24.8643  -28.9386   20.1111 C   0  0  0  0  0  0
  -22.7456  -29.4630   22.4932 C   0  0  0  0  0  0
  -18.0288  -28.1394   22.8501 C   0  0  0  0  0  0
  -24.1478  -36.7269   23.2646 C   0  0  0  0  0  0
  -25.9535  -30.8045   21.3663 C   0  0  0  0  0  0
  -26.0300  -29.4324   20.7110 C   0  0  0  0  0  0
  -27.2175  -28.6477   20.7055 C   0  0  0  0  0  0
  -26.0403  -26.8933   19.5070 C   0  0  0  0  0  0
  -24.8690  -27.6746   19.4986 C   0  0  0  0  0  0
  -23.6297  -29.8142   20.1592 C   0  0  0  0  0  0
  -25.4107  -36.3083   24.0342 C   0  0  1  0  0  0
  -20.5888  -28.3682   23.1293 C   0  0  2  0  0  0
  -20.6767  -26.9406   22.5414 C   0  0  0  0  0  0
  -19.5746  -26.6385   21.5215 C   0  0  0  0  0  0
  -18.1929  -26.7949   22.1631 C   0  0  0  0  0  0
  -19.1545  -28.8853   23.2900 C   0  0  0  0  0  0
  -18.9469  -30.1457   23.8912 C   0  0  0  0  0  0
  -17.6469  -30.6597   24.0571 C   0  0  0  0  0  0
  -25.9045  -34.9458   23.5113 C   0  0  0  0  0  0
  -16.5354  -29.9107   23.6331 C   0  0  0  0  0  0
  -16.7281  -28.6521   23.0353 C   0  0  0  0  0  0
  -26.4480  -31.6605   25.0715 C   0  0  0  0  0  0
  -25.3722  -31.3738   26.1447 C   0  0  0  0  0  0
  -27.0315  -30.3047   24.6132 C   0  0  0  0  0  0
  -27.6054  -32.4337   25.7474 C   0  0  0  0  0  0
  -27.5573  -37.1787   24.8476 C   0  0  0  0  0  0
  -21.4175  -29.3034   22.3681 N   0  0  0  0  0  0
  -26.4285  -37.3774   23.9426 N   0  0  0  0  0  0
  -24.6825  -31.0659   22.0957 N   0  0  0  0  0  0
  -23.4206  -28.8172   23.2994 O   0  0  0  0  0  0
  -28.3432  -26.5163   20.1439 O   0  0  0  0  0  0
  -26.5605  -34.8926   22.4677 O   0  0  0  0  0  0
  -23.5393  -32.1388   23.7383 O   0  0  0  0  0  0
  -30.4215  -19.1103   19.9463 C   0  0  0  0  0  0
  -30.6592  -17.7372   20.2080 C   0  0  0  0  0  0
  -29.2679  -19.7968   20.4083 C   0  0  0  0  0  0
  -28.3716  -19.0401   21.2283 C   0  0  0  0  0  0
  -28.6056  -17.6419   21.4866 C   0  0  0  0  0  0
  -29.7409  -16.9591   20.9511 C   0  0  0  0  0  0
  -27.6060  -16.8606   22.3436 C   0  0  0  0  0  0
  -25.9422  -19.7443   20.8569 C   0  0  0  0  0  0
  -30.2752  -24.2592   19.5709 C   0  0  0  0  0  0
  -28.9907  -21.2360   19.8249 C   0  0  0  0  0  0
  -27.1340  -19.7125   21.8234 C   0  0  0  0  0  0
  -28.7600  -22.5331   20.7103 C   0  0  0  0  0  0
  -28.1836  -25.1704   20.7248 C   0  0  0  0  0  0
  -28.8226  -23.9383   19.9570 C   0  0  1  0  0  0
  -29.8871  -15.5275   21.1748 N   0  0  0  0  0  0
  -31.4813  -12.4978   19.1292 H   0  0  0  0  0  0
  -30.3804  -11.3504   19.8360 H   0  0  0  0  0  0
  -29.7571  -11.7903   17.4473 H   0  0  0  0  0  0
  -29.6543  -13.5028   17.7609 H   0  0  0  0  0  0
  -27.8419  -11.3124   18.8239 H   0  0  0  0  0  0
  -27.3729  -12.6350   17.7913 H   0  0  0  0  0  0
  -27.7028  -14.2566   19.5834 H   0  0  0  0  0  0
  -28.7045  -11.9431   21.3093 H   0  0  0  0  0  0
  -28.4514  -13.5514   21.8959 H   0  0  0  0  0  0
  -25.2761   -9.5686   22.4760 H   0  0  0  0  0  0
  -24.0000   -7.4632   22.7472 H   0  0  0  0  0  0
  -21.0842   -8.8769   19.8945 H   0  0  0  0  0  0
  -22.3699  -10.9672   19.6163 H   0  0  0  0  0  0
  -21.1982   -7.6148   23.9718 H   0  0  0  0  0  0
  -21.1477   -6.0519   25.9080 H   0  0  0  0  0  0
  -22.0602   -2.7611   23.2843 H   0  0  0  0  0  0
  -22.4111  -11.9889   22.4788 H   0  0  0  0  0  0
  -21.1120  -13.1270   22.2594 H   0  0  0  0  0  0
  -24.6474  -15.8301   20.4782 H   0  0  0  0  0  0
  -26.2693  -15.6208   20.0505 H   0  0  0  0  0  0
  -26.7146  -32.5466   23.1109 H   0  0  0  0  0  0
  -25.0062  -33.9740   25.0434 H   0  0  0  0  0  0
  -22.7081  -31.3028   21.3978 H   0  0  0  0  0  0
  -23.3759  -35.9583   23.3314 H   0  0  0  0  0  0
  -24.3567  -36.8871   22.2056 H   0  0  0  0  0  0
  -23.7209  -37.6467   23.6655 H   0  0  0  0  0  0
  -26.0757  -31.5697   20.5985 H   0  0  0  0  0  0
  -26.8363  -30.8554   21.9912 H   0  0  0  0  0  0
  -28.1173  -29.0234   21.1723 H   0  0  0  0  0  0
  -26.0170  -25.9199   19.0360 H   0  0  0  0  0  0
  -23.9753  -27.2929   19.0244 H   0  0  0  0  0  0
  -23.7442  -30.5877   19.3987 H   0  0  0  0  0  0
  -22.7522  -29.2374   19.8613 H   0  0  0  0  0  0
  -25.1295  -36.1919   25.0836 H   0  0  0  0  0  0
  -20.9997  -28.3241   24.1408 H   0  0  0  0  0  0
  -20.5647  -26.2289   23.3606 H   0  0  0  0  0  0
  -21.6633  -26.7427   22.1202 H   0  0  0  0  0  0
  -19.6902  -25.6298   21.1232 H   0  0  0  0  0  0
  -19.6699  -27.3199   20.6749 H   0  0  0  0  0  0
  -17.4198  -26.6703   21.4029 H   0  0  0  0  0  0
  -18.0334  -26.0095   22.9029 H   0  0  0  0  0  0
  -19.7943  -30.7269   24.2277 H   0  0  0  0  0  0
  -17.5030  -31.6279   24.5172 H   0  0  0  0  0  0
  -15.5361  -30.3007   23.7661 H   0  0  0  0  0  0
  -15.8680  -28.0840   22.7067 H   0  0  0  0  0  0
  -24.5907  -30.7080   25.7770 H   0  0  0  0  0  0
  -24.8901  -32.2899   26.4870 H   0  0  0  0  0  0
  -25.8052  -30.8919   27.0219 H   0  0  0  0  0  0
  -26.2871  -29.6798   24.1190 H   0  0  0  0  0  0
  -27.4074  -29.7307   25.4605 H   0  0  0  0  0  0
  -27.8708  -30.4360   23.9304 H   0  0  0  0  0  0
  -27.2707  -33.3683   26.1986 H   0  0  0  0  0  0
  -28.3898  -32.6813   25.0309 H   0  0  0  0  0  0
  -28.0675  -31.8488   26.5433 H   0  0  0  0  0  0
  -28.2596  -38.0079   24.7519 H   0  0  0  0  0  0
  -28.1059  -36.2609   24.6307 H   0  0  0  0  0  0
  -27.2287  -37.1431   25.8878 H   0  0  0  0  0  0
  -20.9334  -29.8769   21.6910 H   0  0  0  0  0  0
  -26.0161  -38.2843   24.1451 H   0  0  0  0  0  0
  -31.1347  -19.6298   19.3220 H   0  0  0  0  0  0
  -31.5493  -17.2843   19.7961 H   0  0  0  0  0  0
  -26.5807  -17.0941   22.0622 H   0  0  0  0  0  0
  -27.7376  -17.1125   23.3960 H   0  0  0  0  0  0
  -27.6837  -15.7794   22.2593 H   0  0  0  0  0  0
  -25.0805  -20.2206   21.3248 H   0  0  0  0  0  0
  -25.6419  -18.7377   20.5659 H   0  0  0  0  0  0
  -26.1720  -20.2975   19.9474 H   0  0  0  0  0  0
  -30.6817  -23.5204   18.8810 H   0  0  0  0  0  0
  -30.9197  -24.2855   20.4500 H   0  0  0  0  0  0
  -30.3502  -25.2285   19.0781 H   0  0  0  0  0  0
  -28.1472  -21.1393   19.1413 H   0  0  0  0  0  0
  -29.8286  -21.4534   19.1642 H   0  0  0  0  0  0
  -27.3889  -20.7081   22.1653 H   0  0  0  0  0  0
  -26.8292  -19.2274   22.7494 H   0  0  0  0  0  0
  -29.4790  -22.5350   21.5301 H   0  0  0  0  0  0
  -27.7786  -22.4809   21.1740 H   0  0  0  0  0  0
  -28.6280  -25.2163   21.7192 H   0  0  0  0  0  0
  -27.1316  -24.9466   20.9078 H   0  0  0  0  0  0
  -28.2522  -23.8317   19.0331 H   0  0  0  0  0  0
  -29.1121  -15.1221   21.6756 H   0  0  0  0  0  0
  1 25  1  0  0  0
  1 30  2  0  0  0
  1 85  1  0  0  0
  2  3  1  0  0  0
  2 25  1  0  0  0
  2 86  1  0  0  0
  2 87  1  0  0  0
  3  4  1  0  0  0
  3 88  1  0  0  0
  3 89  1  0  0  0
  4  5  1  0  0  0
  4 90  1  0  0  0
  4 91  1  0  0  0
  5  6  1  0  0  0
  5 26  1  0  0  0
  5 92  1  0  0  0
  6 25  1  0  0  0
  6 93  1  0  0  0
  6 94  1  0  0  0
  7  8  2  0  0  0
  7 26  1  0  0  0
  7 29  1  0  0  0
  8  9  1  0  0  0
  8 22  1  0  0  0
  9 10  1  0  0  0
  9 27  2  0  0  0
 10 11  2  0  0  0
 10 15  1  0  0  0
 11 12  1  0  0  0
 11 95  1  0  0  0
 12 13  2  0  0  0
 12 96  1  0  0  0
 13 14  1  0  0  0
 13 31  1  0  0  0
 14 15  2  0  0  0
 14 97  1  0  0  0
 15 98  1  0  0  0
 16 17  2  0  0  0
 16 21  1  0  0  0
 16 31  1  0  0  0
 17 18  1  0  0  0
 17 99  1  0  0  0
 18 19  2  0  0  0
 18100  1  0  0  0
 19 20  1  0  0  0
 19 24  1  0  0  0
 20 21  2  0  0  0
 20101  1  0  0  0
 21 23  1  0  0  0
 22 28  1  0  0  0
 22 32  2  0  0  0
 26 27  1  0  0  0
 28102  1  0  0  0
 28103  1  0  0  0
 29104  1  0  0  0
 29105  1  0  0  0
 33 34  1  0  0  0
 33 66  1  0  0  0
 33 70  2  0  0  0
 34 36  1  0  0  0
 34 59  1  0  0  0
 34106  1  0  0  0
 35 44  2  0  0  0
 35 45  1  0  0  0
 35 68  1  0  0  0
 36 56  1  0  0  0
 36107  1  0  0  0
 37 39  1  0  0  0
 37 47  1  0  0  0
 37 66  1  0  0  0
 37108  1  0  0  0
 38 43  2  0  0  0
 38 46  1  0  0  0
 38 47  1  0  0  0
 39 64  1  0  0  0
 39 67  2  0  0  0
 40 52  1  0  0  0
 40 53  2  0  0  0
 40 58  1  0  0  0
 41109  1  0  0  0
 41110  1  0  0  0
 41111  1  0  0  0
 41 48  1  0  0  0
 42 43  1  0  0  0
 42 66  1  0  0  0
 42112  1  0  0  0
 42113  1  0  0  0
 43 44  1  0  0  0
 44114  1  0  0  0
 45 46  2  0  0  0
 45115  1  0  0  0
 46116  1  0  0  0
 47117  1  0  0  0
 47118  1  0  0  0
 48 56  1  0  0  0
 48 65  1  0  0  0
 48119  1  0  0  0
 49 50  1  0  0  0
 49 53  1  0  0  0
 49 64  1  0  0  0
 49120  1  0  0  0
 50 51  1  0  0  0
 50121  1  0  0  0
 50122  1  0  0  0
 51 52  1  0  0  0
 51123  1  0  0  0
 51124  1  0  0  0
 52125  1  0  0  0
 52126  1  0  0  0
 53 54  1  0  0  0
 54 55  2  0  0  0
 54127  1  0  0  0
 55 57  1  0  0  0
 55128  1  0  0  0
 56 69  2  0  0  0
 57 58  2  0  0  0
 57129  1  0  0  0
 58130  1  0  0  0
 59 60  1  0  0  0
 59 61  1  0  0  0
 59 62  1  0  0  0
 60131  1  0  0  0
 60132  1  0  0  0
 60133  1  0  0  0
 61134  1  0  0  0
 61135  1  0  0  0
 61136  1  0  0  0
 62137  1  0  0  0
 62138  1  0  0  0
 62139  1  0  0  0
 63 65  1  0  0  0
 63140  1  0  0  0
 63141  1  0  0  0
 63142  1  0  0  0
 64143  1  0  0  0
 65144  1  0  0  0
 68 83  1  0  0  0
 71 72  2  0  0  0
 71 73  1  0  0  0
 71145  1  0  0  0
 72 76  1  0  0  0
 72146  1  0  0  0
 73 74  2  0  0  0
 73 80  1  0  0  0
 74 75  1  0  0  0
 74 81  1  0  0  0
 75 76  2  0  0  0
 75 77  1  0  0  0
 76 85  1  0  0  0
 77147  1  0  0  0
 77148  1  0  0  0
 77149  1  0  0  0
 78 81  1  0  0  0
 78150  1  0  0  0
 78151  1  0  0  0
 78152  1  0  0  0
 79153  1  0  0  0
 79154  1  0  0  0
 79155  1  0  0  0
 79 84  1  0  0  0
 80 82  1  0  0  0
 80156  1  0  0  0
 80157  1  0  0  0
 81158  1  0  0  0
 81159  1  0  0  0
 82 84  1  0  0  0
 82160  1  0  0  0
 82161  1  0  0  0
 83 84  1  0  0  0
 83162  1  0  0  0
 83163  1  0  0  0
 84164  1  0  0  0
 85165  1  0  0  0
M  ISO  4   1 100  68 101  83 101  85 100
M  END
> <chiral flag>
0

> <version>
0

> <s_m_source_file>
/data/baiqing/PycharmProjects/Reinvent-master-3.2/result/LINK_invent/BTK/process_docking_weight1_custom_product_contain_oxygen_bond_distance_aromatic_linkinvent_7_9_3/rearranged_h_0134.sdf

> <i_m_source_file_index>
55

> <r_mmod_Potential_Energy-OPLS-2005>
44.1455764770508

> <r_mmod_Stretch_Energy-OPLS-2005>
74.2266311645508

> <r_mmod_Bend_Energy-OPLS-2005>
138.516662597656

> <r_mmod_Torsional_Energy-OPLS-2005>
243.593399047852

> <r_mmod_Improper_Torsional_Energy-OPLS-2005>
4.38582849502563

> <r_mmod_Van_der_Waal_Energy-OPLS-2005>
149.510879516602

> <r_mmod_Electrostatic_Energy-OPLS-2005>
-406.115478515625

> <r_mmod_Solvation_Energy-OPLS-2005>
-191.680068969727

> <b_mmod_Minimization_Converged-OPLS-2005>
0

> <r_mmod_RMS_Derivative-OPLS-2005>
1.88382840156555

$$$$
55
                    3D
 Structure written by MMmdl.
165173  0  0  1  0            999 V2000
  -30.6261  -14.6104   20.5290 C   0  0  0  0  0  0
  -30.4399  -12.3783   19.4492 C   0  0  0  0  0  0
  -29.5081  -12.5104   18.2234 C   0  0  0  0  0  0
  -28.0304  -12.3496   18.6328 C   0  0  0  0  0  0
  -27.6566  -13.2100   19.8688 C   0  0  2  0  0  0
  -28.6997  -13.0382   20.9964 C   0  0  0  0  0  0
  -25.2546  -13.8110   20.5611 C   0  0  0  0  0  0
  -24.1823  -13.0400   20.9180 C   0  0  0  0  0  0
  -24.6396  -11.6882   20.8745 C   0  0  0  0  0  0
  -23.9061  -10.4275   21.0416 C   0  0  0  0  0  0
  -24.3614   -9.4189   21.9191 C   0  0  0  0  0  0
  -23.6286   -8.2227   22.0755 C   0  0  0  0  0  0
  -22.4269   -8.0277   21.3548 C   0  0  0  0  0  0
  -21.9908   -9.0249   20.4647 C   0  0  0  0  0  0
  -22.7237  -10.2123   20.3060 C   0  0  0  0  0  0
  -21.6848   -6.0736   22.5281 C   0  0  0  0  0  0
  -21.4010   -6.5634   23.8216 C   0  0  0  0  0  0
  -21.3658   -5.6789   24.9177 C   0  0  0  0  0  0
  -21.6044   -4.3052   24.7224 C   0  0  0  0  0  0
  -21.8820   -3.8145   23.4345 C   0  0  0  0  0  0
  -21.9191   -4.6964   22.3403 C   0  0  0  0  0  0
  -22.7845  -13.5211   21.1837 C   0  0  0  0  0  0
  -22.1661   -4.2146   21.0984 F   0  0  0  0  0  0
  -21.5627   -3.4541   25.7738 F   0  0  0  0  0  0
  -30.0196  -13.3855   20.4433 N   0  0  0  0  0  0
  -26.3003  -12.9303   20.3329 N   0  0  0  0  0  0
  -25.9330  -11.6467   20.5783 N   0  0  0  0  0  0
  -22.0497  -12.8224   22.0412 N   0  0  0  0  0  0
  -25.4207  -15.1789   20.3866 N   0  0  0  0  0  0
  -31.7738  -14.7886   20.1101 O   0  0  0  0  0  0
  -21.6635   -6.8872   21.4239 O   0  0  0  0  0  0
  -22.3540  -14.5534   20.6700 O   0  0  0  0  0  0
  -24.6237  -31.8622   23.2046 C   0  0  0  0  0  0
  -25.9088  -32.4813   23.8367 C   0  0  1  0  0  0
  -27.2311  -27.3471   20.1122 C   0  0  0  0  0  0
  -25.5899  -33.8608   24.2307 N   0  0  0  0  0  0
  -23.4164  -30.4854   21.5463 C   0  0  2  0  0  0
  -24.8631  -28.9425   20.1105 C   0  0  0  0  0  0
  -22.7464  -29.4627   22.4951 C   0  0  0  0  0  0
  -18.0278  -28.1394   22.8485 C   0  0  0  0  0  0
  -24.1483  -36.7300   23.2644 C   0  0  0  0  0  0
  -25.9540  -30.8009   21.3701 C   0  0  0  0  0  0
  -26.0274  -29.4284   20.7167 C   0  0  0  0  0  0
  -27.2124  -28.6399   20.7107 C   0  0  0  0  0  0
  -26.0477  -26.9110   19.4740 C   0  0  0  0  0  0
  -24.8739  -27.6887   19.4799 C   0  0  0  0  0  0
  -23.6299  -29.8221   20.1600 C   0  0  0  0  0  0
  -25.4100  -36.3106   24.0347 C   0  0  1  0  0  0
  -20.5885  -28.3688   23.1289 C   0  0  2  0  0  0
  -20.6769  -26.9416   22.5411 C   0  0  0  0  0  0
  -19.5741  -26.6387   21.5219 C   0  0  0  0  0  0
  -18.1919  -26.7934   22.1631 C   0  0  0  0  0  0
  -19.1536  -28.8853   23.2891 C   0  0  0  0  0  0
  -18.9460  -30.1453   23.8906 C   0  0  0  0  0  0
  -17.6462  -30.6587   24.0570 C   0  0  0  0  0  0
  -25.9035  -34.9476   23.5132 C   0  0  0  0  0  0
  -16.5351  -29.9092   23.6333 C   0  0  0  0  0  0
  -16.7265  -28.6513   23.0346 C   0  0  0  0  0  0
  -26.4471  -31.6597   25.0716 C   0  0  0  0  0  0
  -25.3707  -31.3711   26.1448 C   0  0  0  0  0  0
  -27.0315  -30.3027   24.6129 C   0  0  0  0  0  0
  -27.6047  -32.4313   25.7472 C   0  0  0  0  0  0
  -27.5578  -37.1803   24.8468 C   0  0  0  0  0  0
  -21.4176  -29.3047   22.3685 N   0  0  0  0  0  0
  -26.4287  -37.3791   23.9410 N   0  0  0  0  0  0
  -24.6836  -31.0652   22.0984 N   0  0  0  0  0  0
  -23.4214  -28.8181   23.3025 O   0  0  0  0  0  0
  -28.3715  -26.5385   20.1722 O   0  0  0  0  0  0
  -26.5625  -34.8933   22.4707 O   0  0  0  0  0  0
  -23.5402  -32.1397   23.7382 O   0  0  0  0  0  0
  -30.9489  -19.2172   20.1636 C   0  0  0  0  0  0
  -30.9155  -17.7942   20.2051 C   0  0  0  0  0  0
  -28.9205  -19.3112   21.4442 C   0  0  0  0  0  0
  -29.9635  -20.0124   20.8011 C   0  0  0  0  0  0
  -28.8652  -17.8838   21.4885 C   0  0  0  0  0  0
  -29.8893  -17.0844   20.8850 C   0  0  0  0  0  0
  -26.3391  -17.8959   22.0161 C   0  0  0  0  0  0
  -30.7164  -24.5986   20.3035 C   0  0  0  0  0  0
  -29.0605  -24.3457   22.1846 C   0  0  0  0  0  0
  -30.1384  -21.5594   20.9644 C   0  0  0  0  0  0
  -27.7096  -17.2382   22.2581 C   0  0  0  0  0  0
  -29.1117  -22.5893   20.3284 C   0  0  0  0  0  0
  -28.2632  -25.0908   19.9190 C   0  0  0  0  0  0
  -29.2907  -24.1443   20.6729 C   0  0  0  0  0  0
  -29.8312  -15.6257   20.9829 N   0  0  0  0  0  0
  -31.4812  -12.5056   19.1486 H   0  0  0  0  0  0
  -30.3752  -11.3766   19.8776 H   0  0  0  0  0  0
  -29.7704  -11.7658   17.4709 H   0  0  0  0  0  0
  -29.6541  -13.4842   17.7535 H   0  0  0  0  0  0
  -27.8624  -11.2954   18.8544 H   0  0  0  0  0  0
  -27.3775  -12.5909   17.7938 H   0  0  0  0  0  0
  -27.6840  -14.2504   19.5446 H   0  0  0  0  0  0
  -28.7062  -12.0075   21.3529 H   0  0  0  0  0  0
  -28.4434  -13.6436   21.8668 H   0  0  0  0  0  0
  -25.2760   -9.5663   22.4763 H   0  0  0  0  0  0
  -23.9995   -7.4616   22.7473 H   0  0  0  0  0  0
  -21.0840   -8.8768   19.8951 H   0  0  0  0  0  0
  -22.3703  -10.9664   19.6168 H   0  0  0  0  0  0
  -21.2003   -7.6144   23.9714 H   0  0  0  0  0  0
  -21.1478   -6.0522   25.9077 H   0  0  0  0  0  0
  -22.0603   -2.7608   23.2850 H   0  0  0  0  0  0
  -22.4114  -11.9881   22.4796 H   0  0  0  0  0  0
  -21.1115  -13.1246   22.2614 H   0  0  0  0  0  0
  -24.6514  -15.8294   20.4976 H   0  0  0  0  0  0
  -26.2644  -15.6183   20.0432 H   0  0  0  0  0  0
  -26.7176  -32.5483   23.1137 H   0  0  0  0  0  0
  -25.0028  -33.9762   25.0445 H   0  0  0  0  0  0
  -22.7062  -31.3038   21.4065 H   0  0  0  0  0  0
  -23.3754  -35.9627   23.3311 H   0  0  0  0  0  0
  -24.3584  -36.8901   22.2056 H   0  0  0  0  0  0
  -23.7216  -37.6502   23.6650 H   0  0  0  0  0  0
  -26.0819  -31.5625   20.6001 H   0  0  0  0  0  0
  -26.8367  -30.8536   21.9946 H   0  0  0  0  0  0
  -28.1084  -29.0074   21.1908 H   0  0  0  0  0  0
  -26.0016  -25.9608   18.9630 H   0  0  0  0  0  0
  -23.9862  -27.3139   18.9916 H   0  0  0  0  0  0
  -23.7479  -30.6005   19.4043 H   0  0  0  0  0  0
  -22.7475  -29.2542   19.8592 H   0  0  0  0  0  0
  -25.1281  -36.1981   25.0842 H   0  0  0  0  0  0
  -20.9985  -28.3267   24.1410 H   0  0  0  0  0  0
  -20.5668  -26.2312   23.3614 H   0  0  0  0  0  0
  -21.6634  -26.7445   22.1206 H   0  0  0  0  0  0
  -19.6907  -25.6302   21.1231 H   0  0  0  0  0  0
  -19.6668  -27.3206   20.6753 H   0  0  0  0  0  0
  -17.4190  -26.6679   21.4025 H   0  0  0  0  0  0
  -18.0315  -26.0070   22.9021 H   0  0  0  0  0  0
  -19.7933  -30.7257   24.2286 H   0  0  0  0  0  0
  -17.5017  -31.6267   24.5167 H   0  0  0  0  0  0
  -15.5357  -30.3005   23.7634 H   0  0  0  0  0  0
  -15.8661  -28.0833   22.7063 H   0  0  0  0  0  0
  -24.5904  -30.7045   25.7761 H   0  0  0  0  0  0
  -24.8872  -32.2869   26.4859 H   0  0  0  0  0  0
  -25.8034  -30.8893   27.0227 H   0  0  0  0  0  0
  -26.2876  -29.6778   24.1170 H   0  0  0  0  0  0
  -27.4066  -29.7280   25.4612 H   0  0  0  0  0  0
  -27.8731  -30.4345   23.9321 H   0  0  0  0  0  0
  -27.2692  -33.3623   26.2046 H   0  0  0  0  0  0
  -28.3847  -32.6842   25.0281 H   0  0  0  0  0  0
  -28.0729  -31.8430   26.5371 H   0  0  0  0  0  0
  -28.2615  -38.0092   24.7528 H   0  0  0  0  0  0
  -28.1072  -36.2625   24.6295 H   0  0  0  0  0  0
  -27.2313  -37.1452   25.8883 H   0  0  0  0  0  0
  -20.9355  -29.8798   21.6921 H   0  0  0  0  0  0
  -26.0190  -38.2881   24.1398 H   0  0  0  0  0  0
  -31.7833  -19.6987   19.6716 H   0  0  0  0  0  0
  -31.7169  -17.2564   19.7194 H   0  0  0  0  0  0
  -28.1741  -19.8968   21.9604 H   0  0  0  0  0  0
  -25.5487  -17.3248   22.5056 H   0  0  0  0  0  0
  -26.1035  -17.9363   20.9528 H   0  0  0  0  0  0
  -26.2861  -18.9098   22.4123 H   0  0  0  0  0  0
  -31.4738  -24.1022   20.9096 H   0  0  0  0  0  0
  -30.8443  -25.6709   20.4621 H   0  0  0  0  0  0
  -30.9363  -24.3900   19.2556 H   0  0  0  0  0  0
  -29.7772  -23.7950   22.7907 H   0  0  0  0  0  0
  -28.0595  -24.0197   22.4706 H   0  0  0  0  0  0
  -29.1517  -25.3962   22.4631 H   0  0  0  0  0  0
  -31.1395  -21.8096   20.6125 H   0  0  0  0  0  0
  -30.1721  -21.7261   22.0405 H   0  0  0  0  0  0
  -27.9456  -17.2736   23.3227 H   0  0  0  0  0  0
  -27.6126  -16.1820   22.0113 H   0  0  0  0  0  0
  -28.1046  -22.2907   20.6279 H   0  0  0  0  0  0
  -29.1372  -22.4665   19.2451 H   0  0  0  0  0  0
  -28.3619  -24.9402   18.8414 H   0  0  0  0  0  0
  -27.2722  -24.7291   20.1905 H   0  0  0  0  0  0
  -28.9713  -15.2758   21.3748 H   0  0  0  0  0  0
  1 25  1  0  0  0
  1 30  2  0  0  0
  1 85  1  0  0  0
  2  3  1  0  0  0
  2 25  1  0  0  0
  2 86  1  0  0  0
  2 87  1  0  0  0
  3  4  1  0  0  0
  3 88  1  0  0  0
  3 89  1  0  0  0
  4  5  1  0  0  0
  4 90  1  0  0  0
  4 91  1  0  0  0
  5  6  1  0  0  0
  5 26  1  0  0  0
  5 92  1  0  0  0
  6 25  1  0  0  0
  6 93  1  0  0  0
  6 94  1  0  0  0
  7  8  2  0  0  0
  7 26  1  0  0  0
  7 29  1  0  0  0
  8  9  1  0  0  0
  8 22  1  0  0  0
  9 10  1  0  0  0
  9 27  2  0  0  0
 10 11  2  0  0  0
 10 15  1  0  0  0
 11 12  1  0  0  0
 11 95  1  0  0  0
 12 13  2  0  0  0
 12 96  1  0  0  0
 13 14  1  0  0  0
 13 31  1  0  0  0
 14 15  2  0  0  0
 14 97  1  0  0  0
 15 98  1  0  0  0
 16 17  2  0  0  0
 16 21  1  0  0  0
 16 31  1  0  0  0
 17 18  1  0  0  0
 17 99  1  0  0  0
 18 19  2  0  0  0
 18100  1  0  0  0
 19 20  1  0  0  0
 19 24  1  0  0  0
 20 21  2  0  0  0
 20101  1  0  0  0
 21 23  1  0  0  0
 22 28  1  0  0  0
 22 32  2  0  0  0
 26 27  1  0  0  0
 28102  1  0  0  0
 28103  1  0  0  0
 29104  1  0  0  0
 29105  1  0  0  0
 33 34  1  0  0  0
 33 66  1  0  0  0
 33 70  2  0  0  0
 34 36  1  0  0  0
 34 59  1  0  0  0
 34106  1  0  0  0
 35 44  2  0  0  0
 35 45  1  0  0  0
 35 68  1  0  0  0
 36 56  1  0  0  0
 36107  1  0  0  0
 37 39  1  0  0  0
 37 47  1  0  0  0
 37 66  1  0  0  0
 37108  1  0  0  0
 38 43  2  0  0  0
 38 46  1  0  0  0
 38 47  1  0  0  0
 39 64  1  0  0  0
 39 67  2  0  0  0
 40 52  1  0  0  0
 40 53  2  0  0  0
 40 58  1  0  0  0
 41109  1  0  0  0
 41110  1  0  0  0
 41111  1  0  0  0
 41 48  1  0  0  0
 42 43  1  0  0  0
 42 66  1  0  0  0
 42112  1  0  0  0
 42113  1  0  0  0
 43 44  1  0  0  0
 44114  1  0  0  0
 45 46  2  0  0  0
 45115  1  0  0  0
 46116  1  0  0  0
 47117  1  0  0  0
 47118  1  0  0  0
 48 56  1  0  0  0
 48 65  1  0  0  0
 48119  1  0  0  0
 49 50  1  0  0  0
 49 53  1  0  0  0
 49 64  1  0  0  0
 49120  1  0  0  0
 50 51  1  0  0  0
 50121  1  0  0  0
 50122  1  0  0  0
 51 52  1  0  0  0
 51123  1  0  0  0
 51124  1  0  0  0
 52125  1  0  0  0
 52126  1  0  0  0
 53 54  1  0  0  0
 54 55  2  0  0  0
 54127  1  0  0  0
 55 57  1  0  0  0
 55128  1  0  0  0
 56 69  2  0  0  0
 57 58  2  0  0  0
 57129  1  0  0  0
 58130  1  0  0  0
 59 60  1  0  0  0
 59 61  1  0  0  0
 59 62  1  0  0  0
 60131  1  0  0  0
 60132  1  0  0  0
 60133  1  0  0  0
 61134  1  0  0  0
 61135  1  0  0  0
 61136  1  0  0  0
 62137  1  0  0  0
 62138  1  0  0  0
 62139  1  0  0  0
 63 65  1  0  0  0
 63140  1  0  0  0
 63141  1  0  0  0
 63142  1  0  0  0
 64143  1  0  0  0
 65144  1  0  0  0
 68 83  1  0  0  0
 71 72  2  0  0  0
 71 74  1  0  0  0
 71145  1  0  0  0
 72 76  1  0  0  0
 72146  1  0  0  0
 73 74  2  0  0  0
 73 75  1  0  0  0
 73147  1  0  0  0
 74 80  1  0  0  0
 75 76  2  0  0  0
 75 81  1  0  0  0
 76 85  1  0  0  0
 77 81  1  0  0  0
 77148  1  0  0  0
 77149  1  0  0  0
 77150  1  0  0  0
 78151  1  0  0  0
 78152  1  0  0  0
 78153  1  0  0  0
 78 84  1  0  0  0
 79 84  1  0  0  0
 79154  1  0  0  0
 79155  1  0  0  0
 79156  1  0  0  0
 80 82  1  0  0  0
 80157  1  0  0  0
 80158  1  0  0  0
 81159  1  0  0  0
 81160  1  0  0  0
 82 84  1  0  0  0
 82161  1  0  0  0
 82162  1  0  0  0
 83 84  1  0  0  0
 83163  1  0  0  0
 83164  1  0  0  0
 85165  1  0  0  0
M  ISO  4   1 100  68 101  83 101  85 100
M  END
> <chiral flag>
0

> <version>
0

> <s_m_source_file>
/data/baiqing/PycharmProjects/Reinvent-master-3.2/result/LINK_invent/BTK/process_docking_weight1_custom_product_contain_oxygen_bond_distance_aromatic_linkinvent_7_9_3/rearranged_h_0134.sdf

> <i_m_source_file_index>
56

> <r_mmod_Potential_Energy-OPLS-2005>
41.9626617431641

> <r_mmod_Stretch_Energy-OPLS-2005>
73.8459014892578

> <r_mmod_Bend_Energy-OPLS-2005>
137.628753662109

> <r_mmod_Torsional_Energy-OPLS-2005>
219.383575439453

> <r_mmod_Improper_Torsional_Energy-OPLS-2005>
4.34923505783081

> <r_mmod_Van_der_Waal_Energy-OPLS-2005>
146.55549621582

> <r_mmod_Electrostatic_Energy-OPLS-2005>
-388.942810058594

> <r_mmod_Solvation_Energy-OPLS-2005>
-188.399002075195

> <b_mmod_Minimization_Converged-OPLS-2005>
0

> <r_mmod_RMS_Derivative-OPLS-2005>
2.39493465423584

$$$$
56
                    3D
 Structure written by MMmdl.
159167  0  0  1  0            999 V2000
  -29.8100  -16.9088   20.2593 C   0  0  0  0  0  0
  -30.2672  -14.0535   19.5351 C   0  0  0  0  0  0
  -29.5783  -13.0902   18.4592 C   0  0  0  0  0  0
  -28.2841  -12.4513   18.9604 C   0  0  0  0  0  0
  -27.5758  -13.4896   19.8356 C   0  0  2  0  0  0
  -28.4804  -14.3081   20.8558 C   0  0  0  0  0  0
  -25.2112  -13.8595   20.5997 C   0  0  0  0  0  0
  -24.1677  -13.0497   20.9350 C   0  0  0  0  0  0
  -24.6638  -11.7098   20.8730 C   0  0  0  0  0  0
  -23.9359  -10.4351   21.0320 C   0  0  0  0  0  0
  -24.3808   -9.4245   21.9139 C   0  0  0  0  0  0
  -23.6408   -8.2309   22.0747 C   0  0  0  0  0  0
  -22.4380   -8.0356   21.3547 C   0  0  0  0  0  0
  -22.0076   -9.0344   20.4635 C   0  0  0  0  0  0
  -22.7484  -10.2184   20.3010 C   0  0  0  0  0  0
  -21.6892   -6.0790   22.5275 C   0  0  0  0  0  0
  -21.4051   -6.5676   23.8214 C   0  0  0  0  0  0
  -21.3665   -5.6815   24.9164 C   0  0  0  0  0  0
  -21.6041   -4.3077   24.7206 C   0  0  0  0  0  0
  -21.8815   -3.8180   23.4321 C   0  0  0  0  0  0
  -21.9208   -4.7011   22.3386 C   0  0  0  0  0  0
  -22.7628  -13.5060   21.1924 C   0  0  0  0  0  0
  -22.1667   -4.2197   21.0961 F   0  0  0  0  0  0
  -21.5612   -3.4549   25.7709 F   0  0  0  0  0  0
  -29.4328  -15.3151   20.1490 N   0  0  0  0  0  0
  -26.2871  -13.0339   20.3614 N   0  0  0  0  0  0
  -25.9682  -11.7188   20.5685 N   0  0  0  0  0  0
  -22.0361  -12.7988   22.0486 N   0  0  0  0  0  0
  -25.3342  -15.2363   20.4372 N   0  0  0  0  0  0
  -31.0616  -16.6393   20.1977 O   0  0  0  0  0  0
  -21.6705   -6.8963   21.4251 O   0  0  0  0  0  0
  -22.3221  -14.5324   20.6753 O   0  0  0  0  0  0
  -24.7667  -31.6873   23.0835 C   0  0  0  0  0  0
  -25.9804  -32.3934   23.7699 C   0  0  1  0  0  0
  -27.2990  -25.8184   20.2887 C   0  0  0  0  0  0
  -25.6006  -33.7820   24.1464 N   0  0  0  0  0  0
  -23.6371  -30.2448   21.4568 C   0  0  2  0  0  0
  -25.1166  -28.4018   20.1509 C   0  0  0  0  0  0
  -22.8138  -29.3693   22.4481 C   0  0  0  0  0  0
  -18.0387  -28.1455   22.8401 C   0  0  0  0  0  0
  -24.1507  -36.6932   23.2675 C   0  0  0  0  0  0
  -26.2400  -30.1223   21.4956 C   0  0  0  0  0  0
  -26.3047  -28.5849   20.8667 C   0  0  0  0  0  0
  -27.3255  -27.3513   20.9018 C   0  0  0  0  0  0
  -26.0969  -26.0962   19.4896 C   0  0  0  0  0  0
  -25.1044  -27.1822   19.4362 C   0  0  0  0  0  0
  -23.9453  -29.4549   20.1345 C   0  0  0  0  0  0
  -25.4183  -36.2588   24.0224 C   0  0  1  0  0  0
  -20.6058  -28.3841   23.0973 C   0  0  2  0  0  0
  -20.6806  -26.9415   22.5423 C   0  0  0  0  0  0
  -19.5812  -26.6327   21.5218 C   0  0  0  0  0  0
  -18.1986  -26.7963   22.1587 C   0  0  0  0  0  0
  -19.1672  -28.8995   23.2642 C   0  0  0  0  0  0
  -18.9570  -30.1555   23.8730 C   0  0  0  0  0  0
  -17.6552  -30.6618   24.0524 C   0  0  0  0  0  0
  -25.9201  -34.8995   23.4751 C   0  0  0  0  0  0
  -16.5435  -29.9084   23.6369 C   0  0  0  0  0  0
  -16.7364  -28.6510   23.0382 C   0  0  0  0  0  0
  -26.4726  -31.6372   25.0677 C   0  0  0  0  0  0
  -25.3584  -31.3924   26.1137 C   0  0  0  0  0  0
  -27.0804  -30.2630   24.7226 C   0  0  0  0  0  0
  -27.6003  -32.4456   25.7522 C   0  0  0  0  0  0
  -27.5542  -37.1609   24.8465 C   0  0  0  0  0  0
  -21.4711  -29.2900   22.3185 N   0  0  0  0  0  0
  -26.4232  -37.3443   23.9411 N   0  0  0  0  0  0
  -24.9159  -30.7392   22.0639 N   0  0  0  0  0  0
  -23.4134  -28.7451   23.3250 O   0  0  0  0  0  0
  -28.0073  -24.1134   20.2378 O   0  0  0  0  0  0
  -26.5969  -34.8737   22.4458 O   0  0  0  0  0  0
  -23.6499  -32.0359   23.5199 O   0  0  0  0  0  0
  -30.0749  -23.7439   20.6605 C   0  0  0  0  0  0
  -29.7247  -22.1579   19.8814 C   0  0  0  0  0  0
  -27.5321  -21.7092   21.1140 C   0  0  0  0  0  0
  -28.9895  -24.3522   22.0442 C   0  0  0  0  0  0
  -28.7918  -20.7422   20.3525 C   0  0  0  0  0  0
  -27.5227  -23.2191   22.1180 C   0  0  0  0  0  0
  -29.4621  -25.0752   23.2063 C   0  0  0  0  0  0
  -25.2892  -22.7438   24.9178 C   0  0  0  0  0  0
  -29.9450  -24.0239   24.1905 C   0  0  0  0  0  0
  -30.4790  -22.7996   23.3870 C   0  0  0  0  0  0
  -25.8068  -22.3875   23.5228 C   0  0  0  0  0  0
  -29.5309  -22.2201   22.2193 C   0  0  0  0  0  0
  -29.0449  -18.6120   20.2943 N   0  0  0  0  0  0
  -29.5382  -26.2927   23.3824 O   0  0  0  0  0  0
  -26.5595  -23.4928   23.0558 O   0  0  0  0  0  0
  -31.1269  -14.4791   19.0179 H   0  0  0  0  0  0
  -30.7290  -13.4646   20.3316 H   0  0  0  0  0  0
  -30.2775  -12.3184   18.1361 H   0  0  0  0  0  0
  -29.3514  -13.6829   17.5715 H   0  0  0  0  0  0
  -28.5248  -11.5722   19.5603 H   0  0  0  0  0  0
  -27.6551  -12.1176   18.1340 H   0  0  0  0  0  0
  -27.2928  -14.2416   19.0962 H   0  0  0  0  0  0
  -28.9802  -13.6497   21.5692 H   0  0  0  0  0  0
  -27.8349  -14.9225   21.4827 H   0  0  0  0  0  0
  -25.2936   -9.5695   22.4745 H   0  0  0  0  0  0
  -24.0081   -7.4712   22.7500 H   0  0  0  0  0  0
  -21.0994   -8.8914   19.8941 H   0  0  0  0  0  0
  -22.3956  -10.9729   19.6114 H   0  0  0  0  0  0
  -21.2070   -7.6188   23.9734 H   0  0  0  0  0  0
  -21.1480   -6.0536   25.9068 H   0  0  0  0  0  0
  -22.0586   -2.7645   23.2805 H   0  0  0  0  0  0
  -22.4089  -11.9695   22.4876 H   0  0  0  0  0  0
  -21.0939  -13.0883   22.2695 H   0  0  0  0  0  0
  -24.5440  -15.8645   20.5363 H   0  0  0  0  0  0
  -26.1731  -15.6967   20.1101 H   0  0  0  0  0  0
  -26.8009  -32.4260   23.0513 H   0  0  0  0  0  0
  -24.9929  -33.8718   24.9473 H   0  0  0  0  0  0
  -23.0164  -31.1008   21.1872 H   0  0  0  0  0  0
  -23.3797  -35.9224   23.3195 H   0  0  0  0  0  0
  -24.3554  -36.8787   22.2119 H   0  0  0  0  0  0
  -23.7242  -37.6027   23.6916 H   0  0  0  0  0  0
  -26.5286  -30.7828   20.6768 H   0  0  0  0  0  0
  -27.0628  -30.2196   22.1880 H   0  0  0  0  0  0
  -28.1833  -27.5415   21.5298 H   0  0  0  0  0  0
  -25.8170  -25.2537   18.8735 H   0  0  0  0  0  0
  -24.2498  -27.0084   18.7966 H   0  0  0  0  0  0
  -24.1816  -30.1736   19.3494 H   0  0  0  0  0  0
  -23.0371  -28.9556   19.7938 H   0  0  0  0  0  0
  -25.1429  -36.1226   25.0705 H   0  0  0  0  0  0
  -21.0104  -28.3545   24.1117 H   0  0  0  0  0  0
  -20.5570  -26.2488   23.3760 H   0  0  0  0  0  0
  -21.6661  -26.7204   22.1311 H   0  0  0  0  0  0
  -19.6951  -25.6200   21.1340 H   0  0  0  0  0  0
  -19.6802  -27.3053   20.6685 H   0  0  0  0  0  0
  -17.4264  -26.6702   21.3983 H   0  0  0  0  0  0
  -18.0349  -26.0143   22.9013 H   0  0  0  0  0  0
  -19.8049  -30.7396   24.2040 H   0  0  0  0  0  0
  -17.5106  -31.6281   24.5154 H   0  0  0  0  0  0
  -15.5431  -30.2940   23.7796 H   0  0  0  0  0  0
  -15.8758  -28.0774   22.7204 H   0  0  0  0  0  0
  -24.5856  -30.7185   25.7419 H   0  0  0  0  0  0
  -24.8687  -32.3211   26.4074 H   0  0  0  0  0  0
  -25.7575  -30.9406   27.0231 H   0  0  0  0  0  0
  -26.3669  -29.5931   24.2423 H   0  0  0  0  0  0
  -27.4061  -29.7471   25.6272 H   0  0  0  0  0  0
  -27.9703  -30.3554   24.1000 H   0  0  0  0  0  0
  -27.2438  -33.3942   26.1547 H   0  0  0  0  0  0
  -28.4078  -32.6721   25.0548 H   0  0  0  0  0  0
  -28.0388  -31.8983   26.5876 H   0  0  0  0  0  0
  -28.2449  -37.9998   24.7513 H   0  0  0  0  0  0
  -28.1135  -36.2499   24.6279 H   0  0  0  0  0  0
  -27.2251  -37.1213   25.8862 H   0  0  0  0  0  0
  -21.0221  -29.8408   21.5996 H   0  0  0  0  0  0
  -25.9977  -38.2445   24.1439 H   0  0  0  0  0  0
  -30.9848  -24.2720   20.4118 H   0  0  0  0  0  0
  -30.5231  -21.9009   19.2005 H   0  0  0  0  0  0
  -26.6719  -21.0953   21.3317 H   0  0  0  0  0  0
  -24.7141  -21.9211   25.3427 H   0  0  0  0  0  0
  -24.6470  -23.6241   24.8872 H   0  0  0  0  0  0
  -26.1166  -22.9546   25.5972 H   0  0  0  0  0  0
  -29.1065  -23.7268   24.8223 H   0  0  0  0  0  0
  -30.7164  -24.4382   24.8387 H   0  0  0  0  0  0
  -30.7231  -22.0009   24.0888 H   0  0  0  0  0  0
  -31.4396  -23.0842   22.9538 H   0  0  0  0  0  0
  -24.9799  -22.1865   22.8419 H   0  0  0  0  0  0
  -26.4201  -21.4870   23.5927 H   0  0  0  0  0  0
  -28.9632  -21.5417   22.8821 H   0  0  0  0  0  0
  -30.3304  -21.5203   21.9291 H   0  0  0  0  0  0
  -28.0897  -18.2847   20.3645 H   0  0  0  0  0  0
  1 25  1  0  0  0
  1 30  2  0  0  0
  1 83  1  0  0  0
  2  3  1  0  0  0
  2 25  1  0  0  0
  2 86  1  0  0  0
  2 87  1  0  0  0
  3  4  1  0  0  0
  3 88  1  0  0  0
  3 89  1  0  0  0
  4  5  1  0  0  0
  4 90  1  0  0  0
  4 91  1  0  0  0
  5  6  1  0  0  0
  5 26  1  0  0  0
  5 92  1  0  0  0
  6 25  1  0  0  0
  6 93  1  0  0  0
  6 94  1  0  0  0
  7  8  2  0  0  0
  7 26  1  0  0  0
  7 29  1  0  0  0
  8  9  1  0  0  0
  8 22  1  0  0  0
  9 10  1  0  0  0
  9 27  2  0  0  0
 10 11  2  0  0  0
 10 15  1  0  0  0
 11 12  1  0  0  0
 11 95  1  0  0  0
 12 13  2  0  0  0
 12 96  1  0  0  0
 13 14  1  0  0  0
 13 31  1  0  0  0
 14 15  2  0  0  0
 14 97  1  0  0  0
 15 98  1  0  0  0
 16 17  2  0  0  0
 16 21  1  0  0  0
 16 31  1  0  0  0
 17 18  1  0  0  0
 17 99  1  0  0  0
 18 19  2  0  0  0
 18100  1  0  0  0
 19 20  1  0  0  0
 19 24  1  0  0  0
 20 21  2  0  0  0
 20101  1  0  0  0
 21 23  1  0  0  0
 22 28  1  0  0  0
 22 32  2  0  0  0
 26 27  1  0  0  0
 28102  1  0  0  0
 28103  1  0  0  0
 29104  1  0  0  0
 29105  1  0  0  0
 33 34  1  0  0  0
 33 66  1  0  0  0
 33 70  2  0  0  0
 34 36  1  0  0  0
 34 59  1  0  0  0
 34106  1  0  0  0
 35 44  2  0  0  0
 35 45  1  0  0  0
 35 68  1  0  0  0
 36 56  1  0  0  0
 36107  1  0  0  0
 37 39  1  0  0  0
 37 47  1  0  0  0
 37 66  1  0  0  0
 37108  1  0  0  0
 38 43  2  0  0  0
 38 46  1  0  0  0
 38 47  1  0  0  0
 39 64  1  0  0  0
 39 67  2  0  0  0
 40 52  1  0  0  0
 40 53  2  0  0  0
 40 58  1  0  0  0
 41109  1  0  0  0
 41110  1  0  0  0
 41111  1  0  0  0
 41 48  1  0  0  0
 42 43  1  0  0  0
 42 66  1  0  0  0
 42112  1  0  0  0
 42113  1  0  0  0
 43 44  1  0  0  0
 44114  1  0  0  0
 45 46  2  0  0  0
 45115  1  0  0  0
 46116  1  0  0  0
 47117  1  0  0  0
 47118  1  0  0  0
 48 56  1  0  0  0
 48 65  1  0  0  0
 48119  1  0  0  0
 49 50  1  0  0  0
 49 53  1  0  0  0
 49 64  1  0  0  0
 49120  1  0  0  0
 50 51  1  0  0  0
 50121  1  0  0  0
 50122  1  0  0  0
 51 52  1  0  0  0
 51123  1  0  0  0
 51124  1  0  0  0
 52125  1  0  0  0
 52126  1  0  0  0
 53 54  1  0  0  0
 54 55  2  0  0  0
 54127  1  0  0  0
 55 57  1  0  0  0
 55128  1  0  0  0
 56 69  2  0  0  0
 57 58  2  0  0  0
 57129  1  0  0  0
 58130  1  0  0  0
 59 60  1  0  0  0
 59 61  1  0  0  0
 59 62  1  0  0  0
 60131  1  0  0  0
 60132  1  0  0  0
 60133  1  0  0  0
 61134  1  0  0  0
 61135  1  0  0  0
 61136  1  0  0  0
 62137  1  0  0  0
 62138  1  0  0  0
 62139  1  0  0  0
 63 65  1  0  0  0
 63140  1  0  0  0
 63141  1  0  0  0
 63142  1  0  0  0
 64143  1  0  0  0
 65144  1  0  0  0
 68 82  1  0  0  0
 71 72  2  0  0  0
 71 74  1  0  0  0
 71145  1  0  0  0
 72 75  1  0  0  0
 72146  1  0  0  0
 73 75  2  0  0  0
 73 76  1  0  0  0
 73147  1  0  0  0
 74 76  2  0  0  0
 74 77  1  0  0  0
 75 83  1  0  0  0
 76 85  1  0  0  0
 77 79  1  0  0  0
 77 84  2  0  0  0
 78 81  1  0  0  0
 78148  1  0  0  0
 78149  1  0  0  0
 78150  1  0  0  0
 79 80  1  0  0  0
 79151  1  0  0  0
 79152  1  0  0  0
 80 82  1  0  0  0
 80153  1  0  0  0
 80154  1  0  0  0
 81 85  1  0  0  0
 81155  1  0  0  0
 81156  1  0  0  0
 82157  1  0  0  0
 82158  1  0  0  0
 83159  1  0  0  0
M  ISO  4   1 100  68 101  82 101  83 100
M  END
> <chiral flag>
0

> <version>
0

> <s_m_source_file>
/data/baiqing/PycharmProjects/Reinvent-master-3.2/result/LINK_invent/BTK/process_docking_weight1_custom_product_contain_oxygen_bond_distance_aromatic_linkinvent_7_9_3/rearranged_h_0134.sdf

> <i_m_source_file_index>
57

> <r_mmod_Potential_Energy-OPLS-2005>
15330.5654296875

> <r_mmod_Stretch_Energy-OPLS-2005>
8421.818359375

> <r_mmod_Bend_Energy-OPLS-2005>
1128.77136230469

> <r_mmod_Torsional_Energy-OPLS-2005>
415.037048339844

> <r_mmod_Improper_Torsional_Energy-OPLS-2005>
17.769811630249

> <r_mmod_Van_der_Waal_Energy-OPLS-2005>
2040.076171875

> <r_mmod_Electrostatic_Energy-OPLS-2005>
-335.03857421875

> <r_mmod_Solvation_Energy-OPLS-2005>
-244.106704711914

> <b_mmod_Minimization_Converged-OPLS-2005>
0

> <r_mmod_RMS_Derivative-OPLS-2005>
2.49775958061218

$$$$
57
                    3D
 Structure written by MMmdl.
169177  0  0  1  0            999 V2000
  -30.6752  -14.5893   20.5342 C   0  0  0  0  0  0
  -30.4185  -12.3710   19.4496 C   0  0  0  0  0  0
  -29.4995  -12.5168   18.2181 C   0  0  0  0  0  0
  -28.0213  -12.3615   18.6241 C   0  0  0  0  0  0
  -27.6501  -13.2219   19.8624 C   0  0  2  0  0  0
  -28.6943  -13.0737   20.9933 C   0  0  0  0  0  0
  -25.2521  -13.8161   20.5649 C   0  0  0  0  0  0
  -24.1826  -13.0434   20.9195 C   0  0  0  0  0  0
  -24.6400  -11.6902   20.8743 C   0  0  0  0  0  0
  -23.9073  -10.4290   21.0415 C   0  0  0  0  0  0
  -24.3631   -9.4195   21.9171 C   0  0  0  0  0  0
  -23.6303   -8.2240   22.0747 C   0  0  0  0  0  0
  -22.4278   -8.0285   21.3547 C   0  0  0  0  0  0
  -21.9920   -9.0252   20.4640 C   0  0  0  0  0  0
  -22.7257  -10.2127   20.3044 C   0  0  0  0  0  0
  -21.6855   -6.0735   22.5280 C   0  0  0  0  0  0
  -21.4015   -6.5644   23.8212 C   0  0  0  0  0  0
  -21.3660   -5.6794   24.9177 C   0  0  0  0  0  0
  -21.6048   -4.3056   24.7225 C   0  0  0  0  0  0
  -21.8815   -3.8152   23.4345 C   0  0  0  0  0  0
  -21.9192   -4.6966   22.3405 C   0  0  0  0  0  0
  -22.7835  -13.5201   21.1847 C   0  0  0  0  0  0
  -22.1662   -4.2156   21.0979 F   0  0  0  0  0  0
  -21.5627   -3.4539   25.7736 F   0  0  0  0  0  0
  -30.0144  -13.3959   20.4330 N   0  0  0  0  0  0
  -26.2960  -12.9369   20.3293 N   0  0  0  0  0  0
  -25.9318  -11.6516   20.5741 N   0  0  0  0  0  0
  -22.0508  -12.8196   22.0428 N   0  0  0  0  0  0
  -25.4183  -15.1879   20.3975 N   0  0  0  0  0  0
  -31.8263  -14.7222   20.1116 O   0  0  0  0  0  0
  -21.6644   -6.8883   21.4241 O   0  0  0  0  0  0
  -22.3516  -14.5511   20.6705 O   0  0  0  0  0  0
  -24.6135  -31.8669   23.2075 C   0  0  0  0  0  0
  -25.9012  -32.4826   23.8397 C   0  0  1  0  0  0
  -27.2314  -27.3493   20.1670 C   0  0  0  0  0  0
  -25.5862  -33.8629   24.2308 N   0  0  0  0  0  0
  -23.4118  -30.4831   21.5452 C   0  0  2  0  0  0
  -24.8708  -28.9346   20.1280 C   0  0  0  0  0  0
  -22.7440  -29.4621   22.4966 C   0  0  0  0  0  0
  -18.0294  -28.1342   22.8507 C   0  0  0  0  0  0
  -24.1499  -36.7283   23.2646 C   0  0  0  0  0  0
  -25.9477  -30.8036   21.3849 C   0  0  0  0  0  0
  -26.0296  -29.4272   20.7464 C   0  0  0  0  0  0
  -27.2126  -28.6373   20.7765 C   0  0  0  0  0  0
  -26.0647  -26.9046   19.5158 C   0  0  0  0  0  0
  -24.8843  -27.6723   19.5098 C   0  0  0  0  0  0
  -23.6337  -29.8080   20.1654 C   0  0  0  0  0  0
  -25.4132  -36.3128   24.0348 C   0  0  1  0  0  0
  -20.5882  -28.3626   23.1316 C   0  0  2  0  0  0
  -20.6787  -26.9365   22.5414 C   0  0  0  0  0  0
  -19.5758  -26.6356   21.5217 C   0  0  0  0  0  0
  -18.1930  -26.7896   22.1626 C   0  0  0  0  0  0
  -19.1553  -28.8809   23.2899 C   0  0  0  0  0  0
  -18.9465  -30.1422   23.8891 C   0  0  0  0  0  0
  -17.6470  -30.6558   24.0543 C   0  0  0  0  0  0
  -25.9051  -34.9486   23.5136 C   0  0  0  0  0  0
  -16.5364  -29.9055   23.6324 C   0  0  0  0  0  0
  -16.7279  -28.6463   23.0358 C   0  0  0  0  0  0
  -26.4435  -31.6632   25.0734 C   0  0  0  0  0  0
  -25.3691  -31.3751   26.1476 C   0  0  0  0  0  0
  -27.0267  -30.3073   24.6121 C   0  0  0  0  0  0
  -27.5990  -32.4378   25.7484 C   0  0  0  0  0  0
  -27.5611  -37.1809   24.8480 C   0  0  0  0  0  0
  -21.4158  -29.2996   22.3715 N   0  0  0  0  0  0
  -26.4334  -37.3800   23.9413 N   0  0  0  0  0  0
  -24.6744  -31.0691   22.1018 N   0  0  0  0  0  0
  -23.4194  -28.8177   23.3031 O   0  0  0  0  0  0
  -28.3344  -26.5061   20.0869 O   0  0  0  0  0  0
  -26.5635  -34.8944   22.4711 O   0  0  0  0  0  0
  -23.5308  -32.1466   23.7419 O   0  0  0  0  0  0
  -29.7617  -19.6373   21.2144 C   0  0  0  0  0  0
  -28.0161  -17.9553   21.1214 C   0  0  0  0  0  0
  -29.3891  -18.2549   21.0880 C   0  0  0  0  0  0
  -27.4490  -20.3093   21.5907 C   0  0  0  0  0  0
  -28.8120  -20.6948   21.4349 C   0  0  0  0  0  0
  -27.0675  -18.9630   21.3683 C   0  0  0  0  0  0
  -24.8753  -21.8246   24.1348 C   0  0  0  0  0  0
  -28.3783  -23.5922   24.2771 C   0  0  0  0  0  0
  -26.3662  -21.2511   22.1173 C   0  0  0  0  0  0
  -30.4344  -17.1031   20.9260 C   0  0  0  0  0  0
  -25.9231  -20.8720   23.5444 C   0  0  0  0  0  0
  -29.2111  -24.3355   23.2246 C   0  0  0  0  0  0
  -28.9196  -25.9286   21.2810 C   0  0  0  0  0  0
  -28.7557  -23.1923   20.9546 C   0  0  0  0  0  0
  -28.5037  -24.4935   21.8464 C   0  0  1  0  0  0
  -29.9642  -15.6779   20.9522 N   0  0  0  0  0  0
  -29.2742  -22.0058   21.6558 O   0  0  0  0  0  0
  -25.7594  -18.6156   21.4370 F   0  0  0  0  0  0
  -31.4651  -12.4667   19.1555 H   0  0  0  0  0  0
  -30.3229  -11.3735   19.8836 H   0  0  0  0  0  0
  -29.7602  -11.7776   17.4595 H   0  0  0  0  0  0
  -29.6521  -13.4943   17.7581 H   0  0  0  0  0  0
  -27.8430  -11.3065   18.8357 H   0  0  0  0  0  0
  -27.3733  -12.6141   17.7832 H   0  0  0  0  0  0
  -27.6716  -14.2603   19.5300 H   0  0  0  0  0  0
  -28.6917  -12.0527   21.3804 H   0  0  0  0  0  0
  -28.4430  -13.7145   21.8395 H   0  0  0  0  0  0
  -25.2776   -9.5676   22.4743 H   0  0  0  0  0  0
  -24.0015   -7.4630   22.7465 H   0  0  0  0  0  0
  -21.0856   -8.8767   19.8950 H   0  0  0  0  0  0
  -22.3713  -10.9661   19.6157 H   0  0  0  0  0  0
  -21.2011   -7.6153   23.9721 H   0  0  0  0  0  0
  -21.1483   -6.0524   25.9077 H   0  0  0  0  0  0
  -22.0595   -2.7616   23.2841 H   0  0  0  0  0  0
  -22.4156  -11.9867   22.4810 H   0  0  0  0  0  0
  -21.1095  -13.1183   22.2617 H   0  0  0  0  0  0
  -24.6424  -15.8330   20.4999 H   0  0  0  0  0  0
  -26.2383  -15.6179   19.9932 H   0  0  0  0  0  0
  -26.7060  -32.5541   23.1148 H   0  0  0  0  0  0
  -24.9998  -33.9795   25.0441 H   0  0  0  0  0  0
  -22.6995  -31.2974   21.3972 H   0  0  0  0  0  0
  -23.3805  -35.9575   23.3330 H   0  0  0  0  0  0
  -24.3598  -36.8862   22.2059 H   0  0  0  0  0  0
  -23.7217  -37.6468   23.6645 H   0  0  0  0  0  0
  -26.0733  -31.5596   20.6082 H   0  0  0  0  0  0
  -26.8275  -30.8611   22.0112 H   0  0  0  0  0  0
  -28.1002  -29.0077   21.2687 H   0  0  0  0  0  0
  -26.0700  -25.9359   19.0377 H   0  0  0  0  0  0
  -23.9987  -27.2811   19.0292 H   0  0  0  0  0  0
  -23.7528  -30.5775   19.4038 H   0  0  0  0  0  0
  -22.7586  -29.2292   19.8640 H   0  0  0  0  0  0
  -25.1319  -36.1990   25.0845 H   0  0  0  0  0  0
  -20.9973  -28.3180   24.1434 H   0  0  0  0  0  0
  -20.5703  -26.2218   23.3586 H   0  0  0  0  0  0
  -21.6654  -26.7415   22.1190 H   0  0  0  0  0  0
  -19.6928  -25.6273   21.1220 H   0  0  0  0  0  0
  -19.6705  -27.3186   20.6759 H   0  0  0  0  0  0
  -17.4215  -26.6658   21.4007 H   0  0  0  0  0  0
  -18.0327  -26.0012   22.8993 H   0  0  0  0  0  0
  -19.7948  -30.7238   24.2241 H   0  0  0  0  0  0
  -17.5026  -31.6255   24.5121 H   0  0  0  0  0  0
  -15.5354  -30.2946   23.7650 H   0  0  0  0  0  0
  -15.8677  -28.0768   22.7077 H   0  0  0  0  0  0
  -24.5850  -30.7102   25.7824 H   0  0  0  0  0  0
  -24.8894  -32.2917   26.4925 H   0  0  0  0  0  0
  -25.8047  -30.8927   27.0235 H   0  0  0  0  0  0
  -26.2813  -29.6844   24.1148 H   0  0  0  0  0  0
  -27.3996  -29.7286   25.4579 H   0  0  0  0  0  0
  -27.8669  -30.4392   23.9296 H   0  0  0  0  0  0
  -27.2580  -33.3690   26.2031 H   0  0  0  0  0  0
  -28.3798  -32.6927   25.0304 H   0  0  0  0  0  0
  -28.0642  -31.8522   26.5421 H   0  0  0  0  0  0
  -28.2626  -38.0108   24.7556 H   0  0  0  0  0  0
  -28.1106  -36.2644   24.6291 H   0  0  0  0  0  0
  -27.2318  -37.1416   25.8875 H   0  0  0  0  0  0
  -20.9330  -29.8671   21.6897 H   0  0  0  0  0  0
  -26.0226  -38.2871   24.1430 H   0  0  0  0  0  0
  -30.8112  -19.8911   21.1718 H   0  0  0  0  0  0
  -27.6707  -16.9426   20.9988 H   0  0  0  0  0  0
  -24.5279  -21.4644   25.1050 H   0  0  0  0  0  0
  -24.0037  -21.9071   23.4854 H   0  0  0  0  0  0
  -25.2813  -22.8259   24.2826 H   0  0  0  0  0  0
  -28.1907  -22.5646   23.9821 H   0  0  0  0  0  0
  -27.4167  -24.0763   24.4363 H   0  0  0  0  0  0
  -28.9021  -23.5732   25.2354 H   0  0  0  0  0  0
  -25.5123  -21.2194   21.4415 H   0  0  0  0  0  0
  -26.6958  -22.2816   22.1377 H   0  0  0  0  0  0
  -31.1743  -17.2182   21.7213 H   0  0  0  0  0  0
  -30.9770  -17.2696   19.9924 H   0  0  0  0  0  0
  -25.5259  -19.8585   23.5600 H   0  0  0  0  0  0
  -26.7899  -20.8491   24.2044 H   0  0  0  0  0  0
  -29.4457  -25.3114   23.6496 H   0  0  0  0  0  0
  -30.1829  -23.8524   23.0993 H   0  0  0  0  0  0
  -29.9954  -25.9073   21.1041 H   0  0  0  0  0  0
  -28.7874  -26.6666   22.0772 H   0  0  0  0  0  0
  -27.8589  -22.9509   20.3838 H   0  0  0  0  0  0
  -29.5000  -23.4450   20.2006 H   0  0  0  0  0  0
  -27.4339  -24.5563   22.0457 H   0  0  0  0  0  0
  -29.0222  -15.5107   21.2686 H   0  0  0  0  0  0
  1 25  1  0  0  0
  1 30  2  0  0  0
  1 86  1  0  0  0
  2  3  1  0  0  0
  2 25  1  0  0  0
  2 89  1  0  0  0
  2 90  1  0  0  0
  3  4  1  0  0  0
  3 91  1  0  0  0
  3 92  1  0  0  0
  4  5  1  0  0  0
  4 93  1  0  0  0
  4 94  1  0  0  0
  5  6  1  0  0  0
  5 26  1  0  0  0
  5 95  1  0  0  0
  6 25  1  0  0  0
  6 96  1  0  0  0
  6 97  1  0  0  0
  7  8  2  0  0  0
  7 26  1  0  0  0
  7 29  1  0  0  0
  8  9  1  0  0  0
  8 22  1  0  0  0
  9 10  1  0  0  0
  9 27  2  0  0  0
 10 11  2  0  0  0
 10 15  1  0  0  0
 11 12  1  0  0  0
 11 98  1  0  0  0
 12 13  2  0  0  0
 12 99  1  0  0  0
 13 14  1  0  0  0
 13 31  1  0  0  0
 14 15  2  0  0  0
 14100  1  0  0  0
 15101  1  0  0  0
 16 17  2  0  0  0
 16 21  1  0  0  0
 16 31  1  0  0  0
 17 18  1  0  0  0
 17102  1  0  0  0
 18 19  2  0  0  0
 18103  1  0  0  0
 19 20  1  0  0  0
 19 24  1  0  0  0
 20 21  2  0  0  0
 20104  1  0  0  0
 21 23  1  0  0  0
 22 28  1  0  0  0
 22 32  2  0  0  0
 26 27  1  0  0  0
 28105  1  0  0  0
 28106  1  0  0  0
 29107  1  0  0  0
 29108  1  0  0  0
 33 34  1  0  0  0
 33 66  1  0  0  0
 33 70  2  0  0  0
 34 36  1  0  0  0
 34 59  1  0  0  0
 34109  1  0  0  0
 35 44  2  0  0  0
 35 45  1  0  0  0
 35 68  1  0  0  0
 36 56  1  0  0  0
 36110  1  0  0  0
 37 39  1  0  0  0
 37 47  1  0  0  0
 37 66  1  0  0  0
 37111  1  0  0  0
 38 43  2  0  0  0
 38 46  1  0  0  0
 38 47  1  0  0  0
 39 64  1  0  0  0
 39 67  2  0  0  0
 40 52  1  0  0  0
 40 53  2  0  0  0
 40 58  1  0  0  0
 41112  1  0  0  0
 41113  1  0  0  0
 41114  1  0  0  0
 41 48  1  0  0  0
 42 43  1  0  0  0
 42 66  1  0  0  0
 42115  1  0  0  0
 42116  1  0  0  0
 43 44  1  0  0  0
 44117  1  0  0  0
 45 46  2  0  0  0
 45118  1  0  0  0
 46119  1  0  0  0
 47120  1  0  0  0
 47121  1  0  0  0
 48 56  1  0  0  0
 48 65  1  0  0  0
 48122  1  0  0  0
 49 50  1  0  0  0
 49 53  1  0  0  0
 49 64  1  0  0  0
 49123  1  0  0  0
 50 51  1  0  0  0
 50124  1  0  0  0
 50125  1  0  0  0
 51 52  1  0  0  0
 51126  1  0  0  0
 51127  1  0  0  0
 52128  1  0  0  0
 52129  1  0  0  0
 53 54  1  0  0  0
 54 55  2  0  0  0
 54130  1  0  0  0
 55 57  1  0  0  0
 55131  1  0  0  0
 56 69  2  0  0  0
 57 58  2  0  0  0
 57132  1  0  0  0
 58133  1  0  0  0
 59 60  1  0  0  0
 59 61  1  0  0  0
 59 62  1  0  0  0
 60134  1  0  0  0
 60135  1  0  0  0
 60136  1  0  0  0
 61137  1  0  0  0
 61138  1  0  0  0
 61139  1  0  0  0
 62140  1  0  0  0
 62141  1  0  0  0
 62142  1  0  0  0
 63 65  1  0  0  0
 63143  1  0  0  0
 63144  1  0  0  0
 63145  1  0  0  0
 64146  1  0  0  0
 65147  1  0  0  0
 68 83  1  0  0  0
 71 73  2  0  0  0
 71 75  1  0  0  0
 71148  1  0  0  0
 72 73  1  0  0  0
 72 76  2  0  0  0
 72149  1  0  0  0
 73 80  1  0  0  0
 74 75  2  0  0  0
 74 76  1  0  0  0
 74 79  1  0  0  0
 75 87  1  0  0  0
 76 88  1  0  0  0
 77 81  1  0  0  0
 77150  1  0  0  0
 77151  1  0  0  0
 77152  1  0  0  0
 78 82  1  0  0  0
 78153  1  0  0  0
 78154  1  0  0  0
 78155  1  0  0  0
 79 81  1  0  0  0
 79156  1  0  0  0
 79157  1  0  0  0
 80 86  1  0  0  0
 80158  1  0  0  0
 80159  1  0  0  0
 81160  1  0  0  0
 81161  1  0  0  0
 82162  1  0  0  0
 82163  1  0  0  0
 82 85  1  0  0  0
 83 85  1  0  0  0
 83164  1  0  0  0
 83165  1  0  0  0
 84 85  1  0  0  0
 84 87  1  0  0  0
 84166  1  0  0  0
 84167  1  0  0  0
 85168  1  0  0  0
 86169  1  0  0  0
M  ISO  4   1 100  68 101  83 101  86 100
M  END
> <chiral flag>
0

> <version>
0

> <s_m_source_file>
/data/baiqing/PycharmProjects/Reinvent-master-3.2/result/LINK_invent/BTK/process_docking_weight1_custom_product_contain_oxygen_bond_distance_aromatic_linkinvent_7_9_3/rearranged_h_0134.sdf

> <i_m_source_file_index>
58

> <r_mmod_Potential_Energy-OPLS-2005>
80.4360198974609

> <r_mmod_Stretch_Energy-OPLS-2005>
73.8256607055664

> <r_mmod_Bend_Energy-OPLS-2005>
155.13053894043

> <r_mmod_Torsional_Energy-OPLS-2005>
265.882995605469

> <r_mmod_Improper_Torsional_Energy-OPLS-2005>
5.45482540130615

> <r_mmod_Van_der_Waal_Energy-OPLS-2005>
135.146286010742

> <r_mmod_Electrostatic_Energy-OPLS-2005>
-395.623413085938

> <r_mmod_Solvation_Energy-OPLS-2005>
-194.013549804688

> <b_mmod_Minimization_Converged-OPLS-2005>
0

> <r_mmod_RMS_Derivative-OPLS-2005>
4.56853818893433

$$$$
58
                    3D
 Structure written by MMmdl.
163171  0  0  1  0            999 V2000
  -30.5791  -14.7536   20.4512 C   0  0  0  0  0  0
  -30.4317  -12.4545   19.4861 C   0  0  0  0  0  0
  -29.5179  -12.5317   18.2414 C   0  0  0  0  0  0
  -28.0409  -12.3512   18.6435 C   0  0  0  0  0  0
  -27.6453  -13.2332   19.8578 C   0  0  2  0  0  0
  -28.6850  -13.1498   20.9982 C   0  0  0  0  0  0
  -25.2529  -13.8198   20.5689 C   0  0  0  0  0  0
  -24.1813  -13.0442   20.9176 C   0  0  0  0  0  0
  -24.6395  -11.6919   20.8708 C   0  0  0  0  0  0
  -23.9059  -10.4297   21.0379 C   0  0  0  0  0  0
  -24.3616   -9.4223   21.9159 C   0  0  0  0  0  0
  -23.6305   -8.2248   22.0734 C   0  0  0  0  0  0
  -22.4280   -8.0279   21.3528 C   0  0  0  0  0  0
  -21.9900   -9.0244   20.4631 C   0  0  0  0  0  0
  -22.7217  -10.2136   20.3036 C   0  0  0  0  0  0
  -21.6857   -6.0722   22.5274 C   0  0  0  0  0  0
  -21.4015   -6.5628   23.8209 C   0  0  0  0  0  0
  -21.3662   -5.6784   24.9175 C   0  0  0  0  0  0
  -21.6047   -4.3046   24.7221 C   0  0  0  0  0  0
  -21.8822   -3.8130   23.4346 C   0  0  0  0  0  0
  -21.9199   -4.6947   22.3401 C   0  0  0  0  0  0
  -22.7836  -13.5234   21.1848 C   0  0  0  0  0  0
  -22.1668   -4.2130   21.0978 F   0  0  0  0  0  0
  -21.5640   -3.4533   25.7738 F   0  0  0  0  0  0
  -29.9921  -13.5070   20.4341 N   0  0  0  0  0  0
  -26.2951  -12.9398   20.3279 N   0  0  0  0  0  0
  -25.9327  -11.6534   20.5717 N   0  0  0  0  0  0
  -22.0478  -12.8238   22.0411 N   0  0  0  0  0  0
  -25.4262  -15.1926   20.4182 N   0  0  0  0  0  0
  -31.7348  -14.8901   20.0345 O   0  0  0  0  0  0
  -21.6650   -6.8865   21.4232 O   0  0  0  0  0  0
  -22.3517  -14.5537   20.6688 O   0  0  0  0  0  0
  -24.6328  -31.8529   23.1971 C   0  0  0  0  0  0
  -25.9156  -32.4717   23.8311 C   0  0  1  0  0  0
  -27.2120  -27.2451   20.1099 C   0  0  0  0  0  0
  -25.5976  -33.8524   24.2253 N   0  0  0  0  0  0
  -23.4287  -30.4775   21.5398 C   0  0  2  0  0  0
  -24.8718  -28.9213   20.1071 C   0  0  0  0  0  0
  -22.7499  -29.4590   22.4873 C   0  0  0  0  0  0
  -18.0297  -28.1380   22.8470 C   0  0  0  0  0  0
  -24.1505  -36.7260   23.2642 C   0  0  0  0  0  0
  -25.9768  -30.7596   21.3785 C   0  0  0  0  0  0
  -26.0455  -29.3824   20.7140 C   0  0  0  0  0  0
  -27.2160  -28.5569   20.7028 C   0  0  0  0  0  0
  -26.0077  -26.8477   19.4887 C   0  0  0  0  0  0
  -24.8580  -27.6625   19.4864 C   0  0  0  0  0  0
  -23.6490  -29.8170   20.1538 C   0  0  0  0  0  0
  -25.4129  -36.3038   24.0331 C   0  0  1  0  0  0
  -20.5897  -28.3692   23.1271 C   0  0  2  0  0  0
  -20.6783  -26.9405   22.5423 C   0  0  0  0  0  0
  -19.5776  -26.6375   21.5206 C   0  0  0  0  0  0
  -18.1943  -26.7933   22.1589 C   0  0  0  0  0  0
  -19.1543  -28.8851   23.2873 C   0  0  0  0  0  0
  -18.9466  -30.1442   23.8898 C   0  0  0  0  0  0
  -17.6462  -30.6579   24.0561 C   0  0  0  0  0  0
  -25.9076  -34.9414   23.5085 C   0  0  0  0  0  0
  -16.5357  -29.9077   23.6321 C   0  0  0  0  0  0
  -16.7278  -28.6502   23.0336 C   0  0  0  0  0  0
  -26.4541  -31.6529   25.0687 C   0  0  0  0  0  0
  -25.3782  -31.3665   26.1412 C   0  0  0  0  0  0
  -27.0397  -30.2948   24.6176 C   0  0  0  0  0  0
  -27.6116  -32.4254   25.7449 C   0  0  0  0  0  0
  -27.5587  -37.1785   24.8466 C   0  0  0  0  0  0
  -21.4205  -29.3034   22.3640 N   0  0  0  0  0  0
  -26.4295  -37.3743   23.9413 N   0  0  0  0  0  0
  -24.6984  -31.0489   22.0945 N   0  0  0  0  0  0
  -23.4207  -28.8128   23.2970 O   0  0  0  0  0  0
  -28.3260  -26.3730   20.1783 O   0  0  0  0  0  0
  -26.5622  -34.8894   22.4639 O   0  0  0  0  0  0
  -23.5484  -32.1364   23.7268 O   0  0  0  0  0  0
  -29.0146  -16.9274   18.7893 C   0  0  0  0  0  0
  -29.3546  -18.4439   20.6382 C   0  0  0  0  0  0
  -28.3602  -17.9587   18.0830 C   0  0  0  0  0  0
  -28.1745  -19.2617   18.6544 C   0  0  0  0  0  0
  -29.4670  -17.0914   20.1063 C   0  0  0  0  0  0
  -28.7820  -19.5819   19.9182 C   0  0  0  0  0  0
  -28.5933  -18.2467   15.5567 C   0  0  0  0  0  0
  -26.0601  -20.7659   18.7934 C   0  0  0  0  0  0
  -27.8309  -17.5647   16.7012 C   0  0  0  0  0  0
  -27.2302  -20.2459   17.9356 C   0  0  0  0  0  0
  -28.3312  -23.6028   20.4608 C   0  0  0  0  0  0
  -28.3881  -24.9811   19.5931 C   0  0  0  0  0  0
  -28.9457  -22.2082   19.8654 C   0  0  0  0  0  0
  -29.8266  -15.8526   20.8499 N   0  0  0  0  0  0
  -28.6946  -20.8804   20.5341 O   0  0  0  0  0  0
  -31.4776  -12.5673   19.1970 H   0  0  0  0  0  0
  -30.3603  -11.4710   19.9527 H   0  0  0  0  0  0
  -29.8074  -11.7772   17.5090 H   0  0  0  0  0  0
  -29.6485  -13.4966   17.7485 H   0  0  0  0  0  0
  -27.8923  -11.2991   18.8864 H   0  0  0  0  0  0
  -27.3892  -12.5617   17.7945 H   0  0  0  0  0  0
  -27.6419  -14.2597   19.4928 H   0  0  0  0  0  0
  -28.7184  -12.1470   21.4244 H   0  0  0  0  0  0
  -28.4134  -13.8186   21.8162 H   0  0  0  0  0  0
  -25.2765   -9.5722   22.4731 H   0  0  0  0  0  0
  -24.0024   -7.4642   22.7453 H   0  0  0  0  0  0
  -21.0821   -8.8749   19.8954 H   0  0  0  0  0  0
  -22.3649  -10.9663   19.6152 H   0  0  0  0  0  0
  -21.2001   -7.6134   23.9707 H   0  0  0  0  0  0
  -21.1487   -6.0514   25.9083 H   0  0  0  0  0  0
  -22.0602   -2.7586   23.2849 H   0  0  0  0  0  0
  -22.4094  -11.9926   22.4850 H   0  0  0  0  0  0
  -21.1082  -13.1248   22.2571 H   0  0  0  0  0  0
  -24.6633  -15.8516   20.5306 H   0  0  0  0  0  0
  -26.2908  -15.6330   20.1295 H   0  0  0  0  0  0
  -26.7200  -32.5355   23.1027 H   0  0  0  0  0  0
  -25.0159  -33.9665   25.0424 H   0  0  0  0  0  0
  -22.7261  -31.3009   21.3944 H   0  0  0  0  0  0
  -23.3771  -35.9585   23.3281 H   0  0  0  0  0  0
  -24.3610  -36.8903   22.2063 H   0  0  0  0  0  0
  -23.7254  -37.6456   23.6677 H   0  0  0  0  0  0
  -26.1241  -31.5252   20.6151 H   0  0  0  0  0  0
  -26.8524  -30.8009   22.0150 H   0  0  0  0  0  0
  -28.1183  -28.9089   21.1833 H   0  0  0  0  0  0
  -25.9081  -25.8822   19.0207 H   0  0  0  0  0  0
  -23.9551  -27.3017   19.0136 H   0  0  0  0  0  0
  -23.7905  -30.5999   19.4067 H   0  0  0  0  0  0
  -22.7642  -29.2647   19.8329 H   0  0  0  0  0  0
  -25.1312  -36.1871   25.0822 H   0  0  0  0  0  0
  -20.9995  -28.3266   24.1390 H   0  0  0  0  0  0
  -20.5644  -26.2299   23.3627 H   0  0  0  0  0  0
  -21.6653  -26.7406   22.1246 H   0  0  0  0  0  0
  -19.6947  -25.6281   21.1243 H   0  0  0  0  0  0
  -19.6749  -27.3173   20.6728 H   0  0  0  0  0  0
  -17.4237  -26.6699   21.3963 H   0  0  0  0  0  0
  -18.0319  -26.0056   22.8964 H   0  0  0  0  0  0
  -19.7942  -30.7249   24.2279 H   0  0  0  0  0  0
  -17.5023  -31.6256   24.5166 H   0  0  0  0  0  0
  -15.5357  -30.2983   23.7645 H   0  0  0  0  0  0
  -15.8681  -28.0825   22.7043 H   0  0  0  0  0  0
  -24.6008  -30.6942   25.7752 H   0  0  0  0  0  0
  -24.8912  -32.2816   26.4789 H   0  0  0  0  0  0
  -25.8132  -30.8902   27.0206 H   0  0  0  0  0  0
  -26.2966  -29.6644   24.1268 H   0  0  0  0  0  0
  -27.4162  -29.7245   25.4678 H   0  0  0  0  0  0
  -27.8810  -30.4216   23.9357 H   0  0  0  0  0  0
  -27.2752  -33.3553   26.2038 H   0  0  0  0  0  0
  -28.3917  -32.6800   25.0262 H   0  0  0  0  0  0
  -28.0790  -31.8358   26.5346 H   0  0  0  0  0  0
  -28.2598  -38.0086   24.7491 H   0  0  0  0  0  0
  -28.1088  -36.2617   24.6297 H   0  0  0  0  0  0
  -27.2317  -37.1433   25.8874 H   0  0  0  0  0  0
  -20.9370  -29.8780   21.6876 H   0  0  0  0  0  0
  -26.0167  -38.2810   24.1419 H   0  0  0  0  0  0
  -29.0850  -15.9497   18.3333 H   0  0  0  0  0  0
  -29.6946  -18.6174   21.6482 H   0  0  0  0  0  0
  -28.2405  -17.8890   14.5893 H   0  0  0  0  0  0
  -29.6598  -18.0303   15.6159 H   0  0  0  0  0  0
  -28.4730  -19.3290   15.5755 H   0  0  0  0  0  0
  -25.3988  -21.3888   18.1896 H   0  0  0  0  0  0
  -26.3795  -21.3658   19.6427 H   0  0  0  0  0  0
  -25.4619  -19.9415   19.1832 H   0  0  0  0  0  0
  -26.7581  -17.7404   16.6254 H   0  0  0  0  0  0
  -27.9213  -16.4866   16.5643 H   0  0  0  0  0  0
  -26.7417  -19.7807   17.0870 H   0  0  0  0  0  0
  -27.7866  -21.0425   17.4535 H   0  0  0  0  0  0
  -27.2848  -23.4308   20.7120 H   0  0  0  0  0  0
  -28.8223  -23.7947   21.4142 H   0  0  0  0  0  0
  -27.7031  -24.8824   18.7529 H   0  0  0  0  0  0
  -29.3615  -24.9683   19.1035 H   0  0  0  0  0  0
  -30.0304  -22.3203   19.8722 H   0  0  0  0  0  0
  -28.7107  -22.1798   18.8141 H   0  0  0  0  0  0
  -29.1100  -15.5852   21.5076 H   0  0  0  0  0  0
  1 25  1  0  0  0
  1 30  2  0  0  0
  1 84  1  0  0  0
  2  3  1  0  0  0
  2 25  1  0  0  0
  2 86  1  0  0  0
  2 87  1  0  0  0
  3  4  1  0  0  0
  3 88  1  0  0  0
  3 89  1  0  0  0
  4  5  1  0  0  0
  4 90  1  0  0  0
  4 91  1  0  0  0
  5  6  1  0  0  0
  5 26  1  0  0  0
  5 92  1  0  0  0
  6 25  1  0  0  0
  6 93  1  0  0  0
  6 94  1  0  0  0
  7  8  2  0  0  0
  7 26  1  0  0  0
  7 29  1  0  0  0
  8  9  1  0  0  0
  8 22  1  0  0  0
  9 10  1  0  0  0
  9 27  2  0  0  0
 10 11  2  0  0  0
 10 15  1  0  0  0
 11 12  1  0  0  0
 11 95  1  0  0  0
 12 13  2  0  0  0
 12 96  1  0  0  0
 13 14  1  0  0  0
 13 31  1  0  0  0
 14 15  2  0  0  0
 14 97  1  0  0  0
 15 98  1  0  0  0
 16 17  2  0  0  0
 16 21  1  0  0  0
 16 31  1  0  0  0
 17 18  1  0  0  0
 17 99  1  0  0  0
 18 19  2  0  0  0
 18100  1  0  0  0
 19 20  1  0  0  0
 19 24  1  0  0  0
 20 21  2  0  0  0
 20101  1  0  0  0
 21 23  1  0  0  0
 22 28  1  0  0  0
 22 32  2  0  0  0
 26 27  1  0  0  0
 28102  1  0  0  0
 28103  1  0  0  0
 29104  1  0  0  0
 29105  1  0  0  0
 33 34  1  0  0  0
 33 66  1  0  0  0
 33 70  2  0  0  0
 34 36  1  0  0  0
 34 59  1  0  0  0
 34106  1  0  0  0
 35 44  2  0  0  0
 35 45  1  0  0  0
 35 68  1  0  0  0
 36 56  1  0  0  0
 36107  1  0  0  0
 37 39  1  0  0  0
 37 47  1  0  0  0
 37 66  1  0  0  0
 37108  1  0  0  0
 38 43  2  0  0  0
 38 46  1  0  0  0
 38 47  1  0  0  0
 39 64  1  0  0  0
 39 67  2  0  0  0
 40 52  1  0  0  0
 40 53  2  0  0  0
 40 58  1  0  0  0
 41109  1  0  0  0
 41110  1  0  0  0
 41111  1  0  0  0
 41 48  1  0  0  0
 42 43  1  0  0  0
 42 66  1  0  0  0
 42112  1  0  0  0
 42113  1  0  0  0
 43 44  1  0  0  0
 44114  1  0  0  0
 45 46  2  0  0  0
 45115  1  0  0  0
 46116  1  0  0  0
 47117  1  0  0  0
 47118  1  0  0  0
 48 56  1  0  0  0
 48 65  1  0  0  0
 48119  1  0  0  0
 49 50  1  0  0  0
 49 53  1  0  0  0
 49 64  1  0  0  0
 49120  1  0  0  0
 50 51  1  0  0  0
 50121  1  0  0  0
 50122  1  0  0  0
 51 52  1  0  0  0
 51123  1  0  0  0
 51124  1  0  0  0
 52125  1  0  0  0
 52126  1  0  0  0
 53 54  1  0  0  0
 54 55  2  0  0  0
 54127  1  0  0  0
 55 57  1  0  0  0
 55128  1  0  0  0
 56 69  2  0  0  0
 57 58  2  0  0  0
 57129  1  0  0  0
 58130  1  0  0  0
 59 60  1  0  0  0
 59 61  1  0  0  0
 59 62  1  0  0  0
 60131  1  0  0  0
 60132  1  0  0  0
 60133  1  0  0  0
 61134  1  0  0  0
 61135  1  0  0  0
 61136  1  0  0  0
 62137  1  0  0  0
 62138  1  0  0  0
 62139  1  0  0  0
 63 65  1  0  0  0
 63140  1  0  0  0
 63141  1  0  0  0
 63142  1  0  0  0
 64143  1  0  0  0
 65144  1  0  0  0
 68 82  1  0  0  0
 71 73  2  0  0  0
 71 75  1  0  0  0
 71145  1  0  0  0
 72 75  2  0  0  0
 72 76  1  0  0  0
 72146  1  0  0  0
 73 74  1  0  0  0
 73 79  1  0  0  0
 74 76  2  0  0  0
 74 80  1  0  0  0
 75 84  1  0  0  0
 76 85  1  0  0  0
 77 79  1  0  0  0
 77147  1  0  0  0
 77148  1  0  0  0
 77149  1  0  0  0
 78 80  1  0  0  0
 78150  1  0  0  0
 78151  1  0  0  0
 78152  1  0  0  0
 79153  1  0  0  0
 79154  1  0  0  0
 80155  1  0  0  0
 80156  1  0  0  0
 81 82  1  0  0  0
 81 83  1  0  0  0
 81157  1  0  0  0
 81158  1  0  0  0
 82159  1  0  0  0
 82160  1  0  0  0
 83 85  1  0  0  0
 83161  1  0  0  0
 83162  1  0  0  0
 84163  1  0  0  0
M  ISO  4   1 100  68 101  82 101  84 100
M  END
> <chiral flag>
0

> <version>
0

> <s_m_source_file>
/data/baiqing/PycharmProjects/Reinvent-master-3.2/result/LINK_invent/BTK/process_docking_weight1_custom_product_contain_oxygen_bond_distance_aromatic_linkinvent_7_9_3/rearranged_h_0134.sdf

> <i_m_source_file_index>
59

> <r_mmod_Potential_Energy-OPLS-2005>
283.759185791016

> <r_mmod_Stretch_Energy-OPLS-2005>
145.517730712891

> <r_mmod_Bend_Energy-OPLS-2005>
208.681518554688

> <r_mmod_Torsional_Energy-OPLS-2005>
273.727203369141

> <r_mmod_Improper_Torsional_Energy-OPLS-2005>
6.75283193588257

> <r_mmod_Van_der_Waal_Energy-OPLS-2005>
141.63606262207

> <r_mmod_Electrostatic_Energy-OPLS-2005>
-372.505065917969

> <r_mmod_Solvation_Energy-OPLS-2005>
-209.472396850586

> <b_mmod_Minimization_Converged-OPLS-2005>
0

> <r_mmod_RMS_Derivative-OPLS-2005>
2.14267468452454

$$$$
59
                    3D
 Structure written by MMmdl.
164172  0  0  1  0            999 V2000
  -30.7130  -14.4034   20.6622 C   0  0  0  0  0  0
  -30.4362  -12.2997   19.3945 C   0  0  0  0  0  0
  -29.4983  -12.5398   18.1942 C   0  0  0  0  0  0
  -28.0177  -12.3958   18.6035 C   0  0  0  0  0  0
  -27.6724  -13.2014   19.8830 C   0  0  2  0  0  0
  -28.7092  -12.9074   20.9887 C   0  0  0  0  0  0
  -25.2635  -13.8171   20.5682 C   0  0  0  0  0  0
  -24.1852  -13.0461   20.9138 C   0  0  0  0  0  0
  -24.6390  -11.6926   20.8697 C   0  0  0  0  0  0
  -23.9054  -10.4317   21.0377 C   0  0  0  0  0  0
  -24.3610   -9.4234   21.9158 C   0  0  0  0  0  0
  -23.6288   -8.2269   22.0736 C   0  0  0  0  0  0
  -22.4261   -8.0304   21.3545 C   0  0  0  0  0  0
  -21.9898   -9.0273   20.4636 C   0  0  0  0  0  0
  -22.7230  -10.2146   20.3030 C   0  0  0  0  0  0
  -21.6867   -6.0742   22.5284 C   0  0  0  0  0  0
  -21.4029   -6.5637   23.8219 C   0  0  0  0  0  0
  -21.3651   -5.6776   24.9176 C   0  0  0  0  0  0
  -21.6036   -4.3042   24.7218 C   0  0  0  0  0  0
  -21.8825   -3.8147   23.4339 C   0  0  0  0  0  0
  -21.9203   -4.6974   22.3403 C   0  0  0  0  0  0
  -22.7870  -13.5270   21.1812 C   0  0  0  0  0  0
  -22.1666   -4.2163   21.0978 F   0  0  0  0  0  0
  -21.5609   -3.4524   25.7729 F   0  0  0  0  0  0
  -30.0565  -13.2279   20.4682 N   0  0  0  0  0  0
  -26.3071  -12.9327   20.3374 N   0  0  0  0  0  0
  -25.9317  -11.6492   20.5719 N   0  0  0  0  0  0
  -22.0499  -12.8266   22.0355 N   0  0  0  0  0  0
  -25.4405  -15.1879   20.4132 N   0  0  0  0  0  0
  -31.7343  -14.7248   20.0445 O   0  0  0  0  0  0
  -21.6642   -6.8889   21.4243 O   0  0  0  0  0  0
  -22.3559  -14.5593   20.6690 O   0  0  0  0  0  0
  -24.6133  -31.8697   23.2100 C   0  0  0  0  0  0
  -25.9035  -32.4834   23.8388 C   0  0  1  0  0  0
  -27.2379  -27.4446   20.0947 C   0  0  0  0  0  0
  -25.5893  -33.8626   24.2324 N   0  0  0  0  0  0
  -23.4017  -30.4941   21.5488 C   0  0  2  0  0  0
  -24.8508  -28.9620   20.1144 C   0  0  0  0  0  0
  -22.7408  -29.4676   22.4967 C   0  0  0  0  0  0
  -18.0282  -28.1395   22.8492 C   0  0  0  0  0  0
  -24.1486  -36.7314   23.2634 C   0  0  0  0  0  0
  -25.9304  -30.8398   21.3617 C   0  0  0  0  0  0
  -26.0108  -29.4749   20.7093 C   0  0  0  0  0  0
  -27.2099  -28.7250   20.6940 C   0  0  0  0  0  0
  -26.0634  -26.9520   19.4841 C   0  0  0  0  0  0
  -24.8720  -27.6991   19.4985 C   0  0  0  0  0  0
  -23.6118  -29.8271   20.1632 C   0  0  0  0  0  0
  -25.4107  -36.3114   24.0338 C   0  0  1  0  0  0
  -20.5870  -28.3681   23.1316 C   0  0  2  0  0  0
  -20.6767  -26.9413   22.5427 C   0  0  0  0  0  0
  -19.5748  -26.6400   21.5215 C   0  0  0  0  0  0
  -18.1926  -26.7946   22.1621 C   0  0  0  0  0  0
  -19.1530  -28.8854   23.2907 C   0  0  0  0  0  0
  -18.9461  -30.1458   23.8921 C   0  0  0  0  0  0
  -17.6461  -30.6591   24.0582 C   0  0  0  0  0  0
  -25.9032  -34.9481   23.5128 C   0  0  0  0  0  0
  -16.5354  -29.9099   23.6325 C   0  0  0  0  0  0
  -16.7272  -28.6522   23.0336 C   0  0  0  0  0  0
  -26.4461  -31.6604   25.0711 C   0  0  0  0  0  0
  -25.3738  -31.3725   26.1472 C   0  0  0  0  0  0
  -27.0277  -30.3041   24.6078 C   0  0  0  0  0  0
  -27.6040  -32.4321   25.7475 C   0  0  0  0  0  0
  -27.5588  -37.1811   24.8465 C   0  0  0  0  0  0
  -21.4135  -29.3049   22.3715 N   0  0  0  0  0  0
  -26.4294  -37.3798   23.9412 N   0  0  0  0  0  0
  -24.6665  -31.0817   22.0984 N   0  0  0  0  0  0
  -23.4190  -28.8204   23.2994 O   0  0  0  0  0  0
  -28.3955  -26.6956   20.0889 O   0  0  0  0  0  0
  -26.5595  -34.8929   22.4689 O   0  0  0  0  0  0
  -23.5332  -32.1435   23.7506 O   0  0  0  0  0  0
  -29.0658  -19.2396   21.7627 C   0  0  0  0  0  0
  -30.5023  -17.5048   20.8494 C   0  0  0  0  0  0
  -28.4441  -18.3005   22.6045 C   0  0  0  0  0  0
  -28.8438  -16.9417   22.5673 C   0  0  0  0  0  0
  -29.8729  -16.5358   21.6763 C   0  0  0  0  0  0
  -30.0936  -18.8605   20.8708 C   0  0  0  0  0  0
  -31.5771  -22.1202   21.4496 C   0  0  0  0  0  0
  -30.3988  -22.0876   20.8052 C   0  0  0  0  0  0
  -27.3320  -18.7853   23.5218 C   0  0  0  0  0  0
  -28.1388  -15.9139   23.4521 C   0  0  0  0  0  0
  -29.3031  -23.1052   21.1139 C   0  0  0  0  0  0
  -30.0880  -21.0214   19.7522 C   0  0  0  0  0  0
  -29.4316  -24.4489   20.3593 C   0  0  0  0  0  0
  -28.2689  -25.4040   20.7034 C   0  0  0  0  0  0
  -30.1964  -15.1455   21.6518 N   0  0  0  0  0  0
  -30.7152  -19.7537   20.0153 O   0  0  0  0  0  0
  -31.4788  -12.4212   19.0938 H   0  0  0  0  0  0
  -30.3499  -11.2715   19.7478 H   0  0  0  0  0  0
  -29.7355  -11.8475   17.3846 H   0  0  0  0  0  0
  -29.6716  -13.5411   17.7963 H   0  0  0  0  0  0
  -27.8136  -11.3376   18.7672 H   0  0  0  0  0  0
  -27.3706  -12.7047   17.7817 H   0  0  0  0  0  0
  -27.7394  -14.2597   19.6283 H   0  0  0  0  0  0
  -28.6744  -11.8511   21.2583 H   0  0  0  0  0  0
  -28.4461  -13.4323   21.9054 H   0  0  0  0  0  0
  -25.2756   -9.5726   22.4722 H   0  0  0  0  0  0
  -24.0027   -7.4662   22.7440 H   0  0  0  0  0  0
  -21.0835   -8.8787   19.8931 H   0  0  0  0  0  0
  -22.3695  -10.9679   19.6124 H   0  0  0  0  0  0
  -21.2030   -7.6141   23.9743 H   0  0  0  0  0  0
  -21.1451   -6.0484   25.9078 H   0  0  0  0  0  0
  -22.0609   -2.7613   23.2829 H   0  0  0  0  0  0
  -22.4113  -11.9936   22.4763 H   0  0  0  0  0  0
  -21.1115  -13.1301   22.2561 H   0  0  0  0  0  0
  -24.6822  -15.8516   20.5241 H   0  0  0  0  0  0
  -26.3106  -15.6261   20.1386 H   0  0  0  0  0  0
  -26.7108  -32.5552   23.1155 H   0  0  0  0  0  0
  -25.0067  -33.9781   25.0487 H   0  0  0  0  0  0
  -22.6894  -31.3098   21.4088 H   0  0  0  0  0  0
  -23.3747  -35.9650   23.3315 H   0  0  0  0  0  0
  -24.3579  -36.8912   22.2046 H   0  0  0  0  0  0
  -23.7243  -37.6525   23.6638 H   0  0  0  0  0  0
  -26.0418  -31.6066   20.5936 H   0  0  0  0  0  0
  -26.8181  -30.8952   21.9795 H   0  0  0  0  0  0
  -28.1058  -29.1196   21.1516 H   0  0  0  0  0  0
  -26.0688  -25.9919   18.9875 H   0  0  0  0  0  0
  -23.9824  -27.3010   19.0292 H   0  0  0  0  0  0
  -23.7218  -30.6023   19.4038 H   0  0  0  0  0  0
  -22.7372  -29.2470   19.8642 H   0  0  0  0  0  0
  -25.1282  -36.1978   25.0831 H   0  0  0  0  0  0
  -20.9979  -28.3264   24.1430 H   0  0  0  0  0  0
  -20.5666  -26.2290   23.3618 H   0  0  0  0  0  0
  -21.6640  -26.7448   22.1229 H   0  0  0  0  0  0
  -19.6902  -25.6314   21.1238 H   0  0  0  0  0  0
  -19.6691  -27.3218   20.6749 H   0  0  0  0  0  0
  -17.4199  -26.6714   21.4016 H   0  0  0  0  0  0
  -18.0314  -26.0083   22.9009 H   0  0  0  0  0  0
  -19.7934  -30.7273   24.2297 H   0  0  0  0  0  0
  -17.5015  -31.6264   24.5195 H   0  0  0  0  0  0
  -15.5359  -30.3009   23.7626 H   0  0  0  0  0  0
  -15.8674  -28.0848   22.7027 H   0  0  0  0  0  0
  -24.5921  -30.7041   25.7840 H   0  0  0  0  0  0
  -24.8912  -32.2888   26.4884 H   0  0  0  0  0  0
  -25.8110  -30.8943   27.0246 H   0  0  0  0  0  0
  -26.2812  -29.6825   24.1119 H   0  0  0  0  0  0
  -27.4030  -29.7250   25.4525 H   0  0  0  0  0  0
  -27.8655  -30.4345   23.9226 H   0  0  0  0  0  0
  -27.2651  -33.3607   26.2075 H   0  0  0  0  0  0
  -28.3839  -32.6903   25.0303 H   0  0  0  0  0  0
  -28.0717  -31.8433   26.5376 H   0  0  0  0  0  0
  -28.2614  -38.0098   24.7509 H   0  0  0  0  0  0
  -28.1073  -36.2636   24.6286 H   0  0  0  0  0  0
  -27.2316  -37.1473   25.8869 H   0  0  0  0  0  0
  -20.9289  -29.8776   21.6944 H   0  0  0  0  0  0
  -26.0188  -38.2876   24.1412 H   0  0  0  0  0  0
  -28.7326  -20.2646   21.8188 H   0  0  0  0  0  0
  -31.2911  -17.2171   20.1696 H   0  0  0  0  0  0
  -31.7881  -22.8698   22.1981 H   0  0  0  0  0  0
  -32.3506  -21.3950   21.2365 H   0  0  0  0  0  0
  -27.1221  -19.8433   23.3644 H   0  0  0  0  0  0
  -27.6106  -18.6618   24.5690 H   0  0  0  0  0  0
  -26.4077  -18.2373   23.3356 H   0  0  0  0  0  0
  -27.6920  -16.3573   24.3400 H   0  0  0  0  0  0
  -28.8244  -15.1513   23.8192 H   0  0  0  0  0  0
  -27.3434  -15.4221   22.8914 H   0  0  0  0  0  0
  -29.3233  -23.3052   22.1861 H   0  0  0  0  0  0
  -28.3277  -22.6561   20.9210 H   0  0  0  0  0  0
  -30.4443  -21.3867   18.7891 H   0  0  0  0  0  0
  -29.0128  -20.8881   19.6294 H   0  0  0  0  0  0
  -29.4492  -24.2685   19.2844 H   0  0  0  0  0  0
  -30.3806  -24.9238   20.6119 H   0  0  0  0  0  0
  -28.2301  -25.5547   21.7835 H   0  0  0  0  0  0
  -27.3376  -24.9061   20.4321 H   0  0  0  0  0  0
  -29.5922  -14.5919   22.2390 H   0  0  0  0  0  0
  1 25  1  0  0  0
  1 30  2  0  0  0
  1 85  1  0  0  0
  2  3  1  0  0  0
  2 25  1  0  0  0
  2 87  1  0  0  0
  2 88  1  0  0  0
  3  4  1  0  0  0
  3 89  1  0  0  0
  3 90  1  0  0  0
  4  5  1  0  0  0
  4 91  1  0  0  0
  4 92  1  0  0  0
  5  6  1  0  0  0
  5 26  1  0  0  0
  5 93  1  0  0  0
  6 25  1  0  0  0
  6 94  1  0  0  0
  6 95  1  0  0  0
  7  8  2  0  0  0
  7 26  1  0  0  0
  7 29  1  0  0  0
  8  9  1  0  0  0
  8 22  1  0  0  0
  9 10  1  0  0  0
  9 27  2  0  0  0
 10 11  2  0  0  0
 10 15  1  0  0  0
 11 12  1  0  0  0
 11 96  1  0  0  0
 12 13  2  0  0  0
 12 97  1  0  0  0
 13 14  1  0  0  0
 13 31  1  0  0  0
 14 15  2  0  0  0
 14 98  1  0  0  0
 15 99  1  0  0  0
 16 17  2  0  0  0
 16 21  1  0  0  0
 16 31  1  0  0  0
 17 18  1  0  0  0
 17100  1  0  0  0
 18 19  2  0  0  0
 18101  1  0  0  0
 19 20  1  0  0  0
 19 24  1  0  0  0
 20 21  2  0  0  0
 20102  1  0  0  0
 21 23  1  0  0  0
 22 28  1  0  0  0
 22 32  2  0  0  0
 26 27  1  0  0  0
 28103  1  0  0  0
 28104  1  0  0  0
 29105  1  0  0  0
 29106  1  0  0  0
 33 34  1  0  0  0
 33 66  1  0  0  0
 33 70  2  0  0  0
 34 36  1  0  0  0
 34 59  1  0  0  0
 34107  1  0  0  0
 35 44  2  0  0  0
 35 45  1  0  0  0
 35 68  1  0  0  0
 36 56  1  0  0  0
 36108  1  0  0  0
 37 39  1  0  0  0
 37 47  1  0  0  0
 37 66  1  0  0  0
 37109  1  0  0  0
 38 43  2  0  0  0
 38 46  1  0  0  0
 38 47  1  0  0  0
 39 64  1  0  0  0
 39 67  2  0  0  0
 40 52  1  0  0  0
 40 53  2  0  0  0
 40 58  1  0  0  0
 41110  1  0  0  0
 41111  1  0  0  0
 41112  1  0  0  0
 41 48  1  0  0  0
 42 43  1  0  0  0
 42 66  1  0  0  0
 42113  1  0  0  0
 42114  1  0  0  0
 43 44  1  0  0  0
 44115  1  0  0  0
 45 46  2  0  0  0
 45116  1  0  0  0
 46117  1  0  0  0
 47118  1  0  0  0
 47119  1  0  0  0
 48 56  1  0  0  0
 48 65  1  0  0  0
 48120  1  0  0  0
 49 50  1  0  0  0
 49 53  1  0  0  0
 49 64  1  0  0  0
 49121  1  0  0  0
 50 51  1  0  0  0
 50122  1  0  0  0
 50123  1  0  0  0
 51 52  1  0  0  0
 51124  1  0  0  0
 51125  1  0  0  0
 52126  1  0  0  0
 52127  1  0  0  0
 53 54  1  0  0  0
 54 55  2  0  0  0
 54128  1  0  0  0
 55 57  1  0  0  0
 55129  1  0  0  0
 56 69  2  0  0  0
 57 58  2  0  0  0
 57130  1  0  0  0
 58131  1  0  0  0
 59 60  1  0  0  0
 59 61  1  0  0  0
 59 62  1  0  0  0
 60132  1  0  0  0
 60133  1  0  0  0
 60134  1  0  0  0
 61135  1  0  0  0
 61136  1  0  0  0
 61137  1  0  0  0
 62138  1  0  0  0
 62139  1  0  0  0
 62140  1  0  0  0
 63 65  1  0  0  0
 63141  1  0  0  0
 63142  1  0  0  0
 63143  1  0  0  0
 64144  1  0  0  0
 65145  1  0  0  0
 68 84  1  0  0  0
 71 73  2  0  0  0
 71 76  1  0  0  0
 71146  1  0  0  0
 72 75  1  0  0  0
 72 76  2  0  0  0
 72147  1  0  0  0
 73 74  1  0  0  0
 73 79  1  0  0  0
 74 75  2  0  0  0
 74 80  1  0  0  0
 75 85  1  0  0  0
 76 86  1  0  0  0
 77 78  2  0  0  0
 77148  1  0  0  0
 77149  1  0  0  0
 78 81  1  0  0  0
 78 82  1  0  0  0
 79150  1  0  0  0
 79151  1  0  0  0
 79152  1  0  0  0
 80153  1  0  0  0
 80154  1  0  0  0
 80155  1  0  0  0
 81 83  1  0  0  0
 81156  1  0  0  0
 81157  1  0  0  0
 82 86  1  0  0  0
 82158  1  0  0  0
 82159  1  0  0  0
 83 84  1  0  0  0
 83160  1  0  0  0
 83161  1  0  0  0
 84162  1  0  0  0
 84163  1  0  0  0
 85164  1  0  0  0
M  ISO  4   1 100  68 101  84 101  85 100
M  END
> <chiral flag>
0

> <version>
0

> <s_m_source_file>
/data/baiqing/PycharmProjects/Reinvent-master-3.2/result/LINK_invent/BTK/process_docking_weight1_custom_product_contain_oxygen_bond_distance_aromatic_linkinvent_7_9_3/rearranged_h_0134.sdf

> <i_m_source_file_index>
60

> <r_mmod_Potential_Energy-OPLS-2005>
-26.2371520996094

> <r_mmod_Stretch_Energy-OPLS-2005>
38.9363746643066

> <r_mmod_Bend_Energy-OPLS-2005>
104.729766845703

> <r_mmod_Torsional_Energy-OPLS-2005>
239.184783935547

> <r_mmod_Improper_Torsional_Energy-OPLS-2005>
4.70334625244141

> <r_mmod_Van_der_Waal_Energy-OPLS-2005>
160.244491577148

> <r_mmod_Electrostatic_Energy-OPLS-2005>
-381.020324707031

> <r_mmod_Solvation_Energy-OPLS-2005>
-202.17756652832

> <b_mmod_Minimization_Converged-OPLS-2005>
0

> <r_mmod_RMS_Derivative-OPLS-2005>
1.89158535003662

$$$$
60
                    3D
 Structure written by MMmdl.
164172  0  0  1  0            999 V2000
  -30.7047  -14.4967   20.5635 C   0  0  0  0  0  0
  -30.4252  -12.3186   19.4306 C   0  0  0  0  0  0
  -29.4982  -12.5079   18.2117 C   0  0  0  0  0  0
  -28.0185  -12.3683   18.6217 C   0  0  0  0  0  0
  -27.6592  -13.2117   19.8748 C   0  0  2  0  0  0
  -28.7044  -13.0066   20.9972 C   0  0  0  0  0  0
  -25.2472  -13.8054   20.5573 C   0  0  0  0  0  0
  -24.1787  -13.0347   20.9196 C   0  0  0  0  0  0
  -24.6398  -11.6848   20.8771 C   0  0  0  0  0  0
  -23.9068  -10.4250   21.0425 C   0  0  0  0  0  0
  -24.3616   -9.4168   21.9203 C   0  0  0  0  0  0
  -23.6285   -8.2210   22.0761 C   0  0  0  0  0  0
  -22.4270   -8.0259   21.3546 C   0  0  0  0  0  0
  -21.9910   -9.0235   20.4649 C   0  0  0  0  0  0
  -22.7246  -10.2109   20.3062 C   0  0  0  0  0  0
  -21.6843   -6.0726   22.5282 C   0  0  0  0  0  0
  -21.4005   -6.5634   23.8214 C   0  0  0  0  0  0
  -21.3655   -5.6787   24.9178 C   0  0  0  0  0  0
  -21.6044   -4.3049   24.7231 C   0  0  0  0  0  0
  -21.8820   -3.8142   23.4351 C   0  0  0  0  0  0
  -21.9192   -4.6957   22.3406 C   0  0  0  0  0  0
  -22.7813  -13.5163   21.1855 C   0  0  0  0  0  0
  -22.1660   -4.2143   21.0983 F   0  0  0  0  0  0
  -21.5632   -3.4533   25.7743 F   0  0  0  0  0  0
  -30.0374  -13.3123   20.4459 N   0  0  0  0  0  0
  -26.2998  -12.9312   20.3361 N   0  0  0  0  0  0
  -25.9340  -11.6465   20.5817 N   0  0  0  0  0  0
  -22.0450  -12.8181   22.0424 N   0  0  0  0  0  0
  -25.3937  -15.1714   20.3705 N   0  0  0  0  0  0
  -31.8315  -14.6637   20.0902 O   0  0  0  0  0  0
  -21.6624   -6.8866   21.4243 O   0  0  0  0  0  0
  -22.3510  -14.5476   20.6701 O   0  0  0  0  0  0
  -24.6163  -31.8672   23.2084 C   0  0  0  0  0  0
  -25.9042  -32.4820   23.8389 C   0  0  1  0  0  0
  -27.2387  -27.4260   20.0994 C   0  0  0  0  0  0
  -25.5882  -33.8616   24.2319 N   0  0  0  0  0  0
  -23.4041  -30.4905   21.5493 C   0  0  2  0  0  0
  -24.8501  -28.9541   20.1154 C   0  0  0  0  0  0
  -22.7410  -29.4660   22.4988 C   0  0  0  0  0  0
  -18.0266  -28.1379   22.8506 C   0  0  0  0  0  0
  -24.1481  -36.7317   23.2639 C   0  0  0  0  0  0
  -25.9339  -30.8310   21.3610 C   0  0  0  0  0  0
  -26.0114  -29.4648   20.7087 C   0  0  0  0  0  0
  -27.2078  -28.7100   20.6928 C   0  0  0  0  0  0
  -26.0556  -26.9306   19.5015 C   0  0  0  0  0  0
  -24.8683  -27.6871   19.5082 C   0  0  0  0  0  0
  -23.6122  -29.8209   20.1652 C   0  0  0  0  0  0
  -25.4099  -36.3112   24.0344 C   0  0  1  0  0  0
  -20.5860  -28.3663   23.1324 C   0  0  2  0  0  0
  -20.6760  -26.9397   22.5426 C   0  0  0  0  0  0
  -19.5737  -26.6390   21.5221 C   0  0  0  0  0  0
  -18.1913  -26.7928   22.1632 C   0  0  0  0  0  0
  -19.1519  -28.8838   23.2914 C   0  0  0  0  0  0
  -18.9450  -30.1447   23.8920 C   0  0  0  0  0  0
  -17.6454  -30.6589   24.0574 C   0  0  0  0  0  0
  -25.9033  -34.9479   23.5136 C   0  0  0  0  0  0
  -16.5343  -29.9093   23.6331 C   0  0  0  0  0  0
  -16.7257  -28.6508   23.0356 C   0  0  0  0  0  0
  -26.4465  -31.6600   25.0722 C   0  0  0  0  0  0
  -25.3732  -31.3706   26.1470 C   0  0  0  0  0  0
  -27.0293  -30.3041   24.6095 C   0  0  0  0  0  0
  -27.6040  -32.4322   25.7485 C   0  0  0  0  0  0
  -27.5579  -37.1809   24.8463 C   0  0  0  0  0  0
  -21.4136  -29.3035   22.3732 N   0  0  0  0  0  0
  -26.4287  -37.3793   23.9413 N   0  0  0  0  0  0
  -24.6697  -31.0775   22.0982 N   0  0  0  0  0  0
  -23.4177  -28.8205   23.3035 O   0  0  0  0  0  0
  -28.4141  -26.6974   20.1163 O   0  0  0  0  0  0
  -26.5603  -34.8933   22.4705 O   0  0  0  0  0  0
  -23.5353  -32.1423   23.7480 O   0  0  0  0  0  0
  -31.5235  -18.9678   20.7055 C   0  0  0  0  0  0
  -31.4225  -17.5602   20.8134 C   0  0  0  0  0  0
  -29.1396  -19.1738   21.0470 C   0  0  0  0  0  0
  -30.3827  -19.7954   20.8142 C   0  0  0  0  0  0
  -29.0326  -17.7687   21.1652 C   0  0  0  0  0  0
  -30.1707  -16.9299   21.0280 C   0  0  0  0  0  0
  -29.6353  -24.5930   20.4611 C   0  0  0  0  0  0
  -27.6507  -17.1927   21.3801 C   0  0  0  0  0  0
  -28.7431  -24.1566   22.8130 C   0  0  0  0  0  0
  -31.1533  -23.8484   22.3468 C   0  0  0  0  0  0
  -30.5137  -21.3231   20.6693 C   0  0  0  0  0  0
  -28.2946  -25.2618   20.0796 C   0  0  0  0  0  0
  -29.4523  -22.1659   21.4398 C   0  0  0  0  0  0
  -29.7414  -23.6818   21.7281 C   0  0  0  0  0  0
  -29.9975  -15.5022   21.1260 N   0  0  0  0  0  0
  -30.6226  -24.7789   19.7422 O   0  0  0  0  0  0
  -31.4700  -12.4138   19.1290 H   0  0  0  0  0  0
  -30.3248  -11.3107   19.8360 H   0  0  0  0  0  0
  -29.7412  -11.7788   17.4378 H   0  0  0  0  0  0
  -29.6662  -13.4908   17.7687 H   0  0  0  0  0  0
  -27.8296  -11.3128   18.8212 H   0  0  0  0  0  0
  -27.3690  -12.6382   17.7881 H   0  0  0  0  0  0
  -27.6965  -14.2590   19.5736 H   0  0  0  0  0  0
  -28.6840  -11.9738   21.3482 H   0  0  0  0  0  0
  -28.4618  -13.6124   21.8713 H   0  0  0  0  0  0
  -25.2758   -9.5638   22.4781 H   0  0  0  0  0  0
  -23.9986   -7.4594   22.7476 H   0  0  0  0  0  0
  -21.0840   -8.8759   19.8950 H   0  0  0  0  0  0
  -22.3714  -10.9651   19.6167 H   0  0  0  0  0  0
  -21.1988   -7.6140   23.9716 H   0  0  0  0  0  0
  -21.1478   -6.0517   25.9082 H   0  0  0  0  0  0
  -22.0605   -2.7603   23.2852 H   0  0  0  0  0  0
  -22.4059  -11.9847   22.4825 H   0  0  0  0  0  0
  -21.1072  -13.1222   22.2631 H   0  0  0  0  0  0
  -24.6000  -15.7998   20.4308 H   0  0  0  0  0  0
  -26.2035  -15.5931   19.9376 H   0  0  0  0  0  0
  -26.7119  -32.5534   23.1160 H   0  0  0  0  0  0
  -25.0022  -33.9776   25.0459 H   0  0  0  0  0  0
  -22.6935  -31.3078   21.4096 H   0  0  0  0  0  0
  -23.3744  -35.9647   23.3308 H   0  0  0  0  0  0
  -24.3574  -36.8924   22.2051 H   0  0  0  0  0  0
  -23.7237  -37.6527   23.6649 H   0  0  0  0  0  0
  -26.0474  -31.5957   20.5912 H   0  0  0  0  0  0
  -26.8216  -30.8849   21.9801 H   0  0  0  0  0  0
  -28.1045  -29.1037   21.1518 H   0  0  0  0  0  0
  -26.0345  -25.9649   19.0183 H   0  0  0  0  0  0
  -23.9757  -27.2899   19.0437 H   0  0  0  0  0  0
  -23.7191  -30.5937   19.4029 H   0  0  0  0  0  0
  -22.7358  -29.2392   19.8721 H   0  0  0  0  0  0
  -25.1278  -36.1972   25.0838 H   0  0  0  0  0  0
  -20.9966  -28.3221   24.1438 H   0  0  0  0  0  0
  -20.5664  -26.2265   23.3612 H   0  0  0  0  0  0
  -21.6630  -26.7442   22.1212 H   0  0  0  0  0  0
  -19.6892  -25.6305   21.1236 H   0  0  0  0  0  0
  -19.6672  -27.3223   20.6766 H   0  0  0  0  0  0
  -17.4188  -26.6695   21.4027 H   0  0  0  0  0  0
  -18.0305  -26.0064   22.9025 H   0  0  0  0  0  0
  -19.7926  -30.7264   24.2297 H   0  0  0  0  0  0
  -17.5008  -31.6269   24.5170 H   0  0  0  0  0  0
  -15.5344  -30.3007   23.7637 H   0  0  0  0  0  0
  -15.8660  -28.0836   22.7053 H   0  0  0  0  0  0
  -24.5892  -30.7064   25.7812 H   0  0  0  0  0  0
  -24.8938  -32.2864   26.4936 H   0  0  0  0  0  0
  -25.8084  -30.8861   27.0219 H   0  0  0  0  0  0
  -26.2838  -29.6810   24.1139 H   0  0  0  0  0  0
  -27.4055  -29.7259   25.4544 H   0  0  0  0  0  0
  -27.8675  -30.4365   23.9249 H   0  0  0  0  0  0
  -27.2650  -33.3609   26.2088 H   0  0  0  0  0  0
  -28.3828  -32.6907   25.0299 H   0  0  0  0  0  0
  -28.0733  -31.8439   26.5377 H   0  0  0  0  0  0
  -28.2601  -38.0105   24.7518 H   0  0  0  0  0  0
  -28.1074  -36.2639   24.6276 H   0  0  0  0  0  0
  -27.2305  -37.1446   25.8870 H   0  0  0  0  0  0
  -20.9289  -29.8763   21.6966 H   0  0  0  0  0  0
  -26.0179  -38.2873   24.1411 H   0  0  0  0  0  0
  -32.4940  -19.4114   20.5308 H   0  0  0  0  0  0
  -32.3292  -16.9801   20.7242 H   0  0  0  0  0  0
  -28.2446  -19.7746   21.1270 H   0  0  0  0  0  0
  -26.9856  -17.9171   21.8515 H   0  0  0  0  0  0
  -27.6564  -16.2992   22.0045 H   0  0  0  0  0  0
  -27.2408  -16.9506   20.4023 H   0  0  0  0  0  0
  -28.7750  -25.2387   22.9535 H   0  0  0  0  0  0
  -28.9686  -23.7046   23.7797 H   0  0  0  0  0  0
  -27.7150  -23.8781   22.5795 H   0  0  0  0  0  0
  -31.3027  -24.8617   22.7221 H   0  0  0  0  0  0
  -31.9560  -23.6626   21.6325 H   0  0  0  0  0  0
  -31.3051  -23.1686   23.1856 H   0  0  0  0  0  0
  -30.4895  -21.5790   19.6096 H   0  0  0  0  0  0
  -31.5140  -21.5771   21.0157 H   0  0  0  0  0  0
  -27.4862  -24.9248   20.7252 H   0  0  0  0  0  0
  -28.0431  -24.9479   19.0666 H   0  0  0  0  0  0
  -29.3115  -21.6828   22.4078 H   0  0  0  0  0  0
  -28.4906  -22.0746   20.9333 H   0  0  0  0  0  0
  -29.0988  -15.2052   21.4703 H   0  0  0  0  0  0
  1 25  1  0  0  0
  1 30  2  0  0  0
  1 85  1  0  0  0
  2  3  1  0  0  0
  2 25  1  0  0  0
  2 87  1  0  0  0
  2 88  1  0  0  0
  3  4  1  0  0  0
  3 89  1  0  0  0
  3 90  1  0  0  0
  4  5  1  0  0  0
  4 91  1  0  0  0
  4 92  1  0  0  0
  5  6  1  0  0  0
  5 26  1  0  0  0
  5 93  1  0  0  0
  6 25  1  0  0  0
  6 94  1  0  0  0
  6 95  1  0  0  0
  7  8  2  0  0  0
  7 26  1  0  0  0
  7 29  1  0  0  0
  8  9  1  0  0  0
  8 22  1  0  0  0
  9 10  1  0  0  0
  9 27  2  0  0  0
 10 11  2  0  0  0
 10 15  1  0  0  0
 11 12  1  0  0  0
 11 96  1  0  0  0
 12 13  2  0  0  0
 12 97  1  0  0  0
 13 14  1  0  0  0
 13 31  1  0  0  0
 14 15  2  0  0  0
 14 98  1  0  0  0
 15 99  1  0  0  0
 16 17  2  0  0  0
 16 21  1  0  0  0
 16 31  1  0  0  0
 17 18  1  0  0  0
 17100  1  0  0  0
 18 19  2  0  0  0
 18101  1  0  0  0
 19 20  1  0  0  0
 19 24  1  0  0  0
 20 21  2  0  0  0
 20102  1  0  0  0
 21 23  1  0  0  0
 22 28  1  0  0  0
 22 32  2  0  0  0
 26 27  1  0  0  0
 28103  1  0  0  0
 28104  1  0  0  0
 29105  1  0  0  0
 29106  1  0  0  0
 33 34  1  0  0  0
 33 66  1  0  0  0
 33 70  2  0  0  0
 34 36  1  0  0  0
 34 59  1  0  0  0
 34107  1  0  0  0
 35 44  2  0  0  0
 35 45  1  0  0  0
 35 68  1  0  0  0
 36 56  1  0  0  0
 36108  1  0  0  0
 37 39  1  0  0  0
 37 47  1  0  0  0
 37 66  1  0  0  0
 37109  1  0  0  0
 38 43  2  0  0  0
 38 46  1  0  0  0
 38 47  1  0  0  0
 39 64  1  0  0  0
 39 67  2  0  0  0
 40 52  1  0  0  0
 40 53  2  0  0  0
 40 58  1  0  0  0
 41110  1  0  0  0
 41111  1  0  0  0
 41112  1  0  0  0
 41 48  1  0  0  0
 42 43  1  0  0  0
 42 66  1  0  0  0
 42113  1  0  0  0
 42114  1  0  0  0
 43 44  1  0  0  0
 44115  1  0  0  0
 45 46  2  0  0  0
 45116  1  0  0  0
 46117  1  0  0  0
 47118  1  0  0  0
 47119  1  0  0  0
 48 56  1  0  0  0
 48 65  1  0  0  0
 48120  1  0  0  0
 49 50  1  0  0  0
 49 53  1  0  0  0
 49 64  1  0  0  0
 49121  1  0  0  0
 50 51  1  0  0  0
 50122  1  0  0  0
 50123  1  0  0  0
 51 52  1  0  0  0
 51124  1  0  0  0
 51125  1  0  0  0
 52126  1  0  0  0
 52127  1  0  0  0
 53 54  1  0  0  0
 54 55  2  0  0  0
 54128  1  0  0  0
 55 57  1  0  0  0
 55129  1  0  0  0
 56 69  2  0  0  0
 57 58  2  0  0  0
 57130  1  0  0  0
 58131  1  0  0  0
 59 60  1  0  0  0
 59 61  1  0  0  0
 59 62  1  0  0  0
 60132  1  0  0  0
 60133  1  0  0  0
 60134  1  0  0  0
 61135  1  0  0  0
 61136  1  0  0  0
 61137  1  0  0  0
 62138  1  0  0  0
 62139  1  0  0  0
 62140  1  0  0  0
 63 65  1  0  0  0
 63141  1  0  0  0
 63142  1  0  0  0
 63143  1  0  0  0
 64144  1  0  0  0
 65145  1  0  0  0
 68 82  1  0  0  0
 71 72  2  0  0  0
 71 74  1  0  0  0
 71146  1  0  0  0
 72 76  1  0  0  0
 72147  1  0  0  0
 73 74  2  0  0  0
 73 75  1  0  0  0
 73148  1  0  0  0
 74 81  1  0  0  0
 75 76  2  0  0  0
 75 78  1  0  0  0
 76 85  1  0  0  0
 77 82  1  0  0  0
 77 84  1  0  0  0
 77 86  2  0  0  0
 78149  1  0  0  0
 78150  1  0  0  0
 78151  1  0  0  0
 79152  1  0  0  0
 79153  1  0  0  0
 79154  1  0  0  0
 79 84  1  0  0  0
 80 84  1  0  0  0
 80155  1  0  0  0
 80156  1  0  0  0
 80157  1  0  0  0
 81 83  1  0  0  0
 81158  1  0  0  0
 81159  1  0  0  0
 82160  1  0  0  0
 82161  1  0  0  0
 83 84  1  0  0  0
 83162  1  0  0  0
 83163  1  0  0  0
 85164  1  0  0  0
M  ISO  4   1 100  68 101  82 101  85 100
M  END
> <chiral flag>
0

> <version>
0

> <s_m_source_file>
/data/baiqing/PycharmProjects/Reinvent-master-3.2/result/LINK_invent/BTK/process_docking_weight1_custom_product_contain_oxygen_bond_distance_aromatic_linkinvent_7_9_3/rearranged_h_0134.sdf

> <i_m_source_file_index>
61

> <r_mmod_Potential_Energy-OPLS-2005>
14.1515989303589

> <r_mmod_Stretch_Energy-OPLS-2005>
45.9661827087402

> <r_mmod_Bend_Energy-OPLS-2005>
110.750419616699

> <r_mmod_Torsional_Energy-OPLS-2005>
233.565536499023

> <r_mmod_Improper_Torsional_Energy-OPLS-2005>
4.25042104721069

> <r_mmod_Van_der_Waal_Energy-OPLS-2005>
162.9658203125

> <r_mmod_Electrostatic_Energy-OPLS-2005>
-347.696624755859

> <r_mmod_Solvation_Energy-OPLS-2005>
-210.481292724609

> <b_mmod_Minimization_Converged-OPLS-2005>
0

> <r_mmod_RMS_Derivative-OPLS-2005>
1.04441165924072

$$$$
61
                    3D
 Structure written by MMmdl.
159167  0  0  1  0            999 V2000
  -30.6270  -14.6946   20.4708 C   0  0  0  0  0  0
  -30.4340  -12.4266   19.4529 C   0  0  0  0  0  0
  -29.5052  -12.4968   18.2213 C   0  0  0  0  0  0
  -28.0317  -12.3275   18.6411 C   0  0  0  0  0  0
  -27.6451  -13.2234   19.8480 C   0  0  2  0  0  0
  -28.6934  -13.1356   20.9787 C   0  0  0  0  0  0
  -25.2530  -13.8169   20.5677 C   0  0  0  0  0  0
  -24.1826  -13.0432   20.9221 C   0  0  0  0  0  0
  -24.6412  -11.6906   20.8770 C   0  0  0  0  0  0
  -23.9089  -10.4290   21.0425 C   0  0  0  0  0  0
  -24.3633   -9.4199   21.9197 C   0  0  0  0  0  0
  -23.6303   -8.2235   22.0761 C   0  0  0  0  0  0
  -22.4280   -8.0288   21.3551 C   0  0  0  0  0  0
  -21.9925   -9.0264   20.4646 C   0  0  0  0  0  0
  -22.7263  -10.2140   20.3064 C   0  0  0  0  0  0
  -21.6854   -6.0748   22.5285 C   0  0  0  0  0  0
  -21.4009   -6.5648   23.8220 C   0  0  0  0  0  0
  -21.3654   -5.6799   24.9178 C   0  0  0  0  0  0
  -21.6044   -4.3059   24.7228 C   0  0  0  0  0  0
  -21.8818   -3.8157   23.4346 C   0  0  0  0  0  0
  -21.9191   -4.6977   22.3403 C   0  0  0  0  0  0
  -22.7842  -13.5219   21.1872 C   0  0  0  0  0  0
  -22.1662   -4.2162   21.0982 F   0  0  0  0  0  0
  -21.5626   -3.4543   25.7739 F   0  0  0  0  0  0
  -29.9963  -13.4779   20.3943 N   0  0  0  0  0  0
  -26.2959  -12.9371   20.3264 N   0  0  0  0  0  0
  -25.9340  -11.6521   20.5760 N   0  0  0  0  0  0
  -22.0483  -12.8210   22.0418 N   0  0  0  0  0  0
  -25.4187  -15.1891   20.4046 N   0  0  0  0  0  0
  -31.8205  -14.7957   20.1736 O   0  0  0  0  0  0
  -21.6639   -6.8891   21.4247 O   0  0  0  0  0  0
  -22.3531  -14.5528   20.6717 O   0  0  0  0  0  0
  -24.6262  -31.8573   23.1994 C   0  0  0  0  0  0
  -25.9108  -32.4767   23.8324 C   0  0  1  0  0  0
  -27.2275  -27.3054   20.1303 C   0  0  0  0  0  0
  -25.5920  -33.8568   24.2265 N   0  0  0  0  0  0
  -23.4219  -30.4774   21.5412 C   0  0  2  0  0  0
  -24.8705  -28.9227   20.1159 C   0  0  0  0  0  0
  -22.7483  -29.4595   22.4922 C   0  0  0  0  0  0
  -18.0285  -28.1373   22.8468 C   0  0  0  0  0  0
  -24.1504  -36.7280   23.2643 C   0  0  0  0  0  0
  -25.9621  -30.7850   21.3714 C   0  0  0  0  0  0
  -26.0384  -29.4085   20.7182 C   0  0  0  0  0  0
  -27.2223  -28.6118   20.7119 C   0  0  0  0  0  0
  -26.0385  -26.8637   19.5176 C   0  0  0  0  0  0
  -24.8722  -27.6560   19.5074 C   0  0  0  0  0  0
  -23.6384  -29.8049   20.1596 C   0  0  0  0  0  0
  -25.4129  -36.3077   24.0336 C   0  0  1  0  0  0
  -20.5884  -28.3661   23.1290 C   0  0  2  0  0  0
  -20.6784  -26.9384   22.5416 C   0  0  0  0  0  0
  -19.5766  -26.6368   21.5214 C   0  0  0  0  0  0
  -18.1936  -26.7915   22.1610 C   0  0  0  0  0  0
  -19.1538  -28.8833   23.2869 C   0  0  0  0  0  0
  -18.9466  -30.1439   23.8876 C   0  0  0  0  0  0
  -17.6465  -30.6571   24.0544 C   0  0  0  0  0  0
  -25.9062  -34.9446   23.5106 C   0  0  0  0  0  0
  -16.5351  -29.9065   23.6330 C   0  0  0  0  0  0
  -16.7269  -28.6491   23.0334 C   0  0  0  0  0  0
  -26.4490  -31.6582   25.0695 C   0  0  0  0  0  0
  -25.3719  -31.3720   26.1423 C   0  0  0  0  0  0
  -27.0349  -30.3017   24.6147 C   0  0  0  0  0  0
  -27.6054  -32.4310   25.7460 C   0  0  0  0  0  0
  -27.5590  -37.1798   24.8469 C   0  0  0  0  0  0
  -21.4194  -29.3015   22.3680 N   0  0  0  0  0  0
  -26.4308  -37.3767   23.9403 N   0  0  0  0  0  0
  -24.6880  -31.0575   22.0942 N   0  0  0  0  0  0
  -23.4204  -28.8146   23.3004 O   0  0  0  0  0  0
  -28.3516  -26.4689   20.1090 O   0  0  0  0  0  0
  -26.5623  -34.8913   22.4669 O   0  0  0  0  0  0
  -23.5422  -32.1375   23.7319 O   0  0  0  0  0  0
  -31.6815  -18.9222   21.7355 C   0  0  0  0  0  0
  -30.9071  -19.9782   21.2214 C   0  0  0  0  0  0
  -31.3287  -17.5796   21.5082 C   0  0  0  0  0  0
  -29.7368  -19.7452   20.4674 C   0  0  0  0  0  0
  -29.3706  -18.3444   20.2588 C   0  0  0  0  0  0
  -30.1765  -17.2406   20.7678 C   0  0  0  0  0  0
  -28.4427  -17.6504   17.9956 C   0  0  0  0  0  0
  -29.0333  -21.0250   19.8286 C   0  0  0  0  0  0
  -28.1234  -17.9852   19.4587 C   0  0  0  0  0  0
  -28.9158  -22.4195   20.6298 C   0  0  0  0  0  0
  -28.5656  -23.7855   19.8472 C   0  0  0  0  0  0
  -28.2582  -25.1096   20.7010 C   0  0  0  0  0  0
  -29.8287  -15.8121   20.6251 N   0  0  0  0  0  0
  -31.4741  -12.5518   19.1468 H   0  0  0  0  0  0
  -30.3761  -11.4459   19.9255 H   0  0  0  0  0  0
  -29.7774  -11.7241   17.5012 H   0  0  0  0  0  0
  -29.6355  -13.4519   17.7094 H   0  0  0  0  0  0
  -27.8866  -11.2787   18.9013 H   0  0  0  0  0  0
  -27.3711  -12.5235   17.7959 H   0  0  0  0  0  0
  -27.6437  -14.2468   19.4733 H   0  0  0  0  0  0
  -28.7224  -12.1322   21.4051 H   0  0  0  0  0  0
  -28.4397  -13.8093   21.7986 H   0  0  0  0  0  0
  -25.2780   -9.5668   22.4774 H   0  0  0  0  0  0
  -24.0012   -7.4622   22.7477 H   0  0  0  0  0  0
  -21.0860   -8.8790   19.8946 H   0  0  0  0  0  0
  -22.3734  -10.9686   19.6174 H   0  0  0  0  0  0
  -21.1999   -7.6156   23.9726 H   0  0  0  0  0  0
  -21.1475   -6.0527   25.9083 H   0  0  0  0  0  0
  -22.0599   -2.7621   23.2844 H   0  0  0  0  0  0
  -22.4098  -11.9875   22.4811 H   0  0  0  0  0  0
  -21.1095  -13.1227   22.2604 H   0  0  0  0  0  0
  -24.6389  -15.8307   20.4997 H   0  0  0  0  0  0
  -26.2404  -15.6221   20.0081 H   0  0  0  0  0  0
  -26.7160  -32.5435   23.1055 H   0  0  0  0  0  0
  -25.0081  -33.9700   25.0425 H   0  0  0  0  0  0
  -22.7153  -31.2965   21.3932 H   0  0  0  0  0  0
  -23.3771  -35.9606   23.3312 H   0  0  0  0  0  0
  -24.3597  -36.8899   22.2056 H   0  0  0  0  0  0
  -23.7253  -37.6487   23.6655 H   0  0  0  0  0  0
  -26.0915  -31.5475   20.6010 H   0  0  0  0  0  0
  -26.8428  -30.8358   22.0004 H   0  0  0  0  0  0
  -28.1214  -28.9815   21.1834 H   0  0  0  0  0  0
  -26.0107  -25.8898   19.0494 H   0  0  0  0  0  0
  -23.9766  -27.2770   19.0352 H   0  0  0  0  0  0
  -23.7551  -30.5762   19.3965 H   0  0  0  0  0  0
  -22.7598  -29.2308   19.8612 H   0  0  0  0  0  0
  -25.1316  -36.1923   25.0830 H   0  0  0  0  0  0
  -20.9959  -28.3223   24.1419 H   0  0  0  0  0  0
  -20.5707  -26.2250   23.3601 H   0  0  0  0  0  0
  -21.6649  -26.7430   22.1191 H   0  0  0  0  0  0
  -19.6938  -25.6288   21.1224 H   0  0  0  0  0  0
  -19.6724  -27.3189   20.6756 H   0  0  0  0  0  0
  -17.4219  -26.6651   21.4001 H   0  0  0  0  0  0
  -18.0318  -26.0071   22.9017 H   0  0  0  0  0  0
  -19.7948  -30.7252   24.2236 H   0  0  0  0  0  0
  -17.5025  -31.6254   24.5136 H   0  0  0  0  0  0
  -15.5350  -30.2946   23.7692 H   0  0  0  0  0  0
  -15.8674  -28.0810   22.7039 H   0  0  0  0  0  0
  -24.5895  -30.7073   25.7740 H   0  0  0  0  0  0
  -24.8899  -32.2891   26.4823 H   0  0  0  0  0  0
  -25.8032  -30.8906   27.0208 H   0  0  0  0  0  0
  -26.2933  -29.6743   24.1189 H   0  0  0  0  0  0
  -27.4105  -29.7286   25.4631 H   0  0  0  0  0  0
  -27.8765  -30.4338   23.9337 H   0  0  0  0  0  0
  -27.2689  -33.3627   26.2012 H   0  0  0  0  0  0
  -28.3866  -32.6835   25.0280 H   0  0  0  0  0  0
  -28.0710  -31.8442   26.5391 H   0  0  0  0  0  0
  -28.2605  -38.0092   24.7512 H   0  0  0  0  0  0
  -28.1083  -36.2623   24.6302 H   0  0  0  0  0  0
  -27.2296  -37.1462   25.8867 H   0  0  0  0  0  0
  -20.9367  -29.8723   21.6881 H   0  0  0  0  0  0
  -26.0195  -38.2849   24.1384 H   0  0  0  0  0  0
  -32.5715  -19.1469   22.3074 H   0  0  0  0  0  0
  -31.2536  -20.9861   21.3980 H   0  0  0  0  0  0
  -31.9555  -16.8067   21.9301 H   0  0  0  0  0  0
  -27.5454  -17.3384   17.4608 H   0  0  0  0  0  0
  -29.1658  -16.8361   17.9237 H   0  0  0  0  0  0
  -28.8587  -18.5129   17.4747 H   0  0  0  0  0  0
  -28.0341  -20.7739   19.4803 H   0  0  0  0  0  0
  -29.5944  -21.2264   18.9150 H   0  0  0  0  0  0
  -27.3758  -18.7726   19.5116 H   0  0  0  0  0  0
  -27.6422  -17.1299   19.9315 H   0  0  0  0  0  0
  -29.8546  -22.6140   21.1446 H   0  0  0  0  0  0
  -28.1834  -22.2793   21.4254 H   0  0  0  0  0  0
  -27.7114  -23.6065   19.1940 H   0  0  0  0  0  0
  -29.3976  -24.0037   19.1768 H   0  0  0  0  0  0
  -28.9780  -25.1249   21.5208 H   0  0  0  0  0  0
  -27.2929  -24.9896   21.1948 H   0  0  0  0  0  0
  -28.8428  -15.6083   20.6393 H   0  0  0  0  0  0
  1 25  1  0  0  0
  1 30  2  0  0  0
  1 83  1  0  0  0
  2  3  1  0  0  0
  2 25  1  0  0  0
  2 84  1  0  0  0
  2 85  1  0  0  0
  3  4  1  0  0  0
  3 86  1  0  0  0
  3 87  1  0  0  0
  4  5  1  0  0  0
  4 88  1  0  0  0
  4 89  1  0  0  0
  5  6  1  0  0  0
  5 26  1  0  0  0
  5 90  1  0  0  0
  6 25  1  0  0  0
  6 91  1  0  0  0
  6 92  1  0  0  0
  7  8  2  0  0  0
  7 26  1  0  0  0
  7 29  1  0  0  0
  8  9  1  0  0  0
  8 22  1  0  0  0
  9 10  1  0  0  0
  9 27  2  0  0  0
 10 11  2  0  0  0
 10 15  1  0  0  0
 11 12  1  0  0  0
 11 93  1  0  0  0
 12 13  2  0  0  0
 12 94  1  0  0  0
 13 14  1  0  0  0
 13 31  1  0  0  0
 14 15  2  0  0  0
 14 95  1  0  0  0
 15 96  1  0  0  0
 16 17  2  0  0  0
 16 21  1  0  0  0
 16 31  1  0  0  0
 17 18  1  0  0  0
 17 97  1  0  0  0
 18 19  2  0  0  0
 18 98  1  0  0  0
 19 20  1  0  0  0
 19 24  1  0  0  0
 20 21  2  0  0  0
 20 99  1  0  0  0
 21 23  1  0  0  0
 22 28  1  0  0  0
 22 32  2  0  0  0
 26 27  1  0  0  0
 28100  1  0  0  0
 28101  1  0  0  0
 29102  1  0  0  0
 29103  1  0  0  0
 33 34  1  0  0  0
 33 66  1  0  0  0
 33 70  2  0  0  0
 34 36  1  0  0  0
 34 59  1  0  0  0
 34104  1  0  0  0
 35 44  2  0  0  0
 35 45  1  0  0  0
 35 68  1  0  0  0
 36 56  1  0  0  0
 36105  1  0  0  0
 37 39  1  0  0  0
 37 47  1  0  0  0
 37 66  1  0  0  0
 37106  1  0  0  0
 38 43  2  0  0  0
 38 46  1  0  0  0
 38 47  1  0  0  0
 39 64  1  0  0  0
 39 67  2  0  0  0
 40 52  1  0  0  0
 40 53  2  0  0  0
 40 58  1  0  0  0
 41107  1  0  0  0
 41108  1  0  0  0
 41109  1  0  0  0
 41 48  1  0  0  0
 42 43  1  0  0  0
 42 66  1  0  0  0
 42110  1  0  0  0
 42111  1  0  0  0
 43 44  1  0  0  0
 44112  1  0  0  0
 45 46  2  0  0  0
 45113  1  0  0  0
 46114  1  0  0  0
 47115  1  0  0  0
 47116  1  0  0  0
 48 56  1  0  0  0
 48 65  1  0  0  0
 48117  1  0  0  0
 49 50  1  0  0  0
 49 53  1  0  0  0
 49 64  1  0  0  0
 49118  1  0  0  0
 50 51  1  0  0  0
 50119  1  0  0  0
 50120  1  0  0  0
 51 52  1  0  0  0
 51121  1  0  0  0
 51122  1  0  0  0
 52123  1  0  0  0
 52124  1  0  0  0
 53 54  1  0  0  0
 54 55  2  0  0  0
 54125  1  0  0  0
 55 57  1  0  0  0
 55126  1  0  0  0
 56 69  2  0  0  0
 57 58  2  0  0  0
 57127  1  0  0  0
 58128  1  0  0  0
 59 60  1  0  0  0
 59 61  1  0  0  0
 59 62  1  0  0  0
 60129  1  0  0  0
 60130  1  0  0  0
 60131  1  0  0  0
 61132  1  0  0  0
 61133  1  0  0  0
 61134  1  0  0  0
 62135  1  0  0  0
 62136  1  0  0  0
 62137  1  0  0  0
 63 65  1  0  0  0
 63138  1  0  0  0
 63139  1  0  0  0
 63140  1  0  0  0
 64141  1  0  0  0
 65142  1  0  0  0
 68 82  1  0  0  0
 71 72  2  0  0  0
 71 73  1  0  0  0
 71143  1  0  0  0
 72 74  1  0  0  0
 72144  1  0  0  0
 73 76  2  0  0  0
 73145  1  0  0  0
 74 75  2  0  0  0
 74 78  1  0  0  0
 75 76  1  0  0  0
 75 79  1  0  0  0
 76 83  1  0  0  0
 77 79  1  0  0  0
 77146  1  0  0  0
 77147  1  0  0  0
 77148  1  0  0  0
 78 80  1  0  0  0
 78149  1  0  0  0
 78150  1  0  0  0
 79151  1  0  0  0
 79152  1  0  0  0
 80 81  1  0  0  0
 80153  1  0  0  0
 80154  1  0  0  0
 81 82  1  0  0  0
 81155  1  0  0  0
 81156  1  0  0  0
 82157  1  0  0  0
 82158  1  0  0  0
 83159  1  0  0  0
M  ISO  4   1 100  68 101  82 101  83 100
M  END
> <chiral flag>
0

> <version>
0

> <s_m_source_file>
/data/baiqing/PycharmProjects/Reinvent-master-3.2/result/LINK_invent/BTK/process_docking_weight1_custom_product_contain_oxygen_bond_distance_aromatic_linkinvent_7_9_3/rearranged_h_0134.sdf

> <i_m_source_file_index>
62

> <r_mmod_Potential_Energy-OPLS-2005>
122.798561096191

> <r_mmod_Stretch_Energy-OPLS-2005>
104.639709472656

> <r_mmod_Bend_Energy-OPLS-2005>
145.69287109375

> <r_mmod_Torsional_Energy-OPLS-2005>
242.869140625

> <r_mmod_Improper_Torsional_Energy-OPLS-2005>
6.82446002960205

> <r_mmod_Van_der_Waal_Energy-OPLS-2005>
131.997467041016

> <r_mmod_Electrostatic_Energy-OPLS-2005>
-370.325225830078

> <r_mmod_Solvation_Energy-OPLS-2005>
-200.046691894531

> <b_mmod_Minimization_Converged-OPLS-2005>
0

> <r_mmod_RMS_Derivative-OPLS-2005>
1.71911323070526

$$$$
62
                    3D
 Structure written by MMmdl.
159167  0  0  1  0            999 V2000
  -30.6949  -14.4206   20.6229 C   0  0  0  0  0  0
  -30.4269  -12.3032   19.3938 C   0  0  0  0  0  0
  -29.4861  -12.5232   18.1912 C   0  0  0  0  0  0
  -28.0107  -12.3715   18.6119 C   0  0  0  0  0  0
  -27.6656  -13.1946   19.8821 C   0  0  2  0  0  0
  -28.7028  -12.9286   20.9945 C   0  0  0  0  0  0
  -25.2621  -13.8137   20.5688 C   0  0  0  0  0  0
  -24.1843  -13.0444   20.9169 C   0  0  0  0  0  0
  -24.6359  -11.6899   20.8727 C   0  0  0  0  0  0
  -23.9035  -10.4296   21.0403 C   0  0  0  0  0  0
  -24.3601   -9.4224   21.9182 C   0  0  0  0  0  0
  -23.6285   -8.2264   22.0773 C   0  0  0  0  0  0
  -22.4277   -8.0287   21.3559 C   0  0  0  0  0  0
  -21.9896   -9.0261   20.4665 C   0  0  0  0  0  0
  -22.7214  -10.2137   20.3062 C   0  0  0  0  0  0
  -21.6847   -6.0739   22.5272 C   0  0  0  0  0  0
  -21.4003   -6.5632   23.8212 C   0  0  0  0  0  0
  -21.3663   -5.6788   24.9167 C   0  0  0  0  0  0
  -21.6055   -4.3061   24.7218 C   0  0  0  0  0  0
  -21.8823   -3.8143   23.4341 C   0  0  0  0  0  0
  -21.9195   -4.6960   22.3389 C   0  0  0  0  0  0
  -22.7866  -13.5272   21.1828 C   0  0  0  0  0  0
  -22.1663   -4.2137   21.0972 F   0  0  0  0  0  0
  -21.5644   -3.4541   25.7734 F   0  0  0  0  0  0
  -30.0388  -13.2454   20.4497 N   0  0  0  0  0  0
  -26.3030  -12.9277   20.3381 N   0  0  0  0  0  0
  -25.9286  -11.6447   20.5749 N   0  0  0  0  0  0
  -22.0500  -12.8272   22.0369 N   0  0  0  0  0  0
  -25.4379  -15.1850   20.4152 N   0  0  0  0  0  0
  -31.7805  -14.6850   20.0931 O   0  0  0  0  0  0
  -21.6656   -6.8877   21.4244 O   0  0  0  0  0  0
  -22.3558  -14.5585   20.6672 O   0  0  0  0  0  0
  -24.6094  -31.8716   23.2130 C   0  0  0  0  0  0
  -25.8993  -32.4829   23.8407 C   0  0  1  0  0  0
  -27.2419  -27.4647   20.0813 C   0  0  0  0  0  0
  -25.5900  -33.8634   24.2351 N   0  0  0  0  0  0
  -23.3957  -30.4945   21.5539 C   0  0  2  0  0  0
  -24.8400  -28.9635   20.1200 C   0  0  0  0  0  0
  -22.7365  -29.4673   22.5008 C   0  0  0  0  0  0
  -18.0259  -28.1343   22.8448 C   0  0  0  0  0  0
  -24.1498  -36.7326   23.2641 C   0  0  0  0  0  0
  -25.9210  -30.8437   21.3627 C   0  0  0  0  0  0
  -25.9992  -29.4800   20.7116 C   0  0  0  0  0  0
  -27.1976  -28.7364   20.6928 C   0  0  0  0  0  0
  -26.0542  -26.9479   19.5079 C   0  0  0  0  0  0
  -24.8604  -27.6943   19.5208 C   0  0  0  0  0  0
  -23.6026  -29.8286   20.1674 C   0  0  0  0  0  0
  -25.4117  -36.3131   24.0343 C   0  0  1  0  0  0
  -20.5831  -28.3633   23.1329 C   0  0  2  0  0  0
  -20.6791  -26.9390   22.5415 C   0  0  0  0  0  0
  -19.5779  -26.6353   21.5187 C   0  0  0  0  0  0
  -18.1920  -26.7888   22.1570 C   0  0  0  0  0  0
  -19.1501  -28.8797   23.2893 C   0  0  0  0  0  0
  -18.9431  -30.1400   23.8939 C   0  0  0  0  0  0
  -17.6439  -30.6527   24.0587 C   0  0  0  0  0  0
  -25.9029  -34.9493   23.5146 C   0  0  0  0  0  0
  -16.5330  -29.9058   23.6301 C   0  0  0  0  0  0
  -16.7249  -28.6476   23.0296 C   0  0  0  0  0  0
  -26.4470  -31.6578   25.0703 C   0  0  0  0  0  0
  -25.3769  -31.3663   26.1459 C   0  0  0  0  0  0
  -27.0308  -30.3036   24.6048 C   0  0  0  0  0  0
  -27.6047  -32.4290   25.7470 C   0  0  0  0  0  0
  -27.5580  -37.1832   24.8465 C   0  0  0  0  0  0
  -21.4093  -29.3036   22.3769 N   0  0  0  0  0  0
  -26.4301  -37.3814   23.9398 N   0  0  0  0  0  0
  -24.6587  -31.0833   22.1023 N   0  0  0  0  0  0
  -23.4160  -28.8223   23.3025 O   0  0  0  0  0  0
  -28.4525  -26.8010   20.0693 O   0  0  0  0  0  0
  -26.5573  -34.8944   22.4694 O   0  0  0  0  0  0
  -23.5300  -32.1457   23.7557 O   0  0  0  0  0  0
  -26.8639  -17.9309   22.7242 C   0  0  0  0  0  0
  -26.6319  -19.0327   21.8800 C   0  0  0  0  0  0
  -28.0561  -17.1901   22.6068 C   0  0  0  0  0  0
  -28.7749  -18.6388   20.7806 C   0  0  0  0  0  0
  -27.5860  -19.3897   20.9041 C   0  0  0  0  0  0
  -29.0185  -17.5401   21.6330 C   0  0  0  0  0  0
  -27.3417  -20.5884   20.0079 C   0  0  0  0  0  0
  -30.3041  -16.7361   21.5023 C   0  0  0  0  0  0
  -27.7151  -21.9104   20.7006 C   0  0  0  0  0  0
  -27.9106  -23.0649   19.7065 C   0  0  0  0  0  0
  -28.1160  -24.4155   20.4090 C   0  0  0  0  0  0
  -28.5614  -25.5257   19.4448 C   0  0  0  0  0  0
  -30.0138  -15.3171   21.3427 N   0  0  0  0  0  0
  -31.4679  -12.4285   19.0898 H   0  0  0  0  0  0
  -30.3446  -11.2811   19.7645 H   0  0  0  0  0  0
  -29.7220  -11.8129   17.3988 H   0  0  0  0  0  0
  -29.6454  -13.5152   17.7660 H   0  0  0  0  0  0
  -27.8310  -11.3114   18.7956 H   0  0  0  0  0  0
  -27.3508  -12.6526   17.7898 H   0  0  0  0  0  0
  -27.7265  -14.2505   19.6158 H   0  0  0  0  0  0
  -28.6716  -11.8819   21.3018 H   0  0  0  0  0  0
  -28.4506  -13.4879   21.8967 H   0  0  0  0  0  0
  -25.2756   -9.5699   22.4740 H   0  0  0  0  0  0
  -24.0005   -7.4655   22.7476 H   0  0  0  0  0  0
  -21.0851   -8.8778   19.8948 H   0  0  0  0  0  0
  -22.3695  -10.9681   19.6169 H   0  0  0  0  0  0
  -21.1988   -7.6130   23.9692 H   0  0  0  0  0  0
  -21.1483   -6.0523   25.9065 H   0  0  0  0  0  0
  -22.0598   -2.7599   23.2842 H   0  0  0  0  0  0
  -22.4138  -11.9962   22.4771 H   0  0  0  0  0  0
  -21.1092  -13.1277   22.2525 H   0  0  0  0  0  0
  -24.6879  -15.8480   20.5772 H   0  0  0  0  0  0
  -26.3143  -15.6319   20.1771 H   0  0  0  0  0  0
  -26.7059  -32.5564   23.1167 H   0  0  0  0  0  0
  -25.0097  -33.9828   25.0525 H   0  0  0  0  0  0
  -22.6826  -31.3090   21.4157 H   0  0  0  0  0  0
  -23.3761  -35.9655   23.3326 H   0  0  0  0  0  0
  -24.3587  -36.8920   22.2054 H   0  0  0  0  0  0
  -23.7265  -37.6549   23.6628 H   0  0  0  0  0  0
  -26.0260  -31.6113   20.5953 H   0  0  0  0  0  0
  -26.8104  -30.8973   21.9781 H   0  0  0  0  0  0
  -28.0958  -29.1370   21.1426 H   0  0  0  0  0  0
  -26.0225  -25.9726   19.0499 H   0  0  0  0  0  0
  -23.9657  -27.2853   19.0720 H   0  0  0  0  0  0
  -23.7142  -30.6059   19.4114 H   0  0  0  0  0  0
  -22.7287  -29.2493   19.8674 H   0  0  0  0  0  0
  -25.1307  -36.2011   25.0841 H   0  0  0  0  0  0
  -20.9907  -28.3227   24.1448 H   0  0  0  0  0  0
  -20.5702  -26.2234   23.3589 H   0  0  0  0  0  0
  -21.6711  -26.7501   22.1253 H   0  0  0  0  0  0
  -19.6940  -25.6259   21.1227 H   0  0  0  0  0  0
  -19.6728  -27.3174   20.6740 H   0  0  0  0  0  0
  -17.4227  -26.6635   21.3939 H   0  0  0  0  0  0
  -18.0244  -26.0038   22.8959 H   0  0  0  0  0  0
  -19.7870  -30.7231   24.2376 H   0  0  0  0  0  0
  -17.5013  -31.6215   24.5175 H   0  0  0  0  0  0
  -15.5326  -30.2986   23.7631 H   0  0  0  0  0  0
  -15.8666  -28.0817   22.6943 H   0  0  0  0  0  0
  -24.5934  -30.7020   25.7798 H   0  0  0  0  0  0
  -24.8964  -32.2814   26.4936 H   0  0  0  0  0  0
  -25.8145  -30.8811   27.0188 H   0  0  0  0  0  0
  -26.2848  -29.6772   24.1142 H   0  0  0  0  0  0
  -27.4157  -29.7289   25.4481 H   0  0  0  0  0  0
  -27.8636  -30.4377   23.9136 H   0  0  0  0  0  0
  -27.2659  -33.3572   26.2083 H   0  0  0  0  0  0
  -28.3835  -32.6875   25.0283 H   0  0  0  0  0  0
  -28.0711  -31.8376   26.5361 H   0  0  0  0  0  0
  -28.2628  -38.0107   24.7497 H   0  0  0  0  0  0
  -28.1060  -36.2645   24.6316 H   0  0  0  0  0  0
  -27.2280  -37.1506   25.8866 H   0  0  0  0  0  0
  -20.9174  -29.8740   21.7025 H   0  0  0  0  0  0
  -26.0198  -38.2896   24.1395 H   0  0  0  0  0  0
  -26.1294  -17.6587   23.4709 H   0  0  0  0  0  0
  -25.7243  -19.6107   21.9877 H   0  0  0  0  0  0
  -28.2218  -16.3498   23.2711 H   0  0  0  0  0  0
  -29.5082  -18.9079   20.0324 H   0  0  0  0  0  0
  -26.2908  -20.6063   19.7084 H   0  0  0  0  0  0
  -27.9166  -20.4640   19.0881 H   0  0  0  0  0  0
  -30.9065  -17.1152   20.6736 H   0  0  0  0  0  0
  -30.8945  -16.8718   22.4086 H   0  0  0  0  0  0
  -26.9555  -22.1620   21.4405 H   0  0  0  0  0  0
  -28.6452  -21.7784   21.2544 H   0  0  0  0  0  0
  -27.0535  -23.1318   19.0351 H   0  0  0  0  0  0
  -28.7736  -22.8404   19.0794 H   0  0  0  0  0  0
  -28.8680  -24.3244   21.1968 H   0  0  0  0  0  0
  -27.1907  -24.6932   20.9126 H   0  0  0  0  0  0
  -28.0375  -25.4967   18.4896 H   0  0  0  0  0  0
  -29.6132  -25.3709   19.1982 H   0  0  0  0  0  0
  -29.1277  -15.0043   21.7081 H   0  0  0  0  0  0
  1 25  1  0  0  0
  1 30  2  0  0  0
  1 83  1  0  0  0
  2  3  1  0  0  0
  2 25  1  0  0  0
  2 84  1  0  0  0
  2 85  1  0  0  0
  3  4  1  0  0  0
  3 86  1  0  0  0
  3 87  1  0  0  0
  4  5  1  0  0  0
  4 88  1  0  0  0
  4 89  1  0  0  0
  5  6  1  0  0  0
  5 26  1  0  0  0
  5 90  1  0  0  0
  6 25  1  0  0  0
  6 91  1  0  0  0
  6 92  1  0  0  0
  7  8  2  0  0  0
  7 26  1  0  0  0
  7 29  1  0  0  0
  8  9  1  0  0  0
  8 22  1  0  0  0
  9 10  1  0  0  0
  9 27  2  0  0  0
 10 11  2  0  0  0
 10 15  1  0  0  0
 11 12  1  0  0  0
 11 93  1  0  0  0
 12 13  2  0  0  0
 12 94  1  0  0  0
 13 14  1  0  0  0
 13 31  1  0  0  0
 14 15  2  0  0  0
 14 95  1  0  0  0
 15 96  1  0  0  0
 16 17  2  0  0  0
 16 21  1  0  0  0
 16 31  1  0  0  0
 17 18  1  0  0  0
 17 97  1  0  0  0
 18 19  2  0  0  0
 18 98  1  0  0  0
 19 20  1  0  0  0
 19 24  1  0  0  0
 20 21  2  0  0  0
 20 99  1  0  0  0
 21 23  1  0  0  0
 22 28  1  0  0  0
 22 32  2  0  0  0
 26 27  1  0  0  0
 28100  1  0  0  0
 28101  1  0  0  0
 29102  1  0  0  0
 29103  1  0  0  0
 33 34  1  0  0  0
 33 66  1  0  0  0
 33 70  2  0  0  0
 34 36  1  0  0  0
 34 59  1  0  0  0
 34104  1  0  0  0
 35 44  2  0  0  0
 35 45  1  0  0  0
 35 68  1  0  0  0
 36 56  1  0  0  0
 36105  1  0  0  0
 37 39  1  0  0  0
 37 47  1  0  0  0
 37 66  1  0  0  0
 37106  1  0  0  0
 38 43  2  0  0  0
 38 46  1  0  0  0
 38 47  1  0  0  0
 39 64  1  0  0  0
 39 67  2  0  0  0
 40 52  1  0  0  0
 40 53  2  0  0  0
 40 58  1  0  0  0
 41107  1  0  0  0
 41108  1  0  0  0
 41109  1  0  0  0
 41 48  1  0  0  0
 42 43  1  0  0  0
 42 66  1  0  0  0
 42110  1  0  0  0
 42111  1  0  0  0
 43 44  1  0  0  0
 44112  1  0  0  0
 45 46  2  0  0  0
 45113  1  0  0  0
 46114  1  0  0  0
 47115  1  0  0  0
 47116  1  0  0  0
 48 56  1  0  0  0
 48 65  1  0  0  0
 48117  1  0  0  0
 49 50  1  0  0  0
 49 53  1  0  0  0
 49 64  1  0  0  0
 49118  1  0  0  0
 50 51  1  0  0  0
 50119  1  0  0  0
 50120  1  0  0  0
 51 52  1  0  0  0
 51121  1  0  0  0
 51122  1  0  0  0
 52123  1  0  0  0
 52124  1  0  0  0
 53 54  1  0  0  0
 54 55  2  0  0  0
 54125  1  0  0  0
 55 57  1  0  0  0
 55126  1  0  0  0
 56 69  2  0  0  0
 57 58  2  0  0  0
 57127  1  0  0  0
 58128  1  0  0  0
 59 60  1  0  0  0
 59 61  1  0  0  0
 59 62  1  0  0  0
 60129  1  0  0  0
 60130  1  0  0  0
 60131  1  0  0  0
 61132  1  0  0  0
 61133  1  0  0  0
 61134  1  0  0  0
 62135  1  0  0  0
 62136  1  0  0  0
 62137  1  0  0  0
 63 65  1  0  0  0
 63138  1  0  0  0
 63139  1  0  0  0
 63140  1  0  0  0
 64141  1  0  0  0
 65142  1  0  0  0
 68 82  1  0  0  0
 71 72  2  0  0  0
 71 73  1  0  0  0
 71143  1  0  0  0
 72 75  1  0  0  0
 72144  1  0  0  0
 73 76  2  0  0  0
 73145  1  0  0  0
 74 75  2  0  0  0
 74 76  1  0  0  0
 74146  1  0  0  0
 75 77  1  0  0  0
 76 78  1  0  0  0
 77 79  1  0  0  0
 77147  1  0  0  0
 77148  1  0  0  0
 78 83  1  0  0  0
 78149  1  0  0  0
 78150  1  0  0  0
 79 80  1  0  0  0
 79151  1  0  0  0
 79152  1  0  0  0
 80 81  1  0  0  0
 80153  1  0  0  0
 80154  1  0  0  0
 81 82  1  0  0  0
 81155  1  0  0  0
 81156  1  0  0  0
 82157  1  0  0  0
 82158  1  0  0  0
 83159  1  0  0  0
M  ISO  4   1 100  68 101  82 101  83 100
M  END
> <chiral flag>
0

> <version>
0

> <s_m_source_file>
/data/baiqing/PycharmProjects/Reinvent-master-3.2/result/LINK_invent/BTK/process_docking_weight1_custom_product_contain_oxygen_bond_distance_aromatic_linkinvent_7_9_3/rearranged_h_0134.sdf

> <i_m_source_file_index>
63

> <r_mmod_Potential_Energy-OPLS-2005>
-125.53182220459

> <r_mmod_Stretch_Energy-OPLS-2005>
30.9718227386475

> <r_mmod_Bend_Energy-OPLS-2005>
92.0083999633789

> <r_mmod_Torsional_Energy-OPLS-2005>
189.194747924805

> <r_mmod_Improper_Torsional_Energy-OPLS-2005>
2.62112474441528

> <r_mmod_Van_der_Waal_Energy-OPLS-2005>
150.013198852539

> <r_mmod_Electrostatic_Energy-OPLS-2005>
-404.809631347656

> <r_mmod_Solvation_Energy-OPLS-2005>
-194.505783081055

> <b_mmod_Minimization_Converged-OPLS-2005>
0

> <r_mmod_RMS_Derivative-OPLS-2005>
3.86293315887451

$$$$
63
                    3D
 Structure written by MMmdl.
163171  0  0  1  0            999 V2000
  -30.7195  -14.4310   20.6161 C   0  0  0  0  0  0
  -30.4200  -12.2949   19.4150 C   0  0  0  0  0  0
  -29.4922  -12.5192   18.2031 C   0  0  0  0  0  0
  -28.0100  -12.3915   18.6105 C   0  0  0  0  0  0
  -27.6660  -13.2083   19.8853 C   0  0  2  0  0  0
  -28.7072  -12.9464   20.9954 C   0  0  0  0  0  0
  -25.2591  -13.8169   20.5701 C   0  0  0  0  0  0
  -24.1840  -13.0440   20.9171 C   0  0  0  0  0  0
  -24.6399  -11.6907   20.8734 C   0  0  0  0  0  0
  -23.9065  -10.4294   21.0403 C   0  0  0  0  0  0
  -24.3618   -9.4212   21.9181 C   0  0  0  0  0  0
  -23.6298   -8.2244   22.0755 C   0  0  0  0  0  0
  -22.4277   -8.0282   21.3545 C   0  0  0  0  0  0
  -21.9913   -9.0251   20.4643 C   0  0  0  0  0  0
  -22.7238  -10.2134   20.3051 C   0  0  0  0  0  0
  -21.6848   -6.0740   22.5282 C   0  0  0  0  0  0
  -21.4005   -6.5643   23.8214 C   0  0  0  0  0  0
  -21.3658   -5.6795   24.9177 C   0  0  0  0  0  0
  -21.6046   -4.3059   24.7222 C   0  0  0  0  0  0
  -21.8823   -3.8152   23.4343 C   0  0  0  0  0  0
  -21.9194   -4.6970   22.3403 C   0  0  0  0  0  0
  -22.7859  -13.5232   21.1837 C   0  0  0  0  0  0
  -22.1666   -4.2157   21.0982 F   0  0  0  0  0  0
  -21.5629   -3.4543   25.7735 F   0  0  0  0  0  0
  -30.0379  -13.2631   20.4556 N   0  0  0  0  0  0
  -26.3047  -12.9348   20.3425 N   0  0  0  0  0  0
  -25.9332  -11.6500   20.5781 N   0  0  0  0  0  0
  -22.0502  -12.8220   22.0392 N   0  0  0  0  0  0
  -25.4301  -15.1891   20.4124 N   0  0  0  0  0  0
  -31.8178  -14.6156   20.0818 O   0  0  0  0  0  0
  -21.6634   -6.8883   21.4244 O   0  0  0  0  0  0
  -22.3542  -14.5543   20.6694 O   0  0  0  0  0  0
  -24.6110  -31.8695   23.2129 C   0  0  0  0  0  0
  -25.9015  -32.4830   23.8422 C   0  0  1  0  0  0
  -27.2455  -27.4587   20.1032 C   0  0  0  0  0  0
  -25.5880  -33.8628   24.2350 N   0  0  0  0  0  0
  -23.4000  -30.4905   21.5508 C   0  0  2  0  0  0
  -24.8523  -28.9599   20.1163 C   0  0  0  0  0  0
  -22.7402  -29.4650   22.4998 C   0  0  0  0  0  0
  -18.0266  -28.1370   22.8495 C   0  0  0  0  0  0
  -24.1477  -36.7305   23.2644 C   0  0  0  0  0  0
  -25.9254  -30.8416   21.3666 C   0  0  0  0  0  0
  -26.0063  -29.4755   20.7206 C   0  0  0  0  0  0
  -27.2044  -28.7299   20.7234 C   0  0  0  0  0  0
  -26.0828  -26.9604   19.4836 C   0  0  0  0  0  0
  -24.8833  -27.6978   19.4967 C   0  0  0  0  0  0
  -23.6106  -29.8213   20.1651 C   0  0  0  0  0  0
  -25.4096  -36.3115   24.0347 C   0  0  1  0  0  0
  -20.5856  -28.3649   23.1319 C   0  0  2  0  0  0
  -20.6748  -26.9385   22.5418 C   0  0  0  0  0  0
  -19.5731  -26.6377   21.5210 C   0  0  0  0  0  0
  -18.1909  -26.7916   22.1623 C   0  0  0  0  0  0
  -19.1516  -28.8829   23.2904 C   0  0  0  0  0  0
  -18.9449  -30.1435   23.8916 C   0  0  0  0  0  0
  -17.6453  -30.6582   24.0561 C   0  0  0  0  0  0
  -25.9022  -34.9480   23.5148 C   0  0  0  0  0  0
  -16.5341  -29.9084   23.6326 C   0  0  0  0  0  0
  -16.7256  -28.6497   23.0352 C   0  0  0  0  0  0
  -26.4460  -31.6601   25.0736 C   0  0  0  0  0  0
  -25.3741  -31.3688   26.1497 C   0  0  0  0  0  0
  -27.0292  -30.3053   24.6086 C   0  0  0  0  0  0
  -27.6040  -32.4325   25.7493 C   0  0  0  0  0  0
  -27.5572  -37.1807   24.8471 C   0  0  0  0  0  0
  -21.4133  -29.3015   22.3732 N   0  0  0  0  0  0
  -26.4287  -37.3794   23.9414 N   0  0  0  0  0  0
  -24.6627  -31.0817   22.1019 N   0  0  0  0  0  0
  -23.4176  -28.8202   23.3042 O   0  0  0  0  0  0
  -28.3702  -26.6684   20.0535 O   0  0  0  0  0  0
  -26.5586  -34.8925   22.4712 O   0  0  0  0  0  0
  -23.5307  -32.1432   23.7536 O   0  0  0  0  0  0
  -29.4327  -20.5527   18.4704 C   0  0  0  0  0  0
  -29.4056  -19.3103   19.1272 C   0  0  0  0  0  0
  -29.8682  -20.4291   21.2281 C   0  0  0  0  0  0
  -29.8896  -21.6932   20.5848 C   0  0  0  0  0  0
  -29.6981  -21.7477   19.1731 C   0  0  0  0  0  0
  -29.6463  -19.2298   20.5178 C   0  0  0  0  0  0
  -30.2426  -22.8741   21.4328 C   0  0  0  0  0  0
  -31.3169  -23.3714   18.0872 C   0  0  0  0  0  0
  -29.8464  -23.0204   18.3428 C   0  0  0  0  0  0
  -29.3259  -24.1064   21.4225 C   0  0  0  0  0  0
  -30.1261  -15.6244   21.3956 C   0  0  0  0  0  0
  -30.1014  -25.4247   21.1861 C   0  0  0  0  0  0
  -29.8573  -16.8323   20.4702 C   0  0  0  0  0  0
  -29.2187  -26.6837   21.1955 C   0  0  0  0  0  0
  -31.2093  -22.8620   22.2003 O   0  0  0  0  0  0
  -29.6890  -18.0395   21.2205 O   0  0  0  0  0  0
  -31.4648  -12.3866   19.1137 H   0  0  0  0  0  0
  -30.3154  -11.2770   19.7948 H   0  0  0  0  0  0
  -29.7241  -11.8061   17.4109 H   0  0  0  0  0  0
  -29.6728  -13.5104   17.7845 H   0  0  0  0  0  0
  -27.8015  -11.3345   18.7802 H   0  0  0  0  0  0
  -27.3672  -12.6996   17.7849 H   0  0  0  0  0  0
  -27.7227  -14.2640   19.6189 H   0  0  0  0  0  0
  -28.6814  -11.8947   21.2836 H   0  0  0  0  0  0
  -28.4630  -13.4821   21.9092 H   0  0  0  0  0  0
  -25.2769   -9.5686   22.4748 H   0  0  0  0  0  0
  -24.0010   -7.4634   22.7474 H   0  0  0  0  0  0
  -21.0846   -8.8769   19.8943 H   0  0  0  0  0  0
  -22.3704  -10.9670   19.6155 H   0  0  0  0  0  0
  -21.1991   -7.6150   23.9720 H   0  0  0  0  0  0
  -21.1475   -6.0524   25.9080 H   0  0  0  0  0  0
  -22.0603   -2.7614   23.2840 H   0  0  0  0  0  0
  -22.4119  -11.9879   22.4779 H   0  0  0  0  0  0
  -21.1120  -13.1235   22.2604 H   0  0  0  0  0  0
  -24.6640  -15.8447   20.5205 H   0  0  0  0  0  0
  -26.2910  -15.6324   20.1185 H   0  0  0  0  0  0
  -26.7093  -32.5566   23.1202 H   0  0  0  0  0  0
  -25.0035  -33.9796   25.0499 H   0  0  0  0  0  0
  -22.6873  -31.3058   21.4109 H   0  0  0  0  0  0
  -23.3743  -35.9638   23.3323 H   0  0  0  0  0  0
  -24.3574  -36.8898   22.2057 H   0  0  0  0  0  0
  -23.7223  -37.6513   23.6646 H   0  0  0  0  0  0
  -26.0357  -31.6063   20.5968 H   0  0  0  0  0  0
  -26.8128  -30.8980   21.9848 H   0  0  0  0  0  0
  -28.0896  -29.1395   21.1895 H   0  0  0  0  0  0
  -26.1073  -25.9935   19.0006 H   0  0  0  0  0  0
  -23.9988  -27.2942   19.0234 H   0  0  0  0  0  0
  -23.7155  -30.5953   19.4040 H   0  0  0  0  0  0
  -22.7378  -29.2357   19.8719 H   0  0  0  0  0  0
  -25.1269  -36.1990   25.0839 H   0  0  0  0  0  0
  -20.9943  -28.3211   24.1439 H   0  0  0  0  0  0
  -20.5641  -26.2255   23.3604 H   0  0  0  0  0  0
  -21.6620  -26.7416   22.1219 H   0  0  0  0  0  0
  -19.6886  -25.6292   21.1229 H   0  0  0  0  0  0
  -19.6672  -27.3195   20.6750 H   0  0  0  0  0  0
  -17.4174  -26.6666   21.4027 H   0  0  0  0  0  0
  -18.0307  -26.0054   22.9017 H   0  0  0  0  0  0
  -19.7927  -30.7238   24.2295 H   0  0  0  0  0  0
  -17.5011  -31.6265   24.5157 H   0  0  0  0  0  0
  -15.5342  -30.2990   23.7645 H   0  0  0  0  0  0
  -15.8651  -28.0822   22.7062 H   0  0  0  0  0  0
  -24.5899  -30.7055   25.7832 H   0  0  0  0  0  0
  -24.8955  -32.2837   26.4996 H   0  0  0  0  0  0
  -25.8105  -30.8817   27.0226 H   0  0  0  0  0  0
  -26.2825  -29.6824   24.1148 H   0  0  0  0  0  0
  -27.4081  -29.7276   25.4526 H   0  0  0  0  0  0
  -27.8653  -30.4383   23.9218 H   0  0  0  0  0  0
  -27.2654  -33.3609   26.2105 H   0  0  0  0  0  0
  -28.3826  -32.6909   25.0306 H   0  0  0  0  0  0
  -28.0737  -31.8435   26.5382 H   0  0  0  0  0  0
  -28.2602  -38.0093   24.7507 H   0  0  0  0  0  0
  -28.1052  -36.2622   24.6306 H   0  0  0  0  0  0
  -27.2294  -37.1475   25.8877 H   0  0  0  0  0  0
  -20.9296  -29.8742   21.6957 H   0  0  0  0  0  0
  -26.0178  -38.2873   24.1421 H   0  0  0  0  0  0
  -29.2810  -20.5749   17.3999 H   0  0  0  0  0  0
  -29.2153  -18.4295   18.5320 H   0  0  0  0  0  0
  -30.0543  -20.3712   22.2921 H   0  0  0  0  0  0
  -31.3991  -24.2637   17.4659 H   0  0  0  0  0  0
  -31.8284  -22.5589   17.5693 H   0  0  0  0  0  0
  -31.8547  -23.5647   19.0149 H   0  0  0  0  0  0
  -29.3241  -23.8644   18.7846 H   0  0  0  0  0  0
  -29.3532  -22.8754   17.3803 H   0  0  0  0  0  0
  -28.8319  -24.1493   22.3928 H   0  0  0  0  0  0
  -28.5267  -23.9759   20.6956 H   0  0  0  0  0  0
  -29.2276  -15.3933   21.9584 H   0  0  0  0  0  0
  -30.8707  -15.9089   22.1389 H   0  0  0  0  0  0
  -30.6486  -25.3779   20.2443 H   0  0  0  0  0  0
  -30.8567  -25.5351   21.9648 H   0  0  0  0  0  0
  -28.9599  -16.6335   19.8826 H   0  0  0  0  0  0
  -30.6867  -16.9623   19.7720 H   0  0  0  0  0  0
  -29.8487  -27.5737   21.1651 H   0  0  0  0  0  0
  -28.6401  -26.7227   22.1209 H   0  0  0  0  0  0
  1 25  1  0  0  0
  1 30  2  0  0  0
  1 81  1  0  0  0
  2  3  1  0  0  0
  2 25  1  0  0  0
  2 87  1  0  0  0
  2 88  1  0  0  0
  3  4  1  0  0  0
  3 89  1  0  0  0
  3 90  1  0  0  0
  4  5  1  0  0  0
  4 91  1  0  0  0
  4 92  1  0  0  0
  5  6  1  0  0  0
  5 26  1  0  0  0
  5 93  1  0  0  0
  6 25  1  0  0  0
  6 94  1  0  0  0
  6 95  1  0  0  0
  7  8  2  0  0  0
  7 26  1  0  0  0
  7 29  1  0  0  0
  8  9  1  0  0  0
  8 22  1  0  0  0
  9 10  1  0  0  0
  9 27  2  0  0  0
 10 11  2  0  0  0
 10 15  1  0  0  0
 11 12  1  0  0  0
 11 96  1  0  0  0
 12 13  2  0  0  0
 12 97  1  0  0  0
 13 14  1  0  0  0
 13 31  1  0  0  0
 14 15  2  0  0  0
 14 98  1  0  0  0
 15 99  1  0  0  0
 16 17  2  0  0  0
 16 21  1  0  0  0
 16 31  1  0  0  0
 17 18  1  0  0  0
 17100  1  0  0  0
 18 19  2  0  0  0
 18101  1  0  0  0
 19 20  1  0  0  0
 19 24  1  0  0  0
 20 21  2  0  0  0
 20102  1  0  0  0
 21 23  1  0  0  0
 22 28  1  0  0  0
 22 32  2  0  0  0
 26 27  1  0  0  0
 28103  1  0  0  0
 28104  1  0  0  0
 29105  1  0  0  0
 29106  1  0  0  0
 33 34  1  0  0  0
 33 66  1  0  0  0
 33 70  2  0  0  0
 34 36  1  0  0  0
 34 59  1  0  0  0
 34107  1  0  0  0
 35 44  2  0  0  0
 35 45  1  0  0  0
 35 68  1  0  0  0
 36 56  1  0  0  0
 36108  1  0  0  0
 37 39  1  0  0  0
 37 47  1  0  0  0
 37 66  1  0  0  0
 37109  1  0  0  0
 38 43  2  0  0  0
 38 46  1  0  0  0
 38 47  1  0  0  0
 39 64  1  0  0  0
 39 67  2  0  0  0
 40 52  1  0  0  0
 40 53  2  0  0  0
 40 58  1  0  0  0
 41110  1  0  0  0
 41111  1  0  0  0
 41112  1  0  0  0
 41 48  1  0  0  0
 42 43  1  0  0  0
 42 66  1  0  0  0
 42113  1  0  0  0
 42114  1  0  0  0
 43 44  1  0  0  0
 44115  1  0  0  0
 45 46  2  0  0  0
 45116  1  0  0  0
 46117  1  0  0  0
 47118  1  0  0  0
 47119  1  0  0  0
 48 56  1  0  0  0
 48 65  1  0  0  0
 48120  1  0  0  0
 49 50  1  0  0  0
 49 53  1  0  0  0
 49 64  1  0  0  0
 49121  1  0  0  0
 50 51  1  0  0  0
 50122  1  0  0  0
 50123  1  0  0  0
 51 52  1  0  0  0
 51124  1  0  0  0
 51125  1  0  0  0
 52126  1  0  0  0
 52127  1  0  0  0
 53 54  1  0  0  0
 54 55  2  0  0  0
 54128  1  0  0  0
 55 57  1  0  0  0
 55129  1  0  0  0
 56 69  2  0  0  0
 57 58  2  0  0  0
 57130  1  0  0  0
 58131  1  0  0  0
 59 60  1  0  0  0
 59 61  1  0  0  0
 59 62  1  0  0  0
 60132  1  0  0  0
 60133  1  0  0  0
 60134  1  0  0  0
 61135  1  0  0  0
 61136  1  0  0  0
 61137  1  0  0  0
 62138  1  0  0  0
 62139  1  0  0  0
 62140  1  0  0  0
 63 65  1  0  0  0
 63141  1  0  0  0
 63142  1  0  0  0
 63143  1  0  0  0
 64144  1  0  0  0
 65145  1  0  0  0
 68 84  1  0  0  0
 71 72  2  0  0  0
 71 75  1  0  0  0
 71146  1  0  0  0
 72 76  1  0  0  0
 72147  1  0  0  0
 73 74  1  0  0  0
 73 76  2  0  0  0
 73148  1  0  0  0
 74 75  2  0  0  0
 74 77  1  0  0  0
 75 79  1  0  0  0
 76 86  1  0  0  0
 77 80  1  0  0  0
 77 85  2  0  0  0
 78 79  1  0  0  0
 78149  1  0  0  0
 78150  1  0  0  0
 78151  1  0  0  0
 79152  1  0  0  0
 79153  1  0  0  0
 80 82  1  0  0  0
 80154  1  0  0  0
 80155  1  0  0  0
 81 83  1  0  0  0
 81156  1  0  0  0
 81157  1  0  0  0
 82 84  1  0  0  0
 82158  1  0  0  0
 82159  1  0  0  0
 83 86  1  0  0  0
 83160  1  0  0  0
 83161  1  0  0  0
 84162  1  0  0  0
 84163  1  0  0  0
M  ISO  4   1 100  68 101  81 100  84 101
M  END
> <chiral flag>
0

> <version>
0

> <s_m_source_file>
/data/baiqing/PycharmProjects/Reinvent-master-3.2/result/LINK_invent/BTK/process_docking_weight1_custom_product_contain_oxygen_bond_distance_aromatic_linkinvent_7_9_3/rearranged_h_0134.sdf

> <i_m_source_file_index>
64

> <r_mmod_Potential_Energy-OPLS-2005>
-39.3193321228027

> <r_mmod_Stretch_Energy-OPLS-2005>
36.5665817260742

> <r_mmod_Bend_Energy-OPLS-2005>
104.665344238281

> <r_mmod_Torsional_Energy-OPLS-2005>
222.315811157227

> <r_mmod_Improper_Torsional_Energy-OPLS-2005>
3.12300586700439

> <r_mmod_Van_der_Waal_Energy-OPLS-2005>
153.996643066406

> <r_mmod_Electrostatic_Energy-OPLS-2005>
-363.525207519531

> <r_mmod_Solvation_Energy-OPLS-2005>
-205.047470092773

> <b_mmod_Minimization_Converged-OPLS-2005>
0

> <r_mmod_RMS_Derivative-OPLS-2005>
0.942887365818024

$$$$
64
                    3D
 Structure written by MMmdl.
168176  0  0  1  0            999 V2000
  -30.6471  -14.6760   20.5129 C   0  0  0  0  0  0
  -30.4415  -12.4166   19.4838 C   0  0  0  0  0  0
  -29.5288  -12.5297   18.2401 C   0  0  0  0  0  0
  -28.0482  -12.3645   18.6341 C   0  0  0  0  0  0
  -27.6614  -13.2288   19.8640 C   0  0  2  0  0  0
  -28.6983  -13.1100   21.0053 C   0  0  0  0  0  0
  -25.2610  -13.8195   20.5611 C   0  0  0  0  0  0
  -24.1865  -13.0458   20.9123 C   0  0  0  0  0  0
  -24.6438  -11.6932   20.8668 C   0  0  0  0  0  0
  -23.9108  -10.4302   21.0354 C   0  0  0  0  0  0
  -24.3648   -9.4219   21.9144 C   0  0  0  0  0  0
  -23.6341   -8.2249   22.0731 C   0  0  0  0  0  0
  -22.4314   -8.0285   21.3521 C   0  0  0  0  0  0
  -21.9950   -9.0266   20.4623 C   0  0  0  0  0  0
  -22.7269  -10.2142   20.3026 C   0  0  0  0  0  0
  -21.6854   -6.0754   22.5282 C   0  0  0  0  0  0
  -21.4006   -6.5663   23.8214 C   0  0  0  0  0  0
  -21.3664   -5.6786   24.9165 C   0  0  0  0  0  0
  -21.6062   -4.3067   24.7209 C   0  0  0  0  0  0
  -21.8820   -3.8167   23.4316 C   0  0  0  0  0  0
  -21.9198   -4.6988   22.3373 C   0  0  0  0  0  0
  -22.7876  -13.5236   21.1819 C   0  0  0  0  0  0
  -22.1654   -4.2177   21.0955 F   0  0  0  0  0  0
  -21.5668   -3.4551   25.7716 F   0  0  0  0  0  0
  -30.0189  -13.4531   20.4541 N   0  0  0  0  0  0
  -26.3055  -12.9398   20.3255 N   0  0  0  0  0  0
  -25.9371  -11.6536   20.5643 N   0  0  0  0  0  0
  -22.0497  -12.8237   22.0354 N   0  0  0  0  0  0
  -25.4438  -15.1891   20.4071 N   0  0  0  0  0  0
  -31.7935  -14.8082   20.0723 O   0  0  0  0  0  0
  -21.6648   -6.8910   21.4243 O   0  0  0  0  0  0
  -22.3554  -14.5560   20.6710 O   0  0  0  0  0  0
  -24.6319  -31.8568   23.1983 C   0  0  0  0  0  0
  -25.9148  -32.4760   23.8350 C   0  0  1  0  0  0
  -27.2392  -27.2857   20.1287 C   0  0  0  0  0  0
  -25.5947  -33.8569   24.2276 N   0  0  0  0  0  0
  -23.4288  -30.4769   21.5426 C   0  0  2  0  0  0
  -24.8777  -28.9224   20.1134 C   0  0  0  0  0  0
  -22.7507  -29.4605   22.4929 C   0  0  0  0  0  0
  -18.0288  -28.1405   22.8476 C   0  0  0  0  0  0
  -24.1483  -36.7283   23.2638 C   0  0  0  0  0  0
  -25.9726  -30.7767   21.3727 C   0  0  0  0  0  0
  -26.0482  -29.4004   20.7169 C   0  0  0  0  0  0
  -27.2306  -28.5958   20.7090 C   0  0  0  0  0  0
  -26.0401  -26.8654   19.5043 C   0  0  0  0  0  0
  -24.8780  -27.6616   19.4988 C   0  0  0  0  0  0
  -23.6450  -29.8053   20.1614 C   0  0  0  0  0  0
  -25.4106  -36.3059   24.0325 C   0  0  1  0  0  0
  -20.5890  -28.3709   23.1278 C   0  0  2  0  0  0
  -20.6767  -26.9435   22.5405 C   0  0  0  0  0  0
  -19.5741  -26.6386   21.5209 C   0  0  0  0  0  0
  -18.1923  -26.7953   22.1611 C   0  0  0  0  0  0
  -19.1537  -28.8877   23.2869 C   0  0  0  0  0  0
  -18.9461  -30.1479   23.8869 C   0  0  0  0  0  0
  -17.6462  -30.6598   24.0551 C   0  0  0  0  0  0
  -25.9054  -34.9438   23.5098 C   0  0  0  0  0  0
  -16.5346  -29.9085   23.6351 C   0  0  0  0  0  0
  -16.7276  -28.6509   23.0359 C   0  0  0  0  0  0
  -26.4504  -31.6609   25.0758 C   0  0  0  0  0  0
  -25.3722  -31.3778   26.1475 C   0  0  0  0  0  0
  -27.0334  -30.3017   24.6254 C   0  0  0  0  0  0
  -27.6074  -32.4332   25.7525 C   0  0  0  0  0  0
  -27.5585  -37.1778   24.8457 C   0  0  0  0  0  0
  -21.4216  -29.3052   22.3675 N   0  0  0  0  0  0
  -26.4269  -37.3773   23.9427 N   0  0  0  0  0  0
  -24.6969  -31.0544   22.0958 N   0  0  0  0  0  0
  -23.4204  -28.8154   23.3023 O   0  0  0  0  0  0
  -28.3550  -26.4191   20.1870 O   0  0  0  0  0  0
  -26.5606  -34.8914   22.4651 O   0  0  0  0  0  0
  -23.5463  -32.1384   23.7279 O   0  0  0  0  0  0
  -29.2968  -19.5328   18.9005 C   0  0  0  0  0  0
  -29.4806  -17.0870   18.9434 C   0  0  0  0  0  0
  -29.8424  -18.3832   20.9745 C   0  0  0  0  0  0
  -29.2067  -18.2851   18.2551 C   0  0  0  0  0  0
  -29.6055  -19.6358   20.2707 C   0  0  0  0  0  0
  -29.8071  -17.0859   20.3179 C   0  0  0  0  0  0
  -27.2132  -18.1687   16.7476 C   0  0  0  0  0  0
  -30.3470  -23.6370   18.0778 C   0  0  0  0  0  0
  -29.6844  -24.1962   21.9233 C   0  0  0  0  0  0
  -28.7435  -18.2411   16.8155 C   0  0  0  0  0  0
  -29.7613  -21.0902   20.8829 C   0  0  0  0  0  0
  -30.5184  -24.0426   19.5570 C   0  0  0  0  0  0
  -28.7894  -22.3074   20.4316 C   0  0  0  0  0  0
  -28.1388  -24.9432   20.0647 C   0  0  0  0  0  0
  -29.2718  -23.8608   20.4754 C   0  0  1  0  0  0
  -29.9462  -15.7728   20.9708 N   0  0  0  0  0  0
  -31.4889  -12.5242   19.1991 H   0  0  0  0  0  0
  -30.3711  -11.4217   19.9265 H   0  0  0  0  0  0
  -29.8108  -11.7853   17.4937 H   0  0  0  0  0  0
  -29.6741  -13.5009   17.7646 H   0  0  0  0  0  0
  -27.8722  -11.3101   18.8458 H   0  0  0  0  0  0
  -27.4097  -12.6164   17.7850 H   0  0  0  0  0  0
  -27.6777  -14.2606   19.5175 H   0  0  0  0  0  0
  -28.7064  -12.0989   21.4159 H   0  0  0  0  0  0
  -28.4283  -13.7708   21.8317 H   0  0  0  0  0  0
  -25.2788   -9.5746   22.4699 H   0  0  0  0  0  0
  -24.0088   -7.4641   22.7452 H   0  0  0  0  0  0
  -21.0888   -8.8795   19.8910 H   0  0  0  0  0  0
  -22.3737  -10.9691   19.6142 H   0  0  0  0  0  0
  -21.1966   -7.6156   23.9737 H   0  0  0  0  0  0
  -21.1500   -6.0492   25.9076 H   0  0  0  0  0  0
  -22.0596   -2.7637   23.2770 H   0  0  0  0  0  0
  -22.4106  -11.9909   22.4779 H   0  0  0  0  0  0
  -21.1112  -13.1293   22.2536 H   0  0  0  0  0  0
  -24.7004  -15.8656   20.5390 H   0  0  0  0  0  0
  -26.3242  -15.6201   20.1521 H   0  0  0  0  0  0
  -26.7227  -32.5413   23.1108 H   0  0  0  0  0  0
  -25.0154  -33.9732   25.0447 H   0  0  0  0  0  0
  -22.7229  -31.2969   21.3948 H   0  0  0  0  0  0
  -23.3762  -35.9604   23.3262 H   0  0  0  0  0  0
  -24.3589  -36.8949   22.2071 H   0  0  0  0  0  0
  -23.7219  -37.6462   23.6679 H   0  0  0  0  0  0
  -26.1054  -31.5335   20.5976 H   0  0  0  0  0  0
  -26.8519  -30.8282   22.0059 H   0  0  0  0  0  0
  -28.1291  -28.9555   21.1910 H   0  0  0  0  0  0
  -25.9665  -25.8980   19.0302 H   0  0  0  0  0  0
  -23.9797  -27.2833   19.0290 H   0  0  0  0  0  0
  -23.7631  -30.5766   19.3986 H   0  0  0  0  0  0
  -22.7656  -29.2310   19.8640 H   0  0  0  0  0  0
  -25.1281  -36.1901   25.0812 H   0  0  0  0  0  0
  -20.9983  -28.3283   24.1398 H   0  0  0  0  0  0
  -20.5688  -26.2331   23.3615 H   0  0  0  0  0  0
  -21.6644  -26.7469   22.1192 H   0  0  0  0  0  0
  -19.6906  -25.6281   21.1289 H   0  0  0  0  0  0
  -19.6702  -27.3160   20.6713 H   0  0  0  0  0  0
  -17.4218  -26.6728   21.3995 H   0  0  0  0  0  0
  -18.0297  -26.0104   22.9006 H   0  0  0  0  0  0
  -19.7927  -30.7306   24.2232 H   0  0  0  0  0  0
  -17.5009  -31.6287   24.5132 H   0  0  0  0  0  0
  -15.5339  -30.2966   23.7702 H   0  0  0  0  0  0
  -15.8679  -28.0820   22.7082 H   0  0  0  0  0  0
  -24.5890  -30.7129   25.7811 H   0  0  0  0  0  0
  -24.8900  -32.2954   26.4869 H   0  0  0  0  0  0
  -25.8022  -30.8989   27.0284 H   0  0  0  0  0  0
  -26.2916  -29.6793   24.1235 H   0  0  0  0  0  0
  -27.3953  -29.7264   25.4794 H   0  0  0  0  0  0
  -27.8831  -30.4277   23.9534 H   0  0  0  0  0  0
  -27.2698  -33.3633   26.2116 H   0  0  0  0  0  0
  -28.3876  -32.6906   25.0347 H   0  0  0  0  0  0
  -28.0766  -31.8464   26.5436 H   0  0  0  0  0  0
  -28.2550  -38.0120   24.7536 H   0  0  0  0  0  0
  -28.1105  -36.2649   24.6186 H   0  0  0  0  0  0
  -27.2327  -37.1336   25.8862 H   0  0  0  0  0  0
  -20.9414  -29.8793   21.6891 H   0  0  0  0  0  0
  -26.0147  -38.2843   24.1431 H   0  0  0  0  0  0
  -29.1097  -20.4226   18.3165 H   0  0  0  0  0  0
  -29.3949  -16.1505   18.4107 H   0  0  0  0  0  0
  -30.0669  -18.4203   22.0309 H   0  0  0  0  0  0
  -26.8609  -18.1987   15.7177 H   0  0  0  0  0  0
  -26.7563  -19.0044   17.2800 H   0  0  0  0  0  0
  -26.8436  -17.2490   17.2065 H   0  0  0  0  0  0
  -31.2740  -23.7909   17.5222 H   0  0  0  0  0  0
  -29.5745  -24.2260   17.5823 H   0  0  0  0  0  0
  -30.0970  -22.5818   17.9675 H   0  0  0  0  0  0
  -30.4502  -23.5178   22.3010 H   0  0  0  0  0  0
  -28.8352  -24.1457   22.6043 H   0  0  0  0  0  0
  -30.0906  -25.2061   21.9913 H   0  0  0  0  0  0
  -29.1806  -17.3844   16.3037 H   0  0  0  0  0  0
  -29.1057  -19.1283   16.2906 H   0  0  0  0  0  0
  -30.7890  -21.3830   20.6663 H   0  0  0  0  0  0
  -29.7212  -21.0060   21.9694 H   0  0  0  0  0  0
  -30.8403  -25.0850   19.5890 H   0  0  0  0  0  0
  -31.3558  -23.4772   19.9657 H   0  0  0  0  0  0
  -27.8816  -22.2149   21.0288 H   0  0  0  0  0  0
  -28.4333  -22.1223   19.4233 H   0  0  0  0  0  0
  -27.2540  -24.7005   20.6554 H   0  0  0  0  0  0
  -27.8587  -24.7430   19.0299 H   0  0  0  0  0  0
  -29.1681  -15.5301   21.5633 H   0  0  0  0  0  0
  1 25  1  0  0  0
  1 30  2  0  0  0
  1 86  1  0  0  0
  2  3  1  0  0  0
  2 25  1  0  0  0
  2 87  1  0  0  0
  2 88  1  0  0  0
  3  4  1  0  0  0
  3 89  1  0  0  0
  3 90  1  0  0  0
  4  5  1  0  0  0
  4 91  1  0  0  0
  4 92  1  0  0  0
  5  6  1  0  0  0
  5 26  1  0  0  0
  5 93  1  0  0  0
  6 25  1  0  0  0
  6 94  1  0  0  0
  6 95  1  0  0  0
  7  8  2  0  0  0
  7 26  1  0  0  0
  7 29  1  0  0  0
  8  9  1  0  0  0
  8 22  1  0  0  0
  9 10  1  0  0  0
  9 27  2  0  0  0
 10 11  2  0  0  0
 10 15  1  0  0  0
 11 12  1  0  0  0
 11 96  1  0  0  0
 12 13  2  0  0  0
 12 97  1  0  0  0
 13 14  1  0  0  0
 13 31  1  0  0  0
 14 15  2  0  0  0
 14 98  1  0  0  0
 15 99  1  0  0  0
 16 17  2  0  0  0
 16 21  1  0  0  0
 16 31  1  0  0  0
 17 18  1  0  0  0
 17100  1  0  0  0
 18 19  2  0  0  0
 18101  1  0  0  0
 19 20  1  0  0  0
 19 24  1  0  0  0
 20 21  2  0  0  0
 20102  1  0  0  0
 21 23  1  0  0  0
 22 28  1  0  0  0
 22 32  2  0  0  0
 26 27  1  0  0  0
 28103  1  0  0  0
 28104  1  0  0  0
 29105  1  0  0  0
 29106  1  0  0  0
 33 34  1  0  0  0
 33 66  1  0  0  0
 33 70  2  0  0  0
 34 36  1  0  0  0
 34 59  1  0  0  0
 34107  1  0  0  0
 35 44  2  0  0  0
 35 45  1  0  0  0
 35 68  1  0  0  0
 36 56  1  0  0  0
 36108  1  0  0  0
 37 39  1  0  0  0
 37 47  1  0  0  0
 37 66  1  0  0  0
 37109  1  0  0  0
 38 43  2  0  0  0
 38 46  1  0  0  0
 38 47  1  0  0  0
 39 64  1  0  0  0
 39 67  2  0  0  0
 40 52  1  0  0  0
 40 53  2  0  0  0
 40 58  1  0  0  0
 41110  1  0  0  0
 41111  1  0  0  0
 41112  1  0  0  0
 41 48  1  0  0  0
 42 43  1  0  0  0
 42 66  1  0  0  0
 42113  1  0  0  0
 42114  1  0  0  0
 43 44  1  0  0  0
 44115  1  0  0  0
 45 46  2  0  0  0
 45116  1  0  0  0
 46117  1  0  0  0
 47118  1  0  0  0
 47119  1  0  0  0
 48 56  1  0  0  0
 48 65  1  0  0  0
 48120  1  0  0  0
 49 50  1  0  0  0
 49 53  1  0  0  0
 49 64  1  0  0  0
 49121  1  0  0  0
 50 51  1  0  0  0
 50122  1  0  0  0
 50123  1  0  0  0
 51 52  1  0  0  0
 51124  1  0  0  0
 51125  1  0  0  0
 52126  1  0  0  0
 52127  1  0  0  0
 53 54  1  0  0  0
 54 55  2  0  0  0
 54128  1  0  0  0
 55 57  1  0  0  0
 55129  1  0  0  0
 56 69  2  0  0  0
 57 58  2  0  0  0
 57130  1  0  0  0
 58131  1  0  0  0
 59 60  1  0  0  0
 59 61  1  0  0  0
 59 62  1  0  0  0
 60132  1  0  0  0
 60133  1  0  0  0
 60134  1  0  0  0
 61135  1  0  0  0
 61136  1  0  0  0
 61137  1  0  0  0
 62138  1  0  0  0
 62139  1  0  0  0
 62140  1  0  0  0
 63 65  1  0  0  0
 63141  1  0  0  0
 63142  1  0  0  0
 63143  1  0  0  0
 64144  1  0  0  0
 65145  1  0  0  0
 68 84  1  0  0  0
 71 74  2  0  0  0
 71 75  1  0  0  0
 71146  1  0  0  0
 72 74  1  0  0  0
 72 76  2  0  0  0
 72147  1  0  0  0
 73 75  2  0  0  0
 73 76  1  0  0  0
 73148  1  0  0  0
 74 80  1  0  0  0
 75 81  1  0  0  0
 76 86  1  0  0  0
 77 80  1  0  0  0
 77149  1  0  0  0
 77150  1  0  0  0
 77151  1  0  0  0
 78 82  1  0  0  0
 78152  1  0  0  0
 78153  1  0  0  0
 78154  1  0  0  0
 79155  1  0  0  0
 79156  1  0  0  0
 79157  1  0  0  0
 79 85  1  0  0  0
 80158  1  0  0  0
 80159  1  0  0  0
 81 83  1  0  0  0
 81160  1  0  0  0
 81161  1  0  0  0
 82 85  1  0  0  0
 82162  1  0  0  0
 82163  1  0  0  0
 83 85  1  0  0  0
 83164  1  0  0  0
 83165  1  0  0  0
 84 85  1  0  0  0
 84166  1  0  0  0
 84167  1  0  0  0
 86168  1  0  0  0
M  ISO  4   1 100  68 101  84 101  86 100
M  END
> <chiral flag>
0

> <version>
0

> <s_m_source_file>
/data/baiqing/PycharmProjects/Reinvent-master-3.2/result/LINK_invent/BTK/process_docking_weight1_custom_product_contain_oxygen_bond_distance_aromatic_linkinvent_7_9_3/rearranged_h_0134.sdf

> <i_m_source_file_index>
65

> <r_mmod_Potential_Energy-OPLS-2005>
168.135238647461

> <r_mmod_Stretch_Energy-OPLS-2005>
115.292350769043

> <r_mmod_Bend_Energy-OPLS-2005>
156.32356262207

> <r_mmod_Torsional_Energy-OPLS-2005>
264.050720214844

> <r_mmod_Improper_Torsional_Energy-OPLS-2005>
5.11605501174927

> <r_mmod_Van_der_Waal_Energy-OPLS-2005>
131.721420288086

> <r_mmod_Electrostatic_Energy-OPLS-2005>
-370.031433105469

> <r_mmod_Solvation_Energy-OPLS-2005>
-195.916366577148

> <b_mmod_Minimization_Converged-OPLS-2005>
0

> <r_mmod_RMS_Derivative-OPLS-2005>
4.31543350219727

$$$$
65
                    3D
 Structure written by MMmdl.
159167  0  0  1  0            999 V2000
  -30.7218  -14.4292   20.5846 C   0  0  0  0  0  0
  -30.4203  -12.2911   19.4064 C   0  0  0  0  0  0
  -29.4874  -12.4950   18.1941 C   0  0  0  0  0  0
  -28.0052  -12.3625   18.6058 C   0  0  0  0  0  0
  -27.6628  -13.1915   19.8745 C   0  0  2  0  0  0
  -28.7084  -12.9114   20.9811 C   0  0  0  0  0  0
  -25.2575  -13.8104   20.5656 C   0  0  0  0  0  0
  -24.1821  -13.0417   20.9199 C   0  0  0  0  0  0
  -24.6371  -11.6877   20.8784 C   0  0  0  0  0  0
  -23.9040  -10.4285   21.0447 C   0  0  0  0  0  0
  -24.3617   -9.4196   21.9211 C   0  0  0  0  0  0
  -23.6288   -8.2235   22.0777 C   0  0  0  0  0  0
  -22.4272   -8.0281   21.3557 C   0  0  0  0  0  0
  -21.9897   -9.0249   20.4648 C   0  0  0  0  0  0
  -22.7231  -10.2137   20.3065 C   0  0  0  0  0  0
  -21.6832   -6.0742   22.5305 C   0  0  0  0  0  0
  -21.4014   -6.5639   23.8247 C   0  0  0  0  0  0
  -21.3662   -5.6790   24.9204 C   0  0  0  0  0  0
  -21.6048   -4.3045   24.7249 C   0  0  0  0  0  0
  -21.8826   -3.8157   23.4369 C   0  0  0  0  0  0
  -21.9180   -4.6974   22.3435 C   0  0  0  0  0  0
  -22.7835  -13.5211   21.1865 C   0  0  0  0  0  0
  -22.1619   -4.2165   21.1002 F   0  0  0  0  0  0
  -21.5629   -3.4533   25.7761 F   0  0  0  0  0  0
  -30.0266  -13.2664   20.4360 N   0  0  0  0  0  0
  -26.3003  -12.9266   20.3352 N   0  0  0  0  0  0
  -25.9279  -11.6434   20.5755 N   0  0  0  0  0  0
  -22.0436  -12.8196   22.0386 N   0  0  0  0  0  0
  -25.4281  -15.1823   20.3981 N   0  0  0  0  0  0
  -31.8623  -14.5773   20.1405 O   0  0  0  0  0  0
  -21.6612   -6.8893   21.4268 O   0  0  0  0  0  0
  -22.3542  -14.5526   20.6721 O   0  0  0  0  0  0
  -24.6144  -31.8681   23.2101 C   0  0  0  0  0  0
  -25.9029  -32.4825   23.8411 C   0  0  1  0  0  0
  -27.2243  -27.4389   20.0934 C   0  0  0  0  0  0
  -25.5894  -33.8625   24.2336 N   0  0  0  0  0  0
  -23.3998  -30.4939   21.5499 C   0  0  2  0  0  0
  -24.8456  -28.9606   20.1117 C   0  0  0  0  0  0
  -22.7404  -29.4656   22.4964 C   0  0  0  0  0  0
  -18.0281  -28.1367   22.8520 C   0  0  0  0  0  0
  -24.1479  -36.7323   23.2638 C   0  0  0  0  0  0
  -25.9289  -30.8386   21.3565 C   0  0  0  0  0  0
  -26.0053  -29.4705   20.7080 C   0  0  0  0  0  0
  -27.2013  -28.7160   20.6994 C   0  0  0  0  0  0
  -26.0506  -26.9463   19.4865 C   0  0  0  0  0  0
  -24.8609  -27.6962   19.4989 C   0  0  0  0  0  0
  -23.6101  -29.8304   20.1612 C   0  0  0  0  0  0
  -25.4098  -36.3107   24.0343 C   0  0  1  0  0  0
  -20.5882  -28.3650   23.1332 C   0  0  2  0  0  0
  -20.6778  -26.9381   22.5423 C   0  0  0  0  0  0
  -19.5729  -26.6381   21.5229 C   0  0  0  0  0  0
  -18.1908  -26.7924   22.1640 C   0  0  0  0  0  0
  -19.1541  -28.8829   23.2929 C   0  0  0  0  0  0
  -18.9459  -30.1457   23.8908 C   0  0  0  0  0  0
  -17.6453  -30.6574   24.0582 C   0  0  0  0  0  0
  -25.9030  -34.9480   23.5138 C   0  0  0  0  0  0
  -16.5350  -29.9074   23.6327 C   0  0  0  0  0  0
  -16.7277  -28.6501   23.0340 C   0  0  0  0  0  0
  -26.4485  -31.6580   25.0706 C   0  0  0  0  0  0
  -25.3765  -31.3675   26.1456 C   0  0  0  0  0  0
  -27.0321  -30.3035   24.6043 C   0  0  0  0  0  0
  -27.6080  -32.4266   25.7463 C   0  0  0  0  0  0
  -27.5568  -37.1815   24.8471 C   0  0  0  0  0  0
  -21.4133  -29.3024   22.3730 N   0  0  0  0  0  0
  -26.4276  -37.3795   23.9414 N   0  0  0  0  0  0
  -24.6662  -31.0811   22.0982 N   0  0  0  0  0  0
  -23.4206  -28.8173   23.2960 O   0  0  0  0  0  0
  -28.3610  -26.6646   20.0988 O   0  0  0  0  0  0
  -26.5573  -34.8941   22.4687 O   0  0  0  0  0  0
  -23.5341  -32.1429   23.7509 O   0  0  0  0  0  0
  -28.1701  -17.7785   23.2662 C   0  0  0  0  0  0
  -28.1300  -20.0683   22.4214 C   0  0  0  0  0  0
  -29.0861  -18.2877   21.0660 C   0  0  0  0  0  0
  -27.8133  -19.1321   23.4269 C   0  0  0  0  0  0
  -28.7966  -17.3417   22.0797 C   0  0  0  0  0  0
  -28.7657  -19.6552   21.2298 C   0  0  0  0  0  0
  -28.3808  -24.1776   19.8960 C   0  0  0  0  0  0
  -27.0336  -19.5731   24.6500 C   0  0  0  0  0  0
  -29.0474  -15.8502   21.8853 C   0  0  0  0  0  0
  -29.0254  -20.6165   20.0685 C   0  0  0  0  0  0
  -28.1877  -25.4114   20.7914 C   0  0  0  0  0  0
  -28.1584  -22.8190   20.5831 C   0  0  0  0  0  0
  -30.0505  -15.5545   20.8686 N   0  0  0  0  0  0
  -28.6629  -24.2605   18.6944 O   0  0  0  0  0  0
  -29.3024  -21.9765   20.4089 O   0  0  0  0  0  0
  -31.4611  -12.3924   19.0974 H   0  0  0  0  0  0
  -30.3339  -11.2718   19.7876 H   0  0  0  0  0  0
  -29.7252  -11.7662   17.4180 H   0  0  0  0  0  0
  -29.6625  -13.4771   17.7536 H   0  0  0  0  0  0
  -27.8087  -11.3047   18.7876 H   0  0  0  0  0  0
  -27.3569  -12.6443   17.7767 H   0  0  0  0  0  0
  -27.7185  -14.2450   19.5951 H   0  0  0  0  0  0
  -28.6972  -11.8471   21.2278 H   0  0  0  0  0  0
  -28.4793  -13.3864   21.9307 H   0  0  0  0  0  0
  -25.2763   -9.5669   22.4801 H   0  0  0  0  0  0
  -24.0005   -7.4596   22.7458 H   0  0  0  0  0  0
  -21.0842   -8.8780   19.8931 H   0  0  0  0  0  0
  -22.3704  -10.9686   19.6183 H   0  0  0  0  0  0
  -21.2005   -7.6140   23.9788 H   0  0  0  0  0  0
  -21.1437   -6.0481   25.9113 H   0  0  0  0  0  0
  -22.0598   -2.7613   23.2849 H   0  0  0  0  0  0
  -22.3962  -11.9840   22.4800 H   0  0  0  0  0  0
  -21.1057  -13.1262   22.2536 H   0  0  0  0  0  0
  -24.6627  -15.8383   20.5076 H   0  0  0  0  0  0
  -26.2781  -15.6202   20.0637 H   0  0  0  0  0  0
  -26.7090  -32.5537   23.1175 H   0  0  0  0  0  0
  -25.0108  -33.9817   25.0523 H   0  0  0  0  0  0
  -22.6876  -31.3103   21.4110 H   0  0  0  0  0  0
  -23.3728  -35.9665   23.3315 H   0  0  0  0  0  0
  -24.3591  -36.8909   22.2048 H   0  0  0  0  0  0
  -23.7249  -37.6549   23.6633 H   0  0  0  0  0  0
  -26.0294  -31.5974   20.5801 H   0  0  0  0  0  0
  -26.8254  -30.9080   21.9598 H   0  0  0  0  0  0
  -28.0917  -29.1033   21.1745 H   0  0  0  0  0  0
  -26.0554  -25.9785   19.0075 H   0  0  0  0  0  0
  -23.9680  -27.2981   19.0322 H   0  0  0  0  0  0
  -23.7340  -30.6110   19.4103 H   0  0  0  0  0  0
  -22.7340  -29.2587   19.8513 H   0  0  0  0  0  0
  -25.1271  -36.1971   25.0836 H   0  0  0  0  0  0
  -21.0021  -28.3193   24.1439 H   0  0  0  0  0  0
  -20.5692  -26.2248   23.3619 H   0  0  0  0  0  0
  -21.6638  -26.7417   22.1184 H   0  0  0  0  0  0
  -19.6873  -25.6302   21.1215 H   0  0  0  0  0  0
  -19.6654  -27.3245   20.6797 H   0  0  0  0  0  0
  -17.4202  -26.6738   21.4019 H   0  0  0  0  0  0
  -18.0261  -26.0059   22.9022 H   0  0  0  0  0  0
  -19.7934  -30.7297   24.2243 H   0  0  0  0  0  0
  -17.4997  -31.6245   24.5185 H   0  0  0  0  0  0
  -15.5350  -30.2963   23.7643 H   0  0  0  0  0  0
  -15.8689  -28.0829   22.7000 H   0  0  0  0  0  0
  -24.5945  -30.7018   25.7780 H   0  0  0  0  0  0
  -24.8986  -32.2856   26.4884 H   0  0  0  0  0  0
  -25.8151  -30.8844   27.0203 H   0  0  0  0  0  0
  -26.2851  -29.6756   24.1176 H   0  0  0  0  0  0
  -27.4213  -29.7285   25.4457 H   0  0  0  0  0  0
  -27.8628  -30.4376   23.9108 H   0  0  0  0  0  0
  -27.2711  -33.3535   26.2110 H   0  0  0  0  0  0
  -28.3877  -32.6849   25.0283 H   0  0  0  0  0  0
  -28.0771  -31.8335   26.5324 H   0  0  0  0  0  0
  -28.2600  -38.0092   24.7511 H   0  0  0  0  0  0
  -28.1046  -36.2645   24.6293 H   0  0  0  0  0  0
  -27.2317  -37.1460   25.8878 H   0  0  0  0  0  0
  -20.9238  -29.8797   21.7036 H   0  0  0  0  0  0
  -26.0162  -38.2867   24.1425 H   0  0  0  0  0  0
  -27.9224  -17.0640   24.0419 H   0  0  0  0  0  0
  -27.8456  -21.0987   22.5639 H   0  0  0  0  0  0
  -29.5243  -17.9711   20.1295 H   0  0  0  0  0  0
  -26.2250  -18.8716   24.8550 H   0  0  0  0  0  0
  -26.5785  -20.5535   24.4966 H   0  0  0  0  0  0
  -27.6781  -19.6223   25.5281 H   0  0  0  0  0  0
  -28.0828  -15.4500   21.5791 H   0  0  0  0  0  0
  -29.3214  -15.3832   22.8332 H   0  0  0  0  0  0
  -28.2048  -20.5485   19.3546 H   0  0  0  0  0  0
  -29.9039  -20.2506   19.5375 H   0  0  0  0  0  0
  -28.9248  -25.3466   21.5909 H   0  0  0  0  0  0
  -27.2036  -25.3381   21.2562 H   0  0  0  0  0  0
  -27.2525  -22.3668   20.1800 H   0  0  0  0  0  0
  -27.9934  -22.9835   21.6473 H   0  0  0  0  0  0
  -30.5861  -16.3690   20.6158 H   0  0  0  0  0  0
  1 25  1  0  0  0
  1 30  2  0  0  0
  1 83  1  0  0  0
  2  3  1  0  0  0
  2 25  1  0  0  0
  2 86  1  0  0  0
  2 87  1  0  0  0
  3  4  1  0  0  0
  3 88  1  0  0  0
  3 89  1  0  0  0
  4  5  1  0  0  0
  4 90  1  0  0  0
  4 91  1  0  0  0
  5  6  1  0  0  0
  5 26  1  0  0  0
  5 92  1  0  0  0
  6 25  1  0  0  0
  6 93  1  0  0  0
  6 94  1  0  0  0
  7  8  2  0  0  0
  7 26  1  0  0  0
  7 29  1  0  0  0
  8  9  1  0  0  0
  8 22  1  0  0  0
  9 10  1  0  0  0
  9 27  2  0  0  0
 10 11  2  0  0  0
 10 15  1  0  0  0
 11 12  1  0  0  0
 11 95  1  0  0  0
 12 13  2  0  0  0
 12 96  1  0  0  0
 13 14  1  0  0  0
 13 31  1  0  0  0
 14 15  2  0  0  0
 14 97  1  0  0  0
 15 98  1  0  0  0
 16 17  2  0  0  0
 16 21  1  0  0  0
 16 31  1  0  0  0
 17 18  1  0  0  0
 17 99  1  0  0  0
 18 19  2  0  0  0
 18100  1  0  0  0
 19 20  1  0  0  0
 19 24  1  0  0  0
 20 21  2  0  0  0
 20101  1  0  0  0
 21 23  1  0  0  0
 22 28  1  0  0  0
 22 32  2  0  0  0
 26 27  1  0  0  0
 28102  1  0  0  0
 28103  1  0  0  0
 29104  1  0  0  0
 29105  1  0  0  0
 33 34  1  0  0  0
 33 66  1  0  0  0
 33 70  2  0  0  0
 34 36  1  0  0  0
 34 59  1  0  0  0
 34106  1  0  0  0
 35 44  2  0  0  0
 35 45  1  0  0  0
 35 68  1  0  0  0
 36 56  1  0  0  0
 36107  1  0  0  0
 37 39  1  0  0  0
 37 47  1  0  0  0
 37 66  1  0  0  0
 37108  1  0  0  0
 38 43  2  0  0  0
 38 46  1  0  0  0
 38 47  1  0  0  0
 39 64  1  0  0  0
 39 67  2  0  0  0
 40 52  1  0  0  0
 40 53  2  0  0  0
 40 58  1  0  0  0
 41109  1  0  0  0
 41110  1  0  0  0
 41111  1  0  0  0
 41 48  1  0  0  0
 42 43  1  0  0  0
 42 66  1  0  0  0
 42112  1  0  0  0
 42113  1  0  0  0
 43 44  1  0  0  0
 44114  1  0  0  0
 45 46  2  0  0  0
 45115  1  0  0  0
 46116  1  0  0  0
 47117  1  0  0  0
 47118  1  0  0  0
 48 56  1  0  0  0
 48 65  1  0  0  0
 48119  1  0  0  0
 49 50  1  0  0  0
 49 53  1  0  0  0
 49 64  1  0  0  0
 49120  1  0  0  0
 50 51  1  0  0  0
 50121  1  0  0  0
 50122  1  0  0  0
 51 52  1  0  0  0
 51123  1  0  0  0
 51124  1  0  0  0
 52125  1  0  0  0
 52126  1  0  0  0
 53 54  1  0  0  0
 54 55  2  0  0  0
 54127  1  0  0  0
 55 57  1  0  0  0
 55128  1  0  0  0
 56 69  2  0  0  0
 57 58  2  0  0  0
 57129  1  0  0  0
 58130  1  0  0  0
 59 60  1  0  0  0
 59 61  1  0  0  0
 59 62  1  0  0  0
 60131  1  0  0  0
 60132  1  0  0  0
 60133  1  0  0  0
 61134  1  0  0  0
 61135  1  0  0  0
 61136  1  0  0  0
 62137  1  0  0  0
 62138  1  0  0  0
 62139  1  0  0  0
 63 65  1  0  0  0
 63140  1  0  0  0
 63141  1  0  0  0
 63142  1  0  0  0
 64143  1  0  0  0
 65144  1  0  0  0
 68 81  1  0  0  0
 71 74  2  0  0  0
 71 75  1  0  0  0
 71145  1  0  0  0
 72 74  1  0  0  0
 72 76  2  0  0  0
 72146  1  0  0  0
 73 75  2  0  0  0
 73 76  1  0  0  0
 73147  1  0  0  0
 74 78  1  0  0  0
 75 79  1  0  0  0
 76 80  1  0  0  0
 77 81  1  0  0  0
 77 82  1  0  0  0
 77 84  2  0  0  0
 78148  1  0  0  0
 78149  1  0  0  0
 78150  1  0  0  0
 79 83  1  0  0  0
 79151  1  0  0  0
 79152  1  0  0  0
 80 85  1  0  0  0
 80153  1  0  0  0
 80154  1  0  0  0
 81155  1  0  0  0
 81156  1  0  0  0
 82 85  1  0  0  0
 82157  1  0  0  0
 82158  1  0  0  0
 83159  1  0  0  0
M  ISO  4   1 100  68 101  81 101  83 100
M  END
> <chiral flag>
0

> <version>
0

> <s_m_source_file>
/data/baiqing/PycharmProjects/Reinvent-master-3.2/result/LINK_invent/BTK/process_docking_weight1_custom_product_contain_oxygen_bond_distance_aromatic_linkinvent_7_9_3/rearranged_h_0134.sdf

> <i_m_source_file_index>
66

> <r_mmod_Potential_Energy-OPLS-2005>
18.3532962799072

> <r_mmod_Stretch_Energy-OPLS-2005>
36.1756629943848

> <r_mmod_Bend_Energy-OPLS-2005>
117.644302368164

> <r_mmod_Torsional_Energy-OPLS-2005>
283.900360107422

> <r_mmod_Improper_Torsional_Energy-OPLS-2005>
12.8058290481567

> <r_mmod_Van_der_Waal_Energy-OPLS-2005>
151.030120849609

> <r_mmod_Electrostatic_Energy-OPLS-2005>
-365.934631347656

> <r_mmod_Solvation_Energy-OPLS-2005>
-230.385513305664

> <b_mmod_Minimization_Converged-OPLS-2005>
0

> <r_mmod_RMS_Derivative-OPLS-2005>
4.17663478851318

$$$$
66
                    3D
 Structure written by MMmdl.
166174  0  0  1  0            999 V2000
  -30.6829  -14.7107   20.3853 C   0  0  0  0  0  0
  -30.4357  -12.4215   19.4626 C   0  0  0  0  0  0
  -29.5163  -12.4803   18.2250 C   0  0  0  0  0  0
  -28.0427  -12.2909   18.6456 C   0  0  0  0  0  0
  -27.6386  -13.1788   19.8530 C   0  0  2  0  0  0
  -28.7062  -13.2100   20.9727 C   0  0  0  0  0  0
  -25.2618  -13.8065   20.5781 C   0  0  0  0  0  0
  -24.1857  -13.0498   20.9297 C   0  0  0  0  0  0
  -24.6354  -11.6900   20.8878 C   0  0  0  0  0  0
  -23.8982  -10.4387   21.0531 C   0  0  0  0  0  0
  -24.3614   -9.4308   21.9244 C   0  0  0  0  0  0
  -23.6355   -8.2308   22.0780 C   0  0  0  0  0  0
  -22.4324   -8.0325   21.3567 C   0  0  0  0  0  0
  -21.9944   -9.0295   20.4650 C   0  0  0  0  0  0
  -22.7201  -10.2217   20.3118 C   0  0  0  0  0  0
  -21.6867   -6.0754   22.5282 C   0  0  0  0  0  0
  -21.3913   -6.5630   23.8204 C   0  0  0  0  0  0
  -21.3718   -5.6804   24.9195 C   0  0  0  0  0  0
  -21.6133   -4.3074   24.7254 C   0  0  0  0  0  0
  -21.8804   -3.8146   23.4364 C   0  0  0  0  0  0
  -21.9215   -4.6973   22.3418 C   0  0  0  0  0  0
  -22.7890  -13.5334   21.2043 C   0  0  0  0  0  0
  -22.1689   -4.2147   21.1005 F   0  0  0  0  0  0
  -21.5763   -3.4576   25.7789 F   0  0  0  0  0  0
  -30.0059  -13.5085   20.3622 N   0  0  0  0  0  0
  -26.2957  -12.9103   20.3412 N   0  0  0  0  0  0
  -25.9278  -11.6340   20.5914 N   0  0  0  0  0  0
  -22.0461  -12.8270   22.0459 N   0  0  0  0  0  0
  -25.4602  -15.1771   20.4061 N   0  0  0  0  0  0
  -31.9112  -14.7046   20.3064 O   0  0  0  0  0  0
  -21.6691   -6.8912   21.4247 O   0  0  0  0  0  0
  -22.3628  -14.5758   20.7020 O   0  0  0  0  0  0
  -24.6288  -31.8601   23.1922 C   0  0  0  0  0  0
  -25.9122  -32.4780   23.8315 C   0  0  1  0  0  0
  -27.2918  -27.3714   20.0928 C   0  0  0  0  0  0
  -25.5859  -33.8566   24.2234 N   0  0  0  0  0  0
  -23.4251  -30.4600   21.5513 C   0  0  2  0  0  0
  -24.8836  -28.9071   20.1256 C   0  0  0  0  0  0
  -22.7419  -29.4643   22.5203 C   0  0  0  0  0  0
  -18.0253  -28.1362   22.8603 C   0  0  0  0  0  0
  -24.1496  -36.7215   23.2637 C   0  0  0  0  0  0
  -25.9605  -30.8034   21.3568 C   0  0  0  0  0  0
  -26.0475  -29.4305   20.7028 C   0  0  0  0  0  0
  -27.2462  -28.6699   20.6657 C   0  0  0  0  0  0
  -26.1123  -26.8916   19.4795 C   0  0  0  0  0  0
  -24.9174  -27.6467   19.5064 C   0  0  0  0  0  0
  -23.6265  -29.7457   20.1871 C   0  0  0  0  0  0
  -25.4139  -36.3033   24.0316 C   0  0  1  0  0  0
  -20.5867  -28.3538   23.1279 C   0  0  2  0  0  0
  -20.6714  -26.9279   22.5431 C   0  0  0  0  0  0
  -19.5632  -26.6133   21.5305 C   0  0  0  0  0  0
  -18.1814  -26.7864   22.1738 C   0  0  0  0  0  0
  -19.1569  -28.8801   23.2873 C   0  0  0  0  0  0
  -18.9644  -30.1472   23.8769 C   0  0  0  0  0  0
  -17.6684  -30.6710   24.0416 C   0  0  0  0  0  0
  -25.9084  -34.9426   23.5094 C   0  0  0  0  0  0
  -16.5477  -29.9164   23.6492 C   0  0  0  0  0  0
  -16.7297  -28.6484   23.0699 C   0  0  0  0  0  0
  -26.4482  -31.6576   25.0693 C   0  0  0  0  0  0
  -25.3578  -31.3754   26.1304 C   0  0  0  0  0  0
  -27.0325  -30.2988   24.6144 C   0  0  0  0  0  0
  -27.6056  -32.4376   25.7381 C   0  0  0  0  0  0
  -27.5573  -37.1760   24.8459 C   0  0  0  0  0  0
  -21.4193  -29.2881   22.3744 N   0  0  0  0  0  0
  -26.4312  -37.3750   23.9377 N   0  0  0  0  0  0
  -24.6912  -31.0570   22.0893 N   0  0  0  0  0  0
  -23.4061  -28.8359   23.3470 O   0  0  0  0  0  0
  -28.4681  -26.6287   20.2310 O   0  0  0  0  0  0
  -26.5760  -34.8900   22.4718 O   0  0  0  0  0  0
  -23.5456  -32.1455   23.7216 O   0  0  0  0  0  0
  -32.2172  -19.0705   20.5599 C   0  0  0  0  0  0
  -31.7159  -17.7728   20.3786 C   0  0  0  0  0  0
  -31.3569  -20.1742   20.6777 C   0  0  0  0  0  0
  -30.3291  -17.4978   20.3155 C   0  0  0  0  0  0
  -29.9601  -20.0337   20.5657 C   0  0  0  0  0  0
  -29.4468  -18.6691   20.4410 C   0  0  0  0  0  0
  -29.9109  -16.0417   19.9220 C   0  0  0  0  0  0
  -27.3455  -18.6694   21.9183 C   0  0  0  0  0  0
  -27.4781  -24.0155   21.2118 C   0  0  0  0  0  0
  -27.4621  -23.4849   18.7205 C   0  0  0  0  0  0
  -29.0655  -21.3467   20.6684 C   0  0  0  0  0  0
  -27.9162  -18.4896   20.5048 C   0  0  0  0  0  0
  -29.5012  -22.7901   20.0894 C   0  0  0  0  0  0
  -28.8070  -25.4234   19.4794 C   0  0  0  0  0  0
  -28.3438  -23.9356   19.9140 C   0  0  0  0  0  0
  -29.0284  -15.9402   19.0224 N   0  0  0  0  0  0
  -31.4859  -12.5176   19.1781 H   0  0  0  0  0  0
  -30.3410  -11.4561   19.9643 H   0  0  0  0  0  0
  -29.8137  -11.7244   17.4955 H   0  0  0  0  0  0
  -29.6357  -13.4380   17.7171 H   0  0  0  0  0  0
  -27.8890  -11.2384   18.8894 H   0  0  0  0  0  0
  -27.3898  -12.5082   17.8012 H   0  0  0  0  0  0
  -27.5621  -14.1640   19.4354 H   0  0  0  0  0  0
  -28.7473  -12.2724   21.5288 H   0  0  0  0  0  0
  -28.4751  -13.9856   21.7021 H   0  0  0  0  0  0
  -25.2792   -9.5871   22.4756 H   0  0  0  0  0  0
  -24.0172   -7.4722   22.7455 H   0  0  0  0  0  0
  -21.0937   -8.8800   19.8875 H   0  0  0  0  0  0
  -22.3691  -10.9801   19.6245 H   0  0  0  0  0  0
  -21.1633   -7.6086   23.9672 H   0  0  0  0  0  0
  -21.1658   -6.0545   25.9121 H   0  0  0  0  0  0
  -22.0501   -2.7592   23.2891 H   0  0  0  0  0  0
  -22.4021  -11.9805   22.4678 H   0  0  0  0  0  0
  -21.1089  -13.1285   22.2762 H   0  0  0  0  0  0
  -24.7336  -15.8763   20.5084 H   0  0  0  0  0  0
  -26.3366  -15.5443   20.0588 H   0  0  0  0  0  0
  -26.7249  -32.5520   23.1141 H   0  0  0  0  0  0
  -24.9651  -33.9718   25.0118 H   0  0  0  0  0  0
  -22.7233  -31.2778   21.3794 H   0  0  0  0  0  0
  -23.3793  -35.9513   23.3330 H   0  0  0  0  0  0
  -24.3522  -36.8847   22.2036 H   0  0  0  0  0  0
  -23.7288  -37.6410   23.6719 H   0  0  0  0  0  0
  -26.0756  -31.5619   20.5859 H   0  0  0  0  0  0
  -26.8472  -30.8663   21.9784 H   0  0  0  0  0  0
  -28.1641  -29.0582   21.0848 H   0  0  0  0  0  0
  -26.0956  -25.9221   19.0103 H   0  0  0  0  0  0
  -24.0168  -27.2480   19.0618 H   0  0  0  0  0  0
  -23.6789  -30.4687   19.3711 H   0  0  0  0  0  0
  -22.7695  -29.1005   19.9758 H   0  0  0  0  0  0
  -25.1361  -36.1844   25.0838 H   0  0  0  0  0  0
  -20.9944  -28.3003   24.1421 H   0  0  0  0  0  0
  -20.5380  -26.2257   23.3683 H   0  0  0  0  0  0
  -21.6658  -26.7132   22.1453 H   0  0  0  0  0  0
  -19.6718  -25.5888   21.1740 H   0  0  0  0  0  0
  -19.6592  -27.2589   20.6535 H   0  0  0  0  0  0
  -17.3898  -26.6579   21.4322 H   0  0  0  0  0  0
  -18.0237  -26.0016   22.9168 H   0  0  0  0  0  0
  -19.8215  -30.7249   24.2071 H   0  0  0  0  0  0
  -17.5378  -31.6471   24.4851 H   0  0  0  0  0  0
  -15.5524  -30.3065   23.8014 H   0  0  0  0  0  0
  -15.8607  -28.0645   22.7895 H   0  0  0  0  0  0
  -24.5790  -30.7147   25.7471 H   0  0  0  0  0  0
  -24.8699  -32.2951   26.4544 H   0  0  0  0  0  0
  -25.7627  -30.8931   27.0193 H   0  0  0  0  0  0
  -26.2917  -29.6778   24.1116 H   0  0  0  0  0  0
  -27.3977  -29.7182   25.4619 H   0  0  0  0  0  0
  -27.8769  -30.4258   23.9375 H   0  0  0  0  0  0
  -27.2711  -33.3760   26.1805 H   0  0  0  0  0  0
  -28.3806  -32.6869   25.0118 H   0  0  0  0  0  0
  -28.0824  -31.8655   26.5354 H   0  0  0  0  0  0
  -28.2622  -38.0023   24.7509 H   0  0  0  0  0  0
  -28.1062  -36.2565   24.6341 H   0  0  0  0  0  0
  -27.2245  -37.1431   25.8849 H   0  0  0  0  0  0
  -20.9394  -29.8352   21.6708 H   0  0  0  0  0  0
  -26.0152  -38.2801   24.1423 H   0  0  0  0  0  0
  -33.2865  -19.2253   20.5730 H   0  0  0  0  0  0
  -32.4442  -16.9892   20.2370 H   0  0  0  0  0  0
  -31.8041  -21.1388   20.8531 H   0  0  0  0  0  0
  -26.2709  -18.4708   21.9335 H   0  0  0  0  0  0
  -27.4909  -19.6774   22.3111 H   0  0  0  0  0  0
  -27.8109  -17.9634   22.6048 H   0  0  0  0  0  0
  -28.0108  -24.4678   22.0503 H   0  0  0  0  0  0
  -27.1613  -23.0382   21.5743 H   0  0  0  0  0  0
  -26.5681  -24.6098   21.0816 H   0  0  0  0  0  0
  -26.4186  -23.7937   18.8264 H   0  0  0  0  0  0
  -27.4959  -22.4156   18.5465 H   0  0  0  0  0  0
  -27.8179  -23.8954   17.7733 H   0  0  0  0  0  0
  -28.8700  -21.5004   21.7309 H   0  0  0  0  0  0
  -28.0997  -21.1210   20.2336 H   0  0  0  0  0  0
  -27.5946  -17.5076   20.1804 H   0  0  0  0  0  0
  -27.4099  -19.1593   19.8109 H   0  0  0  0  0  0
  -29.9688  -22.6134   19.1184 H   0  0  0  0  0  0
  -30.3211  -23.1738   20.6959 H   0  0  0  0  0  0
  -28.5380  -25.6932   18.4558 H   0  0  0  0  0  0
  -29.8951  -25.4156   19.4191 H   0  0  0  0  0  0
  -28.6867  -16.8386   18.7056 H   0  0  0  0  0  0
  1 25  1  0  0  0
  1 30  2  0  0  0
  1 77  1  0  0  0
  2  3  1  0  0  0
  2 25  1  0  0  0
  2 87  1  0  0  0
  2 88  1  0  0  0
  3  4  1  0  0  0
  3 89  1  0  0  0
  3 90  1  0  0  0
  4  5  1  0  0  0
  4 91  1  0  0  0
  4 92  1  0  0  0
  5  6  1  0  0  0
  5 26  1  0  0  0
  5 93  1  0  0  0
  6 25  1  0  0  0
  6 94  1  0  0  0
  6 95  1  0  0  0
  7  8  2  0  0  0
  7 26  1  0  0  0
  7 29  1  0  0  0
  8  9  1  0  0  0
  8 22  1  0  0  0
  9 10  1  0  0  0
  9 27  2  0  0  0
 10 11  2  0  0  0
 10 15  1  0  0  0
 11 12  1  0  0  0
 11 96  1  0  0  0
 12 13  2  0  0  0
 12 97  1  0  0  0
 13 14  1  0  0  0
 13 31  1  0  0  0
 14 15  2  0  0  0
 14 98  1  0  0  0
 15 99  1  0  0  0
 16 17  2  0  0  0
 16 21  1  0  0  0
 16 31  1  0  0  0
 17 18  1  0  0  0
 17100  1  0  0  0
 18 19  2  0  0  0
 18101  1  0  0  0
 19 20  1  0  0  0
 19 24  1  0  0  0
 20 21  2  0  0  0
 20102  1  0  0  0
 21 23  1  0  0  0
 22 28  1  0  0  0
 22 32  2  0  0  0
 26 27  1  0  0  0
 28103  1  0  0  0
 28104  1  0  0  0
 29105  1  0  0  0
 29106  1  0  0  0
 33 34  1  0  0  0
 33 66  1  0  0  0
 33 70  2  0  0  0
 34 36  1  0  0  0
 34 59  1  0  0  0
 34107  1  0  0  0
 35 44  2  0  0  0
 35 45  1  0  0  0
 35 68  1  0  0  0
 36 56  1  0  0  0
 36108  1  0  0  0
 37 39  1  0  0  0
 37 47  1  0  0  0
 37 66  1  0  0  0
 37109  1  0  0  0
 38 43  2  0  0  0
 38 46  1  0  0  0
 38 47  1  0  0  0
 39 64  1  0  0  0
 39 67  2  0  0  0
 40 52  1  0  0  0
 40 53  2  0  0  0
 40 58  1  0  0  0
 41110  1  0  0  0
 41111  1  0  0  0
 41112  1  0  0  0
 41 48  1  0  0  0
 42 43  1  0  0  0
 42 66  1  0  0  0
 42113  1  0  0  0
 42114  1  0  0  0
 43 44  1  0  0  0
 44115  1  0  0  0
 45 46  2  0  0  0
 45116  1  0  0  0
 46117  1  0  0  0
 47118  1  0  0  0
 47119  1  0  0  0
 48 56  1  0  0  0
 48 65  1  0  0  0
 48120  1  0  0  0
 49 50  1  0  0  0
 49 53  1  0  0  0
 49 64  1  0  0  0
 49121  1  0  0  0
 50 51  1  0  0  0
 50122  1  0  0  0
 50123  1  0  0  0
 51 52  1  0  0  0
 51124  1  0  0  0
 51125  1  0  0  0
 52126  1  0  0  0
 52127  1  0  0  0
 53 54  1  0  0  0
 54 55  2  0  0  0
 54128  1  0  0  0
 55 57  1  0  0  0
 55129  1  0  0  0
 56 69  2  0  0  0
 57 58  2  0  0  0
 57130  1  0  0  0
 58131  1  0  0  0
 59 60  1  0  0  0
 59 61  1  0  0  0
 59 62  1  0  0  0
 60132  1  0  0  0
 60133  1  0  0  0
 60134  1  0  0  0
 61135  1  0  0  0
 61136  1  0  0  0
 61137  1  0  0  0
 62138  1  0  0  0
 62139  1  0  0  0
 62140  1  0  0  0
 63 65  1  0  0  0
 63141  1  0  0  0
 63142  1  0  0  0
 63143  1  0  0  0
 64144  1  0  0  0
 65145  1  0  0  0
 68 84  1  0  0  0
 71 72  2  0  0  0
 71 73  1  0  0  0
 71146  1  0  0  0
 72 74  1  0  0  0
 72147  1  0  0  0
 73 75  2  0  0  0
 73148  1  0  0  0
 74 76  2  0  0  0
 74 77  1  0  0  0
 75 76  1  0  0  0
 75 81  1  0  0  0
 76 82  1  0  0  0
 77 86  2  0  0  0
 78 82  1  0  0  0
 78149  1  0  0  0
 78150  1  0  0  0
 78151  1  0  0  0
 79152  1  0  0  0
 79153  1  0  0  0
 79154  1  0  0  0
 79 85  1  0  0  0
 80 85  1  0  0  0
 80155  1  0  0  0
 80156  1  0  0  0
 80157  1  0  0  0
 81 83  1  0  0  0
 81158  1  0  0  0
 81159  1  0  0  0
 82160  1  0  0  0
 82161  1  0  0  0
 83 85  1  0  0  0
 83162  1  0  0  0
 83163  1  0  0  0
 84 85  1  0  0  0
 84164  1  0  0  0
 84165  1  0  0  0
 86166  1  0  0  0
M  ISO  4   1 100  68 101  77 100  84 101
M  END
> <chiral flag>
0

> <version>
0

> <s_m_source_file>
/data/baiqing/PycharmProjects/Reinvent-master-3.2/result/LINK_invent/BTK/process_docking_weight1_custom_product_contain_oxygen_bond_distance_aromatic_linkinvent_7_9_3/rearranged_h_0134.sdf

> <i_m_source_file_index>
67

> <r_mmod_Potential_Energy-OPLS-2005>
447.427734375

> <r_mmod_Stretch_Energy-OPLS-2005>
131.038269042969

> <r_mmod_Bend_Energy-OPLS-2005>
204.590316772461

> <r_mmod_Torsional_Energy-OPLS-2005>
262.885833740234

> <r_mmod_Improper_Torsional_Energy-OPLS-2005>
20.9736461639404

> <r_mmod_Van_der_Waal_Energy-OPLS-2005>
160.996673583984

> <r_mmod_Electrostatic_Energy-OPLS-2005>
-230.362701416016

> <r_mmod_Solvation_Energy-OPLS-2005>
-175.767990112305

> <b_mmod_Minimization_Converged-OPLS-2005>
0

> <r_mmod_RMS_Derivative-OPLS-2005>
11.9710664749146

$$$$
67
                    3D
 Structure written by MMmdl.
163172  0  0  1  0            999 V2000
  -30.7451  -14.4947   20.6041 C   0  0  0  0  0  0
  -30.4335  -12.3487   19.4153 C   0  0  0  0  0  0
  -29.4948  -12.5215   18.2049 C   0  0  0  0  0  0
  -28.0231  -12.3587   18.6270 C   0  0  0  0  0  0
  -27.6636  -13.2136   19.8713 C   0  0  2  0  0  0
  -28.7117  -13.0401   20.9938 C   0  0  0  0  0  0
  -25.2600  -13.8166   20.5696 C   0  0  0  0  0  0
  -24.1863  -13.0443   20.9163 C   0  0  0  0  0  0
  -24.6425  -11.6903   20.8740 C   0  0  0  0  0  0
  -23.9098  -10.4299   21.0401 C   0  0  0  0  0  0
  -24.3641   -9.4221   21.9196 C   0  0  0  0  0  0
  -23.6312   -8.2263   22.0774 C   0  0  0  0  0  0
  -22.4299   -8.0298   21.3549 C   0  0  0  0  0  0
  -21.9932   -9.0275   20.4648 C   0  0  0  0  0  0
  -22.7267  -10.2150   20.3053 C   0  0  0  0  0  0
  -21.6853   -6.0753   22.5288 C   0  0  0  0  0  0
  -21.4012   -6.5644   23.8223 C   0  0  0  0  0  0
  -21.3660   -5.6794   24.9178 C   0  0  0  0  0  0
  -21.6032   -4.3057   24.7221 C   0  0  0  0  0  0
  -21.8832   -3.8149   23.4342 C   0  0  0  0  0  0
  -21.9203   -4.6977   22.3394 C   0  0  0  0  0  0
  -22.7877  -13.5220   21.1819 C   0  0  0  0  0  0
  -22.1668   -4.2161   21.0975 F   0  0  0  0  0  0
  -21.5627   -3.4534   25.7731 F   0  0  0  0  0  0
  -30.0400  -13.3419   20.4316 N   0  0  0  0  0  0
  -26.3063  -12.9362   20.3389 N   0  0  0  0  0  0
  -25.9369  -11.6513   20.5795 N   0  0  0  0  0  0
  -22.0529  -12.8236   22.0373 N   0  0  0  0  0  0
  -25.4295  -15.1909   20.4143 N   0  0  0  0  0  0
  -31.8773  -14.6502   20.1440 O   0  0  0  0  0  0
  -21.6649   -6.8906   21.4252 O   0  0  0  0  0  0
  -22.3579  -14.5561   20.6699 O   0  0  0  0  0  0
  -24.6194  -31.8648   23.2077 C   0  0  0  0  0  0
  -25.9098  -32.4782   23.8385 C   0  0  1  0  0  0
  -27.2458  -27.3805   20.1573 C   0  0  0  0  0  0
  -25.5957  -33.8573   24.2313 N   0  0  0  0  0  0
  -23.4126  -30.4836   21.5436 C   0  0  2  0  0  0
  -24.8699  -28.9422   20.1141 C   0  0  0  0  0  0
  -22.7478  -29.4630   22.4966 C   0  0  0  0  0  0
  -18.0310  -28.1377   22.8449 C   0  0  0  0  0  0
  -24.1489  -36.7269   23.2657 C   0  0  0  0  0  0
  -25.9507  -30.8089   21.3826 C   0  0  0  0  0  0
  -26.0282  -29.4462   20.7171 C   0  0  0  0  0  0
  -27.2225  -28.6814   20.7205 C   0  0  0  0  0  0
  -26.0651  -26.8997   19.5420 C   0  0  0  0  0  0
  -24.8849  -27.6683   19.5149 C   0  0  0  0  0  0
  -23.6309  -29.8090   20.1626 C   0  0  0  0  0  0
  -25.4114  -36.3059   24.0344 C   0  0  1  0  0  0
  -20.5884  -28.3662   23.1267 C   0  0  2  0  0  0
  -20.6783  -26.9389   22.5383 C   0  0  0  0  0  0
  -19.5778  -26.6353   21.5178 C   0  0  0  0  0  0
  -18.1954  -26.7932   22.1572 C   0  0  0  0  0  0
  -19.1557  -28.8845   23.2821 C   0  0  0  0  0  0
  -18.9473  -30.1447   23.8830 C   0  0  0  0  0  0
  -17.6474  -30.6555   24.0575 C   0  0  0  0  0  0
  -25.9058  -34.9442   23.5118 C   0  0  0  0  0  0
  -16.5365  -29.9029   23.6392 C   0  0  0  0  0  0
  -16.7298  -28.6470   23.0371 C   0  0  0  0  0  0
  -26.4551  -31.6623   25.0759 C   0  0  0  0  0  0
  -25.3779  -31.3668   26.1489 C   0  0  0  0  0  0
  -27.0590  -30.3104   24.6282 C   0  0  0  0  0  0
  -27.6120  -32.4446   25.7456 C   0  0  0  0  0  0
  -27.5593  -37.1734   24.8473 C   0  0  0  0  0  0
  -21.4211  -29.3003   22.3658 N   0  0  0  0  0  0
  -26.4302  -37.3734   23.9424 N   0  0  0  0  0  0
  -24.6760  -31.0702   22.1007 N   0  0  0  0  0  0
  -23.4222  -28.8189   23.3062 O   0  0  0  0  0  0
  -28.3971  -26.6052   20.2453 O   0  0  0  0  0  0
  -26.5589  -34.8918   22.4661 O   0  0  0  0  0  0
  -23.5373  -32.1456   23.7410 O   0  0  0  0  0  0
  -31.7014  -19.1147   18.8986 C   0  0  0  0  0  0
  -31.3843  -17.9546   19.6540 C   0  0  0  0  0  0
  -30.2688  -19.2643   21.4659 C   0  0  0  0  0  0
  -31.2649  -20.3149   19.4615 C   0  0  0  0  0  0
  -30.5223  -20.4082   20.6775 C   0  0  0  0  0  0
  -30.7269  -18.0091   20.9275 C   0  0  0  0  0  0
  -31.4721  -21.8001   19.3591 C   0  0  0  0  0  0
  -30.6373  -21.9445   20.7280 C   0  0  1  0  0  0
  -29.6706  -24.6013   22.4275 C   0  0  0  0  0  0
  -30.7384  -24.9197   20.1739 C   0  0  0  0  0  0
  -30.7126  -16.7326   21.7959 C   0  0  0  0  0  0
  -29.3367  -22.8057   20.6893 C   0  0  0  0  0  0
  -28.2328  -25.1661   20.3986 C   0  0  0  0  0  0
  -29.4971  -24.3702   20.9094 C   0  0  0  0  0  0
  -30.1127  -15.5008   21.2434 N   0  0  0  0  0  0
  -31.4702  -12.4665   19.0922 H   0  0  0  0  0  0
  -30.3622  -11.3409   19.8267 H   0  0  0  0  0  0
  -29.7430  -11.8020   17.4234 H   0  0  0  0  0  0
  -29.6398  -13.5122   17.7683 H   0  0  0  0  0  0
  -27.8538  -11.3030   18.8421 H   0  0  0  0  0  0
  -27.3638  -12.6104   17.7965 H   0  0  0  0  0  0
  -27.6962  -14.2545   19.5513 H   0  0  0  0  0  0
  -28.7026  -12.0219   21.3822 H   0  0  0  0  0  0
  -28.4662  -13.6773   21.8449 H   0  0  0  0  0  0
  -25.2793   -9.5690   22.4769 H   0  0  0  0  0  0
  -24.0011   -7.4661   22.7504 H   0  0  0  0  0  0
  -21.0870   -8.8809   19.8944 H   0  0  0  0  0  0
  -22.3753  -10.9702   19.6156 H   0  0  0  0  0  0
  -21.2012   -7.6163   23.9729 H   0  0  0  0  0  0
  -21.1451   -6.0517   25.9085 H   0  0  0  0  0  0
  -22.0611   -2.7614   23.2837 H   0  0  0  0  0  0
  -22.4130  -11.9854   22.4715 H   0  0  0  0  0  0
  -21.1167  -13.1291   22.2616 H   0  0  0  0  0  0
  -24.6570  -15.8404   20.5170 H   0  0  0  0  0  0
  -26.2907  -15.6419   20.1317 H   0  0  0  0  0  0
  -26.7171  -32.5471   23.1137 H   0  0  0  0  0  0
  -25.0216  -33.9699   25.0537 H   0  0  0  0  0  0
  -22.6949  -31.2939   21.3914 H   0  0  0  0  0  0
  -23.3768  -35.9592   23.3319 H   0  0  0  0  0  0
  -24.3551  -36.8895   22.2077 H   0  0  0  0  0  0
  -23.7243  -37.6458   23.6706 H   0  0  0  0  0  0
  -26.1143  -31.5874   20.6353 H   0  0  0  0  0  0
  -26.8167  -30.8261   22.0333 H   0  0  0  0  0  0
  -28.1109  -29.0652   21.2066 H   0  0  0  0  0  0
  -26.0299  -25.9145   19.1009 H   0  0  0  0  0  0
  -23.9946  -27.2619   19.0534 H   0  0  0  0  0  0
  -23.7340  -30.5773   19.3969 H   0  0  0  0  0  0
  -22.7560  -29.2241   19.8739 H   0  0  0  0  0  0
  -25.1262  -36.1922   25.0824 H   0  0  0  0  0  0
  -20.9980  -28.3280   24.1393 H   0  0  0  0  0  0
  -20.5701  -26.2279   23.3559 H   0  0  0  0  0  0
  -21.6648  -26.7452   22.1150 H   0  0  0  0  0  0
  -19.6946  -25.6247   21.1250 H   0  0  0  0  0  0
  -19.6768  -27.3128   20.6670 H   0  0  0  0  0  0
  -17.4232  -26.6739   21.3951 H   0  0  0  0  0  0
  -18.0301  -26.0056   22.8932 H   0  0  0  0  0  0
  -19.7957  -30.7267   24.2191 H   0  0  0  0  0  0
  -17.5052  -31.6258   24.5176 H   0  0  0  0  0  0
  -15.5360  -30.2896   23.7795 H   0  0  0  0  0  0
  -15.8705  -28.0772   22.7119 H   0  0  0  0  0  0
  -24.5876  -30.7167   25.7713 H   0  0  0  0  0  0
  -24.9058  -32.2806   26.5121 H   0  0  0  0  0  0
  -25.8088  -30.8611   27.0150 H   0  0  0  0  0  0
  -26.3250  -29.6542   24.1609 H   0  0  0  0  0  0
  -27.4685  -29.7652   25.4797 H   0  0  0  0  0  0
  -27.8905  -30.4450   23.9355 H   0  0  0  0  0  0
  -27.2770  -33.3769   26.2024 H   0  0  0  0  0  0
  -28.3887  -32.7021   25.0231 H   0  0  0  0  0  0
  -28.0940  -31.8654   26.5338 H   0  0  0  0  0  0
  -28.2569  -38.0075   24.7603 H   0  0  0  0  0  0
  -28.1143  -36.2602   24.6231 H   0  0  0  0  0  0
  -27.2313  -37.1303   25.8873 H   0  0  0  0  0  0
  -20.9435  -29.8671   21.6778 H   0  0  0  0  0  0
  -26.0208  -38.2814   24.1437 H   0  0  0  0  0  0
  -32.2960  -19.0752   17.9969 H   0  0  0  0  0  0
  -31.7494  -17.0079   19.2848 H   0  0  0  0  0  0
  -29.8508  -19.3431   22.4604 H   0  0  0  0  0  0
  -30.9887  -22.2209   18.4777 H   0  0  0  0  0  0
  -32.5220  -22.0816   19.4391 H   0  0  0  0  0  0
  -31.2901  -22.1861   21.5687 H   0  0  0  0  0  0
  -30.4626  -23.9739   22.8389 H   0  0  0  0  0  0
  -28.7603  -24.3464   22.9764 H   0  0  0  0  0  0
  -29.9178  -25.6390   22.6560 H   0  0  0  0  0  0
  -31.6660  -24.4547   20.5055 H   0  0  0  0  0  0
  -30.8547  -25.9917   20.3433 H   0  0  0  0  0  0
  -30.6561  -24.7804   19.0968 H   0  0  0  0  0  0
  -30.2161  -16.9474   22.7424 H   0  0  0  0  0  0
  -31.7489  -16.5217   22.0711 H   0  0  0  0  0  0
  -28.6383  -22.4261   21.4344 H   0  0  0  0  0  0
  -28.8429  -22.6338   19.7325 H   0  0  0  0  0  0
  -27.4011  -24.9642   21.0780 H   0  0  0  0  0  0
  -27.9390  -24.7667   19.4266 H   0  0  0  0  0  0
  -29.1633  -15.3086   21.5219 H   0  0  0  0  0  0
  1 25  1  0  0  0
  1 30  2  0  0  0
  1 85  1  0  0  0
  2  3  1  0  0  0
  2 25  1  0  0  0
  2 86  1  0  0  0
  2 87  1  0  0  0
  3  4  1  0  0  0
  3 88  1  0  0  0
  3 89  1  0  0  0
  4  5  1  0  0  0
  4 90  1  0  0  0
  4 91  1  0  0  0
  5  6  1  0  0  0
  5 26  1  0  0  0
  5 92  1  0  0  0
  6 25  1  0  0  0
  6 93  1  0  0  0
  6 94  1  0  0  0
  7  8  2  0  0  0
  7 26  1  0  0  0
  7 29  1  0  0  0
  8  9  1  0  0  0
  8 22  1  0  0  0
  9 10  1  0  0  0
  9 27  2  0  0  0
 10 11  2  0  0  0
 10 15  1  0  0  0
 11 12  1  0  0  0
 11 95  1  0  0  0
 12 13  2  0  0  0
 12 96  1  0  0  0
 13 14  1  0  0  0
 13 31  1  0  0  0
 14 15  2  0  0  0
 14 97  1  0  0  0
 15 98  1  0  0  0
 16 17  2  0  0  0
 16 21  1  0  0  0
 16 31  1  0  0  0
 17 18  1  0  0  0
 17 99  1  0  0  0
 18 19  2  0  0  0
 18100  1  0  0  0
 19 20  1  0  0  0
 19 24  1  0  0  0
 20 21  2  0  0  0
 20101  1  0  0  0
 21 23  1  0  0  0
 22 28  1  0  0  0
 22 32  2  0  0  0
 26 27  1  0  0  0
 28102  1  0  0  0
 28103  1  0  0  0
 29104  1  0  0  0
 29105  1  0  0  0
 33 34  1  0  0  0
 33 66  1  0  0  0
 33 70  2  0  0  0
 34 36  1  0  0  0
 34 59  1  0  0  0
 34106  1  0  0  0
 35 44  2  0  0  0
 35 45  1  0  0  0
 35 68  1  0  0  0
 36 56  1  0  0  0
 36107  1  0  0  0
 37 39  1  0  0  0
 37 47  1  0  0  0
 37 66  1  0  0  0
 37108  1  0  0  0
 38 43  2  0  0  0
 38 46  1  0  0  0
 38 47  1  0  0  0
 39 64  1  0  0  0
 39 67  2  0  0  0
 40 52  1  0  0  0
 40 53  2  0  0  0
 40 58  1  0  0  0
 41109  1  0  0  0
 41110  1  0  0  0
 41111  1  0  0  0
 41 48  1  0  0  0
 42 43  1  0  0  0
 42 66  1  0  0  0
 42112  1  0  0  0
 42113  1  0  0  0
 43 44  1  0  0  0
 44114  1  0  0  0
 45 46  2  0  0  0
 45115  1  0  0  0
 46116  1  0  0  0
 47117  1  0  0  0
 47118  1  0  0  0
 48 56  1  0  0  0
 48 65  1  0  0  0
 48119  1  0  0  0
 49 50  1  0  0  0
 49 53  1  0  0  0
 49 64  1  0  0  0
 49120  1  0  0  0
 50 51  1  0  0  0
 50121  1  0  0  0
 50122  1  0  0  0
 51 52  1  0  0  0
 51123  1  0  0  0
 51124  1  0  0  0
 52125  1  0  0  0
 52126  1  0  0  0
 53 54  1  0  0  0
 54 55  2  0  0  0
 54127  1  0  0  0
 55 57  1  0  0  0
 55128  1  0  0  0
 56 69  2  0  0  0
 57 58  2  0  0  0
 57129  1  0  0  0
 58130  1  0  0  0
 59 60  1  0  0  0
 59 61  1  0  0  0
 59 62  1  0  0  0
 60131  1  0  0  0
 60132  1  0  0  0
 60133  1  0  0  0
 61134  1  0  0  0
 61135  1  0  0  0
 61136  1  0  0  0
 62137  1  0  0  0
 62138  1  0  0  0
 62139  1  0  0  0
 63 65  1  0  0  0
 63140  1  0  0  0
 63141  1  0  0  0
 63142  1  0  0  0
 64143  1  0  0  0
 65144  1  0  0  0
 68 83  1  0  0  0
 71 72  2  0  0  0
 71 74  1  0  0  0
 71145  1  0  0  0
 72 76  1  0  0  0
 72146  1  0  0  0
 73 75  1  0  0  0
 73 76  2  0  0  0
 73147  1  0  0  0
 74 75  2  0  0  0
 74 77  1  0  0  0
 75 78  1  0  0  0
 76 81  1  0  0  0
 77 78  1  0  0  0
 77148  1  0  0  0
 77149  1  0  0  0
 78 82  1  0  0  0
 78150  1  0  0  0
 79151  1  0  0  0
 79152  1  0  0  0
 79153  1  0  0  0
 79 84  1  0  0  0
 80 84  1  0  0  0
 80154  1  0  0  0
 80155  1  0  0  0
 80156  1  0  0  0
 81 85  1  0  0  0
 81157  1  0  0  0
 81158  1  0  0  0
 82 84  1  0  0  0
 82159  1  0  0  0
 82160  1  0  0  0
 83 84  1  0  0  0
 83161  1  0  0  0
 83162  1  0  0  0
 85163  1  0  0  0
M  ISO  4   1 100  68 101  83 101  85 100
M  END
> <chiral flag>
0

> <version>
0

> <s_m_source_file>
/data/baiqing/PycharmProjects/Reinvent-master-3.2/result/LINK_invent/BTK/process_docking_weight1_custom_product_contain_oxygen_bond_distance_aromatic_linkinvent_7_9_3/rearranged_h_0134.sdf

> <i_m_source_file_index>
68

> <r_mmod_Potential_Energy-OPLS-2005>
335.069793701172

> <r_mmod_Stretch_Energy-OPLS-2005>
70.7839431762695

> <r_mmod_Bend_Energy-OPLS-2005>
467.505462646484

> <r_mmod_Torsional_Energy-OPLS-2005>
238.671340942383

> <r_mmod_Improper_Torsional_Energy-OPLS-2005>
8.76662158966064

> <r_mmod_Van_der_Waal_Energy-OPLS-2005>
144.850112915039

> <r_mmod_Electrostatic_Energy-OPLS-2005>
-418.851654052734

> <r_mmod_Solvation_Energy-OPLS-2005>
-202.127868652344

> <b_mmod_Minimization_Converged-OPLS-2005>
0

> <r_mmod_RMS_Derivative-OPLS-2005>
4.89883327484131

$$$$
68
                    3D
 Structure written by MMmdl.
164172  0  0  1  0            999 V2000
  -30.6875  -14.4330   20.6771 C   0  0  0  0  0  0
  -30.4399  -12.3176   19.4058 C   0  0  0  0  0  0
  -29.5020  -12.5513   18.2019 C   0  0  0  0  0  0
  -28.0218  -12.3988   18.6107 C   0  0  0  0  0  0
  -27.6764  -13.2001   19.8934 C   0  0  2  0  0  0
  -28.7135  -12.9058   20.9982 C   0  0  0  0  0  0
  -25.2661  -13.8139   20.5704 C   0  0  0  0  0  0
  -24.1887  -13.0432   20.9151 C   0  0  0  0  0  0
  -24.6422  -11.6899   20.8744 C   0  0  0  0  0  0
  -23.9078  -10.4298   21.0427 C   0  0  0  0  0  0
  -24.3625   -9.4209   21.9197 C   0  0  0  0  0  0
  -23.6307   -8.2236   22.0771 C   0  0  0  0  0  0
  -22.4289   -8.0288   21.3560 C   0  0  0  0  0  0
  -21.9934   -9.0262   20.4657 C   0  0  0  0  0  0
  -22.7258  -10.2148   20.3070 C   0  0  0  0  0  0
  -21.6852   -6.0737   22.5288 C   0  0  0  0  0  0
  -21.3999   -6.5624   23.8226 C   0  0  0  0  0  0
  -21.3664   -5.6783   24.9188 C   0  0  0  0  0  0
  -21.6047   -4.3043   24.7238 C   0  0  0  0  0  0
  -21.8823   -3.8142   23.4359 C   0  0  0  0  0  0
  -21.9213   -4.6960   22.3419 C   0  0  0  0  0  0
  -22.7918  -13.5260   21.1837 C   0  0  0  0  0  0
  -22.1702   -4.2152   21.0997 F   0  0  0  0  0  0
  -21.5624   -3.4518   25.7740 F   0  0  0  0  0  0
  -30.0553  -13.2425   20.4833 N   0  0  0  0  0  0
  -26.3118  -12.9301   20.3450 N   0  0  0  0  0  0
  -25.9360  -11.6474   20.5793 N   0  0  0  0  0  0
  -22.0530  -12.8273   22.0376 N   0  0  0  0  0  0
  -25.4426  -15.1834   20.4164 N   0  0  0  0  0  0
  -31.6980  -14.7741   20.0503 O   0  0  0  0  0  0
  -21.6628   -6.8892   21.4263 O   0  0  0  0  0  0
  -22.3626  -14.5593   20.6723 O   0  0  0  0  0  0
  -24.6138  -31.8696   23.2129 C   0  0  0  0  0  0
  -25.9038  -32.4827   23.8408 C   0  0  1  0  0  0
  -27.2286  -27.4349   20.0789 C   0  0  0  0  0  0
  -25.5918  -33.8622   24.2343 N   0  0  0  0  0  0
  -23.4002  -30.4953   21.5543 C   0  0  2  0  0  0
  -24.8429  -28.9661   20.1124 C   0  0  0  0  0  0
  -22.7407  -29.4656   22.4995 C   0  0  0  0  0  0
  -18.0268  -28.1383   22.8487 C   0  0  0  0  0  0
  -24.1482  -36.7309   23.2637 C   0  0  0  0  0  0
  -25.9293  -30.8306   21.3672 C   0  0  0  0  0  0
  -26.0037  -29.4651   20.7154 C   0  0  0  0  0  0
  -27.1962  -28.7040   20.7042 C   0  0  0  0  0  0
  -26.0435  -26.9604   19.4627 C   0  0  0  0  0  0
  -24.8573  -27.7124   19.4844 C   0  0  0  0  0  0
  -23.6068  -29.8341   20.1665 C   0  0  0  0  0  0
  -25.4100  -36.3111   24.0344 C   0  0  1  0  0  0
  -20.5863  -28.3662   23.1322 C   0  0  2  0  0  0
  -20.6757  -26.9404   22.5415 C   0  0  0  0  0  0
  -19.5737  -26.6386   21.5210 C   0  0  0  0  0  0
  -18.1920  -26.7930   22.1620 C   0  0  0  0  0  0
  -19.1521  -28.8836   23.2903 C   0  0  0  0  0  0
  -18.9451  -30.1442   23.8916 C   0  0  0  0  0  0
  -17.6456  -30.6584   24.0567 C   0  0  0  0  0  0
  -25.9037  -34.9478   23.5138 C   0  0  0  0  0  0
  -16.5342  -29.9091   23.6326 C   0  0  0  0  0  0
  -16.7260  -28.6509   23.0339 C   0  0  0  0  0  0
  -26.4475  -31.6592   25.0720 C   0  0  0  0  0  0
  -25.3753  -31.3677   26.1474 C   0  0  0  0  0  0
  -27.0301  -30.3047   24.6060 C   0  0  0  0  0  0
  -27.6070  -32.4291   25.7475 C   0  0  0  0  0  0
  -27.5585  -37.1798   24.8461 C   0  0  0  0  0  0
  -21.4141  -29.3026   22.3734 N   0  0  0  0  0  0
  -26.4280  -37.3806   23.9431 N   0  0  0  0  0  0
  -24.6666  -31.0782   22.1042 N   0  0  0  0  0  0
  -23.4183  -28.8189   23.3028 O   0  0  0  0  0  0
  -28.4050  -26.7038   20.0855 O   0  0  0  0  0  0
  -26.5590  -34.8930   22.4693 O   0  0  0  0  0  0
  -23.5329  -32.1449   23.7524 O   0  0  0  0  0  0
  -27.6994  -17.9006   22.2835 C   0  0  0  0  0  0
  -30.0331  -17.5140   20.7649 C   0  0  0  0  0  0
  -28.4145  -16.6943   22.4009 C   0  0  0  0  0  0
  -28.1396  -18.9196   21.4219 C   0  0  0  0  0  0
  -29.5574  -16.4609   21.5917 C   0  0  0  0  0  0
  -29.3506  -18.7583   20.7105 C   0  0  0  0  0  0
  -31.8240  -22.4867   19.4721 C   0  0  0  0  0  0
  -30.6251  -22.1327   19.9655 C   0  0  0  0  0  0
  -27.9046  -15.6678   23.4009 C   0  0  0  0  0  0
  -27.2923  -20.1727   21.2733 C   0  0  0  0  0  0
  -29.3818  -23.0001   19.7716 C   0  0  0  0  0  0
  -30.4487  -20.8337   20.7488 C   0  0  0  0  0  0
  -29.5800  -24.5162   20.0368 C   0  0  0  0  0  0
  -28.3175  -25.3269   19.6937 C   0  0  0  0  0  0
  -30.1704  -15.1716   21.6773 N   0  0  0  0  0  0
  -29.8511  -19.7988   19.9608 O   0  0  0  0  0  0
  -31.4821  -12.4472   19.1085 H   0  0  0  0  0  0
  -30.3612  -11.2861   19.7542 H   0  0  0  0  0  0
  -29.7474  -11.8598   17.3937 H   0  0  0  0  0  0
  -29.6712  -13.5552   17.8074 H   0  0  0  0  0  0
  -27.8292  -11.3385   18.7752 H   0  0  0  0  0  0
  -27.3687  -12.7076   17.7928 H   0  0  0  0  0  0
  -27.7432  -14.2595   19.6468 H   0  0  0  0  0  0
  -28.6861  -11.8486   21.2659 H   0  0  0  0  0  0
  -28.4534  -13.4226   21.9182 H   0  0  0  0  0  0
  -25.2775   -9.5660   22.4780 H   0  0  0  0  0  0
  -24.0022   -7.4618   22.7496 H   0  0  0  0  0  0
  -21.0863   -8.8793   19.8964 H   0  0  0  0  0  0
  -22.3742  -10.9692   19.6184 H   0  0  0  0  0  0
  -21.1980   -7.6134   23.9710 H   0  0  0  0  0  0
  -21.1472   -6.0522   25.9081 H   0  0  0  0  0  0
  -22.0606   -2.7601   23.2871 H   0  0  0  0  0  0
  -22.4097  -11.9905   22.4751 H   0  0  0  0  0  0
  -21.1162  -13.1342   22.2579 H   0  0  0  0  0  0
  -24.6892  -15.8483   20.5502 H   0  0  0  0  0  0
  -26.3212  -15.6213   20.1714 H   0  0  0  0  0  0
  -26.7097  -32.5539   23.1162 H   0  0  0  0  0  0
  -25.0111  -33.9789   25.0515 H   0  0  0  0  0  0
  -22.6876  -31.3120   21.4195 H   0  0  0  0  0  0
  -23.3763  -35.9624   23.3273 H   0  0  0  0  0  0
  -24.3591  -36.8946   22.2059 H   0  0  0  0  0  0
  -23.7196  -37.6493   23.6659 H   0  0  0  0  0  0
  -26.0342  -31.5916   20.5922 H   0  0  0  0  0  0
  -26.8209  -30.8887   21.9803 H   0  0  0  0  0  0
  -28.0890  -29.0841   21.1823 H   0  0  0  0  0  0
  -26.0045  -26.0137   18.9458 H   0  0  0  0  0  0
  -23.9685  -27.3284   19.0020 H   0  0  0  0  0  0
  -23.7152  -30.6103   19.4082 H   0  0  0  0  0  0
  -22.7301  -29.2552   19.8716 H   0  0  0  0  0  0
  -25.1263  -36.1983   25.0836 H   0  0  0  0  0  0
  -20.9951  -28.3223   24.1442 H   0  0  0  0  0  0
  -20.5662  -26.2275   23.3601 H   0  0  0  0  0  0
  -21.6629  -26.7463   22.1197 H   0  0  0  0  0  0
  -19.6904  -25.6302   21.1221 H   0  0  0  0  0  0
  -19.6685  -27.3208   20.6750 H   0  0  0  0  0  0
  -17.4201  -26.6686   21.4014 H   0  0  0  0  0  0
  -18.0325  -26.0068   22.9009 H   0  0  0  0  0  0
  -19.7934  -30.7242   24.2303 H   0  0  0  0  0  0
  -17.5018  -31.6266   24.5168 H   0  0  0  0  0  0
  -15.5345  -30.2994   23.7645 H   0  0  0  0  0  0
  -15.8657  -28.0831   22.7036 H   0  0  0  0  0  0
  -24.5938  -30.7013   25.7800 H   0  0  0  0  0  0
  -24.8932  -32.2826   26.4934 H   0  0  0  0  0  0
  -25.8117  -30.8836   27.0225 H   0  0  0  0  0  0
  -26.2823  -29.6801   24.1165 H   0  0  0  0  0  0
  -27.4152  -29.7275   25.4475 H   0  0  0  0  0  0
  -27.8620  -30.4379   23.9143 H   0  0  0  0  0  0
  -27.2724  -33.3597   26.2073 H   0  0  0  0  0  0
  -28.3880  -32.6839   25.0295 H   0  0  0  0  0  0
  -28.0747  -31.8398   26.5376 H   0  0  0  0  0  0
  -28.2577  -38.0123   24.7570 H   0  0  0  0  0  0
  -28.1106  -36.2663   24.6202 H   0  0  0  0  0  0
  -27.2325  -37.1343   25.8867 H   0  0  0  0  0  0
  -20.9298  -29.8783   21.6987 H   0  0  0  0  0  0
  -26.0173  -38.2878   24.1474 H   0  0  0  0  0  0
  -26.7967  -18.0453   22.8617 H   0  0  0  0  0  0
  -30.9300  -17.3826   20.1762 H   0  0  0  0  0  0
  -31.9595  -23.3987   18.9125 H   0  0  0  0  0  0
  -32.6955  -21.8631   19.6130 H   0  0  0  0  0  0
  -27.3985  -16.1610   24.2313 H   0  0  0  0  0  0
  -28.7130  -15.0789   23.8344 H   0  0  0  0  0  0
  -27.1875  -14.9964   22.9303 H   0  0  0  0  0  0
  -26.2372  -19.9531   21.4421 H   0  0  0  0  0  0
  -27.3817  -20.5873   20.2685 H   0  0  0  0  0  0
  -27.5914  -20.9364   21.9909 H   0  0  0  0  0  0
  -28.5859  -22.6376   20.4215 H   0  0  0  0  0  0
  -29.0288  -22.8415   18.7520 H   0  0  0  0  0  0
  -29.8859  -21.0518   21.6576 H   0  0  0  0  0  0
  -31.4227  -20.4729   21.0837 H   0  0  0  0  0  0
  -30.4127  -24.9100   19.4569 H   0  0  0  0  0  0
  -29.8304  -24.6695   21.0876 H   0  0  0  0  0  0
  -27.4705  -24.8554   20.1952 H   0  0  0  0  0  0
  -28.1417  -25.2718   18.6179 H   0  0  0  0  0  0
  -29.6786  -14.5746   22.3224 H   0  0  0  0  0  0
  1 25  1  0  0  0
  1 30  2  0  0  0
  1 85  1  0  0  0
  2  3  1  0  0  0
  2 25  1  0  0  0
  2 87  1  0  0  0
  2 88  1  0  0  0
  3  4  1  0  0  0
  3 89  1  0  0  0
  3 90  1  0  0  0
  4  5  1  0  0  0
  4 91  1  0  0  0
  4 92  1  0  0  0
  5  6  1  0  0  0
  5 26  1  0  0  0
  5 93  1  0  0  0
  6 25  1  0  0  0
  6 94  1  0  0  0
  6 95  1  0  0  0
  7  8  2  0  0  0
  7 26  1  0  0  0
  7 29  1  0  0  0
  8  9  1  0  0  0
  8 22  1  0  0  0
  9 10  1  0  0  0
  9 27  2  0  0  0
 10 11  2  0  0  0
 10 15  1  0  0  0
 11 12  1  0  0  0
 11 96  1  0  0  0
 12 13  2  0  0  0
 12 97  1  0  0  0
 13 14  1  0  0  0
 13 31  1  0  0  0
 14 15  2  0  0  0
 14 98  1  0  0  0
 15 99  1  0  0  0
 16 17  2  0  0  0
 16 21  1  0  0  0
 16 31  1  0  0  0
 17 18  1  0  0  0
 17100  1  0  0  0
 18 19  2  0  0  0
 18101  1  0  0  0
 19 20  1  0  0  0
 19 24  1  0  0  0
 20 21  2  0  0  0
 20102  1  0  0  0
 21 23  1  0  0  0
 22 28  1  0  0  0
 22 32  2  0  0  0
 26 27  1  0  0  0
 28103  1  0  0  0
 28104  1  0  0  0
 29105  1  0  0  0
 29106  1  0  0  0
 33 34  1  0  0  0
 33 66  1  0  0  0
 33 70  2  0  0  0
 34 36  1  0  0  0
 34 59  1  0  0  0
 34107  1  0  0  0
 35 44  2  0  0  0
 35 45  1  0  0  0
 35 68  1  0  0  0
 36 56  1  0  0  0
 36108  1  0  0  0
 37 39  1  0  0  0
 37 47  1  0  0  0
 37 66  1  0  0  0
 37109  1  0  0  0
 38 43  2  0  0  0
 38 46  1  0  0  0
 38 47  1  0  0  0
 39 64  1  0  0  0
 39 67  2  0  0  0
 40 52  1  0  0  0
 40 53  2  0  0  0
 40 58  1  0  0  0
 41110  1  0  0  0
 41111  1  0  0  0
 41112  1  0  0  0
 41 48  1  0  0  0
 42 43  1  0  0  0
 42 66  1  0  0  0
 42113  1  0  0  0
 42114  1  0  0  0
 43 44  1  0  0  0
 44115  1  0  0  0
 45 46  2  0  0  0
 45116  1  0  0  0
 46117  1  0  0  0
 47118  1  0  0  0
 47119  1  0  0  0
 48 56  1  0  0  0
 48 65  1  0  0  0
 48120  1  0  0  0
 49 50  1  0  0  0
 49 53  1  0  0  0
 49 64  1  0  0  0
 49121  1  0  0  0
 50 51  1  0  0  0
 50122  1  0  0  0
 50123  1  0  0  0
 51 52  1  0  0  0
 51124  1  0  0  0
 51125  1  0  0  0
 52126  1  0  0  0
 52127  1  0  0  0
 53 54  1  0  0  0
 54 55  2  0  0  0
 54128  1  0  0  0
 55 57  1  0  0  0
 55129  1  0  0  0
 56 69  2  0  0  0
 57 58  2  0  0  0
 57130  1  0  0  0
 58131  1  0  0  0
 59 60  1  0  0  0
 59 61  1  0  0  0
 59 62  1  0  0  0
 60132  1  0  0  0
 60133  1  0  0  0
 60134  1  0  0  0
 61135  1  0  0  0
 61136  1  0  0  0
 61137  1  0  0  0
 62138  1  0  0  0
 62139  1  0  0  0
 62140  1  0  0  0
 63 65  1  0  0  0
 63141  1  0  0  0
 63142  1  0  0  0
 63143  1  0  0  0
 64144  1  0  0  0
 65145  1  0  0  0
 68 84  1  0  0  0
 71 73  2  0  0  0
 71 74  1  0  0  0
 71146  1  0  0  0
 72 75  2  0  0  0
 72 76  1  0  0  0
 72147  1  0  0  0
 73 75  1  0  0  0
 73 79  1  0  0  0
 74 76  2  0  0  0
 74 80  1  0  0  0
 75 85  1  0  0  0
 76 86  1  0  0  0
 77 78  2  0  0  0
 77148  1  0  0  0
 77149  1  0  0  0
 78 81  1  0  0  0
 78 82  1  0  0  0
 79150  1  0  0  0
 79151  1  0  0  0
 79152  1  0  0  0
 80153  1  0  0  0
 80154  1  0  0  0
 80155  1  0  0  0
 81 83  1  0  0  0
 81156  1  0  0  0
 81157  1  0  0  0
 82 86  1  0  0  0
 82158  1  0  0  0
 82159  1  0  0  0
 83 84  1  0  0  0
 83160  1  0  0  0
 83161  1  0  0  0
 84162  1  0  0  0
 84163  1  0  0  0
 85164  1  0  0  0
M  ISO  4   1 100  68 101  84 101  85 100
M  END
> <chiral flag>
0

> <version>
0

> <s_m_source_file>
/data/baiqing/PycharmProjects/Reinvent-master-3.2/result/LINK_invent/BTK/process_docking_weight1_custom_product_contain_oxygen_bond_distance_aromatic_linkinvent_7_9_3/rearranged_h_0134.sdf

> <i_m_source_file_index>
69

> <r_mmod_Potential_Energy-OPLS-2005>
-25.1853885650635

> <r_mmod_Stretch_Energy-OPLS-2005>
38.3382911682129

> <r_mmod_Bend_Energy-OPLS-2005>
101.72688293457

> <r_mmod_Torsional_Energy-OPLS-2005>
260.029449462891

> <r_mmod_Improper_Torsional_Energy-OPLS-2005>
5.87889385223389

> <r_mmod_Van_der_Waal_Energy-OPLS-2005>
152.751968383789

> <r_mmod_Electrostatic_Energy-OPLS-2005>
-394.833770751953

> <r_mmod_Solvation_Energy-OPLS-2005>
-201.623687744141

> <b_mmod_Minimization_Converged-OPLS-2005>
0

> <r_mmod_RMS_Derivative-OPLS-2005>
2.70055341720581

$$$$
69
                    3D
 Structure written by MMmdl.
165173  0  0  1  0            999 V2000
  -30.6469  -14.5956   20.5041 C   0  0  0  0  0  0
  -30.4198  -12.3722   19.4348 C   0  0  0  0  0  0
  -29.4900  -12.4848   18.2093 C   0  0  0  0  0  0
  -28.0106  -12.3569   18.6228 C   0  0  0  0  0  0
  -27.6459  -13.2195   19.8608 C   0  0  2  0  0  0
  -28.6903  -13.0643   20.9843 C   0  0  0  0  0  0
  -25.2522  -13.8177   20.5712 C   0  0  0  0  0  0
  -24.1806  -13.0434   20.9230 C   0  0  0  0  0  0
  -24.6383  -11.6903   20.8766 C   0  0  0  0  0  0
  -23.9058  -10.4283   21.0411 C   0  0  0  0  0  0
  -24.3616   -9.4205   21.9189 C   0  0  0  0  0  0
  -23.6303   -8.2234   22.0745 C   0  0  0  0  0  0
  -22.4283   -8.0273   21.3535 C   0  0  0  0  0  0
  -21.9916   -9.0240   20.4626 C   0  0  0  0  0  0
  -22.7228  -10.2134   20.3055 C   0  0  0  0  0  0
  -21.6843   -6.0742   22.5279 C   0  0  0  0  0  0
  -21.3998   -6.5647   23.8209 C   0  0  0  0  0  0
  -21.3665   -5.6798   24.9165 C   0  0  0  0  0  0
  -21.6055   -4.3061   24.7205 C   0  0  0  0  0  0
  -21.8820   -3.8156   23.4318 C   0  0  0  0  0  0
  -21.9193   -4.6979   22.3386 C   0  0  0  0  0  0
  -22.7822  -13.5223   21.1865 C   0  0  0  0  0  0
  -22.1666   -4.2180   21.0955 F   0  0  0  0  0  0
  -21.5639   -3.4537   25.7707 F   0  0  0  0  0  0
  -29.9977  -13.3976   20.4074 N   0  0  0  0  0  0
  -26.2941  -12.9369   20.3317 N   0  0  0  0  0  0
  -25.9301  -11.6527   20.5770 N   0  0  0  0  0  0
  -22.0455  -12.8208   22.0411 N   0  0  0  0  0  0
  -25.4250  -15.1893   20.4144 N   0  0  0  0  0  0
  -31.8253  -14.7083   20.1543 O   0  0  0  0  0  0
  -21.6643   -6.8877   21.4234 O   0  0  0  0  0  0
  -22.3503  -14.5529   20.6709 O   0  0  0  0  0  0
  -24.6195  -31.8631   23.2072 C   0  0  0  0  0  0
  -25.9068  -32.4792   23.8355 C   0  0  1  0  0  0
  -27.2106  -27.3423   20.0908 C   0  0  0  0  0  0
  -25.5921  -33.8600   24.2273 N   0  0  0  0  0  0
  -23.4092  -30.4879   21.5512 C   0  0  2  0  0  0
  -24.8483  -28.9419   20.1137 C   0  0  0  0  0  0
  -22.7406  -29.4643   22.4982 C   0  0  0  0  0  0
  -18.0287  -28.1360   22.8503 C   0  0  0  0  0  0
  -24.1481  -36.7300   23.2643 C   0  0  0  0  0  0
  -25.9461  -30.7981   21.3730 C   0  0  0  0  0  0
  -26.0164  -29.4267   20.7143 C   0  0  0  0  0  0
  -27.1978  -28.6342   20.6998 C   0  0  0  0  0  0
  -26.0164  -26.8981   19.4858 C   0  0  0  0  0  0
  -24.8455  -27.6809   19.4985 C   0  0  0  0  0  0
  -23.6169  -29.8230   20.1654 C   0  0  0  0  0  0
  -25.4110  -36.3099   24.0325 C   0  0  1  0  0  0
  -20.5875  -28.3654   23.1328 C   0  0  2  0  0  0
  -20.6788  -26.9385   22.5429 C   0  0  0  0  0  0
  -19.5749  -26.6366   21.5243 C   0  0  0  0  0  0
  -18.1928  -26.7912   22.1638 C   0  0  0  0  0  0
  -19.1537  -28.8824   23.2905 C   0  0  0  0  0  0
  -18.9462  -30.1445   23.8872 C   0  0  0  0  0  0
  -17.6464  -30.6573   24.0568 C   0  0  0  0  0  0
  -25.9046  -34.9467   23.5090 C   0  0  0  0  0  0
  -16.5353  -29.9058   23.6363 C   0  0  0  0  0  0
  -16.7280  -28.6487   23.0369 C   0  0  0  0  0  0
  -26.4448  -31.6618   25.0730 C   0  0  0  0  0  0
  -25.3681  -31.3787   26.1458 C   0  0  0  0  0  0
  -27.0292  -30.3041   24.6191 C   0  0  0  0  0  0
  -27.5986  -32.4366   25.7509 C   0  0  0  0  0  0
  -27.5561  -37.1808   24.8456 C   0  0  0  0  0  0
  -21.4133  -29.3018   22.3719 N   0  0  0  0  0  0
  -26.4285  -37.3799   23.9394 N   0  0  0  0  0  0
  -24.6775  -31.0656   22.1018 N   0  0  0  0  0  0
  -23.4147  -28.8191   23.3071 O   0  0  0  0  0  0
  -28.3606  -26.5522   20.1251 O   0  0  0  0  0  0
  -26.5626  -34.8943   22.4660 O   0  0  0  0  0  0
  -23.5374  -32.1430   23.7413 O   0  0  0  0  0  0
  -29.6522  -20.2682   19.0700 C   0  0  0  0  0  0
  -29.9269  -18.9094   19.3808 C   0  0  0  0  0  0
  -28.9419  -20.6568   21.3311 C   0  0  0  0  0  0
  -29.2103  -21.1994   20.0468 C   0  0  0  0  0  0
  -29.7832  -18.4003   20.6923 C   0  0  0  0  0  0
  -29.2166  -19.2872   21.6606 C   0  0  0  0  0  0
  -28.1140  -19.6455   23.9985 C   0  0  0  0  0  0
  -26.8364  -23.4102   20.2435 C   0  0  0  0  0  0
  -28.7096  -24.1984   21.7367 C   0  0  0  0  0  0
  -29.2368  -22.7328   19.6753 C   0  0  0  0  0  0
  -28.9759  -18.7672   23.0794 C   0  0  0  0  0  0
  -30.4939  -17.0538   21.0833 C   0  0  0  0  0  0
  -28.4640  -25.2414   19.4607 C   0  0  0  0  0  0
  -28.3042  -23.8808   20.2856 C   0  0  0  0  0  0
  -29.9122  -15.6989   20.8318 N   0  0  0  0  0  0
  -31.4600  -12.4909   19.1262 H   0  0  0  0  0  0
  -30.3545  -11.3783   19.8799 H   0  0  0  0  0  0
  -29.7347  -11.7093   17.4822 H   0  0  0  0  0  0
  -29.6504  -13.4382   17.7051 H   0  0  0  0  0  0
  -27.8203  -11.3037   18.8341 H   0  0  0  0  0  0
  -27.3607  -12.6147   17.7862 H   0  0  0  0  0  0
  -27.6672  -14.2593   19.5361 H   0  0  0  0  0  0
  -28.6932  -12.0394   21.3586 H   0  0  0  0  0  0
  -28.4512  -13.6981   21.8395 H   0  0  0  0  0  0
  -25.2758   -9.5698   22.4766 H   0  0  0  0  0  0
  -24.0023   -7.4625   22.7453 H   0  0  0  0  0  0
  -21.0862   -8.8733   19.8917 H   0  0  0  0  0  0
  -22.3672  -10.9673   19.6172 H   0  0  0  0  0  0
  -21.1987   -7.6155   23.9719 H   0  0  0  0  0  0
  -21.1491   -6.0517   25.9072 H   0  0  0  0  0  0
  -22.0607   -2.7621   23.2790 H   0  0  0  0  0  0
  -22.4090  -11.9888   22.4833 H   0  0  0  0  0  0
  -21.1054  -13.1191   22.2571 H   0  0  0  0  0  0
  -24.6638  -15.8457   20.5453 H   0  0  0  0  0  0
  -26.2639  -15.6247   20.0530 H   0  0  0  0  0  0
  -26.7120  -32.5429   23.1085 H   0  0  0  0  0  0
  -25.0077  -33.9765   25.0425 H   0  0  0  0  0  0
  -22.7024  -31.3080   21.4121 H   0  0  0  0  0  0
  -23.3757  -35.9622   23.3334 H   0  0  0  0  0  0
  -24.3565  -36.8899   22.2049 H   0  0  0  0  0  0
  -23.7222  -37.6508   23.6652 H   0  0  0  0  0  0
  -26.0720  -31.5620   20.6041 H   0  0  0  0  0  0
  -26.8290  -30.8428   21.9986 H   0  0  0  0  0  0
  -28.0968  -29.0009   21.1742 H   0  0  0  0  0  0
  -25.9519  -25.9328   19.0113 H   0  0  0  0  0  0
  -23.9461  -27.2979   19.0377 H   0  0  0  0  0  0
  -23.7312  -30.6010   19.4094 H   0  0  0  0  0  0
  -22.7329  -29.2541   19.8705 H   0  0  0  0  0  0
  -25.1299  -36.1956   25.0823 H   0  0  0  0  0  0
  -20.9980  -28.3203   24.1446 H   0  0  0  0  0  0
  -20.5756  -26.2220   23.3605 H   0  0  0  0  0  0
  -21.6645  -26.7474   22.1157 H   0  0  0  0  0  0
  -19.6922  -25.6287   21.1246 H   0  0  0  0  0  0
  -19.6689  -27.3206   20.6806 H   0  0  0  0  0  0
  -17.4209  -26.6710   21.4021 H   0  0  0  0  0  0
  -18.0287  -26.0042   22.9013 H   0  0  0  0  0  0
  -19.7941  -30.7316   24.2163 H   0  0  0  0  0  0
  -17.5019  -31.6254   24.5159 H   0  0  0  0  0  0
  -15.5351  -30.2956   23.7715 H   0  0  0  0  0  0
  -15.8681  -28.0827   22.7060 H   0  0  0  0  0  0
  -24.5842  -30.7134   25.7826 H   0  0  0  0  0  0
  -24.8879  -32.2981   26.4823 H   0  0  0  0  0  0
  -25.7995  -30.9022   27.0264 H   0  0  0  0  0  0
  -26.2902  -29.6799   24.1158 H   0  0  0  0  0  0
  -27.3940  -29.7263   25.4690 H   0  0  0  0  0  0
  -27.8763  -30.4330   23.9450 H   0  0  0  0  0  0
  -27.2574  -33.3665   26.2047 H   0  0  0  0  0  0
  -28.3819  -32.6920   25.0379 H   0  0  0  0  0  0
  -28.0613  -31.8521   26.5461 H   0  0  0  0  0  0
  -28.2593  -38.0095   24.7524 H   0  0  0  0  0  0
  -28.1044  -36.2629   24.6272 H   0  0  0  0  0  0
  -27.2275  -37.1463   25.8861 H   0  0  0  0  0  0
  -20.9271  -29.8705   21.6929 H   0  0  0  0  0  0
  -26.0161  -38.2865   24.1442 H   0  0  0  0  0  0
  -29.8775  -20.6188   18.0730 H   0  0  0  0  0  0
  -30.3580  -18.2798   18.6131 H   0  0  0  0  0  0
  -28.5826  -21.3149   22.1015 H   0  0  0  0  0  0
  -27.9402  -19.1340   24.9457 H   0  0  0  0  0  0
  -27.1412  -19.8513   23.5509 H   0  0  0  0  0  0
  -28.5995  -20.5934   24.2353 H   0  0  0  0  0  0
  -26.6837  -22.5165   20.8501 H   0  0  0  0  0  0
  -26.5319  -23.1560   19.2271 H   0  0  0  0  0  0
  -26.1510  -24.1744   20.6110 H   0  0  0  0  0  0
  -28.6177  -23.3469   22.4033 H   0  0  0  0  0  0
  -28.0789  -24.9861   22.1526 H   0  0  0  0  0  0
  -29.7407  -24.5464   21.7923 H   0  0  0  0  0  0
  -29.0715  -22.7603   18.5978 H   0  0  0  0  0  0
  -30.2761  -23.0414   19.7914 H   0  0  0  0  0  0
  -29.9360  -18.6002   23.5700 H   0  0  0  0  0  0
  -28.4919  -17.7917   22.9953 H   0  0  0  0  0  0
  -30.7497  -17.0741   22.1400 H   0  0  0  0  0  0
  -31.4651  -17.1103   20.5878 H   0  0  0  0  0  0
  -27.8929  -25.2015   18.5345 H   0  0  0  0  0  0
  -29.4914  -25.2594   19.1014 H   0  0  0  0  0  0
  -28.9391  -15.5639   21.0565 H   0  0  0  0  0  0
  1 25  1  0  0  0
  1 30  2  0  0  0
  1 85  1  0  0  0
  2  3  1  0  0  0
  2 25  1  0  0  0
  2 86  1  0  0  0
  2 87  1  0  0  0
  3  4  1  0  0  0
  3 88  1  0  0  0
  3 89  1  0  0  0
  4  5  1  0  0  0
  4 90  1  0  0  0
  4 91  1  0  0  0
  5  6  1  0  0  0
  5 26  1  0  0  0
  5 92  1  0  0  0
  6 25  1  0  0  0
  6 93  1  0  0  0
  6 94  1  0  0  0
  7  8  2  0  0  0
  7 26  1  0  0  0
  7 29  1  0  0  0
  8  9  1  0  0  0
  8 22  1  0  0  0
  9 10  1  0  0  0
  9 27  2  0  0  0
 10 11  2  0  0  0
 10 15  1  0  0  0
 11 12  1  0  0  0
 11 95  1  0  0  0
 12 13  2  0  0  0
 12 96  1  0  0  0
 13 14  1  0  0  0
 13 31  1  0  0  0
 14 15  2  0  0  0
 14 97  1  0  0  0
 15 98  1  0  0  0
 16 17  2  0  0  0
 16 21  1  0  0  0
 16 31  1  0  0  0
 17 18  1  0  0  0
 17 99  1  0  0  0
 18 19  2  0  0  0
 18100  1  0  0  0
 19 20  1  0  0  0
 19 24  1  0  0  0
 20 21  2  0  0  0
 20101  1  0  0  0
 21 23  1  0  0  0
 22 28  1  0  0  0
 22 32  2  0  0  0
 26 27  1  0  0  0
 28102  1  0  0  0
 28103  1  0  0  0
 29104  1  0  0  0
 29105  1  0  0  0
 33 34  1  0  0  0
 33 66  1  0  0  0
 33 70  2  0  0  0
 34 36  1  0  0  0
 34 59  1  0  0  0
 34106  1  0  0  0
 35 44  2  0  0  0
 35 45  1  0  0  0
 35 68  1  0  0  0
 36 56  1  0  0  0
 36107  1  0  0  0
 37 39  1  0  0  0
 37 47  1  0  0  0
 37 66  1  0  0  0
 37108  1  0  0  0
 38 43  2  0  0  0
 38 46  1  0  0  0
 38 47  1  0  0  0
 39 64  1  0  0  0
 39 67  2  0  0  0
 40 52  1  0  0  0
 40 53  2  0  0  0
 40 58  1  0  0  0
 41109  1  0  0  0
 41110  1  0  0  0
 41111  1  0  0  0
 41 48  1  0  0  0
 42 43  1  0  0  0
 42 66  1  0  0  0
 42112  1  0  0  0
 42113  1  0  0  0
 43 44  1  0  0  0
 44114  1  0  0  0
 45 46  2  0  0  0
 45115  1  0  0  0
 46116  1  0  0  0
 47117  1  0  0  0
 47118  1  0  0  0
 48 56  1  0  0  0
 48 65  1  0  0  0
 48119  1  0  0  0
 49 50  1  0  0  0
 49 53  1  0  0  0
 49 64  1  0  0  0
 49120  1  0  0  0
 50 51  1  0  0  0
 50121  1  0  0  0
 50122  1  0  0  0
 51 52  1  0  0  0
 51123  1  0  0  0
 51124  1  0  0  0
 52125  1  0  0  0
 52126  1  0  0  0
 53 54  1  0  0  0
 54 55  2  0  0  0
 54127  1  0  0  0
 55 57  1  0  0  0
 55128  1  0  0  0
 56 69  2  0  0  0
 57 58  2  0  0  0
 57129  1  0  0  0
 58130  1  0  0  0
 59 60  1  0  0  0
 59 61  1  0  0  0
 59 62  1  0  0  0
 60131  1  0  0  0
 60132  1  0  0  0
 60133  1  0  0  0
 61134  1  0  0  0
 61135  1  0  0  0
 61136  1  0  0  0
 62137  1  0  0  0
 62138  1  0  0  0
 62139  1  0  0  0
 63 65  1  0  0  0
 63140  1  0  0  0
 63141  1  0  0  0
 63142  1  0  0  0
 64143  1  0  0  0
 65144  1  0  0  0
 68 83  1  0  0  0
 71 72  2  0  0  0
 71 74  1  0  0  0
 71145  1  0  0  0
 72 75  1  0  0  0
 72146  1  0  0  0
 73 74  2  0  0  0
 73 76  1  0  0  0
 73147  1  0  0  0
 74 80  1  0  0  0
 75 76  2  0  0  0
 75 82  1  0  0  0
 76 81  1  0  0  0
 77 81  1  0  0  0
 77148  1  0  0  0
 77149  1  0  0  0
 77150  1  0  0  0
 78151  1  0  0  0
 78152  1  0  0  0
 78153  1  0  0  0
 78 84  1  0  0  0
 79 84  1  0  0  0
 79154  1  0  0  0
 79155  1  0  0  0
 79156  1  0  0  0
 80 84  1  0  0  0
 80157  1  0  0  0
 80158  1  0  0  0
 81159  1  0  0  0
 81160  1  0  0  0
 82 85  1  0  0  0
 82161  1  0  0  0
 82162  1  0  0  0
 83 84  1  0  0  0
 83163  1  0  0  0
 83164  1  0  0  0
 85165  1  0  0  0
M  ISO  4   1 100  68 101  83 101  85 100
M  END
> <chiral flag>
0

> <version>
0

> <s_m_source_file>
/data/baiqing/PycharmProjects/Reinvent-master-3.2/result/LINK_invent/BTK/process_docking_weight1_custom_product_contain_oxygen_bond_distance_aromatic_linkinvent_7_9_3/rearranged_h_0134.sdf

> <i_m_source_file_index>
70

> <r_mmod_Potential_Energy-OPLS-2005>
51.1187362670898

> <r_mmod_Stretch_Energy-OPLS-2005>
74.2163391113281

> <r_mmod_Bend_Energy-OPLS-2005>
168.187271118164

> <r_mmod_Torsional_Energy-OPLS-2005>
226.975143432617

> <r_mmod_Improper_Torsional_Energy-OPLS-2005>
6.66223430633545

> <r_mmod_Van_der_Waal_Energy-OPLS-2005>
148.794509887695

> <r_mmod_Electrostatic_Energy-OPLS-2005>
-416.761749267578

> <r_mmod_Solvation_Energy-OPLS-2005>
-193.756744384766

> <b_mmod_Minimization_Converged-OPLS-2005>
0

> <r_mmod_RMS_Derivative-OPLS-2005>
3.47648191452026

$$$$
70
                    3D
 Structure written by MMmdl.
170178  0  0  1  0            999 V2000
  -30.6303  -14.4575   20.7115 C   0  0  0  0  0  0
  -30.4334  -12.3365   19.4323 C   0  0  0  0  0  0
  -29.5001  -12.5301   18.2180 C   0  0  0  0  0  0
  -28.0226  -12.3528   18.6161 C   0  0  0  0  0  0
  -27.6517  -13.1834   19.8703 C   0  0  2  0  0  0
  -28.6695  -12.9155   20.9953 C   0  0  0  0  0  0
  -25.2493  -13.8078   20.5527 C   0  0  0  0  0  0
  -24.1763  -13.0406   20.9171 C   0  0  0  0  0  0
  -24.6291  -11.6858   20.8725 C   0  0  0  0  0  0
  -23.8978  -10.4275   21.0412 C   0  0  0  0  0  0
  -24.3553   -9.4215   21.9227 C   0  0  0  0  0  0
  -23.6238   -8.2248   22.0789 C   0  0  0  0  0  0
  -22.4241   -8.0281   21.3543 C   0  0  0  0  0  0
  -21.9832   -9.0250   20.4658 C   0  0  0  0  0  0
  -22.7150  -10.2125   20.3067 C   0  0  0  0  0  0
  -21.6846   -6.0724   22.5275 C   0  0  0  0  0  0
  -21.4016   -6.5621   23.8230 C   0  0  0  0  0  0
  -21.3680   -5.6772   24.9189 C   0  0  0  0  0  0
  -21.6056   -4.3037   24.7229 C   0  0  0  0  0  0
  -21.8824   -3.8134   23.4349 C   0  0  0  0  0  0
  -21.9181   -4.6942   22.3407 C   0  0  0  0  0  0
  -22.7811  -13.5269   21.1847 C   0  0  0  0  0  0
  -22.1647   -4.2142   21.0975 F   0  0  0  0  0  0
  -21.5639   -3.4516   25.7743 F   0  0  0  0  0  0
  -30.0043  -13.2713   20.4844 N   0  0  0  0  0  0
  -26.2904  -12.9199   20.3240 N   0  0  0  0  0  0
  -25.9190  -11.6375   20.5668 N   0  0  0  0  0  0
  -22.0390  -12.8348   22.0377 N   0  0  0  0  0  0
  -25.4127  -15.1772   20.3761 N   0  0  0  0  0  0
  -31.7193  -14.7462   20.1941 O   0  0  0  0  0  0
  -21.6627   -6.8850   21.4238 O   0  0  0  0  0  0
  -22.3546  -14.5634   20.6756 O   0  0  0  0  0  0
  -24.6131  -31.8730   23.2139 C   0  0  0  0  0  0
  -25.9034  -32.4864   23.8407 C   0  0  1  0  0  0
  -27.2338  -27.4593   20.0703 C   0  0  0  0  0  0
  -25.5901  -33.8659   24.2340 N   0  0  0  0  0  0
  -23.4002  -30.4947   21.5557 C   0  0  2  0  0  0
  -24.8476  -28.9622   20.1171 C   0  0  0  0  0  0
  -22.7405  -29.4667   22.4995 C   0  0  0  0  0  0
  -18.0263  -28.1325   22.8532 C   0  0  0  0  0  0
  -24.1482  -36.7294   23.2643 C   0  0  0  0  0  0
  -25.9300  -30.8391   21.3714 C   0  0  0  0  0  0
  -26.0052  -29.4757   20.7125 C   0  0  0  0  0  0
  -27.2040  -28.7271   20.6934 C   0  0  0  0  0  0
  -26.0633  -26.9517   19.4742 C   0  0  0  0  0  0
  -24.8686  -27.6956   19.5031 C   0  0  0  0  0  0
  -23.6100  -29.8314   20.1675 C   0  0  0  0  0  0
  -25.4116  -36.3154   24.0367 C   0  0  1  0  0  0
  -20.5852  -28.3695   23.1312 C   0  0  2  0  0  0
  -20.6830  -26.9386   22.5526 C   0  0  0  0  0  0
  -19.5794  -26.6174   21.5374 C   0  0  0  0  0  0
  -18.1966  -26.7816   22.1763 C   0  0  0  0  0  0
  -19.1513  -28.8849   23.2867 C   0  0  0  0  0  0
  -18.9419  -30.1466   23.8791 C   0  0  0  0  0  0
  -17.6436  -30.6621   24.0459 C   0  0  0  0  0  0
  -25.9058  -34.9494   23.5163 C   0  0  0  0  0  0
  -16.5346  -29.9062   23.6263 C   0  0  0  0  0  0
  -16.7247  -28.6439   23.0392 C   0  0  0  0  0  0
  -26.4451  -31.6641   25.0716 C   0  0  0  0  0  0
  -25.3679  -31.3742   26.1435 C   0  0  0  0  0  0
  -27.0315  -30.3105   24.6084 C   0  0  0  0  0  0
  -27.6067  -32.4325   25.7441 C   0  0  0  0  0  0
  -27.5590  -37.1829   24.8477 C   0  0  0  0  0  0
  -21.4136  -29.3036   22.3709 N   0  0  0  0  0  0
  -26.4308  -37.3829   23.9420 N   0  0  0  0  0  0
  -24.6650  -31.0784   22.1096 N   0  0  0  0  0  0
  -23.4207  -28.8151   23.2970 O   0  0  0  0  0  0
  -28.3898  -26.7293   19.9827 O   0  0  0  0  0  0
  -26.5576  -34.8943   22.4697 O   0  0  0  0  0  0
  -23.5335  -32.1482   23.7573 O   0  0  0  0  0  0
  -29.1344  -20.1070   20.9248 C   0  0  0  0  0  0
  -29.9129  -18.9514   21.1530 C   0  0  0  0  0  0
  -27.2031  -18.9544   21.8385 C   0  0  0  0  0  0
  -27.7699  -20.1222   21.2656 C   0  0  0  0  0  0
  -29.3641  -17.7847   21.7418 C   0  0  0  0  0  0
  -27.9843  -17.8029   22.1117 C   0  0  0  0  0  0
  -28.1124  -24.4495   20.8586 C   0  0  0  0  0  0
  -27.2979  -16.6550   22.8504 C   0  0  0  0  0  0
  -24.7631  -23.6995   23.4342 C   0  0  0  0  0  0
  -27.1244  -21.7556   23.5149 C   0  0  0  0  0  0
  -26.9121  -21.3745   21.0059 C   0  0  0  0  0  0
  -30.3341  -16.6172   22.0265 C   0  0  0  0  0  0
  -27.6608  -23.7157   22.1414 C   0  0  0  0  0  0
  -28.6252  -25.8786   21.0991 C   0  0  0  0  0  0
  -25.2239  -22.8237   22.2432 C   0  0  0  0  0  0
  -26.7421  -22.4287   22.1755 C   0  0  2  0  0  0
  -29.9418  -15.2971   21.5111 N   0  0  0  0  0  0
  -28.2102  -23.9192   19.7499 O   0  0  0  0  0  0
  -31.4738  -12.4938   19.1434 H   0  0  0  0  0  0
  -30.3852  -11.3148   19.8104 H   0  0  0  0  0  0
  -29.7526  -11.8292   17.4258 H   0  0  0  0  0  0
  -29.6496  -13.5281   17.8037 H   0  0  0  0  0  0
  -27.8633  -11.2943   18.8252 H   0  0  0  0  0  0
  -27.3673  -12.6059   17.7800 H   0  0  0  0  0  0
  -27.7089  -14.2367   19.5992 H   0  0  0  0  0  0
  -28.6571  -11.8645   21.2841 H   0  0  0  0  0  0
  -28.3782  -13.4439   21.9011 H   0  0  0  0  0  0
  -25.2675   -9.5733   22.4815 H   0  0  0  0  0  0
  -23.9969   -7.4641   22.7498 H   0  0  0  0  0  0
  -21.0787   -8.8786   19.8933 H   0  0  0  0  0  0
  -22.3633  -10.9705   19.6214 H   0  0  0  0  0  0
  -21.2025   -7.6133   23.9748 H   0  0  0  0  0  0
  -21.1490   -6.0486   25.9108 H   0  0  0  0  0  0
  -22.0575   -2.7589   23.2855 H   0  0  0  0  0  0
  -22.3858  -11.9979   22.4828 H   0  0  0  0  0  0
  -21.1076  -13.1553   22.2584 H   0  0  0  0  0  0
  -24.6686  -15.8426   20.5543 H   0  0  0  0  0  0
  -26.3000  -15.6212   20.1748 H   0  0  0  0  0  0
  -26.7074  -32.5562   23.1158 H   0  0  0  0  0  0
  -25.0137  -33.9834   25.0538 H   0  0  0  0  0  0
  -22.6848  -31.3110   21.4243 H   0  0  0  0  0  0
  -23.3783  -35.9600   23.3354 H   0  0  0  0  0  0
  -24.3565  -36.8841   22.2047 H   0  0  0  0  0  0
  -23.7180  -37.6501   23.6593 H   0  0  0  0  0  0
  -26.0389  -31.6115   20.6073 H   0  0  0  0  0  0
  -26.8188  -30.8876   21.9909 H   0  0  0  0  0  0
  -28.1018  -29.1231   21.1424 H   0  0  0  0  0  0
  -26.0832  -26.0014   18.9600 H   0  0  0  0  0  0
  -23.9768  -27.3015   19.0343 H   0  0  0  0  0  0
  -23.7264  -30.6171   19.4184 H   0  0  0  0  0  0
  -22.7293  -29.2633   19.8600 H   0  0  0  0  0  0
  -25.1292  -36.2063   25.0867 H   0  0  0  0  0  0
  -20.9913  -28.3348   24.1457 H   0  0  0  0  0  0
  -20.5775  -26.2339   23.3807 H   0  0  0  0  0  0
  -21.6693  -26.7442   22.1306 H   0  0  0  0  0  0
  -19.6949  -25.5992   21.1714 H   0  0  0  0  0  0
  -19.6703  -27.2702   20.6706 H   0  0  0  0  0  0
  -17.4193  -26.6423   21.4217 H   0  0  0  0  0  0
  -18.0363  -26.0049   22.9251 H   0  0  0  0  0  0
  -19.7897  -30.7319   24.2127 H   0  0  0  0  0  0
  -17.4985  -31.6355   24.4935 H   0  0  0  0  0  0
  -15.5354  -30.3001   23.7514 H   0  0  0  0  0  0
  -15.8668  -28.0699   22.7185 H   0  0  0  0  0  0
  -24.5857  -30.7129   25.7684 H   0  0  0  0  0  0
  -24.8865  -32.2902   26.4860 H   0  0  0  0  0  0
  -25.7979  -30.8871   27.0181 H   0  0  0  0  0  0
  -26.2911  -29.6843   24.1137 H   0  0  0  0  0  0
  -27.4084  -29.7363   25.4537 H   0  0  0  0  0  0
  -27.8686  -30.4430   23.9250 H   0  0  0  0  0  0
  -27.2789  -33.3639   26.2029 H   0  0  0  0  0  0
  -28.3862  -32.6852   25.0249 H   0  0  0  0  0  0
  -28.0739  -31.8425   26.5327 H   0  0  0  0  0  0
  -28.2657  -38.0076   24.7519 H   0  0  0  0  0  0
  -28.1036  -36.2625   24.6337 H   0  0  0  0  0  0
  -27.2293  -37.1506   25.8869 H   0  0  0  0  0  0
  -20.9314  -29.8868   21.7000 H   0  0  0  0  0  0
  -26.0231  -38.2930   24.1398 H   0  0  0  0  0  0
  -29.5963  -20.9828   20.4830 H   0  0  0  0  0  0
  -30.9602  -18.9884   20.8830 H   0  0  0  0  0  0
  -26.1584  -18.9609   22.1127 H   0  0  0  0  0  0
  -26.4926  -17.0238   23.4906 H   0  0  0  0  0  0
  -27.9686  -16.0780   23.4804 H   0  0  0  0  0  0
  -26.8395  -15.9621   22.1591 H   0  0  0  0  0  0
  -23.6797  -23.8378   23.4142 H   0  0  0  0  0  0
  -25.2103  -24.6927   23.4253 H   0  0  0  0  0  0
  -24.9839  -23.2376   24.3964 H   0  0  0  0  0  0
  -28.1793  -21.4788   23.5263 H   0  0  0  0  0  0
  -26.5450  -20.8519   23.7019 H   0  0  0  0  0  0
  -26.9774  -22.4164   24.3642 H   0  0  0  0  0  0
  -25.9268  -20.9668   20.7673 H   0  0  0  0  0  0
  -27.1983  -21.8214   20.0585 H   0  0  0  0  0  0
  -30.4584  -16.5487   23.1087 H   0  0  0  0  0  0
  -31.3228  -16.8714   21.6394 H   0  0  0  0  0  0
  -27.1786  -24.4804   22.7508 H   0  0  0  0  0  0
  -28.5893  -23.5123   22.6784 H   0  0  0  0  0  0
  -29.7006  -25.8444   21.2766 H   0  0  0  0  0  0
  -28.1626  -26.2793   21.9975 H   0  0  0  0  0  0
  -24.9186  -23.3143   21.3183 H   0  0  0  0  0  0
  -24.6241  -21.9116   22.2871 H   0  0  0  0  0  0
  -29.0668  -14.9370   21.8592 H   0  0  0  0  0  0
  1 25  1  0  0  0
  1 30  2  0  0  0
  1 87  1  0  0  0
  2  3  1  0  0  0
  2 25  1  0  0  0
  2 89  1  0  0  0
  2 90  1  0  0  0
  3  4  1  0  0  0
  3 91  1  0  0  0
  3 92  1  0  0  0
  4  5  1  0  0  0
  4 93  1  0  0  0
  4 94  1  0  0  0
  5  6  1  0  0  0
  5 26  1  0  0  0
  5 95  1  0  0  0
  6 25  1  0  0  0
  6 96  1  0  0  0
  6 97  1  0  0  0
  7  8  2  0  0  0
  7 26  1  0  0  0
  7 29  1  0  0  0
  8  9  1  0  0  0
  8 22  1  0  0  0
  9 10  1  0  0  0
  9 27  2  0  0  0
 10 11  2  0  0  0
 10 15  1  0  0  0
 11 12  1  0  0  0
 11 98  1  0  0  0
 12 13  2  0  0  0
 12 99  1  0  0  0
 13 14  1  0  0  0
 13 31  1  0  0  0
 14 15  2  0  0  0
 14100  1  0  0  0
 15101  1  0  0  0
 16 17  2  0  0  0
 16 21  1  0  0  0
 16 31  1  0  0  0
 17 18  1  0  0  0
 17102  1  0  0  0
 18 19  2  0  0  0
 18103  1  0  0  0
 19 20  1  0  0  0
 19 24  1  0  0  0
 20 21  2  0  0  0
 20104  1  0  0  0
 21 23  1  0  0  0
 22 28  1  0  0  0
 22 32  2  0  0  0
 26 27  1  0  0  0
 28105  1  0  0  0
 28106  1  0  0  0
 29107  1  0  0  0
 29108  1  0  0  0
 33 34  1  0  0  0
 33 66  1  0  0  0
 33 70  2  0  0  0
 34 36  1  0  0  0
 34 59  1  0  0  0
 34109  1  0  0  0
 35 44  2  0  0  0
 35 45  1  0  0  0
 35 68  1  0  0  0
 36 56  1  0  0  0
 36110  1  0  0  0
 37 39  1  0  0  0
 37 47  1  0  0  0
 37 66  1  0  0  0
 37111  1  0  0  0
 38 43  2  0  0  0
 38 46  1  0  0  0
 38 47  1  0  0  0
 39 64  1  0  0  0
 39 67  2  0  0  0
 40 52  1  0  0  0
 40 53  2  0  0  0
 40 58  1  0  0  0
 41112  1  0  0  0
 41113  1  0  0  0
 41114  1  0  0  0
 41 48  1  0  0  0
 42 43  1  0  0  0
 42 66  1  0  0  0
 42115  1  0  0  0
 42116  1  0  0  0
 43 44  1  0  0  0
 44117  1  0  0  0
 45 46  2  0  0  0
 45118  1  0  0  0
 46119  1  0  0  0
 47120  1  0  0  0
 47121  1  0  0  0
 48 56  1  0  0  0
 48 65  1  0  0  0
 48122  1  0  0  0
 49 50  1  0  0  0
 49 53  1  0  0  0
 49 64  1  0  0  0
 49123  1  0  0  0
 50 51  1  0  0  0
 50124  1  0  0  0
 50125  1  0  0  0
 51 52  1  0  0  0
 51126  1  0  0  0
 51127  1  0  0  0
 52128  1  0  0  0
 52129  1  0  0  0
 53 54  1  0  0  0
 54 55  2  0  0  0
 54130  1  0  0  0
 55 57  1  0  0  0
 55131  1  0  0  0
 56 69  2  0  0  0
 57 58  2  0  0  0
 57132  1  0  0  0
 58133  1  0  0  0
 59 60  1  0  0  0
 59 61  1  0  0  0
 59 62  1  0  0  0
 60134  1  0  0  0
 60135  1  0  0  0
 60136  1  0  0  0
 61137  1  0  0  0
 61138  1  0  0  0
 61139  1  0  0  0
 62140  1  0  0  0
 62141  1  0  0  0
 62142  1  0  0  0
 63 65  1  0  0  0
 63143  1  0  0  0
 63144  1  0  0  0
 63145  1  0  0  0
 64146  1  0  0  0
 65147  1  0  0  0
 68 84  1  0  0  0
 71 72  2  0  0  0
 71 74  1  0  0  0
 71148  1  0  0  0
 72 75  1  0  0  0
 72149  1  0  0  0
 73 74  2  0  0  0
 73 76  1  0  0  0
 73150  1  0  0  0
 74 81  1  0  0  0
 75 76  2  0  0  0
 75 82  1  0  0  0
 76 78  1  0  0  0
 77 83  1  0  0  0
 77 84  1  0  0  0
 77 88  2  0  0  0
 78151  1  0  0  0
 78152  1  0  0  0
 78153  1  0  0  0
 79 85  1  0  0  0
 79154  1  0  0  0
 79155  1  0  0  0
 79156  1  0  0  0
 80157  1  0  0  0
 80158  1  0  0  0
 80159  1  0  0  0
 80 86  1  0  0  0
 81 86  1  0  0  0
 81160  1  0  0  0
 81161  1  0  0  0
 82 87  1  0  0  0
 82162  1  0  0  0
 82163  1  0  0  0
 83 86  1  0  0  0
 83164  1  0  0  0
 83165  1  0  0  0
 84166  1  0  0  0
 84167  1  0  0  0
 85 86  1  0  0  0
 85168  1  0  0  0
 85169  1  0  0  0
 87170  1  0  0  0
M  ISO  4   1 100  68 101  84 101  87 100
M  END
> <chiral flag>
0

> <version>
0

> <s_m_source_file>
/data/baiqing/PycharmProjects/Reinvent-master-3.2/result/LINK_invent/BTK/process_docking_weight1_custom_product_contain_oxygen_bond_distance_aromatic_linkinvent_7_9_3/rearranged_h_0134.sdf

> <i_m_source_file_index>
71

> <r_mmod_Potential_Energy-OPLS-2005>
-18.0658721923828

> <r_mmod_Stretch_Energy-OPLS-2005>
47.3756217956543

> <r_mmod_Bend_Energy-OPLS-2005>
138.399993896484

> <r_mmod_Torsional_Energy-OPLS-2005>
218.705963134766

> <r_mmod_Improper_Torsional_Energy-OPLS-2005>
4.11173105239868

> <r_mmod_Van_der_Waal_Energy-OPLS-2005>
158.92497253418

> <r_mmod_Electrostatic_Energy-OPLS-2005>
-391.901916503906

> <r_mmod_Solvation_Energy-OPLS-2005>
-209.169372558594

> <b_mmod_Minimization_Converged-OPLS-2005>
0

> <r_mmod_RMS_Derivative-OPLS-2005>
8.24880123138428

$$$$
71
                    3D
 Structure written by MMmdl.
170179  0  0  1  0            999 V2000
  -30.6190  -14.5759   20.4950 C   0  0  0  0  0  0
  -30.4542  -12.3502   19.4104 C   0  0  0  0  0  0
  -29.4893  -12.4653   18.2052 C   0  0  0  0  0  0
  -28.0079  -12.3275   18.6286 C   0  0  0  0  0  0
  -27.6522  -13.1512   19.8928 C   0  0  2  0  0  0
  -28.7297  -12.9152   20.9784 C   0  0  0  0  0  0
  -25.2561  -13.7968   20.5742 C   0  0  0  0  0  0
  -24.1804  -13.0351   20.9263 C   0  0  0  0  0  0
  -24.6338  -11.6787   20.8930 C   0  0  0  0  0  0
  -23.9021  -10.4214   21.0565 C   0  0  0  0  0  0
  -24.3587   -9.4096   21.9299 C   0  0  0  0  0  0
  -23.6282   -8.2121   22.0748 C   0  0  0  0  0  0
  -22.4273   -8.0210   21.3516 C   0  0  0  0  0  0
  -21.9936   -9.0212   20.4629 C   0  0  0  0  0  0
  -22.7252  -10.2092   20.3140 C   0  0  0  0  0  0
  -21.6815   -6.0706   22.5265 C   0  0  0  0  0  0
  -21.3972   -6.5623   23.8189 C   0  0  0  0  0  0
  -21.3682   -5.6784   24.9174 C   0  0  0  0  0  0
  -21.6057   -4.3044   24.7228 C   0  0  0  0  0  0
  -21.8830   -3.8135   23.4353 C   0  0  0  0  0  0
  -21.9172   -4.6946   22.3402 C   0  0  0  0  0  0
  -22.7815  -13.5148   21.1900 C   0  0  0  0  0  0
  -22.1642   -4.2136   21.0979 F   0  0  0  0  0  0
  -21.5683   -3.4539   25.7755 F   0  0  0  0  0  0
  -30.0295  -13.3345   20.4294 N   0  0  0  0  0  0
  -26.2986  -12.9024   20.3604 N   0  0  0  0  0  0
  -25.9258  -11.6260   20.6042 N   0  0  0  0  0  0
  -22.0467  -12.8120   22.0445 N   0  0  0  0  0  0
  -25.4163  -15.1724   20.3973 N   0  0  0  0  0  0
  -31.8020  -14.6985   20.1587 O   0  0  0  0  0  0
  -21.6589   -6.8857   21.4229 O   0  0  0  0  0  0
  -22.3513  -14.5485   20.6752 O   0  0  0  0  0  0
  -24.6204  -31.8746   23.2142 C   0  0  0  0  0  0
  -25.9059  -32.4854   23.8453 C   0  0  1  0  0  0
  -27.2047  -27.4206   20.0898 C   0  0  0  0  0  0
  -25.5924  -33.8646   24.2379 N   0  0  0  0  0  0
  -23.4034  -30.5111   21.5578 C   0  0  2  0  0  0
  -24.8338  -28.9757   20.1309 C   0  0  0  0  0  0
  -22.7415  -29.4731   22.4973 C   0  0  0  0  0  0
  -18.0286  -28.1367   22.8498 C   0  0  0  0  0  0
  -24.1508  -36.7345   23.2640 C   0  0  0  0  0  0
  -25.9397  -30.8352   21.3690 C   0  0  0  0  0  0
  -26.0074  -29.4700   20.7137 C   0  0  0  0  0  0
  -27.1967  -28.7008   20.6916 C   0  0  0  0  0  0
  -25.9917  -26.9425   19.5258 C   0  0  0  0  0  0
  -24.8139  -27.6996   19.5574 C   0  0  0  0  0  0
  -23.6154  -29.8646   20.1676 C   0  0  0  0  0  0
  -25.4096  -36.3124   24.0364 C   0  0  1  0  0  0
  -20.5886  -28.3651   23.1290 C   0  0  2  0  0  0
  -20.6771  -26.9392   22.5383 C   0  0  0  0  0  0
  -19.5747  -26.6369   21.5192 C   0  0  0  0  0  0
  -18.1927  -26.7921   22.1627 C   0  0  0  0  0  0
  -19.1539  -28.8817   23.2913 C   0  0  0  0  0  0
  -18.9489  -30.1416   23.8930 C   0  0  0  0  0  0
  -17.6482  -30.6570   24.0557 C   0  0  0  0  0  0
  -25.9031  -34.9480   23.5170 C   0  0  0  0  0  0
  -16.5372  -29.9068   23.6312 C   0  0  0  0  0  0
  -16.7276  -28.6493   23.0341 C   0  0  0  0  0  0
  -26.4463  -31.6601   25.0766 C   0  0  0  0  0  0
  -25.3744  -31.3683   26.1526 C   0  0  0  0  0  0
  -27.0288  -30.3039   24.6148 C   0  0  0  0  0  0
  -27.6068  -32.4275   25.7541 C   0  0  0  0  0  0
  -27.5582  -37.1841   24.8462 C   0  0  0  0  0  0
  -21.4149  -29.3078   22.3693 N   0  0  0  0  0  0
  -26.4303  -37.3794   23.9421 N   0  0  0  0  0  0
  -24.6738  -31.0873   22.1029 N   0  0  0  0  0  0
  -23.4213  -28.8231   23.2956 O   0  0  0  0  0  0
  -28.3709  -26.6693   20.0778 O   0  0  0  0  0  0
  -26.5568  -34.8921   22.4720 O   0  0  0  0  0  0
  -23.5381  -32.1502   23.7489 O   0  0  0  0  0  0
  -32.2603  -18.3504   22.4577 C   0  0  0  0  0  0
  -31.6549  -17.1827   21.9194 C   0  0  0  0  0  0
  -29.9691  -18.4892   20.6337 C   0  0  0  0  0  0
  -31.6949  -19.5565   22.0297 C   0  0  0  0  0  0
  -30.5944  -19.6327   21.1331 C   0  0  0  0  0  0
  -30.5280  -17.2185   21.0262 C   0  0  0  0  0  0
  -31.6266  -21.0194   22.3739 C   0  0  0  0  0  0
  -30.3337  -21.1077   21.4161 C   0  0  1  0  0  0
  -29.1113  -16.1858   19.2548 C   0  0  0  0  0  0
  -28.6879  -15.8512   21.7781 C   0  0  0  0  0  0
  -30.8031  -25.3950   19.5950 C   0  0  0  0  0  0
  -29.6075  -23.8676   17.9886 C   0  0  0  0  0  0
  -30.3189  -22.0891   20.2267 C   0  0  0  0  0  0
  -29.5164  -23.3976   20.5096 C   0  0  0  0  0  0
  -28.2869  -25.3988   19.4126 C   0  0  0  0  0  0
  -29.7539  -15.9178   20.6489 C   0  0  0  0  0  0
  -29.5619  -24.5077   19.3957 C   0  0  0  0  0  0
  -31.4809  -12.5056   19.0705 H   0  0  0  0  0  0
  -30.4437  -11.3404   19.8275 H   0  0  0  0  0  0
  -29.7292  -11.6955   17.4711 H   0  0  0  0  0  0
  -29.6396  -13.4156   17.6926 H   0  0  0  0  0  0
  -27.8182  -11.2712   18.8239 H   0  0  0  0  0  0
  -27.3485  -12.5944   17.7997 H   0  0  0  0  0  0
  -27.6428  -14.1855   19.5958 H   0  0  0  0  0  0
  -28.7701  -11.8526   21.2198 H   0  0  0  0  0  0
  -28.5061  -13.3519   21.9471 H   0  0  0  0  0  0
  -25.2745   -9.5522   22.4893 H   0  0  0  0  0  0
  -23.9957   -7.4498   22.7457 H   0  0  0  0  0  0
  -21.0842   -8.8771   19.8955 H   0  0  0  0  0  0
  -22.3768  -10.9656   19.6249 H   0  0  0  0  0  0
  -21.1906   -7.6118   23.9691 H   0  0  0  0  0  0
  -21.1526   -6.0508   25.9065 H   0  0  0  0  0  0
  -22.0608   -2.7598   23.2846 H   0  0  0  0  0  0
  -22.4015  -11.9720   22.4792 H   0  0  0  0  0  0
  -21.1129  -13.1175   22.2753 H   0  0  0  0  0  0
  -24.6396  -15.8190   20.4965 H   0  0  0  0  0  0
  -26.2570  -15.6265   20.0656 H   0  0  0  0  0  0
  -26.7129  -32.5556   23.1215 H   0  0  0  0  0  0
  -25.0088  -33.9827   25.0554 H   0  0  0  0  0  0
  -22.6942  -31.3301   21.4201 H   0  0  0  0  0  0
  -23.3754  -35.9702   23.3302 H   0  0  0  0  0  0
  -24.3601  -36.8936   22.2056 H   0  0  0  0  0  0
  -23.7265  -37.6573   23.6620 H   0  0  0  0  0  0
  -26.0584  -31.5950   20.5932 H   0  0  0  0  0  0
  -26.8271  -30.8812   21.9887 H   0  0  0  0  0  0
  -28.1051  -29.0856   21.1327 H   0  0  0  0  0  0
  -25.8921  -25.9736   19.0630 H   0  0  0  0  0  0
  -23.8980  -27.2828   19.1562 H   0  0  0  0  0  0
  -23.7677  -30.6516   19.4269 H   0  0  0  0  0  0
  -22.7301  -29.3194   19.8370 H   0  0  0  0  0  0
  -25.1262  -36.2048   25.0855 H   0  0  0  0  0  0
  -21.0010  -28.3211   24.1400 H   0  0  0  0  0  0
  -20.5625  -26.2282   23.3588 H   0  0  0  0  0  0
  -21.6645  -26.7389   22.1221 H   0  0  0  0  0  0
  -19.6896  -25.6274   21.1229 H   0  0  0  0  0  0
  -19.6684  -27.3175   20.6722 H   0  0  0  0  0  0
  -17.4198  -26.6669   21.4026 H   0  0  0  0  0  0
  -18.0332  -26.0044   22.9007 H   0  0  0  0  0  0
  -19.7942  -30.7201   24.2363 H   0  0  0  0  0  0
  -17.5028  -31.6258   24.5136 H   0  0  0  0  0  0
  -15.5363  -30.2990   23.7575 H   0  0  0  0  0  0
  -15.8688  -28.0783   22.7060 H   0  0  0  0  0  0
  -24.5992  -30.6917   25.7917 H   0  0  0  0  0  0
  -24.8832  -32.2815   26.4903 H   0  0  0  0  0  0
  -25.8161  -30.8988   27.0341 H   0  0  0  0  0  0
  -26.2829  -29.6862   24.1135 H   0  0  0  0  0  0
  -27.3981  -29.7201   25.4599 H   0  0  0  0  0  0
  -27.8657  -30.4358   23.9277 H   0  0  0  0  0  0
  -27.2701  -33.3579   26.2192 H   0  0  0  0  0  0
  -28.3889  -32.6847   25.0383 H   0  0  0  0  0  0
  -28.0751  -31.8359   26.5430 H   0  0  0  0  0  0
  -28.2612  -38.0115   24.7471 H   0  0  0  0  0  0
  -28.1076  -36.2667   24.6347 H   0  0  0  0  0  0
  -27.2317  -37.1538   25.8862 H   0  0  0  0  0  0
  -20.9258  -29.8915   21.7062 H   0  0  0  0  0  0
  -26.0228  -38.2910   24.1336 H   0  0  0  0  0  0
  -33.0403  -18.3022   23.2069 H   0  0  0  0  0  0
  -32.0269  -16.2311   22.2613 H   0  0  0  0  0  0
  -29.0557  -18.5827   20.0616 H   0  0  0  0  0  0
  -32.5033  -21.5602   22.0158 H   0  0  0  0  0  0
  -31.4145  -21.1917   23.4306 H   0  0  0  0  0  0
  -29.3988  -21.1204   21.9766 H   0  0  0  0  0  0
  -29.0388  -15.3124   18.6185 H   0  0  0  0  0  0
  -28.1172  -16.6225   19.3412 H   0  0  0  0  0  0
  -29.7086  -16.8671   18.6527 H   0  0  0  0  0  0
  -27.8043  -15.2846   21.5169 H   0  0  0  0  0  0
  -29.1043  -15.4467   22.7035 H   0  0  0  0  0  0
  -28.3042  -16.8411   22.0321 H   0  0  0  0  0  0
  -30.8739  -25.7448   20.6259 H   0  0  0  0  0  0
  -30.7625  -26.2790   18.9542 H   0  0  0  0  0  0
  -31.7163  -24.8456   19.3674 H   0  0  0  0  0  0
  -28.7448  -23.2168   17.8410 H   0  0  0  0  0  0
  -30.4933  -23.2629   17.8107 H   0  0  0  0  0  0
  -29.5856  -24.6259   17.2034 H   0  0  0  0  0  0
  -29.8686  -21.5903   19.3695 H   0  0  0  0  0  0
  -31.3338  -22.3454   19.9262 H   0  0  0  0  0  0
  -29.8524  -23.8212   21.4589 H   0  0  0  0  0  0
  -28.4843  -23.1018   20.6963 H   0  0  0  0  0  0
  -27.9869  -25.6121   18.3835 H   0  0  0  0  0  0
  -27.4718  -24.8191   19.8386 H   0  0  0  0  0  0
  1 25  1  0  0  0
  1 30  2  0  0  0
  1 86  1  0  0  0
  2  3  1  0  0  0
  2 25  1  0  0  0
  2 88  1  0  0  0
  2 89  1  0  0  0
  3  4  1  0  0  0
  3 90  1  0  0  0
  3 91  1  0  0  0
  4  5  1  0  0  0
  4 92  1  0  0  0
  4 93  1  0  0  0
  5  6  1  0  0  0
  5 26  1  0  0  0
  5 94  1  0  0  0
  6 25  1  0  0  0
  6 95  1  0  0  0
  6 96  1  0  0  0
  7  8  2  0  0  0
  7 26  1  0  0  0
  7 29  1  0  0  0
  8  9  1  0  0  0
  8 22  1  0  0  0
  9 10  1  0  0  0
  9 27  2  0  0  0
 10 11  2  0  0  0
 10 15  1  0  0  0
 11 12  1  0  0  0
 11 97  1  0  0  0
 12 13  2  0  0  0
 12 98  1  0  0  0
 13 14  1  0  0  0
 13 31  1  0  0  0
 14 15  2  0  0  0
 14 99  1  0  0  0
 15100  1  0  0  0
 16 17  2  0  0  0
 16 21  1  0  0  0
 16 31  1  0  0  0
 17 18  1  0  0  0
 17101  1  0  0  0
 18 19  2  0  0  0
 18102  1  0  0  0
 19 20  1  0  0  0
 19 24  1  0  0  0
 20 21  2  0  0  0
 20103  1  0  0  0
 21 23  1  0  0  0
 22 28  1  0  0  0
 22 32  2  0  0  0
 26 27  1  0  0  0
 28104  1  0  0  0
 28105  1  0  0  0
 29106  1  0  0  0
 29107  1  0  0  0
 33 34  1  0  0  0
 33 66  1  0  0  0
 33 70  2  0  0  0
 34 36  1  0  0  0
 34 59  1  0  0  0
 34108  1  0  0  0
 35 44  2  0  0  0
 35 45  1  0  0  0
 35 68  1  0  0  0
 36 56  1  0  0  0
 36109  1  0  0  0
 37 39  1  0  0  0
 37 47  1  0  0  0
 37 66  1  0  0  0
 37110  1  0  0  0
 38 43  2  0  0  0
 38 46  1  0  0  0
 38 47  1  0  0  0
 39 64  1  0  0  0
 39 67  2  0  0  0
 40 52  1  0  0  0
 40 53  2  0  0  0
 40 58  1  0  0  0
 41111  1  0  0  0
 41112  1  0  0  0
 41113  1  0  0  0
 41 48  1  0  0  0
 42 43  1  0  0  0
 42 66  1  0  0  0
 42114  1  0  0  0
 42115  1  0  0  0
 43 44  1  0  0  0
 44116  1  0  0  0
 45 46  2  0  0  0
 45117  1  0  0  0
 46118  1  0  0  0
 47119  1  0  0  0
 47120  1  0  0  0
 48 56  1  0  0  0
 48 65  1  0  0  0
 48121  1  0  0  0
 49 50  1  0  0  0
 49 53  1  0  0  0
 49 64  1  0  0  0
 49122  1  0  0  0
 50 51  1  0  0  0
 50123  1  0  0  0
 50124  1  0  0  0
 51 52  1  0  0  0
 51125  1  0  0  0
 51126  1  0  0  0
 52127  1  0  0  0
 52128  1  0  0  0
 53 54  1  0  0  0
 54 55  2  0  0  0
 54129  1  0  0  0
 55 57  1  0  0  0
 55130  1  0  0  0
 56 69  2  0  0  0
 57 58  2  0  0  0
 57131  1  0  0  0
 58132  1  0  0  0
 59 60  1  0  0  0
 59 61  1  0  0  0
 59 62  1  0  0  0
 60133  1  0  0  0
 60134  1  0  0  0
 60135  1  0  0  0
 61136  1  0  0  0
 61137  1  0  0  0
 61138  1  0  0  0
 62139  1  0  0  0
 62140  1  0  0  0
 62141  1  0  0  0
 63 65  1  0  0  0
 63142  1  0  0  0
 63143  1  0  0  0
 63144  1  0  0  0
 64145  1  0  0  0
 65146  1  0  0  0
 68 85  1  0  0  0
 71 72  2  0  0  0
 71 74  1  0  0  0
 71147  1  0  0  0
 72 76  1  0  0  0
 72148  1  0  0  0
 73 75  1  0  0  0
 73 76  2  0  0  0
 73149  1  0  0  0
 74 75  2  0  0  0
 74 77  1  0  0  0
 75 78  1  0  0  0
 76 86  1  0  0  0
 77 78  1  0  0  0
 77150  1  0  0  0
 77151  1  0  0  0
 78 83  1  0  0  0
 78152  1  0  0  0
 79153  1  0  0  0
 79154  1  0  0  0
 79155  1  0  0  0
 79 86  1  0  0  0
 80 86  1  0  0  0
 80156  1  0  0  0
 80157  1  0  0  0
 80158  1  0  0  0
 81159  1  0  0  0
 81160  1  0  0  0
 81161  1  0  0  0
 81 87  1  0  0  0
 82 87  1  0  0  0
 82162  1  0  0  0
 82163  1  0  0  0
 82164  1  0  0  0
 83 84  1  0  0  0
 83165  1  0  0  0
 83166  1  0  0  0
 84 87  1  0  0  0
 84167  1  0  0  0
 84168  1  0  0  0
 85 87  1  0  0  0
 85169  1  0  0  0
 85170  1  0  0  0
M  ISO  4   1 100  68 101  85 101  86 100
M  END
> <chiral flag>
0

> <version>
0

> <s_m_source_file>
/data/baiqing/PycharmProjects/Reinvent-master-3.2/result/LINK_invent/BTK/process_docking_weight1_custom_product_contain_oxygen_bond_distance_aromatic_linkinvent_7_9_3/rearranged_h_0134.sdf

> <i_m_source_file_index>
72

> <r_mmod_Potential_Energy-OPLS-2005>
587.212097167969

> <r_mmod_Stretch_Energy-OPLS-2005>
77.7306900024414

> <r_mmod_Bend_Energy-OPLS-2005>
491.336181640625

> <r_mmod_Torsional_Energy-OPLS-2005>
260.153381347656

> <r_mmod_Improper_Torsional_Energy-OPLS-2005>
15.373085975647

> <r_mmod_Van_der_Waal_Energy-OPLS-2005>
197.919555664062

> <r_mmod_Electrostatic_Energy-OPLS-2005>
-299.969024658203

> <r_mmod_Solvation_Energy-OPLS-2005>
-182.381423950195

> <b_mmod_Minimization_Converged-OPLS-2005>
0

> <r_mmod_RMS_Derivative-OPLS-2005>
6.95648622512817

$$$$
72
                    3D
 Structure written by MMmdl.
167175  0  0  1  0            999 V2000
  -30.7368  -14.4075   20.6513 C   0  0  0  0  0  0
  -30.4252  -12.2959   19.4062 C   0  0  0  0  0  0
  -29.4911  -12.5194   18.2008 C   0  0  0  0  0  0
  -28.0143  -12.3749   18.6162 C   0  0  0  0  0  0
  -27.6684  -13.2017   19.8828 C   0  0  2  0  0  0
  -28.7081  -12.9425   20.9957 C   0  0  0  0  0  0
  -25.2610  -13.8160   20.5655 C   0  0  0  0  0  0
  -24.1853  -13.0444   20.9162 C   0  0  0  0  0  0
  -24.6393  -11.6907   20.8730 C   0  0  0  0  0  0
  -23.9057  -10.4298   21.0396 C   0  0  0  0  0  0
  -24.3608   -9.4219   21.9179 C   0  0  0  0  0  0
  -23.6287   -8.2255   22.0756 C   0  0  0  0  0  0
  -22.4271   -8.0283   21.3547 C   0  0  0  0  0  0
  -21.9907   -9.0255   20.4645 C   0  0  0  0  0  0
  -22.7233  -10.2133   20.3047 C   0  0  0  0  0  0
  -21.6853   -6.0736   22.5281 C   0  0  0  0  0  0
  -21.4014   -6.5636   23.8215 C   0  0  0  0  0  0
  -21.3662   -5.6787   24.9175 C   0  0  0  0  0  0
  -21.6043   -4.3051   24.7223 C   0  0  0  0  0  0
  -21.8822   -3.8146   23.4344 C   0  0  0  0  0  0
  -21.9190   -4.6963   22.3402 C   0  0  0  0  0  0
  -22.7876  -13.5250   21.1832 C   0  0  0  0  0  0
  -22.1657   -4.2146   21.0980 F   0  0  0  0  0  0
  -21.5630   -3.4535   25.7736 F   0  0  0  0  0  0
  -30.0471  -13.2510   20.4582 N   0  0  0  0  0  0
  -26.3053  -12.9322   20.3393 N   0  0  0  0  0  0
  -25.9324  -11.6483   20.5779 N   0  0  0  0  0  0
  -22.0505  -12.8239   22.0368 N   0  0  0  0  0  0
  -25.4347  -15.1875   20.4045 N   0  0  0  0  0  0
  -31.7935  -14.6680   20.0681 O   0  0  0  0  0  0
  -21.6638   -6.8878   21.4245 O   0  0  0  0  0  0
  -22.3559  -14.5558   20.6682 O   0  0  0  0  0  0
  -24.6140  -31.8688   23.2105 C   0  0  0  0  0  0
  -25.9038  -32.4822   23.8378 C   0  0  1  0  0  0
  -27.2263  -27.4324   20.0878 C   0  0  0  0  0  0
  -25.5917  -33.8616   24.2334 N   0  0  0  0  0  0
  -23.3999  -30.4940   21.5505 C   0  0  2  0  0  0
  -24.8422  -28.9609   20.1146 C   0  0  0  0  0  0
  -22.7406  -29.4669   22.4992 C   0  0  0  0  0  0
  -18.0279  -28.1380   22.8513 C   0  0  0  0  0  0
  -24.1495  -36.7295   23.2631 C   0  0  0  0  0  0
  -25.9283  -30.8358   21.3589 C   0  0  0  0  0  0
  -26.0042  -29.4690   20.7083 C   0  0  0  0  0  0
  -27.1981  -28.7132   20.6899 C   0  0  0  0  0  0
  -26.0466  -26.9489   19.4750 C   0  0  0  0  0  0
  -24.8586  -27.6999   19.4955 C   0  0  0  0  0  0
  -23.6063  -29.8274   20.1657 C   0  0  0  0  0  0
  -25.4106  -36.3108   24.0356 C   0  0  1  0  0  0
  -20.5877  -28.3649   23.1331 C   0  0  2  0  0  0
  -20.6773  -26.9391   22.5419 C   0  0  0  0  0  0
  -19.5747  -26.6405   21.5220 C   0  0  0  0  0  0
  -18.1925  -26.7937   22.1626 C   0  0  0  0  0  0
  -19.1534  -28.8826   23.2931 C   0  0  0  0  0  0
  -18.9461  -30.1431   23.8934 C   0  0  0  0  0  0
  -17.6465  -30.6598   24.0571 C   0  0  0  0  0  0
  -25.9035  -34.9479   23.5135 C   0  0  0  0  0  0
  -16.5350  -29.9103   23.6329 C   0  0  0  0  0  0
  -16.7268  -28.6514   23.0368 C   0  0  0  0  0  0
  -26.4474  -31.6575   25.0673 C   0  0  0  0  0  0
  -25.3763  -31.3661   26.1432 C   0  0  0  0  0  0
  -27.0263  -30.3024   24.5965 C   0  0  0  0  0  0
  -27.6061  -32.4270   25.7453 C   0  0  0  0  0  0
  -27.5588  -37.1799   24.8478 C   0  0  0  0  0  0
  -21.4130  -29.3042   22.3745 N   0  0  0  0  0  0
  -26.4298  -37.3788   23.9424 N   0  0  0  0  0  0
  -24.6662  -31.0804   22.0983 N   0  0  0  0  0  0
  -23.4191  -28.8212   23.3011 O   0  0  0  0  0  0
  -28.4110  -26.7225   20.0831 O   0  0  0  0  0  0
  -26.5587  -34.8937   22.4686 O   0  0  0  0  0  0
  -23.5348  -32.1427   23.7528 O   0  0  0  0  0  0
  -27.5506  -18.9326   21.8490 C   0  0  0  0  0  0
  -28.0718  -20.0539   21.1807 C   0  0  0  0  0  0
  -30.1886  -18.8935   20.9350 C   0  0  0  0  0  0
  -28.3390  -17.7862   22.0857 C   0  0  0  0  0  0
  -29.6856  -17.7584   21.6206 C   0  0  0  0  0  0
  -29.4070  -20.0524   20.7247 C   0  0  0  0  0  0
  -29.4129  -24.6777   19.2388 C   0  0  0  0  0  0
  -30.0147  -23.4726   19.3584 C   0  0  0  0  0  0
  -28.0833  -16.6200   24.3411 C   0  0  0  0  0  0
  -32.5010  -23.2164   18.9508 C   0  0  0  0  0  0
  -27.6842  -16.6473   22.8610 C   0  0  0  0  0  0
  -30.6563  -16.5965   21.8868 C   0  0  0  0  0  0
  -28.3679  -25.2871   20.1556 C   0  0  0  0  0  0
  -31.0939  -23.0769   18.3595 C   0  0  0  0  0  0
  -29.6847  -22.4502   20.4533 C   0  0  0  0  0  0
  -30.1730  -15.2658   21.5109 N   0  0  0  0  0  0
  -29.9732  -21.1067   20.0369 O   0  0  0  0  0  0
  -31.4691  -12.3983   19.1039 H   0  0  0  0  0  0
  -30.3282  -11.2754   19.7800 H   0  0  0  0  0  0
  -29.7291  -11.8131   17.4041 H   0  0  0  0  0  0
  -29.6584  -13.5152   17.7874 H   0  0  0  0  0  0
  -27.8237  -11.3172   18.8025 H   0  0  0  0  0  0
  -27.3625  -12.6568   17.7888 H   0  0  0  0  0  0
  -27.7267  -14.2553   19.6083 H   0  0  0  0  0  0
  -28.6769  -11.8956   21.2988 H   0  0  0  0  0  0
  -28.4594  -13.4988   21.8978 H   0  0  0  0  0  0
  -25.2756   -9.5692   22.4743 H   0  0  0  0  0  0
  -23.9994   -7.4650   22.7478 H   0  0  0  0  0  0
  -21.0844   -8.8779   19.8947 H   0  0  0  0  0  0
  -22.3711  -10.9663   19.6143 H   0  0  0  0  0  0
  -21.2009   -7.6144   23.9718 H   0  0  0  0  0  0
  -21.1479   -6.0514   25.9075 H   0  0  0  0  0  0
  -22.0596   -2.7608   23.2847 H   0  0  0  0  0  0
  -22.4094  -11.9877   22.4735 H   0  0  0  0  0  0
  -21.1121  -13.1269   22.2567 H   0  0  0  0  0  0
  -24.6700  -15.8450   20.5069 H   0  0  0  0  0  0
  -26.2915  -15.6233   20.0861 H   0  0  0  0  0  0
  -26.7103  -32.5535   23.1144 H   0  0  0  0  0  0
  -25.0140  -33.9769   25.0529 H   0  0  0  0  0  0
  -22.6896  -31.3119   21.4118 H   0  0  0  0  0  0
  -23.3770  -35.9613   23.3313 H   0  0  0  0  0  0
  -24.3600  -36.8860   22.2040 H   0  0  0  0  0  0
  -23.7241  -37.6511   23.6609 H   0  0  0  0  0  0
  -26.0350  -31.5989   20.5868 H   0  0  0  0  0  0
  -26.8218  -30.8937   21.9686 H   0  0  0  0  0  0
  -28.0977  -29.1045   21.1442 H   0  0  0  0  0  0
  -26.0238  -26.0064   18.9487 H   0  0  0  0  0  0
  -23.9671  -27.3114   19.0216 H   0  0  0  0  0  0
  -23.7128  -30.5995   19.4035 H   0  0  0  0  0  0
  -22.7294  -29.2452   19.8760 H   0  0  0  0  0  0
  -25.1291  -36.1959   25.0855 H   0  0  0  0  0  0
  -20.9987  -28.3200   24.1447 H   0  0  0  0  0  0
  -20.5673  -26.2243   23.3591 H   0  0  0  0  0  0
  -21.6636  -26.7458   22.1180 H   0  0  0  0  0  0
  -19.6904  -25.6336   21.1204 H   0  0  0  0  0  0
  -19.6684  -27.3244   20.6778 H   0  0  0  0  0  0
  -17.4196  -26.6714   21.4027 H   0  0  0  0  0  0
  -18.0312  -26.0069   22.9012 H   0  0  0  0  0  0
  -19.7929  -30.7255   24.2311 H   0  0  0  0  0  0
  -17.5017  -31.6270   24.5183 H   0  0  0  0  0  0
  -15.5351  -30.3014   23.7638 H   0  0  0  0  0  0
  -15.8672  -28.0844   22.7068 H   0  0  0  0  0  0
  -24.6000  -30.6915   25.7809 H   0  0  0  0  0  0
  -24.8879  -32.2799   26.4830 H   0  0  0  0  0  0
  -25.8173  -30.8919   27.0208 H   0  0  0  0  0  0
  -26.2753  -29.6828   24.1037 H   0  0  0  0  0  0
  -27.4098  -29.7205   25.4355 H   0  0  0  0  0  0
  -27.8583  -30.4378   23.9042 H   0  0  0  0  0  0
  -27.2694  -33.3583   26.2022 H   0  0  0  0  0  0
  -28.3898  -32.6776   25.0296 H   0  0  0  0  0  0
  -28.0667  -31.8360   26.5377 H   0  0  0  0  0  0
  -28.2617  -38.0089   24.7530 H   0  0  0  0  0  0
  -28.1084  -36.2626   24.6308 H   0  0  0  0  0  0
  -27.2309  -37.1444   25.8882 H   0  0  0  0  0  0
  -20.9270  -29.8777   21.6997 H   0  0  0  0  0  0
  -26.0196  -38.2874   24.1415 H   0  0  0  0  0  0
  -26.5258  -18.9661   22.1914 H   0  0  0  0  0  0
  -27.4171  -20.8960   21.0124 H   0  0  0  0  0  0
  -31.2095  -18.8915   20.5801 H   0  0  0  0  0  0
  -29.6900  -25.3109   18.4088 H   0  0  0  0  0  0
  -27.5703  -15.8131   24.8653 H   0  0  0  0  0  0
  -27.8141  -17.5556   24.8334 H   0  0  0  0  0  0
  -29.1538  -16.4700   24.4740 H   0  0  0  0  0  0
  -33.2569  -23.0052   18.1945 H   0  0  0  0  0  0
  -32.6575  -22.5309   19.7846 H   0  0  0  0  0  0
  -32.6741  -24.2306   19.3125 H   0  0  0  0  0  0
  -27.8703  -15.6880   22.3891 H   0  0  0  0  0  0
  -26.6012  -16.7571   22.7976 H   0  0  0  0  0  0
  -30.8862  -16.5814   22.9516 H   0  0  0  0  0  0
  -31.6120  -16.8042   21.4013 H   0  0  0  0  0  0
  -28.5865  -24.9969   21.1833 H   0  0  0  0  0  0
  -27.4084  -24.8323   19.9229 H   0  0  0  0  0  0
  -31.0221  -23.7081   17.4731 H   0  0  0  0  0  0
  -30.9282  -22.0618   18.0013 H   0  0  0  0  0  0
  -28.6514  -22.5912   20.7638 H   0  0  0  0  0  0
  -30.3068  -22.6679   21.3227 H   0  0  0  0  0  0
  -29.3326  -14.9458   21.9648 H   0  0  0  0  0  0
  1 25  1  0  0  0
  1 30  2  0  0  0
  1 86  1  0  0  0
  2  3  1  0  0  0
  2 25  1  0  0  0
  2 88  1  0  0  0
  2 89  1  0  0  0
  3  4  1  0  0  0
  3 90  1  0  0  0
  3 91  1  0  0  0
  4  5  1  0  0  0
  4 92  1  0  0  0
  4 93  1  0  0  0
  5  6  1  0  0  0
  5 26  1  0  0  0
  5 94  1  0  0  0
  6 25  1  0  0  0
  6 95  1  0  0  0
  6 96  1  0  0  0
  7  8  2  0  0  0
  7 26  1  0  0  0
  7 29  1  0  0  0
  8  9  1  0  0  0
  8 22  1  0  0  0
  9 10  1  0  0  0
  9 27  2  0  0  0
 10 11  2  0  0  0
 10 15  1  0  0  0
 11 12  1  0  0  0
 11 97  1  0  0  0
 12 13  2  0  0  0
 12 98  1  0  0  0
 13 14  1  0  0  0
 13 31  1  0  0  0
 14 15  2  0  0  0
 14 99  1  0  0  0
 15100  1  0  0  0
 16 17  2  0  0  0
 16 21  1  0  0  0
 16 31  1  0  0  0
 17 18  1  0  0  0
 17101  1  0  0  0
 18 19  2  0  0  0
 18102  1  0  0  0
 19 20  1  0  0  0
 19 24  1  0  0  0
 20 21  2  0  0  0
 20103  1  0  0  0
 21 23  1  0  0  0
 22 28  1  0  0  0
 22 32  2  0  0  0
 26 27  1  0  0  0
 28104  1  0  0  0
 28105  1  0  0  0
 29106  1  0  0  0
 29107  1  0  0  0
 33 34  1  0  0  0
 33 66  1  0  0  0
 33 70  2  0  0  0
 34 36  1  0  0  0
 34 59  1  0  0  0
 34108  1  0  0  0
 35 44  2  0  0  0
 35 45  1  0  0  0
 35 68  1  0  0  0
 36 56  1  0  0  0
 36109  1  0  0  0
 37 39  1  0  0  0
 37 47  1  0  0  0
 37 66  1  0  0  0
 37110  1  0  0  0
 38 43  2  0  0  0
 38 46  1  0  0  0
 38 47  1  0  0  0
 39 64  1  0  0  0
 39 67  2  0  0  0
 40 52  1  0  0  0
 40 53  2  0  0  0
 40 58  1  0  0  0
 41111  1  0  0  0
 41112  1  0  0  0
 41113  1  0  0  0
 41 48  1  0  0  0
 42 43  1  0  0  0
 42 66  1  0  0  0
 42114  1  0  0  0
 42115  1  0  0  0
 43 44  1  0  0  0
 44116  1  0  0  0
 45 46  2  0  0  0
 45117  1  0  0  0
 46118  1  0  0  0
 47119  1  0  0  0
 47120  1  0  0  0
 48 56  1  0  0  0
 48 65  1  0  0  0
 48121  1  0  0  0
 49 50  1  0  0  0
 49 53  1  0  0  0
 49 64  1  0  0  0
 49122  1  0  0  0
 50 51  1  0  0  0
 50123  1  0  0  0
 50124  1  0  0  0
 51 52  1  0  0  0
 51125  1  0  0  0
 51126  1  0  0  0
 52127  1  0  0  0
 52128  1  0  0  0
 53 54  1  0  0  0
 54 55  2  0  0  0
 54129  1  0  0  0
 55 57  1  0  0  0
 55130  1  0  0  0
 56 69  2  0  0  0
 57 58  2  0  0  0
 57131  1  0  0  0
 58132  1  0  0  0
 59 60  1  0  0  0
 59 61  1  0  0  0
 59 62  1  0  0  0
 60133  1  0  0  0
 60134  1  0  0  0
 60135  1  0  0  0
 61136  1  0  0  0
 61137  1  0  0  0
 61138  1  0  0  0
 62139  1  0  0  0
 62140  1  0  0  0
 62141  1  0  0  0
 63 65  1  0  0  0
 63142  1  0  0  0
 63143  1  0  0  0
 63144  1  0  0  0
 64145  1  0  0  0
 65146  1  0  0  0
 68 83  1  0  0  0
 71 72  2  0  0  0
 71 74  1  0  0  0
 71147  1  0  0  0
 72 76  1  0  0  0
 72148  1  0  0  0
 73 75  1  0  0  0
 73 76  2  0  0  0
 73149  1  0  0  0
 74 75  2  0  0  0
 74 81  1  0  0  0
 75 82  1  0  0  0
 76 87  1  0  0  0
 77 78  2  0  0  0
 77 83  1  0  0  0
 77150  1  0  0  0
 78 84  1  0  0  0
 78 85  1  0  0  0
 79 81  1  0  0  0
 79151  1  0  0  0
 79152  1  0  0  0
 79153  1  0  0  0
 80 84  1  0  0  0
 80154  1  0  0  0
 80155  1  0  0  0
 80156  1  0  0  0
 81157  1  0  0  0
 81158  1  0  0  0
 82 86  1  0  0  0
 82159  1  0  0  0
 82160  1  0  0  0
 83161  1  0  0  0
 83162  1  0  0  0
 84163  1  0  0  0
 84164  1  0  0  0
 85 87  1  0  0  0
 85165  1  0  0  0
 85166  1  0  0  0
 86167  1  0  0  0
M  ISO  4   1 100  68 101  83 101  86 100
M  END
> <chiral flag>
0

> <version>
0

> <s_m_source_file>
/data/baiqing/PycharmProjects/Reinvent-master-3.2/result/LINK_invent/BTK/process_docking_weight1_custom_product_contain_oxygen_bond_distance_aromatic_linkinvent_7_9_3/rearranged_h_0134.sdf

> <i_m_source_file_index>
73

> <r_mmod_Potential_Energy-OPLS-2005>
-89.6906967163086

> <r_mmod_Stretch_Energy-OPLS-2005>
38.1602554321289

> <r_mmod_Bend_Energy-OPLS-2005>
109.813285827637

> <r_mmod_Torsional_Energy-OPLS-2005>
213.785095214844

> <r_mmod_Improper_Torsional_Energy-OPLS-2005>
2.07062244415283

> <r_mmod_Van_der_Waal_Energy-OPLS-2005>
156.220642089844

> <r_mmod_Electrostatic_Energy-OPLS-2005>
-418.315216064453

> <r_mmod_Solvation_Energy-OPLS-2005>
-200.120727539062

> <b_mmod_Minimization_Converged-OPLS-2005>
0

> <r_mmod_RMS_Derivative-OPLS-2005>
2.35070538520813

$$$$
73
                    3D
 Structure written by MMmdl.
167175  0  0  1  0            999 V2000
  -30.6192  -14.5933   20.5172 C   0  0  0  0  0  0
  -30.4398  -12.3710   19.4275 C   0  0  0  0  0  0
  -29.4966  -12.4991   18.2098 C   0  0  0  0  0  0
  -28.0208  -12.3378   18.6300 C   0  0  0  0  0  0
  -27.6515  -13.2052   19.8614 C   0  0  2  0  0  0
  -28.6982  -13.0354   20.9850 C   0  0  0  0  0  0
  -25.2552  -13.8165   20.5688 C   0  0  0  0  0  0
  -24.1801  -13.0435   20.9201 C   0  0  0  0  0  0
  -24.6362  -11.6910   20.8746 C   0  0  0  0  0  0
  -23.9040  -10.4291   21.0421 C   0  0  0  0  0  0
  -24.3606   -9.4204   21.9179 C   0  0  0  0  0  0
  -23.6289   -8.2234   22.0748 C   0  0  0  0  0  0
  -22.4271   -8.0278   21.3545 C   0  0  0  0  0  0
  -21.9901   -9.0249   20.4643 C   0  0  0  0  0  0
  -22.7223  -10.2131   20.3057 C   0  0  0  0  0  0
  -21.6844   -6.0732   22.5271 C   0  0  0  0  0  0
  -21.4012   -6.5642   23.8205 C   0  0  0  0  0  0
  -21.3652   -5.6795   24.9164 C   0  0  0  0  0  0
  -21.6046   -4.3057   24.7215 C   0  0  0  0  0  0
  -21.8824   -3.8150   23.4338 C   0  0  0  0  0  0
  -21.9195   -4.6963   22.3393 C   0  0  0  0  0  0
  -22.7834  -13.5238   21.1864 C   0  0  0  0  0  0
  -22.1662   -4.2148   21.0966 F   0  0  0  0  0  0
  -21.5625   -3.4538   25.7728 F   0  0  0  0  0  0
  -30.0121  -13.3749   20.4170 N   0  0  0  0  0  0
  -26.2966  -12.9306   20.3325 N   0  0  0  0  0  0
  -25.9287  -11.6479   20.5771 N   0  0  0  0  0  0
  -22.0483  -12.8221   22.0423 N   0  0  0  0  0  0
  -25.4295  -15.1878   20.4057 N   0  0  0  0  0  0
  -31.7914  -14.7732   20.1704 O   0  0  0  0  0  0
  -21.6638   -6.8875   21.4240 O   0  0  0  0  0  0
  -22.3518  -14.5530   20.6708 O   0  0  0  0  0  0
  -24.6207  -31.8611   23.2039 C   0  0  0  0  0  0
  -25.9057  -32.4780   23.8369 C   0  0  1  0  0  0
  -27.2352  -27.3626   20.1112 C   0  0  0  0  0  0
  -25.5885  -33.8588   24.2313 N   0  0  0  0  0  0
  -23.4149  -30.4800   21.5486 C   0  0  2  0  0  0
  -24.8599  -28.9361   20.1171 C   0  0  0  0  0  0
  -22.7446  -29.4613   22.4986 C   0  0  0  0  0  0
  -18.0268  -28.1367   22.8477 C   0  0  0  0  0  0
  -24.1493  -36.7309   23.2647 C   0  0  0  0  0  0
  -25.9500  -30.8079   21.3650 C   0  0  0  0  0  0
  -26.0260  -29.4367   20.7096 C   0  0  0  0  0  0
  -27.2183  -28.6622   20.6907 C   0  0  0  0  0  0
  -26.0508  -26.8993   19.4986 C   0  0  0  0  0  0
  -24.8722  -27.6713   19.5032 C   0  0  0  0  0  0
  -23.6236  -29.8081   20.1668 C   0  0  0  0  0  0
  -25.4113  -36.3106   24.0348 C   0  0  1  0  0  0
  -20.5868  -28.3670   23.1303 C   0  0  2  0  0  0
  -20.6762  -26.9402   22.5419 C   0  0  0  0  0  0
  -19.5757  -26.6378   21.5199 C   0  0  0  0  0  0
  -18.1921  -26.7909   22.1606 C   0  0  0  0  0  0
  -19.1516  -28.8838   23.2877 C   0  0  0  0  0  0
  -18.9438  -30.1442   23.8896 C   0  0  0  0  0  0
  -17.6437  -30.6571   24.0552 C   0  0  0  0  0  0
  -25.9038  -34.9463   23.5148 C   0  0  0  0  0  0
  -16.5330  -29.9070   23.6324 C   0  0  0  0  0  0
  -16.7255  -28.6483   23.0346 C   0  0  0  0  0  0
  -26.4460  -31.6562   25.0707 C   0  0  0  0  0  0
  -25.3711  -31.3640   26.1433 C   0  0  0  0  0  0
  -27.0296  -30.3009   24.6093 C   0  0  0  0  0  0
  -27.6062  -32.4265   25.7440 C   0  0  0  0  0  0
  -27.5589  -37.1810   24.8468 C   0  0  0  0  0  0
  -21.4168  -29.3005   22.3698 N   0  0  0  0  0  0
  -26.4310  -37.3783   23.9398 N   0  0  0  0  0  0
  -24.6807  -31.0659   22.0961 N   0  0  0  0  0  0
  -23.4173  -28.8165   23.3065 O   0  0  0  0  0  0
  -28.3806  -26.5699   20.1336 O   0  0  0  0  0  0
  -26.5628  -34.8924   22.4728 O   0  0  0  0  0  0
  -23.5385  -32.1386   23.7401 O   0  0  0  0  0  0
  -30.6411  -18.5110   23.0134 C   0  0  0  0  0  0
  -29.7636  -18.1372   20.4039 C   0  0  0  0  0  0
  -30.4272  -17.1971   22.5533 C   0  0  0  0  0  0
  -30.4368  -19.6501   22.1965 C   0  0  0  0  0  0
  -30.0415  -16.9825   21.2109 C   0  0  0  0  0  0
  -29.9172  -19.4874   20.8782 C   0  0  0  0  0  0
  -28.6002  -24.1928   19.3019 C   0  0  0  0  0  0
  -28.8743  -22.8476   19.2257 C   0  0  0  0  0  0
  -30.5877  -16.0354   23.5255 C   0  0  0  0  0  0
  -32.0036  -21.0227   23.7489 C   0  0  0  0  0  0
  -30.6653  -22.2977   17.5064 C   0  0  0  0  0  0
  -30.8439  -21.0180   22.7426 C   0  0  0  0  0  0
  -28.2471  -25.1445   20.4648 C   0  0  0  0  0  0
  -29.1676  -22.2786   17.8426 C   0  0  0  0  0  0
  -28.9160  -21.7726   20.3573 C   0  0  0  0  0  0
  -29.7705  -15.6293   20.7725 N   0  0  0  0  0  0
  -29.6759  -20.5612   20.0001 O   0  0  0  0  0  0
  -31.4749  -12.5175   19.1144 H   0  0  0  0  0  0
  -30.3910  -11.3681   19.8559 H   0  0  0  0  0  0
  -29.7529  -11.7556   17.4536 H   0  0  0  0  0  0
  -29.6348  -13.4746   17.7387 H   0  0  0  0  0  0
  -27.8593  -11.2858   18.8642 H   0  0  0  0  0  0
  -27.3610  -12.5673   17.7924 H   0  0  0  0  0  0
  -27.6755  -14.2427   19.5282 H   0  0  0  0  0  0
  -28.7044  -12.0070   21.3509 H   0  0  0  0  0  0
  -28.4534  -13.6548   21.8490 H   0  0  0  0  0  0
  -25.2755   -9.5678   22.4742 H   0  0  0  0  0  0
  -24.0006   -7.4624   22.7467 H   0  0  0  0  0  0
  -21.0828   -8.8775   19.8940 H   0  0  0  0  0  0
  -22.3697  -10.9675   19.6161 H   0  0  0  0  0  0
  -21.2010   -7.6147   23.9708 H   0  0  0  0  0  0
  -21.1464   -6.0515   25.9064 H   0  0  0  0  0  0
  -22.0615   -2.7612   23.2832 H   0  0  0  0  0  0
  -22.4113  -11.9894   22.4819 H   0  0  0  0  0  0
  -21.1101  -13.1240   22.2617 H   0  0  0  0  0  0
  -24.6692  -15.8497   20.5193 H   0  0  0  0  0  0
  -26.2719  -15.6217   20.0514 H   0  0  0  0  0  0
  -26.7128  -32.5482   23.1137 H   0  0  0  0  0  0
  -24.9975  -33.9742   25.0413 H   0  0  0  0  0  0
  -22.7064  -31.2982   21.4061 H   0  0  0  0  0  0
  -23.3759  -35.9636   23.3310 H   0  0  0  0  0  0
  -24.3592  -36.8916   22.2060 H   0  0  0  0  0  0
  -23.7230  -37.6514   23.6648 H   0  0  0  0  0  0
  -26.0723  -31.5713   20.5954 H   0  0  0  0  0  0
  -26.8365  -30.8626   21.9863 H   0  0  0  0  0  0
  -28.1205  -29.0475   21.1435 H   0  0  0  0  0  0
  -26.0327  -25.9320   19.0158 H   0  0  0  0  0  0
  -23.9780  -27.2842   19.0363 H   0  0  0  0  0  0
  -23.7339  -30.5818   19.4049 H   0  0  0  0  0  0
  -22.7458  -29.2270   19.8751 H   0  0  0  0  0  0
  -25.1290  -36.1993   25.0840 H   0  0  0  0  0  0
  -20.9939  -28.3233   24.1436 H   0  0  0  0  0  0
  -20.5644  -26.2268   23.3599 H   0  0  0  0  0  0
  -21.6632  -26.7429   22.1223 H   0  0  0  0  0  0
  -19.6932  -25.6291   21.1221 H   0  0  0  0  0  0
  -19.6707  -27.3194   20.6731 H   0  0  0  0  0  0
  -17.4188  -26.6635   21.4007 H   0  0  0  0  0  0
  -18.0348  -26.0051   22.9009 H   0  0  0  0  0  0
  -19.7911  -30.7249   24.2263 H   0  0  0  0  0  0
  -17.4989  -31.6255   24.5154 H   0  0  0  0  0  0
  -15.5331  -30.2967   23.7651 H   0  0  0  0  0  0
  -15.8644  -28.0797   22.7083 H   0  0  0  0  0  0
  -24.5909  -30.6981   25.7719 H   0  0  0  0  0  0
  -24.8865  -32.2770   26.4898 H   0  0  0  0  0  0
  -25.8040  -30.8767   27.0176 H   0  0  0  0  0  0
  -26.2846  -29.6761   24.1149 H   0  0  0  0  0  0
  -27.4073  -29.7238   25.4539 H   0  0  0  0  0  0
  -27.8672  -30.4327   23.9242 H   0  0  0  0  0  0
  -27.2733  -33.3572   26.2036 H   0  0  0  0  0  0
  -28.3831  -32.6798   25.0216 H   0  0  0  0  0  0
  -28.0767  -31.8362   26.5308 H   0  0  0  0  0  0
  -28.2622  -38.0095   24.7509 H   0  0  0  0  0  0
  -28.1083  -36.2633   24.6315 H   0  0  0  0  0  0
  -27.2311  -37.1474   25.8875 H   0  0  0  0  0  0
  -20.9351  -29.8654   21.6844 H   0  0  0  0  0  0
  -26.0216  -38.2875   24.1365 H   0  0  0  0  0  0
  -30.9862  -18.6367   24.0284 H   0  0  0  0  0  0
  -29.4130  -17.9866   19.3929 H   0  0  0  0  0  0
  -28.6164  -24.7294   18.3634 H   0  0  0  0  0  0
  -31.4390  -15.4116   23.2553 H   0  0  0  0  0  0
  -29.6921  -15.4124   23.5250 H   0  0  0  0  0  0
  -30.7405  -16.3744   24.5510 H   0  0  0  0  0  0
  -31.7107  -20.5960   24.7073 H   0  0  0  0  0  0
  -32.3298  -22.0446   23.9448 H   0  0  0  0  0  0
  -32.8642  -20.4696   23.3705 H   0  0  0  0  0  0
  -31.0411  -23.3206   17.4658 H   0  0  0  0  0  0
  -30.8456  -21.8408   16.5339 H   0  0  0  0  0  0
  -31.2588  -21.7545   18.2439 H   0  0  0  0  0  0
  -29.9745  -21.4883   23.2024 H   0  0  0  0  0  0
  -31.1676  -21.6423   21.9100 H   0  0  0  0  0  0
  -28.9184  -24.9352   21.2982 H   0  0  0  0  0  0
  -27.2463  -24.9127   20.8320 H   0  0  0  0  0  0
  -28.6292  -22.8566   17.0895 H   0  0  0  0  0  0
  -28.7703  -21.2657   17.7713 H   0  0  0  0  0  0
  -27.8855  -21.4574   20.5226 H   0  0  0  0  0  0
  -29.2238  -22.2662   21.2709 H   0  0  0  0  0  0
  -28.8129  -15.3360   20.8866 H   0  0  0  0  0  0
  1 25  1  0  0  0
  1 30  2  0  0  0
  1 86  1  0  0  0
  2  3  1  0  0  0
  2 25  1  0  0  0
  2 88  1  0  0  0
  2 89  1  0  0  0
  3  4  1  0  0  0
  3 90  1  0  0  0
  3 91  1  0  0  0
  4  5  1  0  0  0
  4 92  1  0  0  0
  4 93  1  0  0  0
  5  6  1  0  0  0
  5 26  1  0  0  0
  5 94  1  0  0  0
  6 25  1  0  0  0
  6 95  1  0  0  0
  6 96  1  0  0  0
  7  8  2  0  0  0
  7 26  1  0  0  0
  7 29  1  0  0  0
  8  9  1  0  0  0
  8 22  1  0  0  0
  9 10  1  0  0  0
  9 27  2  0  0  0
 10 11  2  0  0  0
 10 15  1  0  0  0
 11 12  1  0  0  0
 11 97  1  0  0  0
 12 13  2  0  0  0
 12 98  1  0  0  0
 13 14  1  0  0  0
 13 31  1  0  0  0
 14 15  2  0  0  0
 14 99  1  0  0  0
 15100  1  0  0  0
 16 17  2  0  0  0
 16 21  1  0  0  0
 16 31  1  0  0  0
 17 18  1  0  0  0
 17101  1  0  0  0
 18 19  2  0  0  0
 18102  1  0  0  0
 19 20  1  0  0  0
 19 24  1  0  0  0
 20 21  2  0  0  0
 20103  1  0  0  0
 21 23  1  0  0  0
 22 28  1  0  0  0
 22 32  2  0  0  0
 26 27  1  0  0  0
 28104  1  0  0  0
 28105  1  0  0  0
 29106  1  0  0  0
 29107  1  0  0  0
 33 34  1  0  0  0
 33 66  1  0  0  0
 33 70  2  0  0  0
 34 36  1  0  0  0
 34 59  1  0  0  0
 34108  1  0  0  0
 35 44  2  0  0  0
 35 45  1  0  0  0
 35 68  1  0  0  0
 36 56  1  0  0  0
 36109  1  0  0  0
 37 39  1  0  0  0
 37 47  1  0  0  0
 37 66  1  0  0  0
 37110  1  0  0  0
 38 43  2  0  0  0
 38 46  1  0  0  0
 38 47  1  0  0  0
 39 64  1  0  0  0
 39 67  2  0  0  0
 40 52  1  0  0  0
 40 53  2  0  0  0
 40 58  1  0  0  0
 41111  1  0  0  0
 41112  1  0  0  0
 41113  1  0  0  0
 41 48  1  0  0  0
 42 43  1  0  0  0
 42 66  1  0  0  0
 42114  1  0  0  0
 42115  1  0  0  0
 43 44  1  0  0  0
 44116  1  0  0  0
 45 46  2  0  0  0
 45117  1  0  0  0
 46118  1  0  0  0
 47119  1  0  0  0
 47120  1  0  0  0
 48 56  1  0  0  0
 48 65  1  0  0  0
 48121  1  0  0  0
 49 50  1  0  0  0
 49 53  1  0  0  0
 49 64  1  0  0  0
 49122  1  0  0  0
 50 51  1  0  0  0
 50123  1  0  0  0
 50124  1  0  0  0
 51 52  1  0  0  0
 51125  1  0  0  0
 51126  1  0  0  0
 52127  1  0  0  0
 52128  1  0  0  0
 53 54  1  0  0  0
 54 55  2  0  0  0
 54129  1  0  0  0
 55 57  1  0  0  0
 55130  1  0  0  0
 56 69  2  0  0  0
 57 58  2  0  0  0
 57131  1  0  0  0
 58132  1  0  0  0
 59 60  1  0  0  0
 59 61  1  0  0  0
 59 62  1  0  0  0
 60133  1  0  0  0
 60134  1  0  0  0
 60135  1  0  0  0
 61136  1  0  0  0
 61137  1  0  0  0
 61138  1  0  0  0
 62139  1  0  0  0
 62140  1  0  0  0
 62141  1  0  0  0
 63 65  1  0  0  0
 63142  1  0  0  0
 63143  1  0  0  0
 63144  1  0  0  0
 64145  1  0  0  0
 65146  1  0  0  0
 68 83  1  0  0  0
 71 73  2  0  0  0
 71 74  1  0  0  0
 71147  1  0  0  0
 72 75  2  0  0  0
 72 76  1  0  0  0
 72148  1  0  0  0
 73 75  1  0  0  0
 73 79  1  0  0  0
 74 76  2  0  0  0
 74 82  1  0  0  0
 75 86  1  0  0  0
 76 87  1  0  0  0
 77 78  2  0  0  0
 77 83  1  0  0  0
 77149  1  0  0  0
 78 84  1  0  0  0
 78 85  1  0  0  0
 79150  1  0  0  0
 79151  1  0  0  0
 79152  1  0  0  0
 80 82  1  0  0  0
 80153  1  0  0  0
 80154  1  0  0  0
 80155  1  0  0  0
 81 84  1  0  0  0
 81156  1  0  0  0
 81157  1  0  0  0
 81158  1  0  0  0
 82159  1  0  0  0
 82160  1  0  0  0
 83161  1  0  0  0
 83162  1  0  0  0
 84163  1  0  0  0
 84164  1  0  0  0
 85 87  1  0  0  0
 85165  1  0  0  0
 85166  1  0  0  0
 86167  1  0  0  0
M  ISO  4   1 100  68 101  83 101  86 100
M  END
> <chiral flag>
0

> <version>
0

> <s_m_source_file>
/data/baiqing/PycharmProjects/Reinvent-master-3.2/result/LINK_invent/BTK/process_docking_weight1_custom_product_contain_oxygen_bond_distance_aromatic_linkinvent_7_9_3/rearranged_h_0134.sdf

> <i_m_source_file_index>
74

> <r_mmod_Potential_Energy-OPLS-2005>
99.8985824584961

> <r_mmod_Stretch_Energy-OPLS-2005>
68.3518676757812

> <r_mmod_Bend_Energy-OPLS-2005>
143.536483764648

> <r_mmod_Torsional_Energy-OPLS-2005>
277.189971923828

> <r_mmod_Improper_Torsional_Energy-OPLS-2005>
7.94911575317383

> <r_mmod_Van_der_Waal_Energy-OPLS-2005>
150.26057434082

> <r_mmod_Electrostatic_Energy-OPLS-2005>
-379.770172119141

> <r_mmod_Solvation_Energy-OPLS-2005>
-201.144287109375

> <b_mmod_Minimization_Converged-OPLS-2005>
0

> <r_mmod_RMS_Derivative-OPLS-2005>
3.03972196578979

$$$$
74
                    3D
 Structure written by MMmdl.
165174  0  0  1  0            999 V2000
  -30.7038  -14.4653   20.5371 C   0  0  0  0  0  0
  -30.4096  -12.2860   19.4320 C   0  0  0  0  0  0
  -29.4884  -12.4775   18.2120 C   0  0  0  0  0  0
  -28.0126  -12.3298   18.6279 C   0  0  0  0  0  0
  -27.6540  -13.1998   19.8644 C   0  0  2  0  0  0
  -28.6952  -13.0129   20.9928 C   0  0  0  0  0  0
  -25.2562  -13.8132   20.5648 C   0  0  0  0  0  0
  -24.1803  -13.0419   20.9126 C   0  0  0  0  0  0
  -24.6358  -11.6881   20.8719 C   0  0  0  0  0  0
  -23.9024  -10.4280   21.0412 C   0  0  0  0  0  0
  -24.3589   -9.4194   21.9180 C   0  0  0  0  0  0
  -23.6270   -8.2223   22.0754 C   0  0  0  0  0  0
  -22.4254   -8.0249   21.3545 C   0  0  0  0  0  0
  -21.9885   -9.0217   20.4642 C   0  0  0  0  0  0
  -22.7201  -10.2115   20.3043 C   0  0  0  0  0  0
  -21.6847   -6.0705   22.5272 C   0  0  0  0  0  0
  -21.4012   -6.5616   23.8197 C   0  0  0  0  0  0
  -21.3659   -5.6789   24.9170 C   0  0  0  0  0  0
  -21.6036   -4.3044   24.7239 C   0  0  0  0  0  0
  -21.8812   -3.8122   23.4361 C   0  0  0  0  0  0
  -21.9193   -4.6933   22.3410 C   0  0  0  0  0  0
  -22.7828  -13.5217   21.1815 C   0  0  0  0  0  0
  -22.1652   -4.2099   21.0995 F   0  0  0  0  0  0
  -21.5651   -3.4534   25.7766 F   0  0  0  0  0  0
  -30.0242  -13.2943   20.4300 N   0  0  0  0  0  0
  -26.2977  -12.9283   20.3320 N   0  0  0  0  0  0
  -25.9272  -11.6452   20.5758 N   0  0  0  0  0  0
  -22.0519  -12.8197   22.0407 N   0  0  0  0  0  0
  -25.4274  -15.1857   20.4108 N   0  0  0  0  0  0
  -31.8484  -14.6165   20.0966 O   0  0  0  0  0  0
  -21.6621   -6.8847   21.4231 O   0  0  0  0  0  0
  -22.3499  -14.5519   20.6689 O   0  0  0  0  0  0
  -24.6149  -31.8701   23.2113 C   0  0  0  0  0  0
  -25.9036  -32.4852   23.8398 C   0  0  1  0  0  0
  -27.2180  -27.4260   20.0996 C   0  0  0  0  0  0
  -25.5878  -33.8647   24.2309 N   0  0  0  0  0  0
  -23.4039  -30.4925   21.5510 C   0  0  2  0  0  0
  -24.8496  -28.9673   20.1040 C   0  0  0  0  0  0
  -22.7391  -29.4657   22.5005 C   0  0  0  0  0  0
  -18.0293  -28.1355   22.8459 C   0  0  0  0  0  0
  -24.1483  -36.7329   23.2638 C   0  0  0  0  0  0
  -25.9338  -30.8346   21.3631 C   0  0  0  0  0  0
  -26.0120  -29.4701   20.7065 C   0  0  0  0  0  0
  -27.2037  -28.7065   20.7024 C   0  0  0  0  0  0
  -26.0491  -26.9586   19.4586 C   0  0  0  0  0  0
  -24.8644  -27.7123   19.4734 C   0  0  0  0  0  0
  -23.6121  -29.8331   20.1618 C   0  0  0  0  0  0
  -25.4110  -36.3154   24.0345 C   0  0  1  0  0  0
  -20.5866  -28.3640   23.1412 C   0  0  2  0  0  0
  -20.6740  -26.9321   22.5560 C   0  0  0  0  0  0
  -19.5850  -26.6444   21.5181 C   0  0  0  0  0  0
  -18.1963  -26.7951   22.1471 C   0  0  0  0  0  0
  -19.1522  -28.8790   23.2980 C   0  0  0  0  0  0
  -18.9455  -30.1307   23.9122 C   0  0  0  0  0  0
  -17.6484  -30.6482   24.0787 C   0  0  0  0  0  0
  -25.9035  -34.9514   23.5141 C   0  0  0  0  0  0
  -16.5376  -29.9038   23.6413 C   0  0  0  0  0  0
  -16.7274  -28.6489   23.0336 C   0  0  0  0  0  0
  -26.4459  -31.6616   25.0700 C   0  0  0  0  0  0
  -25.3686  -31.3697   26.1404 C   0  0  0  0  0  0
  -27.0275  -30.3068   24.6029 C   0  0  0  0  0  0
  -27.6056  -32.4303   25.7455 C   0  0  0  0  0  0
  -27.5584  -37.1824   24.8468 C   0  0  0  0  0  0
  -21.4115  -29.2978   22.3741 N   0  0  0  0  0  0
  -26.4308  -37.3817   23.9399 N   0  0  0  0  0  0
  -24.6704  -31.0789   22.1011 N   0  0  0  0  0  0
  -23.4191  -28.8256   23.3066 O   0  0  0  0  0  0
  -28.3162  -26.5925   20.1801 O   0  0  0  0  0  0
  -26.5611  -34.8964   22.4711 O   0  0  0  0  0  0
  -23.5321  -32.1459   23.7470 O   0  0  0  0  0  0
  -28.4991  -17.7715   19.7764 C   0  0  0  0  0  0
  -27.8554  -20.1330   19.9057 C   0  0  0  0  0  0
  -29.7638  -19.3229   21.1552 C   0  0  0  0  0  0
  -27.6640  -18.8363   19.3793 C   0  0  0  0  0  0
  -29.5547  -18.0057   20.6789 C   0  0  0  0  0  0
  -28.9069  -20.4082   20.8164 C   0  0  0  0  0  0
  -27.9649  -21.8302   23.4432 C   0  0  0  0  0  0
  -27.3773  -22.9038   22.5336 C   0  0  0  0  0  0
  -29.3534  -21.6450   22.8443 C   0  0  0  0  0  0
  -28.1875  -22.8295   21.2125 C   0  0  1  0  0  0
  -26.5612  -18.5892   18.3662 C   0  0  0  0  0  0
  -30.5085  -16.8887   21.1195 C   0  0  0  0  0  0
  -28.9060  -24.1700   20.8263 C   0  0  0  0  0  0
  -28.0303  -25.4425   21.0127 C   0  0  0  0  0  0
  -29.1231  -21.6946   21.3994 N   0  0  0  0  0  0
  -30.0022  -15.5078   21.0159 N   0  0  0  0  0  0
  -31.4574  -12.3597   19.1334 H   0  0  0  0  0  0
  -30.2881  -11.2852   19.8457 H   0  0  0  0  0  0
  -29.7382  -11.7496   17.4420 H   0  0  0  0  0  0
  -29.6498  -13.4660   17.7765 H   0  0  0  0  0  0
  -27.8468  -11.2764   18.8646 H   0  0  0  0  0  0
  -27.3501  -12.5610   17.7932 H   0  0  0  0  0  0
  -27.6907  -14.2374   19.5363 H   0  0  0  0  0  0
  -28.6664  -11.9904   21.3723 H   0  0  0  0  0  0
  -28.4584  -13.6536   21.8431 H   0  0  0  0  0  0
  -25.2743   -9.5653   22.4735 H   0  0  0  0  0  0
  -23.9969   -7.4613   22.7484 H   0  0  0  0  0  0
  -21.0802   -8.8703   19.8965 H   0  0  0  0  0  0
  -22.3630  -10.9627   19.6132 H   0  0  0  0  0  0
  -21.1992   -7.6123   23.9674 H   0  0  0  0  0  0
  -21.1502   -6.0538   25.9072 H   0  0  0  0  0  0
  -22.0607   -2.7573   23.2892 H   0  0  0  0  0  0
  -22.4173  -11.9835   22.4725 H   0  0  0  0  0  0
  -21.1163  -13.1190   22.2692 H   0  0  0  0  0  0
  -24.6652  -15.8428   20.5459 H   0  0  0  0  0  0
  -26.2878  -15.6395   20.1359 H   0  0  0  0  0  0
  -26.7112  -32.5567   23.1175 H   0  0  0  0  0  0
  -25.0045  -33.9805   25.0463 H   0  0  0  0  0  0
  -22.6884  -31.3060   21.4169 H   0  0  0  0  0  0
  -23.3761  -35.9647   23.3326 H   0  0  0  0  0  0
  -24.3569  -36.8889   22.2044 H   0  0  0  0  0  0
  -23.7208  -37.6530   23.6623 H   0  0  0  0  0  0
  -26.0388  -31.5986   20.5892 H   0  0  0  0  0  0
  -26.8257  -30.8910   21.9768 H   0  0  0  0  0  0
  -28.0968  -29.0771   21.1914 H   0  0  0  0  0  0
  -26.0492  -25.9911   18.9748 H   0  0  0  0  0  0
  -23.9743  -27.3236   18.9970 H   0  0  0  0  0  0
  -23.7282  -30.6157   19.4131 H   0  0  0  0  0  0
  -22.7332  -29.2612   19.8568 H   0  0  0  0  0  0
  -25.1283  -36.2039   25.0835 H   0  0  0  0  0  0
  -20.9917  -28.3282   24.1534 H   0  0  0  0  0  0
  -20.5368  -26.2203   23.3733 H   0  0  0  0  0  0
  -21.6668  -26.7226   22.1590 H   0  0  0  0  0  0
  -19.6975  -25.6390   21.1056 H   0  0  0  0  0  0
  -19.6900  -27.3432   20.6860 H   0  0  0  0  0  0
  -17.4311  -26.6864   21.3767 H   0  0  0  0  0  0
  -18.0296  -25.9989   22.8736 H   0  0  0  0  0  0
  -19.7936  -30.6994   24.2675 H   0  0  0  0  0  0
  -17.5050  -31.6099   24.5551 H   0  0  0  0  0  0
  -15.5408  -30.2986   23.7719 H   0  0  0  0  0  0
  -15.8695  -28.0850   22.6964 H   0  0  0  0  0  0
  -24.5897  -30.7028   25.7680 H   0  0  0  0  0  0
  -24.8856  -32.2846   26.4847 H   0  0  0  0  0  0
  -25.8007  -30.8846   27.0164 H   0  0  0  0  0  0
  -26.2808  -29.6847   24.1082 H   0  0  0  0  0  0
  -27.4048  -29.7272   25.4457 H   0  0  0  0  0  0
  -27.8641  -30.4391   23.9162 H   0  0  0  0  0  0
  -27.2729  -33.3604   26.2077 H   0  0  0  0  0  0
  -28.3865  -32.6844   25.0277 H   0  0  0  0  0  0
  -28.0748  -31.8393   26.5322 H   0  0  0  0  0  0
  -28.2636  -38.0092   24.7525 H   0  0  0  0  0  0
  -28.1048  -36.2635   24.6310 H   0  0  0  0  0  0
  -27.2304  -37.1487   25.8868 H   0  0  0  0  0  0
  -20.9299  -29.8570   21.6830 H   0  0  0  0  0  0
  -26.0221  -38.2897   24.1394 H   0  0  0  0  0  0
  -28.3418  -16.7811   19.3704 H   0  0  0  0  0  0
  -27.1657  -20.8950   19.5842 H   0  0  0  0  0  0
  -30.6175  -19.4874   21.7937 H   0  0  0  0  0  0
  -27.3949  -20.9059   23.3532 H   0  0  0  0  0  0
  -27.9868  -22.1135   24.4973 H   0  0  0  0  0  0
  -27.4794  -23.8673   23.0331 H   0  0  0  0  0  0
  -26.3105  -22.7384   22.3637 H   0  0  0  0  0  0
  -29.8113  -20.7364   23.2293 H   0  0  0  0  0  0
  -30.0059  -22.4710   23.1350 H   0  0  0  0  0  0
  -27.4748  -22.6523   20.4110 H   0  0  0  0  0  0
  -26.8727  -17.8432   17.6375 H   0  0  0  0  0  0
  -26.3137  -19.5005   17.8189 H   0  0  0  0  0  0
  -25.6534  -18.2310   18.8565 H   0  0  0  0  0  0
  -30.7902  -17.0539   22.1587 H   0  0  0  0  0  0
  -31.4236  -17.0124   20.5402 H   0  0  0  0  0  0
  -29.2005  -24.0951   19.7788 H   0  0  0  0  0  0
  -29.8343  -24.2904   21.3885 H   0  0  0  0  0  0
  -28.1189  -25.7823   22.0449 H   0  0  0  0  0  0
  -26.9927  -25.1272   20.9069 H   0  0  0  0  0  0
  -29.0568  -15.3335   21.3240 H   0  0  0  0  0  0
  1 25  1  0  0  0
  1 30  2  0  0  0
  1 86  1  0  0  0
  2  3  1  0  0  0
  2 25  1  0  0  0
  2 87  1  0  0  0
  2 88  1  0  0  0
  3  4  1  0  0  0
  3 89  1  0  0  0
  3 90  1  0  0  0
  4  5  1  0  0  0
  4 91  1  0  0  0
  4 92  1  0  0  0
  5  6  1  0  0  0
  5 26  1  0  0  0
  5 93  1  0  0  0
  6 25  1  0  0  0
  6 94  1  0  0  0
  6 95  1  0  0  0
  7  8  2  0  0  0
  7 26  1  0  0  0
  7 29  1  0  0  0
  8  9  1  0  0  0
  8 22  1  0  0  0
  9 10  1  0  0  0
  9 27  2  0  0  0
 10 11  2  0  0  0
 10 15  1  0  0  0
 11 12  1  0  0  0
 11 96  1  0  0  0
 12 13  2  0  0  0
 12 97  1  0  0  0
 13 14  1  0  0  0
 13 31  1  0  0  0
 14 15  2  0  0  0
 14 98  1  0  0  0
 15 99  1  0  0  0
 16 17  2  0  0  0
 16 21  1  0  0  0
 16 31  1  0  0  0
 17 18  1  0  0  0
 17100  1  0  0  0
 18 19  2  0  0  0
 18101  1  0  0  0
 19 20  1  0  0  0
 19 24  1  0  0  0
 20 21  2  0  0  0
 20102  1  0  0  0
 21 23  1  0  0  0
 22 28  1  0  0  0
 22 32  2  0  0  0
 26 27  1  0  0  0
 28103  1  0  0  0
 28104  1  0  0  0
 29105  1  0  0  0
 29106  1  0  0  0
 33 34  1  0  0  0
 33 66  1  0  0  0
 33 70  2  0  0  0
 34 36  1  0  0  0
 34 59  1  0  0  0
 34107  1  0  0  0
 35 44  2  0  0  0
 35 45  1  0  0  0
 35 68  1  0  0  0
 36 56  1  0  0  0
 36108  1  0  0  0
 37 39  1  0  0  0
 37 47  1  0  0  0
 37 66  1  0  0  0
 37109  1  0  0  0
 38 43  2  0  0  0
 38 46  1  0  0  0
 38 47  1  0  0  0
 39 64  1  0  0  0
 39 67  2  0  0  0
 40 52  1  0  0  0
 40 53  2  0  0  0
 40 58  1  0  0  0
 41110  1  0  0  0
 41111  1  0  0  0
 41112  1  0  0  0
 41 48  1  0  0  0
 42 43  1  0  0  0
 42 66  1  0  0  0
 42113  1  0  0  0
 42114  1  0  0  0
 43 44  1  0  0  0
 44115  1  0  0  0
 45 46  2  0  0  0
 45116  1  0  0  0
 46117  1  0  0  0
 47118  1  0  0  0
 47119  1  0  0  0
 48 56  1  0  0  0
 48 65  1  0  0  0
 48120  1  0  0  0
 49 50  1  0  0  0
 49 53  1  0  0  0
 49 64  1  0  0  0
 49121  1  0  0  0
 50 51  1  0  0  0
 50122  1  0  0  0
 50123  1  0  0  0
 51 52  1  0  0  0
 51124  1  0  0  0
 51125  1  0  0  0
 52126  1  0  0  0
 52127  1  0  0  0
 53 54  1  0  0  0
 54 55  2  0  0  0
 54128  1  0  0  0
 55 57  1  0  0  0
 55129  1  0  0  0
 56 69  2  0  0  0
 57 58  2  0  0  0
 57130  1  0  0  0
 58131  1  0  0  0
 59 60  1  0  0  0
 59 61  1  0  0  0
 59 62  1  0  0  0
 60132  1  0  0  0
 60133  1  0  0  0
 60134  1  0  0  0
 61135  1  0  0  0
 61136  1  0  0  0
 61137  1  0  0  0
 62138  1  0  0  0
 62139  1  0  0  0
 62140  1  0  0  0
 63 65  1  0  0  0
 63141  1  0  0  0
 63142  1  0  0  0
 63143  1  0  0  0
 64144  1  0  0  0
 65145  1  0  0  0
 68 84  1  0  0  0
 71 74  2  0  0  0
 71 75  1  0  0  0
 71146  1  0  0  0
 72 74  1  0  0  0
 72 76  2  0  0  0
 72147  1  0  0  0
 73 75  2  0  0  0
 73 76  1  0  0  0
 73148  1  0  0  0
 74 81  1  0  0  0
 75 82  1  0  0  0
 76 85  1  0  0  0
 77 78  1  0  0  0
 77 79  1  0  0  0
 77149  1  0  0  0
 77150  1  0  0  0
 78 80  1  0  0  0
 78151  1  0  0  0
 78152  1  0  0  0
 79 85  1  0  0  0
 79153  1  0  0  0
 79154  1  0  0  0
 80 83  1  0  0  0
 80 85  1  0  0  0
 80155  1  0  0  0
 81156  1  0  0  0
 81157  1  0  0  0
 81158  1  0  0  0
 82 86  1  0  0  0
 82159  1  0  0  0
 82160  1  0  0  0
 83 84  1  0  0  0
 83161  1  0  0  0
 83162  1  0  0  0
 84163  1  0  0  0
 84164  1  0  0  0
 86165  1  0  0  0
M  ISO  4   1 100  68 101  84 101  86 100
M  END
> <chiral flag>
0

> <version>
0

> <s_m_source_file>
/data/baiqing/PycharmProjects/Reinvent-master-3.2/result/LINK_invent/BTK/process_docking_weight1_custom_product_contain_oxygen_bond_distance_aromatic_linkinvent_7_9_3/rearranged_h_0134.sdf

> <i_m_source_file_index>
75

> <r_mmod_Potential_Energy-OPLS-2005>
28.4359760284424

> <r_mmod_Stretch_Energy-OPLS-2005>
44.7945442199707

> <r_mmod_Bend_Energy-OPLS-2005>
140.409744262695

> <r_mmod_Torsional_Energy-OPLS-2005>
292.169403076172

> <r_mmod_Improper_Torsional_Energy-OPLS-2005>
8.66450786590576

> <r_mmod_Van_der_Waal_Energy-OPLS-2005>
164.621597290039

> <r_mmod_Electrostatic_Energy-OPLS-2005>
-421.731597900391

> <r_mmod_Solvation_Energy-OPLS-2005>
-220.88395690918

> <b_mmod_Minimization_Converged-OPLS-2005>
0

> <r_mmod_RMS_Derivative-OPLS-2005>
5.34084177017212

$$$$
75
                    3D
 Structure written by MMmdl.
157166  0  0  1  0            999 V2000
  -30.7302  -14.4746   20.6388 C   0  0  0  0  0  0
  -30.4319  -12.3431   19.4050 C   0  0  0  0  0  0
  -29.5056  -12.5336   18.1882 C   0  0  0  0  0  0
  -28.0219  -12.4072   18.5893 C   0  0  0  0  0  0
  -27.6685  -13.2198   19.8642 C   0  0  2  0  0  0
  -28.7068  -12.9914   20.9799 C   0  0  0  0  0  0
  -25.2622  -13.8192   20.5571 C   0  0  0  0  0  0
  -24.1854  -13.0475   20.9081 C   0  0  0  0  0  0
  -24.6448  -11.6939   20.8660 C   0  0  0  0  0  0
  -23.9128  -10.4299   21.0367 C   0  0  0  0  0  0
  -24.3671   -9.4203   21.9145 C   0  0  0  0  0  0
  -23.6311   -8.2255   22.0744 C   0  0  0  0  0  0
  -22.4272   -8.0297   21.3548 C   0  0  0  0  0  0
  -21.9923   -9.0287   20.4644 C   0  0  0  0  0  0
  -22.7292  -10.2133   20.3024 C   0  0  0  0  0  0
  -21.6861   -6.0731   22.5247 C   0  0  0  0  0  0
  -21.4040   -6.5641   23.8179 C   0  0  0  0  0  0
  -21.3642   -5.6779   24.9138 C   0  0  0  0  0  0
  -21.6025   -4.3040   24.7194 C   0  0  0  0  0  0
  -21.8832   -3.8152   23.4309 C   0  0  0  0  0  0
  -21.9200   -4.6961   22.3372 C   0  0  0  0  0  0
  -22.7876  -13.5262   21.1783 C   0  0  0  0  0  0
  -22.1659   -4.2161   21.0936 F   0  0  0  0  0  0
  -21.5640   -3.4528   25.7714 F   0  0  0  0  0  0
  -30.0382  -13.3147   20.4375 N   0  0  0  0  0  0
  -26.3075  -12.9388   20.3246 N   0  0  0  0  0  0
  -25.9372  -11.6547   20.5642 N   0  0  0  0  0  0
  -22.0530  -12.8243   22.0341 N   0  0  0  0  0  0
  -25.4434  -15.1896   20.3992 N   0  0  0  0  0  0
  -31.8307  -14.6863   20.1277 O   0  0  0  0  0  0
  -21.6637   -6.8871   21.4212 O   0  0  0  0  0  0
  -22.3510  -14.5561   20.6629 O   0  0  0  0  0  0
  -24.6235  -31.8625   23.2078 C   0  0  0  0  0  0
  -25.9096  -32.4784   23.8384 C   0  0  1  0  0  0
  -27.2355  -27.3770   20.0757 C   0  0  0  0  0  0
  -25.5926  -33.8592   24.2304 N   0  0  0  0  0  0
  -23.4194  -30.4855   21.5481 C   0  0  2  0  0  0
  -24.8652  -28.9509   20.1130 C   0  0  0  0  0  0
  -22.7491  -29.4627   22.4949 C   0  0  0  0  0  0
  -18.0293  -28.1401   22.8498 C   0  0  0  0  0  0
  -24.1482  -36.7267   23.2636 C   0  0  0  0  0  0
  -25.9624  -30.7979   21.3871 C   0  0  0  0  0  0
  -26.0328  -29.4380   20.7116 C   0  0  0  0  0  0
  -27.2229  -28.6628   20.6808 C   0  0  0  0  0  0
  -26.0395  -26.9288   19.4634 C   0  0  0  0  0  0
  -24.8659  -27.7006   19.4800 C   0  0  0  0  0  0
  -23.6335  -29.8230   20.1622 C   0  0  0  0  0  0
  -25.4118  -36.3089   24.0341 C   0  0  1  0  0  0
  -20.5897  -28.3707   23.1279 C   0  0  2  0  0  0
  -20.6791  -26.9435   22.5404 C   0  0  0  0  0  0
  -19.5752  -26.6407   21.5219 C   0  0  0  0  0  0
  -18.1936  -26.7948   22.1642 C   0  0  0  0  0  0
  -19.1550  -28.8874   23.2886 C   0  0  0  0  0  0
  -18.9460  -30.1474   23.8904 C   0  0  0  0  0  0
  -17.6463  -30.6600   24.0566 C   0  0  0  0  0  0
  -25.9045  -34.9461   23.5120 C   0  0  0  0  0  0
  -16.5355  -29.9099   23.6325 C   0  0  0  0  0  0
  -16.7284  -28.6513   23.0357 C   0  0  0  0  0  0
  -26.4490  -31.6615   25.0760 C   0  0  0  0  0  0
  -25.3714  -31.3765   26.1482 C   0  0  0  0  0  0
  -27.0369  -30.3037   24.6287 C   0  0  0  0  0  0
  -27.6068  -32.4372   25.7486 C   0  0  0  0  0  0
  -27.5586  -37.1795   24.8476 C   0  0  0  0  0  0
  -21.4204  -29.3050   22.3683 N   0  0  0  0  0  0
  -26.4305  -37.3774   23.9403 N   0  0  0  0  0  0
  -24.6856  -31.0661   22.1010 N   0  0  0  0  0  0
  -23.4208  -28.8162   23.3032 O   0  0  0  0  0  0
  -28.3803  -26.5805   20.0856 O   0  0  0  0  0  0
  -26.5616  -34.8921   22.4682 O   0  0  0  0  0  0
  -23.5401  -32.1412   23.7378 O   0  0  0  0  0  0
  -28.8959  -19.6573   20.5378 C   0  0  0  0  0  0
  -29.0148  -18.2782   20.9035 C   0  0  0  0  0  0
  -30.0198  -20.4079   20.7935 C   0  0  0  0  0  0
  -30.2471  -17.9460   21.4130 C   0  0  0  0  0  0
  -30.8355  -22.4458   19.3682 C   0  0  0  0  0  0
  -30.3164  -23.9046   19.1991 C   0  0  0  0  0  0
  -28.9249  -22.7680   20.7852 C   0  0  0  0  0  0
  -30.1982  -21.9121   20.6647 C   0  0  1  0  0  0
  -29.3616  -24.1934   20.3831 C   0  0  2  0  0  0
  -30.7169  -16.6192   21.9818 C   0  0  0  0  0  0
  -28.1462  -25.1421   20.1364 C   0  0  0  0  0  0
  -30.1154  -15.4031   21.3998 N   0  0  0  0  0  0
  -31.2833  -19.3688   21.4320 S   0  0  0  0  0  0
  -31.4748  -12.4556   19.1014 H   0  0  0  0  0  0
  -30.3495  -11.3282   19.7963 H   0  0  0  0  0  0
  -29.7510  -11.8062   17.4143 H   0  0  0  0  0  0
  -29.6833  -13.5143   17.7423 H   0  0  0  0  0  0
  -27.8026  -11.3475   18.7394 H   0  0  0  0  0  0
  -27.3864  -12.7379   17.7647 H   0  0  0  0  0  0
  -27.7190  -14.2714   19.5821 H   0  0  0  0  0  0
  -28.6885  -11.9497   21.3062 H   0  0  0  0  0  0
  -28.4549  -13.5757   21.8648 H   0  0  0  0  0  0
  -25.2854   -9.5658   22.4672 H   0  0  0  0  0  0
  -24.0007   -7.4648   22.7478 H   0  0  0  0  0  0
  -21.0849   -8.8834   19.8970 H   0  0  0  0  0  0
  -22.3800  -10.9651   19.6101 H   0  0  0  0  0  0
  -21.2060   -7.6153   23.9685 H   0  0  0  0  0  0
  -21.1450   -6.0509   25.9024 H   0  0  0  0  0  0
  -22.0652   -2.7615   23.2803 H   0  0  0  0  0  0
  -22.4179  -11.9904   22.4706 H   0  0  0  0  0  0
  -21.1153  -13.1244   22.2601 H   0  0  0  0  0  0
  -24.7008  -15.8700   20.5106 H   0  0  0  0  0  0
  -26.3144  -15.6041   20.0959 H   0  0  0  0  0  0
  -26.7171  -32.5442   23.1136 H   0  0  0  0  0  0
  -25.0109  -33.9736   25.0481 H   0  0  0  0  0  0
  -22.7124  -31.3022   21.4029 H   0  0  0  0  0  0
  -23.3763  -35.9584   23.3339 H   0  0  0  0  0  0
  -24.3569  -36.8842   22.2048 H   0  0  0  0  0  0
  -23.7219  -37.6480   23.6629 H   0  0  0  0  0  0
  -26.1265  -31.5734   20.6377 H   0  0  0  0  0  0
  -26.8299  -30.8142   22.0360 H   0  0  0  0  0  0
  -28.1316  -29.0357   21.1324 H   0  0  0  0  0  0
  -25.9775  -25.9869   18.9436 H   0  0  0  0  0  0
  -23.9752  -27.3297   18.9912 H   0  0  0  0  0  0
  -23.7546  -30.5967   19.4038 H   0  0  0  0  0  0
  -22.7594  -29.2440   19.8602 H   0  0  0  0  0  0
  -25.1293  -36.1957   25.0832 H   0  0  0  0  0  0
  -20.9992  -28.3290   24.1408 H   0  0  0  0  0  0
  -20.5759  -26.2311   23.3598 H   0  0  0  0  0  0
  -21.6653  -26.7507   22.1154 H   0  0  0  0  0  0
  -19.6913  -25.6321   21.1246 H   0  0  0  0  0  0
  -19.6673  -27.3220   20.6756 H   0  0  0  0  0  0
  -17.4208  -26.6718   21.4034 H   0  0  0  0  0  0
  -18.0317  -26.0093   22.9027 H   0  0  0  0  0  0
  -19.7932  -30.7295   24.2286 H   0  0  0  0  0  0
  -17.5006  -31.6282   24.5164 H   0  0  0  0  0  0
  -15.5355  -30.2996   23.7639 H   0  0  0  0  0  0
  -15.8690  -28.0823   22.7075 H   0  0  0  0  0  0
  -24.5837  -30.7196   25.7774 H   0  0  0  0  0  0
  -24.8962  -32.2941   26.4955 H   0  0  0  0  0  0
  -25.7988  -30.8864   27.0228 H   0  0  0  0  0  0
  -26.2983  -29.6755   24.1298 H   0  0  0  0  0  0
  -27.4038  -29.7336   25.4828 H   0  0  0  0  0  0
  -27.8861  -30.4324   23.9570 H   0  0  0  0  0  0
  -27.2703  -33.3676   26.2066 H   0  0  0  0  0  0
  -28.3824  -32.6939   25.0263 H   0  0  0  0  0  0
  -28.0803  -31.8520   26.5372 H   0  0  0  0  0  0
  -28.2629  -38.0070   24.7525 H   0  0  0  0  0  0
  -28.1063  -36.2610   24.6306 H   0  0  0  0  0  0
  -27.2306  -37.1454   25.8880 H   0  0  0  0  0  0
  -20.9408  -29.8728   21.6849 H   0  0  0  0  0  0
  -26.0197  -38.2866   24.1379 H   0  0  0  0  0  0
  -27.9697  -20.0566   20.1511 H   0  0  0  0  0  0
  -28.1826  -17.5952   20.8155 H   0  0  0  0  0  0
  -31.9266  -22.3916   19.4043 H   0  0  0  0  0  0
  -30.5179  -21.8453   18.5157 H   0  0  0  0  0  0
  -29.8060  -24.0003   18.2383 H   0  0  0  0  0  0
  -31.1418  -24.6166   19.1807 H   0  0  0  0  0  0
  -28.4777  -22.7267   21.7758 H   0  0  0  0  0  0
  -28.1780  -22.4086   20.0757 H   0  0  0  0  0  0
  -30.8506  -22.2301   21.4817 H   0  0  0  0  0  0
  -29.9451  -24.5966   21.2101 H   0  0  0  0  0  0
  -30.4506  -16.5957   23.0421 H   0  0  0  0  0  0
  -31.8070  -16.5646   21.9696 H   0  0  0  0  0  0
  -27.4609  -24.9737   20.9672 H   0  0  0  0  0  0
  -27.6364  -24.7763   19.2476 H   0  0  0  0  0  0
  -29.1880  -15.1737   21.7211 H   0  0  0  0  0  0
  1 25  1  0  0  0
  1 30  2  0  0  0
  1 82  1  0  0  0
  2  3  1  0  0  0
  2 25  1  0  0  0
  2 84  1  0  0  0
  2 85  1  0  0  0
  3  4  1  0  0  0
  3 86  1  0  0  0
  3 87  1  0  0  0
  4  5  1  0  0  0
  4 88  1  0  0  0
  4 89  1  0  0  0
  5  6  1  0  0  0
  5 26  1  0  0  0
  5 90  1  0  0  0
  6 25  1  0  0  0
  6 91  1  0  0  0
  6 92  1  0  0  0
  7  8  2  0  0  0
  7 26  1  0  0  0
  7 29  1  0  0  0
  8  9  1  0  0  0
  8 22  1  0  0  0
  9 10  1  0  0  0
  9 27  2  0  0  0
 10 11  2  0  0  0
 10 15  1  0  0  0
 11 12  1  0  0  0
 11 93  1  0  0  0
 12 13  2  0  0  0
 12 94  1  0  0  0
 13 14  1  0  0  0
 13 31  1  0  0  0
 14 15  2  0  0  0
 14 95  1  0  0  0
 15 96  1  0  0  0
 16 17  2  0  0  0
 16 21  1  0  0  0
 16 31  1  0  0  0
 17 18  1  0  0  0
 17 97  1  0  0  0
 18 19  2  0  0  0
 18 98  1  0  0  0
 19 20  1  0  0  0
 19 24  1  0  0  0
 20 21  2  0  0  0
 20 99  1  0  0  0
 21 23  1  0  0  0
 22 28  1  0  0  0
 22 32  2  0  0  0
 26 27  1  0  0  0
 28100  1  0  0  0
 28101  1  0  0  0
 29102  1  0  0  0
 29103  1  0  0  0
 33 34  1  0  0  0
 33 66  1  0  0  0
 33 70  2  0  0  0
 34 36  1  0  0  0
 34 59  1  0  0  0
 34104  1  0  0  0
 35 44  2  0  0  0
 35 45  1  0  0  0
 35 68  1  0  0  0
 36 56  1  0  0  0
 36105  1  0  0  0
 37 39  1  0  0  0
 37 47  1  0  0  0
 37 66  1  0  0  0
 37106  1  0  0  0
 38 43  2  0  0  0
 38 46  1  0  0  0
 38 47  1  0  0  0
 39 64  1  0  0  0
 39 67  2  0  0  0
 40 52  1  0  0  0
 40 53  2  0  0  0
 40 58  1  0  0  0
 41107  1  0  0  0
 41108  1  0  0  0
 41109  1  0  0  0
 41 48  1  0  0  0
 42 43  1  0  0  0
 42 66  1  0  0  0
 42110  1  0  0  0
 42111  1  0  0  0
 43 44  1  0  0  0
 44112  1  0  0  0
 45 46  2  0  0  0
 45113  1  0  0  0
 46114  1  0  0  0
 47115  1  0  0  0
 47116  1  0  0  0
 48 56  1  0  0  0
 48 65  1  0  0  0
 48117  1  0  0  0
 49 50  1  0  0  0
 49 53  1  0  0  0
 49 64  1  0  0  0
 49118  1  0  0  0
 50 51  1  0  0  0
 50119  1  0  0  0
 50120  1  0  0  0
 51 52  1  0  0  0
 51121  1  0  0  0
 51122  1  0  0  0
 52123  1  0  0  0
 52124  1  0  0  0
 53 54  1  0  0  0
 54 55  2  0  0  0
 54125  1  0  0  0
 55 57  1  0  0  0
 55126  1  0  0  0
 56 69  2  0  0  0
 57 58  2  0  0  0
 57127  1  0  0  0
 58128  1  0  0  0
 59 60  1  0  0  0
 59 61  1  0  0  0
 59 62  1  0  0  0
 60129  1  0  0  0
 60130  1  0  0  0
 60131  1  0  0  0
 61132  1  0  0  0
 61133  1  0  0  0
 61134  1  0  0  0
 62135  1  0  0  0
 62136  1  0  0  0
 62137  1  0  0  0
 63 65  1  0  0  0
 63138  1  0  0  0
 63139  1  0  0  0
 63140  1  0  0  0
 64141  1  0  0  0
 65142  1  0  0  0
 68 81  1  0  0  0
 71 72  1  0  0  0
 71 73  2  0  0  0
 71143  1  0  0  0
 72 74  2  0  0  0
 72144  1  0  0  0
 73 83  1  0  0  0
 73 78  1  0  0  0
 74 80  1  0  0  0
 74 83  1  0  0  0
 75 76  1  0  0  0
 75 78  1  0  0  0
 75145  1  0  0  0
 75146  1  0  0  0
 76 79  1  0  0  0
 76147  1  0  0  0
 76148  1  0  0  0
 77 78  1  0  0  0
 77 79  1  0  0  0
 77149  1  0  0  0
 77150  1  0  0  0
 78151  1  0  0  0
 79 81  1  0  0  0
 79152  1  0  0  0
 80 82  1  0  0  0
 80153  1  0  0  0
 80154  1  0  0  0
 81155  1  0  0  0
 81156  1  0  0  0
 82157  1  0  0  0
M  ISO  4   1 100  68 101  81 101  82 100
M  END
> <chiral flag>
0

> <version>
0

> <s_m_source_file>
/data/baiqing/PycharmProjects/Reinvent-master-3.2/result/LINK_invent/BTK/process_docking_weight1_custom_product_contain_oxygen_bond_distance_aromatic_linkinvent_7_9_3/rearranged_h_0134.sdf

> <i_m_source_file_index>
76

> <r_mmod_Potential_Energy-OPLS-2005>
-33.6906700134277

> <r_mmod_Stretch_Energy-OPLS-2005>
43.9949264526367

> <r_mmod_Bend_Energy-OPLS-2005>
136.565521240234

> <r_mmod_Torsional_Energy-OPLS-2005>
229.466644287109

> <r_mmod_Improper_Torsional_Energy-OPLS-2005>
2.24854063987732

> <r_mmod_Van_der_Waal_Energy-OPLS-2005>
126.363967895508

> <r_mmod_Electrostatic_Energy-OPLS-2005>
-383.627075195312

> <r_mmod_Solvation_Energy-OPLS-2005>
-208.668411254883

> <b_mmod_Minimization_Converged-OPLS-2005>
0

> <r_mmod_RMS_Derivative-OPLS-2005>
5.8324294090271

$$$$
76
                    3D
 Structure written by MMmdl.
172180  0  0  1  0            999 V2000
  -30.6793  -14.4878   20.4716 C   0  0  0  0  0  0
  -30.4223  -12.2771   19.4315 C   0  0  0  0  0  0
  -29.4978  -12.4365   18.2083 C   0  0  0  0  0  0
  -28.0107  -12.3483   18.6158 C   0  0  0  0  0  0
  -27.6543  -13.1925   19.8715 C   0  0  2  0  0  0
  -28.7045  -13.0146   20.9904 C   0  0  0  0  0  0
  -25.2487  -13.8071   20.5705 C   0  0  0  0  0  0
  -24.1774  -13.0358   20.9196 C   0  0  0  0  0  0
  -24.6352  -11.6845   20.8758 C   0  0  0  0  0  0
  -23.9026  -10.4254   21.0426 C   0  0  0  0  0  0
  -24.3602   -9.4179   21.9205 C   0  0  0  0  0  0
  -23.6296   -8.2204   22.0747 C   0  0  0  0  0  0
  -22.4266   -8.0259   21.3551 C   0  0  0  0  0  0
  -21.9893   -9.0219   20.4649 C   0  0  0  0  0  0
  -22.7210  -10.2098   20.3061 C   0  0  0  0  0  0
  -21.6845   -6.0735   22.5277 C   0  0  0  0  0  0
  -21.3997   -6.5643   23.8205 C   0  0  0  0  0  0
  -21.3664   -5.6796   24.9167 C   0  0  0  0  0  0
  -21.6042   -4.3060   24.7218 C   0  0  0  0  0  0
  -21.8803   -3.8148   23.4339 C   0  0  0  0  0  0
  -21.9190   -4.6966   22.3397 C   0  0  0  0  0  0
  -22.7800  -13.5167   21.1860 C   0  0  0  0  0  0
  -22.1657   -4.2154   21.0971 F   0  0  0  0  0  0
  -21.5630   -3.4553   25.7744 F   0  0  0  0  0  0
  -30.0282  -13.2969   20.4134 N   0  0  0  0  0  0
  -26.2961  -12.9257   20.3384 N   0  0  0  0  0  0
  -25.9286  -11.6431   20.5822 N   0  0  0  0  0  0
  -22.0471  -12.8167   22.0432 N   0  0  0  0  0  0
  -25.3998  -15.1791   20.4088 N   0  0  0  0  0  0
  -31.8592  -14.6254   20.1384 O   0  0  0  0  0  0
  -21.6627   -6.8872   21.4246 O   0  0  0  0  0  0
  -22.3490  -14.5480   20.6688 O   0  0  0  0  0  0
  -24.6134  -31.8676   23.2100 C   0  0  0  0  0  0
  -25.9041  -32.4818   23.8388 C   0  0  1  0  0  0
  -27.2528  -27.4637   20.0724 C   0  0  0  0  0  0
  -25.5896  -33.8617   24.2323 N   0  0  0  0  0  0
  -23.3992  -30.4902   21.5485 C   0  0  2  0  0  0
  -24.8464  -28.9514   20.1159 C   0  0  0  0  0  0
  -22.7385  -29.4674   22.4999 C   0  0  0  0  0  0
  -18.0265  -28.1388   22.8511 C   0  0  0  0  0  0
  -24.1485  -36.7315   23.2639 C   0  0  0  0  0  0
  -25.9238  -30.8387   21.3583 C   0  0  0  0  0  0
  -26.0007  -29.4729   20.7104 C   0  0  0  0  0  0
  -27.1994  -28.7304   20.6935 C   0  0  0  0  0  0
  -26.0723  -26.9371   19.4970 C   0  0  0  0  0  0
  -24.8739  -27.6791   19.5153 C   0  0  0  0  0  0
  -23.6065  -29.8147   20.1651 C   0  0  0  0  0  0
  -25.4104  -36.3103   24.0338 C   0  0  1  0  0  0
  -20.5851  -28.3662   23.1333 C   0  0  2  0  0  0
  -20.6757  -26.9400   22.5422 C   0  0  0  0  0  0
  -19.5734  -26.6393   21.5225 C   0  0  0  0  0  0
  -18.1910  -26.7940   22.1630 C   0  0  0  0  0  0
  -19.1515  -28.8843   23.2925 C   0  0  0  0  0  0
  -18.9444  -30.1451   23.8932 C   0  0  0  0  0  0
  -17.6448  -30.6593   24.0575 C   0  0  0  0  0  0
  -25.9026  -34.9474   23.5124 C   0  0  0  0  0  0
  -16.5339  -29.9095   23.6335 C   0  0  0  0  0  0
  -16.7258  -28.6510   23.0362 C   0  0  0  0  0  0
  -26.4477  -31.6614   25.0724 C   0  0  0  0  0  0
  -25.3748  -31.3716   26.1475 C   0  0  0  0  0  0
  -27.0325  -30.3065   24.6107 C   0  0  0  0  0  0
  -27.6045  -32.4340   25.7494 C   0  0  0  0  0  0
  -27.5584  -37.1795   24.8456 C   0  0  0  0  0  0
  -21.4111  -29.3042   22.3744 N   0  0  0  0  0  0
  -26.4283  -37.3793   23.9420 N   0  0  0  0  0  0
  -24.6636  -31.0801   22.0976 N   0  0  0  0  0  0
  -23.4168  -28.8223   23.3038 O   0  0  0  0  0  0
  -28.4698  -26.8180   20.0798 O   0  0  0  0  0  0
  -26.5586  -34.8928   22.4681 O   0  0  0  0  0  0
  -23.5332  -32.1422   23.7512 O   0  0  0  0  0  0
  -31.5691  -18.9022   20.5576 C   0  0  0  0  0  0
  -31.3069  -17.5484   20.8422 C   0  0  0  0  0  0
  -30.6927  -19.6450   19.7399 C   0  0  0  0  0  0
  -29.2765  -17.6545   19.4840 C   0  0  0  0  0  0
  -30.1601  -16.9093   20.3188 C   0  0  0  0  0  0
  -29.5621  -19.0101   19.1758 C   0  0  0  0  0  0
  -26.9327  -15.6350   17.0631 C   0  0  0  0  0  0
  -27.9432  -20.6379   16.3152 C   0  0  0  0  0  0
  -30.9615  -21.1240   19.4774 C   0  0  0  0  0  0
  -28.0006  -17.0349   18.9285 C   0  0  0  0  0  0
  -28.2340  -16.1584   17.6853 C   0  0  0  0  0  0
  -29.9204  -22.0739   20.1104 C   0  0  0  0  0  0
  -29.7334  -23.3676   19.2962 C   0  0  0  0  0  0
  -28.8746  -24.4283   20.0094 C   0  0  0  0  0  0
  -29.0060  -19.7891   17.0121 C   0  0  0  0  0  0
  -28.7478  -25.7306   19.2007 C   0  0  0  0  0  0
  -29.8758  -15.5515   20.6741 N   0  0  0  0  0  0
  -28.6915  -19.7382   18.3993 O   0  0  0  0  0  0
  -31.4674  -12.3677   19.1305 H   0  0  0  0  0  0
  -30.3226  -11.2789   19.8596 H   0  0  0  0  0  0
  -29.7259  -11.6605   17.4780 H   0  0  0  0  0  0
  -29.7059  -13.3765   17.7033 H   0  0  0  0  0  0
  -27.7930  -11.2973   18.8070 H   0  0  0  0  0  0
  -27.3753  -12.6370   17.7772 H   0  0  0  0  0  0
  -27.6820  -14.2316   19.5697 H   0  0  0  0  0  0
  -28.6875  -11.9964   21.3806 H   0  0  0  0  0  0
  -28.4826  -13.6653   21.8387 H   0  0  0  0  0  0
  -25.2755   -9.5648   22.4764 H   0  0  0  0  0  0
  -24.0030   -7.4568   22.7430 H   0  0  0  0  0  0
  -21.0832   -8.8720   19.8943 H   0  0  0  0  0  0
  -22.3692  -10.9626   19.6140 H   0  0  0  0  0  0
  -21.1974   -7.6139   23.9716 H   0  0  0  0  0  0
  -21.1499   -6.0523   25.9067 H   0  0  0  0  0  0
  -22.0585   -2.7621   23.2805 H   0  0  0  0  0  0
  -22.4146  -11.9847   22.4811 H   0  0  0  0  0  0
  -21.1071  -13.1152   22.2657 H   0  0  0  0  0  0
  -24.5974  -15.7978   20.4650 H   0  0  0  0  0  0
  -26.1921  -15.6026   19.9489 H   0  0  0  0  0  0
  -26.7113  -32.5537   23.1157 H   0  0  0  0  0  0
  -25.0076  -33.9777   25.0488 H   0  0  0  0  0  0
  -22.6890  -31.3077   21.4045 H   0  0  0  0  0  0
  -23.3748  -35.9643   23.3283 H   0  0  0  0  0  0
  -24.3590  -36.8950   22.2056 H   0  0  0  0  0  0
  -23.7234  -37.6513   23.6667 H   0  0  0  0  0  0
  -26.0305  -31.6026   20.5869 H   0  0  0  0  0  0
  -26.8140  -30.8965   21.9722 H   0  0  0  0  0  0
  -28.0952  -29.1347   21.1444 H   0  0  0  0  0  0
  -26.0548  -25.9581   19.0411 H   0  0  0  0  0  0
  -23.9812  -27.2661   19.0675 H   0  0  0  0  0  0
  -23.7085  -30.5838   19.3983 H   0  0  0  0  0  0
  -22.7327  -29.2276   19.8757 H   0  0  0  0  0  0
  -25.1278  -36.1953   25.0829 H   0  0  0  0  0  0
  -20.9958  -28.3223   24.1447 H   0  0  0  0  0  0
  -20.5671  -26.2265   23.3605 H   0  0  0  0  0  0
  -21.6625  -26.7446   22.1205 H   0  0  0  0  0  0
  -19.6882  -25.6304   21.1254 H   0  0  0  0  0  0
  -19.6682  -27.3211   20.6762 H   0  0  0  0  0  0
  -17.4178  -26.6714   21.4027 H   0  0  0  0  0  0
  -18.0292  -26.0075   22.9011 H   0  0  0  0  0  0
  -19.7913  -30.7273   24.2313 H   0  0  0  0  0  0
  -17.4992  -31.6283   24.5155 H   0  0  0  0  0  0
  -15.5339  -30.3004   23.7651 H   0  0  0  0  0  0
  -15.8654  -28.0844   22.7064 H   0  0  0  0  0  0
  -24.5924  -30.7056   25.7818 H   0  0  0  0  0  0
  -24.8937  -32.2868   26.4932 H   0  0  0  0  0  0
  -25.8105  -30.8885   27.0227 H   0  0  0  0  0  0
  -26.2868  -29.6805   24.1185 H   0  0  0  0  0  0
  -27.4130  -29.7333   25.4575 H   0  0  0  0  0  0
  -27.8683  -30.4408   23.9237 H   0  0  0  0  0  0
  -27.2663  -33.3639   26.2082 H   0  0  0  0  0  0
  -28.3855  -32.6899   25.0322 H   0  0  0  0  0  0
  -28.0711  -31.8456   26.5409 H   0  0  0  0  0  0
  -28.2555  -38.0136   24.7557 H   0  0  0  0  0  0
  -28.1123  -36.2669   24.6200 H   0  0  0  0  0  0
  -27.2313  -37.1339   25.8858 H   0  0  0  0  0  0
  -20.9262  -29.8754   21.6963 H   0  0  0  0  0  0
  -26.0169  -38.2859   24.1456 H   0  0  0  0  0  0
  -32.4441  -19.3725   20.9857 H   0  0  0  0  0  0
  -31.9844  -17.0049   21.4869 H   0  0  0  0  0  0
  -27.1411  -15.0341   16.1766 H   0  0  0  0  0  0
  -26.2789  -16.4555   16.7660 H   0  0  0  0  0  0
  -26.3734  -15.0077   17.7557 H   0  0  0  0  0  0
  -28.1466  -20.7253   15.2478 H   0  0  0  0  0  0
  -27.9141  -21.6441   16.7329 H   0  0  0  0  0  0
  -26.9559  -20.1903   16.4293 H   0  0  0  0  0  0
  -31.0050  -21.2828   18.4023 H   0  0  0  0  0  0
  -31.9557  -21.3862   19.8390 H   0  0  0  0  0  0
  -27.2737  -17.8135   18.6949 H   0  0  0  0  0  0
  -27.5423  -16.4637   19.7271 H   0  0  0  0  0  0
  -28.7806  -16.7094   16.9240 H   0  0  0  0  0  0
  -28.8784  -15.3267   17.9506 H   0  0  0  0  0  0
  -30.2183  -22.2963   21.1365 H   0  0  0  0  0  0
  -28.9476  -21.5851   20.1796 H   0  0  0  0  0  0
  -29.2828  -23.1235   18.3318 H   0  0  0  0  0  0
  -30.7141  -23.7918   19.0763 H   0  0  0  0  0  0
  -29.3380  -24.6530   20.9714 H   0  0  0  0  0  0
  -27.8790  -24.0406   20.2304 H   0  0  0  0  0  0
  -29.9933  -20.2089   16.8307 H   0  0  0  0  0  0
  -29.0077  -18.7959   16.5729 H   0  0  0  0  0  0
  -28.0564  -25.6265   18.3659 H   0  0  0  0  0  0
  -29.7104  -25.9604   18.7418 H   0  0  0  0  0  0
  -28.9074  -15.3173   20.8205 H   0  0  0  0  0  0
  1 25  1  0  0  0
  1 30  2  0  0  0
  1 87  1  0  0  0
  2  3  1  0  0  0
  2 25  1  0  0  0
  2 89  1  0  0  0
  2 90  1  0  0  0
  3  4  1  0  0  0
  3 91  1  0  0  0
  3 92  1  0  0  0
  4  5  1  0  0  0
  4 93  1  0  0  0
  4 94  1  0  0  0
  5  6  1  0  0  0
  5 26  1  0  0  0
  5 95  1  0  0  0
  6 25  1  0  0  0
  6 96  1  0  0  0
  6 97  1  0  0  0
  7  8  2  0  0  0
  7 26  1  0  0  0
  7 29  1  0  0  0
  8  9  1  0  0  0
  8 22  1  0  0  0
  9 10  1  0  0  0
  9 27  2  0  0  0
 10 11  2  0  0  0
 10 15  1  0  0  0
 11 12  1  0  0  0
 11 98  1  0  0  0
 12 13  2  0  0  0
 12 99  1  0  0  0
 13 14  1  0  0  0
 13 31  1  0  0  0
 14 15  2  0  0  0
 14100  1  0  0  0
 15101  1  0  0  0
 16 17  2  0  0  0
 16 21  1  0  0  0
 16 31  1  0  0  0
 17 18  1  0  0  0
 17102  1  0  0  0
 18 19  2  0  0  0
 18103  1  0  0  0
 19 20  1  0  0  0
 19 24  1  0  0  0
 20 21  2  0  0  0
 20104  1  0  0  0
 21 23  1  0  0  0
 22 28  1  0  0  0
 22 32  2  0  0  0
 26 27  1  0  0  0
 28105  1  0  0  0
 28106  1  0  0  0
 29107  1  0  0  0
 29108  1  0  0  0
 33 34  1  0  0  0
 33 66  1  0  0  0
 33 70  2  0  0  0
 34 36  1  0  0  0
 34 59  1  0  0  0
 34109  1  0  0  0
 35 44  2  0  0  0
 35 45  1  0  0  0
 35 68  1  0  0  0
 36 56  1  0  0  0
 36110  1  0  0  0
 37 39  1  0  0  0
 37 47  1  0  0  0
 37 66  1  0  0  0
 37111  1  0  0  0
 38 43  2  0  0  0
 38 46  1  0  0  0
 38 47  1  0  0  0
 39 64  1  0  0  0
 39 67  2  0  0  0
 40 52  1  0  0  0
 40 53  2  0  0  0
 40 58  1  0  0  0
 41112  1  0  0  0
 41113  1  0  0  0
 41114  1  0  0  0
 41 48  1  0  0  0
 42 43  1  0  0  0
 42 66  1  0  0  0
 42115  1  0  0  0
 42116  1  0  0  0
 43 44  1  0  0  0
 44117  1  0  0  0
 45 46  2  0  0  0
 45118  1  0  0  0
 46119  1  0  0  0
 47120  1  0  0  0
 47121  1  0  0  0
 48 56  1  0  0  0
 48 65  1  0  0  0
 48122  1  0  0  0
 49 50  1  0  0  0
 49 53  1  0  0  0
 49 64  1  0  0  0
 49123  1  0  0  0
 50 51  1  0  0  0
 50124  1  0  0  0
 50125  1  0  0  0
 51 52  1  0  0  0
 51126  1  0  0  0
 51127  1  0  0  0
 52128  1  0  0  0
 52129  1  0  0  0
 53 54  1  0  0  0
 54 55  2  0  0  0
 54130  1  0  0  0
 55 57  1  0  0  0
 55131  1  0  0  0
 56 69  2  0  0  0
 57 58  2  0  0  0
 57132  1  0  0  0
 58133  1  0  0  0
 59 60  1  0  0  0
 59 61  1  0  0  0
 59 62  1  0  0  0
 60134  1  0  0  0
 60135  1  0  0  0
 60136  1  0  0  0
 61137  1  0  0  0
 61138  1  0  0  0
 61139  1  0  0  0
 62140  1  0  0  0
 62141  1  0  0  0
 62142  1  0  0  0
 63 65  1  0  0  0
 63143  1  0  0  0
 63144  1  0  0  0
 63145  1  0  0  0
 64146  1  0  0  0
 65147  1  0  0  0
 68 86  1  0  0  0
 71 72  2  0  0  0
 71 73  1  0  0  0
 71148  1  0  0  0
 72 75  1  0  0  0
 72149  1  0  0  0
 73 76  2  0  0  0
 73 79  1  0  0  0
 74 75  2  0  0  0
 74 76  1  0  0  0
 74 80  1  0  0  0
 75 87  1  0  0  0
 76 88  1  0  0  0
 77 81  1  0  0  0
 77150  1  0  0  0
 77151  1  0  0  0
 77152  1  0  0  0
 78 85  1  0  0  0
 78153  1  0  0  0
 78154  1  0  0  0
 78155  1  0  0  0
 79 82  1  0  0  0
 79156  1  0  0  0
 79157  1  0  0  0
 80 81  1  0  0  0
 80158  1  0  0  0
 80159  1  0  0  0
 81160  1  0  0  0
 81161  1  0  0  0
 82 83  1  0  0  0
 82162  1  0  0  0
 82163  1  0  0  0
 83 84  1  0  0  0
 83164  1  0  0  0
 83165  1  0  0  0
 84 86  1  0  0  0
 84166  1  0  0  0
 84167  1  0  0  0
 85 88  1  0  0  0
 85168  1  0  0  0
 85169  1  0  0  0
 86170  1  0  0  0
 86171  1  0  0  0
 87172  1  0  0  0
M  ISO  4   1 100  68 101  86 101  87 100
M  END
> <chiral flag>
0

> <version>
0

> <s_m_source_file>
/data/baiqing/PycharmProjects/Reinvent-master-3.2/result/LINK_invent/BTK/process_docking_weight1_custom_product_contain_oxygen_bond_distance_aromatic_linkinvent_7_9_3/rearranged_h_0134.sdf

> <i_m_source_file_index>
77

> <r_mmod_Potential_Energy-OPLS-2005>
9.90655136108398

> <r_mmod_Stretch_Energy-OPLS-2005>
35.9653587341309

> <r_mmod_Bend_Energy-OPLS-2005>
101.989250183105

> <r_mmod_Torsional_Energy-OPLS-2005>
268.762298583984

> <r_mmod_Improper_Torsional_Energy-OPLS-2005>
7.90207004547119

> <r_mmod_Van_der_Waal_Energy-OPLS-2005>
140.007766723633

> <r_mmod_Electrostatic_Energy-OPLS-2005>
-368.150512695312

> <r_mmod_Solvation_Energy-OPLS-2005>
-195.193634033203

> <b_mmod_Minimization_Converged-OPLS-2005>
0

> <r_mmod_RMS_Derivative-OPLS-2005>
2.27419233322144

$$$$
77
                    3D
 Structure written by MMmdl.
162170  0  0  1  0            999 V2000
  -30.7041  -14.5154   20.5591 C   0  0  0  0  0  0
  -30.4171  -12.3265   19.4481 C   0  0  0  0  0  0
  -29.4960  -12.4901   18.2218 C   0  0  0  0  0  0
  -28.0174  -12.3516   18.6316 C   0  0  0  0  0  0
  -27.6545  -13.2148   19.8705 C   0  0  2  0  0  0
  -28.6949  -13.0427   21.0015 C   0  0  0  0  0  0
  -25.2550  -13.8179   20.5700 C   0  0  0  0  0  0
  -24.1803  -13.0446   20.9174 C   0  0  0  0  0  0
  -24.6364  -11.6918   20.8722 C   0  0  0  0  0  0
  -23.9040  -10.4298   21.0385 C   0  0  0  0  0  0
  -24.3598   -9.4216   21.9168 C   0  0  0  0  0  0
  -23.6283   -8.2247   22.0750 C   0  0  0  0  0  0
  -22.4268   -8.0272   21.3536 C   0  0  0  0  0  0
  -21.9893   -9.0233   20.4635 C   0  0  0  0  0  0
  -22.7213  -10.2120   20.3034 C   0  0  0  0  0  0
  -21.6859   -6.0723   22.5270 C   0  0  0  0  0  0
  -21.4012   -6.5630   23.8202 C   0  0  0  0  0  0
  -21.3654   -5.6786   24.9163 C   0  0  0  0  0  0
  -21.6053   -4.3048   24.7218 C   0  0  0  0  0  0
  -21.8820   -3.8135   23.4344 C   0  0  0  0  0  0
  -21.9197   -4.6954   22.3396 C   0  0  0  0  0  0
  -22.7826  -13.5227   21.1855 C   0  0  0  0  0  0
  -22.1665   -4.2136   21.0975 F   0  0  0  0  0  0
  -21.5635   -3.4529   25.7732 F   0  0  0  0  0  0
  -30.0216  -13.3404   20.4425 N   0  0  0  0  0  0
  -26.2980  -12.9354   20.3356 N   0  0  0  0  0  0
  -25.9291  -11.6511   20.5766 N   0  0  0  0  0  0
  -22.0481  -12.8189   22.0404 N   0  0  0  0  0  0
  -25.4297  -15.1899   20.4162 N   0  0  0  0  0  0
  -31.8461  -14.6566   20.1158 O   0  0  0  0  0  0
  -21.6643   -6.8860   21.4232 O   0  0  0  0  0  0
  -22.3506  -14.5542   20.6732 O   0  0  0  0  0  0
  -24.6156  -31.8656   23.2101 C   0  0  0  0  0  0
  -25.9036  -32.4828   23.8400 C   0  0  1  0  0  0
  -27.2213  -27.4020   20.1049 C   0  0  0  0  0  0
  -25.5873  -33.8630   24.2304 N   0  0  0  0  0  0
  -23.4057  -30.4928   21.5483 C   0  0  2  0  0  0
  -24.8494  -28.9564   20.1154 C   0  0  0  0  0  0
  -22.7434  -29.4655   22.4960 C   0  0  0  0  0  0
  -18.0277  -28.1362   22.8478 C   0  0  0  0  0  0
  -24.1485  -36.7311   23.2645 C   0  0  0  0  0  0
  -25.9392  -30.8236   21.3661 C   0  0  0  0  0  0
  -26.0132  -29.4561   20.7128 C   0  0  0  0  0  0
  -27.2046  -28.6892   20.6991 C   0  0  0  0  0  0
  -26.0361  -26.9259   19.5004 C   0  0  0  0  0  0
  -24.8573  -27.6915   19.5059 C   0  0  0  0  0  0
  -23.6162  -29.8284   20.1627 C   0  0  0  0  0  0
  -25.4102  -36.3114   24.0328 C   0  0  1  0  0  0
  -20.5872  -28.3638   23.1300 C   0  0  2  0  0  0
  -20.6769  -26.9364   22.5422 C   0  0  0  0  0  0
  -19.5770  -26.6354   21.5208 C   0  0  0  0  0  0
  -18.1926  -26.7908   22.1580 C   0  0  0  0  0  0
  -19.1527  -28.8810   23.2900 C   0  0  0  0  0  0
  -18.9465  -30.1413   23.8912 C   0  0  0  0  0  0
  -17.6470  -30.6568   24.0565 C   0  0  0  0  0  0
  -25.9035  -34.9483   23.5112 C   0  0  0  0  0  0
  -16.5360  -29.9066   23.6333 C   0  0  0  0  0  0
  -16.7262  -28.6488   23.0336 C   0  0  0  0  0  0
  -26.4445  -31.6644   25.0753 C   0  0  0  0  0  0
  -25.3697  -31.3743   26.1505 C   0  0  0  0  0  0
  -27.0295  -30.3096   24.6138 C   0  0  0  0  0  0
  -27.6045  -32.4351   25.7475 C   0  0  0  0  0  0
  -27.5589  -37.1795   24.8439 C   0  0  0  0  0  0
  -21.4155  -29.3023   22.3721 N   0  0  0  0  0  0
  -26.4277  -37.3810   23.9429 N   0  0  0  0  0  0
  -24.6720  -31.0771   22.0993 N   0  0  0  0  0  0
  -23.4214  -28.8169   23.2976 O   0  0  0  0  0  0
  -28.3688  -26.6280   20.1180 O   0  0  0  0  0  0
  -26.5630  -34.8932   22.4697 O   0  0  0  0  0  0
  -23.5343  -32.1382   23.7502 O   0  0  0  0  0  0
  -27.9892  -20.3316   22.2172 C   0  0  0  0  0  0
  -27.9439  -19.1271   22.9427 C   0  0  0  0  0  0
  -29.6862  -19.3674   20.7698 C   0  0  0  0  0  0
  -28.8855  -20.4844   21.1410 C   0  0  0  0  0  0
  -28.7720  -18.0350   22.6017 C   0  0  0  0  0  0
  -29.6279  -18.1251   21.4692 C   0  0  0  0  0  0
  -28.7440  -16.8108   23.5031 C   0  0  0  0  0  0
  -30.4283  -25.3201   21.5505 C   0  0  0  0  0  0
  -28.9556  -21.8383   20.4018 C   0  0  0  0  0  0
  -30.5584  -16.9654   21.0314 C   0  0  0  0  0  0
  -29.3396  -23.0408   21.3159 C   0  0  0  0  0  0
  -28.1856  -25.2128   20.3791 C   0  0  0  0  0  0
  -29.5171  -24.4543   20.6592 C   0  0  1  0  0  0
  -30.0224  -15.5826   21.0344 N   0  0  0  0  0  0
  -31.4625  -12.4165   19.1491 H   0  0  0  0  0  0
  -30.3178  -11.3261   19.8728 H   0  0  0  0  0  0
  -29.7426  -11.7426   17.4668 H   0  0  0  0  0  0
  -29.6621  -13.4635   17.7593 H   0  0  0  0  0  0
  -27.8337  -11.2988   18.8475 H   0  0  0  0  0  0
  -27.3672  -12.6042   17.7927 H   0  0  0  0  0  0
  -27.6851  -14.2551   19.5470 H   0  0  0  0  0  0
  -28.6729  -12.0224   21.3868 H   0  0  0  0  0  0
  -28.4499  -13.6833   21.8503 H   0  0  0  0  0  0
  -25.2743   -9.5708   22.4741 H   0  0  0  0  0  0
  -23.9997   -7.4646   22.7464 H   0  0  0  0  0  0
  -21.0832   -8.8726   19.8936 H   0  0  0  0  0  0
  -22.3653  -10.9646   19.6131 H   0  0  0  0  0  0
  -21.1995   -7.6134   23.9698 H   0  0  0  0  0  0
  -21.1481   -6.0516   25.9068 H   0  0  0  0  0  0
  -22.0610   -2.7596   23.2843 H   0  0  0  0  0  0
  -22.4105  -11.9821   22.4734 H   0  0  0  0  0  0
  -21.1100  -13.1192   22.2636 H   0  0  0  0  0  0
  -24.6707  -15.8508   20.5406 H   0  0  0  0  0  0
  -26.2924  -15.6316   20.1250 H   0  0  0  0  0  0
  -26.7111  -32.5522   23.1165 H   0  0  0  0  0  0
  -25.0020  -33.9807   25.0438 H   0  0  0  0  0  0
  -22.6940  -31.3103   21.4074 H   0  0  0  0  0  0
  -23.3776  -35.9624   23.3255 H   0  0  0  0  0  0
  -24.3593  -36.8985   22.2076 H   0  0  0  0  0  0
  -23.7200  -37.6478   23.6704 H   0  0  0  0  0  0
  -26.0576  -31.5843   20.5947 H   0  0  0  0  0  0
  -26.8266  -30.8751   21.9854 H   0  0  0  0  0  0
  -28.1015  -29.0658   21.1718 H   0  0  0  0  0  0
  -26.0018  -25.9610   19.0172 H   0  0  0  0  0  0
  -23.9634  -27.2985   19.0429 H   0  0  0  0  0  0
  -23.7316  -30.6033   19.4045 H   0  0  0  0  0  0
  -22.7376  -29.2558   19.8613 H   0  0  0  0  0  0
  -25.1276  -36.1968   25.0823 H   0  0  0  0  0  0
  -20.9982  -28.3195   24.1412 H   0  0  0  0  0  0
  -20.5632  -26.2244   23.3615 H   0  0  0  0  0  0
  -21.6637  -26.7370   22.1237 H   0  0  0  0  0  0
  -19.6953  -25.6275   21.1210 H   0  0  0  0  0  0
  -19.6738  -27.3197   20.6779 H   0  0  0  0  0  0
  -17.4222  -26.6686   21.3956 H   0  0  0  0  0  0
  -18.0278  -26.0019   22.8925 H   0  0  0  0  0  0
  -19.7949  -30.7221   24.2273 H   0  0  0  0  0  0
  -17.5032  -31.6246   24.5169 H   0  0  0  0  0  0
  -15.5366  -30.2984   23.7663 H   0  0  0  0  0  0
  -15.8644  -28.0843   22.7024 H   0  0  0  0  0  0
  -24.5862  -30.7099   25.7815 H   0  0  0  0  0  0
  -24.8892  -32.2908   26.4963 H   0  0  0  0  0  0
  -25.8013  -30.8888   27.0264 H   0  0  0  0  0  0
  -26.2855  -29.6851   24.1192 H   0  0  0  0  0  0
  -27.4085  -29.7340   25.4592 H   0  0  0  0  0  0
  -27.8662  -30.4438   23.9276 H   0  0  0  0  0  0
  -27.2726  -33.3671   26.2047 H   0  0  0  0  0  0
  -28.3840  -32.6876   25.0271 H   0  0  0  0  0  0
  -28.0741  -31.8480   26.5376 H   0  0  0  0  0  0
  -28.2547  -38.0158   24.7584 H   0  0  0  0  0  0
  -28.1133  -36.2689   24.6109 H   0  0  0  0  0  0
  -27.2337  -37.1267   25.8848 H   0  0  0  0  0  0
  -20.9308  -29.8780   21.6971 H   0  0  0  0  0  0
  -26.0151  -38.2859   24.1522 H   0  0  0  0  0  0
  -27.3427  -21.1481   22.5100 H   0  0  0  0  0  0
  -27.2707  -19.0561   23.7880 H   0  0  0  0  0  0
  -30.3703  -19.4701   19.9377 H   0  0  0  0  0  0
  -28.2738  -17.0342   24.4615 H   0  0  0  0  0  0
  -29.7542  -16.4593   23.7187 H   0  0  0  0  0  0
  -28.1796  -16.0020   23.0408 H   0  0  0  0  0  0
  -31.3785  -24.8240   21.7489 H   0  0  0  0  0  0
  -29.9573  -25.5423   22.5084 H   0  0  0  0  0  0
  -30.6674  -26.2709   21.0707 H   0  0  0  0  0  0
  -27.9852  -22.0276   19.9387 H   0  0  0  0  0  0
  -29.6680  -21.7620   19.5809 H   0  0  0  0  0  0
  -31.4442  -16.9959   21.6681 H   0  0  0  0  0  0
  -30.9134  -17.1822   20.0221 H   0  0  0  0  0  0
  -30.2820  -22.7675   21.7929 H   0  0  0  0  0  0
  -28.6246  -23.1269   22.1339 H   0  0  0  0  0  0
  -27.5259  -25.1017   21.2409 H   0  0  0  0  0  0
  -27.6926  -24.7266   19.5376 H   0  0  0  0  0  0
  -30.0409  -24.3222   19.7114 H   0  0  0  0  0  0
  -29.0726  -15.4443   21.3422 H   0  0  0  0  0  0
  1 25  1  0  0  0
  1 30  2  0  0  0
  1 84  1  0  0  0
  2  3  1  0  0  0
  2 25  1  0  0  0
  2 85  1  0  0  0
  2 86  1  0  0  0
  3  4  1  0  0  0
  3 87  1  0  0  0
  3 88  1  0  0  0
  4  5  1  0  0  0
  4 89  1  0  0  0
  4 90  1  0  0  0
  5  6  1  0  0  0
  5 26  1  0  0  0
  5 91  1  0  0  0
  6 25  1  0  0  0
  6 92  1  0  0  0
  6 93  1  0  0  0
  7  8  2  0  0  0
  7 26  1  0  0  0
  7 29  1  0  0  0
  8  9  1  0  0  0
  8 22  1  0  0  0
  9 10  1  0  0  0
  9 27  2  0  0  0
 10 11  2  0  0  0
 10 15  1  0  0  0
 11 12  1  0  0  0
 11 94  1  0  0  0
 12 13  2  0  0  0
 12 95  1  0  0  0
 13 14  1  0  0  0
 13 31  1  0  0  0
 14 15  2  0  0  0
 14 96  1  0  0  0
 15 97  1  0  0  0
 16 17  2  0  0  0
 16 21  1  0  0  0
 16 31  1  0  0  0
 17 18  1  0  0  0
 17 98  1  0  0  0
 18 19  2  0  0  0
 18 99  1  0  0  0
 19 20  1  0  0  0
 19 24  1  0  0  0
 20 21  2  0  0  0
 20100  1  0  0  0
 21 23  1  0  0  0
 22 28  1  0  0  0
 22 32  2  0  0  0
 26 27  1  0  0  0
 28101  1  0  0  0
 28102  1  0  0  0
 29103  1  0  0  0
 29104  1  0  0  0
 33 34  1  0  0  0
 33 66  1  0  0  0
 33 70  2  0  0  0
 34 36  1  0  0  0
 34 59  1  0  0  0
 34105  1  0  0  0
 35 44  2  0  0  0
 35 45  1  0  0  0
 35 68  1  0  0  0
 36 56  1  0  0  0
 36106  1  0  0  0
 37 39  1  0  0  0
 37 47  1  0  0  0
 37 66  1  0  0  0
 37107  1  0  0  0
 38 43  2  0  0  0
 38 46  1  0  0  0
 38 47  1  0  0  0
 39 64  1  0  0  0
 39 67  2  0  0  0
 40 52  1  0  0  0
 40 53  2  0  0  0
 40 58  1  0  0  0
 41108  1  0  0  0
 41109  1  0  0  0
 41110  1  0  0  0
 41 48  1  0  0  0
 42 43  1  0  0  0
 42 66  1  0  0  0
 42111  1  0  0  0
 42112  1  0  0  0
 43 44  1  0  0  0
 44113  1  0  0  0
 45 46  2  0  0  0
 45114  1  0  0  0
 46115  1  0  0  0
 47116  1  0  0  0
 47117  1  0  0  0
 48 56  1  0  0  0
 48 65  1  0  0  0
 48118  1  0  0  0
 49 50  1  0  0  0
 49 53  1  0  0  0
 49 64  1  0  0  0
 49119  1  0  0  0
 50 51  1  0  0  0
 50120  1  0  0  0
 50121  1  0  0  0
 51 52  1  0  0  0
 51122  1  0  0  0
 51123  1  0  0  0
 52124  1  0  0  0
 52125  1  0  0  0
 53 54  1  0  0  0
 54 55  2  0  0  0
 54126  1  0  0  0
 55 57  1  0  0  0
 55127  1  0  0  0
 56 69  2  0  0  0
 57 58  2  0  0  0
 57128  1  0  0  0
 58129  1  0  0  0
 59 60  1  0  0  0
 59 61  1  0  0  0
 59 62  1  0  0  0
 60130  1  0  0  0
 60131  1  0  0  0
 60132  1  0  0  0
 61133  1  0  0  0
 61134  1  0  0  0
 61135  1  0  0  0
 62136  1  0  0  0
 62137  1  0  0  0
 62138  1  0  0  0
 63 65  1  0  0  0
 63139  1  0  0  0
 63140  1  0  0  0
 63141  1  0  0  0
 64142  1  0  0  0
 65143  1  0  0  0
 68 82  1  0  0  0
 71 72  2  0  0  0
 71 74  1  0  0  0
 71144  1  0  0  0
 72 75  1  0  0  0
 72145  1  0  0  0
 73 74  2  0  0  0
 73 76  1  0  0  0
 73146  1  0  0  0
 74 79  1  0  0  0
 75 76  2  0  0  0
 75 77  1  0  0  0
 76 80  1  0  0  0
 77147  1  0  0  0
 77148  1  0  0  0
 77149  1  0  0  0
 78150  1  0  0  0
 78151  1  0  0  0
 78152  1  0  0  0
 78 83  1  0  0  0
 79 81  1  0  0  0
 79153  1  0  0  0
 79154  1  0  0  0
 80 84  1  0  0  0
 80155  1  0  0  0
 80156  1  0  0  0
 81 83  1  0  0  0
 81157  1  0  0  0
 81158  1  0  0  0
 82 83  1  0  0  0
 82159  1  0  0  0
 82160  1  0  0  0
 83161  1  0  0  0
 84162  1  0  0  0
M  ISO  4   1 100  68 101  82 101  84 100
M  END
> <chiral flag>
0

> <version>
0

> <s_m_source_file>
/data/baiqing/PycharmProjects/Reinvent-master-3.2/result/LINK_invent/BTK/process_docking_weight1_custom_product_contain_oxygen_bond_distance_aromatic_linkinvent_7_9_3/rearranged_h_0134.sdf

> <i_m_source_file_index>
78

> <r_mmod_Potential_Energy-OPLS-2005>
-74.0380630493164

> <r_mmod_Stretch_Energy-OPLS-2005>
47.2595558166504

> <r_mmod_Bend_Energy-OPLS-2005>
101.468444824219

> <r_mmod_Torsional_Energy-OPLS-2005>
214.821990966797

> <r_mmod_Improper_Torsional_Energy-OPLS-2005>
3.61170268058777

> <r_mmod_Van_der_Waal_Energy-OPLS-2005>
148.867828369141

> <r_mmod_Electrostatic_Energy-OPLS-2005>
-415.550018310547

> <r_mmod_Solvation_Energy-OPLS-2005>
-194.555389404297

> <b_mmod_Minimization_Converged-OPLS-2005>
0

> <r_mmod_RMS_Derivative-OPLS-2005>
2.68923115730286

$$$$
78
                    3D
 Structure written by MMmdl.
158166  0  0  1  0            999 V2000
  -30.5985  -14.6195   20.5317 C   0  0  0  0  0  0
  -30.4482  -12.3877   19.4276 C   0  0  0  0  0  0
  -29.5076  -12.5195   18.2083 C   0  0  0  0  0  0
  -28.0279  -12.3568   18.6214 C   0  0  0  0  0  0
  -27.6579  -13.2019   19.8693 C   0  0  2  0  0  0
  -28.7081  -13.0113   20.9865 C   0  0  0  0  0  0
  -25.2591  -13.8117   20.5684 C   0  0  0  0  0  0
  -24.1840  -13.0406   20.9194 C   0  0  0  0  0  0
  -24.6389  -11.6877   20.8734 C   0  0  0  0  0  0
  -23.9048  -10.4267   21.0394 C   0  0  0  0  0  0
  -24.3607   -9.4191   21.9177 C   0  0  0  0  0  0
  -23.6294   -8.2228   22.0752 C   0  0  0  0  0  0
  -22.4276   -8.0262   21.3544 C   0  0  0  0  0  0
  -21.9901   -9.0228   20.4641 C   0  0  0  0  0  0
  -22.7221  -10.2113   20.3044 C   0  0  0  0  0  0
  -21.6847   -6.0730   22.5281 C   0  0  0  0  0  0
  -21.3993   -6.5632   23.8213 C   0  0  0  0  0  0
  -21.3665   -5.6787   24.9180 C   0  0  0  0  0  0
  -21.6059   -4.3050   24.7226 C   0  0  0  0  0  0
  -21.8813   -3.8142   23.4344 C   0  0  0  0  0  0
  -21.9188   -4.6960   22.3406 C   0  0  0  0  0  0
  -22.7860  -13.5218   21.1857 C   0  0  0  0  0  0
  -22.1652   -4.2148   21.0985 F   0  0  0  0  0  0
  -21.5658   -3.4533   25.7737 F   0  0  0  0  0  0
  -30.0185  -13.3818   20.4298 N   0  0  0  0  0  0
  -26.3016  -12.9275   20.3344 N   0  0  0  0  0  0
  -25.9315  -11.6441   20.5749 N   0  0  0  0  0  0
  -22.0483  -12.8229   22.0417 N   0  0  0  0  0  0
  -25.4288  -15.1840   20.4090 N   0  0  0  0  0  0
  -31.7369  -14.8180   20.0934 O   0  0  0  0  0  0
  -21.6642   -6.8865   21.4242 O   0  0  0  0  0  0
  -22.3557  -14.5535   20.6706 O   0  0  0  0  0  0
  -24.6234  -31.8627   23.2020 C   0  0  0  0  0  0
  -25.9090  -32.4794   23.8354 C   0  0  1  0  0  0
  -27.2354  -27.3510   20.1146 C   0  0  0  0  0  0
  -25.5906  -33.8594   24.2287 N   0  0  0  0  0  0
  -23.4159  -30.4833   21.5453 C   0  0  2  0  0  0
  -24.8642  -28.9356   20.1160 C   0  0  0  0  0  0
  -22.7452  -29.4647   22.4976 C   0  0  0  0  0  0
  -18.0285  -28.1397   22.8498 C   0  0  0  0  0  0
  -24.1482  -36.7302   23.2636 C   0  0  0  0  0  0
  -25.9526  -30.8026   21.3662 C   0  0  0  0  0  0
  -26.0300  -29.4298   20.7144 C   0  0  0  0  0  0
  -27.2214  -28.6494   20.7016 C   0  0  0  0  0  0
  -26.0497  -26.8989   19.4966 C   0  0  0  0  0  0
  -24.8723  -27.6730   19.4998 C   0  0  0  0  0  0
  -23.6280  -29.8097   20.1637 C   0  0  0  0  0  0
  -25.4106  -36.3099   24.0336 C   0  0  1  0  0  0
  -20.5881  -28.3692   23.1311 C   0  0  2  0  0  0
  -20.6784  -26.9422   22.5422 C   0  0  0  0  0  0
  -19.5760  -26.6398   21.5226 C   0  0  0  0  0  0
  -18.1936  -26.7946   22.1629 C   0  0  0  0  0  0
  -19.1535  -28.8857   23.2907 C   0  0  0  0  0  0
  -18.9453  -30.1456   23.8937 C   0  0  0  0  0  0
  -17.6451  -30.6599   24.0560 C   0  0  0  0  0  0
  -25.9042  -34.9468   23.5120 C   0  0  0  0  0  0
  -16.5344  -29.9093   23.6330 C   0  0  0  0  0  0
  -16.7266  -28.6507   23.0357 C   0  0  0  0  0  0
  -26.4472  -31.6584   25.0713 C   0  0  0  0  0  0
  -25.3699  -31.3713   26.1430 C   0  0  0  0  0  0
  -27.0288  -30.3009   24.6127 C   0  0  0  0  0  0
  -27.6042  -32.4288   25.7496 C   0  0  0  0  0  0
  -27.5591  -37.1801   24.8456 C   0  0  0  0  0  0
  -21.4172  -29.3052   22.3706 N   0  0  0  0  0  0
  -26.4287  -37.3794   23.9418 N   0  0  0  0  0  0
  -24.6830  -31.0656   22.0958 N   0  0  0  0  0  0
  -23.4178  -28.8205   23.3071 O   0  0  0  0  0  0
  -28.3730  -26.5413   20.1054 O   0  0  0  0  0  0
  -26.5623  -34.8932   22.4692 O   0  0  0  0  0  0
  -23.5401  -32.1428   23.7355 O   0  0  0  0  0  0
  -29.9558  -18.3510   21.6085 C   0  0  0  0  0  0
  -29.8045  -19.7297   21.2871 C   0  0  0  0  0  0
  -29.5222  -19.1263   18.9794 C   0  0  0  0  0  0
  -29.8603  -17.3122   20.6398 C   0  0  0  0  0  0
  -29.6338  -17.7368   19.2979 C   0  0  0  0  0  0
  -29.5698  -20.1561   19.9571 C   0  0  0  0  0  0
  -29.4616  -16.7260   18.1754 C   0  0  0  0  0  0
  -30.5644  -24.4221   19.8013 C   0  0  0  0  0  0
  -29.7707  -15.8220   21.1464 C   0  0  0  0  0  0
  -28.2383  -25.1516   20.5762 C   0  0  0  0  0  0
  -28.9504  -22.5529   20.4341 C   0  0  0  0  0  0
  -29.0802  -24.0254   19.8407 C   0  0  2  0  0  0
  -29.4271  -21.4949   19.5450 O   0  0  0  0  0  0
  -31.4843  -12.5346   19.1211 H   0  0  0  0  0  0
  -30.4033  -11.3796   19.8437 H   0  0  0  0  0  0
  -29.7688  -11.7790   17.4510 H   0  0  0  0  0  0
  -29.6529  -13.4923   17.7373 H   0  0  0  0  0  0
  -27.8565  -11.3005   18.8282 H   0  0  0  0  0  0
  -27.3737  -12.6137   17.7879 H   0  0  0  0  0  0
  -27.6798  -14.2422   19.5536 H   0  0  0  0  0  0
  -28.7251  -11.9709   21.3157 H   0  0  0  0  0  0
  -28.4600  -13.5879   21.8779 H   0  0  0  0  0  0
  -25.2734   -9.5691   22.4763 H   0  0  0  0  0  0
  -24.0007   -7.4623   22.7462 H   0  0  0  0  0  0
  -21.0836   -8.8719   19.8952 H   0  0  0  0  0  0
  -22.3646  -10.9652   19.6160 H   0  0  0  0  0  0
  -21.1956   -7.6129   23.9722 H   0  0  0  0  0  0
  -21.1508   -6.0510   25.9090 H   0  0  0  0  0  0
  -22.0596   -2.7607   23.2840 H   0  0  0  0  0  0
  -22.4059  -11.9888   22.4831 H   0  0  0  0  0  0
  -21.1097  -13.1268   22.2588 H   0  0  0  0  0  0
  -24.6602  -15.8333   20.5309 H   0  0  0  0  0  0
  -26.2781  -15.6345   20.0917 H   0  0  0  0  0  0
  -26.7166  -32.5479   23.1118 H   0  0  0  0  0  0
  -25.0008  -33.9730   25.0399 H   0  0  0  0  0  0
  -22.7104  -31.3037   21.3995 H   0  0  0  0  0  0
  -23.3749  -35.9630   23.3291 H   0  0  0  0  0  0
  -24.3585  -36.8918   22.2052 H   0  0  0  0  0  0
  -23.7219  -37.6500   23.6650 H   0  0  0  0  0  0
  -26.0738  -31.5627   20.5927 H   0  0  0  0  0  0
  -26.8367  -30.8595   21.9887 H   0  0  0  0  0  0
  -28.1220  -29.0303   21.1629 H   0  0  0  0  0  0
  -26.0289  -25.9381   19.0033 H   0  0  0  0  0  0
  -23.9797  -27.2894   19.0261 H   0  0  0  0  0  0
  -23.7389  -30.5808   19.4008 H   0  0  0  0  0  0
  -22.7503  -29.2318   19.8700 H   0  0  0  0  0  0
  -25.1283  -36.1961   25.0830 H   0  0  0  0  0  0
  -20.9974  -28.3263   24.1430 H   0  0  0  0  0  0
  -20.5704  -26.2301   23.3615 H   0  0  0  0  0  0
  -21.6650  -26.7486   22.1194 H   0  0  0  0  0  0
  -19.6916  -25.6310   21.1258 H   0  0  0  0  0  0
  -19.6703  -27.3209   20.6759 H   0  0  0  0  0  0
  -17.4209  -26.6696   21.4025 H   0  0  0  0  0  0
  -18.0329  -26.0088   22.9026 H   0  0  0  0  0  0
  -19.7924  -30.7258   24.2344 H   0  0  0  0  0  0
  -17.5001  -31.6294   24.5129 H   0  0  0  0  0  0
  -15.5341  -30.2989   23.7659 H   0  0  0  0  0  0
  -15.8666  -28.0818   22.7080 H   0  0  0  0  0  0
  -24.5866  -30.7084   25.7737 H   0  0  0  0  0  0
  -24.8898  -32.2875   26.4877 H   0  0  0  0  0  0
  -25.8006  -30.8856   27.0193 H   0  0  0  0  0  0
  -26.2842  -29.6791   24.1141 H   0  0  0  0  0  0
  -27.3984  -29.7238   25.4613 H   0  0  0  0  0  0
  -27.8717  -30.4306   23.9333 H   0  0  0  0  0  0
  -27.2664  -33.3574   26.2112 H   0  0  0  0  0  0
  -28.3847  -32.6862   25.0323 H   0  0  0  0  0  0
  -28.0708  -31.8375   26.5384 H   0  0  0  0  0  0
  -28.2571  -38.0137   24.7562 H   0  0  0  0  0  0
  -28.1128  -36.2678   24.6202 H   0  0  0  0  0  0
  -27.2327  -37.1339   25.8858 H   0  0  0  0  0  0
  -20.9349  -29.8728   21.6883 H   0  0  0  0  0  0
  -26.0177  -38.2868   24.1433 H   0  0  0  0  0  0
  -30.1031  -18.0893   22.6473 H   0  0  0  0  0  0
  -29.8767  -20.4542   22.0844 H   0  0  0  0  0  0
  -29.3531  -19.4143   17.9502 H   0  0  0  0  0  0
  -28.9905  -17.1792   17.3022 H   0  0  0  0  0  0
  -28.8279  -15.8958   18.4803 H   0  0  0  0  0  0
  -30.4275  -16.3258   17.8657 H   0  0  0  0  0  0
  -30.7072  -25.3961   19.3321 H   0  0  0  0  0  0
  -31.1535  -23.6958   19.2395 H   0  0  0  0  0  0
  -30.9817  -24.4793   20.8078 H   0  0  0  0  0  0
  -28.7090  -15.6031   21.0681 H   0  0  0  0  0  0
  -29.9796  -15.8062   22.2149 H   0  0  0  0  0  0
  -28.5377  -25.1594   21.6255 H   0  0  0  0  0  0
  -27.1952  -24.8348   20.5905 H   0  0  0  0  0  0
  -27.9015  -22.3490   20.6527 H   0  0  0  0  0  0
  -29.4745  -22.5142   21.3877 H   0  0  0  0  0  0
  -28.7137  -23.9903   18.8141 H   0  0  0  0  0  0
  1 25  1  0  0  0
  1 30  2  0  0  0
  1 79  1  0  0  0
  2  3  1  0  0  0
  2 25  1  0  0  0
  2 84  1  0  0  0
  2 85  1  0  0  0
  3  4  1  0  0  0
  3 86  1  0  0  0
  3 87  1  0  0  0
  4  5  1  0  0  0
  4 88  1  0  0  0
  4 89  1  0  0  0
  5  6  1  0  0  0
  5 26  1  0  0  0
  5 90  1  0  0  0
  6 25  1  0  0  0
  6 91  1  0  0  0
  6 92  1  0  0  0
  7  8  2  0  0  0
  7 26  1  0  0  0
  7 29  1  0  0  0
  8  9  1  0  0  0
  8 22  1  0  0  0
  9 10  1  0  0  0
  9 27  2  0  0  0
 10 11  2  0  0  0
 10 15  1  0  0  0
 11 12  1  0  0  0
 11 93  1  0  0  0
 12 13  2  0  0  0
 12 94  1  0  0  0
 13 14  1  0  0  0
 13 31  1  0  0  0
 14 15  2  0  0  0
 14 95  1  0  0  0
 15 96  1  0  0  0
 16 17  2  0  0  0
 16 21  1  0  0  0
 16 31  1  0  0  0
 17 18  1  0  0  0
 17 97  1  0  0  0
 18 19  2  0  0  0
 18 98  1  0  0  0
 19 20  1  0  0  0
 19 24  1  0  0  0
 20 21  2  0  0  0
 20 99  1  0  0  0
 21 23  1  0  0  0
 22 28  1  0  0  0
 22 32  2  0  0  0
 26 27  1  0  0  0
 28100  1  0  0  0
 28101  1  0  0  0
 29102  1  0  0  0
 29103  1  0  0  0
 33 34  1  0  0  0
 33 66  1  0  0  0
 33 70  2  0  0  0
 34 36  1  0  0  0
 34 59  1  0  0  0
 34104  1  0  0  0
 35 44  2  0  0  0
 35 45  1  0  0  0
 35 68  1  0  0  0
 36 56  1  0  0  0
 36105  1  0  0  0
 37 39  1  0  0  0
 37 47  1  0  0  0
 37 66  1  0  0  0
 37106  1  0  0  0
 38 43  2  0  0  0
 38 46  1  0  0  0
 38 47  1  0  0  0
 39 64  1  0  0  0
 39 67  2  0  0  0
 40 52  1  0  0  0
 40 53  2  0  0  0
 40 58  1  0  0  0
 41107  1  0  0  0
 41108  1  0  0  0
 41109  1  0  0  0
 41 48  1  0  0  0
 42 43  1  0  0  0
 42 66  1  0  0  0
 42110  1  0  0  0
 42111  1  0  0  0
 43 44  1  0  0  0
 44112  1  0  0  0
 45 46  2  0  0  0
 45113  1  0  0  0
 46114  1  0  0  0
 47115  1  0  0  0
 47116  1  0  0  0
 48 56  1  0  0  0
 48 65  1  0  0  0
 48117  1  0  0  0
 49 50  1  0  0  0
 49 53  1  0  0  0
 49 64  1  0  0  0
 49118  1  0  0  0
 50 51  1  0  0  0
 50119  1  0  0  0
 50120  1  0  0  0
 51 52  1  0  0  0
 51121  1  0  0  0
 51122  1  0  0  0
 52123  1  0  0  0
 52124  1  0  0  0
 53 54  1  0  0  0
 54 55  2  0  0  0
 54125  1  0  0  0
 55 57  1  0  0  0
 55126  1  0  0  0
 56 69  2  0  0  0
 57 58  2  0  0  0
 57127  1  0  0  0
 58128  1  0  0  0
 59 60  1  0  0  0
 59 61  1  0  0  0
 59 62  1  0  0  0
 60129  1  0  0  0
 60130  1  0  0  0
 60131  1  0  0  0
 61132  1  0  0  0
 61133  1  0  0  0
 61134  1  0  0  0
 62135  1  0  0  0
 62136  1  0  0  0
 62137  1  0  0  0
 63 65  1  0  0  0
 63138  1  0  0  0
 63139  1  0  0  0
 63140  1  0  0  0
 64141  1  0  0  0
 65142  1  0  0  0
 68 80  1  0  0  0
 71 72  2  0  0  0
 71 74  1  0  0  0
 71143  1  0  0  0
 72 76  1  0  0  0
 72144  1  0  0  0
 73 75  1  0  0  0
 73 76  2  0  0  0
 73145  1  0  0  0
 74 75  2  0  0  0
 74 79  1  0  0  0
 75 77  1  0  0  0
 76 83  1  0  0  0
 77146  1  0  0  0
 77147  1  0  0  0
 77148  1  0  0  0
 78149  1  0  0  0
 78150  1  0  0  0
 78151  1  0  0  0
 78 82  1  0  0  0
 79152  1  0  0  0
 79153  1  0  0  0
 80 82  1  0  0  0
 80154  1  0  0  0
 80155  1  0  0  0
 81 82  1  0  0  0
 81 83  1  0  0  0
 81156  1  0  0  0
 81157  1  0  0  0
 82158  1  0  0  0
M  ISO  4   1 100  68 101  79 100  80 101
M  END
> <chiral flag>
0

> <version>
0

> <s_m_source_file>
/data/baiqing/PycharmProjects/Reinvent-master-3.2/result/LINK_invent/BTK/process_docking_weight1_custom_product_contain_oxygen_bond_distance_aromatic_linkinvent_7_9_3/rearranged_h_0134.sdf

> <i_m_source_file_index>
79

> <r_mmod_Potential_Energy-OPLS-2005>
95.6888198852539

> <r_mmod_Stretch_Energy-OPLS-2005>
74.1509704589844

> <r_mmod_Bend_Energy-OPLS-2005>
143.960083007812

> <r_mmod_Torsional_Energy-OPLS-2005>
199.161773681641

> <r_mmod_Improper_Torsional_Energy-OPLS-2005>
3.64511942863464

> <r_mmod_Van_der_Waal_Energy-OPLS-2005>
137.080001831055

> <r_mmod_Electrostatic_Energy-OPLS-2005>
-299.022796630859

> <r_mmod_Solvation_Energy-OPLS-2005>
-200.124053955078

> <b_mmod_Minimization_Converged-OPLS-2005>
0

> <r_mmod_RMS_Derivative-OPLS-2005>
2.13314414024353

$$$$
79
                    3D
 Structure written by MMmdl.
163172  0  0  1  0            999 V2000
  -30.7584  -14.3743   20.6566 C   0  0  0  0  0  0
  -30.4123  -12.2767   19.4091 C   0  0  0  0  0  0
  -29.4880  -12.5230   18.2018 C   0  0  0  0  0  0
  -28.0105  -12.3825   18.6129 C   0  0  0  0  0  0
  -27.6667  -13.2049   19.8832 C   0  0  2  0  0  0
  -28.7020  -12.9478   21.0010 C   0  0  0  0  0  0
  -25.2605  -13.8170   20.5671 C   0  0  0  0  0  0
  -24.1845  -13.0445   20.9151 C   0  0  0  0  0  0
  -24.6399  -11.6909   20.8718 C   0  0  0  0  0  0
  -23.9063  -10.4292   21.0396 C   0  0  0  0  0  0
  -24.3616   -9.4212   21.9178 C   0  0  0  0  0  0
  -23.6286   -8.2250   22.0760 C   0  0  0  0  0  0
  -22.4268   -8.0286   21.3552 C   0  0  0  0  0  0
  -21.9907   -9.0252   20.4644 C   0  0  0  0  0  0
  -22.7240  -10.2130   20.3045 C   0  0  0  0  0  0
  -21.6854   -6.0737   22.5277 C   0  0  0  0  0  0
  -21.4005   -6.5635   23.8206 C   0  0  0  0  0  0
  -21.3648   -5.6789   24.9168 C   0  0  0  0  0  0
  -21.6046   -4.3051   24.7219 C   0  0  0  0  0  0
  -21.8823   -3.8144   23.4338 C   0  0  0  0  0  0
  -21.9195   -4.6965   22.3397 C   0  0  0  0  0  0
  -22.7870  -13.5249   21.1828 C   0  0  0  0  0  0
  -22.1668   -4.2153   21.0976 F   0  0  0  0  0  0
  -21.5625   -3.4539   25.7735 F   0  0  0  0  0  0
  -30.0486  -13.2311   20.4678 N   0  0  0  0  0  0
  -26.3049  -12.9336   20.3394 N   0  0  0  0  0  0
  -25.9325  -11.6493   20.5759 N   0  0  0  0  0  0
  -22.0510  -12.8235   22.0384 N   0  0  0  0  0  0
  -25.4334  -15.1882   20.4088 N   0  0  0  0  0  0
  -31.8038  -14.6102   20.0450 O   0  0  0  0  0  0
  -21.6638   -6.8884   21.4243 O   0  0  0  0  0  0
  -22.3553  -14.5560   20.6694 O   0  0  0  0  0  0
  -24.6092  -31.8715   23.2136 C   0  0  0  0  0  0
  -25.9011  -32.4839   23.8416 C   0  0  1  0  0  0
  -27.2366  -27.4814   20.0915 C   0  0  0  0  0  0
  -25.5892  -33.8637   24.2349 N   0  0  0  0  0  0
  -23.3951  -30.4939   21.5528 C   0  0  2  0  0  0
  -24.8437  -28.9630   20.1162 C   0  0  0  0  0  0
  -22.7375  -29.4679   22.5022 C   0  0  0  0  0  0
  -18.0260  -28.1376   22.8499 C   0  0  0  0  0  0
  -24.1467  -36.7304   23.2637 C   0  0  0  0  0  0
  -25.9177  -30.8496   21.3610 C   0  0  0  0  0  0
  -25.9974  -29.4847   20.7158 C   0  0  0  0  0  0
  -27.1980  -28.7471   20.7105 C   0  0  0  0  0  0
  -26.0765  -26.9638   19.4840 C   0  0  0  0  0  0
  -24.8746  -27.6980   19.5009 C   0  0  0  0  0  0
  -23.6016  -29.8225   20.1676 C   0  0  0  0  0  0
  -25.4092  -36.3125   24.0346 C   0  0  1  0  0  0
  -20.5849  -28.3649   23.1333 C   0  0  2  0  0  0
  -20.6756  -26.9391   22.5424 C   0  0  0  0  0  0
  -19.5733  -26.6379   21.5219 C   0  0  0  0  0  0
  -18.1903  -26.7929   22.1613 C   0  0  0  0  0  0
  -19.1512  -28.8826   23.2916 C   0  0  0  0  0  0
  -18.9448  -30.1437   23.8921 C   0  0  0  0  0  0
  -17.6453  -30.6584   24.0565 C   0  0  0  0  0  0
  -25.9029  -34.9490   23.5144 C   0  0  0  0  0  0
  -16.5342  -29.9087   23.6337 C   0  0  0  0  0  0
  -16.7254  -28.6506   23.0359 C   0  0  0  0  0  0
  -26.4455  -31.6597   25.0720 C   0  0  0  0  0  0
  -25.3739  -31.3661   26.1473 C   0  0  0  0  0  0
  -27.0286  -30.3050   24.6055 C   0  0  0  0  0  0
  -27.6031  -32.4306   25.7495 C   0  0  0  0  0  0
  -27.5586  -37.1786   24.8456 C   0  0  0  0  0  0
  -21.4111  -29.3025   22.3746 N   0  0  0  0  0  0
  -26.4266  -37.3822   23.9449 N   0  0  0  0  0  0
  -24.6586  -31.0854   22.1018 N   0  0  0  0  0  0
  -23.4165  -28.8232   23.3060 O   0  0  0  0  0  0
  -28.3869  -26.7427   20.0599 O   0  0  0  0  0  0
  -26.5595  -34.8938   22.4708 O   0  0  0  0  0  0
  -23.5302  -32.1459   23.7559 O   0  0  0  0  0  0
  -31.6069  -18.7277   21.3180 C   0  0  0  0  0  0
  -31.4918  -17.3447   21.1029 C   0  0  0  0  0  0
  -30.7359  -19.3949   22.2017 C   0  0  0  0  0  0
  -29.7466  -18.6549   22.8975 C   0  0  0  0  0  0
  -30.4894  -16.6000   21.7689 C   0  0  0  0  0  0
  -29.6340  -17.2621   22.6742 C   0  0  0  0  0  0
  -30.1112  -24.1162   22.1991 C   0  0  0  0  0  0
  -29.5222  -23.9695   20.1823 C   0  0  0  0  0  0
  -30.3918  -23.0934   21.0893 C   0  0  2  0  0  0
  -29.8163  -25.1574   21.1071 C   0  0  1  0  0  0
  -28.8010  -19.3383   23.8735 C   0  0  0  0  0  0
  -30.8708  -20.9052   22.3286 C   0  0  0  0  0  0
  -30.0247  -21.6258   21.2673 C   0  0  0  0  0  0
  -28.7364  -26.2046   21.3277 C   0  0  0  0  0  0
  -30.2509  -15.2096   21.5752 N   0  0  0  0  0  0
  -28.6837  -16.5417   23.3198 F   0  0  0  0  0  0
  -31.4587  -12.3577   19.1104 H   0  0  0  0  0  0
  -30.2935  -11.2565   19.7773 H   0  0  0  0  0  0
  -29.7219  -11.8233   17.3984 H   0  0  0  0  0  0
  -29.6643  -13.5220   17.8000 H   0  0  0  0  0  0
  -27.8128  -11.3245   18.7902 H   0  0  0  0  0  0
  -27.3608  -12.6770   17.7882 H   0  0  0  0  0  0
  -27.7250  -14.2590   19.6112 H   0  0  0  0  0  0
  -28.6570  -11.9056   21.3197 H   0  0  0  0  0  0
  -28.4492  -13.5257   21.8906 H   0  0  0  0  0  0
  -25.2760   -9.5685   22.4750 H   0  0  0  0  0  0
  -23.9988   -7.4648   22.7491 H   0  0  0  0  0  0
  -21.0840   -8.8769   19.8944 H   0  0  0  0  0  0
  -22.3705  -10.9664   19.6146 H   0  0  0  0  0  0
  -21.1988   -7.6141   23.9709 H   0  0  0  0  0  0
  -21.1462   -6.0516   25.9070 H   0  0  0  0  0  0
  -22.0608   -2.7610   23.2839 H   0  0  0  0  0  0
  -22.4122  -11.9878   22.4747 H   0  0  0  0  0  0
  -21.1131  -13.1262   22.2600 H   0  0  0  0  0  0
  -24.6725  -15.8486   20.5249 H   0  0  0  0  0  0
  -26.3009  -15.6287   20.1283 H   0  0  0  0  0  0
  -26.7085  -32.5574   23.1195 H   0  0  0  0  0  0
  -25.0053  -33.9813   25.0498 H   0  0  0  0  0  0
  -22.6822  -31.3096   21.4143 H   0  0  0  0  0  0
  -23.3764  -35.9597   23.3262 H   0  0  0  0  0  0
  -24.3571  -36.8962   22.2061 H   0  0  0  0  0  0
  -23.7159  -37.6469   23.6673 H   0  0  0  0  0  0
  -26.0210  -31.6127   20.5885 H   0  0  0  0  0  0
  -26.8094  -30.9099   21.9731 H   0  0  0  0  0  0
  -28.0911  -29.1492   21.1683 H   0  0  0  0  0  0
  -26.1042  -25.9948   19.0054 H   0  0  0  0  0  0
  -23.9872  -27.2917   19.0354 H   0  0  0  0  0  0
  -23.7002  -30.5951   19.4040 H   0  0  0  0  0  0
  -22.7285  -29.2352   19.8780 H   0  0  0  0  0  0
  -25.1260  -36.1983   25.0833 H   0  0  0  0  0  0
  -20.9940  -28.3212   24.1453 H   0  0  0  0  0  0
  -20.5665  -26.2259   23.3610 H   0  0  0  0  0  0
  -21.6624  -26.7449   22.1200 H   0  0  0  0  0  0
  -19.6886  -25.6292   21.1244 H   0  0  0  0  0  0
  -19.6680  -27.3204   20.6760 H   0  0  0  0  0  0
  -17.4186  -26.6719   21.3989 H   0  0  0  0  0  0
  -18.0267  -26.0051   22.8979 H   0  0  0  0  0  0
  -19.7925  -30.7250   24.2293 H   0  0  0  0  0  0
  -17.5009  -31.6274   24.5148 H   0  0  0  0  0  0
  -15.5344  -30.2997   23.7656 H   0  0  0  0  0  0
  -15.8646  -28.0834   22.7066 H   0  0  0  0  0  0
  -24.5921  -30.7001   25.7801 H   0  0  0  0  0  0
  -24.8916  -32.2793   26.4967 H   0  0  0  0  0  0
  -25.8104  -30.8794   27.0205 H   0  0  0  0  0  0
  -26.2809  -29.6808   24.1141 H   0  0  0  0  0  0
  -27.4116  -29.7276   25.4482 H   0  0  0  0  0  0
  -27.8616  -30.4383   23.9149 H   0  0  0  0  0  0
  -27.2649  -33.3595   26.2101 H   0  0  0  0  0  0
  -28.3838  -32.6884   25.0325 H   0  0  0  0  0  0
  -28.0701  -31.8413   26.5397 H   0  0  0  0  0  0
  -28.2542  -38.0150   24.7640 H   0  0  0  0  0  0
  -28.1148  -36.2700   24.6104 H   0  0  0  0  0  0
  -27.2331  -37.1216   25.8859 H   0  0  0  0  0  0
  -20.9269  -29.8724   21.6949 H   0  0  0  0  0  0
  -26.0156  -38.2876   24.1550 H   0  0  0  0  0  0
  -32.3633  -19.2828   20.7791 H   0  0  0  0  0  0
  -32.1807  -16.8961   20.4054 H   0  0  0  0  0  0
  -30.9667  -24.3506   22.8332 H   0  0  0  0  0  0
  -29.2319  -23.8640   22.7959 H   0  0  0  0  0  0
  -28.4687  -23.6808   20.1917 H   0  0  0  0  0  0
  -29.8887  -24.0852   19.1615 H   0  0  0  0  0  0
  -31.4334  -23.1933   20.7760 H   0  0  0  0  0  0
  -30.7513  -25.6256   20.7918 H   0  0  0  0  0  0
  -28.3512  -20.2259   23.4299 H   0  0  0  0  0  0
  -29.3415  -19.6384   24.7713 H   0  0  0  0  0  0
  -27.9859  -18.6828   24.1793 H   0  0  0  0  0  0
  -31.9223  -21.1654   22.1970 H   0  0  0  0  0  0
  -30.6090  -21.2452   23.3309 H   0  0  0  0  0  0
  -30.1588  -21.1224   20.3091 H   0  0  0  0  0  0
  -28.9662  -21.5184   21.5070 H   0  0  0  0  0  0
  -29.0954  -26.9937   21.9895 H   0  0  0  0  0  0
  -27.8621  -25.7550   21.8032 H   0  0  0  0  0  0
  -29.4586  -14.8508   22.0870 H   0  0  0  0  0  0
  1 25  1  0  0  0
  1 30  2  0  0  0
  1 85  1  0  0  0
  2  3  1  0  0  0
  2 25  1  0  0  0
  2 87  1  0  0  0
  2 88  1  0  0  0
  3  4  1  0  0  0
  3 89  1  0  0  0
  3 90  1  0  0  0
  4  5  1  0  0  0
  4 91  1  0  0  0
  4 92  1  0  0  0
  5  6  1  0  0  0
  5 26  1  0  0  0
  5 93  1  0  0  0
  6 25  1  0  0  0
  6 94  1  0  0  0
  6 95  1  0  0  0
  7  8  2  0  0  0
  7 26  1  0  0  0
  7 29  1  0  0  0
  8  9  1  0  0  0
  8 22  1  0  0  0
  9 10  1  0  0  0
  9 27  2  0  0  0
 10 11  2  0  0  0
 10 15  1  0  0  0
 11 12  1  0  0  0
 11 96  1  0  0  0
 12 13  2  0  0  0
 12 97  1  0  0  0
 13 14  1  0  0  0
 13 31  1  0  0  0
 14 15  2  0  0  0
 14 98  1  0  0  0
 15 99  1  0  0  0
 16 17  2  0  0  0
 16 21  1  0  0  0
 16 31  1  0  0  0
 17 18  1  0  0  0
 17100  1  0  0  0
 18 19  2  0  0  0
 18101  1  0  0  0
 19 20  1  0  0  0
 19 24  1  0  0  0
 20 21  2  0  0  0
 20102  1  0  0  0
 21 23  1  0  0  0
 22 28  1  0  0  0
 22 32  2  0  0  0
 26 27  1  0  0  0
 28103  1  0  0  0
 28104  1  0  0  0
 29105  1  0  0  0
 29106  1  0  0  0
 33 34  1  0  0  0
 33 66  1  0  0  0
 33 70  2  0  0  0
 34 36  1  0  0  0
 34 59  1  0  0  0
 34107  1  0  0  0
 35 44  2  0  0  0
 35 45  1  0  0  0
 35 68  1  0  0  0
 36 56  1  0  0  0
 36108  1  0  0  0
 37 39  1  0  0  0
 37 47  1  0  0  0
 37 66  1  0  0  0
 37109  1  0  0  0
 38 43  2  0  0  0
 38 46  1  0  0  0
 38 47  1  0  0  0
 39 64  1  0  0  0
 39 67  2  0  0  0
 40 52  1  0  0  0
 40 53  2  0  0  0
 40 58  1  0  0  0
 41110  1  0  0  0
 41111  1  0  0  0
 41112  1  0  0  0
 41 48  1  0  0  0
 42 43  1  0  0  0
 42 66  1  0  0  0
 42113  1  0  0  0
 42114  1  0  0  0
 43 44  1  0  0  0
 44115  1  0  0  0
 45 46  2  0  0  0
 45116  1  0  0  0
 46117  1  0  0  0
 47118  1  0  0  0
 47119  1  0  0  0
 48 56  1  0  0  0
 48 65  1  0  0  0
 48120  1  0  0  0
 49 50  1  0  0  0
 49 53  1  0  0  0
 49 64  1  0  0  0
 49121  1  0  0  0
 50 51  1  0  0  0
 50122  1  0  0  0
 50123  1  0  0  0
 51 52  1  0  0  0
 51124  1  0  0  0
 51125  1  0  0  0
 52126  1  0  0  0
 52127  1  0  0  0
 53 54  1  0  0  0
 54 55  2  0  0  0
 54128  1  0  0  0
 55 57  1  0  0  0
 55129  1  0  0  0
 56 69  2  0  0  0
 57 58  2  0  0  0
 57130  1  0  0  0
 58131  1  0  0  0
 59 60  1  0  0  0
 59 61  1  0  0  0
 59 62  1  0  0  0
 60132  1  0  0  0
 60133  1  0  0  0
 60134  1  0  0  0
 61135  1  0  0  0
 61136  1  0  0  0
 61137  1  0  0  0
 62138  1  0  0  0
 62139  1  0  0  0
 62140  1  0  0  0
 63 65  1  0  0  0
 63141  1  0  0  0
 63142  1  0  0  0
 63143  1  0  0  0
 64144  1  0  0  0
 65145  1  0  0  0
 68 84  1  0  0  0
 71 72  2  0  0  0
 71 73  1  0  0  0
 71146  1  0  0  0
 72 75  1  0  0  0
 72147  1  0  0  0
 73 74  2  0  0  0
 73 82  1  0  0  0
 74 76  1  0  0  0
 74 81  1  0  0  0
 75 76  2  0  0  0
 75 85  1  0  0  0
 76 86  1  0  0  0
 77 79  1  0  0  0
 77 80  1  0  0  0
 77148  1  0  0  0
 77149  1  0  0  0
 78 79  1  0  0  0
 78 80  1  0  0  0
 78150  1  0  0  0
 78151  1  0  0  0
 79 83  1  0  0  0
 79152  1  0  0  0
 80 84  1  0  0  0
 80153  1  0  0  0
 81154  1  0  0  0
 81155  1  0  0  0
 81156  1  0  0  0
 82 83  1  0  0  0
 82157  1  0  0  0
 82158  1  0  0  0
 83159  1  0  0  0
 83160  1  0  0  0
 84161  1  0  0  0
 84162  1  0  0  0
 85163  1  0  0  0
M  ISO  4   1 100  68 101  84 101  85 100
M  END
> <chiral flag>
0

> <version>
0

> <s_m_source_file>
/data/baiqing/PycharmProjects/Reinvent-master-3.2/result/LINK_invent/BTK/process_docking_weight1_custom_product_contain_oxygen_bond_distance_aromatic_linkinvent_7_9_3/rearranged_h_0134.sdf

> <i_m_source_file_index>
80

> <r_mmod_Potential_Energy-OPLS-2005>
-28.9411754608154

> <r_mmod_Stretch_Energy-OPLS-2005>
31.4766941070557

> <r_mmod_Bend_Energy-OPLS-2005>
103.884117126465

> <r_mmod_Torsional_Energy-OPLS-2005>
252.072341918945

> <r_mmod_Improper_Torsional_Energy-OPLS-2005>
2.31674718856812

> <r_mmod_Van_der_Waal_Energy-OPLS-2005>
157.358825683594

> <r_mmod_Electrostatic_Energy-OPLS-2005>
-397.89453125

> <r_mmod_Solvation_Energy-OPLS-2005>
-184.606582641602

> <b_mmod_Minimization_Converged-OPLS-2005>
0

> <r_mmod_RMS_Derivative-OPLS-2005>
1.08501982688904

$$$$
80
                    3D
 Structure written by MMmdl.
160168  0  0  1  0            999 V2000
  -30.5793  -14.7539   20.5232 C   0  0  0  0  0  0
  -30.4513  -12.4707   19.4766 C   0  0  0  0  0  0
  -29.5198  -12.5365   18.2433 C   0  0  0  0  0  0
  -28.0450  -12.3501   18.6513 C   0  0  0  0  0  0
  -27.6538  -13.2279   19.8687 C   0  0  2  0  0  0
  -28.6970  -13.1076   21.0036 C   0  0  0  0  0  0
  -25.2498  -13.8155   20.5611 C   0  0  0  0  0  0
  -24.1806  -13.0413   20.9185 C   0  0  0  0  0  0
  -24.6409  -11.6899   20.8749 C   0  0  0  0  0  0
  -23.9079  -10.4281   21.0408 C   0  0  0  0  0  0
  -24.3624   -9.4197   21.9188 C   0  0  0  0  0  0
  -23.6292   -8.2236   22.0757 C   0  0  0  0  0  0
  -22.4275   -8.0278   21.3546 C   0  0  0  0  0  0
  -21.9914   -9.0253   20.4648 C   0  0  0  0  0  0
  -22.7249  -10.2128   20.3057 C   0  0  0  0  0  0
  -21.6852   -6.0733   22.5278 C   0  0  0  0  0  0
  -21.4014   -6.5637   23.8212 C   0  0  0  0  0  0
  -21.3660   -5.6790   24.9174 C   0  0  0  0  0  0
  -21.6045   -4.3053   24.7225 C   0  0  0  0  0  0
  -21.8819   -3.8144   23.4346 C   0  0  0  0  0  0
  -21.9192   -4.6961   22.3402 C   0  0  0  0  0  0
  -22.7827  -13.5203   21.1849 C   0  0  0  0  0  0
  -22.1661   -4.2146   21.0980 F   0  0  0  0  0  0
  -21.5630   -3.4538   25.7738 F   0  0  0  0  0  0
  -30.0089  -13.4960   20.4537 N   0  0  0  0  0  0
  -26.2986  -12.9384   20.3329 N   0  0  0  0  0  0
  -25.9352  -11.6529   20.5786 N   0  0  0  0  0  0
  -22.0478  -12.8204   22.0418 N   0  0  0  0  0  0
  -25.4065  -15.1857   20.3857 N   0  0  0  0  0  0
  -31.6818  -14.9654   20.0077 O   0  0  0  0  0  0
  -21.6638   -6.8876   21.4241 O   0  0  0  0  0  0
  -22.3508  -14.5509   20.6698 O   0  0  0  0  0  0
  -24.6332  -31.8530   23.1962 C   0  0  0  0  0  0
  -25.9148  -32.4742   23.8318 C   0  0  1  0  0  0
  -27.2267  -27.2420   20.1308 C   0  0  0  0  0  0
  -25.5934  -33.8545   24.2239 N   0  0  0  0  0  0
  -23.4317  -30.4743   21.5396 C   0  0  2  0  0  0
  -24.8810  -28.9181   20.1085 C   0  0  0  0  0  0
  -22.7516  -29.4588   22.4899 C   0  0  0  0  0  0
  -18.0295  -28.1389   22.8482 C   0  0  0  0  0  0
  -24.1489  -36.7279   23.2641 C   0  0  0  0  0  0
  -25.9791  -30.7587   21.3804 C   0  0  0  0  0  0
  -26.0522  -29.3797   20.7220 C   0  0  0  0  0  0
  -27.2249  -28.5540   20.7227 C   0  0  0  0  0  0
  -26.0333  -26.8592   19.4761 C   0  0  0  0  0  0
  -24.8781  -27.6668   19.4742 C   0  0  0  0  0  0
  -23.6519  -29.8069   20.1563 C   0  0  0  0  0  0
  -25.4118  -36.3062   24.0323 C   0  0  1  0  0  0
  -20.5900  -28.3704   23.1261 C   0  0  2  0  0  0
  -20.6781  -26.9418   22.5407 C   0  0  0  0  0  0
  -19.5756  -26.6382   21.5212 C   0  0  0  0  0  0
  -18.1937  -26.7930   22.1623 C   0  0  0  0  0  0
  -19.1549  -28.8863   23.2866 C   0  0  0  0  0  0
  -18.9470  -30.1461   23.8888 C   0  0  0  0  0  0
  -17.6469  -30.6589   24.0561 C   0  0  0  0  0  0
  -25.9060  -34.9433   23.5086 C   0  0  0  0  0  0
  -16.5360  -29.9086   23.6331 C   0  0  0  0  0  0
  -16.7280  -28.6503   23.0353 C   0  0  0  0  0  0
  -26.4505  -31.6578   25.0720 C   0  0  0  0  0  0
  -25.3716  -31.3740   26.1433 C   0  0  0  0  0  0
  -27.0361  -30.2989   24.6233 C   0  0  0  0  0  0
  -27.6050  -32.4329   25.7499 C   0  0  0  0  0  0
  -27.5577  -37.1797   24.8466 C   0  0  0  0  0  0
  -21.4219  -29.3045   22.3645 N   0  0  0  0  0  0
  -26.4290  -37.3764   23.9407 N   0  0  0  0  0  0
  -24.7004  -31.0475   22.0949 N   0  0  0  0  0  0
  -23.4203  -28.8135   23.3014 O   0  0  0  0  0  0
  -28.3204  -26.3379   20.2129 O   0  0  0  0  0  0
  -26.5639  -34.8914   22.4660 O   0  0  0  0  0  0
  -23.5476  -32.1364   23.7242 O   0  0  0  0  0  0
  -27.1999  -18.2351   21.6007 C   0  0  0  0  0  0
  -27.9488  -17.0607   21.4541 C   0  0  0  0  0  0
  -29.8286  -18.3889   20.6953 C   0  0  0  0  0  0
  -27.7441  -19.5076   21.3470 C   0  0  0  0  0  0
  -29.2902  -17.0668   21.0339 C   0  0  0  0  0  0
  -29.0590  -19.6452   20.8109 C   0  0  0  0  0  0
  -26.8886  -20.6804   21.8034 C   0  0  0  0  0  0
  -31.1362  -25.1318   21.1921 C   0  0  0  0  0  0
  -30.6008  -24.0192   20.2771 C   0  0  0  0  0  0
  -28.1453  -24.8607   19.9189 C   0  0  0  0  0  0
  -28.8737  -22.1331   19.9677 C   0  0  0  0  0  0
  -29.1126  -23.6680   20.4934 C   0  0  1  0  0  0
  -29.8936  -15.7157   21.2422 N   0  0  0  0  0  0
  -29.6093  -20.9496   20.5606 O   0  0  0  0  0  0
  -31.4889  -12.6200   19.1729 H   0  0  0  0  0  0
  -30.4175  -11.4789   19.9305 H   0  0  0  0  0  0
  -29.8046  -11.7772   17.5140 H   0  0  0  0  0  0
  -29.6414  -13.4996   17.7451 H   0  0  0  0  0  0
  -27.8998  -11.2970   18.8952 H   0  0  0  0  0  0
  -27.3885  -12.5594   17.8060 H   0  0  0  0  0  0
  -27.6644  -14.2612   19.5207 H   0  0  0  0  0  0
  -28.7344  -12.0845   21.3804 H   0  0  0  0  0  0
  -28.4079  -13.7211   21.8571 H   0  0  0  0  0  0
  -25.2767   -9.5672   22.4765 H   0  0  0  0  0  0
  -23.9998   -7.4628   22.7479 H   0  0  0  0  0  0
  -21.0845   -8.8776   19.8954 H   0  0  0  0  0  0
  -22.3711  -10.9669   19.6166 H   0  0  0  0  0  0
  -21.2006   -7.6145   23.9715 H   0  0  0  0  0  0
  -21.1484   -6.0520   25.9077 H   0  0  0  0  0  0
  -22.0597   -2.7606   23.2847 H   0  0  0  0  0  0
  -22.4095  -11.9868   22.4810 H   0  0  0  0  0  0
  -21.1099  -13.1235   22.2629 H   0  0  0  0  0  0
  -24.6253  -15.8259   20.4736 H   0  0  0  0  0  0
  -26.2366  -15.6249   20.0092 H   0  0  0  0  0  0
  -26.7215  -32.5385   23.1058 H   0  0  0  0  0  0
  -25.0066  -33.9677   25.0374 H   0  0  0  0  0  0
  -22.7292  -31.2972   21.3916 H   0  0  0  0  0  0
  -23.3752  -35.9612   23.3303 H   0  0  0  0  0  0
  -24.3576  -36.8905   22.2055 H   0  0  0  0  0  0
  -23.7245  -37.6480   23.6669 H   0  0  0  0  0  0
  -26.1220  -31.5186   20.6109 H   0  0  0  0  0  0
  -26.8548  -30.8072   22.0161 H   0  0  0  0  0  0
  -28.1184  -28.9007   21.2228 H   0  0  0  0  0  0
  -25.9612  -25.9080   18.9707 H   0  0  0  0  0  0
  -23.9836  -27.3098   18.9822 H   0  0  0  0  0  0
  -23.7783  -30.5829   19.4005 H   0  0  0  0  0  0
  -22.7700  -29.2413   19.8500 H   0  0  0  0  0  0
  -25.1301  -36.1906   25.0817 H   0  0  0  0  0  0
  -20.9992  -28.3286   24.1381 H   0  0  0  0  0  0
  -20.5678  -26.2317   23.3616 H   0  0  0  0  0  0
  -21.6649  -26.7437   22.1204 H   0  0  0  0  0  0
  -19.6919  -25.6290   21.1249 H   0  0  0  0  0  0
  -19.6693  -27.3186   20.6736 H   0  0  0  0  0  0
  -17.4206  -26.6673   21.4027 H   0  0  0  0  0  0
  -18.0339  -26.0074   22.9022 H   0  0  0  0  0  0
  -19.7946  -30.7277   24.2256 H   0  0  0  0  0  0
  -17.5024  -31.6267   24.5166 H   0  0  0  0  0  0
  -15.5360  -30.2987   23.7658 H   0  0  0  0  0  0
  -15.8680  -28.0819   22.7075 H   0  0  0  0  0  0
  -24.5897  -30.7083   25.7759 H   0  0  0  0  0  0
  -24.8901  -32.2914   26.4829 H   0  0  0  0  0  0
  -25.8021  -30.8936   27.0229 H   0  0  0  0  0  0
  -26.2957  -29.6728   24.1241 H   0  0  0  0  0  0
  -27.4013  -29.7264   25.4769 H   0  0  0  0  0  0
  -27.8846  -30.4254   23.9505 H   0  0  0  0  0  0
  -27.2649  -33.3636   26.2054 H   0  0  0  0  0  0
  -28.3872  -32.6880   25.0337 H   0  0  0  0  0  0
  -28.0706  -31.8471   26.5435 H   0  0  0  0  0  0
  -28.2597  -38.0091   24.7504 H   0  0  0  0  0  0
  -28.1069  -36.2621   24.6303 H   0  0  0  0  0  0
  -27.2293  -37.1460   25.8869 H   0  0  0  0  0  0
  -20.9412  -29.8766   21.6843 H   0  0  0  0  0  0
  -26.0167  -38.2839   24.1401 H   0  0  0  0  0  0
  -26.1964  -18.1504   21.9949 H   0  0  0  0  0  0
  -27.4802  -16.1345   21.7555 H   0  0  0  0  0  0
  -30.8648  -18.4559   20.3962 H   0  0  0  0  0  0
  -26.2749  -20.3959   22.6590 H   0  0  0  0  0  0
  -26.2068  -21.0013   21.0157 H   0  0  0  0  0  0
  -27.4953  -21.5215   22.1371 H   0  0  0  0  0  0
  -32.2073  -25.2703   21.0414 H   0  0  0  0  0  0
  -30.9831  -24.8882   22.2440 H   0  0  0  0  0  0
  -30.6590  -26.0911   20.9980 H   0  0  0  0  0  0
  -31.2053  -23.1298   20.4612 H   0  0  0  0  0  0
  -30.7701  -24.2816   19.2319 H   0  0  0  0  0  0
  -27.1454  -24.5771   20.2479 H   0  0  0  0  0  0
  -28.1316  -24.7717   18.8321 H   0  0  0  0  0  0
  -29.1762  -22.1285   18.9202 H   0  0  0  0  0  0
  -27.8083  -21.9517   19.8866 H   0  0  0  0  0  0
  -28.9397  -23.6345   21.5695 H   0  0  0  0  0  0
  -29.2858  -15.1860   21.8482 H   0  0  0  0  0  0
  1 25  1  0  0  0
  1 30  2  0  0  0
  1 83  1  0  0  0
  2  3  1  0  0  0
  2 25  1  0  0  0
  2 85  1  0  0  0
  2 86  1  0  0  0
  3  4  1  0  0  0
  3 87  1  0  0  0
  3 88  1  0  0  0
  4  5  1  0  0  0
  4 89  1  0  0  0
  4 90  1  0  0  0
  5  6  1  0  0  0
  5 26  1  0  0  0
  5 91  1  0  0  0
  6 25  1  0  0  0
  6 92  1  0  0  0
  6 93  1  0  0  0
  7  8  2  0  0  0
  7 26  1  0  0  0
  7 29  1  0  0  0
  8  9  1  0  0  0
  8 22  1  0  0  0
  9 10  1  0  0  0
  9 27  2  0  0  0
 10 11  2  0  0  0
 10 15  1  0  0  0
 11 12  1  0  0  0
 11 94  1  0  0  0
 12 13  2  0  0  0
 12 95  1  0  0  0
 13 14  1  0  0  0
 13 31  1  0  0  0
 14 15  2  0  0  0
 14 96  1  0  0  0
 15 97  1  0  0  0
 16 17  2  0  0  0
 16 21  1  0  0  0
 16 31  1  0  0  0
 17 18  1  0  0  0
 17 98  1  0  0  0
 18 19  2  0  0  0
 18 99  1  0  0  0
 19 20  1  0  0  0
 19 24  1  0  0  0
 20 21  2  0  0  0
 20100  1  0  0  0
 21 23  1  0  0  0
 22 28  1  0  0  0
 22 32  2  0  0  0
 26 27  1  0  0  0
 28101  1  0  0  0
 28102  1  0  0  0
 29103  1  0  0  0
 29104  1  0  0  0
 33 34  1  0  0  0
 33 66  1  0  0  0
 33 70  2  0  0  0
 34 36  1  0  0  0
 34 59  1  0  0  0
 34105  1  0  0  0
 35 44  2  0  0  0
 35 45  1  0  0  0
 35 68  1  0  0  0
 36 56  1  0  0  0
 36106  1  0  0  0
 37 39  1  0  0  0
 37 47  1  0  0  0
 37 66  1  0  0  0
 37107  1  0  0  0
 38 43  2  0  0  0
 38 46  1  0  0  0
 38 47  1  0  0  0
 39 64  1  0  0  0
 39 67  2  0  0  0
 40 52  1  0  0  0
 40 53  2  0  0  0
 40 58  1  0  0  0
 41108  1  0  0  0
 41109  1  0  0  0
 41110  1  0  0  0
 41 48  1  0  0  0
 42 43  1  0  0  0
 42 66  1  0  0  0
 42111  1  0  0  0
 42112  1  0  0  0
 43 44  1  0  0  0
 44113  1  0  0  0
 45 46  2  0  0  0
 45114  1  0  0  0
 46115  1  0  0  0
 47116  1  0  0  0
 47117  1  0  0  0
 48 56  1  0  0  0
 48 65  1  0  0  0
 48118  1  0  0  0
 49 50  1  0  0  0
 49 53  1  0  0  0
 49 64  1  0  0  0
 49119  1  0  0  0
 50 51  1  0  0  0
 50120  1  0  0  0
 50121  1  0  0  0
 51 52  1  0  0  0
 51122  1  0  0  0
 51123  1  0  0  0
 52124  1  0  0  0
 52125  1  0  0  0
 53 54  1  0  0  0
 54 55  2  0  0  0
 54126  1  0  0  0
 55 57  1  0  0  0
 55127  1  0  0  0
 56 69  2  0  0  0
 57 58  2  0  0  0
 57128  1  0  0  0
 58129  1  0  0  0
 59 60  1  0  0  0
 59 61  1  0  0  0
 59 62  1  0  0  0
 60130  1  0  0  0
 60131  1  0  0  0
 60132  1  0  0  0
 61133  1  0  0  0
 61134  1  0  0  0
 61135  1  0  0  0
 62136  1  0  0  0
 62137  1  0  0  0
 62138  1  0  0  0
 63 65  1  0  0  0
 63139  1  0  0  0
 63140  1  0  0  0
 63141  1  0  0  0
 64142  1  0  0  0
 65143  1  0  0  0
 68 80  1  0  0  0
 71 72  2  0  0  0
 71 74  1  0  0  0
 71144  1  0  0  0
 72 75  1  0  0  0
 72145  1  0  0  0
 73 75  2  0  0  0
 73 76  1  0  0  0
 73146  1  0  0  0
 74 76  2  0  0  0
 74 77  1  0  0  0
 75 83  1  0  0  0
 76 84  1  0  0  0
 77147  1  0  0  0
 77148  1  0  0  0
 77149  1  0  0  0
 78 79  1  0  0  0
 78150  1  0  0  0
 78151  1  0  0  0
 78152  1  0  0  0
 79153  1  0  0  0
 79154  1  0  0  0
 79 82  1  0  0  0
 80 82  1  0  0  0
 80155  1  0  0  0
 80156  1  0  0  0
 81 82  1  0  0  0
 81 84  1  0  0  0
 81157  1  0  0  0
 81158  1  0  0  0
 82159  1  0  0  0
 83160  1  0  0  0
M  ISO  4   1 100  68 101  80 101  83 100
M  END
> <chiral flag>
0

> <version>
0

> <s_m_source_file>
/data/baiqing/PycharmProjects/Reinvent-master-3.2/result/LINK_invent/BTK/process_docking_weight1_custom_product_contain_oxygen_bond_distance_aromatic_linkinvent_7_9_3/rearranged_h_0134.sdf

> <i_m_source_file_index>
81

> <r_mmod_Potential_Energy-OPLS-2005>
333.176422119141

> <r_mmod_Stretch_Energy-OPLS-2005>
154.342849731445

> <r_mmod_Bend_Energy-OPLS-2005>
241.038391113281

> <r_mmod_Torsional_Energy-OPLS-2005>
261.094512939453

> <r_mmod_Improper_Torsional_Energy-OPLS-2005>
8.01449871063232

> <r_mmod_Van_der_Waal_Energy-OPLS-2005>
139.751876831055

> <r_mmod_Electrostatic_Energy-OPLS-2005>
-355.951263427734

> <r_mmod_Solvation_Energy-OPLS-2005>
-209.108596801758

> <b_mmod_Minimization_Converged-OPLS-2005>
0

> <r_mmod_RMS_Derivative-OPLS-2005>
0.265407741069794

$$$$
81
                    3D
 Structure written by MMmdl.
156164  0  0  1  0            999 V2000
  -30.6044  -14.7923   20.5112 C   0  0  0  0  0  0
  -30.4363  -12.4960   19.4870 C   0  0  0  0  0  0
  -29.5180  -12.5370   18.2435 C   0  0  0  0  0  0
  -28.0417  -12.3505   18.6453 C   0  0  0  0  0  0
  -27.6441  -13.2362   19.8558 C   0  0  2  0  0  0
  -28.6843  -13.1473   20.9910 C   0  0  0  0  0  0
  -25.2522  -13.8208   20.5703 C   0  0  0  0  0  0
  -24.1811  -13.0447   20.9181 C   0  0  0  0  0  0
  -24.6397  -11.6925   20.8716 C   0  0  0  0  0  0
  -23.9071  -10.4301   21.0392 C   0  0  0  0  0  0
  -24.3620   -9.4223   21.9178 C   0  0  0  0  0  0
  -23.6302   -8.2254   22.0752 C   0  0  0  0  0  0
  -22.4283   -8.0282   21.3544 C   0  0  0  0  0  0
  -21.9912   -9.0251   20.4650 C   0  0  0  0  0  0
  -22.7230  -10.2138   20.3059 C   0  0  0  0  0  0
  -21.6855   -6.0734   22.5272 C   0  0  0  0  0  0
  -21.4009   -6.5638   23.8202 C   0  0  0  0  0  0
  -21.3670   -5.6791   24.9165 C   0  0  0  0  0  0
  -21.6053   -4.3052   24.7213 C   0  0  0  0  0  0
  -21.8823   -3.8144   23.4329 C   0  0  0  0  0  0
  -21.9195   -4.6965   22.3387 C   0  0  0  0  0  0
  -22.7830  -13.5227   21.1834 C   0  0  0  0  0  0
  -22.1669   -4.2151   21.0965 F   0  0  0  0  0  0
  -21.5637   -3.4538   25.7723 F   0  0  0  0  0  0
  -29.9832  -13.5527   20.4337 N   0  0  0  0  0  0
  -26.2949  -12.9414   20.3291 N   0  0  0  0  0  0
  -25.9336  -11.6549   20.5731 N   0  0  0  0  0  0
  -22.0467  -12.8239   22.0401 N   0  0  0  0  0  0
  -25.4244  -15.1936   20.4159 N   0  0  0  0  0  0
  -31.7348  -14.9105   20.0265 O   0  0  0  0  0  0
  -21.6651   -6.8878   21.4232 O   0  0  0  0  0  0
  -22.3509  -14.5516   20.6660 O   0  0  0  0  0  0
  -24.6331  -31.8523   23.1923 C   0  0  0  0  0  0
  -25.9148  -32.4733   23.8284 C   0  0  1  0  0  0
  -27.2286  -27.2325   20.1314 C   0  0  0  0  0  0
  -25.5945  -33.8541   24.2214 N   0  0  0  0  0  0
  -23.4311  -30.4700   21.5375 C   0  0  2  0  0  0
  -24.8780  -28.9055   20.1089 C   0  0  0  0  0  0
  -22.7508  -29.4584   22.4913 C   0  0  0  0  0  0
  -18.0296  -28.1383   22.8494 C   0  0  0  0  0  0
  -24.1496  -36.7271   23.2643 C   0  0  0  0  0  0
  -25.9769  -30.7530   21.3769 C   0  0  0  0  0  0
  -26.0482  -29.3719   20.7201 C   0  0  0  0  0  0
  -27.2208  -28.5477   20.7188 C   0  0  0  0  0  0
  -26.0324  -26.8331   19.4965 C   0  0  0  0  0  0
  -24.8766  -27.6448   19.4880 C   0  0  0  0  0  0
  -23.6488  -29.7962   20.1559 C   0  0  0  0  0  0
  -25.4129  -36.3059   24.0317 C   0  0  1  0  0  0
  -20.5899  -28.3696   23.1280 C   0  0  2  0  0  0
  -20.6789  -26.9416   22.5415 C   0  0  0  0  0  0
  -19.5761  -26.6383   21.5227 C   0  0  0  0  0  0
  -18.1939  -26.7930   22.1630 C   0  0  0  0  0  0
  -19.1549  -28.8861   23.2876 C   0  0  0  0  0  0
  -18.9471  -30.1469   23.8881 C   0  0  0  0  0  0
  -17.6468  -30.6586   24.0567 C   0  0  0  0  0  0
  -25.9071  -34.9432   23.5070 C   0  0  0  0  0  0
  -16.5360  -29.9080   23.6336 C   0  0  0  0  0  0
  -16.7284  -28.6499   23.0357 C   0  0  0  0  0  0
  -26.4500  -31.6568   25.0688 C   0  0  0  0  0  0
  -25.3701  -31.3744   26.1395 C   0  0  0  0  0  0
  -27.0354  -30.2975   24.6204 C   0  0  0  0  0  0
  -27.6031  -32.4330   25.7470 C   0  0  0  0  0  0
  -27.5583  -37.1798   24.8466 C   0  0  0  0  0  0
  -21.4212  -29.3036   22.3659 N   0  0  0  0  0  0
  -26.4299  -37.3764   23.9400 N   0  0  0  0  0  0
  -24.6994  -31.0450   22.0916 N   0  0  0  0  0  0
  -23.4198  -28.8166   23.3050 O   0  0  0  0  0  0
  -28.3489  -26.3625   20.2119 O   0  0  0  0  0  0
  -26.5651  -34.8929   22.4643 O   0  0  0  0  0  0
  -23.5475  -32.1371   23.7199 O   0  0  0  0  0  0
  -29.5286  -18.5448   22.2419 C   0  0  0  0  0  0
  -29.7005  -17.4586   23.0121 C   0  0  0  0  0  0
  -29.7342  -17.1932   20.2610 C   0  0  0  0  0  0
  -29.4777  -18.4631   20.7983 C   0  0  0  0  0  0
  -28.0149  -23.7322   20.6927 C   0  0  0  0  0  0
  -28.3508  -22.3868   20.9360 C   0  0  0  0  0  0
  -29.8678  -16.0428   22.4725 C   0  0  0  0  0  0
  -27.6234  -21.7226   22.0965 C   0  0  0  0  0  0
  -28.9792  -19.7668   19.9932 C   0  0  0  0  0  0
  -28.4099  -24.9260   19.7199 C   0  0  0  0  0  0
  -29.3872  -21.3357   20.3133 C   0  0  0  0  0  0
  -29.9266  -15.9289   20.9959 N   0  0  0  0  0  0
  -31.4759  -12.6262   19.1833 H   0  0  0  0  0  0
  -30.3960  -11.5138   19.9619 H   0  0  0  0  0  0
  -29.8122  -11.7666   17.5289 H   0  0  0  0  0  0
  -29.6430  -13.4932   17.7341 H   0  0  0  0  0  0
  -27.8981  -11.2976   18.8913 H   0  0  0  0  0  0
  -27.3890  -12.5564   17.7945 H   0  0  0  0  0  0
  -27.6452  -14.2660   19.4976 H   0  0  0  0  0  0
  -28.7360  -12.1323   21.3880 H   0  0  0  0  0  0
  -28.3771  -13.7714   21.8237 H   0  0  0  0  0  0
  -25.2766   -9.5711   22.4754 H   0  0  0  0  0  0
  -24.0020   -7.4649   22.7470 H   0  0  0  0  0  0
  -21.0848   -8.8760   19.8955 H   0  0  0  0  0  0
  -22.3676  -10.9675   19.6176 H   0  0  0  0  0  0
  -21.1998   -7.6145   23.9704 H   0  0  0  0  0  0
  -21.1497   -6.0518   25.9068 H   0  0  0  0  0  0
  -22.0596   -2.7607   23.2821 H   0  0  0  0  0  0
  -22.4070  -11.9934   22.4856 H   0  0  0  0  0  0
  -21.1069  -13.1270   22.2542 H   0  0  0  0  0  0
  -24.6650  -15.8536   20.5438 H   0  0  0  0  0  0
  -26.2945  -15.6372   20.1494 H   0  0  0  0  0  0
  -26.7207  -32.5357   23.1012 H   0  0  0  0  0  0
  -25.0099  -33.9676   25.0367 H   0  0  0  0  0  0
  -22.7277  -31.2910   21.3869 H   0  0  0  0  0  0
  -23.3769  -35.9594   23.3307 H   0  0  0  0  0  0
  -24.3580  -36.8899   22.2057 H   0  0  0  0  0  0
  -23.7249  -37.6470   23.6671 H   0  0  0  0  0  0
  -26.1234  -31.5130   20.6081 H   0  0  0  0  0  0
  -26.8505  -30.7973   22.0148 H   0  0  0  0  0  0
  -28.1161  -28.9007   21.2107 H   0  0  0  0  0  0
  -25.9586  -25.8662   19.0240 H   0  0  0  0  0  0
  -23.9780  -27.2780   19.0109 H   0  0  0  0  0  0
  -23.7712  -30.5684   19.3956 H   0  0  0  0  0  0
  -22.7652  -29.2292   19.8577 H   0  0  0  0  0  0
  -25.1319  -36.1891   25.0810 H   0  0  0  0  0  0
  -20.9987  -28.3280   24.1404 H   0  0  0  0  0  0
  -20.5713  -26.2308   23.3622 H   0  0  0  0  0  0
  -21.6655  -26.7454   22.1196 H   0  0  0  0  0  0
  -19.6923  -25.6294   21.1263 H   0  0  0  0  0  0
  -19.6696  -27.3190   20.6756 H   0  0  0  0  0  0
  -17.4215  -26.6701   21.4021 H   0  0  0  0  0  0
  -18.0310  -26.0063   22.9012 H   0  0  0  0  0  0
  -19.7950  -30.7298   24.2226 H   0  0  0  0  0  0
  -17.5021  -31.6264   24.5174 H   0  0  0  0  0  0
  -15.5359  -30.2974   23.7671 H   0  0  0  0  0  0
  -15.8686  -28.0815   22.7068 H   0  0  0  0  0  0
  -24.5858  -30.7119   25.7716 H   0  0  0  0  0  0
  -24.8918  -32.2929   26.4799 H   0  0  0  0  0  0
  -25.7993  -30.8921   27.0181 H   0  0  0  0  0  0
  -26.2948  -29.6714   24.1213 H   0  0  0  0  0  0
  -27.4008  -29.7250   25.4738 H   0  0  0  0  0  0
  -27.8835  -30.4247   23.9473 H   0  0  0  0  0  0
  -27.2610  -33.3630   26.2024 H   0  0  0  0  0  0
  -28.3849  -32.6902   25.0309 H   0  0  0  0  0  0
  -28.0686  -31.8477   26.5408 H   0  0  0  0  0  0
  -28.2601  -38.0094   24.7507 H   0  0  0  0  0  0
  -28.1080  -36.2623   24.6298 H   0  0  0  0  0  0
  -27.2295  -37.1452   25.8869 H   0  0  0  0  0  0
  -20.9397  -29.8732   21.6839 H   0  0  0  0  0  0
  -26.0173  -38.2837   24.1392 H   0  0  0  0  0  0
  -29.4314  -19.5079   22.7194 H   0  0  0  0  0  0
  -29.7245  -17.5727   24.0877 H   0  0  0  0  0  0
  -29.6750  -17.0275   19.1941 H   0  0  0  0  0  0
  -27.2383  -24.1101   21.3414 H   0  0  0  0  0  0
  -29.0337  -15.4676   22.8667 H   0  0  0  0  0  0
  -30.7749  -15.6320   22.9209 H   0  0  0  0  0  0
  -27.1327  -20.8000   21.7891 H   0  0  0  0  0  0
  -26.8568  -22.3597   22.5389 H   0  0  0  0  0  0
  -28.3346  -21.4854   22.8879 H   0  0  0  0  0  0
  -29.2961  -19.5842   18.9671 H   0  0  0  0  0  0
  -27.8922  -19.7001   19.9383 H   0  0  0  0  0  0
  -27.8240  -24.8264   18.8071 H   0  0  0  0  0  0
  -29.4378  -24.7445   19.4052 H   0  0  0  0  0  0
  -30.2566  -21.3210   20.9716 H   0  0  0  0  0  0
  -29.7557  -21.7840   19.3893 H   0  0  0  0  0  0
  1 25  1  0  0  0
  1 30  2  0  0  0
  1 82  1  0  0  0
  2  3  1  0  0  0
  2 25  1  0  0  0
  2 83  1  0  0  0
  2 84  1  0  0  0
  3  4  1  0  0  0
  3 85  1  0  0  0
  3 86  1  0  0  0
  4  5  1  0  0  0
  4 87  1  0  0  0
  4 88  1  0  0  0
  5  6  1  0  0  0
  5 26  1  0  0  0
  5 89  1  0  0  0
  6 25  1  0  0  0
  6 90  1  0  0  0
  6 91  1  0  0  0
  7  8  2  0  0  0
  7 26  1  0  0  0
  7 29  1  0  0  0
  8  9  1  0  0  0
  8 22  1  0  0  0
  9 10  1  0  0  0
  9 27  2  0  0  0
 10 11  2  0  0  0
 10 15  1  0  0  0
 11 12  1  0  0  0
 11 92  1  0  0  0
 12 13  2  0  0  0
 12 93  1  0  0  0
 13 14  1  0  0  0
 13 31  1  0  0  0
 14 15  2  0  0  0
 14 94  1  0  0  0
 15 95  1  0  0  0
 16 17  2  0  0  0
 16 21  1  0  0  0
 16 31  1  0  0  0
 17 18  1  0  0  0
 17 96  1  0  0  0
 18 19  2  0  0  0
 18 97  1  0  0  0
 19 20  1  0  0  0
 19 24  1  0  0  0
 20 21  2  0  0  0
 20 98  1  0  0  0
 21 23  1  0  0  0
 22 28  1  0  0  0
 22 32  2  0  0  0
 26 27  1  0  0  0
 28 99  1  0  0  0
 28100  1  0  0  0
 29101  1  0  0  0
 29102  1  0  0  0
 33 34  1  0  0  0
 33 66  1  0  0  0
 33 70  2  0  0  0
 34 36  1  0  0  0
 34 59  1  0  0  0
 34103  1  0  0  0
 35 44  2  0  0  0
 35 45  1  0  0  0
 35 68  1  0  0  0
 36 56  1  0  0  0
 36104  1  0  0  0
 37 39  1  0  0  0
 37 47  1  0  0  0
 37 66  1  0  0  0
 37105  1  0  0  0
 38 43  2  0  0  0
 38 46  1  0  0  0
 38 47  1  0  0  0
 39 64  1  0  0  0
 39 67  2  0  0  0
 40 52  1  0  0  0
 40 53  2  0  0  0
 40 58  1  0  0  0
 41106  1  0  0  0
 41107  1  0  0  0
 41108  1  0  0  0
 41 48  1  0  0  0
 42 43  1  0  0  0
 42 66  1  0  0  0
 42109  1  0  0  0
 42110  1  0  0  0
 43 44  1  0  0  0
 44111  1  0  0  0
 45 46  2  0  0  0
 45112  1  0  0  0
 46113  1  0  0  0
 47114  1  0  0  0
 47115  1  0  0  0
 48 56  1  0  0  0
 48 65  1  0  0  0
 48116  1  0  0  0
 49 50  1  0  0  0
 49 53  1  0  0  0
 49 64  1  0  0  0
 49117  1  0  0  0
 50 51  1  0  0  0
 50118  1  0  0  0
 50119  1  0  0  0
 51 52  1  0  0  0
 51120  1  0  0  0
 51121  1  0  0  0
 52122  1  0  0  0
 52123  1  0  0  0
 53 54  1  0  0  0
 54 55  2  0  0  0
 54124  1  0  0  0
 55 57  1  0  0  0
 55125  1  0  0  0
 56 69  2  0  0  0
 57 58  2  0  0  0
 57126  1  0  0  0
 58127  1  0  0  0
 59 60  1  0  0  0
 59 61  1  0  0  0
 59 62  1  0  0  0
 60128  1  0  0  0
 60129  1  0  0  0
 60130  1  0  0  0
 61131  1  0  0  0
 61132  1  0  0  0
 61133  1  0  0  0
 62134  1  0  0  0
 62135  1  0  0  0
 62136  1  0  0  0
 63 65  1  0  0  0
 63137  1  0  0  0
 63138  1  0  0  0
 63139  1  0  0  0
 64140  1  0  0  0
 65141  1  0  0  0
 68 80  1  0  0  0
 71 72  2  0  0  0
 71 74  1  0  0  0
 71142  1  0  0  0
 72 77  1  0  0  0
 72143  1  0  0  0
 73 74  2  0  0  0
 73 82  1  0  0  0
 73144  1  0  0  0
 74 79  1  0  0  0
 75 76  2  0  0  0
 75 80  1  0  0  0
 75145  1  0  0  0
 76 78  1  0  0  0
 76 81  1  0  0  0
 77 82  1  0  0  0
 77146  1  0  0  0
 77147  1  0  0  0
 78148  1  0  0  0
 78149  1  0  0  0
 78150  1  0  0  0
 79 81  1  0  0  0
 79151  1  0  0  0
 79152  1  0  0  0
 80153  1  0  0  0
 80154  1  0  0  0
 81155  1  0  0  0
 81156  1  0  0  0
M  ISO  4   1 100  68 101  80 101  82 100
M  END
> <chiral flag>
0

> <version>
0

> <s_m_source_file>
/data/baiqing/PycharmProjects/Reinvent-master-3.2/result/LINK_invent/BTK/process_docking_weight1_custom_product_contain_oxygen_bond_distance_aromatic_linkinvent_7_9_3/rearranged_h_0134.sdf

> <i_m_source_file_index>
82

> <r_mmod_Potential_Energy-OPLS-2005>
443.107452392578

> <r_mmod_Stretch_Energy-OPLS-2005>
161.960311889648

> <r_mmod_Bend_Energy-OPLS-2005>
243.868438720703

> <r_mmod_Torsional_Energy-OPLS-2005>
293.254241943359

> <r_mmod_Improper_Torsional_Energy-OPLS-2005>
4.83004426956177

> <r_mmod_Van_der_Waal_Energy-OPLS-2005>
130.919815063477

> <r_mmod_Electrostatic_Energy-OPLS-2005>
-305.708374023438

> <r_mmod_Solvation_Energy-OPLS-2005>
-184.992706298828

> <b_mmod_Minimization_Converged-OPLS-2005>
0

> <r_mmod_RMS_Derivative-OPLS-2005>
1.65854465961456

$$$$
82
                    3D
 Structure written by MMmdl.
163172  0  0  1  0            999 V2000
  -30.7649  -14.5512   20.3825 C   0  0  0  0  0  0
  -30.3955  -12.3187   19.4479 C   0  0  0  0  0  0
  -29.4814  -12.4221   18.2121 C   0  0  0  0  0  0
  -28.0021  -12.3227   18.6276 C   0  0  0  0  0  0
  -27.6365  -13.2222   19.8408 C   0  0  2  0  0  0
  -28.6972  -13.1607   20.9593 C   0  0  0  0  0  0
  -25.2515  -13.8165   20.5743 C   0  0  0  0  0  0
  -24.1795  -13.0420   20.9224 C   0  0  0  0  0  0
  -24.6379  -11.6899   20.8772 C   0  0  0  0  0  0
  -23.9061  -10.4278   21.0407 C   0  0  0  0  0  0
  -24.3617   -9.4193   21.9184 C   0  0  0  0  0  0
  -23.6298   -8.2221   22.0750 C   0  0  0  0  0  0
  -22.4279   -8.0261   21.3536 C   0  0  0  0  0  0
  -21.9909   -9.0236   20.4638 C   0  0  0  0  0  0
  -22.7233  -10.2119   20.3052 C   0  0  0  0  0  0
  -21.6851   -6.0721   22.5278 C   0  0  0  0  0  0
  -21.4011   -6.5630   23.8208 C   0  0  0  0  0  0
  -21.3669   -5.6785   24.9179 C   0  0  0  0  0  0
  -21.6057   -4.3050   24.7225 C   0  0  0  0  0  0
  -21.8826   -3.8136   23.4343 C   0  0  0  0  0  0
  -21.9196   -4.6949   22.3404 C   0  0  0  0  0  0
  -22.7824  -13.5212   21.1867 C   0  0  0  0  0  0
  -22.1663   -4.2136   21.0978 F   0  0  0  0  0  0
  -21.5638   -3.4538   25.7739 F   0  0  0  0  0  0
  -30.0128  -13.4103   20.3611 N   0  0  0  0  0  0
  -26.2939  -12.9366   20.3344 N   0  0  0  0  0  0
  -25.9315  -11.6518   20.5816 N   0  0  0  0  0  0
  -22.0469  -12.8209   22.0423 N   0  0  0  0  0  0
  -25.4202  -15.1883   20.4193 N   0  0  0  0  0  0
  -31.9867  -14.4397   20.3159 O   0  0  0  0  0  0
  -21.6644   -6.8858   21.4232 O   0  0  0  0  0  0
  -22.3522  -14.5516   20.6700 O   0  0  0  0  0  0
  -24.6192  -31.8667   23.2118 C   0  0  0  0  0  0
  -25.9081  -32.4820   23.8412 C   0  0  1  0  0  0
  -27.2223  -27.4070   20.1058 C   0  0  0  0  0  0
  -25.5936  -33.8615   24.2347 N   0  0  0  0  0  0
  -23.4065  -30.4956   21.5500 C   0  0  2  0  0  0
  -24.8504  -28.9635   20.1121 C   0  0  0  0  0  0
  -22.7417  -29.4685   22.4948 C   0  0  0  0  0  0
  -18.0280  -28.1396   22.8496 C   0  0  0  0  0  0
  -24.1487  -36.7309   23.2635 C   0  0  0  0  0  0
  -25.9393  -30.8275   21.3661 C   0  0  0  0  0  0
  -26.0151  -29.4620   20.7094 C   0  0  0  0  0  0
  -27.2057  -28.6939   20.7007 C   0  0  0  0  0  0
  -26.0367  -26.9401   19.4868 C   0  0  0  0  0  0
  -24.8575  -27.7032   19.4964 C   0  0  0  0  0  0
  -23.6164  -29.8349   20.1633 C   0  0  0  0  0  0
  -25.4108  -36.3107   24.0339 C   0  0  1  0  0  0
  -20.5876  -28.3697   23.1285 C   0  0  2  0  0  0
  -20.6783  -26.9422   22.5410 C   0  0  0  0  0  0
  -19.5760  -26.6394   21.5215 C   0  0  0  0  0  0
  -18.1932  -26.7943   22.1621 C   0  0  0  0  0  0
  -19.1527  -28.8857   23.2899 C   0  0  0  0  0  0
  -18.9459  -30.1461   23.8921 C   0  0  0  0  0  0
  -17.6461  -30.6603   24.0572 C   0  0  0  0  0  0
  -25.9035  -34.9470   23.5125 C   0  0  0  0  0  0
  -16.5350  -29.9105   23.6331 C   0  0  0  0  0  0
  -16.7265  -28.6519   23.0357 C   0  0  0  0  0  0
  -26.4502  -31.6602   25.0747 C   0  0  0  0  0  0
  -25.3775  -31.3697   26.1500 C   0  0  0  0  0  0
  -27.0343  -30.3050   24.6132 C   0  0  0  0  0  0
  -27.6076  -32.4321   25.7511 C   0  0  0  0  0  0
  -27.5575  -37.1804   24.8462 C   0  0  0  0  0  0
  -21.4142  -29.3068   22.3684 N   0  0  0  0  0  0
  -26.4286  -37.3796   23.9410 N   0  0  0  0  0  0
  -24.6739  -31.0766   22.1008 N   0  0  0  0  0  0
  -23.4164  -28.8210   23.2999 O   0  0  0  0  0  0
  -28.3627  -26.6217   20.1590 O   0  0  0  0  0  0
  -26.5567  -34.8915   22.4668 O   0  0  0  0  0  0
  -23.5386  -32.1418   23.7506 O   0  0  0  0  0  0
  -27.1349  -19.2289   18.7797 C   0  0  0  0  0  0
  -27.5719  -18.0482   19.4397 C   0  0  0  0  0  0
  -29.2559  -19.2574   20.8291 C   0  0  0  0  0  0
  -27.7904  -20.3914   19.1809 C   0  0  0  0  0  0
  -28.7978  -20.4248   20.1889 C   0  0  0  0  0  0
  -28.6315  -18.0324   20.4089 C   0  0  0  0  0  0
  -29.2789  -24.3538   20.6969 C   0  0  0  0  0  0
  -27.9677  -21.8401   18.8107 C   0  0  0  0  0  0
  -29.1249  -21.8979   19.9234 C   0  0  1  0  0  0
  -31.4654  -16.9774   20.0337 C   0  0  0  0  0  0
  -29.8315  -15.9829   18.5047 C   0  0  0  0  0  0
  -29.1424  -16.6578   20.9103 C   0  0  0  0  0  0
  -28.9818  -22.8877   21.0931 C   0  0  0  0  0  0
  -28.1248  -25.1925   20.1146 C   0  0  0  0  0  0
  -30.2428  -16.0018   19.9995 C   0  0  0  0  0  0
  -30.4087  -24.8308   20.8471 O   0  0  0  0  0  0
  -31.4416  -12.3610   19.1374 H   0  0  0  0  0  0
  -30.2721  -11.3536   19.9413 H   0  0  0  0  0  0
  -29.7177  -11.6214   17.5103 H   0  0  0  0  0  0
  -29.6612  -13.3507   17.6743 H   0  0  0  0  0  0
  -27.8108  -11.2776   18.8732 H   0  0  0  0  0  0
  -27.3574  -12.5534   17.7788 H   0  0  0  0  0  0
  -27.6156  -14.2412   19.4704 H   0  0  0  0  0  0
  -28.6905  -12.1797   21.4377 H   0  0  0  0  0  0
  -28.4858  -13.8827   21.7475 H   0  0  0  0  0  0
  -25.2750   -9.5684   22.4781 H   0  0  0  0  0  0
  -24.0011   -7.4614   22.7471 H   0  0  0  0  0  0
  -21.0840   -8.8751   19.8947 H   0  0  0  0  0  0
  -22.3676  -10.9666   19.6180 H   0  0  0  0  0  0
  -21.1992   -7.6136   23.9710 H   0  0  0  0  0  0
  -21.1497   -6.0515   25.9083 H   0  0  0  0  0  0
  -22.0599   -2.7596   23.2853 H   0  0  0  0  0  0
  -22.4073  -11.9878   22.4831 H   0  0  0  0  0  0
  -21.1090  -13.1245   22.2606 H   0  0  0  0  0  0
  -24.6585  -15.8455   20.5473 H   0  0  0  0  0  0
  -26.2875  -15.6320   20.1525 H   0  0  0  0  0  0
  -26.7149  -32.5525   23.1174 H   0  0  0  0  0  0
  -25.0179  -33.9778   25.0556 H   0  0  0  0  0  0
  -22.6992  -31.3170   21.4148 H   0  0  0  0  0  0
  -23.3746  -35.9644   23.3310 H   0  0  0  0  0  0
  -24.3591  -36.8914   22.2047 H   0  0  0  0  0  0
  -23.7238  -37.6517   23.6646 H   0  0  0  0  0  0
  -26.0577  -31.5939   20.5990 H   0  0  0  0  0  0
  -26.8246  -30.8788   21.9882 H   0  0  0  0  0  0
  -28.1012  -29.0689   21.1767 H   0  0  0  0  0  0
  -25.9954  -25.9785   18.9961 H   0  0  0  0  0  0
  -23.9611  -27.3139   19.0320 H   0  0  0  0  0  0
  -23.7345  -30.6166   19.4119 H   0  0  0  0  0  0
  -22.7375  -29.2649   19.8575 H   0  0  0  0  0  0
  -25.1284  -36.1971   25.0833 H   0  0  0  0  0  0
  -20.9996  -28.3289   24.1393 H   0  0  0  0  0  0
  -20.5712  -26.2303   23.3607 H   0  0  0  0  0  0
  -21.6645  -26.7480   22.1178 H   0  0  0  0  0  0
  -19.6921  -25.6304   21.1245 H   0  0  0  0  0  0
  -19.6708  -27.3204   20.6743 H   0  0  0  0  0  0
  -17.4206  -26.6707   21.4017 H   0  0  0  0  0  0
  -18.0329  -26.0079   22.9010 H   0  0  0  0  0  0
  -19.7933  -30.7275   24.2298 H   0  0  0  0  0  0
  -17.5017  -31.6283   24.5176 H   0  0  0  0  0  0
  -15.5356  -30.3019   23.7647 H   0  0  0  0  0  0
  -15.8664  -28.0846   22.7063 H   0  0  0  0  0  0
  -24.5959  -30.7030   25.7839 H   0  0  0  0  0  0
  -24.8954  -32.2841   26.4958 H   0  0  0  0  0  0
  -25.8135  -30.8868   27.0251 H   0  0  0  0  0  0
  -26.2884  -29.6799   24.1206 H   0  0  0  0  0  0
  -27.4137  -29.7309   25.4595 H   0  0  0  0  0  0
  -27.8716  -30.4384   23.9281 H   0  0  0  0  0  0
  -27.2706  -33.3619   26.2105 H   0  0  0  0  0  0
  -28.3879  -32.6874   25.0331 H   0  0  0  0  0  0
  -28.0759  -31.8437   26.5413 H   0  0  0  0  0  0
  -28.2589  -38.0105   24.7516 H   0  0  0  0  0  0
  -28.1074  -36.2631   24.6283 H   0  0  0  0  0  0
  -27.2294  -37.1450   25.8866 H   0  0  0  0  0  0
  -20.9291  -29.8799   21.6920 H   0  0  0  0  0  0
  -26.0176  -38.2871   24.1427 H   0  0  0  0  0  0
  -26.3946  -19.2178   17.9911 H   0  0  0  0  0  0
  -27.1286  -17.1132   19.1306 H   0  0  0  0  0  0
  -30.0892  -19.2721   21.5182 H   0  0  0  0  0  0
  -27.0825  -22.4348   19.0392 H   0  0  0  0  0  0
  -28.3185  -21.9797   17.7874 H   0  0  0  0  0  0
  -30.1113  -21.9417   19.4572 H   0  0  0  0  0  0
  -31.8678  -17.0838   21.0421 H   0  0  0  0  0  0
  -31.2200  -17.9741   19.6743 H   0  0  0  0  0  0
  -32.2809  -16.6528   19.3847 H   0  0  0  0  0  0
  -29.7631  -16.9880   18.0877 H   0  0  0  0  0  0
  -28.8692  -15.5103   18.3342 H   0  0  0  0  0  0
  -30.5681  -15.4556   17.8964 H   0  0  0  0  0  0
  -28.2814  -15.9987   20.9973 H   0  0  0  0  0  0
  -29.5215  -16.7733   21.9257 H   0  0  0  0  0  0
  -27.9717  -22.8468   21.5004 H   0  0  0  0  0  0
  -29.6487  -22.6083   21.9083 H   0  0  0  0  0  0
  -27.2284  -24.9411   20.6825 H   0  0  0  0  0  0
  -27.9620  -24.8817   19.0828 H   0  0  0  0  0  0
  1 25  1  0  0  0
  1 30  2  0  0  0
  1 85  1  0  0  0
  2  3  1  0  0  0
  2 25  1  0  0  0
  2 87  1  0  0  0
  2 88  1  0  0  0
  3  4  1  0  0  0
  3 89  1  0  0  0
  3 90  1  0  0  0
  4  5  1  0  0  0
  4 91  1  0  0  0
  4 92  1  0  0  0
  5  6  1  0  0  0
  5 26  1  0  0  0
  5 93  1  0  0  0
  6 25  1  0  0  0
  6 94  1  0  0  0
  6 95  1  0  0  0
  7  8  2  0  0  0
  7 26  1  0  0  0
  7 29  1  0  0  0
  8  9  1  0  0  0
  8 22  1  0  0  0
  9 10  1  0  0  0
  9 27  2  0  0  0
 10 11  2  0  0  0
 10 15  1  0  0  0
 11 12  1  0  0  0
 11 96  1  0  0  0
 12 13  2  0  0  0
 12 97  1  0  0  0
 13 14  1  0  0  0
 13 31  1  0  0  0
 14 15  2  0  0  0
 14 98  1  0  0  0
 15 99  1  0  0  0
 16 17  2  0  0  0
 16 21  1  0  0  0
 16 31  1  0  0  0
 17 18  1  0  0  0
 17100  1  0  0  0
 18 19  2  0  0  0
 18101  1  0  0  0
 19 20  1  0  0  0
 19 24  1  0  0  0
 20 21  2  0  0  0
 20102  1  0  0  0
 21 23  1  0  0  0
 22 28  1  0  0  0
 22 32  2  0  0  0
 26 27  1  0  0  0
 28103  1  0  0  0
 28104  1  0  0  0
 29105  1  0  0  0
 29106  1  0  0  0
 33 34  1  0  0  0
 33 66  1  0  0  0
 33 70  2  0  0  0
 34 36  1  0  0  0
 34 59  1  0  0  0
 34107  1  0  0  0
 35 44  2  0  0  0
 35 45  1  0  0  0
 35 68  1  0  0  0
 36 56  1  0  0  0
 36108  1  0  0  0
 37 39  1  0  0  0
 37 47  1  0  0  0
 37 66  1  0  0  0
 37109  1  0  0  0
 38 43  2  0  0  0
 38 46  1  0  0  0
 38 47  1  0  0  0
 39 64  1  0  0  0
 39 67  2  0  0  0
 40 52  1  0  0  0
 40 53  2  0  0  0
 40 58  1  0  0  0
 41110  1  0  0  0
 41111  1  0  0  0
 41112  1  0  0  0
 41 48  1  0  0  0
 42 43  1  0  0  0
 42 66  1  0  0  0
 42113  1  0  0  0
 42114  1  0  0  0
 43 44  1  0  0  0
 44115  1  0  0  0
 45 46  2  0  0  0
 45116  1  0  0  0
 46117  1  0  0  0
 47118  1  0  0  0
 47119  1  0  0  0
 48 56  1  0  0  0
 48 65  1  0  0  0
 48120  1  0  0  0
 49 50  1  0  0  0
 49 53  1  0  0  0
 49 64  1  0  0  0
 49121  1  0  0  0
 50 51  1  0  0  0
 50122  1  0  0  0
 50123  1  0  0  0
 51 52  1  0  0  0
 51124  1  0  0  0
 51125  1  0  0  0
 52126  1  0  0  0
 52127  1  0  0  0
 53 54  1  0  0  0
 54 55  2  0  0  0
 54128  1  0  0  0
 55 57  1  0  0  0
 55129  1  0  0  0
 56 69  2  0  0  0
 57 58  2  0  0  0
 57130  1  0  0  0
 58131  1  0  0  0
 59 60  1  0  0  0
 59 61  1  0  0  0
 59 62  1  0  0  0
 60132  1  0  0  0
 60133  1  0  0  0
 60134  1  0  0  0
 61135  1  0  0  0
 61136  1  0  0  0
 61137  1  0  0  0
 62138  1  0  0  0
 62139  1  0  0  0
 62140  1  0  0  0
 63 65  1  0  0  0
 63141  1  0  0  0
 63142  1  0  0  0
 63143  1  0  0  0
 64144  1  0  0  0
 65145  1  0  0  0
 68 84  1  0  0  0
 71 72  2  0  0  0
 71 74  1  0  0  0
 71146  1  0  0  0
 72 76  1  0  0  0
 72147  1  0  0  0
 73 75  1  0  0  0
 73 76  2  0  0  0
 73148  1  0  0  0
 74 75  2  0  0  0
 74 78  1  0  0  0
 75 79  1  0  0  0
 76 82  1  0  0  0
 77 83  1  0  0  0
 77 84  1  0  0  0
 77 86  2  0  0  0
 78 79  1  0  0  0
 78149  1  0  0  0
 78150  1  0  0  0
 79 83  1  0  0  0
 79151  1  0  0  0
 80152  1  0  0  0
 80153  1  0  0  0
 80154  1  0  0  0
 80 85  1  0  0  0
 81 85  1  0  0  0
 81155  1  0  0  0
 81156  1  0  0  0
 81157  1  0  0  0
 82 85  1  0  0  0
 82158  1  0  0  0
 82159  1  0  0  0
 83160  1  0  0  0
 83161  1  0  0  0
 84162  1  0  0  0
 84163  1  0  0  0
M  ISO  4   1 100  68 101  84 101  85 100
M  END
> <chiral flag>
0

> <version>
0

> <s_m_source_file>
/data/baiqing/PycharmProjects/Reinvent-master-3.2/result/LINK_invent/BTK/process_docking_weight1_custom_product_contain_oxygen_bond_distance_aromatic_linkinvent_7_9_3/rearranged_h_0134.sdf

> <i_m_source_file_index>
83

> <r_mmod_Potential_Energy-OPLS-2005>
493.664001464844

> <r_mmod_Stretch_Energy-OPLS-2005>
68.8869400024414

> <r_mmod_Bend_Energy-OPLS-2005>
482.398742675781

> <r_mmod_Torsional_Energy-OPLS-2005>
237.86506652832

> <r_mmod_Improper_Torsional_Energy-OPLS-2005>
15.7290143966675

> <r_mmod_Van_der_Waal_Energy-OPLS-2005>
153.184219360352

> <r_mmod_Electrostatic_Energy-OPLS-2005>
-308.479370117188

> <r_mmod_Solvation_Energy-OPLS-2005>
-208.755676269531

> <b_mmod_Minimization_Converged-OPLS-2005>
0

> <r_mmod_RMS_Derivative-OPLS-2005>
1.6141345500946

$$$$
83
                    3D
 Structure written by MMmdl.
165173  0  0  1  0            999 V2000
  -30.7152  -14.4479   20.6050 C   0  0  0  0  0  0
  -30.4211  -12.3057   19.4133 C   0  0  0  0  0  0
  -29.4917  -12.5119   18.2010 C   0  0  0  0  0  0
  -28.0138  -12.3677   18.6160 C   0  0  0  0  0  0
  -27.6608  -13.2051   19.8744 C   0  0  2  0  0  0
  -28.7014  -12.9775   20.9926 C   0  0  0  0  0  0
  -25.2588  -13.8152   20.5673 C   0  0  0  0  0  0
  -24.1839  -13.0436   20.9174 C   0  0  0  0  0  0
  -24.6391  -11.6905   20.8739 C   0  0  0  0  0  0
  -23.9059  -10.4293   21.0408 C   0  0  0  0  0  0
  -24.3611   -9.4209   21.9191 C   0  0  0  0  0  0
  -23.6288   -8.2239   22.0755 C   0  0  0  0  0  0
  -22.4269   -8.0282   21.3547 C   0  0  0  0  0  0
  -21.9909   -9.0255   20.4647 C   0  0  0  0  0  0
  -22.7232  -10.2134   20.3059 C   0  0  0  0  0  0
  -21.6856   -6.0736   22.5278 C   0  0  0  0  0  0
  -21.4012   -6.5641   23.8213 C   0  0  0  0  0  0
  -21.3663   -5.6796   24.9181 C   0  0  0  0  0  0
  -21.6040   -4.3057   24.7229 C   0  0  0  0  0  0
  -21.8822   -3.8148   23.4353 C   0  0  0  0  0  0
  -21.9189   -4.6961   22.3407 C   0  0  0  0  0  0
  -22.7864  -13.5239   21.1847 C   0  0  0  0  0  0
  -22.1661   -4.2145   21.0985 F   0  0  0  0  0  0
  -21.5630   -3.4547   25.7744 F   0  0  0  0  0  0
  -30.0318  -13.2840   20.4390 N   0  0  0  0  0  0
  -26.3020  -12.9319   20.3358 N   0  0  0  0  0  0
  -25.9313  -11.6486   20.5757 N   0  0  0  0  0  0
  -22.0507  -12.8230   22.0398 N   0  0  0  0  0  0
  -25.4342  -15.1871   20.4088 N   0  0  0  0  0  0
  -31.8491  -14.6300   20.1554 O   0  0  0  0  0  0
  -21.6639   -6.8878   21.4239 O   0  0  0  0  0  0
  -22.3553  -14.5556   20.6707 O   0  0  0  0  0  0
  -24.6155  -31.8673   23.2096 C   0  0  0  0  0  0
  -25.9054  -32.4818   23.8378 C   0  0  1  0  0  0
  -27.2305  -27.4327   20.0811 C   0  0  0  0  0  0
  -25.5891  -33.8601   24.2313 N   0  0  0  0  0  0
  -23.4005  -30.4958   21.5513 C   0  0  2  0  0  0
  -24.8431  -28.9608   20.1157 C   0  0  0  0  0  0
  -22.7413  -29.4669   22.4982 C   0  0  0  0  0  0
  -18.0272  -28.1393   22.8497 C   0  0  0  0  0  0
  -24.1500  -36.7329   23.2640 C   0  0  0  0  0  0
  -25.9313  -30.8317   21.3628 C   0  0  0  0  0  0
  -26.0049  -29.4667   20.7096 C   0  0  0  0  0  0
  -27.1979  -28.7094   20.6895 C   0  0  0  0  0  0
  -26.0410  -26.9351   19.4962 C   0  0  0  0  0  0
  -24.8563  -27.6953   19.5066 C   0  0  0  0  0  0
  -23.6066  -29.8300   20.1653 C   0  0  0  0  0  0
  -25.4114  -36.3094   24.0333 C   0  0  1  0  0  0
  -20.5866  -28.3669   23.1336 C   0  0  2  0  0  0
  -20.6785  -26.9413   22.5424 C   0  0  0  0  0  0
  -19.5769  -26.6394   21.5222 C   0  0  0  0  0  0
  -18.1931  -26.7951   22.1611 C   0  0  0  0  0  0
  -19.1524  -28.8848   23.2922 C   0  0  0  0  0  0
  -18.9445  -30.1452   23.8940 C   0  0  0  0  0  0
  -17.6448  -30.6608   24.0561 C   0  0  0  0  0  0
  -25.9022  -34.9457   23.5119 C   0  0  0  0  0  0
  -16.5334  -29.9107   23.6329 C   0  0  0  0  0  0
  -16.7259  -28.6517   23.0355 C   0  0  0  0  0  0
  -26.4487  -31.6599   25.0709 C   0  0  0  0  0  0
  -25.3741  -31.3714   26.1457 C   0  0  0  0  0  0
  -27.0313  -30.3032   24.6089 C   0  0  0  0  0  0
  -27.6068  -32.4320   25.7459 C   0  0  0  0  0  0
  -27.5593  -37.1812   24.8459 C   0  0  0  0  0  0
  -21.4140  -29.3038   22.3737 N   0  0  0  0  0  0
  -26.4307  -37.3772   23.9395 N   0  0  0  0  0  0
  -24.6676  -31.0790   22.0995 N   0  0  0  0  0  0
  -23.4201  -28.8204   23.3004 O   0  0  0  0  0  0
  -28.4281  -26.7412   20.0786 O   0  0  0  0  0  0
  -26.5582  -34.8914   22.4678 O   0  0  0  0  0  0
  -23.5349  -32.1423   23.7494 O   0  0  0  0  0  0
  -30.9636  -17.6899   19.2807 C   0  0  0  0  0  0
  -30.0673  -19.1852   20.9748 C   0  0  0  0  0  0
  -30.4856  -17.8866   20.5927 C   0  0  0  0  0  0
  -31.0813  -18.7666   18.3783 C   0  0  0  0  0  0
  -30.6997  -20.0719   18.7815 C   0  0  0  0  0  0
  -30.1675  -20.2773   20.0761 C   0  0  0  0  0  0
  -28.2576  -24.3466   20.6575 C   0  0  0  0  0  0
  -31.6425  -18.4915   16.9917 C   0  0  0  0  0  0
  -32.2241  -21.9614   18.0328 C   0  0  0  0  0  0
  -30.8690  -21.2663   17.8453 C   0  0  0  0  0  0
  -30.5207  -16.7522   21.6268 C   0  0  0  0  0  0
  -27.8310  -22.9382   20.2150 C   0  0  0  0  0  0
  -28.4941  -25.4006   19.5583 C   0  0  0  0  0  0
  -28.5181  -21.7685   20.9623 C   0  0  0  0  0  0
  -30.0270  -15.4344   21.2044 N   0  0  0  0  0  0
  -28.3903  -24.6250   21.8545 O   0  0  0  0  0  0
  -29.8312  -21.5633   20.4439 O   0  0  0  0  0  0
  -31.4648  -12.4064   19.1122 H   0  0  0  0  0  0
  -30.3199  -11.2930   19.8058 H   0  0  0  0  0  0
  -29.7302  -11.7947   17.4146 H   0  0  0  0  0  0
  -29.6581  -13.5020   17.7727 H   0  0  0  0  0  0
  -27.8278  -11.3112   18.8128 H   0  0  0  0  0  0
  -27.3600  -12.6407   17.7870 H   0  0  0  0  0  0
  -27.7087  -14.2542   19.5816 H   0  0  0  0  0  0
  -28.6772  -11.9394   21.3275 H   0  0  0  0  0  0
  -28.4602  -13.5694   21.8768 H   0  0  0  0  0  0
  -25.2758   -9.5682   22.4773 H   0  0  0  0  0  0
  -23.9998   -7.4631   22.7480 H   0  0  0  0  0  0
  -21.0840   -8.8779   19.8956 H   0  0  0  0  0  0
  -22.3698  -10.9678   19.6171 H   0  0  0  0  0  0
  -21.2010   -7.6153   23.9716 H   0  0  0  0  0  0
  -21.1483   -6.0532   25.9082 H   0  0  0  0  0  0
  -22.0598   -2.7610   23.2860 H   0  0  0  0  0  0
  -22.4117  -11.9868   22.4754 H   0  0  0  0  0  0
  -21.1132  -13.1265   22.2630 H   0  0  0  0  0  0
  -24.6720  -15.8478   20.5176 H   0  0  0  0  0  0
  -26.2913  -15.6219   20.0895 H   0  0  0  0  0  0
  -26.7124  -32.5520   23.1136 H   0  0  0  0  0  0
  -25.0009  -33.9734   25.0437 H   0  0  0  0  0  0
  -22.6894  -31.3137   21.4163 H   0  0  0  0  0  0
  -23.3744  -35.9683   23.3277 H   0  0  0  0  0  0
  -24.3595  -36.8968   22.2062 H   0  0  0  0  0  0
  -23.7281  -37.6533   23.6681 H   0  0  0  0  0  0
  -26.0440  -31.5957   20.5920 H   0  0  0  0  0  0
  -26.8199  -30.8831   21.9794 H   0  0  0  0  0  0
  -28.0989  -29.1012   21.1428 H   0  0  0  0  0  0
  -25.9905  -25.9691   19.0194 H   0  0  0  0  0  0
  -23.9610  -27.3028   19.0430 H   0  0  0  0  0  0
  -23.7157  -30.6066   19.4078 H   0  0  0  0  0  0
  -22.7306  -29.2523   19.8673 H   0  0  0  0  0  0
  -25.1304  -36.1945   25.0832 H   0  0  0  0  0  0
  -20.9940  -28.3238   24.1464 H   0  0  0  0  0  0
  -20.5731  -26.2255   23.3586 H   0  0  0  0  0  0
  -21.6652  -26.7507   22.1191 H   0  0  0  0  0  0
  -19.6928  -25.6308   21.1243 H   0  0  0  0  0  0
  -19.6732  -27.3208   20.6758 H   0  0  0  0  0  0
  -17.4215  -26.6700   21.3999 H   0  0  0  0  0  0
  -18.0321  -26.0102   22.9008 H   0  0  0  0  0  0
  -19.7908  -30.7257   24.2351 H   0  0  0  0  0  0
  -17.4993  -31.6298   24.5149 H   0  0  0  0  0  0
  -15.5331  -30.3007   23.7665 H   0  0  0  0  0  0
  -15.8647  -28.0843   22.7071 H   0  0  0  0  0  0
  -24.5879  -30.7108   25.7773 H   0  0  0  0  0  0
  -24.8972  -32.2882   26.4943 H   0  0  0  0  0  0
  -25.8077  -30.8828   27.0189 H   0  0  0  0  0  0
  -26.2851  -29.6754   24.1207 H   0  0  0  0  0  0
  -27.4151  -29.7311   25.4538 H   0  0  0  0  0  0
  -27.8648  -30.4343   23.9189 H   0  0  0  0  0  0
  -27.2726  -33.3635   26.2038 H   0  0  0  0  0  0
  -28.3875  -32.6848   25.0278 H   0  0  0  0  0  0
  -28.0736  -31.8434   26.5363 H   0  0  0  0  0  0
  -28.2604  -38.0115   24.7500 H   0  0  0  0  0  0
  -28.1101  -36.2641   24.6303 H   0  0  0  0  0  0
  -27.2299  -37.1480   25.8858 H   0  0  0  0  0  0
  -20.9290  -29.8725   21.6930 H   0  0  0  0  0  0
  -26.0190  -38.2854   24.1362 H   0  0  0  0  0  0
  -31.2887  -16.7106   18.9642 H   0  0  0  0  0  0
  -29.7138  -19.3554   21.9825 H   0  0  0  0  0  0
  -32.0705  -17.4908   16.9244 H   0  0  0  0  0  0
  -32.4330  -19.1969   16.7352 H   0  0  0  0  0  0
  -30.8557  -18.5660   16.2409 H   0  0  0  0  0  0
  -32.3318  -22.7968   17.3406 H   0  0  0  0  0  0
  -33.0514  -21.2741   17.8546 H   0  0  0  0  0  0
  -32.3316  -22.3532   19.0453 H   0  0  0  0  0  0
  -30.0656  -21.9853   18.0129 H   0  0  0  0  0  0
  -30.7523  -20.9578   16.8068 H   0  0  0  0  0  0
  -29.9302  -17.0498   22.4947 H   0  0  0  0  0  0
  -31.5457  -16.6546   21.9908 H   0  0  0  0  0  0
  -27.9649  -22.8281   19.1385 H   0  0  0  0  0  0
  -26.7567  -22.8776   20.3917 H   0  0  0  0  0  0
  -27.8442  -25.2372   18.7006 H   0  0  0  0  0  0
  -29.5049  -25.2489   19.1820 H   0  0  0  0  0  0
  -27.9004  -20.8759   20.8433 H   0  0  0  0  0  0
  -28.5780  -21.9591   22.0343 H   0  0  0  0  0  0
  -29.0912  -15.1971   21.4965 H   0  0  0  0  0  0
  1 25  1  0  0  0
  1 30  2  0  0  0
  1 85  1  0  0  0
  2  3  1  0  0  0
  2 25  1  0  0  0
  2 88  1  0  0  0
  2 89  1  0  0  0
  3  4  1  0  0  0
  3 90  1  0  0  0
  3 91  1  0  0  0
  4  5  1  0  0  0
  4 92  1  0  0  0
  4 93  1  0  0  0
  5  6  1  0  0  0
  5 26  1  0  0  0
  5 94  1  0  0  0
  6 25  1  0  0  0
  6 95  1  0  0  0
  6 96  1  0  0  0
  7  8  2  0  0  0
  7 26  1  0  0  0
  7 29  1  0  0  0
  8  9  1  0  0  0
  8 22  1  0  0  0
  9 10  1  0  0  0
  9 27  2  0  0  0
 10 11  2  0  0  0
 10 15  1  0  0  0
 11 12  1  0  0  0
 11 97  1  0  0  0
 12 13  2  0  0  0
 12 98  1  0  0  0
 13 14  1  0  0  0
 13 31  1  0  0  0
 14 15  2  0  0  0
 14 99  1  0  0  0
 15100  1  0  0  0
 16 17  2  0  0  0
 16 21  1  0  0  0
 16 31  1  0  0  0
 17 18  1  0  0  0
 17101  1  0  0  0
 18 19  2  0  0  0
 18102  1  0  0  0
 19 20  1  0  0  0
 19 24  1  0  0  0
 20 21  2  0  0  0
 20103  1  0  0  0
 21 23  1  0  0  0
 22 28  1  0  0  0
 22 32  2  0  0  0
 26 27  1  0  0  0
 28104  1  0  0  0
 28105  1  0  0  0
 29106  1  0  0  0
 29107  1  0  0  0
 33 34  1  0  0  0
 33 66  1  0  0  0
 33 70  2  0  0  0
 34 36  1  0  0  0
 34 59  1  0  0  0
 34108  1  0  0  0
 35 44  2  0  0  0
 35 45  1  0  0  0
 35 68  1  0  0  0
 36 56  1  0  0  0
 36109  1  0  0  0
 37 39  1  0  0  0
 37 47  1  0  0  0
 37 66  1  0  0  0
 37110  1  0  0  0
 38 43  2  0  0  0
 38 46  1  0  0  0
 38 47  1  0  0  0
 39 64  1  0  0  0
 39 67  2  0  0  0
 40 52  1  0  0  0
 40 53  2  0  0  0
 40 58  1  0  0  0
 41111  1  0  0  0
 41112  1  0  0  0
 41113  1  0  0  0
 41 48  1  0  0  0
 42 43  1  0  0  0
 42 66  1  0  0  0
 42114  1  0  0  0
 42115  1  0  0  0
 43 44  1  0  0  0
 44116  1  0  0  0
 45 46  2  0  0  0
 45117  1  0  0  0
 46118  1  0  0  0
 47119  1  0  0  0
 47120  1  0  0  0
 48 56  1  0  0  0
 48 65  1  0  0  0
 48121  1  0  0  0
 49 50  1  0  0  0
 49 53  1  0  0  0
 49 64  1  0  0  0
 49122  1  0  0  0
 50 51  1  0  0  0
 50123  1  0  0  0
 50124  1  0  0  0
 51 52  1  0  0  0
 51125  1  0  0  0
 51126  1  0  0  0
 52127  1  0  0  0
 52128  1  0  0  0
 53 54  1  0  0  0
 54 55  2  0  0  0
 54129  1  0  0  0
 55 57  1  0  0  0
 55130  1  0  0  0
 56 69  2  0  0  0
 57 58  2  0  0  0
 57131  1  0  0  0
 58132  1  0  0  0
 59 60  1  0  0  0
 59 61  1  0  0  0
 59 62  1  0  0  0
 60133  1  0  0  0
 60134  1  0  0  0
 60135  1  0  0  0
 61136  1  0  0  0
 61137  1  0  0  0
 61138  1  0  0  0
 62139  1  0  0  0
 62140  1  0  0  0
 62141  1  0  0  0
 63 65  1  0  0  0
 63142  1  0  0  0
 63143  1  0  0  0
 63144  1  0  0  0
 64145  1  0  0  0
 65146  1  0  0  0
 68 83  1  0  0  0
 71 73  2  0  0  0
 71 74  1  0  0  0
 71147  1  0  0  0
 72 73  1  0  0  0
 72 76  2  0  0  0
 72148  1  0  0  0
 73 81  1  0  0  0
 74 75  2  0  0  0
 74 78  1  0  0  0
 75 76  1  0  0  0
 75 80  1  0  0  0
 76 87  1  0  0  0
 77 82  1  0  0  0
 77 83  1  0  0  0
 77 86  2  0  0  0
 78149  1  0  0  0
 78150  1  0  0  0
 78151  1  0  0  0
 79 80  1  0  0  0
 79152  1  0  0  0
 79153  1  0  0  0
 79154  1  0  0  0
 80155  1  0  0  0
 80156  1  0  0  0
 81 85  1  0  0  0
 81157  1  0  0  0
 81158  1  0  0  0
 82 84  1  0  0  0
 82159  1  0  0  0
 82160  1  0  0  0
 83161  1  0  0  0
 83162  1  0  0  0
 84 87  1  0  0  0
 84163  1  0  0  0
 84164  1  0  0  0
 85165  1  0  0  0
M  ISO  4   1 100  68 101  83 101  85 100
M  END
> <chiral flag>
0

> <version>
0

> <s_m_source_file>
/data/baiqing/PycharmProjects/Reinvent-master-3.2/result/LINK_invent/BTK/process_docking_weight1_custom_product_contain_oxygen_bond_distance_aromatic_linkinvent_7_9_3/rearranged_h_0134.sdf

> <i_m_source_file_index>
84

> <r_mmod_Potential_Energy-OPLS-2005>
-135.308380126953

> <r_mmod_Stretch_Energy-OPLS-2005>
37.8979797363281

> <r_mmod_Bend_Energy-OPLS-2005>
105.756149291992

> <r_mmod_Torsional_Energy-OPLS-2005>
203.327392578125

> <r_mmod_Improper_Torsional_Energy-OPLS-2005>
3.03885936737061

> <r_mmod_Van_der_Waal_Energy-OPLS-2005>
153.385299682617

> <r_mmod_Electrostatic_Energy-OPLS-2005>
-417.463165283203

> <r_mmod_Solvation_Energy-OPLS-2005>
-233.536666870117

> <b_mmod_Minimization_Converged-OPLS-2005>
0

> <r_mmod_RMS_Derivative-OPLS-2005>
1.77972328662872

$$$$
84
                    3D
 Structure written by MMmdl.
169177  0  0  1  0            999 V2000
  -30.6579  -14.4811   20.6129 C   0  0  0  0  0  0
  -30.4319  -12.3241   19.4100 C   0  0  0  0  0  0
  -29.4973  -12.5118   18.1973 C   0  0  0  0  0  0
  -28.0191  -12.3534   18.6081 C   0  0  0  0  0  0
  -27.6579  -13.1913   19.8643 C   0  0  2  0  0  0
  -28.6956  -12.9537   20.9841 C   0  0  0  0  0  0
  -25.2617  -13.8141   20.5634 C   0  0  0  0  0  0
  -24.1854  -13.0438   20.9157 C   0  0  0  0  0  0
  -24.6379  -11.6897   20.8707 C   0  0  0  0  0  0
  -23.9069  -10.4304   21.0415 C   0  0  0  0  0  0
  -24.3639   -9.4230   21.9195 C   0  0  0  0  0  0
  -23.6318   -8.2258   22.0758 C   0  0  0  0  0  0
  -22.4287   -8.0312   21.3564 C   0  0  0  0  0  0
  -21.9918   -9.0292   20.4652 C   0  0  0  0  0  0
  -22.7253  -10.2166   20.3064 C   0  0  0  0  0  0
  -21.6863   -6.0772   22.5287 C   0  0  0  0  0  0
  -21.4009   -6.5658   23.8230 C   0  0  0  0  0  0
  -21.3664   -5.6808   24.9187 C   0  0  0  0  0  0
  -21.6030   -4.3065   24.7231 C   0  0  0  0  0  0
  -21.8820   -3.8174   23.4340 C   0  0  0  0  0  0
  -21.9182   -4.6996   22.3407 C   0  0  0  0  0  0
  -22.7896  -13.5275   21.1876 C   0  0  0  0  0  0
  -22.1652   -4.2190   21.0980 F   0  0  0  0  0  0
  -21.5625   -3.4536   25.7735 F   0  0  0  0  0  0
  -30.0226  -13.2905   20.4387 N   0  0  0  0  0  0
  -26.2992  -12.9241   20.3234 N   0  0  0  0  0  0
  -25.9276  -11.6428   20.5680 N   0  0  0  0  0  0
  -22.0499  -12.8300   22.0387 N   0  0  0  0  0  0
  -25.4345  -15.1868   20.4052 N   0  0  0  0  0  0
  -31.8095  -14.6935   20.2175 O   0  0  0  0  0  0
  -21.6637   -6.8911   21.4256 O   0  0  0  0  0  0
  -22.3599  -14.5619   20.6766 O   0  0  0  0  0  0
  -24.6212  -31.8676   23.2108 C   0  0  0  0  0  0
  -25.9109  -32.4809   23.8377 C   0  0  1  0  0  0
  -27.2149  -27.3920   20.1196 C   0  0  0  0  0  0
  -25.5982  -33.8596   24.2338 N   0  0  0  0  0  0
  -23.4106  -30.4922   21.5484 C   0  0  2  0  0  0
  -24.8566  -28.9560   20.1163 C   0  0  0  0  0  0
  -22.7428  -29.4680   22.5001 C   0  0  0  0  0  0
  -18.0301  -28.1331   22.8442 C   0  0  0  0  0  0
  -24.1478  -36.7306   23.2634 C   0  0  0  0  0  0
  -25.9442  -30.8102   21.3800 C   0  0  0  0  0  0
  -26.0140  -29.4366   20.7455 C   0  0  0  0  0  0
  -27.1999  -28.6563   20.7568 C   0  0  0  0  0  0
  -26.0655  -26.9689   19.4313 C   0  0  0  0  0  0
  -24.8815  -27.7224   19.4474 C   0  0  0  0  0  0
  -23.6235  -29.8304   20.1598 C   0  0  0  0  0  0
  -25.4085  -36.3108   24.0346 C   0  0  1  0  0  0
  -20.5866  -28.3697   23.1412 C   0  0  2  0  0  0
  -20.6838  -26.9404   22.5626 C   0  0  0  0  0  0
  -19.5960  -26.6364   21.5292 C   0  0  0  0  0  0
  -18.2079  -26.7892   22.1583 C   0  0  0  0  0  0
  -19.1515  -28.8843   23.2884 C   0  0  0  0  0  0
  -18.9374  -30.1407   23.8891 C   0  0  0  0  0  0
  -17.6352  -30.6548   24.0489 C   0  0  0  0  0  0
  -25.9043  -34.9478   23.5122 C   0  0  0  0  0  0
  -16.5286  -29.8985   23.6309 C   0  0  0  0  0  0
  -16.7274  -28.6399   23.0327 C   0  0  0  0  0  0
  -26.4492  -31.6587   25.0733 C   0  0  0  0  0  0
  -25.3773  -31.3685   26.1502 C   0  0  0  0  0  0
  -27.0321  -30.3029   24.6116 C   0  0  0  0  0  0
  -27.6074  -32.4296   25.7482 C   0  0  0  0  0  0
  -27.5565  -37.1800   24.8452 C   0  0  0  0  0  0
  -21.4144  -29.3108   22.3827 N   0  0  0  0  0  0
  -26.4275  -37.3786   23.9435 N   0  0  0  0  0  0
  -24.6758  -31.0747   22.1017 N   0  0  0  0  0  0
  -23.4185  -28.8136   23.3001 O   0  0  0  0  0  0
  -28.3503  -26.6217   20.0018 O   0  0  0  0  0  0
  -26.5582  -34.8929   22.4668 O   0  0  0  0  0  0
  -23.5431  -32.1467   23.7502 O   0  0  0  0  0  0
  -31.1294  -16.9767   22.5056 C   0  0  0  0  0  0
  -29.3098  -17.8701   21.1719 C   0  0  0  0  0  0
  -31.2769  -18.2312   23.1413 C   0  0  0  0  0  0
  -30.4482  -19.3337   22.7741 C   0  0  0  0  0  0
  -30.1342  -16.7766   21.5316 C   0  0  0  0  0  0
  -29.4712  -19.1562   21.7480 C   0  0  0  0  0  0
  -32.3244  -18.3408   24.2461 C   0  0  0  0  0  0
  -31.8472  -21.4488   23.1525 C   0  0  0  0  0  0
  -26.6688  -24.9708   22.3972 C   0  0  0  0  0  0
  -26.7338  -23.8504   20.1511 C   0  0  0  0  0  0
  -30.5830  -20.6614   23.5243 C   0  0  0  0  0  0
  -28.3657  -23.1843   21.9496 C   0  0  0  0  0  0
  -28.6340  -25.5216   20.9042 C   0  0  0  0  0  0
  -29.0248  -22.1239   21.0057 C   0  0  0  0  0  0
  -27.6034  -24.3985   21.3068 C   0  0  0  0  0  0
  -29.8395  -15.4714   21.0321 N   0  0  0  0  0  0
  -28.3094  -20.4358   21.2299 S   0  0  0  0  0  0
  -31.4708  -12.4551   19.1021 H   0  0  0  0  0  0
  -30.3566  -11.3071   19.7974 H   0  0  0  0  0  0
  -29.7486  -11.7871   17.4217 H   0  0  0  0  0  0
  -29.6513  -13.4996   17.7583 H   0  0  0  0  0  0
  -27.8467  -11.2976   18.8186 H   0  0  0  0  0  0
  -27.3647  -12.6070   17.7740 H   0  0  0  0  0  0
  -27.7030  -14.2372   19.5673 H   0  0  0  0  0  0
  -28.6782  -11.9088   21.2988 H   0  0  0  0  0  0
  -28.4548  -13.5252   21.8809 H   0  0  0  0  0  0
  -25.2785   -9.5706   22.4775 H   0  0  0  0  0  0
  -24.0046   -7.4643   22.7470 H   0  0  0  0  0  0
  -21.0845   -8.8854   19.8951 H   0  0  0  0  0  0
  -22.3746  -10.9749   19.6188 H   0  0  0  0  0  0
  -21.2001   -7.6162   23.9771 H   0  0  0  0  0  0
  -21.1467   -6.0505   25.9105 H   0  0  0  0  0  0
  -22.0576   -2.7633   23.2829 H   0  0  0  0  0  0
  -22.4065  -11.9988   22.4883 H   0  0  0  0  0  0
  -21.1119  -13.1385   22.2518 H   0  0  0  0  0  0
  -24.6747  -15.8451   20.5454 H   0  0  0  0  0  0
  -26.2776  -15.6319   20.0631 H   0  0  0  0  0  0
  -26.7165  -32.5476   23.1120 H   0  0  0  0  0  0
  -25.0247  -33.9654   25.0565 H   0  0  0  0  0  0
  -22.7133  -31.3197   21.4055 H   0  0  0  0  0  0
  -23.3762  -35.9619   23.3307 H   0  0  0  0  0  0
  -24.3589  -36.8937   22.2061 H   0  0  0  0  0  0
  -23.7225  -37.6505   23.6635 H   0  0  0  0  0  0
  -26.0591  -31.5634   20.5983 H   0  0  0  0  0  0
  -26.8319  -30.8696   21.9947 H   0  0  0  0  0  0
  -28.0957  -29.0162   21.2447 H   0  0  0  0  0  0
  -26.1001  -26.0693   18.8378 H   0  0  0  0  0  0
  -24.0142  -27.3736   18.9038 H   0  0  0  0  0  0
  -23.7472  -30.6069   19.4025 H   0  0  0  0  0  0
  -22.7466  -29.2564   19.8529 H   0  0  0  0  0  0
  -25.1219  -36.1991   25.0834 H   0  0  0  0  0  0
  -20.9828  -28.3320   24.1589 H   0  0  0  0  0  0
  -20.5601  -26.2336   23.3853 H   0  0  0  0  0  0
  -21.6753  -26.7347   22.1587 H   0  0  0  0  0  0
  -19.7244  -25.6274   21.1354 H   0  0  0  0  0  0
  -19.7084  -27.3171   20.6834 H   0  0  0  0  0  0
  -17.4352  -26.6589   21.3984 H   0  0  0  0  0  0
  -18.0496  -25.9989   22.8943 H   0  0  0  0  0  0
  -19.7804  -30.7266   24.2298 H   0  0  0  0  0  0
  -17.4850  -31.6255   24.5001 H   0  0  0  0  0  0
  -15.5239  -30.2778   23.7662 H   0  0  0  0  0  0
  -15.8697  -28.0672   22.7057 H   0  0  0  0  0  0
  -24.5952  -30.6991   25.7872 H   0  0  0  0  0  0
  -24.8927  -32.2833   26.4920 H   0  0  0  0  0  0
  -25.8164  -30.8909   27.0277 H   0  0  0  0  0  0
  -26.2861  -29.6819   24.1149 H   0  0  0  0  0  0
  -27.4082  -29.7202   25.4534 H   0  0  0  0  0  0
  -27.8676  -30.4340   23.9251 H   0  0  0  0  0  0
  -27.2698  -33.3584   26.2062 H   0  0  0  0  0  0
  -28.3865  -32.6904   25.0314 H   0  0  0  0  0  0
  -28.0761  -31.8453   26.5412 H   0  0  0  0  0  0
  -28.2534  -38.0129   24.7487 H   0  0  0  0  0  0
  -28.1095  -36.2662   24.6239 H   0  0  0  0  0  0
  -27.2286  -37.1386   25.8849 H   0  0  0  0  0  0
  -20.9289  -29.8970   21.7176 H   0  0  0  0  0  0
  -26.0196  -38.2855   24.1492 H   0  0  0  0  0  0
  -31.7370  -16.1399   22.8181 H   0  0  0  0  0  0
  -28.5086  -17.7218   20.4608 H   0  0  0  0  0  0
  -32.6006  -17.3609   24.6384 H   0  0  0  0  0  0
  -31.9771  -18.9258   25.0977 H   0  0  0  0  0  0
  -33.2309  -18.8049   23.8606 H   0  0  0  0  0  0
  -31.7834  -22.4684   23.5304 H   0  0  0  0  0  0
  -31.9948  -21.4913   22.0748 H   0  0  0  0  0  0
  -32.7385  -21.0020   23.5849 H   0  0  0  0  0  0
  -25.9772  -24.2203   22.7800 H   0  0  0  0  0  0
  -26.0644  -25.7940   22.0175 H   0  0  0  0  0  0
  -27.2383  -25.3496   23.2456 H   0  0  0  0  0  0
  -26.4196  -22.8259   20.3490 H   0  0  0  0  0  0
  -27.2639  -23.8561   19.1953 H   0  0  0  0  0  0
  -25.7979  -24.3911   20.0332 H   0  0  0  0  0  0
  -30.5715  -20.4911   24.6002 H   0  0  0  0  0  0
  -29.7076  -21.2816   23.3767 H   0  0  0  0  0  0
  -29.1189  -23.5704   22.6415 H   0  0  0  0  0  0
  -27.6755  -22.6531   22.6051 H   0  0  0  0  0  0
  -29.4627  -25.0014   20.4246 H   0  0  0  0  0  0
  -29.0615  -25.9602   21.8089 H   0  0  0  0  0  0
  -30.1015  -22.0869   21.1458 H   0  0  0  0  0  0
  -28.9066  -22.4094   19.9630 H   0  0  0  0  0  0
  -28.8654  -15.2153   21.0468 H   0  0  0  0  0  0
  1 25  1  0  0  0
  1 30  2  0  0  0
  1 86  1  0  0  0
  2  3  1  0  0  0
  2 25  1  0  0  0
  2 88  1  0  0  0
  2 89  1  0  0  0
  3  4  1  0  0  0
  3 90  1  0  0  0
  3 91  1  0  0  0
  4  5  1  0  0  0
  4 92  1  0  0  0
  4 93  1  0  0  0
  5  6  1  0  0  0
  5 26  1  0  0  0
  5 94  1  0  0  0
  6 25  1  0  0  0
  6 95  1  0  0  0
  6 96  1  0  0  0
  7  8  2  0  0  0
  7 26  1  0  0  0
  7 29  1  0  0  0
  8  9  1  0  0  0
  8 22  1  0  0  0
  9 10  1  0  0  0
  9 27  2  0  0  0
 10 11  2  0  0  0
 10 15  1  0  0  0
 11 12  1  0  0  0
 11 97  1  0  0  0
 12 13  2  0  0  0
 12 98  1  0  0  0
 13 14  1  0  0  0
 13 31  1  0  0  0
 14 15  2  0  0  0
 14 99  1  0  0  0
 15100  1  0  0  0
 16 17  2  0  0  0
 16 21  1  0  0  0
 16 31  1  0  0  0
 17 18  1  0  0  0
 17101  1  0  0  0
 18 19  2  0  0  0
 18102  1  0  0  0
 19 20  1  0  0  0
 19 24  1  0  0  0
 20 21  2  0  0  0
 20103  1  0  0  0
 21 23  1  0  0  0
 22 28  1  0  0  0
 22 32  2  0  0  0
 26 27  1  0  0  0
 28104  1  0  0  0
 28105  1  0  0  0
 29106  1  0  0  0
 29107  1  0  0  0
 33 34  1  0  0  0
 33 66  1  0  0  0
 33 70  2  0  0  0
 34 36  1  0  0  0
 34 59  1  0  0  0
 34108  1  0  0  0
 35 44  2  0  0  0
 35 45  1  0  0  0
 35 68  1  0  0  0
 36 56  1  0  0  0
 36109  1  0  0  0
 37 39  1  0  0  0
 37 47  1  0  0  0
 37 66  1  0  0  0
 37110  1  0  0  0
 38 43  2  0  0  0
 38 46  1  0  0  0
 38 47  1  0  0  0
 39 64  1  0  0  0
 39 67  2  0  0  0
 40 52  1  0  0  0
 40 53  2  0  0  0
 40 58  1  0  0  0
 41111  1  0  0  0
 41112  1  0  0  0
 41113  1  0  0  0
 41 48  1  0  0  0
 42 43  1  0  0  0
 42 66  1  0  0  0
 42114  1  0  0  0
 42115  1  0  0  0
 43 44  1  0  0  0
 44116  1  0  0  0
 45 46  2  0  0  0
 45117  1  0  0  0
 46118  1  0  0  0
 47119  1  0  0  0
 47120  1  0  0  0
 48 56  1  0  0  0
 48 65  1  0  0  0
 48121  1  0  0  0
 49 50  1  0  0  0
 49 53  1  0  0  0
 49 64  1  0  0  0
 49122  1  0  0  0
 50 51  1  0  0  0
 50123  1  0  0  0
 50124  1  0  0  0
 51 52  1  0  0  0
 51125  1  0  0  0
 51126  1  0  0  0
 52127  1  0  0  0
 52128  1  0  0  0
 53 54  1  0  0  0
 54 55  2  0  0  0
 54129  1  0  0  0
 55 57  1  0  0  0
 55130  1  0  0  0
 56 69  2  0  0  0
 57 58  2  0  0  0
 57131  1  0  0  0
 58132  1  0  0  0
 59 60  1  0  0  0
 59 61  1  0  0  0
 59 62  1  0  0  0
 60133  1  0  0  0
 60134  1  0  0  0
 60135  1  0  0  0
 61136  1  0  0  0
 61137  1  0  0  0
 61138  1  0  0  0
 62139  1  0  0  0
 62140  1  0  0  0
 62141  1  0  0  0
 63 65  1  0  0  0
 63142  1  0  0  0
 63143  1  0  0  0
 63144  1  0  0  0
 64145  1  0  0  0
 65146  1  0  0  0
 68 83  1  0  0  0
 71 73  2  0  0  0
 71 75  1  0  0  0
 71147  1  0  0  0
 72 75  2  0  0  0
 72 76  1  0  0  0
 72148  1  0  0  0
 73 74  1  0  0  0
 73 77  1  0  0  0
 74 76  2  0  0  0
 74 81  1  0  0  0
 75 86  1  0  0  0
 76 87  1  0  0  0
 77149  1  0  0  0
 77150  1  0  0  0
 77151  1  0  0  0
 78 81  1  0  0  0
 78152  1  0  0  0
 78153  1  0  0  0
 78154  1  0  0  0
 79155  1  0  0  0
 79156  1  0  0  0
 79157  1  0  0  0
 79 85  1  0  0  0
 80 85  1  0  0  0
 80158  1  0  0  0
 80159  1  0  0  0
 80160  1  0  0  0
 81161  1  0  0  0
 81162  1  0  0  0
 82 84  1  0  0  0
 82 85  1  0  0  0
 82163  1  0  0  0
 82164  1  0  0  0
 83 85  1  0  0  0
 83165  1  0  0  0
 83166  1  0  0  0
 84 87  1  0  0  0
 84167  1  0  0  0
 84168  1  0  0  0
 86169  1  0  0  0
M  ISO  4   1 100  68 101  83 101  86 100
M  END
> <chiral flag>
0

> <version>
0

> <s_m_source_file>
/data/baiqing/PycharmProjects/Reinvent-master-3.2/result/LINK_invent/BTK/process_docking_weight1_custom_product_contain_oxygen_bond_distance_aromatic_linkinvent_7_9_3/rearranged_h_0134.sdf

> <i_m_source_file_index>
85

> <r_mmod_Potential_Energy-OPLS-2005>
112.69165802002

> <r_mmod_Stretch_Energy-OPLS-2005>
49.3024368286133

> <r_mmod_Bend_Energy-OPLS-2005>
149.449295043945

> <r_mmod_Torsional_Energy-OPLS-2005>
291.286895751953

> <r_mmod_Improper_Torsional_Energy-OPLS-2005>
7.04541969299316

> <r_mmod_Van_der_Waal_Energy-OPLS-2005>
154.218475341797

> <r_mmod_Electrostatic_Energy-OPLS-2005>
-360.668975830078

> <r_mmod_Solvation_Energy-OPLS-2005>
-197.999145507812

> <b_mmod_Minimization_Converged-OPLS-2005>
0

> <r_mmod_RMS_Derivative-OPLS-2005>
5.8139500617981

$$$$
85
                    3D
 Structure written by MMmdl.
156164  0  0  1  0            999 V2000
  -31.1408  -13.8120   20.9158 C   0  0  0  0  0  0
  -30.5274  -12.4027   18.9877 C   0  0  0  0  0  0
  -29.9379  -13.1578   17.3872 C   0  0  0  0  0  0
  -28.3987  -14.2961   17.2210 C   0  0  0  0  0  0
  -27.3478  -14.2302   20.3797 C   0  0  2  0  0  0
  -28.6827  -13.2436   21.2352 C   0  0  0  0  0  0
  -24.9643  -14.0287   20.8539 C   0  0  0  0  0  0
  -24.0190  -13.0888   21.0273 C   0  0  0  0  0  0
  -24.6312  -11.7996   20.9489 C   0  0  0  0  0  0
  -23.9658  -10.4632   21.0329 C   0  0  0  0  0  0
  -24.3977   -9.4428   21.9151 C   0  0  0  0  0  0
  -23.6577   -8.2428   22.0699 C   0  0  0  0  0  0
  -22.4571   -8.0395   21.3498 C   0  0  0  0  0  0
  -22.0377   -9.0389   20.4542 C   0  0  0  0  0  0
  -22.7815  -10.2253   20.2948 C   0  0  0  0  0  0
  -21.6947   -6.0821   22.5288 C   0  0  0  0  0  0
  -21.4135   -6.5695   23.8260 C   0  0  0  0  0  0
  -21.3760   -5.6821   24.9213 C   0  0  0  0  0  0
  -21.6058   -4.3090   24.7237 C   0  0  0  0  0  0
  -21.8760   -3.8176   23.4357 C   0  0  0  0  0  0
  -21.9183   -4.7010   22.3413 C   0  0  0  0  0  0
  -22.5959  -13.4517   21.2039 C   0  0  0  0  0  0
  -22.1605   -4.2173   21.0995 F   0  0  0  0  0  0
  -21.5646   -3.4565   25.7759 F   0  0  0  0  0  0
  -30.1688  -12.9054   20.5436 N   0  0  0  0  0  0
  -26.1361  -13.3910   20.7883 N   0  0  0  0  0  0
  -25.9587  -11.9914   20.7961 N   0  0  0  0  0  0
  -21.8893  -12.7302   22.0588 N   0  0  0  0  0  0
  -24.9244  -15.4134   20.7376 N   0  0  0  0  0  0
  -32.3331  -13.7952   20.6280 O   0  0  0  0  0  0
  -21.6820   -6.9019   21.4253 O   0  0  0  0  0  0
  -22.1409  -14.4572   20.6565 O   0  0  0  0  0  0
  -24.6700  -31.8222   23.1734 C   0  0  0  0  0  0
  -25.9400  -32.4544   23.8146 C   0  0  1  0  0  0
  -27.0302  -26.8541   20.0540 C   0  0  0  0  0  0
  -25.6075  -33.8370   24.2046 N   0  0  0  0  0  0
  -23.4702  -30.4587   21.5307 C   0  0  2  0  0  0
  -24.8780  -28.8630   20.0883 C   0  0  0  0  0  0
  -22.7646  -29.4470   22.4727 C   0  0  0  0  0  0
  -18.0321  -28.1401   22.8467 C   0  0  0  0  0  0
  -24.1523  -36.7184   23.2631 C   0  0  0  0  0  0
  -26.0504  -30.5887   21.4186 C   0  0  0  0  0  0
  -26.0799  -29.1845   20.7327 C   0  0  0  0  0  0
  -27.1640  -28.1864   20.7155 C   0  0  0  0  0  0
  -25.8273  -26.7378   19.3495 C   0  0  0  0  0  0
  -24.7776  -27.6631   19.3914 C   0  0  0  0  0  0
  -23.6965  -29.8173   20.1435 C   0  0  0  0  0  0
  -25.4162  -36.2912   24.0266 C   0  0  1  0  0  0
  -20.5952  -28.3755   23.1164 C   0  0  2  0  0  0
  -20.6806  -26.9434   22.5371 C   0  0  0  0  0  0
  -19.5768  -26.6384   21.5195 C   0  0  0  0  0  0
  -18.1956  -26.7938   22.1624 C   0  0  0  0  0  0
  -19.1582  -28.8890   23.2822 C   0  0  0  0  0  0
  -18.9496  -30.1480   23.8859 C   0  0  0  0  0  0
  -17.6490  -30.6590   24.0559 C   0  0  0  0  0  0
  -25.9134  -34.9313   23.4952 C   0  0  0  0  0  0
  -16.5380  -29.9078   23.6338 C   0  0  0  0  0  0
  -16.7306  -28.6499   23.0355 C   0  0  0  0  0  0
  -26.4620  -31.6501   25.0696 C   0  0  0  0  0  0
  -25.3731  -31.3815   26.1344 C   0  0  0  0  0  0
  -27.0523  -30.2843   24.6502 C   0  0  0  0  0  0
  -27.6091  -32.4312   25.7526 C   0  0  0  0  0  0
  -27.5569  -37.1761   24.8466 C   0  0  0  0  0  0
  -21.4312  -29.3083   22.3521 N   0  0  0  0  0  0
  -26.4290  -37.3661   23.9388 N   0  0  0  0  0  0
  -24.7542  -30.9846   22.0917 N   0  0  0  0  0  0
  -23.4208  -28.7968   23.2903 O   0  0  0  0  0  0
  -27.8333  -25.5966   20.0285 O   0  0  0  0  0  0
  -26.5713  -34.8850   22.4530 O   0  0  0  0  0  0
  -23.5776  -32.1263   23.6814 O   0  0  0  0  0  0
  -26.5603  -13.3828   18.2924 C   0  0  0  0  0  0
  -28.0719  -12.8970   18.8482 C   0  0  0  0  0  0
  -26.2275  -14.9874   18.2247 C   0  0  0  0  0  0
  -28.4572  -16.0483   19.0632 C   0  0  0  0  0  0
  -29.1679  -14.6844   19.2176 C   0  0  0  0  0  0
  -27.0771  -16.2898   18.6172 C   0  0  0  0  0  0
  -27.7199  -22.4528   19.6672 C   0  0  0  0  0  0
  -30.5756  -15.2123   19.4572 C   0  0  0  0  0  0
  -27.0330  -20.9592   19.0057 C   0  0  0  0  0  0
  -27.1978  -24.1327   19.5061 C   0  0  0  0  0  0
  -27.3817  -19.1753   19.1836 C   0  0  0  0  0  0
  -30.7322  -15.0404   20.8642 N   0  0  0  0  0  0
  -28.7271  -22.2813   20.3550 O   0  0  0  0  0  0
  -26.6781  -17.7798   18.6116 O   0  0  0  0  0  0
  -31.6090  -12.3200   18.8702 H   0  0  0  0  0  0
  -30.2671  -11.3448   18.9674 H   0  0  0  0  0  0
  -29.7951  -12.3373   16.6866 H   0  0  0  0  0  0
  -30.7699  -13.6971   16.9373 H   0  0  0  0  0  0
  -27.7910  -13.9110   16.3934 H   0  0  0  0  0  0
  -28.7183  -15.2574   16.8035 H   0  0  0  0  0  0
  -27.3345  -15.1603   20.9620 H   0  0  0  0  0  0
  -28.3082  -12.2616   21.5123 H   0  0  0  0  0  0
  -28.8434  -13.7164   22.2054 H   0  0  0  0  0  0
  -25.2929   -9.5893   22.5043 H   0  0  0  0  0  0
  -24.0170   -7.4828   22.7484 H   0  0  0  0  0  0
  -21.1336   -8.8978   19.8811 H   0  0  0  0  0  0
  -22.4215  -10.9778   19.6117 H   0  0  0  0  0  0
  -21.2193   -7.6207   23.9798 H   0  0  0  0  0  0
  -21.1677   -6.0561   25.9147 H   0  0  0  0  0  0
  -22.0423   -2.7620   23.2878 H   0  0  0  0  0  0
  -22.2834  -11.9297   22.5336 H   0  0  0  0  0  0
  -20.9267  -12.9742   22.2505 H   0  0  0  0  0  0
  -24.0270  -15.8882   20.6984 H   0  0  0  0  0  0
  -25.7008  -15.9885   20.4357 H   0  0  0  0  0  0
  -26.7440  -32.5008   23.0808 H   0  0  0  0  0  0
  -25.0239  -33.9464   25.0209 H   0  0  0  0  0  0
  -22.7856  -31.2974   21.3813 H   0  0  0  0  0  0
  -23.3778  -35.9523   23.3237 H   0  0  0  0  0  0
  -24.3600  -36.8901   22.2057 H   0  0  0  0  0  0
  -23.7311  -37.6358   23.6749 H   0  0  0  0  0  0
  -26.2593  -31.3388   20.6532 H   0  0  0  0  0  0
  -26.9038  -30.6175   22.0839 H   0  0  0  0  0  0
  -28.0620  -28.3932   21.2797 H   0  0  0  0  0  0
  -25.6139  -25.8577   18.7662 H   0  0  0  0  0  0
  -23.8625  -27.4285   18.8655 H   0  0  0  0  0  0
  -23.8818  -30.6028   19.4091 H   0  0  0  0  0  0
  -22.7931  -29.3093   19.8014 H   0  0  0  0  0  0
  -25.1375  -36.1660   25.0757 H   0  0  0  0  0  0
  -21.0065  -28.3361   24.1283 H   0  0  0  0  0  0
  -20.5699  -26.2365   23.3611 H   0  0  0  0  0  0
  -21.6664  -26.7426   22.1166 H   0  0  0  0  0  0
  -19.6931  -25.6288   21.1243 H   0  0  0  0  0  0
  -19.6696  -27.3180   20.6710 H   0  0  0  0  0  0
  -17.4219  -26.6668   21.4037 H   0  0  0  0  0  0
  -18.0375  -26.0086   22.9032 H   0  0  0  0  0  0
  -19.7969  -30.7306   24.2215 H   0  0  0  0  0  0
  -17.5039  -31.6266   24.5170 H   0  0  0  0  0  0
  -15.5374  -30.2973   23.7679 H   0  0  0  0  0  0
  -15.8709  -28.0809   22.7091 H   0  0  0  0  0  0
  -24.5930  -30.7129   25.7679 H   0  0  0  0  0  0
  -24.8919  -32.3058   26.4555 H   0  0  0  0  0  0
  -25.7958  -30.9136   27.0245 H   0  0  0  0  0  0
  -26.3216  -29.6493   24.1475 H   0  0  0  0  0  0
  -27.3986  -29.7224   25.5186 H   0  0  0  0  0  0
  -27.9190  -30.3978   23.9983 H   0  0  0  0  0  0
  -27.2640  -33.3669   26.1935 H   0  0  0  0  0  0
  -28.4020  -32.6767   25.0448 H   0  0  0  0  0  0
  -28.0616  -31.8534   26.5595 H   0  0  0  0  0  0
  -28.2552  -38.0079   24.7467 H   0  0  0  0  0  0
  -28.1094  -36.2596   24.6349 H   0  0  0  0  0  0
  -27.2271  -37.1458   25.8863 H   0  0  0  0  0  0
  -20.9502  -29.8861   21.6770 H   0  0  0  0  0  0
  -26.0100  -38.2707   24.1377 H   0  0  0  0  0  0
  -25.8219  -12.6557   17.9814 H   0  0  0  0  0  0
  -28.2843  -11.8396   18.9085 H   0  0  0  0  0  0
  -25.2319  -15.2067   17.8726 H   0  0  0  0  0  0
  -28.9578  -16.9652   19.3271 H   0  0  0  0  0  0
  -30.7709  -16.2670   19.2567 H   0  0  0  0  0  0
  -31.3141  -14.8033   18.7611 H   0  0  0  0  0  0
  -27.1104  -21.1341   17.9331 H   0  0  0  0  0  0
  -25.9677  -21.0676   19.2115 H   0  0  0  0  0  0
  -26.1924  -24.0991   19.9243 H   0  0  0  0  0  0
  -27.0518  -24.2561   18.4331 H   0  0  0  0  0  0
  -27.3738  -19.0193   20.2639 H   0  0  0  0  0  0
  -28.4332  -19.0687   18.9227 H   0  0  0  0  0  0
  -31.3679  -15.7059   21.2723 H   0  0  0  0  0  0
  1 25  1  0  0  0
  1 30  2  0  0  0
  1 82  1  0  0  0
  2  3  1  0  0  0
  2 25  1  0  0  0
  2 85  1  0  0  0
  2 86  1  0  0  0
  3  4  1  0  0  0
  3 87  1  0  0  0
  3 88  1  0  0  0
  4  5  1  0  0  0
  4 89  1  0  0  0
  4 90  1  0  0  0
  5  6  1  0  0  0
  5 26  1  0  0  0
  5 91  1  0  0  0
  6 25  1  0  0  0
  6 92  1  0  0  0
  6 93  1  0  0  0
  7  8  2  0  0  0
  7 26  1  0  0  0
  7 29  1  0  0  0
  8  9  1  0  0  0
  8 22  1  0  0  0
  9 10  1  0  0  0
  9 27  2  0  0  0
 10 11  2  0  0  0
 10 15  1  0  0  0
 11 12  1  0  0  0
 11 94  1  0  0  0
 12 13  2  0  0  0
 12 95  1  0  0  0
 13 14  1  0  0  0
 13 31  1  0  0  0
 14 15  2  0  0  0
 14 96  1  0  0  0
 15 97  1  0  0  0
 16 17  2  0  0  0
 16 21  1  0  0  0
 16 31  1  0  0  0
 17 18  1  0  0  0
 17 98  1  0  0  0
 18 19  2  0  0  0
 18 99  1  0  0  0
 19 20  1  0  0  0
 19 24  1  0  0  0
 20 21  2  0  0  0
 20100  1  0  0  0
 21 23  1  0  0  0
 22 28  1  0  0  0
 22 32  2  0  0  0
 26 27  1  0  0  0
 28101  1  0  0  0
 28102  1  0  0  0
 29103  1  0  0  0
 29104  1  0  0  0
 33 34  1  0  0  0
 33 66  1  0  0  0
 33 70  2  0  0  0
 34 36  1  0  0  0
 34 59  1  0  0  0
 34105  1  0  0  0
 35 44  2  0  0  0
 35 45  1  0  0  0
 35 68  1  0  0  0
 36 56  1  0  0  0
 36106  1  0  0  0
 37 39  1  0  0  0
 37 47  1  0  0  0
 37 66  1  0  0  0
 37107  1  0  0  0
 38 43  2  0  0  0
 38 46  1  0  0  0
 38 47  1  0  0  0
 39 64  1  0  0  0
 39 67  2  0  0  0
 40 52  1  0  0  0
 40 53  2  0  0  0
 40 58  1  0  0  0
 41108  1  0  0  0
 41109  1  0  0  0
 41110  1  0  0  0
 41 48  1  0  0  0
 42 43  1  0  0  0
 42 66  1  0  0  0
 42111  1  0  0  0
 42112  1  0  0  0
 43 44  1  0  0  0
 44113  1  0  0  0
 45 46  2  0  0  0
 45114  1  0  0  0
 46115  1  0  0  0
 47116  1  0  0  0
 47117  1  0  0  0
 48 56  1  0  0  0
 48 65  1  0  0  0
 48118  1  0  0  0
 49 50  1  0  0  0
 49 53  1  0  0  0
 49 64  1  0  0  0
 49119  1  0  0  0
 50 51  1  0  0  0
 50120  1  0  0  0
 50121  1  0  0  0
 51 52  1  0  0  0
 51122  1  0  0  0
 51123  1  0  0  0
 52124  1  0  0  0
 52125  1  0  0  0
 53 54  1  0  0  0
 54 55  2  0  0  0
 54126  1  0  0  0
 55 57  1  0  0  0
 55127  1  0  0  0
 56 69  2  0  0  0
 57 58  2  0  0  0
 57128  1  0  0  0
 58129  1  0  0  0
 59 60  1  0  0  0
 59 61  1  0  0  0
 59 62  1  0  0  0
 60130  1  0  0  0
 60131  1  0  0  0
 60132  1  0  0  0
 61133  1  0  0  0
 61134  1  0  0  0
 61135  1  0  0  0
 62136  1  0  0  0
 62137  1  0  0  0
 62138  1  0  0  0
 63 65  1  0  0  0
 63139  1  0  0  0
 63140  1  0  0  0
 63141  1  0  0  0
 64142  1  0  0  0
 65143  1  0  0  0
 68 80  1  0  0  0
 71 72  2  0  0  0
 71 73  1  0  0  0
 71144  1  0  0  0
 72 75  1  0  0  0
 72145  1  0  0  0
 73 76  2  0  0  0
 73146  1  0  0  0
 74 75  2  0  0  0
 74 76  1  0  0  0
 74147  1  0  0  0
 75 78  1  0  0  0
 76 84  1  0  0  0
 77 79  1  0  0  0
 77 80  1  0  0  0
 77 83  2  0  0  0
 78 82  1  0  0  0
 78148  1  0  0  0
 78149  1  0  0  0
 79 81  1  0  0  0
 79150  1  0  0  0
 79151  1  0  0  0
 80152  1  0  0  0
 80153  1  0  0  0
 81 84  1  0  0  0
 81154  1  0  0  0
 81155  1  0  0  0
 82156  1  0  0  0
M  ISO  4   1 100  68 101  80 101  82 100
M  END
> <chiral flag>
0

> <version>
0

> <s_m_source_file>
/data/baiqing/PycharmProjects/Reinvent-master-3.2/result/LINK_invent/BTK/process_docking_weight1_custom_product_contain_oxygen_bond_distance_aromatic_linkinvent_7_9_3/rearranged_h_0134.sdf

> <i_m_source_file_index>
86

> <r_mmod_Potential_Energy-OPLS-2005>
11076.62890625

> <r_mmod_Stretch_Energy-OPLS-2005>
6282.86962890625

> <r_mmod_Bend_Energy-OPLS-2005>
802.065490722656

> <r_mmod_Torsional_Energy-OPLS-2005>
332.455535888672

> <r_mmod_Improper_Torsional_Energy-OPLS-2005>
41.367862701416

> <r_mmod_Van_der_Waal_Energy-OPLS-2005>
2777.99145507812

> <r_mmod_Electrostatic_Energy-OPLS-2005>
-428.833221435547

> <r_mmod_Solvation_Energy-OPLS-2005>
-231.568710327148

> <b_mmod_Minimization_Converged-OPLS-2005>
0

> <r_mmod_RMS_Derivative-OPLS-2005>
9.30856132507324

$$$$
86
                    3D
 Structure written by MMmdl.
168176  0  0  1  0            999 V2000
  -30.6795  -14.5748   20.5125 C   0  0  0  0  0  0
  -30.4389  -12.3622   19.4190 C   0  0  0  0  0  0
  -29.4978  -12.4689   18.1970 C   0  0  0  0  0  0
  -28.0156  -12.3424   18.6129 C   0  0  0  0  0  0
  -27.6510  -13.2241   19.8373 C   0  0  2  0  0  0
  -28.7066  -13.0731   20.9597 C   0  0  0  0  0  0
  -25.2530  -13.8193   20.5657 C   0  0  0  0  0  0
  -24.1836  -13.0469   20.9203 C   0  0  0  0  0  0
  -24.6413  -11.6909   20.8723 C   0  0  0  0  0  0
  -23.9063  -10.4312   21.0370 C   0  0  0  0  0  0
  -24.3577   -9.4230   21.9181 C   0  0  0  0  0  0
  -23.6262   -8.2269   22.0743 C   0  0  0  0  0  0
  -22.4274   -8.0269   21.3530 C   0  0  0  0  0  0
  -21.9881   -9.0243   20.4651 C   0  0  0  0  0  0
  -22.7186  -10.2142   20.3064 C   0  0  0  0  0  0
  -21.6846   -6.0714   22.5308 C   0  0  0  0  0  0
  -21.4004   -6.5606   23.8229 C   0  0  0  0  0  0
  -21.3659   -5.6757   24.9188 C   0  0  0  0  0  0
  -21.6062   -4.3017   24.7260 C   0  0  0  0  0  0
  -21.8815   -3.8124   23.4369 C   0  0  0  0  0  0
  -21.9179   -4.6943   22.3427 C   0  0  0  0  0  0
  -22.7840  -13.5196   21.1901 C   0  0  0  0  0  0
  -22.1652   -4.2113   21.1012 F   0  0  0  0  0  0
  -21.5654   -3.4510   25.7774 F   0  0  0  0  0  0
  -30.0234  -13.3868   20.3871 N   0  0  0  0  0  0
  -26.2991  -12.9409   20.3239 N   0  0  0  0  0  0
  -25.9356  -11.6547   20.5702 N   0  0  0  0  0  0
  -22.0461  -12.8233   22.0426 N   0  0  0  0  0  0
  -25.4238  -15.1934   20.3992 N   0  0  0  0  0  0
  -31.8683  -14.7095   20.2109 O   0  0  0  0  0  0
  -21.6617   -6.8876   21.4278 O   0  0  0  0  0  0
  -22.3535  -14.5485   20.6659 O   0  0  0  0  0  0
  -24.6136  -31.8712   23.2154 C   0  0  0  0  0  0
  -25.9053  -32.4820   23.8398 C   0  0  1  0  0  0
  -27.2183  -27.4287   20.1004 C   0  0  0  0  0  0
  -25.5916  -33.8609   24.2306 N   0  0  0  0  0  0
  -23.3935  -30.5056   21.5557 C   0  0  2  0  0  0
  -24.8294  -28.9661   20.1148 C   0  0  0  0  0  0
  -22.7370  -29.4773   22.5086 C   0  0  0  0  0  0
  -18.0285  -28.1296   22.8787 C   0  0  0  0  0  0
  -24.1485  -36.7326   23.2632 C   0  0  0  0  0  0
  -25.9302  -30.8318   21.3660 C   0  0  0  0  0  0
  -25.9945  -29.4732   20.7004 C   0  0  0  0  0  0
  -27.1899  -28.7178   20.6745 C   0  0  0  0  0  0
  -26.0181  -26.9184   19.5504 C   0  0  0  0  0  0
  -24.8437  -27.6912   19.5215 C   0  0  0  0  0  0
  -23.5954  -29.8388   20.1661 C   0  0  0  0  0  0
  -25.4113  -36.3117   24.0315 C   0  0  1  0  0  0
  -20.5859  -28.3772   23.1417 C   0  0  2  0  0  0
  -20.6801  -26.9531   22.5579 C   0  0  0  0  0  0
  -19.5763  -26.6514   21.5475 C   0  0  0  0  0  0
  -18.2013  -26.7807   22.2096 C   0  0  0  0  0  0
  -19.1496  -28.8850   23.3082 C   0  0  0  0  0  0
  -18.9406  -30.1553   23.8833 C   0  0  0  0  0  0
  -17.6420  -30.6651   24.0509 C   0  0  0  0  0  0
  -25.9050  -34.9473   23.5120 C   0  0  0  0  0  0
  -16.5357  -29.9051   23.6398 C   0  0  0  0  0  0
  -16.7258  -28.6399   23.0648 C   0  0  0  0  0  0
  -26.4466  -31.6593   25.0727 C   0  0  0  0  0  0
  -25.3723  -31.3714   26.1478 C   0  0  0  0  0  0
  -27.0275  -30.3007   24.6127 C   0  0  0  0  0  0
  -27.6018  -32.4329   25.7495 C   0  0  0  0  0  0
  -27.5596  -37.1805   24.8470 C   0  0  0  0  0  0
  -21.4110  -29.3141   22.3812 N   0  0  0  0  0  0
  -26.4337  -37.3786   23.9376 N   0  0  0  0  0  0
  -24.6630  -31.0851   22.1017 N   0  0  0  0  0  0
  -23.4167  -28.8321   23.3137 O   0  0  0  0  0  0
  -28.4156  -26.7351   20.1157 O   0  0  0  0  0  0
  -26.5630  -34.8920   22.4685 O   0  0  0  0  0  0
  -23.5321  -32.1537   23.7513 O   0  0  0  0  0  0
  -28.1882  -20.2186   18.9517 C   0  0  0  0  0  0
  -29.3393  -18.0567   19.0227 C   0  0  0  0  0  0
  -29.0644  -19.3671   21.0584 C   0  0  0  0  0  0
  -28.6799  -19.0725   18.2981 C   0  0  0  0  0  0
  -28.3943  -20.3989   20.3409 C   0  0  0  0  0  0
  -29.5327  -18.1739   20.4118 C   0  0  0  0  0  0
  -28.5481  -18.9372   16.7905 C   0  0  0  0  0  0
  -30.6185  -23.3259   22.2592 C   0  0  0  0  0  0
  -28.0321  -24.8430   22.0802 C   0  0  0  0  0  0
  -27.8250  -21.6497   21.0702 C   0  0  0  0  0  0
  -30.2968  -17.0421   21.1512 C   0  0  0  0  0  0
  -30.1132  -23.8810   20.9127 C   0  0  0  0  0  0
  -27.7682  -23.0124   20.2872 C   0  0  0  0  0  0
  -28.5023  -25.3698   19.6484 C   0  0  0  0  0  0
  -28.6045  -24.2575   20.7660 C   0  0  1  0  0  0
  -29.9059  -15.6529   20.7964 N   0  0  0  0  0  0
  -31.4816  -12.4858   19.1034 H   0  0  0  0  0  0
  -30.3901  -11.3757   19.8801 H   0  0  0  0  0  0
  -29.7479  -11.6974   17.4651 H   0  0  0  0  0  0
  -29.6573  -13.4260   17.6970 H   0  0  0  0  0  0
  -27.8313  -11.2911   18.8439 H   0  0  0  0  0  0
  -27.3720  -12.5878   17.7701 H   0  0  0  0  0  0
  -27.6667  -14.2559   19.4775 H   0  0  0  0  0  0
  -28.7179  -12.0520   21.3403 H   0  0  0  0  0  0
  -28.4760  -13.7149   21.8090 H   0  0  0  0  0  0
  -25.2728   -9.5678   22.4731 H   0  0  0  0  0  0
  -23.9929   -7.4656   22.7446 H   0  0  0  0  0  0
  -21.0805   -8.8756   19.8966 H   0  0  0  0  0  0
  -22.3622  -10.9652   19.6149 H   0  0  0  0  0  0
  -21.1992   -7.6113   23.9718 H   0  0  0  0  0  0
  -21.1473   -6.0495   25.9073 H   0  0  0  0  0  0
  -22.0587   -2.7591   23.2902 H   0  0  0  0  0  0
  -22.3960  -11.9882   22.4859 H   0  0  0  0  0  0
  -21.1131  -13.1356   22.2690 H   0  0  0  0  0  0
  -24.6568  -15.8471   20.4949 H   0  0  0  0  0  0
  -26.2550  -15.6261   20.0226 H   0  0  0  0  0  0
  -26.7123  -32.5508   23.1161 H   0  0  0  0  0  0
  -25.0012  -33.9762   25.0410 H   0  0  0  0  0  0
  -22.6781  -31.3252   21.4309 H   0  0  0  0  0  0
  -23.3740  -35.9691   23.3363 H   0  0  0  0  0  0
  -24.3576  -36.8866   22.2050 H   0  0  0  0  0  0
  -23.7291  -37.6556   23.6620 H   0  0  0  0  0  0
  -26.0607  -31.5992   20.6046 H   0  0  0  0  0  0
  -26.8186  -30.8732   21.9836 H   0  0  0  0  0  0
  -28.0925  -29.1220   21.1073 H   0  0  0  0  0  0
  -25.9482  -25.9109   19.1634 H   0  0  0  0  0  0
  -23.9476  -27.2831   19.0673 H   0  0  0  0  0  0
  -23.6900  -30.6204   19.4038 H   0  0  0  0  0  0
  -22.7148  -29.2537   19.8918 H   0  0  0  0  0  0
  -25.1295  -36.1994   25.0823 H   0  0  0  0  0  0
  -20.9936  -28.3280   24.1525 H   0  0  0  0  0  0
  -20.5860  -26.2395   23.3762 H   0  0  0  0  0  0
  -21.6645  -26.7771   22.1304 H   0  0  0  0  0  0
  -19.7078  -25.6555   21.1260 H   0  0  0  0  0  0
  -19.6557  -27.3518   20.7123 H   0  0  0  0  0  0
  -17.4191  -26.6230   21.4673 H   0  0  0  0  0  0
  -18.0693  -26.0097   22.9696 H   0  0  0  0  0  0
  -19.7894  -30.7506   24.1913 H   0  0  0  0  0  0
  -17.4829  -31.6451   24.4798 H   0  0  0  0  0  0
  -15.5372  -30.2956   23.7618 H   0  0  0  0  0  0
  -15.8598  -28.0724   22.7569 H   0  0  0  0  0  0
  -24.5905  -30.7053   25.7847 H   0  0  0  0  0  0
  -24.8905  -32.2866   26.4896 H   0  0  0  0  0  0
  -25.8061  -30.8918   27.0250 H   0  0  0  0  0  0
  -26.2836  -29.6797   24.1129 H   0  0  0  0  0  0
  -27.3989  -29.7206   25.4577 H   0  0  0  0  0  0
  -27.8707  -30.4303   23.9349 H   0  0  0  0  0  0
  -27.2623  -33.3617   26.2084 H   0  0  0  0  0  0
  -28.3826  -32.6894   25.0335 H   0  0  0  0  0  0
  -28.0731  -31.8461   26.5386 H   0  0  0  0  0  0
  -28.2615  -38.0080   24.7471 H   0  0  0  0  0  0
  -28.1064  -36.2601   24.6363 H   0  0  0  0  0  0
  -27.2287  -37.1564   25.8861 H   0  0  0  0  0  0
  -20.9376  -29.8684   21.6854 H   0  0  0  0  0  0
  -26.0216  -38.2874   24.1312 H   0  0  0  0  0  0
  -27.6528  -20.9581   18.3763 H   0  0  0  0  0  0
  -29.7179  -17.1914   18.4971 H   0  0  0  0  0  0
  -29.2045  -19.5058   22.1261 H   0  0  0  0  0  0
  -28.3721  -19.9031   16.3173 H   0  0  0  0  0  0
  -27.7360  -18.2582   16.5174 H   0  0  0  0  0  0
  -29.4767  -18.5402   16.3718 H   0  0  0  0  0  0
  -30.2104  -22.3466   22.5058 H   0  0  0  0  0  0
  -30.4286  -23.9963   23.0914 H   0  0  0  0  0  0
  -31.6950  -23.1979   22.2158 H   0  0  0  0  0  0
  -27.9678  -24.1124   22.8824 H   0  0  0  0  0  0
  -27.0330  -25.2530   21.9417 H   0  0  0  0  0  0
  -28.6475  -25.6670   22.4536 H   0  0  0  0  0  0
  -28.2558  -21.7806   22.0605 H   0  0  0  0  0  0
  -26.7946  -21.3733   21.2942 H   0  0  0  0  0  0
  -30.1534  -17.1531   22.2275 H   0  0  0  0  0  0
  -31.3676  -17.1814   20.9736 H   0  0  0  0  0  0
  -30.3492  -23.1594   20.1315 H   0  0  0  0  0  0
  -30.7337  -24.7516   20.6868 H   0  0  0  0  0  0
  -26.7120  -23.2908   20.2335 H   0  0  0  0  0  0
  -28.0367  -22.8436   19.2467 H   0  0  0  0  0  0
  -27.7764  -25.1162   18.8745 H   0  0  0  0  0  0
  -29.4297  -25.3875   19.0735 H   0  0  0  0  0  0
  -28.9152  -15.4866   20.7979 H   0  0  0  0  0  0
  1 25  1  0  0  0
  1 30  2  0  0  0
  1 86  1  0  0  0
  2  3  1  0  0  0
  2 25  1  0  0  0
  2 87  1  0  0  0
  2 88  1  0  0  0
  3  4  1  0  0  0
  3 89  1  0  0  0
  3 90  1  0  0  0
  4  5  1  0  0  0
  4 91  1  0  0  0
  4 92  1  0  0  0
  5  6  1  0  0  0
  5 26  1  0  0  0
  5 93  1  0  0  0
  6 25  1  0  0  0
  6 94  1  0  0  0
  6 95  1  0  0  0
  7  8  2  0  0  0
  7 26  1  0  0  0
  7 29  1  0  0  0
  8  9  1  0  0  0
  8 22  1  0  0  0
  9 10  1  0  0  0
  9 27  2  0  0  0
 10 11  2  0  0  0
 10 15  1  0  0  0
 11 12  1  0  0  0
 11 96  1  0  0  0
 12 13  2  0  0  0
 12 97  1  0  0  0
 13 14  1  0  0  0
 13 31  1  0  0  0
 14 15  2  0  0  0
 14 98  1  0  0  0
 15 99  1  0  0  0
 16 17  2  0  0  0
 16 21  1  0  0  0
 16 31  1  0  0  0
 17 18  1  0  0  0
 17100  1  0  0  0
 18 19  2  0  0  0
 18101  1  0  0  0
 19 20  1  0  0  0
 19 24  1  0  0  0
 20 21  2  0  0  0
 20102  1  0  0  0
 21 23  1  0  0  0
 22 28  1  0  0  0
 22 32  2  0  0  0
 26 27  1  0  0  0
 28103  1  0  0  0
 28104  1  0  0  0
 29105  1  0  0  0
 29106  1  0  0  0
 33 34  1  0  0  0
 33 66  1  0  0  0
 33 70  2  0  0  0
 34 36  1  0  0  0
 34 59  1  0  0  0
 34107  1  0  0  0
 35 44  2  0  0  0
 35 45  1  0  0  0
 35 68  1  0  0  0
 36 56  1  0  0  0
 36108  1  0  0  0
 37 39  1  0  0  0
 37 47  1  0  0  0
 37 66  1  0  0  0
 37109  1  0  0  0
 38 43  2  0  0  0
 38 46  1  0  0  0
 38 47  1  0  0  0
 39 64  1  0  0  0
 39 67  2  0  0  0
 40 52  1  0  0  0
 40 53  2  0  0  0
 40 58  1  0  0  0
 41110  1  0  0  0
 41111  1  0  0  0
 41112  1  0  0  0
 41 48  1  0  0  0
 42 43  1  0  0  0
 42 66  1  0  0  0
 42113  1  0  0  0
 42114  1  0  0  0
 43 44  1  0  0  0
 44115  1  0  0  0
 45 46  2  0  0  0
 45116  1  0  0  0
 46117  1  0  0  0
 47118  1  0  0  0
 47119  1  0  0  0
 48 56  1  0  0  0
 48 65  1  0  0  0
 48120  1  0  0  0
 49 50  1  0  0  0
 49 53  1  0  0  0
 49 64  1  0  0  0
 49121  1  0  0  0
 50 51  1  0  0  0
 50122  1  0  0  0
 50123  1  0  0  0
 51 52  1  0  0  0
 51124  1  0  0  0
 51125  1  0  0  0
 52126  1  0  0  0
 52127  1  0  0  0
 53 54  1  0  0  0
 54 55  2  0  0  0
 54128  1  0  0  0
 55 57  1  0  0  0
 55129  1  0  0  0
 56 69  2  0  0  0
 57 58  2  0  0  0
 57130  1  0  0  0
 58131  1  0  0  0
 59 60  1  0  0  0
 59 61  1  0  0  0
 59 62  1  0  0  0
 60132  1  0  0  0
 60133  1  0  0  0
 60134  1  0  0  0
 61135  1  0  0  0
 61136  1  0  0  0
 61137  1  0  0  0
 62138  1  0  0  0
 62139  1  0  0  0
 62140  1  0  0  0
 63 65  1  0  0  0
 63141  1  0  0  0
 63142  1  0  0  0
 63143  1  0  0  0
 64144  1  0  0  0
 65145  1  0  0  0
 68 84  1  0  0  0
 71 74  2  0  0  0
 71 75  1  0  0  0
 71146  1  0  0  0
 72 74  1  0  0  0
 72 76  2  0  0  0
 72147  1  0  0  0
 73 75  2  0  0  0
 73 76  1  0  0  0
 73148  1  0  0  0
 74 77  1  0  0  0
 75 80  1  0  0  0
 76 81  1  0  0  0
 77149  1  0  0  0
 77150  1  0  0  0
 77151  1  0  0  0
 78 82  1  0  0  0
 78152  1  0  0  0
 78153  1  0  0  0
 78154  1  0  0  0
 79155  1  0  0  0
 79156  1  0  0  0
 79157  1  0  0  0
 79 85  1  0  0  0
 80 83  1  0  0  0
 80158  1  0  0  0
 80159  1  0  0  0
 81 86  1  0  0  0
 81160  1  0  0  0
 81161  1  0  0  0
 82 85  1  0  0  0
 82162  1  0  0  0
 82163  1  0  0  0
 83 85  1  0  0  0
 83164  1  0  0  0
 83165  1  0  0  0
 84 85  1  0  0  0
 84166  1  0  0  0
 84167  1  0  0  0
 86168  1  0  0  0
M  ISO  4   1 100  68 101  84 101  86 100
M  END
> <chiral flag>
0

> <version>
0

> <s_m_source_file>
/data/baiqing/PycharmProjects/Reinvent-master-3.2/result/LINK_invent/BTK/process_docking_weight1_custom_product_contain_oxygen_bond_distance_aromatic_linkinvent_7_9_3/rearranged_h_0134.sdf

> <i_m_source_file_index>
87

> <r_mmod_Potential_Energy-OPLS-2005>
9.40901947021484

> <r_mmod_Stretch_Energy-OPLS-2005>
55.069995880127

> <r_mmod_Bend_Energy-OPLS-2005>
136.393859863281

> <r_mmod_Torsional_Energy-OPLS-2005>
243.798736572266

> <r_mmod_Improper_Torsional_Energy-OPLS-2005>
4.59562063217163

> <r_mmod_Van_der_Waal_Energy-OPLS-2005>
155.567718505859

> <r_mmod_Electrostatic_Energy-OPLS-2005>
-423.371398925781

> <r_mmod_Solvation_Energy-OPLS-2005>
-191.530395507812

> <b_mmod_Minimization_Converged-OPLS-2005>
0

> <r_mmod_RMS_Derivative-OPLS-2005>
11.5602350234985

$$$$
87
                    3D
 Structure written by MMmdl.
167176  0  0  1  0            999 V2000
  -30.6504  -14.4966   20.4954 C   0  0  0  0  0  0
  -30.4364  -12.2923   19.4363 C   0  0  0  0  0  0
  -29.5119  -12.4745   18.2123 C   0  0  0  0  0  0
  -28.0287  -12.3414   18.6233 C   0  0  0  0  0  0
  -27.6639  -13.1936   19.8688 C   0  0  2  0  0  0
  -28.7034  -12.9870   20.9969 C   0  0  0  0  0  0
  -25.2651  -13.8161   20.5678 C   0  0  0  0  0  0
  -24.1869  -13.0440   20.9178 C   0  0  0  0  0  0
  -24.6406  -11.6911   20.8723 C   0  0  0  0  0  0
  -23.9069  -10.4291   21.0407 C   0  0  0  0  0  0
  -24.3627   -9.4197   21.9176 C   0  0  0  0  0  0
  -23.6299   -8.2230   22.0743 C   0  0  0  0  0  0
  -22.4263   -8.0279   21.3551 C   0  0  0  0  0  0
  -21.9916   -9.0254   20.4639 C   0  0  0  0  0  0
  -22.7251  -10.2127   20.3058 C   0  0  0  0  0  0
  -21.6865   -6.0723   22.5277 C   0  0  0  0  0  0
  -21.4004   -6.5629   23.8200 C   0  0  0  0  0  0
  -21.3666   -5.6779   24.9166 C   0  0  0  0  0  0
  -21.6060   -4.3048   24.7212 C   0  0  0  0  0  0
  -21.8820   -3.8136   23.4337 C   0  0  0  0  0  0
  -21.9198   -4.6956   22.3391 C   0  0  0  0  0  0
  -22.7900  -13.5244   21.1846 C   0  0  0  0  0  0
  -22.1664   -4.2150   21.0969 F   0  0  0  0  0  0
  -21.5652   -3.4531   25.7719 F   0  0  0  0  0  0
  -30.0355  -13.2852   20.4460 N   0  0  0  0  0  0
  -26.3047  -12.9277   20.3320 N   0  0  0  0  0  0
  -25.9320  -11.6457   20.5727 N   0  0  0  0  0  0
  -22.0517  -12.8223   22.0406 N   0  0  0  0  0  0
  -25.4378  -15.1865   20.4055 N   0  0  0  0  0  0
  -31.7943  -14.6947   20.0767 O   0  0  0  0  0  0
  -21.6644   -6.8866   21.4235 O   0  0  0  0  0  0
  -22.3580  -14.5557   20.6708 O   0  0  0  0  0  0
  -24.6206  -31.8676   23.2038 C   0  0  0  0  0  0
  -25.9058  -32.4831   23.8395 C   0  0  1  0  0  0
  -27.2363  -27.3876   20.1379 C   0  0  0  0  0  0
  -25.5894  -33.8622   24.2348 N   0  0  0  0  0  0
  -23.4110  -30.4917   21.5424 C   0  0  2  0  0  0
  -24.8577  -28.9362   20.1248 C   0  0  0  0  0  0
  -22.7439  -29.4700   22.4939 C   0  0  0  0  0  0
  -18.0291  -28.1388   22.8470 C   0  0  0  0  0  0
  -24.1485  -36.7293   23.2647 C   0  0  0  0  0  0
  -25.9452  -30.8148   21.3669 C   0  0  0  0  0  0
  -26.0209  -29.4441   20.7202 C   0  0  0  0  0  0
  -27.2125  -28.6783   20.7195 C   0  0  0  0  0  0
  -26.0561  -26.8992   19.5360 C   0  0  0  0  0  0
  -24.8689  -27.6602   19.5348 C   0  0  0  0  0  0
  -23.6245  -29.8166   20.1618 C   0  0  0  0  0  0
  -25.4108  -36.3141   24.0370 C   0  0  1  0  0  0
  -20.5882  -28.3712   23.1249 C   0  0  2  0  0  0
  -20.6770  -26.9427   22.5406 C   0  0  0  0  0  0
  -19.5751  -26.6388   21.5205 C   0  0  0  0  0  0
  -18.1934  -26.7931   22.1614 C   0  0  0  0  0  0
  -19.1537  -28.8863   23.2866 C   0  0  0  0  0  0
  -18.9487  -30.1455   23.8913 C   0  0  0  0  0  0
  -17.6489  -30.6594   24.0571 C   0  0  0  0  0  0
  -25.9031  -34.9499   23.5169 C   0  0  0  0  0  0
  -16.5374  -29.9105   23.6313 C   0  0  0  0  0  0
  -16.7282  -28.6513   23.0340 C   0  0  0  0  0  0
  -26.4465  -31.6598   25.0730 C   0  0  0  0  0  0
  -25.3711  -31.3683   26.1467 C   0  0  0  0  0  0
  -27.0320  -30.3047   24.6122 C   0  0  0  0  0  0
  -27.6073  -32.4295   25.7460 C   0  0  0  0  0  0
  -27.5592  -37.1815   24.8482 C   0  0  0  0  0  0
  -21.4170  -29.3085   22.3649 N   0  0  0  0  0  0
  -26.4313  -37.3807   23.9422 N   0  0  0  0  0  0
  -24.6775  -31.0751   22.0949 N   0  0  0  0  0  0
  -23.4178  -28.8264   23.3019 O   0  0  0  0  0  0
  -28.3846  -26.6116   20.1482 O   0  0  0  0  0  0
  -26.5606  -34.8962   22.4735 O   0  0  0  0  0  0
  -23.5391  -32.1429   23.7421 O   0  0  0  0  0  0
  -30.8928  -20.3935   22.3036 C   0  0  0  0  0  0
  -30.0335  -19.3482   20.2855 C   0  0  0  0  0  0
  -30.6734  -17.9620   22.1936 C   0  0  0  0  0  0
  -30.3861  -20.5310   20.9900 C   0  0  0  0  0  0
  -31.0427  -19.1240   22.8993 C   0  0  0  0  0  0
  -30.1808  -18.0630   20.8742 C   0  0  0  0  0  0
  -29.1897  -24.1923   20.2737 C   0  0  0  0  0  0
  -29.2655  -22.9494   20.8321 C   0  0  0  0  0  0
  -30.0785  -24.5741   19.0892 C   0  0  0  0  0  0
  -30.7081  -23.3929   18.3011 C   0  0  0  0  0  0
  -30.3866  -21.9770   18.8251 C   0  0  0  0  0  0
  -30.3321  -21.9455   20.3585 C   0  0  2  0  0  0
  -31.6410  -18.9918   24.2874 C   0  0  0  0  0  0
  -28.3607  -22.4762   21.9636 C   0  0  0  0  0  0
  -29.8138  -16.8129   20.0668 C   0  0  0  0  0  0
  -28.2644  -25.3157   20.8004 C   0  0  0  0  0  0
  -29.8128  -15.5139   20.7609 N   0  0  0  0  0  0
  -31.4821  -12.3941   19.1428 H   0  0  0  0  0  0
  -30.3388  -11.2827   19.8413 H   0  0  0  0  0  0
  -29.7469  -11.7279   17.4529 H   0  0  0  0  0  0
  -29.6922  -13.4456   17.7499 H   0  0  0  0  0  0
  -27.8522  -11.2882   18.8414 H   0  0  0  0  0  0
  -27.3760  -12.5910   17.7873 H   0  0  0  0  0  0
  -27.6957  -14.2328   19.5470 H   0  0  0  0  0  0
  -28.6778  -11.9536   21.3507 H   0  0  0  0  0  0
  -28.4741  -13.6029   21.8677 H   0  0  0  0  0  0
  -25.2768   -9.5691   22.4746 H   0  0  0  0  0  0
  -24.0027   -7.4626   22.7463 H   0  0  0  0  0  0
  -21.0844   -8.8766   19.8948 H   0  0  0  0  0  0
  -22.3705  -10.9661   19.6172 H   0  0  0  0  0  0
  -21.1965   -7.6120   23.9713 H   0  0  0  0  0  0
  -21.1509   -6.0493   25.9076 H   0  0  0  0  0  0
  -22.0598   -2.7603   23.2818 H   0  0  0  0  0  0
  -22.4104  -11.9878   22.4796 H   0  0  0  0  0  0
  -21.1138  -13.1283   22.2592 H   0  0  0  0  0  0
  -24.6718  -15.8420   20.5160 H   0  0  0  0  0  0
  -26.2822  -15.6241   20.0620 H   0  0  0  0  0  0
  -26.7131  -32.5537   23.1165 H   0  0  0  0  0  0
  -25.0112  -33.9741   25.0549 H   0  0  0  0  0  0
  -22.7036  -31.3117   21.3974 H   0  0  0  0  0  0
  -23.3784  -35.9583   23.3348 H   0  0  0  0  0  0
  -24.3610  -36.8849   22.2055 H   0  0  0  0  0  0
  -23.7172  -37.6493   23.6609 H   0  0  0  0  0  0
  -26.0757  -31.5745   20.5952 H   0  0  0  0  0  0
  -26.8246  -30.8611   21.9981 H   0  0  0  0  0  0
  -28.1106  -29.0583   21.1877 H   0  0  0  0  0  0
  -26.0523  -25.9187   19.0831 H   0  0  0  0  0  0
  -23.9728  -27.2506   19.0893 H   0  0  0  0  0  0
  -23.7475  -30.5884   19.4009 H   0  0  0  0  0  0
  -22.7449  -29.2464   19.8601 H   0  0  0  0  0  0
  -25.1276  -36.2050   25.0860 H   0  0  0  0  0  0
  -20.9990  -28.3326   24.1361 H   0  0  0  0  0  0
  -20.5637  -26.2367   23.3640 H   0  0  0  0  0  0
  -21.6652  -26.7434   22.1236 H   0  0  0  0  0  0
  -19.6923  -25.6299   21.1253 H   0  0  0  0  0  0
  -19.6682  -27.3185   20.6717 H   0  0  0  0  0  0
  -17.4200  -26.6673   21.4020 H   0  0  0  0  0  0
  -18.0335  -26.0069   22.9003 H   0  0  0  0  0  0
  -19.7980  -30.7244   24.2303 H   0  0  0  0  0  0
  -17.5064  -31.6273   24.5195 H   0  0  0  0  0  0
  -15.5378  -30.3040   23.7618 H   0  0  0  0  0  0
  -15.8675  -28.0856   22.7038 H   0  0  0  0  0  0
  -24.5932  -30.6965   25.7809 H   0  0  0  0  0  0
  -24.8830  -32.2808   26.4894 H   0  0  0  0  0  0
  -25.8059  -30.8901   27.0250 H   0  0  0  0  0  0
  -26.2879  -29.6780   24.1184 H   0  0  0  0  0  0
  -27.4115  -29.7307   25.4588 H   0  0  0  0  0  0
  -27.8701  -30.4412   23.9282 H   0  0  0  0  0  0
  -27.2756  -33.3625   26.2022 H   0  0  0  0  0  0
  -28.3854  -32.6776   25.0228 H   0  0  0  0  0  0
  -28.0743  -31.8403   26.5360 H   0  0  0  0  0  0
  -28.2657  -38.0075   24.7551 H   0  0  0  0  0  0
  -28.1060  -36.2633   24.6309 H   0  0  0  0  0  0
  -27.2336  -37.1445   25.8891 H   0  0  0  0  0  0
  -20.9351  -29.8862   21.6912 H   0  0  0  0  0  0
  -26.0250  -38.2911   24.1388 H   0  0  0  0  0  0
  -31.1845  -21.2763   22.8574 H   0  0  0  0  0  0
  -29.6608  -19.4203   19.2712 H   0  0  0  0  0  0
  -30.7863  -16.9952   22.6654 H   0  0  0  0  0  0
  -30.8737  -25.2276   19.4542 H   0  0  0  0  0  0
  -29.4954  -25.1776   18.3938 H   0  0  0  0  0  0
  -31.7902  -23.5265   18.2985 H   0  0  0  0  0  0
  -30.4130  -23.4632   17.2522 H   0  0  0  0  0  0
  -31.1461  -21.2874   18.4568 H   0  0  0  0  0  0
  -29.4381  -21.6343   18.4110 H   0  0  0  0  0  0
  -31.2683  -22.3926   20.7010 H   0  0  0  0  0  0
  -32.7190  -19.1532   24.2469 H   0  0  0  0  0  0
  -31.4848  -17.9878   24.6838 H   0  0  0  0  0  0
  -31.2161  -19.7107   24.9912 H   0  0  0  0  0  0
  -28.8764  -22.4711   22.9256 H   0  0  0  0  0  0
  -27.4628  -23.0820   22.0503 H   0  0  0  0  0  0
  -28.0095  -21.4641   21.7597 H   0  0  0  0  0  0
  -30.4471  -16.7605   19.1768 H   0  0  0  0  0  0
  -28.7967  -16.9562   19.6996 H   0  0  0  0  0  0
  -28.5097  -25.4587   21.8532 H   0  0  0  0  0  0
  -27.2422  -24.9394   20.7862 H   0  0  0  0  0  0
  -28.9142  -15.2264   21.1181 H   0  0  0  0  0  0
  1 25  1  0  0  0
  1 30  2  0  0  0
  1 87  1  0  0  0
  2  3  1  0  0  0
  2 25  1  0  0  0
  2 88  1  0  0  0
  2 89  1  0  0  0
  3  4  1  0  0  0
  3 90  1  0  0  0
  3 91  1  0  0  0
  4  5  1  0  0  0
  4 92  1  0  0  0
  4 93  1  0  0  0
  5  6  1  0  0  0
  5 26  1  0  0  0
  5 94  1  0  0  0
  6 25  1  0  0  0
  6 95  1  0  0  0
  6 96  1  0  0  0
  7  8  2  0  0  0
  7 26  1  0  0  0
  7 29  1  0  0  0
  8  9  1  0  0  0
  8 22  1  0  0  0
  9 10  1  0  0  0
  9 27  2  0  0  0
 10 11  2  0  0  0
 10 15  1  0  0  0
 11 12  1  0  0  0
 11 97  1  0  0  0
 12 13  2  0  0  0
 12 98  1  0  0  0
 13 14  1  0  0  0
 13 31  1  0  0  0
 14 15  2  0  0  0
 14 99  1  0  0  0
 15100  1  0  0  0
 16 17  2  0  0  0
 16 21  1  0  0  0
 16 31  1  0  0  0
 17 18  1  0  0  0
 17101  1  0  0  0
 18 19  2  0  0  0
 18102  1  0  0  0
 19 20  1  0  0  0
 19 24  1  0  0  0
 20 21  2  0  0  0
 20103  1  0  0  0
 21 23  1  0  0  0
 22 28  1  0  0  0
 22 32  2  0  0  0
 26 27  1  0  0  0
 28104  1  0  0  0
 28105  1  0  0  0
 29106  1  0  0  0
 29107  1  0  0  0
 33 34  1  0  0  0
 33 66  1  0  0  0
 33 70  2  0  0  0
 34 36  1  0  0  0
 34 59  1  0  0  0
 34108  1  0  0  0
 35 44  2  0  0  0
 35 45  1  0  0  0
 35 68  1  0  0  0
 36 56  1  0  0  0
 36109  1  0  0  0
 37 39  1  0  0  0
 37 47  1  0  0  0
 37 66  1  0  0  0
 37110  1  0  0  0
 38 43  2  0  0  0
 38 46  1  0  0  0
 38 47  1  0  0  0
 39 64  1  0  0  0
 39 67  2  0  0  0
 40 52  1  0  0  0
 40 53  2  0  0  0
 40 58  1  0  0  0
 41111  1  0  0  0
 41112  1  0  0  0
 41113  1  0  0  0
 41 48  1  0  0  0
 42 43  1  0  0  0
 42 66  1  0  0  0
 42114  1  0  0  0
 42115  1  0  0  0
 43 44  1  0  0  0
 44116  1  0  0  0
 45 46  2  0  0  0
 45117  1  0  0  0
 46118  1  0  0  0
 47119  1  0  0  0
 47120  1  0  0  0
 48 56  1  0  0  0
 48 65  1  0  0  0
 48121  1  0  0  0
 49 50  1  0  0  0
 49 53  1  0  0  0
 49 64  1  0  0  0
 49122  1  0  0  0
 50 51  1  0  0  0
 50123  1  0  0  0
 50124  1  0  0  0
 51 52  1  0  0  0
 51125  1  0  0  0
 51126  1  0  0  0
 52127  1  0  0  0
 52128  1  0  0  0
 53 54  1  0  0  0
 54 55  2  0  0  0
 54129  1  0  0  0
 55 57  1  0  0  0
 55130  1  0  0  0
 56 69  2  0  0  0
 57 58  2  0  0  0
 57131  1  0  0  0
 58132  1  0  0  0
 59 60  1  0  0  0
 59 61  1  0  0  0
 59 62  1  0  0  0
 60133  1  0  0  0
 60134  1  0  0  0
 60135  1  0  0  0
 61136  1  0  0  0
 61137  1  0  0  0
 61138  1  0  0  0
 62139  1  0  0  0
 62140  1  0  0  0
 62141  1  0  0  0
 63 65  1  0  0  0
 63142  1  0  0  0
 63143  1  0  0  0
 63144  1  0  0  0
 64145  1  0  0  0
 65146  1  0  0  0
 68 86  1  0  0  0
 71 74  2  0  0  0
 71 75  1  0  0  0
 71147  1  0  0  0
 72 74  1  0  0  0
 72 76  2  0  0  0
 72148  1  0  0  0
 73 75  2  0  0  0
 73 76  1  0  0  0
 73149  1  0  0  0
 74 82  1  0  0  0
 75 83  1  0  0  0
 76 85  1  0  0  0
 77 78  2  0  0  0
 77 79  1  0  0  0
 77 86  1  0  0  0
 78 82  1  0  0  0
 78 84  1  0  0  0
 79 80  1  0  0  0
 79150  1  0  0  0
 79151  1  0  0  0
 80 81  1  0  0  0
 80152  1  0  0  0
 80153  1  0  0  0
 81 82  1  0  0  0
 81154  1  0  0  0
 81155  1  0  0  0
 82156  1  0  0  0
 83157  1  0  0  0
 83158  1  0  0  0
 83159  1  0  0  0
 84160  1  0  0  0
 84161  1  0  0  0
 84162  1  0  0  0
 85 87  1  0  0  0
 85163  1  0  0  0
 85164  1  0  0  0
 86165  1  0  0  0
 86166  1  0  0  0
 87167  1  0  0  0
M  ISO  4   1 100  68 101  86 101  87 100
M  END
> <chiral flag>
0

> <version>
0

> <s_m_source_file>
/data/baiqing/PycharmProjects/Reinvent-master-3.2/result/LINK_invent/BTK/process_docking_weight1_custom_product_contain_oxygen_bond_distance_aromatic_linkinvent_7_9_3/rearranged_h_0134.sdf

> <i_m_source_file_index>
88

> <r_mmod_Potential_Energy-OPLS-2005>
6.5762357711792

> <r_mmod_Stretch_Energy-OPLS-2005>
46.830623626709

> <r_mmod_Bend_Energy-OPLS-2005>
110.81371307373

> <r_mmod_Torsional_Energy-OPLS-2005>
258.58837890625

> <r_mmod_Improper_Torsional_Energy-OPLS-2005>
9.52800941467285

> <r_mmod_Van_der_Waal_Energy-OPLS-2005>
160.918426513672

> <r_mmod_Electrostatic_Energy-OPLS-2005>
-401.174041748047

> <r_mmod_Solvation_Energy-OPLS-2005>
-200.273895263672

> <b_mmod_Minimization_Converged-OPLS-2005>
0

> <r_mmod_RMS_Derivative-OPLS-2005>
4.74002695083618

$$$$
88
                    3D
 Structure written by MMmdl.
164173  0  0  1  0            999 V2000
  -30.6687  -14.6489   20.4147 C   0  0  0  0  0  0
  -30.4628  -12.4270   19.4324 C   0  0  0  0  0  0
  -29.5349  -12.5729   18.2120 C   0  0  0  0  0  0
  -28.0626  -12.4089   18.6284 C   0  0  0  0  0  0
  -27.6508  -13.2559   19.8696 C   0  0  2  0  0  0
  -28.7015  -13.1437   20.9945 C   0  0  0  0  0  0
  -25.2412  -13.8253   20.5485 C   0  0  0  0  0  0
  -24.1704  -13.0398   20.8913 C   0  0  0  0  0  0
  -24.6525  -11.6876   20.8654 C   0  0  0  0  0  0
  -23.9269  -10.4260   21.0313 C   0  0  0  0  0  0
  -24.3724   -9.4122   21.9140 C   0  0  0  0  0  0
  -23.6281   -8.2243   22.0762 C   0  0  0  0  0  0
  -22.4272   -8.0335   21.3612 C   0  0  0  0  0  0
  -21.9994   -9.0250   20.4731 C   0  0  0  0  0  0
  -22.7401  -10.2080   20.3039 C   0  0  0  0  0  0
  -21.6836   -6.0651   22.5250 C   0  0  0  0  0  0
  -21.3983   -6.5586   23.8191 C   0  0  0  0  0  0
  -21.3686   -5.6757   24.9211 C   0  0  0  0  0  0
  -21.6044   -4.3006   24.7235 C   0  0  0  0  0  0
  -21.8828   -3.8086   23.4414 C   0  0  0  0  0  0
  -21.9186   -4.6888   22.3442 C   0  0  0  0  0  0
  -22.7770  -13.5141   21.1798 C   0  0  0  0  0  0
  -22.1636   -4.2077   21.1007 F   0  0  0  0  0  0
  -21.5702   -3.4511   25.7774 F   0  0  0  0  0  0
  -30.0452  -13.4219   20.4235 N   0  0  0  0  0  0
  -26.3025  -12.9520   20.3334 N   0  0  0  0  0  0
  -25.9484  -11.6679   20.5647 N   0  0  0  0  0  0
  -22.0500  -12.8061   22.0491 N   0  0  0  0  0  0
  -25.3757  -15.2008   20.4111 N   0  0  0  0  0  0
  -31.8592  -14.7421   20.0930 O   0  0  0  0  0  0
  -21.6694   -6.8833   21.4228 O   0  0  0  0  0  0
  -22.3395  -14.5363   20.6707 O   0  0  0  0  0  0
  -24.6379  -31.8444   23.1900 C   0  0  0  0  0  0
  -25.9199  -32.4702   23.8262 C   0  0  1  0  0  0
  -27.2196  -27.2092   20.0560 C   0  0  0  0  0  0
  -25.5973  -33.8526   24.2186 N   0  0  0  0  0  0
  -23.4336  -30.4617   21.5390 C   0  0  2  0  0  0
  -24.8778  -28.9077   20.0900 C   0  0  0  0  0  0
  -22.7474  -29.4506   22.4865 C   0  0  0  0  0  0
  -18.0299  -28.1398   22.8504 C   0  0  0  0  0  0
  -24.1532  -36.7299   23.2628 C   0  0  0  0  0  0
  -25.9797  -30.7267   21.3815 C   0  0  0  0  0  0
  -26.0528  -29.3477   20.7114 C   0  0  0  0  0  0
  -27.2243  -28.5106   20.6852 C   0  0  0  0  0  0
  -26.0110  -26.8274   19.4338 C   0  0  0  0  0  0
  -24.8735  -27.6587   19.4405 C   0  0  0  0  0  0
  -23.6489  -29.8055   20.1508 C   0  0  0  0  0  0
  -25.4142  -36.3027   24.0291 C   0  0  1  0  0  0
  -20.5894  -28.3693   23.1270 C   0  0  2  0  0  0
  -20.6781  -26.9422   22.5393 C   0  0  0  0  0  0
  -19.5739  -26.6396   21.5200 C   0  0  0  0  0  0
  -18.1930  -26.7940   22.1644 C   0  0  0  0  0  0
  -19.1562  -28.8844   23.2895 C   0  0  0  0  0  0
  -18.9467  -30.1439   23.8903 C   0  0  0  0  0  0
  -17.6463  -30.6584   24.0557 C   0  0  0  0  0  0
  -25.9071  -34.9415   23.5036 C   0  0  0  0  0  0
  -16.5348  -29.9073   23.6348 C   0  0  0  0  0  0
  -16.7274  -28.6506   23.0344 C   0  0  0  0  0  0
  -26.4559  -31.6546   25.0674 C   0  0  0  0  0  0
  -25.3776  -31.3725   26.1384 C   0  0  0  0  0  0
  -27.0400  -30.2952   24.6187 C   0  0  0  0  0  0
  -27.6085  -32.4277   25.7480 C   0  0  0  0  0  0
  -27.5586  -37.1799   24.8448 C   0  0  0  0  0  0
  -21.4163  -29.3048   22.3661 N   0  0  0  0  0  0
  -26.4291  -37.3731   23.9408 N   0  0  0  0  0  0
  -24.7037  -31.0274   22.0965 N   0  0  0  0  0  0
  -23.4143  -28.8066   23.2998 O   0  0  0  0  0  0
  -28.3541  -26.3436   20.0409 O   0  0  0  0  0  0
  -26.5622  -34.8895   22.4602 O   0  0  0  0  0  0
  -23.5526  -32.1337   23.7130 O   0  0  0  0  0  0
  -27.2187  -19.0801   18.9919 C   0  0  0  0  0  0
  -28.2617  -18.1553   18.9919 C   0  0  0  0  0  0
  -29.7684  -19.9161   19.7974 C   0  0  0  0  0  0
  -27.4410  -20.2925   19.6416 C   0  0  0  0  0  0
  -28.6841  -20.8903   19.8825 C   0  0  0  0  0  0
  -29.5139  -18.5142   19.5238 C   0  0  0  0  0  0
  -26.5557  -20.5156   20.8008 C   0  0  0  0  0  0
  -27.1880  -21.6302   21.5943 C   0  0  0  0  0  0
  -28.5587  -22.0942   20.9303 C   0  0  1  0  0  0
  -29.4974  -22.0967   23.4164 C   0  0  0  0  0  0
  -30.4644  -17.2987   19.8001 C   0  0  0  0  0  0
  -29.8758  -16.0110   20.5903 C   0  0  0  0  0  0
  -29.7795  -22.0053   21.9184 C   0  0  0  0  0  0
  -28.3663  -23.7538   20.7488 C   0  0  0  0  0  0
  -28.3946  -24.8754   19.5962 C   0  0  0  0  0  0
  -31.4904  -12.5778   19.0746 H   0  0  0  0  0  0
  -30.4379  -11.4126   19.8535 H   0  0  0  0  0  0
  -29.8045  -11.8592   17.4490 H   0  0  0  0  0  0
  -29.6472  -13.5639   17.7549 H   0  0  0  0  0  0
  -27.9203  -11.3408   18.8426 H   0  0  0  0  0  0
  -27.4053  -12.6278   17.7980 H   0  0  0  0  0  0
  -27.6036  -14.2830   19.5383 H   0  0  0  0  0  0
  -28.6418  -12.1854   21.5144 H   0  0  0  0  0  0
  -28.4694  -13.8864   21.7401 H   0  0  0  0  0  0
  -25.2867   -9.5558   22.4694 H   0  0  0  0  0  0
  -23.9893   -7.4704   22.7610 H   0  0  0  0  0  0
  -21.0874   -8.9023   19.9035 H   0  0  0  0  0  0
  -22.4016  -10.9641   19.6179 H   0  0  0  0  0  0
  -21.1922   -7.6076   23.9662 H   0  0  0  0  0  0
  -21.1514   -6.0518   25.9103 H   0  0  0  0  0  0
  -22.0557   -2.7521   23.2969 H   0  0  0  0  0  0
  -22.4088  -11.9709   22.4900 H   0  0  0  0  0  0
  -21.1092  -13.1029   22.2788 H   0  0  0  0  0  0
  -24.5742  -15.8023   20.6001 H   0  0  0  0  0  0
  -26.2298  -15.7085   20.2306 H   0  0  0  0  0  0
  -26.7245  -32.5318   23.0960 H   0  0  0  0  0  0
  -25.0186  -33.9696   25.0372 H   0  0  0  0  0  0
  -22.7376  -31.2951   21.3998 H   0  0  0  0  0  0
  -23.3767  -35.9660   23.3226 H   0  0  0  0  0  0
  -24.3626  -36.8991   22.2059 H   0  0  0  0  0  0
  -23.7331  -37.6494   23.6703 H   0  0  0  0  0  0
  -26.1128  -31.4911   20.6187 H   0  0  0  0  0  0
  -26.8575  -30.7730   22.0144 H   0  0  0  0  0  0
  -28.1316  -28.8239   21.1892 H   0  0  0  0  0  0
  -25.9174  -25.8752   18.9282 H   0  0  0  0  0  0
  -24.0038  -27.3024   18.9074 H   0  0  0  0  0  0
  -23.7618  -30.5958   19.4025 H   0  0  0  0  0  0
  -22.7558  -29.2538   19.8405 H   0  0  0  0  0  0
  -25.1342  -36.1845   25.0771 H   0  0  0  0  0  0
  -21.0020  -28.3284   24.1364 H   0  0  0  0  0  0
  -20.5692  -26.2303   23.3594 H   0  0  0  0  0  0
  -21.6657  -26.7461   22.1174 H   0  0  0  0  0  0
  -19.6914  -25.6300   21.1232 H   0  0  0  0  0  0
  -19.6676  -27.3212   20.6728 H   0  0  0  0  0  0
  -17.4201  -26.6670   21.4042 H   0  0  0  0  0  0
  -18.0348  -26.0057   22.9030 H   0  0  0  0  0  0
  -19.7919  -30.7275   24.2275 H   0  0  0  0  0  0
  -17.4997  -31.6272   24.5165 H   0  0  0  0  0  0
  -15.5347  -30.2978   23.7629 H   0  0  0  0  0  0
  -15.8677  -28.0812   22.7038 H   0  0  0  0  0  0
  -24.5938  -30.7077   25.7713 H   0  0  0  0  0  0
  -24.9004  -32.2919   26.4791 H   0  0  0  0  0  0
  -25.8100  -30.8909   27.0171 H   0  0  0  0  0  0
  -26.2991  -29.6678   24.1202 H   0  0  0  0  0  0
  -27.4047  -29.7215   25.4721 H   0  0  0  0  0  0
  -27.8892  -30.4182   23.9454 H   0  0  0  0  0  0
  -27.2671  -33.3561   26.2074 H   0  0  0  0  0  0
  -28.3936  -32.6856   25.0353 H   0  0  0  0  0  0
  -28.0720  -31.8390   26.5406 H   0  0  0  0  0  0
  -28.2557  -38.0130   24.7493 H   0  0  0  0  0  0
  -28.1119  -36.2659   24.6269 H   0  0  0  0  0  0
  -27.2295  -37.1431   25.8837 H   0  0  0  0  0  0
  -20.9300  -29.8841   21.6962 H   0  0  0  0  0  0
  -26.0153  -38.2797   24.1392 H   0  0  0  0  0  0
  -26.2017  -18.7427   18.7745 H   0  0  0  0  0  0
  -28.0571  -17.1553   18.6643 H   0  0  0  0  0  0
  -30.7552  -20.2085   20.0950 H   0  0  0  0  0  0
  -26.6390  -19.6311   21.4365 H   0  0  0  0  0  0
  -25.5082  -20.6298   20.5494 H   0  0  0  0  0  0
  -26.3836  -22.3617   21.6237 H   0  0  0  0  0  0
  -27.2768  -21.2237   22.6056 H   0  0  0  0  0  0
  -30.4497  -22.1448   23.9486 H   0  0  0  0  0  0
  -29.0058  -21.2058   23.8007 H   0  0  0  0  0  0
  -28.9058  -22.9843   23.6642 H   0  0  0  0  0  0
  -31.3836  -17.6277   20.2857 H   0  0  0  0  0  0
  -30.8117  -16.9797   18.8165 H   0  0  0  0  0  0
  -28.8788  -15.8381   20.1943 H   0  0  0  0  0  0
  -29.7424  -16.1659   21.6641 H   0  0  0  0  0  0
  -30.5090  -22.7799   21.6858 H   0  0  0  0  0  0
  -30.3909  -21.1194   21.8214 H   0  0  0  0  0  0
  -29.1754  -24.1952   21.3245 H   0  0  0  0  0  0
  -27.5340  -24.0408   21.3733 H   0  0  0  0  0  0
  -27.7427  -24.6779   18.7485 H   0  0  0  0  0  0
  -29.3896  -24.7072   19.1771 H   0  0  0  0  0  0
  1 25  1  0  0  0
  1 30  2  0  0  0
  1 82  1  0  0  0
  2  3  1  0  0  0
  2 25  1  0  0  0
  2 86  1  0  0  0
  2 87  1  0  0  0
  3  4  1  0  0  0
  3 88  1  0  0  0
  3 89  1  0  0  0
  4  5  1  0  0  0
  4 90  1  0  0  0
  4 91  1  0  0  0
  5  6  1  0  0  0
  5 26  1  0  0  0
  5 92  1  0  0  0
  6 25  1  0  0  0
  6 93  1  0  0  0
  6 94  1  0  0  0
  7  8  2  0  0  0
  7 26  1  0  0  0
  7 29  1  0  0  0
  8  9  1  0  0  0
  8 22  1  0  0  0
  9 10  1  0  0  0
  9 27  2  0  0  0
 10 11  2  0  0  0
 10 15  1  0  0  0
 11 12  1  0  0  0
 11 95  1  0  0  0
 12 13  2  0  0  0
 12 96  1  0  0  0
 13 14  1  0  0  0
 13 31  1  0  0  0
 14 15  2  0  0  0
 14 97  1  0  0  0
 15 98  1  0  0  0
 16 17  2  0  0  0
 16 21  1  0  0  0
 16 31  1  0  0  0
 17 18  1  0  0  0
 17 99  1  0  0  0
 18 19  2  0  0  0
 18100  1  0  0  0
 19 20  1  0  0  0
 19 24  1  0  0  0
 20 21  2  0  0  0
 20101  1  0  0  0
 21 23  1  0  0  0
 22 28  1  0  0  0
 22 32  2  0  0  0
 26 27  1  0  0  0
 28102  1  0  0  0
 28103  1  0  0  0
 29104  1  0  0  0
 29105  1  0  0  0
 33 34  1  0  0  0
 33 66  1  0  0  0
 33 70  2  0  0  0
 34 36  1  0  0  0
 34 59  1  0  0  0
 34106  1  0  0  0
 35 44  2  0  0  0
 35 45  1  0  0  0
 35 68  1  0  0  0
 36 56  1  0  0  0
 36107  1  0  0  0
 37 39  1  0  0  0
 37 47  1  0  0  0
 37 66  1  0  0  0
 37108  1  0  0  0
 38 43  2  0  0  0
 38 46  1  0  0  0
 38 47  1  0  0  0
 39 64  1  0  0  0
 39 67  2  0  0  0
 40 52  1  0  0  0
 40 53  2  0  0  0
 40 58  1  0  0  0
 41109  1  0  0  0
 41110  1  0  0  0
 41111  1  0  0  0
 41 48  1  0  0  0
 42 43  1  0  0  0
 42 66  1  0  0  0
 42112  1  0  0  0
 42113  1  0  0  0
 43 44  1  0  0  0
 44114  1  0  0  0
 45 46  2  0  0  0
 45115  1  0  0  0
 46116  1  0  0  0
 47117  1  0  0  0
 47118  1  0  0  0
 48 56  1  0  0  0
 48 65  1  0  0  0
 48119  1  0  0  0
 49 50  1  0  0  0
 49 53  1  0  0  0
 49 64  1  0  0  0
 49120  1  0  0  0
 50 51  1  0  0  0
 50121  1  0  0  0
 50122  1  0  0  0
 51 52  1  0  0  0
 51123  1  0  0  0
 51124  1  0  0  0
 52125  1  0  0  0
 52126  1  0  0  0
 53 54  1  0  0  0
 54 55  2  0  0  0
 54127  1  0  0  0
 55 57  1  0  0  0
 55128  1  0  0  0
 56 69  2  0  0  0
 57 58  2  0  0  0
 57129  1  0  0  0
 58130  1  0  0  0
 59 60  1  0  0  0
 59 61  1  0  0  0
 59 62  1  0  0  0
 60131  1  0  0  0
 60132  1  0  0  0
 60133  1  0  0  0
 61134  1  0  0  0
 61135  1  0  0  0
 61136  1  0  0  0
 62137  1  0  0  0
 62138  1  0  0  0
 62139  1  0  0  0
 63 65  1  0  0  0
 63140  1  0  0  0
 63141  1  0  0  0
 63142  1  0  0  0
 64143  1  0  0  0
 65144  1  0  0  0
 68 85  1  0  0  0
 71 72  2  0  0  0
 71 74  1  0  0  0
 71145  1  0  0  0
 72 76  1  0  0  0
 72146  1  0  0  0
 73 75  1  0  0  0
 73 76  2  0  0  0
 73147  1  0  0  0
 74 75  2  0  0  0
 74 77  1  0  0  0
 75 79  1  0  0  0
 76 81  1  0  0  0
 77 78  1  0  0  0
 77148  1  0  0  0
 77149  1  0  0  0
 78 79  1  0  0  0
 78150  1  0  0  0
 78151  1  0  0  0
 79 83  1  0  0  0
 79 84  1  0  0  0
 80 83  1  0  0  0
 80152  1  0  0  0
 80153  1  0  0  0
 80154  1  0  0  0
 81 82  1  0  0  0
 81155  1  0  0  0
 81156  1  0  0  0
 82157  1  0  0  0
 82158  1  0  0  0
 83159  1  0  0  0
 83160  1  0  0  0
 84 85  1  0  0  0
 84161  1  0  0  0
 84162  1  0  0  0
 85163  1  0  0  0
 85164  1  0  0  0
M  ISO  4   1 100  68 101  82 100  85 101
M  END
> <chiral flag>
0

> <version>
0

> <s_m_source_file>
/data/baiqing/PycharmProjects/Reinvent-master-3.2/result/LINK_invent/BTK/process_docking_weight1_custom_product_contain_oxygen_bond_distance_aromatic_linkinvent_7_9_3/rearranged_h_0134.sdf

> <i_m_source_file_index>
89

> <r_mmod_Potential_Energy-OPLS-2005>
587.2548828125

> <r_mmod_Stretch_Energy-OPLS-2005>
156.683395385742

> <r_mmod_Bend_Energy-OPLS-2005>
357.3896484375

> <r_mmod_Torsional_Energy-OPLS-2005>
340.679138183594

> <r_mmod_Improper_Torsional_Energy-OPLS-2005>
28.7014827728271

> <r_mmod_Van_der_Waal_Energy-OPLS-2005>
170.067535400391

> <r_mmod_Electrostatic_Energy-OPLS-2005>
-358.220947265625

> <r_mmod_Solvation_Energy-OPLS-2005>
-187.985473632812

> <b_mmod_Minimization_Converged-OPLS-2005>
0

> <r_mmod_RMS_Derivative-OPLS-2005>
23.6844177246094

$$$$
89
                    3D
 Structure written by MMmdl.
156164  0  0  1  0            999 V2000
  -30.6094  -14.7231   20.4061 C   0  0  0  0  0  0
  -30.4217  -12.4300   19.4624 C   0  0  0  0  0  0
  -29.5041  -12.5165   18.2225 C   0  0  0  0  0  0
  -28.0221  -12.3711   18.6210 C   0  0  0  0  0  0
  -27.6415  -13.2398   19.8491 C   0  0  2  0  0  0
  -28.6871  -13.1488   20.9822 C   0  0  0  0  0  0
  -25.2492  -13.8204   20.5696 C   0  0  0  0  0  0
  -24.1768  -13.0461   20.9202 C   0  0  0  0  0  0
  -24.6372  -11.6932   20.8705 C   0  0  0  0  0  0
  -23.9066  -10.4298   21.0386 C   0  0  0  0  0  0
  -24.3626   -9.4216   21.9162 C   0  0  0  0  0  0
  -23.6278   -8.2259   22.0750 C   0  0  0  0  0  0
  -22.4249   -8.0298   21.3562 C   0  0  0  0  0  0
  -21.9891   -9.0269   20.4673 C   0  0  0  0  0  0
  -22.7240  -10.2135   20.3064 C   0  0  0  0  0  0
  -21.6838   -6.0743   22.5270 C   0  0  0  0  0  0
  -21.4015   -6.5641   23.8219 C   0  0  0  0  0  0
  -21.3650   -5.6785   24.9173 C   0  0  0  0  0  0
  -21.6047   -4.3056   24.7216 C   0  0  0  0  0  0
  -21.8808   -3.8158   23.4328 C   0  0  0  0  0  0
  -21.9192   -4.6966   22.3391 C   0  0  0  0  0  0
  -22.7790  -13.5248   21.1849 C   0  0  0  0  0  0
  -22.1658   -4.2175   21.0967 F   0  0  0  0  0  0
  -21.5634   -3.4528   25.7714 F   0  0  0  0  0  0
  -29.9918  -13.4922   20.4021 N   0  0  0  0  0  0
  -26.2921  -12.9440   20.3266 N   0  0  0  0  0  0
  -25.9300  -11.6581   20.5651 N   0  0  0  0  0  0
  -22.0441  -12.8246   22.0431 N   0  0  0  0  0  0
  -25.4228  -15.1931   20.4195 N   0  0  0  0  0  0
  -31.7903  -14.8169   20.0619 O   0  0  0  0  0  0
  -21.6641   -6.8871   21.4239 O   0  0  0  0  0  0
  -22.3460  -14.5560   20.6710 O   0  0  0  0  0  0
  -24.6351  -31.8563   23.1931 C   0  0  0  0  0  0
  -25.9169  -32.4761   23.8283 C   0  0  1  0  0  0
  -27.2324  -27.2524   20.1226 C   0  0  0  0  0  0
  -25.5944  -33.8559   24.2231 N   0  0  0  0  0  0
  -23.4334  -30.4751   21.5378 C   0  0  2  0  0  0
  -24.8831  -28.9190   20.1093 C   0  0  0  0  0  0
  -22.7515  -29.4615   22.4900 C   0  0  0  0  0  0
  -18.0313  -28.1423   22.8494 C   0  0  0  0  0  0
  -24.1479  -36.7263   23.2630 C   0  0  0  0  0  0
  -25.9781  -30.7672   21.3712 C   0  0  0  0  0  0
  -26.0540  -29.3854   20.7173 C   0  0  0  0  0  0
  -27.2312  -28.5673   20.7095 C   0  0  0  0  0  0
  -26.0302  -26.8565   19.4917 C   0  0  0  0  0  0
  -24.8747  -27.6620   19.4889 C   0  0  0  0  0  0
  -23.6537  -29.8060   20.1554 C   0  0  0  0  0  0
  -25.4109  -36.3060   24.0314 C   0  0  1  0  0  0
  -20.5913  -28.3741   23.1285 C   0  0  2  0  0  0
  -20.6809  -26.9466   22.5434 C   0  0  0  0  0  0
  -19.5781  -26.6419   21.5246 C   0  0  0  0  0  0
  -18.1949  -26.7978   22.1635 C   0  0  0  0  0  0
  -19.1565  -28.8902   23.2882 C   0  0  0  0  0  0
  -18.9482  -30.1492   23.8915 C   0  0  0  0  0  0
  -17.6475  -30.6623   24.0585 C   0  0  0  0  0  0
  -25.9049  -34.9443   23.5066 C   0  0  0  0  0  0
  -16.5364  -29.9122   23.6347 C   0  0  0  0  0  0
  -16.7294  -28.6545   23.0360 C   0  0  0  0  0  0
  -26.4533  -31.6576   25.0666 C   0  0  0  0  0  0
  -25.3739  -31.3753   26.1373 C   0  0  0  0  0  0
  -27.0368  -30.2989   24.6137 C   0  0  0  0  0  0
  -27.6082  -32.4301   25.7458 C   0  0  0  0  0  0
  -27.5594  -37.1761   24.8456 C   0  0  0  0  0  0
  -21.4222  -29.3070   22.3653 N   0  0  0  0  0  0
  -26.4274  -37.3774   23.9435 N   0  0  0  0  0  0
  -24.7011  -31.0517   22.0910 N   0  0  0  0  0  0
  -23.4221  -28.8177   23.3016 O   0  0  0  0  0  0
  -28.3320  -26.3557   20.1735 O   0  0  0  0  0  0
  -26.5635  -34.8938   22.4641 O   0  0  0  0  0  0
  -23.5500  -32.1389   23.7205 O   0  0  0  0  0  0
  -30.0525  -18.2708   17.7296 C   0  0  0  0  0  0
  -29.9553  -17.0976   18.5002 C   0  0  0  0  0  0
  -29.7817  -18.4932   20.4767 C   0  0  0  0  0  0
  -30.0810  -19.5623   18.3062 C   0  0  0  0  0  0
  -29.8958  -17.1558   19.9049 C   0  0  0  0  0  0
  -29.8302  -19.7351   19.7042 C   0  0  0  0  0  0
  -30.4497  -20.6575   17.3665 C   0  0  0  0  0  0
  -31.6055  -21.5579   17.7869 C   0  0  0  0  0  0
  -29.1951  -23.7121   20.2409 C   0  0  0  0  0  0
  -28.1084  -24.8802   19.9176 C   0  0  0  0  0  0
  -28.8813  -22.1581   19.8445 C   0  0  0  0  0  0
  -29.8509  -15.8639   20.6353 N   0  0  0  0  0  0
  -29.9524  -20.7921   16.2431 O   0  0  0  0  0  0
  -29.7568  -21.0317   20.3211 O   0  0  0  0  0  0
  -31.4677  -12.5236   19.1649 H   0  0  0  0  0  0
  -30.3334  -11.4512   19.9342 H   0  0  0  0  0  0
  -29.7751  -11.7593   17.4873 H   0  0  0  0  0  0
  -29.6478  -13.4777   17.7247 H   0  0  0  0  0  0
  -27.8231  -11.3169   18.8186 H   0  0  0  0  0  0
  -27.3875  -12.6431   17.7756 H   0  0  0  0  0  0
  -27.6431  -14.2707   19.4907 H   0  0  0  0  0  0
  -28.7060  -12.1434   21.4071 H   0  0  0  0  0  0
  -28.4289  -13.8219   21.7998 H   0  0  0  0  0  0
  -25.2773   -9.5691   22.4721 H   0  0  0  0  0  0
  -24.0016   -7.4635   22.7432 H   0  0  0  0  0  0
  -21.0839   -8.8791   19.8945 H   0  0  0  0  0  0
  -22.3703  -10.9671   19.6175 H   0  0  0  0  0  0
  -21.2021   -7.6141   23.9713 H   0  0  0  0  0  0
  -21.1480   -6.0525   25.9075 H   0  0  0  0  0  0
  -22.0598   -2.7626   23.2816 H   0  0  0  0  0  0
  -22.4082  -11.9936   22.4846 H   0  0  0  0  0  0
  -21.1075  -13.1281   22.2682 H   0  0  0  0  0  0
  -24.6670  -15.8535   20.5523 H   0  0  0  0  0  0
  -26.2809  -15.6294   20.1092 H   0  0  0  0  0  0
  -26.7230  -32.5438   23.1024 H   0  0  0  0  0  0
  -25.0103  -33.9677   25.0392 H   0  0  0  0  0  0
  -22.7290  -31.2970   21.3845 H   0  0  0  0  0  0
  -23.3756  -35.9577   23.3265 H   0  0  0  0  0  0
  -24.3580  -36.8927   22.2056 H   0  0  0  0  0  0
  -23.7213  -37.6438   23.6679 H   0  0  0  0  0  0
  -26.1082  -31.5256   20.5972 H   0  0  0  0  0  0
  -26.8585  -30.8245   21.9990 H   0  0  0  0  0  0
  -28.1281  -28.9201   21.1983 H   0  0  0  0  0  0
  -25.9498  -25.8950   19.0100 H   0  0  0  0  0  0
  -23.9742  -27.3007   19.0113 H   0  0  0  0  0  0
  -23.7820  -30.5783   19.3942 H   0  0  0  0  0  0
  -22.7749  -29.2348   19.8525 H   0  0  0  0  0  0
  -25.1282  -36.1870   25.0798 H   0  0  0  0  0  0
  -21.0006  -28.3331   24.1406 H   0  0  0  0  0  0
  -20.5759  -26.2346   23.3630 H   0  0  0  0  0  0
  -21.6671  -26.7526   22.1205 H   0  0  0  0  0  0
  -19.6938  -25.6328   21.1297 H   0  0  0  0  0  0
  -19.6722  -27.3223   20.6768 H   0  0  0  0  0  0
  -17.4235  -26.6761   21.4004 H   0  0  0  0  0  0
  -18.0307  -26.0117   22.9026 H   0  0  0  0  0  0
  -19.7938  -30.7311   24.2295 H   0  0  0  0  0  0
  -17.5028  -31.6302   24.5182 H   0  0  0  0  0  0
  -15.5370  -30.3032   23.7648 H   0  0  0  0  0  0
  -15.8695  -28.0864   22.7067 H   0  0  0  0  0  0
  -24.5904  -30.7125   25.7706 H   0  0  0  0  0  0
  -24.8951  -32.2945   26.4752 H   0  0  0  0  0  0
  -25.8032  -30.8955   27.0174 H   0  0  0  0  0  0
  -26.2938  -29.6728   24.1187 H   0  0  0  0  0  0
  -27.4098  -29.7259   25.4636 H   0  0  0  0  0  0
  -27.8800  -30.4276   23.9343 H   0  0  0  0  0  0
  -27.2698  -33.3621   26.2012 H   0  0  0  0  0  0
  -28.3920  -32.6833   25.0298 H   0  0  0  0  0  0
  -28.0720  -31.8427   26.5400 H   0  0  0  0  0  0
  -28.2546  -38.0118   24.7579 H   0  0  0  0  0  0
  -28.1125  -36.2642   24.6140 H   0  0  0  0  0  0
  -27.2324  -37.1290   25.8857 H   0  0  0  0  0  0
  -20.9413  -29.8742   21.6811 H   0  0  0  0  0  0
  -26.0126  -38.2822   24.1487 H   0  0  0  0  0  0
  -30.1686  -18.1607   16.6594 H   0  0  0  0  0  0
  -29.9511  -16.1447   17.9882 H   0  0  0  0  0  0
  -29.6736  -18.5761   21.5477 H   0  0  0  0  0  0
  -32.4974  -20.9570   17.9702 H   0  0  0  0  0  0
  -31.3589  -22.1059   18.6940 H   0  0  0  0  0  0
  -31.8378  -22.2748   16.9993 H   0  0  0  0  0  0
  -29.4134  -23.7447   21.3074 H   0  0  0  0  0  0
  -30.1265  -23.9995   19.7527 H   0  0  0  0  0  0
  -27.2026  -24.5919   20.4539 H   0  0  0  0  0  0
  -27.8692  -24.7839   18.8582 H   0  0  0  0  0  0
  -28.7666  -22.1209   18.7640 H   0  0  0  0  0  0
  -27.8896  -21.9229   20.2309 H   0  0  0  0  0  0
  -28.9958  -15.6996   21.1431 H   0  0  0  0  0  0
  1 25  1  0  0  0
  1 30  2  0  0  0
  1 82  1  0  0  0
  2  3  1  0  0  0
  2 25  1  0  0  0
  2 85  1  0  0  0
  2 86  1  0  0  0
  3  4  1  0  0  0
  3 87  1  0  0  0
  3 88  1  0  0  0
  4  5  1  0  0  0
  4 89  1  0  0  0
  4 90  1  0  0  0
  5  6  1  0  0  0
  5 26  1  0  0  0
  5 91  1  0  0  0
  6 25  1  0  0  0
  6 92  1  0  0  0
  6 93  1  0  0  0
  7  8  2  0  0  0
  7 26  1  0  0  0
  7 29  1  0  0  0
  8  9  1  0  0  0
  8 22  1  0  0  0
  9 10  1  0  0  0
  9 27  2  0  0  0
 10 11  2  0  0  0
 10 15  1  0  0  0
 11 12  1  0  0  0
 11 94  1  0  0  0
 12 13  2  0  0  0
 12 95  1  0  0  0
 13 14  1  0  0  0
 13 31  1  0  0  0
 14 15  2  0  0  0
 14 96  1  0  0  0
 15 97  1  0  0  0
 16 17  2  0  0  0
 16 21  1  0  0  0
 16 31  1  0  0  0
 17 18  1  0  0  0
 17 98  1  0  0  0
 18 19  2  0  0  0
 18 99  1  0  0  0
 19 20  1  0  0  0
 19 24  1  0  0  0
 20 21  2  0  0  0
 20100  1  0  0  0
 21 23  1  0  0  0
 22 28  1  0  0  0
 22 32  2  0  0  0
 26 27  1  0  0  0
 28101  1  0  0  0
 28102  1  0  0  0
 29103  1  0  0  0
 29104  1  0  0  0
 33 34  1  0  0  0
 33 66  1  0  0  0
 33 70  2  0  0  0
 34 36  1  0  0  0
 34 59  1  0  0  0
 34105  1  0  0  0
 35 44  2  0  0  0
 35 45  1  0  0  0
 35 68  1  0  0  0
 36 56  1  0  0  0
 36106  1  0  0  0
 37 39  1  0  0  0
 37 47  1  0  0  0
 37 66  1  0  0  0
 37107  1  0  0  0
 38 43  2  0  0  0
 38 46  1  0  0  0
 38 47  1  0  0  0
 39 64  1  0  0  0
 39 67  2  0  0  0
 40 52  1  0  0  0
 40 53  2  0  0  0
 40 58  1  0  0  0
 41108  1  0  0  0
 41109  1  0  0  0
 41110  1  0  0  0
 41 48  1  0  0  0
 42 43  1  0  0  0
 42 66  1  0  0  0
 42111  1  0  0  0
 42112  1  0  0  0
 43 44  1  0  0  0
 44113  1  0  0  0
 45 46  2  0  0  0
 45114  1  0  0  0
 46115  1  0  0  0
 47116  1  0  0  0
 47117  1  0  0  0
 48 56  1  0  0  0
 48 65  1  0  0  0
 48118  1  0  0  0
 49 50  1  0  0  0
 49 53  1  0  0  0
 49 64  1  0  0  0
 49119  1  0  0  0
 50 51  1  0  0  0
 50120  1  0  0  0
 50121  1  0  0  0
 51 52  1  0  0  0
 51122  1  0  0  0
 51123  1  0  0  0
 52124  1  0  0  0
 52125  1  0  0  0
 53 54  1  0  0  0
 54 55  2  0  0  0
 54126  1  0  0  0
 55 57  1  0  0  0
 55127  1  0  0  0
 56 69  2  0  0  0
 57 58  2  0  0  0
 57128  1  0  0  0
 58129  1  0  0  0
 59 60  1  0  0  0
 59 61  1  0  0  0
 59 62  1  0  0  0
 60130  1  0  0  0
 60131  1  0  0  0
 60132  1  0  0  0
 61133  1  0  0  0
 61134  1  0  0  0
 61135  1  0  0  0
 62136  1  0  0  0
 62137  1  0  0  0
 62138  1  0  0  0
 63 65  1  0  0  0
 63139  1  0  0  0
 63140  1  0  0  0
 63141  1  0  0  0
 64142  1  0  0  0
 65143  1  0  0  0
 68 80  1  0  0  0
 71 72  2  0  0  0
 71 74  1  0  0  0
 71144  1  0  0  0
 72 75  1  0  0  0
 72145  1  0  0  0
 73 75  2  0  0  0
 73 76  1  0  0  0
 73146  1  0  0  0
 74 76  2  0  0  0
 74 77  1  0  0  0
 75 82  1  0  0  0
 76 84  1  0  0  0
 77 78  1  0  0  0
 77 83  2  0  0  0
 78147  1  0  0  0
 78148  1  0  0  0
 78149  1  0  0  0
 79 80  1  0  0  0
 79 81  1  0  0  0
 79150  1  0  0  0
 79151  1  0  0  0
 80152  1  0  0  0
 80153  1  0  0  0
 81 84  1  0  0  0
 81154  1  0  0  0
 81155  1  0  0  0
 82156  1  0  0  0
M  ISO  4   1 100  68 101  80 101  82 100
M  END
> <chiral flag>
0

> <version>
0

> <s_m_source_file>
/data/baiqing/PycharmProjects/Reinvent-master-3.2/result/LINK_invent/BTK/process_docking_weight1_custom_product_contain_oxygen_bond_distance_aromatic_linkinvent_7_9_3/rearranged_h_0134.sdf

> <i_m_source_file_index>
90

> <r_mmod_Potential_Energy-OPLS-2005>
272.107208251953

> <r_mmod_Stretch_Energy-OPLS-2005>
138.411544799805

> <r_mmod_Bend_Energy-OPLS-2005>
174.785461425781

> <r_mmod_Torsional_Energy-OPLS-2005>
302.289337158203

> <r_mmod_Improper_Torsional_Energy-OPLS-2005>
6.55741882324219

> <r_mmod_Van_der_Waal_Energy-OPLS-2005>
141.014587402344

> <r_mmod_Electrostatic_Energy-OPLS-2005>
-349.564453125

> <r_mmod_Solvation_Energy-OPLS-2005>
-223.946594238281

> <b_mmod_Minimization_Converged-OPLS-2005>
0

> <r_mmod_RMS_Derivative-OPLS-2005>
4.66229677200317

$$$$
90
                    3D
 Structure written by MMmdl.
160168  0  0  1  0            999 V2000
  -30.5798  -14.6553   20.5138 C   0  0  0  0  0  0
  -30.4489  -12.4135   19.4449 C   0  0  0  0  0  0
  -29.5179  -12.5225   18.2168 C   0  0  0  0  0  0
  -28.0379  -12.3567   18.6221 C   0  0  0  0  0  0
  -27.6541  -13.2111   19.8603 C   0  0  2  0  0  0
  -28.6950  -13.0482   20.9890 C   0  0  0  0  0  0
  -25.2575  -13.8154   20.5637 C   0  0  0  0  0  0
  -24.1831  -13.0448   20.9184 C   0  0  0  0  0  0
  -24.6386  -11.6913   20.8720 C   0  0  0  0  0  0
  -23.9053  -10.4300   21.0401 C   0  0  0  0  0  0
  -24.3596   -9.4221   21.9180 C   0  0  0  0  0  0
  -23.6270   -8.2265   22.0768 C   0  0  0  0  0  0
  -22.4248   -8.0294   21.3565 C   0  0  0  0  0  0
  -21.9876   -9.0273   20.4671 C   0  0  0  0  0  0
  -22.7225  -10.2144   20.3054 C   0  0  0  0  0  0
  -21.6857   -6.0713   22.5273 C   0  0  0  0  0  0
  -21.4031   -6.5618   23.8207 C   0  0  0  0  0  0
  -21.3656   -5.6775   24.9162 C   0  0  0  0  0  0
  -21.6030   -4.3041   24.7224 C   0  0  0  0  0  0
  -21.8824   -3.8134   23.4353 C   0  0  0  0  0  0
  -21.9204   -4.6938   22.3401 C   0  0  0  0  0  0
  -22.7865  -13.5277   21.1840 C   0  0  0  0  0  0
  -22.1669   -4.2124   21.0975 F   0  0  0  0  0  0
  -21.5615   -3.4526   25.7748 F   0  0  0  0  0  0
  -30.0077  -13.4155   20.4331 N   0  0  0  0  0  0
  -26.2982  -12.9318   20.3235 N   0  0  0  0  0  0
  -25.9304  -11.6489   20.5666 N   0  0  0  0  0  0
  -22.0449  -12.8306   22.0378 N   0  0  0  0  0  0
  -25.4309  -15.1870   20.4007 N   0  0  0  0  0  0
  -31.7405  -14.8518   20.1300 O   0  0  0  0  0  0
  -21.6648   -6.8865   21.4238 O   0  0  0  0  0  0
  -22.3575  -14.5584   20.6672 O   0  0  0  0  0  0
  -24.6252  -31.8604   23.2020 C   0  0  0  0  0  0
  -25.9112  -32.4779   23.8341 C   0  0  1  0  0  0
  -27.2279  -27.3297   20.1331 C   0  0  0  0  0  0
  -25.5935  -33.8574   24.2259 N   0  0  0  0  0  0
  -23.4147  -30.4843   21.5469 C   0  0  2  0  0  0
  -24.8619  -28.9413   20.1118 C   0  0  0  0  0  0
  -22.7460  -29.4618   22.4963 C   0  0  0  0  0  0
  -18.0281  -28.1386   22.8476 C   0  0  0  0  0  0
  -24.1480  -36.7305   23.2612 C   0  0  0  0  0  0
  -25.9526  -30.7976   21.3677 C   0  0  0  0  0  0
  -26.0293  -29.4241   20.7165 C   0  0  0  0  0  0
  -27.2132  -28.6299   20.7197 C   0  0  0  0  0  0
  -26.0372  -26.8992   19.4969 C   0  0  0  0  0  0
  -24.8677  -27.6830   19.4925 C   0  0  0  0  0  0
  -23.6269  -29.8186   20.1617 C   0  0  0  0  0  0
  -25.4088  -36.3061   24.0307 C   0  0  1  0  0  0
  -20.5875  -28.3669   23.1301 C   0  0  2  0  0  0
  -20.6783  -26.9403   22.5402 C   0  0  0  0  0  0
  -19.5753  -26.6375   21.5205 C   0  0  0  0  0  0
  -18.1931  -26.7927   22.1613 C   0  0  0  0  0  0
  -19.1535  -28.8851   23.2877 C   0  0  0  0  0  0
  -18.9461  -30.1459   23.8887 C   0  0  0  0  0  0
  -17.6459  -30.6579   24.0561 C   0  0  0  0  0  0
  -25.9046  -34.9444   23.5081 C   0  0  0  0  0  0
  -16.5351  -29.9077   23.6334 C   0  0  0  0  0  0
  -16.7267  -28.6500   23.0344 C   0  0  0  0  0  0
  -26.4491  -31.6594   25.0725 C   0  0  0  0  0  0
  -25.3730  -31.3763   26.1467 C   0  0  0  0  0  0
  -27.0304  -30.3008   24.6162 C   0  0  0  0  0  0
  -27.6036  -32.4330   25.7531 C   0  0  0  0  0  0
  -27.5586  -37.1752   24.8408 C   0  0  0  0  0  0
  -21.4176  -29.3025   22.3711 N   0  0  0  0  0  0
  -26.4233  -37.3786   23.9448 N   0  0  0  0  0  0
  -24.6829  -31.0640   22.0966 N   0  0  0  0  0  0
  -23.4198  -28.8164   23.3029 O   0  0  0  0  0  0
  -28.3478  -26.4841   20.2037 O   0  0  0  0  0  0
  -26.5615  -34.8931   22.4643 O   0  0  0  0  0  0
  -23.5426  -32.1395   23.7382 O   0  0  0  0  0  0
  -30.9056  -17.9064   20.5871 C   0  0  0  0  0  0
  -30.8304  -19.3275   20.5458 C   0  0  0  0  0  0
  -28.5329  -17.8451   20.9399 C   0  0  0  0  0  0
  -28.4390  -19.2748   20.8844 C   0  0  0  0  0  0
  -29.7478  -17.1204   20.7845 C   0  0  0  0  0  0
  -29.6229  -20.0621   20.6806 C   0  0  0  0  0  0
  -26.7570  -20.3344   22.5192 C   0  0  0  0  0  0
  -29.8125  -24.1739   21.9516 C   0  0  0  0  0  0
  -27.0402  -19.8677   21.0785 C   0  0  0  0  0  0
  -28.0897  -25.0290   20.2123 C   0  0  0  0  0  0
  -28.7606  -22.4617   20.3999 C   0  0  0  0  0  0
  -29.2318  -23.9721   20.5402 C   0  0  2  0  0  0
  -29.7197  -15.6612   20.8798 N   0  0  0  0  0  0
  -29.7907  -21.4646   20.6579 O   0  0  0  0  0  0
  -31.4890  -12.5600   19.1500 H   0  0  0  0  0  0
  -30.3985  -11.4137   19.8768 H   0  0  0  0  0  0
  -29.7896  -11.7737   17.4730 H   0  0  0  0  0  0
  -29.6605  -13.4891   17.7297 H   0  0  0  0  0  0
  -27.8685  -11.2989   18.8347 H   0  0  0  0  0  0
  -27.3927  -12.6057   17.7783 H   0  0  0  0  0  0
  -27.6740  -14.2492   19.5290 H   0  0  0  0  0  0
  -28.7134  -12.0157   21.3417 H   0  0  0  0  0  0
  -28.4329  -13.6524   21.8601 H   0  0  0  0  0  0
  -25.2726   -9.5711   22.4767 H   0  0  0  0  0  0
  -23.9977   -7.4654   22.7496 H   0  0  0  0  0  0
  -21.0801   -8.8794   19.8983 H   0  0  0  0  0  0
  -22.3673  -10.9669   19.6167 H   0  0  0  0  0  0
  -21.2033   -7.6135   23.9697 H   0  0  0  0  0  0
  -21.1455   -6.0507   25.9058 H   0  0  0  0  0  0
  -22.0607   -2.7595   23.2869 H   0  0  0  0  0  0
  -22.4001  -11.9988   22.4839 H   0  0  0  0  0  0
  -21.1070  -13.1387   22.2517 H   0  0  0  0  0  0
  -24.6595  -15.8373   20.4990 H   0  0  0  0  0  0
  -26.2492  -15.6055   19.9827 H   0  0  0  0  0  0
  -26.7198  -32.5448   23.1105 H   0  0  0  0  0  0
  -25.0096  -33.9726   25.0419 H   0  0  0  0  0  0
  -22.7043  -31.3012   21.4068 H   0  0  0  0  0  0
  -23.3759  -35.9614   23.3168 H   0  0  0  0  0  0
  -24.3601  -36.9044   22.2047 H   0  0  0  0  0  0
  -23.7226  -37.6461   23.6737 H   0  0  0  0  0  0
  -26.0724  -31.5561   20.5927 H   0  0  0  0  0  0
  -26.8379  -30.8560   21.9885 H   0  0  0  0  0  0
  -28.1024  -28.9942   21.2155 H   0  0  0  0  0  0
  -25.9776  -25.9400   19.0075 H   0  0  0  0  0  0
  -23.9743  -27.3037   19.0154 H   0  0  0  0  0  0
  -23.7411  -30.5930   19.4021 H   0  0  0  0  0  0
  -22.7474  -29.2449   19.8644 H   0  0  0  0  0  0
  -25.1251  -36.1853   25.0791 H   0  0  0  0  0  0
  -20.9946  -28.3239   24.1426 H   0  0  0  0  0  0
  -20.5697  -26.2265   23.3584 H   0  0  0  0  0  0
  -21.6660  -26.7453   22.1198 H   0  0  0  0  0  0
  -19.6914  -25.6285   21.1241 H   0  0  0  0  0  0
  -19.6688  -27.3170   20.6728 H   0  0  0  0  0  0
  -17.4197  -26.6660   21.4023 H   0  0  0  0  0  0
  -18.0319  -26.0078   22.9012 H   0  0  0  0  0  0
  -19.7945  -30.7282   24.2234 H   0  0  0  0  0  0
  -17.5021  -31.6265   24.5151 H   0  0  0  0  0  0
  -15.5357  -30.2972   23.7679 H   0  0  0  0  0  0
  -15.8660  -28.0815   22.7065 H   0  0  0  0  0  0
  -24.5874  -30.7131   25.7835 H   0  0  0  0  0  0
  -24.8964  -32.2951   26.4892 H   0  0  0  0  0  0
  -25.8064  -30.8960   27.0247 H   0  0  0  0  0  0
  -26.2855  -29.6800   24.1170 H   0  0  0  0  0  0
  -27.3970  -29.7230   25.4658 H   0  0  0  0  0  0
  -27.8746  -30.4281   23.9380 H   0  0  0  0  0  0
  -27.2610  -33.3604   26.2138 H   0  0  0  0  0  0
  -28.3863  -32.6934   25.0396 H   0  0  0  0  0  0
  -28.0693  -31.8441   26.5447 H   0  0  0  0  0  0
  -28.2440  -38.0203   24.7691 H   0  0  0  0  0  0
  -28.1245  -36.2766   24.5916 H   0  0  0  0  0  0
  -27.2367  -37.1010   25.8805 H   0  0  0  0  0  0
  -20.9342  -29.8748   21.6937 H   0  0  0  0  0  0
  -26.0086  -38.2809   24.1616 H   0  0  0  0  0  0
  -31.8730  -17.4371   20.4919 H   0  0  0  0  0  0
  -31.7485  -19.8815   20.4155 H   0  0  0  0  0  0
  -27.6297  -17.2801   21.1229 H   0  0  0  0  0  0
  -25.7480  -20.7466   22.6011 H   0  0  0  0  0  0
  -27.4540  -21.1043   22.8509 H   0  0  0  0  0  0
  -26.8231  -19.5089   23.2283 H   0  0  0  0  0  0
  -30.2148  -25.1769   22.0889 H   0  0  0  0  0  0
  -30.6261  -23.4709   22.1436 H   0  0  0  0  0  0
  -29.0532  -24.0067   22.7161 H   0  0  0  0  0  0
  -26.2974  -19.1092   20.8270 H   0  0  0  0  0  0
  -26.8425  -20.6569   20.3563 H   0  0  0  0  0  0
  -27.2626  -24.8418   20.9015 H   0  0  0  0  0  0
  -27.7312  -24.7571   19.2207 H   0  0  0  0  0  0
  -28.3753  -22.3005   19.3923 H   0  0  0  0  0  0
  -27.9360  -22.3363   21.0916 H   0  0  0  0  0  0
  -30.0384  -24.1324   19.8234 H   0  0  0  0  0  0
  -28.8221  -15.2893   21.1493 H   0  0  0  0  0  0
  1 25  1  0  0  0
  1 30  2  0  0  0
  1 83  1  0  0  0
  2  3  1  0  0  0
  2 25  1  0  0  0
  2 85  1  0  0  0
  2 86  1  0  0  0
  3  4  1  0  0  0
  3 87  1  0  0  0
  3 88  1  0  0  0
  4  5  1  0  0  0
  4 89  1  0  0  0
  4 90  1  0  0  0
  5  6  1  0  0  0
  5 26  1  0  0  0
  5 91  1  0  0  0
  6 25  1  0  0  0
  6 92  1  0  0  0
  6 93  1  0  0  0
  7  8  2  0  0  0
  7 26  1  0  0  0
  7 29  1  0  0  0
  8  9  1  0  0  0
  8 22  1  0  0  0
  9 10  1  0  0  0
  9 27  2  0  0  0
 10 11  2  0  0  0
 10 15  1  0  0  0
 11 12  1  0  0  0
 11 94  1  0  0  0
 12 13  2  0  0  0
 12 95  1  0  0  0
 13 14  1  0  0  0
 13 31  1  0  0  0
 14 15  2  0  0  0
 14 96  1  0  0  0
 15 97  1  0  0  0
 16 17  2  0  0  0
 16 21  1  0  0  0
 16 31  1  0  0  0
 17 18  1  0  0  0
 17 98  1  0  0  0
 18 19  2  0  0  0
 18 99  1  0  0  0
 19 20  1  0  0  0
 19 24  1  0  0  0
 20 21  2  0  0  0
 20100  1  0  0  0
 21 23  1  0  0  0
 22 28  1  0  0  0
 22 32  2  0  0  0
 26 27  1  0  0  0
 28101  1  0  0  0
 28102  1  0  0  0
 29103  1  0  0  0
 29104  1  0  0  0
 33 34  1  0  0  0
 33 66  1  0  0  0
 33 70  2  0  0  0
 34 36  1  0  0  0
 34 59  1  0  0  0
 34105  1  0  0  0
 35 44  2  0  0  0
 35 45  1  0  0  0
 35 68  1  0  0  0
 36 56  1  0  0  0
 36106  1  0  0  0
 37 39  1  0  0  0
 37 47  1  0  0  0
 37 66  1  0  0  0
 37107  1  0  0  0
 38 43  2  0  0  0
 38 46  1  0  0  0
 38 47  1  0  0  0
 39 64  1  0  0  0
 39 67  2  0  0  0
 40 52  1  0  0  0
 40 53  2  0  0  0
 40 58  1  0  0  0
 41108  1  0  0  0
 41109  1  0  0  0
 41110  1  0  0  0
 41 48  1  0  0  0
 42 43  1  0  0  0
 42 66  1  0  0  0
 42111  1  0  0  0
 42112  1  0  0  0
 43 44  1  0  0  0
 44113  1  0  0  0
 45 46  2  0  0  0
 45114  1  0  0  0
 46115  1  0  0  0
 47116  1  0  0  0
 47117  1  0  0  0
 48 56  1  0  0  0
 48 65  1  0  0  0
 48118  1  0  0  0
 49 50  1  0  0  0
 49 53  1  0  0  0
 49 64  1  0  0  0
 49119  1  0  0  0
 50 51  1  0  0  0
 50120  1  0  0  0
 50121  1  0  0  0
 51 52  1  0  0  0
 51122  1  0  0  0
 51123  1  0  0  0
 52124  1  0  0  0
 52125  1  0  0  0
 53 54  1  0  0  0
 54 55  2  0  0  0
 54126  1  0  0  0
 55 57  1  0  0  0
 55127  1  0  0  0
 56 69  2  0  0  0
 57 58  2  0  0  0
 57128  1  0  0  0
 58129  1  0  0  0
 59 60  1  0  0  0
 59 61  1  0  0  0
 59 62  1  0  0  0
 60130  1  0  0  0
 60131  1  0  0  0
 60132  1  0  0  0
 61133  1  0  0  0
 61134  1  0  0  0
 61135  1  0  0  0
 62136  1  0  0  0
 62137  1  0  0  0
 62138  1  0  0  0
 63 65  1  0  0  0
 63139  1  0  0  0
 63140  1  0  0  0
 63141  1  0  0  0
 64142  1  0  0  0
 65143  1  0  0  0
 68 80  1  0  0  0
 71 72  2  0  0  0
 71 75  1  0  0  0
 71144  1  0  0  0
 72 76  1  0  0  0
 72145  1  0  0  0
 73 74  1  0  0  0
 73 75  2  0  0  0
 73146  1  0  0  0
 74 76  2  0  0  0
 74 79  1  0  0  0
 75 83  1  0  0  0
 76 84  1  0  0  0
 77 79  1  0  0  0
 77147  1  0  0  0
 77148  1  0  0  0
 77149  1  0  0  0
 78150  1  0  0  0
 78151  1  0  0  0
 78152  1  0  0  0
 78 82  1  0  0  0
 79153  1  0  0  0
 79154  1  0  0  0
 80 82  1  0  0  0
 80155  1  0  0  0
 80156  1  0  0  0
 81 82  1  0  0  0
 81 84  1  0  0  0
 81157  1  0  0  0
 81158  1  0  0  0
 82159  1  0  0  0
 83160  1  0  0  0
M  ISO  4   1 100  68 101  80 101  83 100
M  END
> <chiral flag>
0

> <version>
0

> <s_m_source_file>
/data/baiqing/PycharmProjects/Reinvent-master-3.2/result/LINK_invent/BTK/process_docking_weight1_custom_product_contain_oxygen_bond_distance_aromatic_linkinvent_7_9_3/rearranged_h_0134.sdf

> <i_m_source_file_index>
91

> <r_mmod_Potential_Energy-OPLS-2005>
74.3060684204102

> <r_mmod_Stretch_Energy-OPLS-2005>
75.5183639526367

> <r_mmod_Bend_Energy-OPLS-2005>
168.964141845703

> <r_mmod_Torsional_Energy-OPLS-2005>
219.079025268555

> <r_mmod_Improper_Torsional_Energy-OPLS-2005>
4.79533100128174

> <r_mmod_Van_der_Waal_Energy-OPLS-2005>
145.17301940918

> <r_mmod_Electrostatic_Energy-OPLS-2005>
-384.982055664062

> <r_mmod_Solvation_Energy-OPLS-2005>
-206.029388427734

> <b_mmod_Minimization_Converged-OPLS-2005>
0

> <r_mmod_RMS_Derivative-OPLS-2005>
4.0639123916626

$$$$
91
                    3D
 Structure written by MMmdl.
160168  0  0  1  0            999 V2000
  -30.6869  -14.4745   20.6158 C   0  0  0  0  0  0
  -30.4307  -12.3215   19.4105 C   0  0  0  0  0  0
  -29.4948  -12.5216   18.2005 C   0  0  0  0  0  0
  -28.0162  -12.3770   18.6140 C   0  0  0  0  0  0
  -27.6654  -13.2053   19.8782 C   0  0  2  0  0  0
  -28.7092  -12.9670   20.9930 C   0  0  0  0  0  0
  -25.2611  -13.8151   20.5687 C   0  0  0  0  0  0
  -24.1858  -13.0436   20.9170 C   0  0  0  0  0  0
  -24.6412  -11.6900   20.8739 C   0  0  0  0  0  0
  -23.9076  -10.4290   21.0415 C   0  0  0  0  0  0
  -24.3626   -9.4202   21.9189 C   0  0  0  0  0  0
  -23.6297   -8.2239   22.0756 C   0  0  0  0  0  0
  -22.4278   -8.0285   21.3545 C   0  0  0  0  0  0
  -21.9920   -9.0262   20.4645 C   0  0  0  0  0  0
  -22.7253  -10.2138   20.3059 C   0  0  0  0  0  0
  -21.6853   -6.0739   22.5277 C   0  0  0  0  0  0
  -21.4013   -6.5643   23.8211 C   0  0  0  0  0  0
  -21.3660   -5.6794   24.9174 C   0  0  0  0  0  0
  -21.6046   -4.3056   24.7221 C   0  0  0  0  0  0
  -21.8824   -3.8149   23.4341 C   0  0  0  0  0  0
  -21.9196   -4.6966   22.3398 C   0  0  0  0  0  0
  -22.7879  -13.5235   21.1837 C   0  0  0  0  0  0
  -22.1667   -4.2151   21.0973 F   0  0  0  0  0  0
  -21.5628   -3.4540   25.7735 F   0  0  0  0  0  0
  -30.0365  -13.2889   20.4462 N   0  0  0  0  0  0
  -26.3053  -12.9325   20.3383 N   0  0  0  0  0  0
  -25.9339  -11.6484   20.5758 N   0  0  0  0  0  0
  -22.0513  -12.8232   22.0388 N   0  0  0  0  0  0
  -25.4332  -15.1862   20.4101 N   0  0  0  0  0  0
  -31.7824  -14.6921   20.0856 O   0  0  0  0  0  0
  -21.6636   -6.8886   21.4241 O   0  0  0  0  0  0
  -22.3568  -14.5543   20.6685 O   0  0  0  0  0  0
  -24.6178  -31.8672   23.2108 C   0  0  0  0  0  0
  -25.9066  -32.4815   23.8404 C   0  0  1  0  0  0
  -27.2298  -27.4169   20.0865 C   0  0  0  0  0  0
  -25.5916  -33.8614   24.2332 N   0  0  0  0  0  0
  -23.4048  -30.4940   21.5525 C   0  0  2  0  0  0
  -24.8484  -28.9634   20.1140 C   0  0  0  0  0  0
  -22.7421  -29.4662   22.4985 C   0  0  0  0  0  0
  -18.0274  -28.1373   22.8489 C   0  0  0  0  0  0
  -24.1489  -36.7317   23.2634 C   0  0  0  0  0  0
  -25.9378  -30.8279   21.3663 C   0  0  0  0  0  0
  -26.0126  -29.4627   20.7100 C   0  0  0  0  0  0
  -27.2052  -28.6979   20.6930 C   0  0  0  0  0  0
  -26.0396  -26.9465   19.4772 C   0  0  0  0  0  0
  -24.8574  -27.7046   19.4962 C   0  0  0  0  0  0
  -23.6126  -29.8320   20.1660 C   0  0  0  0  0  0
  -25.4107  -36.3106   24.0335 C   0  0  1  0  0  0
  -20.5867  -28.3666   23.1310 C   0  0  2  0  0  0
  -20.6763  -26.9399   22.5413 C   0  0  0  0  0  0
  -19.5740  -26.6379   21.5209 C   0  0  0  0  0  0
  -18.1920  -26.7920   22.1621 C   0  0  0  0  0  0
  -19.1523  -28.8834   23.2898 C   0  0  0  0  0  0
  -18.9448  -30.1441   23.8906 C   0  0  0  0  0  0
  -17.6448  -30.6580   24.0562 C   0  0  0  0  0  0
  -25.9034  -34.9470   23.5128 C   0  0  0  0  0  0
  -16.5340  -29.9080   23.6322 C   0  0  0  0  0  0
  -16.7261  -28.6498   23.0343 C   0  0  0  0  0  0
  -26.4482  -31.6593   25.0733 C   0  0  0  0  0  0
  -25.3744  -31.3701   26.1478 C   0  0  0  0  0  0
  -27.0303  -30.3029   24.6111 C   0  0  0  0  0  0
  -27.6051  -32.4303   25.7507 C   0  0  0  0  0  0
  -27.5581  -37.1815   24.8463 C   0  0  0  0  0  0
  -21.4148  -29.3040   22.3725 N   0  0  0  0  0  0
  -26.4294  -37.3792   23.9407 N   0  0  0  0  0  0
  -24.6720  -31.0772   22.1012 N   0  0  0  0  0  0
  -23.4190  -28.8190   23.3019 O   0  0  0  0  0  0
  -28.3921  -26.6573   20.1125 O   0  0  0  0  0  0
  -26.5589  -34.8923   22.4686 O   0  0  0  0  0  0
  -23.5367  -32.1427   23.7496 O   0  0  0  0  0  0
  -32.4088  -18.5212   22.0758 C   0  0  0  0  0  0
  -31.8382  -17.2384   22.0189 C   0  0  0  0  0  0
  -31.7558  -19.6159   21.4843 C   0  0  0  0  0  0
  -30.6171  -17.0160   21.3466 C   0  0  0  0  0  0
  -29.9700  -18.1282   20.7189 C   0  0  0  0  0  0
  -30.5242  -19.4400   20.8106 C   0  0  0  0  0  0
  -29.2407  -22.8621   19.9400 C   0  0  0  0  0  0
  -27.4353  -18.1833   20.8670 C   0  0  0  0  0  0
  -29.9979  -15.6013   21.4387 C   0  0  0  0  0  0
  -28.6544  -17.9577   19.9637 C   0  0  0  0  0  0
  -29.4601  -24.3656   20.2320 C   0  0  0  0  0  0
  -30.2563  -21.8473   20.5062 C   0  0  0  0  0  0
  -28.2563  -25.2498   19.8181 C   0  0  0  0  0  0
  -28.2786  -22.4793   19.2636 O   0  0  0  0  0  0
  -29.8253  -20.4981   20.2480 O   0  0  0  0  0  0
  -31.4720  -12.4362   19.1056 H   0  0  0  0  0  0
  -30.3472  -11.3051   19.7972 H   0  0  0  0  0  0
  -29.7357  -11.8058   17.4134 H   0  0  0  0  0  0
  -29.6581  -13.5120   17.7722 H   0  0  0  0  0  0
  -27.8241  -11.3198   18.8005 H   0  0  0  0  0  0
  -27.3661  -12.6625   17.7860 H   0  0  0  0  0  0
  -27.7127  -14.2561   19.5918 H   0  0  0  0  0  0
  -28.6886  -11.9227   21.3094 H   0  0  0  0  0  0
  -28.4662  -13.5385   21.8884 H   0  0  0  0  0  0
  -25.2776   -9.5665   22.4763 H   0  0  0  0  0  0
  -24.0001   -7.4629   22.7479 H   0  0  0  0  0  0
  -21.0852   -8.8793   19.8950 H   0  0  0  0  0  0
  -22.3727  -10.9686   19.6166 H   0  0  0  0  0  0
  -21.2000   -7.6151   23.9713 H   0  0  0  0  0  0
  -21.1480   -6.0524   25.9078 H   0  0  0  0  0  0
  -22.0602   -2.7611   23.2838 H   0  0  0  0  0  0
  -22.4132  -11.9894   22.4774 H   0  0  0  0  0  0
  -21.1130  -13.1261   22.2587 H   0  0  0  0  0  0
  -24.6681  -15.8421   20.5225 H   0  0  0  0  0  0
  -26.2892  -15.6248   20.0989 H   0  0  0  0  0  0
  -26.7138  -32.5520   23.1170 H   0  0  0  0  0  0
  -25.0096  -33.9777   25.0496 H   0  0  0  0  0  0
  -22.6946  -31.3119   21.4160 H   0  0  0  0  0  0
  -23.3744  -35.9657   23.3300 H   0  0  0  0  0  0
  -24.3590  -36.8926   22.2049 H   0  0  0  0  0  0
  -23.7248  -37.6527   23.6645 H   0  0  0  0  0  0
  -26.0531  -31.5947   20.5992 H   0  0  0  0  0  0
  -26.8250  -30.8787   21.9856 H   0  0  0  0  0  0
  -28.1027  -29.0804   21.1591 H   0  0  0  0  0  0
  -25.9920  -25.9903   18.9780 H   0  0  0  0  0  0
  -23.9627  -27.3160   19.0298 H   0  0  0  0  0  0
  -23.7229  -30.6088   19.4084 H   0  0  0  0  0  0
  -22.7352  -29.2546   19.8680 H   0  0  0  0  0  0
  -25.1282  -36.1975   25.0829 H   0  0  0  0  0  0
  -20.9955  -28.3226   24.1431 H   0  0  0  0  0  0
  -20.5663  -26.2271   23.3598 H   0  0  0  0  0  0
  -21.6636  -26.7438   22.1207 H   0  0  0  0  0  0
  -19.6904  -25.6292   21.1231 H   0  0  0  0  0  0
  -19.6679  -27.3192   20.6743 H   0  0  0  0  0  0
  -17.4190  -26.6666   21.4023 H   0  0  0  0  0  0
  -18.0322  -26.0058   22.9015 H   0  0  0  0  0  0
  -19.7924  -30.7258   24.2278 H   0  0  0  0  0  0
  -17.5002  -31.6262   24.5160 H   0  0  0  0  0  0
  -15.5340  -30.2983   23.7641 H   0  0  0  0  0  0
  -15.8663  -28.0821   22.7045 H   0  0  0  0  0  0
  -24.5922  -30.7039   25.7829 H   0  0  0  0  0  0
  -24.8930  -32.2853   26.4930 H   0  0  0  0  0  0
  -25.8101  -30.8878   27.0238 H   0  0  0  0  0  0
  -26.2851  -29.6803   24.1147 H   0  0  0  0  0  0
  -27.4050  -29.7253   25.4577 H   0  0  0  0  0  0
  -27.8703  -30.4343   23.9280 H   0  0  0  0  0  0
  -27.2667  -33.3592   26.2116 H   0  0  0  0  0  0
  -28.3859  -32.6880   25.0336 H   0  0  0  0  0  0
  -28.0721  -31.8401   26.5404 H   0  0  0  0  0  0
  -28.2599  -38.0112   24.7510 H   0  0  0  0  0  0
  -28.1076  -36.2645   24.6287 H   0  0  0  0  0  0
  -27.2300  -37.1466   25.8865 H   0  0  0  0  0  0
  -20.9301  -29.8796   21.6983 H   0  0  0  0  0  0
  -26.0181  -38.2872   24.1401 H   0  0  0  0  0  0
  -33.3457  -18.6688   22.5947 H   0  0  0  0  0  0
  -32.3419  -16.4173   22.5115 H   0  0  0  0  0  0
  -32.2227  -20.5868   21.5665 H   0  0  0  0  0  0
  -26.5073  -18.0752   20.3052 H   0  0  0  0  0  0
  -27.4465  -19.1867   21.2939 H   0  0  0  0  0  0
  -27.4125  -17.4710   21.6921 H   0  0  0  0  0  0
  -28.9416  -15.6426   21.1858 H   0  0  0  0  0  0
  -30.0262  -15.2985   22.4854 H   0  0  0  0  0  0
  -28.6095  -16.9802   19.4849 H   0  0  0  0  0  0
  -28.6183  -18.6651   19.1341 H   0  0  0  0  0  0
  -30.3593  -24.6923   19.7103 H   0  0  0  0  0  0
  -29.6506  -24.4805   21.2984 H   0  0  0  0  0  0
  -30.3563  -22.0134   21.5790 H   0  0  0  0  0  0
  -31.2266  -22.0247   20.0414 H   0  0  0  0  0  0
  -27.3790  -24.8552   20.3348 H   0  0  0  0  0  0
  -28.0845  -25.1376   18.7462 H   0  0  0  0  0  0
  1 25  1  0  0  0
  1 30  2  0  0  0
  1 79  1  0  0  0
  2  3  1  0  0  0
  2 25  1  0  0  0
  2 86  1  0  0  0
  2 87  1  0  0  0
  3  4  1  0  0  0
  3 88  1  0  0  0
  3 89  1  0  0  0
  4  5  1  0  0  0
  4 90  1  0  0  0
  4 91  1  0  0  0
  5  6  1  0  0  0
  5 26  1  0  0  0
  5 92  1  0  0  0
  6 25  1  0  0  0
  6 93  1  0  0  0
  6 94  1  0  0  0
  7  8  2  0  0  0
  7 26  1  0  0  0
  7 29  1  0  0  0
  8  9  1  0  0  0
  8 22  1  0  0  0
  9 10  1  0  0  0
  9 27  2  0  0  0
 10 11  2  0  0  0
 10 15  1  0  0  0
 11 12  1  0  0  0
 11 95  1  0  0  0
 12 13  2  0  0  0
 12 96  1  0  0  0
 13 14  1  0  0  0
 13 31  1  0  0  0
 14 15  2  0  0  0
 14 97  1  0  0  0
 15 98  1  0  0  0
 16 17  2  0  0  0
 16 21  1  0  0  0
 16 31  1  0  0  0
 17 18  1  0  0  0
 17 99  1  0  0  0
 18 19  2  0  0  0
 18100  1  0  0  0
 19 20  1  0  0  0
 19 24  1  0  0  0
 20 21  2  0  0  0
 20101  1  0  0  0
 21 23  1  0  0  0
 22 28  1  0  0  0
 22 32  2  0  0  0
 26 27  1  0  0  0
 28102  1  0  0  0
 28103  1  0  0  0
 29104  1  0  0  0
 29105  1  0  0  0
 33 34  1  0  0  0
 33 66  1  0  0  0
 33 70  2  0  0  0
 34 36  1  0  0  0
 34 59  1  0  0  0
 34106  1  0  0  0
 35 44  2  0  0  0
 35 45  1  0  0  0
 35 68  1  0  0  0
 36 56  1  0  0  0
 36107  1  0  0  0
 37 39  1  0  0  0
 37 47  1  0  0  0
 37 66  1  0  0  0
 37108  1  0  0  0
 38 43  2  0  0  0
 38 46  1  0  0  0
 38 47  1  0  0  0
 39 64  1  0  0  0
 39 67  2  0  0  0
 40 52  1  0  0  0
 40 53  2  0  0  0
 40 58  1  0  0  0
 41109  1  0  0  0
 41110  1  0  0  0
 41111  1  0  0  0
 41 48  1  0  0  0
 42 43  1  0  0  0
 42 66  1  0  0  0
 42112  1  0  0  0
 42113  1  0  0  0
 43 44  1  0  0  0
 44114  1  0  0  0
 45 46  2  0  0  0
 45115  1  0  0  0
 46116  1  0  0  0
 47117  1  0  0  0
 47118  1  0  0  0
 48 56  1  0  0  0
 48 65  1  0  0  0
 48119  1  0  0  0
 49 50  1  0  0  0
 49 53  1  0  0  0
 49 64  1  0  0  0
 49120  1  0  0  0
 50 51  1  0  0  0
 50121  1  0  0  0
 50122  1  0  0  0
 51 52  1  0  0  0
 51123  1  0  0  0
 51124  1  0  0  0
 52125  1  0  0  0
 52126  1  0  0  0
 53 54  1  0  0  0
 54 55  2  0  0  0
 54127  1  0  0  0
 55 57  1  0  0  0
 55128  1  0  0  0
 56 69  2  0  0  0
 57 58  2  0  0  0
 57129  1  0  0  0
 58130  1  0  0  0
 59 60  1  0  0  0
 59 61  1  0  0  0
 59 62  1  0  0  0
 60131  1  0  0  0
 60132  1  0  0  0
 60133  1  0  0  0
 61134  1  0  0  0
 61135  1  0  0  0
 61136  1  0  0  0
 62137  1  0  0  0
 62138  1  0  0  0
 62139  1  0  0  0
 63 65  1  0  0  0
 63140  1  0  0  0
 63141  1  0  0  0
 63142  1  0  0  0
 64143  1  0  0  0
 65144  1  0  0  0
 68 83  1  0  0  0
 71 72  2  0  0  0
 71 73  1  0  0  0
 71145  1  0  0  0
 72 74  1  0  0  0
 72146  1  0  0  0
 73 76  2  0  0  0
 73147  1  0  0  0
 74 75  2  0  0  0
 74 79  1  0  0  0
 75 76  1  0  0  0
 75 80  1  0  0  0
 76 85  1  0  0  0
 77 81  1  0  0  0
 77 82  1  0  0  0
 77 84  2  0  0  0
 78 80  1  0  0  0
 78148  1  0  0  0
 78149  1  0  0  0
 78150  1  0  0  0
 79151  1  0  0  0
 79152  1  0  0  0
 80153  1  0  0  0
 80154  1  0  0  0
 81 83  1  0  0  0
 81155  1  0  0  0
 81156  1  0  0  0
 82 85  1  0  0  0
 82157  1  0  0  0
 82158  1  0  0  0
 83159  1  0  0  0
 83160  1  0  0  0
M  ISO  4   1 100  68 101  79 100  83 101
M  END
> <chiral flag>
0

> <version>
0

> <s_m_source_file>
/data/baiqing/PycharmProjects/Reinvent-master-3.2/result/LINK_invent/BTK/process_docking_weight1_custom_product_contain_oxygen_bond_distance_aromatic_linkinvent_7_9_3/rearranged_h_0134.sdf

> <i_m_source_file_index>
92

> <r_mmod_Potential_Energy-OPLS-2005>
-29.9173908233643

> <r_mmod_Stretch_Energy-OPLS-2005>
44.9693984985352

> <r_mmod_Bend_Energy-OPLS-2005>
101.164360046387

> <r_mmod_Torsional_Energy-OPLS-2005>
164.184539794922

> <r_mmod_Improper_Torsional_Energy-OPLS-2005>
2.36752676963806

> <r_mmod_Van_der_Waal_Energy-OPLS-2005>
157.158889770508

> <r_mmod_Electrostatic_Energy-OPLS-2005>
-293.370361328125

> <r_mmod_Solvation_Energy-OPLS-2005>
-219.860443115234

> <b_mmod_Minimization_Converged-OPLS-2005>
0

> <r_mmod_RMS_Derivative-OPLS-2005>
1.05470669269562

$$$$
92
                    3D
 Structure written by MMmdl.
159167  0  0  1  0            999 V2000
  -30.6127  -14.6690   20.4753 C   0  0  0  0  0  0
  -30.4427  -12.4077   19.4492 C   0  0  0  0  0  0
  -29.5076  -12.5046   18.2226 C   0  0  0  0  0  0
  -28.0317  -12.3353   18.6383 C   0  0  0  0  0  0
  -27.6495  -13.2128   19.8595 C   0  0  2  0  0  0
  -28.7002  -13.0914   20.9869 C   0  0  0  0  0  0
  -25.2530  -13.8108   20.5717 C   0  0  0  0  0  0
  -24.1802  -13.0383   20.9208 C   0  0  0  0  0  0
  -24.6385  -11.6866   20.8749 C   0  0  0  0  0  0
  -23.9056  -10.4261   21.0408 C   0  0  0  0  0  0
  -24.3610   -9.4183   21.9187 C   0  0  0  0  0  0
  -23.6283   -8.2223   22.0755 C   0  0  0  0  0  0
  -22.4266   -8.0266   21.3543 C   0  0  0  0  0  0
  -21.9900   -9.0238   20.4645 C   0  0  0  0  0  0
  -22.7230  -10.2114   20.3054 C   0  0  0  0  0  0
  -21.6845   -6.0728   22.5280 C   0  0  0  0  0  0
  -21.4008   -6.5634   23.8213 C   0  0  0  0  0  0
  -21.3659   -5.6789   24.9176 C   0  0  0  0  0  0
  -21.6046   -4.3052   24.7227 C   0  0  0  0  0  0
  -21.8819   -3.8142   23.4349 C   0  0  0  0  0  0
  -21.9191   -4.6957   22.3404 C   0  0  0  0  0  0
  -22.7830  -13.5195   21.1864 C   0  0  0  0  0  0
  -22.1661   -4.2144   21.0981 F   0  0  0  0  0  0
  -21.5631   -3.4537   25.7741 F   0  0  0  0  0  0
  -30.0109  -13.4376   20.4135 N   0  0  0  0  0  0
  -26.2970  -12.9307   20.3326 N   0  0  0  0  0  0
  -25.9315  -11.6465   20.5762 N   0  0  0  0  0  0
  -22.0466  -12.8200   22.0424 N   0  0  0  0  0  0
  -25.4175  -15.1820   20.4175 N   0  0  0  0  0  0
  -31.7959  -14.8234   20.1590 O   0  0  0  0  0  0
  -21.6629   -6.8867   21.4241 O   0  0  0  0  0  0
  -22.3528  -14.5509   20.6713 O   0  0  0  0  0  0
  -24.6268  -31.8599   23.2031 C   0  0  0  0  0  0
  -25.9115  -32.4779   23.8359 C   0  0  1  0  0  0
  -27.2268  -27.3148   20.1127 C   0  0  0  0  0  0
  -25.5928  -33.8580   24.2283 N   0  0  0  0  0  0
  -23.4208  -30.4841   21.5460 C   0  0  2  0  0  0
  -24.8679  -28.9412   20.1106 C   0  0  0  0  0  0
  -22.7479  -29.4626   22.4938 C   0  0  0  0  0  0
  -18.0287  -28.1384   22.8489 C   0  0  0  0  0  0
  -24.1489  -36.7293   23.2639 C   0  0  0  0  0  0
  -25.9634  -30.7883   21.3765 C   0  0  0  0  0  0
  -26.0377  -29.4162   20.7167 C   0  0  0  0  0  0
  -27.2191  -28.6145   20.7098 C   0  0  0  0  0  0
  -26.0319  -26.8997   19.4762 C   0  0  0  0  0  0
  -24.8674  -27.6882   19.4821 C   0  0  0  0  0  0
  -23.6357  -29.8209   20.1609 C   0  0  0  0  0  0
  -25.4114  -36.3084   24.0330 C   0  0  1  0  0  0
  -20.5888  -28.3690   23.1282 C   0  0  2  0  0  0
  -20.6776  -26.9413   22.5410 C   0  0  0  0  0  0
  -19.5751  -26.6385   21.5214 C   0  0  0  0  0  0
  -18.1932  -26.7928   22.1626 C   0  0  0  0  0  0
  -19.1540  -28.8855   23.2880 C   0  0  0  0  0  0
  -18.9462  -30.1456   23.8896 C   0  0  0  0  0  0
  -17.6461  -30.6587   24.0564 C   0  0  0  0  0  0
  -25.9052  -34.9453   23.5106 C   0  0  0  0  0  0
  -16.5352  -29.9085   23.6332 C   0  0  0  0  0  0
  -16.7273  -28.6501   23.0354 C   0  0  0  0  0  0
  -26.4496  -31.6591   25.0731 C   0  0  0  0  0  0
  -25.3728  -31.3729   26.1457 C   0  0  0  0  0  0
  -27.0341  -30.3014   24.6192 C   0  0  0  0  0  0
  -27.6054  -32.4328   25.7500 C   0  0  0  0  0  0
  -27.5580  -37.1802   24.8464 C   0  0  0  0  0  0
  -21.4192  -29.3044   22.3677 N   0  0  0  0  0  0
  -26.4292  -37.3779   23.9408 N   0  0  0  0  0  0
  -24.6891  -31.0605   22.0985 N   0  0  0  0  0  0
  -23.4200  -28.8164   23.3018 O   0  0  0  0  0  0
  -28.3385  -26.4537   20.1716 O   0  0  0  0  0  0
  -26.5619  -34.8919   22.4672 O   0  0  0  0  0  0
  -23.5430  -32.1399   23.7354 O   0  0  0  0  0  0
  -30.8782  -17.9156   21.2920 C   0  0  0  0  0  0
  -28.9689  -19.3971   19.8742 C   0  0  0  0  0  0
  -30.8818  -19.3465   21.3296 C   0  0  0  0  0  0
  -28.9645  -17.9673   19.8321 C   0  0  0  0  0  0
  -29.9090  -17.1815   20.5629 C   0  0  0  0  0  0
  -29.9143  -20.1324   20.6337 C   0  0  0  0  0  0
  -29.1766  -23.9708   20.4042 C   0  0  0  0  0  0
  -27.9082  -17.3014   18.9699 C   0  0  0  0  0  0
  -33.1715  -20.4295   21.3264 C   0  0  0  0  0  0
  -31.9472  -20.0406   22.1625 C   0  0  0  0  0  0
  -28.0916  -25.0094   19.9165 C   0  0  0  0  0  0
  -28.9382  -22.4220   20.1460 C   0  0  0  0  0  0
  -29.7588  -15.7257   20.6711 N   0  0  0  0  0  0
  -30.1979  -24.3610   20.9827 O   0  0  0  0  0  0
  -29.9581  -21.5427   20.7327 O   0  0  0  0  0  0
  -31.4818  -12.5424   19.1436 H   0  0  0  0  0  0
  -30.3878  -11.4166   19.9020 H   0  0  0  0  0  0
  -29.7763  -11.7489   17.4833 H   0  0  0  0  0  0
  -29.6410  -13.4709   17.7333 H   0  0  0  0  0  0
  -27.8767  -11.2829   18.8791 H   0  0  0  0  0  0
  -27.3741  -12.5531   17.7959 H   0  0  0  0  0  0
  -27.6545  -14.2414   19.5044 H   0  0  0  0  0  0
  -28.7204  -12.0763   21.3863 H   0  0  0  0  0  0
  -28.4476  -13.7392   21.8281 H   0  0  0  0  0  0
  -25.2755   -9.5660   22.4761 H   0  0  0  0  0  0
  -23.9991   -7.4612   22.7473 H   0  0  0  0  0  0
  -21.0831   -8.8757   19.8952 H   0  0  0  0  0  0
  -22.3692  -10.9655   19.6164 H   0  0  0  0  0  0
  -21.1996   -7.6142   23.9714 H   0  0  0  0  0  0
  -21.1483   -6.0519   25.9079 H   0  0  0  0  0  0
  -22.0601   -2.7604   23.2850 H   0  0  0  0  0  0
  -22.4074  -11.9859   22.4815 H   0  0  0  0  0  0
  -21.1088  -13.1236   22.2630 H   0  0  0  0  0  0
  -24.6442  -15.8284   20.5302 H   0  0  0  0  0  0
  -26.2614  -15.6272   20.0882 H   0  0  0  0  0  0
  -26.7183  -32.5446   23.1107 H   0  0  0  0  0  0
  -25.0076  -33.9726   25.0428 H   0  0  0  0  0  0
  -22.7148  -31.3050   21.4036 H   0  0  0  0  0  0
  -23.3753  -35.9624   23.3303 H   0  0  0  0  0  0
  -24.3580  -36.8912   22.2053 H   0  0  0  0  0  0
  -23.7240  -37.6494   23.6659 H   0  0  0  0  0  0
  -26.0974  -31.5527   20.6099 H   0  0  0  0  0  0
  -26.8427  -30.8350   22.0072 H   0  0  0  0  0  0
  -28.1145  -28.9738   21.1976 H   0  0  0  0  0  0
  -25.9619  -25.9475   18.9721 H   0  0  0  0  0  0
  -23.9719  -27.3201   19.0000 H   0  0  0  0  0  0
  -23.7543  -30.5982   19.4052 H   0  0  0  0  0  0
  -22.7558  -29.2503   19.8584 H   0  0  0  0  0  0
  -25.1295  -36.1937   25.0823 H   0  0  0  0  0  0
  -20.9980  -28.3263   24.1403 H   0  0  0  0  0  0
  -20.5679  -26.2299   23.3610 H   0  0  0  0  0  0
  -21.6644  -26.7445   22.1199 H   0  0  0  0  0  0
  -19.6911  -25.6295   21.1243 H   0  0  0  0  0  0
  -19.6686  -27.3196   20.6744 H   0  0  0  0  0  0
  -17.4200  -26.6678   21.4029 H   0  0  0  0  0  0
  -18.0330  -26.0069   22.9020 H   0  0  0  0  0  0
  -19.7937  -30.7275   24.2264 H   0  0  0  0  0  0
  -17.5015  -31.6268   24.5164 H   0  0  0  0  0  0
  -15.5352  -30.2987   23.7656 H   0  0  0  0  0  0
  -15.8674  -28.0819   22.7073 H   0  0  0  0  0  0
  -24.5902  -30.7080   25.7784 H   0  0  0  0  0  0
  -24.8921  -32.2895   26.4886 H   0  0  0  0  0  0
  -25.8052  -30.8902   27.0231 H   0  0  0  0  0  0
  -26.2918  -29.6764   24.1214 H   0  0  0  0  0  0
  -27.4031  -29.7272   25.4700 H   0  0  0  0  0  0
  -27.8791  -30.4297   23.9424 H   0  0  0  0  0  0
  -27.2664  -33.3628   26.2076 H   0  0  0  0  0  0
  -28.3865  -32.6889   25.0329 H   0  0  0  0  0  0
  -28.0723  -31.8456   26.5418 H   0  0  0  0  0  0
  -28.2597  -38.0100   24.7517 H   0  0  0  0  0  0
  -28.1077  -36.2632   24.6286 H   0  0  0  0  0  0
  -27.2299  -37.1444   25.8867 H   0  0  0  0  0  0
  -20.9370  -29.8767   21.6887 H   0  0  0  0  0  0
  -26.0174  -38.2854   24.1411 H   0  0  0  0  0  0
  -31.6129  -17.3745   21.8720 H   0  0  0  0  0  0
  -28.2185  -19.9311   19.3092 H   0  0  0  0  0  0
  -27.6799  -17.9162   18.0987 H   0  0  0  0  0  0
  -26.9885  -17.1789   19.5374 H   0  0  0  0  0  0
  -28.2352  -16.3318   18.5957 H   0  0  0  0  0  0
  -33.9224  -20.9232   21.9436 H   0  0  0  0  0  0
  -32.8982  -21.1153   20.5236 H   0  0  0  0  0  0
  -33.6358  -19.5521   20.8754 H   0  0  0  0  0  0
  -32.2536  -19.3863   22.9798 H   0  0  0  0  0  0
  -31.5230  -20.9265   22.6370 H   0  0  0  0  0  0
  -27.1599  -24.7175   20.4020 H   0  0  0  0  0  0
  -27.9523  -24.8625   18.8453 H   0  0  0  0  0  0
  -28.9000  -22.2558   19.0694 H   0  0  0  0  0  0
  -27.9615  -22.1513   20.5475 H   0  0  0  0  0  0
  -28.8061  -15.4181   20.7820 H   0  0  0  0  0  0
  1 25  1  0  0  0
  1 30  2  0  0  0
  1 83  1  0  0  0
  2  3  1  0  0  0
  2 25  1  0  0  0
  2 86  1  0  0  0
  2 87  1  0  0  0
  3  4  1  0  0  0
  3 88  1  0  0  0
  3 89  1  0  0  0
  4  5  1  0  0  0
  4 90  1  0  0  0
  4 91  1  0  0  0
  5  6  1  0  0  0
  5 26  1  0  0  0
  5 92  1  0  0  0
  6 25  1  0  0  0
  6 93  1  0  0  0
  6 94  1  0  0  0
  7  8  2  0  0  0
  7 26  1  0  0  0
  7 29  1  0  0  0
  8  9  1  0  0  0
  8 22  1  0  0  0
  9 10  1  0  0  0
  9 27  2  0  0  0
 10 11  2  0  0  0
 10 15  1  0  0  0
 11 12  1  0  0  0
 11 95  1  0  0  0
 12 13  2  0  0  0
 12 96  1  0  0  0
 13 14  1  0  0  0
 13 31  1  0  0  0
 14 15  2  0  0  0
 14 97  1  0  0  0
 15 98  1  0  0  0
 16 17  2  0  0  0
 16 21  1  0  0  0
 16 31  1  0  0  0
 17 18  1  0  0  0
 17 99  1  0  0  0
 18 19  2  0  0  0
 18100  1  0  0  0
 19 20  1  0  0  0
 19 24  1  0  0  0
 20 21  2  0  0  0
 20101  1  0  0  0
 21 23  1  0  0  0
 22 28  1  0  0  0
 22 32  2  0  0  0
 26 27  1  0  0  0
 28102  1  0  0  0
 28103  1  0  0  0
 29104  1  0  0  0
 29105  1  0  0  0
 33 34  1  0  0  0
 33 66  1  0  0  0
 33 70  2  0  0  0
 34 36  1  0  0  0
 34 59  1  0  0  0
 34106  1  0  0  0
 35 44  2  0  0  0
 35 45  1  0  0  0
 35 68  1  0  0  0
 36 56  1  0  0  0
 36107  1  0  0  0
 37 39  1  0  0  0
 37 47  1  0  0  0
 37 66  1  0  0  0
 37108  1  0  0  0
 38 43  2  0  0  0
 38 46  1  0  0  0
 38 47  1  0  0  0
 39 64  1  0  0  0
 39 67  2  0  0  0
 40 52  1  0  0  0
 40 53  2  0  0  0
 40 58  1  0  0  0
 41109  1  0  0  0
 41110  1  0  0  0
 41111  1  0  0  0
 41 48  1  0  0  0
 42 43  1  0  0  0
 42 66  1  0  0  0
 42112  1  0  0  0
 42113  1  0  0  0
 43 44  1  0  0  0
 44114  1  0  0  0
 45 46  2  0  0  0
 45115  1  0  0  0
 46116  1  0  0  0
 47117  1  0  0  0
 47118  1  0  0  0
 48 56  1  0  0  0
 48 65  1  0  0  0
 48119  1  0  0  0
 49 50  1  0  0  0
 49 53  1  0  0  0
 49 64  1  0  0  0
 49120  1  0  0  0
 50 51  1  0  0  0
 50121  1  0  0  0
 50122  1  0  0  0
 51 52  1  0  0  0
 51123  1  0  0  0
 51124  1  0  0  0
 52125  1  0  0  0
 52126  1  0  0  0
 53 54  1  0  0  0
 54 55  2  0  0  0
 54127  1  0  0  0
 55 57  1  0  0  0
 55128  1  0  0  0
 56 69  2  0  0  0
 57 58  2  0  0  0
 57129  1  0  0  0
 58130  1  0  0  0
 59 60  1  0  0  0
 59 61  1  0  0  0
 59 62  1  0  0  0
 60131  1  0  0  0
 60132  1  0  0  0
 60133  1  0  0  0
 61134  1  0  0  0
 61135  1  0  0  0
 61136  1  0  0  0
 62137  1  0  0  0
 62138  1  0  0  0
 62139  1  0  0  0
 63 65  1  0  0  0
 63140  1  0  0  0
 63141  1  0  0  0
 63142  1  0  0  0
 64143  1  0  0  0
 65144  1  0  0  0
 68 81  1  0  0  0
 71 73  2  0  0  0
 71 75  1  0  0  0
 71145  1  0  0  0
 72 74  1  0  0  0
 72 76  2  0  0  0
 72146  1  0  0  0
 73 76  1  0  0  0
 73 80  1  0  0  0
 74 75  2  0  0  0
 74 78  1  0  0  0
 75 83  1  0  0  0
 76 85  1  0  0  0
 77 81  1  0  0  0
 77 82  1  0  0  0
 77 84  2  0  0  0
 78147  1  0  0  0
 78148  1  0  0  0
 78149  1  0  0  0
 79 80  1  0  0  0
 79150  1  0  0  0
 79151  1  0  0  0
 79152  1  0  0  0
 80153  1  0  0  0
 80154  1  0  0  0
 81155  1  0  0  0
 81156  1  0  0  0
 82 85  1  0  0  0
 82157  1  0  0  0
 82158  1  0  0  0
 83159  1  0  0  0
M  ISO  4   1 100  68 101  81 101  83 100
M  END
> <chiral flag>
0

> <version>
0

> <s_m_source_file>
/data/baiqing/PycharmProjects/Reinvent-master-3.2/result/LINK_invent/BTK/process_docking_weight1_custom_product_contain_oxygen_bond_distance_aromatic_linkinvent_7_9_3/rearranged_h_0134.sdf

> <i_m_source_file_index>
93

> <r_mmod_Potential_Energy-OPLS-2005>
58.310245513916

> <r_mmod_Stretch_Energy-OPLS-2005>
83.3811264038086

> <r_mmod_Bend_Energy-OPLS-2005>
139.127090454102

> <r_mmod_Torsional_Energy-OPLS-2005>
225.783050537109

> <r_mmod_Improper_Torsional_Energy-OPLS-2005>
6.3626823425293

> <r_mmod_Van_der_Waal_Energy-OPLS-2005>
139.065887451172

> <r_mmod_Electrostatic_Energy-OPLS-2005>
-347.348876953125

> <r_mmod_Solvation_Energy-OPLS-2005>
-244.87028503418

> <b_mmod_Minimization_Converged-OPLS-2005>
0

> <r_mmod_RMS_Derivative-OPLS-2005>
0.193601027131081

$$$$
93
                    3D
 Structure written by MMmdl.
165173  0  0  1  0            999 V2000
  -30.6228  -14.5387   20.5500 C   0  0  0  0  0  0
  -30.4424  -12.3442   19.4180 C   0  0  0  0  0  0
  -29.5012  -12.4910   18.2023 C   0  0  0  0  0  0
  -28.0199  -12.3444   18.6141 C   0  0  0  0  0  0
  -27.6558  -13.1918   19.8633 C   0  0  2  0  0  0
  -28.6991  -12.9801   20.9812 C   0  0  0  0  0  0
  -25.2602  -13.8105   20.5637 C   0  0  0  0  0  0
  -24.1837  -13.0415   20.9143 C   0  0  0  0  0  0
  -24.6360  -11.6877   20.8712 C   0  0  0  0  0  0
  -23.9030  -10.4279   21.0398 C   0  0  0  0  0  0
  -24.3600   -9.4204   21.9180 C   0  0  0  0  0  0
  -23.6282   -8.2238   22.0759 C   0  0  0  0  0  0
  -22.4269   -8.0272   21.3543 C   0  0  0  0  0  0
  -21.9893   -9.0237   20.4646 C   0  0  0  0  0  0
  -22.7205  -10.2119   20.3051 C   0  0  0  0  0  0
  -21.6851   -6.0734   22.5269 C   0  0  0  0  0  0
  -21.4013   -6.5641   23.8200 C   0  0  0  0  0  0
  -21.3661   -5.6794   24.9162 C   0  0  0  0  0  0
  -21.6043   -4.3055   24.7210 C   0  0  0  0  0  0
  -21.8829   -3.8149   23.4330 C   0  0  0  0  0  0
  -21.9194   -4.6966   22.3389 C   0  0  0  0  0  0
  -22.7881  -13.5245   21.1820 C   0  0  0  0  0  0
  -22.1665   -4.2156   21.0964 F   0  0  0  0  0  0
  -21.5631   -3.4542   25.7722 F   0  0  0  0  0  0
  -30.0162  -13.3266   20.4231 N   0  0  0  0  0  0
  -26.2995  -12.9228   20.3294 N   0  0  0  0  0  0
  -25.9272  -11.6410   20.5721 N   0  0  0  0  0  0
  -22.0521  -12.8245   22.0376 N   0  0  0  0  0  0
  -25.4360  -15.1826   20.4051 N   0  0  0  0  0  0
  -31.7873  -14.7448   20.1886 O   0  0  0  0  0  0
  -21.6636   -6.8872   21.4231 O   0  0  0  0  0  0
  -22.3587  -14.5567   20.6681 O   0  0  0  0  0  0
  -24.6215  -31.8632   23.2066 C   0  0  0  0  0  0
  -25.9078  -32.4792   23.8378 C   0  0  1  0  0  0
  -27.2278  -27.3853   20.0859 C   0  0  0  0  0  0
  -25.5911  -33.8593   24.2309 N   0  0  0  0  0  0
  -23.4118  -30.4870   21.5486 C   0  0  2  0  0  0
  -24.8508  -28.9469   20.1095 C   0  0  0  0  0  0
  -22.7449  -29.4614   22.4932 C   0  0  0  0  0  0
  -18.0279  -28.1362   22.8458 C   0  0  0  0  0  0
  -24.1478  -36.7327   23.2647 C   0  0  0  0  0  0
  -25.9445  -30.8106   21.3645 C   0  0  0  0  0  0
  -26.0145  -29.4405   20.7111 C   0  0  0  0  0  0
  -27.2003  -28.6664   20.6982 C   0  0  0  0  0  0
  -26.0351  -26.9073   19.4948 C   0  0  0  0  0  0
  -24.8590  -27.6814   19.5003 C   0  0  0  0  0  0
  -23.6202  -29.8263   20.1588 C   0  0  0  0  0  0
  -25.4088  -36.3102   24.0353 C   0  0  1  0  0  0
  -20.5879  -28.3655   23.1288 C   0  0  2  0  0  0
  -20.6758  -26.9379   22.5399 C   0  0  0  0  0  0
  -19.5738  -26.6363   21.5191 C   0  0  0  0  0  0
  -18.1916  -26.7887   22.1603 C   0  0  0  0  0  0
  -19.1537  -28.8817   23.2869 C   0  0  0  0  0  0
  -18.9466  -30.1417   23.8894 C   0  0  0  0  0  0
  -17.6468  -30.6570   24.0548 C   0  0  0  0  0  0
  -25.9026  -34.9467   23.5130 C   0  0  0  0  0  0
  -16.5355  -29.9075   23.6307 C   0  0  0  0  0  0
  -16.7264  -28.6495   23.0315 C   0  0  0  0  0  0
  -26.4479  -31.6596   25.0728 C   0  0  0  0  0  0
  -25.3738  -31.3738   26.1484 C   0  0  0  0  0  0
  -27.0322  -30.3043   24.6106 C   0  0  0  0  0  0
  -27.6041  -32.4336   25.7499 C   0  0  0  0  0  0
  -27.5575  -37.1810   24.8460 C   0  0  0  0  0  0
  -21.4169  -29.3029   22.3698 N   0  0  0  0  0  0
  -26.4275  -37.3786   23.9419 N   0  0  0  0  0  0
  -24.6797  -31.0682   22.0985 N   0  0  0  0  0  0
  -23.4194  -28.8116   23.2955 O   0  0  0  0  0  0
  -28.4052  -26.6508   20.1029 O   0  0  0  0  0  0
  -26.5580  -34.8927   22.4689 O   0  0  0  0  0  0
  -23.5395  -32.1409   23.7414 O   0  0  0  0  0  0
  -30.5895  -18.2892   23.2676 C   0  0  0  0  0  0
  -29.7288  -18.0255   20.6313 C   0  0  0  0  0  0
  -30.4409  -16.9978   22.7289 C   0  0  0  0  0  0
  -30.3316  -19.4543   22.5109 C   0  0  0  0  0  0
  -30.0342  -16.8518   21.3839 C   0  0  0  0  0  0
  -29.8610  -19.3421   21.1685 C   0  0  0  0  0  0
  -28.3720  -24.1320   20.2532 C   0  0  0  0  0  0
  -30.6996  -15.7925   23.6216 C   0  0  0  0  0  0
  -29.6468  -21.1265   24.3004 C   0  0  0  0  0  0
  -30.7207  -23.1651   20.1074 C   0  0  0  0  0  0
  -30.6569  -20.7741   23.1962 C   0  0  0  0  0  0
  -28.5352  -25.4028   19.3677 C   0  0  0  0  0  0
  -28.8044  -21.5514   20.6660 C   0  0  0  0  0  0
  -29.2196  -22.8646   19.9066 C   0  0  1  0  0  0
  -29.7678  -15.5432   20.8638 N   0  0  0  0  0  0
  -27.5750  -24.1228   21.1976 O   0  0  0  0  0  0
  -29.6417  -20.4205   20.3070 O   0  0  0  0  0  0
  -31.4806  -12.4936   19.1133 H   0  0  0  0  0  0
  -30.3881  -11.3365   19.8322 H   0  0  0  0  0  0
  -29.7480  -11.7430   17.4475 H   0  0  0  0  0  0
  -29.6571  -13.4633   17.7327 H   0  0  0  0  0  0
  -27.8363  -11.2890   18.8198 H   0  0  0  0  0  0
  -27.3716  -12.6057   17.7769 H   0  0  0  0  0  0
  -27.6916  -14.2347   19.5513 H   0  0  0  0  0  0
  -28.6962  -11.9386   21.3058 H   0  0  0  0  0  0
  -28.4572  -13.5653   21.8700 H   0  0  0  0  0  0
  -25.2748   -9.5699   22.4749 H   0  0  0  0  0  0
  -23.9998   -7.4642   22.7490 H   0  0  0  0  0  0
  -21.0826   -8.8747   19.8955 H   0  0  0  0  0  0
  -22.3655  -10.9662   19.6172 H   0  0  0  0  0  0
  -21.2004   -7.6149   23.9704 H   0  0  0  0  0  0
  -21.1479   -6.0522   25.9064 H   0  0  0  0  0  0
  -22.0609   -2.7613   23.2819 H   0  0  0  0  0  0
  -22.4136  -11.9895   22.4744 H   0  0  0  0  0  0
  -21.1159  -13.1310   22.2609 H   0  0  0  0  0  0
  -24.6661  -15.8363   20.4988 H   0  0  0  0  0  0
  -26.2835  -15.6211   20.0693 H   0  0  0  0  0  0
  -26.7134  -32.5475   23.1129 H   0  0  0  0  0  0
  -25.0088  -33.9730   25.0471 H   0  0  0  0  0  0
  -22.7049  -31.3077   21.4100 H   0  0  0  0  0  0
  -23.3727  -35.9676   23.3310 H   0  0  0  0  0  0
  -24.3590  -36.8939   22.2065 H   0  0  0  0  0  0
  -23.7244  -37.6544   23.6649 H   0  0  0  0  0  0
  -26.0569  -31.5687   20.5878 H   0  0  0  0  0  0
  -26.8377  -30.8714   21.9751 H   0  0  0  0  0  0
  -28.0992  -29.0448   21.1650 H   0  0  0  0  0  0
  -25.9765  -25.9307   19.0376 H   0  0  0  0  0  0
  -23.9619  -27.2932   19.0367 H   0  0  0  0  0  0
  -23.7367  -30.6097   19.4093 H   0  0  0  0  0  0
  -22.7396  -29.2591   19.8509 H   0  0  0  0  0  0
  -25.1251  -36.1985   25.0847 H   0  0  0  0  0  0
  -20.9968  -28.3214   24.1413 H   0  0  0  0  0  0
  -20.5633  -26.2256   23.3594 H   0  0  0  0  0  0
  -21.6628  -26.7377   22.1216 H   0  0  0  0  0  0
  -19.6899  -25.6280   21.1213 H   0  0  0  0  0  0
  -19.6692  -27.3175   20.6729 H   0  0  0  0  0  0
  -17.4177  -26.6628   21.4013 H   0  0  0  0  0  0
  -18.0334  -26.0025   22.9003 H   0  0  0  0  0  0
  -19.7952  -30.7216   24.2275 H   0  0  0  0  0  0
  -17.5034  -31.6242   24.5161 H   0  0  0  0  0  0
  -15.5366  -30.2983   23.7635 H   0  0  0  0  0  0
  -15.8651  -28.0842   22.7006 H   0  0  0  0  0  0
  -24.5891  -30.7081   25.7869 H   0  0  0  0  0  0
  -24.8931  -32.2908   26.4912 H   0  0  0  0  0  0
  -25.8079  -30.8947   27.0264 H   0  0  0  0  0  0
  -26.2878  -29.6797   24.1136 H   0  0  0  0  0  0
  -27.4104  -29.7272   25.4555 H   0  0  0  0  0  0
  -27.8696  -30.4402   23.9247 H   0  0  0  0  0  0
  -27.2654  -33.3639   26.2078 H   0  0  0  0  0  0
  -28.3848  -32.6905   25.0325 H   0  0  0  0  0  0
  -28.0699  -31.8459   26.5423 H   0  0  0  0  0  0
  -28.2575  -38.0119   24.7507 H   0  0  0  0  0  0
  -28.1086  -36.2651   24.6269 H   0  0  0  0  0  0
  -27.2300  -37.1446   25.8864 H   0  0  0  0  0  0
  -20.9312  -29.8871   21.7036 H   0  0  0  0  0  0
  -26.0171  -38.2867   24.1424 H   0  0  0  0  0  0
  -30.9218  -18.3913   24.2914 H   0  0  0  0  0  0
  -29.3829  -17.9223   19.6129 H   0  0  0  0  0  0
  -30.8108  -16.0829   24.6670 H   0  0  0  0  0  0
  -31.6120  -15.2769   23.3204 H   0  0  0  0  0  0
  -29.8701  -15.0880   23.5665 H   0  0  0  0  0  0
  -29.9099  -22.0653   24.7882 H   0  0  0  0  0  0
  -29.6246  -20.3563   25.0722 H   0  0  0  0  0  0
  -28.6339  -21.2235   23.9117 H   0  0  0  0  0  0
  -31.0771  -23.9315   19.4182 H   0  0  0  0  0  0
  -31.3311  -22.2800   19.9283 H   0  0  0  0  0  0
  -30.9333  -23.5079   21.1201 H   0  0  0  0  0  0
  -30.7639  -21.5801   22.4756 H   0  0  0  0  0  0
  -31.6453  -20.6806   23.6477 H   0  0  0  0  0  0
  -27.8647  -25.3510   18.5109 H   0  0  0  0  0  0
  -29.5336  -25.3908   18.9339 H   0  0  0  0  0  0
  -27.7819  -21.2971   20.3826 H   0  0  0  0  0  0
  -28.7517  -21.7342   21.7322 H   0  0  0  0  0  0
  -29.0630  -22.6787   18.8432 H   0  0  0  0  0  0
  -28.8083  -15.2441   20.9421 H   0  0  0  0  0  0
  1 25  1  0  0  0
  1 30  2  0  0  0
  1 85  1  0  0  0
  2  3  1  0  0  0
  2 25  1  0  0  0
  2 88  1  0  0  0
  2 89  1  0  0  0
  3  4  1  0  0  0
  3 90  1  0  0  0
  3 91  1  0  0  0
  4  5  1  0  0  0
  4 92  1  0  0  0
  4 93  1  0  0  0
  5  6  1  0  0  0
  5 26  1  0  0  0
  5 94  1  0  0  0
  6 25  1  0  0  0
  6 95  1  0  0  0
  6 96  1  0  0  0
  7  8  2  0  0  0
  7 26  1  0  0  0
  7 29  1  0  0  0
  8  9  1  0  0  0
  8 22  1  0  0  0
  9 10  1  0  0  0
  9 27  2  0  0  0
 10 11  2  0  0  0
 10 15  1  0  0  0
 11 12  1  0  0  0
 11 97  1  0  0  0
 12 13  2  0  0  0
 12 98  1  0  0  0
 13 14  1  0  0  0
 13 31  1  0  0  0
 14 15  2  0  0  0
 14 99  1  0  0  0
 15100  1  0  0  0
 16 17  2  0  0  0
 16 21  1  0  0  0
 16 31  1  0  0  0
 17 18  1  0  0  0
 17101  1  0  0  0
 18 19  2  0  0  0
 18102  1  0  0  0
 19 20  1  0  0  0
 19 24  1  0  0  0
 20 21  2  0  0  0
 20103  1  0  0  0
 21 23  1  0  0  0
 22 28  1  0  0  0
 22 32  2  0  0  0
 26 27  1  0  0  0
 28104  1  0  0  0
 28105  1  0  0  0
 29106  1  0  0  0
 29107  1  0  0  0
 33 34  1  0  0  0
 33 66  1  0  0  0
 33 70  2  0  0  0
 34 36  1  0  0  0
 34 59  1  0  0  0
 34108  1  0  0  0
 35 44  2  0  0  0
 35 45  1  0  0  0
 35 68  1  0  0  0
 36 56  1  0  0  0
 36109  1  0  0  0
 37 39  1  0  0  0
 37 47  1  0  0  0
 37 66  1  0  0  0
 37110  1  0  0  0
 38 43  2  0  0  0
 38 46  1  0  0  0
 38 47  1  0  0  0
 39 64  1  0  0  0
 39 67  2  0  0  0
 40 52  1  0  0  0
 40 53  2  0  0  0
 40 58  1  0  0  0
 41111  1  0  0  0
 41112  1  0  0  0
 41113  1  0  0  0
 41 48  1  0  0  0
 42 43  1  0  0  0
 42 66  1  0  0  0
 42114  1  0  0  0
 42115  1  0  0  0
 43 44  1  0  0  0
 44116  1  0  0  0
 45 46  2  0  0  0
 45117  1  0  0  0
 46118  1  0  0  0
 47119  1  0  0  0
 47120  1  0  0  0
 48 56  1  0  0  0
 48 65  1  0  0  0
 48121  1  0  0  0
 49 50  1  0  0  0
 49 53  1  0  0  0
 49 64  1  0  0  0
 49122  1  0  0  0
 50 51  1  0  0  0
 50123  1  0  0  0
 50124  1  0  0  0
 51 52  1  0  0  0
 51125  1  0  0  0
 51126  1  0  0  0
 52127  1  0  0  0
 52128  1  0  0  0
 53 54  1  0  0  0
 54 55  2  0  0  0
 54129  1  0  0  0
 55 57  1  0  0  0
 55130  1  0  0  0
 56 69  2  0  0  0
 57 58  2  0  0  0
 57131  1  0  0  0
 58132  1  0  0  0
 59 60  1  0  0  0
 59 61  1  0  0  0
 59 62  1  0  0  0
 60133  1  0  0  0
 60134  1  0  0  0
 60135  1  0  0  0
 61136  1  0  0  0
 61137  1  0  0  0
 61138  1  0  0  0
 62139  1  0  0  0
 62140  1  0  0  0
 62141  1  0  0  0
 63 65  1  0  0  0
 63142  1  0  0  0
 63143  1  0  0  0
 63144  1  0  0  0
 64145  1  0  0  0
 65146  1  0  0  0
 68 82  1  0  0  0
 71 73  2  0  0  0
 71 74  1  0  0  0
 71147  1  0  0  0
 72 75  2  0  0  0
 72 76  1  0  0  0
 72148  1  0  0  0
 73 75  1  0  0  0
 73 78  1  0  0  0
 74 76  2  0  0  0
 74 81  1  0  0  0
 75 85  1  0  0  0
 76 87  1  0  0  0
 77 82  1  0  0  0
 77 84  1  0  0  0
 77 86  2  0  0  0
 78149  1  0  0  0
 78150  1  0  0  0
 78151  1  0  0  0
 79 81  1  0  0  0
 79152  1  0  0  0
 79153  1  0  0  0
 79154  1  0  0  0
 80155  1  0  0  0
 80156  1  0  0  0
 80157  1  0  0  0
 80 84  1  0  0  0
 81158  1  0  0  0
 81159  1  0  0  0
 82160  1  0  0  0
 82161  1  0  0  0
 83 84  1  0  0  0
 83 87  1  0  0  0
 83162  1  0  0  0
 83163  1  0  0  0
 84164  1  0  0  0
 85165  1  0  0  0
M  ISO  4   1 100  68 101  82 101  85 100
M  END
> <chiral flag>
0

> <version>
0

> <s_m_source_file>
/data/baiqing/PycharmProjects/Reinvent-master-3.2/result/LINK_invent/BTK/process_docking_weight1_custom_product_contain_oxygen_bond_distance_aromatic_linkinvent_7_9_3/rearranged_h_0134.sdf

> <i_m_source_file_index>
94

> <r_mmod_Potential_Energy-OPLS-2005>
37.8351783752441

> <r_mmod_Stretch_Energy-OPLS-2005>
52.7601051330566

> <r_mmod_Bend_Energy-OPLS-2005>
128.793258666992

> <r_mmod_Torsional_Energy-OPLS-2005>
263.798095703125

> <r_mmod_Improper_Torsional_Energy-OPLS-2005>
7.52862024307251

> <r_mmod_Van_der_Waal_Energy-OPLS-2005>
148.306060791016

> <r_mmod_Electrostatic_Energy-OPLS-2005>
-365.189361572266

> <r_mmod_Solvation_Energy-OPLS-2005>
-222.355590820312

> <b_mmod_Minimization_Converged-OPLS-2005>
0

> <r_mmod_RMS_Derivative-OPLS-2005>
2.69575905799866

$$$$
