0
                    3D
 Structure written by MMmdl.
178187  0  0  1  0            999 V2000
  -30.6479  -14.5398   20.5205 C   0  0  0  0  0  0
  -30.4332  -12.3418   19.4317 C   0  0  0  0  0  0
  -29.4919  -12.5163   18.2188 C   0  0  0  0  0  0
  -28.0147  -12.3675   18.6294 C   0  0  0  0  0  0
  -27.6652  -13.2031   19.8879 C   0  0  2  0  0  0
  -28.7126  -12.9882   21.0072 C   0  0  0  0  0  0
  -25.2611  -13.8153   20.5714 C   0  0  0  0  0  0
  -24.1868  -13.0446   20.9197 C   0  0  0  0  0  0
  -24.6409  -11.6898   20.8792 C   0  0  0  0  0  0
  -23.9104  -10.4284   21.0456 C   0  0  0  0  0  0
  -24.3662   -9.4177   21.9207 C   0  0  0  0  0  0
  -23.6324   -8.2232   22.0749 C   0  0  0  0  0  0
  -22.4294   -8.0295   21.3542 C   0  0  0  0  0  0
  -21.9962   -9.0289   20.4658 C   0  0  0  0  0  0
  -22.7308  -10.2155   20.3082 C   0  0  0  0  0  0
  -21.6821   -6.0783   22.5276 C   0  0  0  0  0  0
  -21.4004   -6.5675   23.8226 C   0  0  0  0  0  0
  -21.3655   -5.6808   24.9180 C   0  0  0  0  0  0
  -21.6043   -4.3083   24.7204 C   0  0  0  0  0  0
  -21.8825   -3.8178   23.4310 C   0  0  0  0  0  0
  -21.9196   -4.7007   22.3379 C   0  0  0  0  0  0
  -22.7890  -13.5243   21.1828 C   0  0  0  0  0  0
  -22.1652   -4.2206   21.0965 F   0  0  0  0  0  0
  -21.5627   -3.4556   25.7707 F   0  0  0  0  0  0
  -30.0343  -13.3228   20.4525 N   0  0  0  0  0  0
  -26.3071  -12.9320   20.3470 N   0  0  0  0  0  0
  -25.9349  -11.6478   20.5870 N   0  0  0  0  0  0
  -22.0523  -12.8248   22.0376 N   0  0  0  0  0  0
  -25.4407  -15.1869   20.4052 N   0  0  0  0  0  0
  -31.7799  -14.7333   20.0725 O   0  0  0  0  0  0
  -21.6616   -6.8917   21.4245 O   0  0  0  0  0  0
  -22.3588  -14.5550   20.6640 O   0  0  0  0  0  0
  -24.6189  -31.8596   23.2081 C   0  0  0  0  0  0
  -25.9091  -32.4772   23.8352 C   0  0  1  0  0  0
  -27.2329  -27.3810   20.1278 C   0  0  0  0  0  0
  -25.5948  -33.8585   24.2276 N   0  0  0  0  0  0
  -23.4113  -30.4853   21.5428 C   0  0  2  0  0  0
  -24.8605  -28.9500   20.1126 C   0  0  0  0  0  0
  -22.7413  -29.4619   22.4908 C   0  0  0  0  0  0
  -18.0288  -28.1385   22.8492 C   0  0  0  0  0  0
  -24.1497  -36.7294   23.2633 C   0  0  0  0  0  0
  -25.9441  -30.8129   21.3703 C   0  0  0  0  0  0
  -26.0221  -29.4436   20.7190 C   0  0  0  0  0  0
  -27.2087  -28.6652   20.7288 C   0  0  0  0  0  0
  -26.0539  -26.9211   19.4980 C   0  0  0  0  0  0
  -24.8748  -27.6901   19.4970 C   0  0  0  0  0  0
  -23.6268  -29.8179   20.1575 C   0  0  0  0  0  0
  -25.4116  -36.3062   24.0318 C   0  0  1  0  0  0
  -20.5881  -28.3663   23.1298 C   0  0  2  0  0  0
  -20.6770  -26.9388   22.5393 C   0  0  0  0  0  0
  -19.5741  -26.6389   21.5200 C   0  0  0  0  0  0
  -18.1936  -26.7933   22.1615 C   0  0  0  0  0  0
  -19.1544  -28.8849   23.2905 C   0  0  0  0  0  0
  -18.9437  -30.1465   23.8900 C   0  0  0  0  0  0
  -17.6435  -30.6585   24.0573 C   0  0  0  0  0  0
  -25.9051  -34.9452   23.5078 C   0  0  0  0  0  0
  -16.5339  -29.9072   23.6331 C   0  0  0  0  0  0
  -16.7275  -28.6502   23.0344 C   0  0  0  0  0  0
  -26.4519  -31.6576   25.0701 C   0  0  0  0  0  0
  -25.3784  -31.3692   26.1455 C   0  0  0  0  0  0
  -27.0353  -30.3008   24.6117 C   0  0  0  0  0  0
  -27.6075  -32.4303   25.7476 C   0  0  0  0  0  0
  -27.5566  -37.1795   24.8454 C   0  0  0  0  0  0
  -21.4141  -29.3044   22.3679 N   0  0  0  0  0  0
  -26.4277  -37.3748   23.9396 N   0  0  0  0  0  0
  -24.6748  -31.0687   22.0979 N   0  0  0  0  0  0
  -23.4175  -28.8134   23.2948 O   0  0  0  0  0  0
  -28.3822  -26.6007   20.1567 O   0  0  0  0  0  0
  -26.5587  -34.8893   22.4616 O   0  0  0  0  0  0
  -23.5374  -32.1390   23.7442 O   0  0  0  0  0  0
  -29.1454  -19.4789   19.5333 C   0  0  0  0  0  0
  -29.0721  -17.0626   19.2368 C   0  0  0  0  0  0
  -28.7391  -18.3575   18.7671 C   0  0  0  0  0  0
  -29.8678  -19.3348   20.7408 C   0  0  0  0  0  0
  -30.1383  -18.0110   21.2235 C   0  0  0  0  0  0
  -29.7527  -16.8711   20.4645 C   0  0  0  0  0  0
  -27.3979  -21.6845   15.5968 C   0  0  0  0  0  0
  -27.1651  -20.6042   14.5507 C   0  0  0  0  0  0
  -27.6096  -20.9279   16.9027 C   0  0  0  0  0  0
  -27.8058  -19.3291   15.1358 C   0  0  0  0  0  0
  -30.7662  -17.7512   22.5897 C   0  0  0  0  0  0
  -31.7670  -22.4809   20.9804 C   0  0  0  0  0  0
  -27.8513  -18.4986   17.5109 C   0  0  0  0  0  0
  -30.2781  -20.5966   21.5391 C   0  0  0  0  0  0
  -29.4808  -24.3245   20.4813 C   0  0  0  0  0  0
  -29.2898  -22.8601   21.0262 C   0  0  0  0  0  0
  -28.2008  -25.2126   20.5493 C   0  0  0  0  0  0
  -29.8876  -15.5476   21.0080 N   0  0  0  0  0  0
  -28.1839  -19.6002   16.5532 N   0  3  0  0  0  0
  -30.4171  -21.8911   20.7842 N   0  3  1  0  0  0
  -31.4717  -12.4708   19.1268 H   0  0  0  0  0  0
  -30.3617  -11.3331   19.8398 H   0  0  0  0  0  0
  -29.7374  -11.7938   17.4404 H   0  0  0  0  0  0
  -29.6364  -13.5029   17.7769 H   0  0  0  0  0  0
  -27.8257  -11.3114   18.8270 H   0  0  0  0  0  0
  -27.3630  -12.6447   17.7969 H   0  0  0  0  0  0
  -27.7043  -14.2510   19.5879 H   0  0  0  0  0  0
  -28.7135  -11.9466   21.3331 H   0  0  0  0  0  0
  -28.4728  -13.5779   21.8938 H   0  0  0  0  0  0
  -25.2805   -9.5619   22.4796 H   0  0  0  0  0  0
  -24.0024   -7.4595   22.7443 H   0  0  0  0  0  0
  -21.0897   -8.8863   19.8938 H   0  0  0  0  0  0
  -22.3809  -10.9736   19.6210 H   0  0  0  0  0  0
  -21.1980   -7.6184   23.9749 H   0  0  0  0  0  0
  -21.1466   -6.0530   25.9092 H   0  0  0  0  0  0
  -22.0603   -2.7650   23.2785 H   0  0  0  0  0  0
  -22.4145  -11.9914   22.4768 H   0  0  0  0  0  0
  -21.1145  -13.1288   22.2577 H   0  0  0  0  0  0
  -24.6872  -15.8553   20.5167 H   0  0  0  0  0  0
  -26.3101  -15.6118   20.1112 H   0  0  0  0  0  0
  -26.7146  -32.5464   23.1094 H   0  0  0  0  0  0
  -25.0159  -33.9709   25.0474 H   0  0  0  0  0  0
  -22.7082  -31.3077   21.3942 H   0  0  0  0  0  0
  -23.3732  -35.9644   23.3290 H   0  0  0  0  0  0
  -24.3599  -36.8911   22.2039 H   0  0  0  0  0  0
  -23.7293  -37.6517   23.6666 H   0  0  0  0  0  0
  -26.0618  -31.5715   20.5969 H   0  0  0  0  0  0
  -26.8321  -30.8687   21.9906 H   0  0  0  0  0  0
  -28.0925  -29.0322   21.2318 H   0  0  0  0  0  0
  -26.0241  -25.9633   19.0002 H   0  0  0  0  0  0
  -23.9829  -27.3046   19.0219 H   0  0  0  0  0  0
  -23.7516  -30.5889   19.3954 H   0  0  0  0  0  0
  -22.7537  -29.2381   19.8500 H   0  0  0  0  0  0
  -25.1305  -36.1879   25.0805 H   0  0  0  0  0  0
  -21.0004  -28.3236   24.1415 H   0  0  0  0  0  0
  -20.5679  -26.2252   23.3584 H   0  0  0  0  0  0
  -21.6640  -26.7442   22.1195 H   0  0  0  0  0  0
  -19.6907  -25.6313   21.1218 H   0  0  0  0  0  0
  -19.6713  -27.3212   20.6746 H   0  0  0  0  0  0
  -17.4206  -26.6696   21.4022 H   0  0  0  0  0  0
  -18.0357  -26.0083   22.9009 H   0  0  0  0  0  0
  -19.7918  -30.7299   24.2260 H   0  0  0  0  0  0
  -17.4986  -31.6264   24.5156 H   0  0  0  0  0  0
  -15.5342  -30.2955   23.7687 H   0  0  0  0  0  0
  -15.8677  -28.0831   22.7028 H   0  0  0  0  0  0
  -24.5977  -30.7014   25.7804 H   0  0  0  0  0  0
  -24.8984  -32.2847   26.4912 H   0  0  0  0  0  0
  -25.8175  -30.8874   27.0198 H   0  0  0  0  0  0
  -26.2888  -29.6753   24.1219 H   0  0  0  0  0  0
  -27.4135  -29.7288   25.4597 H   0  0  0  0  0  0
  -27.8722  -30.4300   23.9255 H   0  0  0  0  0  0
  -27.2695  -33.3586   26.2092 H   0  0  0  0  0  0
  -28.3909  -32.6878   25.0338 H   0  0  0  0  0  0
  -28.0738  -31.8410   26.5383 H   0  0  0  0  0  0
  -28.2572  -38.0096   24.7501 H   0  0  0  0  0  0
  -28.1072  -36.2640   24.6288 H   0  0  0  0  0  0
  -27.2290  -37.1447   25.8852 H   0  0  0  0  0  0
  -20.9293  -29.8755   21.6912 H   0  0  0  0  0  0
  -26.0152  -38.2799   24.1431 H   0  0  0  0  0  0
  -28.8716  -20.4651   19.2184 H   0  0  0  0  0  0
  -28.7374  -16.1989   18.6794 H   0  0  0  0  0  0
  -26.5747  -22.4003   15.6691 H   0  0  0  0  0  0
  -28.3021  -22.2432   15.3455 H   0  0  0  0  0  0
  -27.6089  -20.8743   13.5900 H   0  0  0  0  0  0
  -26.0936  -20.4779   14.3813 H   0  0  0  0  0  0
  -26.6534  -20.8184   17.4240 H   0  0  0  0  0  0
  -28.2587  -21.5257   17.5377 H   0  0  0  0  0  0
  -28.7007  -19.0615   14.5706 H   0  0  0  0  0  0
  -27.1132  -18.4932   15.0228 H   0  0  0  0  0  0
  -31.0839  -18.6393   23.1284 H   0  0  0  0  0  0
  -31.6249  -17.0847   22.4821 H   0  0  0  0  0  0
  -30.0356  -17.2501   23.2253 H   0  0  0  0  0  0
  -32.5548  -21.7599   20.7493 H   0  0  0  0  0  0
  -31.8980  -22.8075   22.0144 H   0  0  0  0  0  0
  -31.9407  -23.3361   20.3291 H   0  0  0  0  0  0
  -26.8109  -18.5856   17.8186 H   0  0  0  0  0  0
  -27.9032  -17.5511   16.9714 H   0  0  0  0  0  0
  -31.2533  -20.3740   21.9605 H   0  0  0  0  0  0
  -29.6156  -20.7062   22.3962 H   0  0  0  0  0  0
  -30.2646  -24.8228   21.0554 H   0  0  0  0  0  0
  -29.8249  -24.2847   19.4466 H   0  0  0  0  0  0
  -28.3914  -22.4201   20.5915 H   0  0  0  0  0  0
  -29.0976  -22.9134   22.0975 H   0  0  0  0  0  0
  -27.8069  -25.2028   21.5661 H   0  0  0  0  0  0
  -27.4571  -24.7149   19.9297 H   0  0  0  0  0  0
  -29.1047  -15.2456   21.5708 H   0  0  0  0  0  0
  -29.1888  -19.6818   16.5401 H   0  0  0  0  0  0
  -30.3819  -21.6375   19.8103 H   0  0  0  0  0  0
  1 25  1  0  0  0
  1 30  2  0  0  0
  1 88  1  0  0  0
  2  3  1  0  0  0
  2 25  1  0  0  0
  2 91  1  0  0  0
  2 92  1  0  0  0
  3  4  1  0  0  0
  3 93  1  0  0  0
  3 94  1  0  0  0
  4  5  1  0  0  0
  4 95  1  0  0  0
  4 96  1  0  0  0
  5  6  1  0  0  0
  5 26  1  0  0  0
  5 97  1  0  0  0
  6 25  1  0  0  0
  6 98  1  0  0  0
  6 99  1  0  0  0
  7  8  2  0  0  0
  7 26  1  0  0  0
  7 29  1  0  0  0
  8  9  1  0  0  0
  8 22  1  0  0  0
  9 10  1  0  0  0
  9 27  2  0  0  0
 10 11  2  0  0  0
 10 15  1  0  0  0
 11 12  1  0  0  0
 11100  1  0  0  0
 12 13  2  0  0  0
 12101  1  0  0  0
 13 14  1  0  0  0
 13 31  1  0  0  0
 14 15  2  0  0  0
 14102  1  0  0  0
 15103  1  0  0  0
 16 17  2  0  0  0
 16 21  1  0  0  0
 16 31  1  0  0  0
 17 18  1  0  0  0
 17104  1  0  0  0
 18 19  2  0  0  0
 18105  1  0  0  0
 19 20  1  0  0  0
 19 24  1  0  0  0
 20 21  2  0  0  0
 20106  1  0  0  0
 21 23  1  0  0  0
 22 28  1  0  0  0
 22 32  2  0  0  0
 26 27  1  0  0  0
 28107  1  0  0  0
 28108  1  0  0  0
 29109  1  0  0  0
 29110  1  0  0  0
 33 34  1  0  0  0
 33 66  1  0  0  0
 33 70  2  0  0  0
 34 36  1  0  0  0
 34 59  1  0  0  0
 34111  1  0  0  0
 35 44  2  0  0  0
 35 45  1  0  0  0
 35 68  1  0  0  0
 36 56  1  0  0  0
 36112  1  0  0  0
 37 39  1  0  0  0
 37 47  1  0  0  0
 37 66  1  0  0  0
 37113  1  0  0  0
 38 43  2  0  0  0
 38 46  1  0  0  0
 38 47  1  0  0  0
 39 64  1  0  0  0
 39 67  2  0  0  0
 40 52  1  0  0  0
 40 53  2  0  0  0
 40 58  1  0  0  0
 41114  1  0  0  0
 41115  1  0  0  0
 41116  1  0  0  0
 41 48  1  0  0  0
 42 43  1  0  0  0
 42 66  1  0  0  0
 42117  1  0  0  0
 42118  1  0  0  0
 43 44  1  0  0  0
 44119  1  0  0  0
 45 46  2  0  0  0
 45120  1  0  0  0
 46121  1  0  0  0
 47122  1  0  0  0
 47123  1  0  0  0
 48 56  1  0  0  0
 48 65  1  0  0  0
 48124  1  0  0  0
 49 50  1  0  0  0
 49 53  1  0  0  0
 49 64  1  0  0  0
 49125  1  0  0  0
 50 51  1  0  0  0
 50126  1  0  0  0
 50127  1  0  0  0
 51 52  1  0  0  0
 51128  1  0  0  0
 51129  1  0  0  0
 52130  1  0  0  0
 52131  1  0  0  0
 53 54  1  0  0  0
 54 55  2  0  0  0
 54132  1  0  0  0
 55 57  1  0  0  0
 55133  1  0  0  0
 56 69  2  0  0  0
 57 58  2  0  0  0
 57134  1  0  0  0
 58135  1  0  0  0
 59 60  1  0  0  0
 59 61  1  0  0  0
 59 62  1  0  0  0
 60136  1  0  0  0
 60137  1  0  0  0
 60138  1  0  0  0
 61139  1  0  0  0
 61140  1  0  0  0
 61141  1  0  0  0
 62142  1  0  0  0
 62143  1  0  0  0
 62144  1  0  0  0
 63 65  1  0  0  0
 63145  1  0  0  0
 63146  1  0  0  0
 63147  1  0  0  0
 64148  1  0  0  0
 65149  1  0  0  0
 68 87  1  0  0  0
 71 73  2  0  0  0
 71 74  1  0  0  0
 71150  1  0  0  0
 72 73  1  0  0  0
 72 76  2  0  0  0
 72151  1  0  0  0
 73 83  1  0  0  0
 74 75  2  0  0  0
 74 84  1  0  0  0
 75 76  1  0  0  0
 75 81  1  0  0  0
 76 88  1  0  0  0
 77 78  1  0  0  0
 77 79  1  0  0  0
 77152  1  0  0  0
 77153  1  0  0  0
 78 80  1  0  0  0
 78154  1  0  0  0
 78155  1  0  0  0
 79 89  1  0  0  0
 79156  1  0  0  0
 79157  1  0  0  0
 80 89  1  0  0  0
 80158  1  0  0  0
 80159  1  0  0  0
 81160  1  0  0  0
 81161  1  0  0  0
 81162  1  0  0  0
 82163  1  0  0  0
 82164  1  0  0  0
 82165  1  0  0  0
 82 90  1  0  0  0
 83166  1  0  0  0
 83167  1  0  0  0
 83 89  1  0  0  0
 84 90  1  0  0  0
 84168  1  0  0  0
 84169  1  0  0  0
 85 86  1  0  0  0
 85 87  1  0  0  0
 85170  1  0  0  0
 85171  1  0  0  0
 86 90  1  0  0  0
 86172  1  0  0  0
 86173  1  0  0  0
 87174  1  0  0  0
 87175  1  0  0  0
 88176  1  0  0  0
 89177  1  0  0  0
 90178  1  0  0  0
M  CHG  2  89   1  90   1
M  ISO  4   1 100  68 101  87 101  88 100
M  END
> <chiral flag>
0

> <version>
0

> <s_m_source_file>
/data/baiqing/PycharmProjects/Reinvent-master-3.2/result/LINK_invent/BTK/process_docking_weight1_custom_product_contain_oxygen_bond_distance_aromatic_linkinvent_7_9_3/rearranged_h_0019.sdf

> <i_m_source_file_index>
1

> <r_mmod_Potential_Energy-OPLS-2005>
-157.31657409668

> <r_mmod_Stretch_Energy-OPLS-2005>
56.4184112548828

> <r_mmod_Bend_Energy-OPLS-2005>
131.240493774414

> <r_mmod_Torsional_Energy-OPLS-2005>
344.843811035156

> <r_mmod_Improper_Torsional_Energy-OPLS-2005>
5.65860939025879

> <r_mmod_Van_der_Waal_Energy-OPLS-2005>
153.371398925781

> <r_mmod_Electrostatic_Energy-OPLS-2005>
54.4901275634766

> <r_mmod_Solvation_Energy-OPLS-2005>
-926.817260742188

> <b_mmod_Minimization_Converged-OPLS-2005>
0

> <r_mmod_RMS_Derivative-OPLS-2005>
6.98557758331299

$$$$
1
                    3D
 Structure written by MMmdl.
147155  0  0  1  0            999 V2000
  -30.4826  -15.1847   20.3801 C   0  0  0  0  0  0
  -30.4382  -12.7536   19.5172 C   0  0  0  0  0  0
  -29.5297  -12.5574   18.2790 C   0  0  0  0  0  0
  -28.0759  -12.2970   18.7091 C   0  0  0  0  0  0
  -27.6156  -13.2680   19.8255 C   0  0  2  0  0  0
  -28.6532  -13.4170   20.9588 C   0  0  0  0  0  0
  -25.2408  -13.8239   20.5741 C   0  0  0  0  0  0
  -24.1749  -13.0439   20.9249 C   0  0  0  0  0  0
  -24.6394  -11.6933   20.8765 C   0  0  0  0  0  0
  -23.9088  -10.4294   21.0411 C   0  0  0  0  0  0
  -24.3633   -9.4208   21.9188 C   0  0  0  0  0  0
  -23.6304   -8.2244   22.0753 C   0  0  0  0  0  0
  -22.4286   -8.0284   21.3543 C   0  0  0  0  0  0
  -21.9928   -9.0258   20.4644 C   0  0  0  0  0  0
  -22.7260  -10.2135   20.3057 C   0  0  0  0  0  0
  -21.6856   -6.0740   22.5276 C   0  0  0  0  0  0
  -21.4017   -6.5642   23.8211 C   0  0  0  0  0  0
  -21.3660   -5.6793   24.9173 C   0  0  0  0  0  0
  -21.6044   -4.3055   24.7222 C   0  0  0  0  0  0
  -21.8820   -3.8148   23.4342 C   0  0  0  0  0  0
  -21.9196   -4.6967   22.3400 C   0  0  0  0  0  0
  -22.7768  -13.5199   21.1896 C   0  0  0  0  0  0
  -22.1663   -4.2155   21.0977 F   0  0  0  0  0  0
  -21.5632   -3.4537   25.7734 F   0  0  0  0  0  0
  -29.8956  -13.8962   20.3331 N   0  0  0  0  0  0
  -26.2834  -12.9502   20.3234 N   0  0  0  0  0  0
  -25.9330  -11.6614   20.5732 N   0  0  0  0  0  0
  -22.0426  -12.8178   22.0450 N   0  0  0  0  0  0
  -25.4045  -15.1971   20.4167 N   0  0  0  0  0  0
  -31.7019  -15.1802   20.1664 O   0  0  0  0  0  0
  -21.6645   -6.8884   21.4239 O   0  0  0  0  0  0
  -22.3450  -14.5506   20.6740 O   0  0  0  0  0  0
  -24.6593  -31.8288   23.1761 C   0  0  0  0  0  0
  -25.9295  -32.4622   23.8202 C   0  0  1  0  0  0
  -27.2158  -26.9739   20.1721 C   0  0  0  0  0  0
  -25.5979  -33.8431   24.2109 N   0  0  0  0  0  0
  -23.4709  -30.4438   21.5248 C   0  0  2  0  0  0
  -24.9243  -28.8442   20.1116 C   0  0  0  0  0  0
  -22.7648  -29.4469   22.4803 C   0  0  0  0  0  0
  -18.0319  -28.1411   22.8479 C   0  0  0  0  0  0
  -24.1486  -36.7213   23.2644 C   0  0  0  0  0  0
  -26.0384  -30.6513   21.3993 C   0  0  0  0  0  0
  -26.1082  -29.2461   20.7427 C   0  0  0  0  0  0
  -27.2506  -28.3306   20.7526 C   0  0  0  0  0  0
  -26.0038  -26.7218   19.4883 C   0  0  0  0  0  0
  -24.8952  -27.6009   19.4649 C   0  0  0  0  0  0
  -23.7085  -29.7654   20.1492 C   0  0  0  0  0  0
  -25.4127  -36.2989   24.0303 C   0  0  1  0  0  0
  -20.5941  -28.3754   23.1200 C   0  0  2  0  0  0
  -20.6795  -26.9439   22.5404 C   0  0  0  0  0  0
  -19.5766  -26.6387   21.5218 C   0  0  0  0  0  0
  -18.1950  -26.7945   22.1630 C   0  0  0  0  0  0
  -19.1581  -28.8903   23.2826 C   0  0  0  0  0  0
  -18.9491  -30.1493   23.8862 C   0  0  0  0  0  0
  -17.6484  -30.6604   24.0562 C   0  0  0  0  0  0
  -25.9090  -34.9369   23.5026 C   0  0  0  0  0  0
  -16.5374  -29.9094   23.6347 C   0  0  0  0  0  0
  -16.7300  -28.6513   23.0369 C   0  0  0  0  0  0
  -26.4558  -31.6545   25.0706 C   0  0  0  0  0  0
  -25.3698  -31.3786   26.1373 C   0  0  0  0  0  0
  -27.0445  -30.2921   24.6395 C   0  0  0  0  0  0
  -27.6059  -32.4339   25.7509 C   0  0  0  0  0  0
  -27.5566  -37.1766   24.8469 C   0  0  0  0  0  0
  -21.4322  -29.3049   22.3550 N   0  0  0  0  0  0
  -26.4277  -37.3721   23.9414 N   0  0  0  0  0  0
  -24.7439  -30.9995   22.0879 N   0  0  0  0  0  0
  -23.4217  -28.8033   23.3023 O   0  0  0  0  0  0
  -28.2023  -25.8672   20.2597 O   0  0  0  0  0  0
  -26.5691  -34.8896   22.4611 O   0  0  0  0  0  0
  -23.5672  -32.1231   23.6884 O   0  0  0  0  0  0
  -30.3112  -20.8330   20.1721 C   0  0  0  0  0  0
  -29.8730  -22.2508   20.1182 C   0  0  0  0  0  0
  -28.1447  -20.1129   20.4499 C   0  0  0  0  0  0
  -29.5044  -19.6232   20.3334 C   0  0  0  0  0  0
  -28.5122  -22.7376   20.2338 C   0  0  0  0  0  0
  -27.6961  -21.5299   20.3975 C   0  0  0  0  0  0
  -30.2068  -18.0332   20.3627 C   0  0  0  0  0  0
  -27.8112  -24.3111   20.0016 C   0  0  0  0  0  0
  -29.7489  -16.4577   20.4582 N   0  0  0  0  0  0
  -26.3583  -21.7224   20.4849 F   0  0  0  0  0  0
  -31.4606  -12.9430   19.1865 H   0  0  0  0  0  0
  -30.4874  -11.8403   20.1123 H   0  0  0  0  0  0
  -29.8933  -11.7311   17.6662 H   0  0  0  0  0  0
  -29.5712  -13.4480   17.6501 H   0  0  0  0  0  0
  -28.0227  -11.2703   19.0733 H   0  0  0  0  0  0
  -27.4059  -12.3513   17.8504 H   0  0  0  0  0  0
  -27.5397  -14.2408   19.3385 H   0  0  0  0  0  0
  -28.8028  -12.4766   21.4912 H   0  0  0  0  0  0
  -28.3082  -14.1424   21.6975 H   0  0  0  0  0  0
  -25.2776   -9.5685   22.4767 H   0  0  0  0  0  0
  -24.0015   -7.4635   22.7471 H   0  0  0  0  0  0
  -21.0862   -8.8777   19.8945 H   0  0  0  0  0  0
  -22.3719  -10.9676   19.6167 H   0  0  0  0  0  0
  -21.2005   -7.6150   23.9716 H   0  0  0  0  0  0
  -21.1482   -6.0522   25.9076 H   0  0  0  0  0  0
  -22.0598   -2.7612   23.2837 H   0  0  0  0  0  0
  -22.4069  -11.9853   22.4839 H   0  0  0  0  0  0
  -21.1033  -13.1172   22.2653 H   0  0  0  0  0  0
  -24.6326  -15.8455   20.5274 H   0  0  0  0  0  0
  -26.2437  -15.6381   20.0639 H   0  0  0  0  0  0
  -26.7362  -32.5185   23.0917 H   0  0  0  0  0  0
  -25.0091  -33.9515   25.0237 H   0  0  0  0  0  0
  -22.7817  -31.2742   21.3591 H   0  0  0  0  0  0
  -23.3765  -35.9528   23.3289 H   0  0  0  0  0  0
  -24.3560  -36.8873   22.2062 H   0  0  0  0  0  0
  -23.7229  -37.6391   23.6705 H   0  0  0  0  0  0
  -26.2098  -31.3950   20.6200 H   0  0  0  0  0  0
  -26.9015  -30.7093   22.0506 H   0  0  0  0  0  0
  -28.1437  -28.6333   21.2801 H   0  0  0  0  0  0
  -25.8657  -25.7759   18.9873 H   0  0  0  0  0  0
  -23.9959  -27.2884   18.9520 H   0  0  0  0  0  0
  -23.8608  -30.5356   19.3926 H   0  0  0  0  0  0
  -22.8198  -29.2173   19.8324 H   0  0  0  0  0  0
  -25.1321  -36.1792   25.0796 H   0  0  0  0  0  0
  -21.0032  -28.3364   24.1322 H   0  0  0  0  0  0
  -20.5681  -26.2370   23.3640 H   0  0  0  0  0  0
  -21.6656  -26.7418   22.1205 H   0  0  0  0  0  0
  -19.6917  -25.6289   21.1271 H   0  0  0  0  0  0
  -19.6702  -27.3174   20.6729 H   0  0  0  0  0  0
  -17.4215  -26.6697   21.4036 H   0  0  0  0  0  0
  -18.0349  -26.0090   22.9028 H   0  0  0  0  0  0
  -19.7965  -30.7323   24.2215 H   0  0  0  0  0  0
  -17.5036  -31.6282   24.5169 H   0  0  0  0  0  0
  -15.5373  -30.2987   23.7690 H   0  0  0  0  0  0
  -15.8700  -28.0817   22.7112 H   0  0  0  0  0  0
  -24.5903  -30.7100   25.7702 H   0  0  0  0  0  0
  -24.8854  -32.2981   26.4672 H   0  0  0  0  0  0
  -25.7946  -30.9057   27.0236 H   0  0  0  0  0  0
  -26.3101  -29.6617   24.1367 H   0  0  0  0  0  0
  -27.3964  -29.7264   25.5031 H   0  0  0  0  0  0
  -27.9048  -30.4117   23.9807 H   0  0  0  0  0  0
  -27.2642  -33.3685   26.1966 H   0  0  0  0  0  0
  -28.3941  -32.6821   25.0388 H   0  0  0  0  0  0
  -28.0642  -31.8536   26.5527 H   0  0  0  0  0  0
  -28.2578  -38.0067   24.7513 H   0  0  0  0  0  0
  -28.1068  -36.2595   24.6304 H   0  0  0  0  0  0
  -27.2279  -37.1417   25.8871 H   0  0  0  0  0  0
  -20.9567  -29.8752   21.6694 H   0  0  0  0  0  0
  -26.0128  -38.2781   24.1431 H   0  0  0  0  0  0
  -31.3754  -20.6730   20.0632 H   0  0  0  0  0  0
  -30.6406  -22.9935   19.9510 H   0  0  0  0  0  0
  -27.3715  -19.3688   20.5746 H   0  0  0  0  0  0
  -30.9257  -18.1126   21.1792 H   0  0  0  0  0  0
  -30.8383  -18.0393   19.4733 H   0  0  0  0  0  0
  -26.8545  -24.2162   20.5150 H   0  0  0  0  0  0
  -27.5553  -24.2872   18.9425 H   0  0  0  0  0  0
  -28.7551  -16.3326   20.5813 H   0  0  0  0  0  0
  1 25  1  0  0  0
  1 30  2  0  0  0
  1 79  1  0  0  0
  2  3  1  0  0  0
  2 25  1  0  0  0
  2 81  1  0  0  0
  2 82  1  0  0  0
  3  4  1  0  0  0
  3 83  1  0  0  0
  3 84  1  0  0  0
  4  5  1  0  0  0
  4 85  1  0  0  0
  4 86  1  0  0  0
  5  6  1  0  0  0
  5 26  1  0  0  0
  5 87  1  0  0  0
  6 25  1  0  0  0
  6 88  1  0  0  0
  6 89  1  0  0  0
  7  8  2  0  0  0
  7 26  1  0  0  0
  7 29  1  0  0  0
  8  9  1  0  0  0
  8 22  1  0  0  0
  9 10  1  0  0  0
  9 27  2  0  0  0
 10 11  2  0  0  0
 10 15  1  0  0  0
 11 12  1  0  0  0
 11 90  1  0  0  0
 12 13  2  0  0  0
 12 91  1  0  0  0
 13 14  1  0  0  0
 13 31  1  0  0  0
 14 15  2  0  0  0
 14 92  1  0  0  0
 15 93  1  0  0  0
 16 17  2  0  0  0
 16 21  1  0  0  0
 16 31  1  0  0  0
 17 18  1  0  0  0
 17 94  1  0  0  0
 18 19  2  0  0  0
 18 95  1  0  0  0
 19 20  1  0  0  0
 19 24  1  0  0  0
 20 21  2  0  0  0
 20 96  1  0  0  0
 21 23  1  0  0  0
 22 28  1  0  0  0
 22 32  2  0  0  0
 26 27  1  0  0  0
 28 97  1  0  0  0
 28 98  1  0  0  0
 29 99  1  0  0  0
 29100  1  0  0  0
 33 34  1  0  0  0
 33 66  1  0  0  0
 33 70  2  0  0  0
 34 36  1  0  0  0
 34 59  1  0  0  0
 34101  1  0  0  0
 35 44  2  0  0  0
 35 45  1  0  0  0
 35 68  1  0  0  0
 36 56  1  0  0  0
 36102  1  0  0  0
 37 39  1  0  0  0
 37 47  1  0  0  0
 37 66  1  0  0  0
 37103  1  0  0  0
 38 43  2  0  0  0
 38 46  1  0  0  0
 38 47  1  0  0  0
 39 64  1  0  0  0
 39 67  2  0  0  0
 40 52  1  0  0  0
 40 53  2  0  0  0
 40 58  1  0  0  0
 41104  1  0  0  0
 41105  1  0  0  0
 41106  1  0  0  0
 41 48  1  0  0  0
 42 43  1  0  0  0
 42 66  1  0  0  0
 42107  1  0  0  0
 42108  1  0  0  0
 43 44  1  0  0  0
 44109  1  0  0  0
 45 46  2  0  0  0
 45110  1  0  0  0
 46111  1  0  0  0
 47112  1  0  0  0
 47113  1  0  0  0
 48 56  1  0  0  0
 48 65  1  0  0  0
 48114  1  0  0  0
 49 50  1  0  0  0
 49 53  1  0  0  0
 49 64  1  0  0  0
 49115  1  0  0  0
 50 51  1  0  0  0
 50116  1  0  0  0
 50117  1  0  0  0
 51 52  1  0  0  0
 51118  1  0  0  0
 51119  1  0  0  0
 52120  1  0  0  0
 52121  1  0  0  0
 53 54  1  0  0  0
 54 55  2  0  0  0
 54122  1  0  0  0
 55 57  1  0  0  0
 55123  1  0  0  0
 56 69  2  0  0  0
 57 58  2  0  0  0
 57124  1  0  0  0
 58125  1  0  0  0
 59 60  1  0  0  0
 59 61  1  0  0  0
 59 62  1  0  0  0
 60126  1  0  0  0
 60127  1  0  0  0
 60128  1  0  0  0
 61129  1  0  0  0
 61130  1  0  0  0
 61131  1  0  0  0
 62132  1  0  0  0
 62133  1  0  0  0
 62134  1  0  0  0
 63 65  1  0  0  0
 63135  1  0  0  0
 63136  1  0  0  0
 63137  1  0  0  0
 64138  1  0  0  0
 65139  1  0  0  0
 68 78  1  0  0  0
 71 72  2  0  0  0
 71 74  1  0  0  0
 71140  1  0  0  0
 72 75  1  0  0  0
 72141  1  0  0  0
 73 74  2  0  0  0
 73 76  1  0  0  0
 73142  1  0  0  0
 74 77  1  0  0  0
 75 76  2  0  0  0
 75 78  1  0  0  0
 76 80  1  0  0  0
 77 79  1  0  0  0
 77143  1  0  0  0
 77144  1  0  0  0
 78145  1  0  0  0
 78146  1  0  0  0
 79147  1  0  0  0
M  ISO  4   1 100  68 101  78 101  79 100
M  END
> <chiral flag>
0

> <version>
0

> <s_m_source_file>
/data/baiqing/PycharmProjects/Reinvent-master-3.2/result/LINK_invent/BTK/process_docking_weight1_custom_product_contain_oxygen_bond_distance_aromatic_linkinvent_7_9_3/rearranged_h_0019.sdf

> <i_m_source_file_index>
2

> <r_mmod_Potential_Energy-OPLS-2005>
1020.87054443359

> <r_mmod_Stretch_Energy-OPLS-2005>
446.756439208984

> <r_mmod_Bend_Energy-OPLS-2005>
431.267242431641

> <r_mmod_Torsional_Energy-OPLS-2005>
208.694320678711

> <r_mmod_Improper_Torsional_Energy-OPLS-2005>
5.31454849243164

> <r_mmod_Van_der_Waal_Energy-OPLS-2005>
132.753433227539

> <r_mmod_Electrostatic_Energy-OPLS-2005>
-381.897827148438

> <r_mmod_Solvation_Energy-OPLS-2005>
-209.788604736328

> <b_mmod_Minimization_Converged-OPLS-2005>
0

> <r_mmod_RMS_Derivative-OPLS-2005>
0.852894365787506

$$$$
2
                    3D
 Structure written by MMmdl.
160169  0  0  1  0            999 V2000
  -30.6660  -14.4987   20.5632 C   0  0  0  0  0  0
  -30.4328  -12.3167   19.4265 C   0  0  0  0  0  0
  -29.5028  -12.5156   18.2101 C   0  0  0  0  0  0
  -28.0220  -12.3741   18.6177 C   0  0  0  0  0  0
  -27.6670  -13.2047   19.8796 C   0  0  2  0  0  0
  -28.7062  -12.9699   20.9990 C   0  0  0  0  0  0
  -25.2621  -13.8149   20.5677 C   0  0  0  0  0  0
  -24.1854  -13.0436   20.9149 C   0  0  0  0  0  0
  -24.6398  -11.6897   20.8697 C   0  0  0  0  0  0
  -23.9057  -10.4289   21.0368 C   0  0  0  0  0  0
  -24.3605   -9.4214   21.9164 C   0  0  0  0  0  0
  -23.6289   -8.2248   22.0747 C   0  0  0  0  0  0
  -22.4274   -8.0276   21.3536 C   0  0  0  0  0  0
  -21.9897   -9.0250   20.4641 C   0  0  0  0  0  0
  -22.7218  -10.2133   20.3038 C   0  0  0  0  0  0
  -21.6861   -6.0729   22.5280 C   0  0  0  0  0  0
  -21.4016   -6.5633   23.8210 C   0  0  0  0  0  0
  -21.3657   -5.6785   24.9176 C   0  0  0  0  0  0
  -21.6042   -4.3050   24.7224 C   0  0  0  0  0  0
  -21.8819   -3.8141   23.4348 C   0  0  0  0  0  0
  -21.9197   -4.6957   22.3402 C   0  0  0  0  0  0
  -22.7878  -13.5248   21.1826 C   0  0  0  0  0  0
  -22.1663   -4.2138   21.0980 F   0  0  0  0  0  0
  -21.5636   -3.4531   25.7736 F   0  0  0  0  0  0
  -30.0399  -13.2920   20.4575 N   0  0  0  0  0  0
  -26.3058  -12.9313   20.3372 N   0  0  0  0  0  0
  -25.9331  -11.6474   20.5740 N   0  0  0  0  0  0
  -22.0516  -12.8252   22.0388 N   0  0  0  0  0  0
  -25.4376  -15.1861   20.4113 N   0  0  0  0  0  0
  -31.7784  -14.7171   20.0733 O   0  0  0  0  0  0
  -21.6645   -6.8873   21.4238 O   0  0  0  0  0  0
  -22.3568  -14.5565   20.6694 O   0  0  0  0  0  0
  -24.6157  -31.8663   23.2076 C   0  0  0  0  0  0
  -25.9046  -32.4812   23.8379 C   0  0  1  0  0  0
  -27.2377  -27.4126   20.0878 C   0  0  0  0  0  0
  -25.5897  -33.8612   24.2313 N   0  0  0  0  0  0
  -23.4038  -30.4892   21.5487 C   0  0  2  0  0  0
  -24.8486  -28.9499   20.1138 C   0  0  0  0  0  0
  -22.7409  -29.4656   22.4984 C   0  0  0  0  0  0
  -18.0274  -28.1377   22.8489 C   0  0  0  0  0  0
  -24.1485  -36.7313   23.2640 C   0  0  0  0  0  0
  -25.9342  -30.8235   21.3640 C   0  0  0  0  0  0
  -26.0088  -29.4557   20.7107 C   0  0  0  0  0  0
  -27.1995  -28.6924   20.6973 C   0  0  0  0  0  0
  -26.0485  -26.9175   19.5017 C   0  0  0  0  0  0
  -24.8639  -27.6805   19.5102 C   0  0  0  0  0  0
  -23.6119  -29.8199   20.1636 C   0  0  0  0  0  0
  -25.4109  -36.3108   24.0338 C   0  0  1  0  0  0
  -20.5861  -28.3668   23.1315 C   0  0  2  0  0  0
  -20.6762  -26.9403   22.5421 C   0  0  0  0  0  0
  -19.5745  -26.6385   21.5212 C   0  0  0  0  0  0
  -18.1924  -26.7925   22.1619 C   0  0  0  0  0  0
  -19.1522  -28.8839   23.2898 C   0  0  0  0  0  0
  -18.9452  -30.1443   23.8911 C   0  0  0  0  0  0
  -17.6455  -30.6584   24.0567 C   0  0  0  0  0  0
  -25.9037  -34.9472   23.5126 C   0  0  0  0  0  0
  -16.5344  -29.9088   23.6323 C   0  0  0  0  0  0
  -16.7264  -28.6504   23.0345 C   0  0  0  0  0  0
  -26.4466  -31.6601   25.0720 C   0  0  0  0  0  0
  -25.3726  -31.3718   26.1468 C   0  0  0  0  0  0
  -27.0300  -30.3040   24.6115 C   0  0  0  0  0  0
  -27.6040  -32.4324   25.7484 C   0  0  0  0  0  0
  -27.5581  -37.1812   24.8465 C   0  0  0  0  0  0
  -21.4137  -29.3036   22.3721 N   0  0  0  0  0  0
  -26.4296  -37.3792   23.9405 N   0  0  0  0  0  0
  -24.6696  -31.0745   22.0984 N   0  0  0  0  0  0
  -23.4176  -28.8208   23.3040 O   0  0  0  0  0  0
  -28.4322  -26.7094   20.1183 O   0  0  0  0  0  0
  -26.5602  -34.8927   22.4689 O   0  0  0  0  0  0
  -23.5348  -32.1429   23.7461 O   0  0  0  0  0  0
  -28.2795  -18.8034   21.0676 C   0  0  0  0  0  0
  -28.6350  -17.4873   21.4356 C   0  0  0  0  0  0
  -30.5228  -17.5704   19.9233 C   0  0  0  0  0  0
  -29.0134  -19.5203   20.0947 C   0  0  0  0  0  0
  -30.1710  -18.8966   19.5480 C   0  0  0  0  0  0
  -29.7374  -16.8327   20.8446 C   0  0  0  0  0  0
  -27.7108  -23.1504   20.2655 C   0  0  0  0  0  0
  -29.6705  -23.0597   19.6767 C   0  0  0  0  0  0
  -28.8065  -24.2228   20.2001 C   0  0  1  0  0  0
  -31.0241  -19.6047   18.5085 C   0  0  0  0  0  0
  -28.4333  -20.8520   19.5557 C   0  0  0  0  0  0
  -28.6435  -25.5080   19.3483 C   0  0  0  0  0  0
  -29.9437  -15.4529   21.1908 N   0  0  0  0  0  0
  -28.7492  -22.1046   20.3098 N   0  3  2  0  0  0
  -31.4776  -12.4259   19.1291 H   0  0  0  0  0  0
  -30.3422  -11.3012   19.8152 H   0  0  0  0  0  0
  -29.7447  -11.7949   17.4277 H   0  0  0  0  0  0
  -29.6709  -13.5039   17.7781 H   0  0  0  0  0  0
  -27.8294  -11.3170   18.8038 H   0  0  0  0  0  0
  -27.3743  -12.6597   17.7880 H   0  0  0  0  0  0
  -27.7155  -14.2558   19.5922 H   0  0  0  0  0  0
  -28.6859  -11.9280   21.3215 H   0  0  0  0  0  0
  -28.4558  -13.5471   21.8904 H   0  0  0  0  0  0
  -25.2738   -9.5706   22.4752 H   0  0  0  0  0  0
  -23.9996   -7.4641   22.7471 H   0  0  0  0  0  0
  -21.0827   -8.8764   19.8955 H   0  0  0  0  0  0
  -22.3656  -10.9673   19.6156 H   0  0  0  0  0  0
  -21.2008   -7.6140   23.9708 H   0  0  0  0  0  0
  -21.1480   -6.0516   25.9076 H   0  0  0  0  0  0
  -22.0603   -2.7604   23.2847 H   0  0  0  0  0  0
  -22.4118  -11.9903   22.4769 H   0  0  0  0  0  0
  -21.1138  -13.1290   22.2593 H   0  0  0  0  0  0
  -24.6737  -15.8437   20.5205 H   0  0  0  0  0  0
  -26.3024  -15.6251   20.1203 H   0  0  0  0  0  0
  -26.7116  -32.5510   23.1137 H   0  0  0  0  0  0
  -25.0042  -33.9770   25.0456 H   0  0  0  0  0  0
  -22.6935  -31.3066   21.4091 H   0  0  0  0  0  0
  -23.3741  -35.9652   23.3320 H   0  0  0  0  0  0
  -24.3574  -36.8909   22.2050 H   0  0  0  0  0  0
  -23.7247  -37.6528   23.6643 H   0  0  0  0  0  0
  -26.0514  -31.5889   20.5957 H   0  0  0  0  0  0
  -26.8203  -30.8744   21.9851 H   0  0  0  0  0  0
  -28.0961  -29.0820   21.1590 H   0  0  0  0  0  0
  -25.9983  -25.9391   19.0492 H   0  0  0  0  0  0
  -23.9673  -27.2808   19.0565 H   0  0  0  0  0  0
  -23.7200  -30.5942   19.4031 H   0  0  0  0  0  0
  -22.7345  -29.2407   19.8697 H   0  0  0  0  0  0
  -25.1284  -36.1974   25.0831 H   0  0  0  0  0  0
  -20.9951  -28.3238   24.1437 H   0  0  0  0  0  0
  -20.5653  -26.2279   23.3610 H   0  0  0  0  0  0
  -21.6635  -26.7441   22.1224 H   0  0  0  0  0  0
  -19.6906  -25.6298   21.1237 H   0  0  0  0  0  0
  -19.6689  -27.3198   20.6743 H   0  0  0  0  0  0
  -17.4193  -26.6674   21.4020 H   0  0  0  0  0  0
  -18.0324  -26.0066   22.9014 H   0  0  0  0  0  0
  -19.7930  -30.7251   24.2290 H   0  0  0  0  0  0
  -17.5014  -31.6265   24.5171 H   0  0  0  0  0  0
  -15.5346  -30.2995   23.7642 H   0  0  0  0  0  0
  -15.8665  -28.0830   22.7049 H   0  0  0  0  0  0
  -24.5884  -30.7085   25.7805 H   0  0  0  0  0  0
  -24.8933  -32.2878   26.4932 H   0  0  0  0  0  0
  -25.8067  -30.8870   27.0220 H   0  0  0  0  0  0
  -26.2853  -29.6806   24.1151 H   0  0  0  0  0  0
  -27.4044  -29.7278   25.4587 H   0  0  0  0  0  0
  -27.8699  -30.4360   23.9289 H   0  0  0  0  0  0
  -27.2655  -33.3610   26.2094 H   0  0  0  0  0  0
  -28.3827  -32.6907   25.0296 H   0  0  0  0  0  0
  -28.0732  -31.8429   26.5371 H   0  0  0  0  0  0
  -28.2609  -38.0100   24.7499 H   0  0  0  0  0  0
  -28.1064  -36.2629   24.6301 H   0  0  0  0  0  0
  -27.2297  -37.1481   25.8870 H   0  0  0  0  0  0
  -20.9296  -29.8755   21.6941 H   0  0  0  0  0  0
  -26.0185  -38.2875   24.1392 H   0  0  0  0  0  0
  -27.3915  -19.2387   21.5058 H   0  0  0  0  0  0
  -28.0150  -16.9659   22.1521 H   0  0  0  0  0  0
  -31.3840  -17.1119   19.4587 H   0  0  0  0  0  0
  -27.1007  -23.1138   19.3606 H   0  0  0  0  0  0
  -27.0899  -23.1890   21.1609 H   0  0  0  0  0  0
  -30.6823  -23.0280   20.0824 H   0  0  0  0  0  0
  -29.6798  -23.0018   18.5865 H   0  0  0  0  0  0
  -29.1447  -24.4700   21.2091 H   0  0  0  0  0  0
  -31.9799  -19.0975   18.3675 H   0  0  0  0  0  0
  -31.2436  -20.6291   18.8091 H   0  0  0  0  0  0
  -30.5130  -19.6276   17.5455 H   0  0  0  0  0  0
  -27.3499  -20.7295   19.5717 H   0  0  0  0  0  0
  -28.6686  -20.9687   18.4988 H   0  0  0  0  0  0
  -27.9295  -25.3639   18.5403 H   0  0  0  0  0  0
  -29.5823  -25.6857   18.8230 H   0  0  0  0  0  0
  -29.1937  -15.0548   21.7343 H   0  0  0  0  0  0
  -29.0125  -21.9105   21.2639 H   0  0  0  0  0  0
  1 25  1  0  0  0
  1 30  2  0  0  0
  1 83  1  0  0  0
  2  3  1  0  0  0
  2 25  1  0  0  0
  2 85  1  0  0  0
  2 86  1  0  0  0
  3  4  1  0  0  0
  3 87  1  0  0  0
  3 88  1  0  0  0
  4  5  1  0  0  0
  4 89  1  0  0  0
  4 90  1  0  0  0
  5  6  1  0  0  0
  5 26  1  0  0  0
  5 91  1  0  0  0
  6 25  1  0  0  0
  6 92  1  0  0  0
  6 93  1  0  0  0
  7  8  2  0  0  0
  7 26  1  0  0  0
  7 29  1  0  0  0
  8  9  1  0  0  0
  8 22  1  0  0  0
  9 10  1  0  0  0
  9 27  2  0  0  0
 10 11  2  0  0  0
 10 15  1  0  0  0
 11 12  1  0  0  0
 11 94  1  0  0  0
 12 13  2  0  0  0
 12 95  1  0  0  0
 13 14  1  0  0  0
 13 31  1  0  0  0
 14 15  2  0  0  0
 14 96  1  0  0  0
 15 97  1  0  0  0
 16 17  2  0  0  0
 16 21  1  0  0  0
 16 31  1  0  0  0
 17 18  1  0  0  0
 17 98  1  0  0  0
 18 19  2  0  0  0
 18 99  1  0  0  0
 19 20  1  0  0  0
 19 24  1  0  0  0
 20 21  2  0  0  0
 20100  1  0  0  0
 21 23  1  0  0  0
 22 28  1  0  0  0
 22 32  2  0  0  0
 26 27  1  0  0  0
 28101  1  0  0  0
 28102  1  0  0  0
 29103  1  0  0  0
 29104  1  0  0  0
 33 34  1  0  0  0
 33 66  1  0  0  0
 33 70  2  0  0  0
 34 36  1  0  0  0
 34 59  1  0  0  0
 34105  1  0  0  0
 35 44  2  0  0  0
 35 45  1  0  0  0
 35 68  1  0  0  0
 36 56  1  0  0  0
 36106  1  0  0  0
 37 39  1  0  0  0
 37 47  1  0  0  0
 37 66  1  0  0  0
 37107  1  0  0  0
 38 43  2  0  0  0
 38 46  1  0  0  0
 38 47  1  0  0  0
 39 64  1  0  0  0
 39 67  2  0  0  0
 40 52  1  0  0  0
 40 53  2  0  0  0
 40 58  1  0  0  0
 41108  1  0  0  0
 41109  1  0  0  0
 41110  1  0  0  0
 41 48  1  0  0  0
 42 43  1  0  0  0
 42 66  1  0  0  0
 42111  1  0  0  0
 42112  1  0  0  0
 43 44  1  0  0  0
 44113  1  0  0  0
 45 46  2  0  0  0
 45114  1  0  0  0
 46115  1  0  0  0
 47116  1  0  0  0
 47117  1  0  0  0
 48 56  1  0  0  0
 48 65  1  0  0  0
 48118  1  0  0  0
 49 50  1  0  0  0
 49 53  1  0  0  0
 49 64  1  0  0  0
 49119  1  0  0  0
 50 51  1  0  0  0
 50120  1  0  0  0
 50121  1  0  0  0
 51 52  1  0  0  0
 51122  1  0  0  0
 51123  1  0  0  0
 52124  1  0  0  0
 52125  1  0  0  0
 53 54  1  0  0  0
 54 55  2  0  0  0
 54126  1  0  0  0
 55 57  1  0  0  0
 55127  1  0  0  0
 56 69  2  0  0  0
 57 58  2  0  0  0
 57128  1  0  0  0
 58129  1  0  0  0
 59 60  1  0  0  0
 59 61  1  0  0  0
 59 62  1  0  0  0
 60130  1  0  0  0
 60131  1  0  0  0
 60132  1  0  0  0
 61133  1  0  0  0
 61134  1  0  0  0
 61135  1  0  0  0
 62136  1  0  0  0
 62137  1  0  0  0
 62138  1  0  0  0
 63 65  1  0  0  0
 63139  1  0  0  0
 63140  1  0  0  0
 63141  1  0  0  0
 64142  1  0  0  0
 65143  1  0  0  0
 68 82  1  0  0  0
 71 72  2  0  0  0
 71 74  1  0  0  0
 71144  1  0  0  0
 72 76  1  0  0  0
 72145  1  0  0  0
 73 75  1  0  0  0
 73 76  2  0  0  0
 73146  1  0  0  0
 74 75  2  0  0  0
 74 81  1  0  0  0
 75 80  1  0  0  0
 76 83  1  0  0  0
 77 79  1  0  0  0
 77 84  1  0  0  0
 77147  1  0  0  0
 77148  1  0  0  0
 78 79  1  0  0  0
 78 84  1  0  0  0
 78149  1  0  0  0
 78150  1  0  0  0
 79 82  1  0  0  0
 79151  1  0  0  0
 80152  1  0  0  0
 80153  1  0  0  0
 80154  1  0  0  0
 81155  1  0  0  0
 81156  1  0  0  0
 81 84  1  0  0  0
 82157  1  0  0  0
 82158  1  0  0  0
 83159  1  0  0  0
 84160  1  0  0  0
M  CHG  1  84   1
M  ISO  4   1 100  68 101  82 101  83 100
M  END
> <chiral flag>
0

> <version>
0

> <s_m_source_file>
/data/baiqing/PycharmProjects/Reinvent-master-3.2/result/LINK_invent/BTK/process_docking_weight1_custom_product_contain_oxygen_bond_distance_aromatic_linkinvent_7_9_3/rearranged_h_0019.sdf

> <i_m_source_file_index>
3

> <r_mmod_Potential_Energy-OPLS-2005>
-160.124694824219

> <r_mmod_Stretch_Energy-OPLS-2005>
44.8389320373535

> <r_mmod_Bend_Energy-OPLS-2005>
133.84895324707

> <r_mmod_Torsional_Energy-OPLS-2005>
241.016250610352

> <r_mmod_Improper_Torsional_Energy-OPLS-2005>
4.78771781921387

> <r_mmod_Van_der_Waal_Energy-OPLS-2005>
147.857116699219

> <r_mmod_Electrostatic_Energy-OPLS-2005>
-283.845367431641

> <r_mmod_Solvation_Energy-OPLS-2005>
-463.986633300781

> <b_mmod_Minimization_Converged-OPLS-2005>
0

> <r_mmod_RMS_Derivative-OPLS-2005>
1.08839750289917

$$$$
3
                    3D
 Structure written by MMmdl.
154162  0  0  1  0            999 V2000
  -30.6719  -14.5492   20.5408 C   0  0  0  0  0  0
  -30.4328  -12.3441   19.4377 C   0  0  0  0  0  0
  -29.5038  -12.4882   18.2137 C   0  0  0  0  0  0
  -28.0249  -12.3390   18.6275 C   0  0  0  0  0  0
  -27.6545  -13.2080   19.8589 C   0  0  2  0  0  0
  -28.6984  -13.0416   20.9867 C   0  0  0  0  0  0
  -25.2561  -13.8162   20.5677 C   0  0  0  0  0  0
  -24.1823  -13.0436   20.9187 C   0  0  0  0  0  0
  -24.6370  -11.6906   20.8718 C   0  0  0  0  0  0
  -23.9031  -10.4295   21.0394 C   0  0  0  0  0  0
  -24.3590   -9.4219   21.9174 C   0  0  0  0  0  0
  -23.6279   -8.2245   22.0741 C   0  0  0  0  0  0
  -22.4264   -8.0270   21.3535 C   0  0  0  0  0  0
  -21.9885   -9.0241   20.4639 C   0  0  0  0  0  0
  -22.7199  -10.2132   20.3049 C   0  0  0  0  0  0
  -21.6853   -6.0716   22.5273 C   0  0  0  0  0  0
  -21.4012   -6.5618   23.8205 C   0  0  0  0  0  0
  -21.3660   -5.6779   24.9171 C   0  0  0  0  0  0
  -21.6049   -4.3038   24.7223 C   0  0  0  0  0  0
  -21.8819   -3.8126   23.4348 C   0  0  0  0  0  0
  -21.9190   -4.6939   22.3397 C   0  0  0  0  0  0
  -22.7842  -13.5246   21.1836 C   0  0  0  0  0  0
  -22.1662   -4.2120   21.0977 F   0  0  0  0  0  0
  -21.5638   -3.4528   25.7744 F   0  0  0  0  0  0
  -30.0208  -13.3565   20.4238 N   0  0  0  0  0  0
  -26.2983  -12.9329   20.3284 N   0  0  0  0  0  0
  -25.9293  -11.6492   20.5729 N   0  0  0  0  0  0
  -22.0464  -12.8272   22.0406 N   0  0  0  0  0  0
  -25.4281  -15.1885   20.4101 N   0  0  0  0  0  0
  -31.8387  -14.7019   20.1671 O   0  0  0  0  0  0
  -21.6629   -6.8862   21.4243 O   0  0  0  0  0  0
  -22.3544  -14.5544   20.6658 O   0  0  0  0  0  0
  -24.6180  -31.8649   23.2057 C   0  0  0  0  0  0
  -25.9061  -32.4803   23.8370 C   0  0  1  0  0  0
  -27.2309  -27.3904   20.1140 C   0  0  0  0  0  0
  -25.5900  -33.8601   24.2304 N   0  0  0  0  0  0
  -23.4086  -30.4866   21.5473 C   0  0  2  0  0  0
  -24.8568  -28.9432   20.1179 C   0  0  0  0  0  0
  -22.7428  -29.4649   22.4972 C   0  0  0  0  0  0
  -18.0274  -28.1368   22.8491 C   0  0  0  0  0  0
  -24.1486  -36.7309   23.2639 C   0  0  0  0  0  0
  -25.9418  -30.8158   21.3669 C   0  0  0  0  0  0
  -26.0188  -29.4456   20.7183 C   0  0  0  0  0  0
  -27.2119  -28.6782   20.7104 C   0  0  0  0  0  0
  -26.0543  -26.9147   19.5018 C   0  0  0  0  0  0
  -24.8717  -27.6788   19.5036 C   0  0  0  0  0  0
  -23.6202  -29.8143   20.1645 C   0  0  0  0  0  0
  -25.4106  -36.3099   24.0341 C   0  0  1  0  0  0
  -20.5869  -28.3673   23.1299 C   0  0  2  0  0  0
  -20.6766  -26.9402   22.5413 C   0  0  0  0  0  0
  -19.5751  -26.6380   21.5205 C   0  0  0  0  0  0
  -18.1928  -26.7919   22.1607 C   0  0  0  0  0  0
  -19.1524  -28.8836   23.2893 C   0  0  0  0  0  0
  -18.9451  -30.1439   23.8909 C   0  0  0  0  0  0
  -17.6454  -30.6582   24.0556 C   0  0  0  0  0  0
  -25.9038  -34.9467   23.5120 C   0  0  0  0  0  0
  -16.5345  -29.9083   23.6318 C   0  0  0  0  0  0
  -16.7262  -28.6489   23.0359 C   0  0  0  0  0  0
  -26.4472  -31.6603   25.0718 C   0  0  0  0  0  0
  -25.3729  -31.3731   26.1468 C   0  0  0  0  0  0
  -27.0319  -30.3039   24.6138 C   0  0  0  0  0  0
  -27.6053  -32.4329   25.7461 C   0  0  0  0  0  0
  -27.5594  -37.1783   24.8448 C   0  0  0  0  0  0
  -21.4153  -29.3037   22.3708 N   0  0  0  0  0  0
  -26.4282  -37.3795   23.9424 N   0  0  0  0  0  0
  -24.6747  -31.0715   22.0975 N   0  0  0  0  0  0
  -23.4178  -28.8201   23.3040 O   0  0  0  0  0  0
  -28.3750  -26.6129   20.0704 O   0  0  0  0  0  0
  -26.5604  -34.8926   22.4683 O   0  0  0  0  0  0
  -23.5364  -32.1410   23.7438 O   0  0  0  0  0  0
  -31.2744  -17.3047   22.0238 C   0  0  0  0  0  0
  -31.5978  -18.6536   22.2826 C   0  0  0  0  0  0
  -29.6032  -18.0467   20.4143 C   0  0  0  0  0  0
  -29.9446  -19.4152   20.6445 C   0  0  0  0  0  0
  -30.2738  -16.9796   21.0821 C   0  0  0  0  0  0
  -30.9479  -19.7001   21.5972 C   0  0  0  0  0  0
  -28.9549  -23.0383   20.1313 C   0  0  0  0  0  0
  -29.3336  -20.5487   19.7843 C   0  0  0  0  0  0
  -27.9329  -24.1000   20.6279 C   0  0  0  0  0  0
  -28.4616  -25.5252   21.0282 C   0  0  0  0  0  0
  -29.8900  -15.6084   20.8711 N   0  0  0  0  0  0
  -28.7468  -21.7360   20.4577 N   0  0  0  0  0  0
  -29.8842  -23.3865   19.4003 O   0  0  0  0  0  0
  -31.3194  -20.9800   21.8410 F   0  0  0  0  0  0
  -31.4764  -12.4574   19.1365 H   0  0  0  0  0  0
  -30.3522  -11.3456   19.8696 H   0  0  0  0  0  0
  -29.7613  -11.7395   17.4631 H   0  0  0  0  0  0
  -29.6592  -13.4605   17.7442 H   0  0  0  0  0  0
  -27.8558  -11.2874   18.8590 H   0  0  0  0  0  0
  -27.3697  -12.5718   17.7874 H   0  0  0  0  0  0
  -27.6800  -14.2438   19.5223 H   0  0  0  0  0  0
  -28.6921  -12.0191   21.3664 H   0  0  0  0  0  0
  -28.4535  -13.6765   21.8397 H   0  0  0  0  0  0
  -25.2731   -9.5710   22.4748 H   0  0  0  0  0  0
  -23.9983   -7.4646   22.7470 H   0  0  0  0  0  0
  -21.0804   -8.8760   19.8965 H   0  0  0  0  0  0
  -22.3639  -10.9667   19.6155 H   0  0  0  0  0  0
  -21.2005   -7.6129   23.9708 H   0  0  0  0  0  0
  -21.1486   -6.0501   25.9076 H   0  0  0  0  0  0
  -22.0599   -2.7585   23.2849 H   0  0  0  0  0  0
  -22.4042  -11.9951   22.4855 H   0  0  0  0  0  0
  -21.1087  -13.1339   22.2567 H   0  0  0  0  0  0
  -24.6597  -15.8408   20.5238 H   0  0  0  0  0  0
  -26.2737  -15.6315   20.0740 H   0  0  0  0  0  0
  -26.7131  -32.5506   23.1130 H   0  0  0  0  0  0
  -25.0048  -33.9753   25.0445 H   0  0  0  0  0  0
  -22.6993  -31.3047   21.4041 H   0  0  0  0  0  0
  -23.3757  -35.9628   23.3270 H   0  0  0  0  0  0
  -24.3593  -36.8954   22.2058 H   0  0  0  0  0  0
  -23.7215  -37.6496   23.6674 H   0  0  0  0  0  0
  -26.0630  -31.5794   20.5975 H   0  0  0  0  0  0
  -26.8259  -30.8675   21.9907 H   0  0  0  0  0  0
  -28.1111  -29.0671   21.1676 H   0  0  0  0  0  0
  -26.0519  -25.9520   19.0130 H   0  0  0  0  0  0
  -23.9816  -27.2915   19.0263 H   0  0  0  0  0  0
  -23.7274  -30.5846   19.4001 H   0  0  0  0  0  0
  -22.7443  -29.2325   19.8722 H   0  0  0  0  0  0
  -25.1273  -36.1950   25.0833 H   0  0  0  0  0  0
  -20.9958  -28.3243   24.1419 H   0  0  0  0  0  0
  -20.5656  -26.2279   23.3607 H   0  0  0  0  0  0
  -21.6643  -26.7437   22.1213 H   0  0  0  0  0  0
  -19.6917  -25.6291   21.1236 H   0  0  0  0  0  0
  -19.6699  -27.3184   20.6734 H   0  0  0  0  0  0
  -17.4203  -26.6671   21.4005 H   0  0  0  0  0  0
  -18.0327  -26.0052   22.8991 H   0  0  0  0  0  0
  -19.7929  -30.7243   24.2292 H   0  0  0  0  0  0
  -17.5011  -31.6266   24.5150 H   0  0  0  0  0  0
  -15.5346  -30.2988   23.7638 H   0  0  0  0  0  0
  -15.8659  -28.0805   22.7087 H   0  0  0  0  0  0
  -24.5871  -30.7120   25.7790 H   0  0  0  0  0  0
  -24.8959  -32.2904   26.4935 H   0  0  0  0  0  0
  -25.8065  -30.8862   27.0213 H   0  0  0  0  0  0
  -26.2879  -29.6773   24.1205 H   0  0  0  0  0  0
  -27.4088  -29.7305   25.4616 H   0  0  0  0  0  0
  -27.8711  -30.4345   23.9302 H   0  0  0  0  0  0
  -27.2684  -33.3619   26.2070 H   0  0  0  0  0  0
  -28.3830  -32.6912   25.0261 H   0  0  0  0  0  0
  -28.0768  -31.8443   26.5339 H   0  0  0  0  0  0
  -28.2565  -38.0129   24.7581 H   0  0  0  0  0  0
  -28.1139  -36.2669   24.6155 H   0  0  0  0  0  0
  -27.2338  -37.1286   25.8854 H   0  0  0  0  0  0
  -20.9325  -29.8731   21.6901 H   0  0  0  0  0  0
  -26.0173  -38.2863   24.1466 H   0  0  0  0  0  0
  -31.7940  -16.5263   22.5654 H   0  0  0  0  0  0
  -32.3623  -18.8920   23.0075 H   0  0  0  0  0  0
  -28.8403  -17.8095   19.6868 H   0  0  0  0  0  0
  -28.5534  -20.1232   19.1524 H   0  0  0  0  0  0
  -30.1142  -20.8677   19.0922 H   0  0  0  0  0  0
  -27.4451  -23.6758   21.5061 H   0  0  0  0  0  0
  -27.1446  -24.1876   19.8821 H   0  0  0  0  0  0
  -29.5087  -25.4412   21.3211 H   0  0  0  0  0  0
  -27.9520  -25.8336   21.9432 H   0  0  0  0  0  0
  -28.9042  -15.4062   20.9381 H   0  0  0  0  0  0
  -27.9808  -21.5453   21.0896 H   0  0  0  0  0  0
  1 25  1  0  0  0
  1 30  2  0  0  0
  1 81  1  0  0  0
  2  3  1  0  0  0
  2 25  1  0  0  0
  2 85  1  0  0  0
  2 86  1  0  0  0
  3  4  1  0  0  0
  3 87  1  0  0  0
  3 88  1  0  0  0
  4  5  1  0  0  0
  4 89  1  0  0  0
  4 90  1  0  0  0
  5  6  1  0  0  0
  5 26  1  0  0  0
  5 91  1  0  0  0
  6 25  1  0  0  0
  6 92  1  0  0  0
  6 93  1  0  0  0
  7  8  2  0  0  0
  7 26  1  0  0  0
  7 29  1  0  0  0
  8  9  1  0  0  0
  8 22  1  0  0  0
  9 10  1  0  0  0
  9 27  2  0  0  0
 10 11  2  0  0  0
 10 15  1  0  0  0
 11 12  1  0  0  0
 11 94  1  0  0  0
 12 13  2  0  0  0
 12 95  1  0  0  0
 13 14  1  0  0  0
 13 31  1  0  0  0
 14 15  2  0  0  0
 14 96  1  0  0  0
 15 97  1  0  0  0
 16 17  2  0  0  0
 16 21  1  0  0  0
 16 31  1  0  0  0
 17 18  1  0  0  0
 17 98  1  0  0  0
 18 19  2  0  0  0
 18 99  1  0  0  0
 19 20  1  0  0  0
 19 24  1  0  0  0
 20 21  2  0  0  0
 20100  1  0  0  0
 21 23  1  0  0  0
 22 28  1  0  0  0
 22 32  2  0  0  0
 26 27  1  0  0  0
 28101  1  0  0  0
 28102  1  0  0  0
 29103  1  0  0  0
 29104  1  0  0  0
 33 34  1  0  0  0
 33 66  1  0  0  0
 33 70  2  0  0  0
 34 36  1  0  0  0
 34 59  1  0  0  0
 34105  1  0  0  0
 35 44  2  0  0  0
 35 45  1  0  0  0
 35 68  1  0  0  0
 36 56  1  0  0  0
 36106  1  0  0  0
 37 39  1  0  0  0
 37 47  1  0  0  0
 37 66  1  0  0  0
 37107  1  0  0  0
 38 43  2  0  0  0
 38 46  1  0  0  0
 38 47  1  0  0  0
 39 64  1  0  0  0
 39 67  2  0  0  0
 40 52  1  0  0  0
 40 53  2  0  0  0
 40 58  1  0  0  0
 41108  1  0  0  0
 41109  1  0  0  0
 41110  1  0  0  0
 41 48  1  0  0  0
 42 43  1  0  0  0
 42 66  1  0  0  0
 42111  1  0  0  0
 42112  1  0  0  0
 43 44  1  0  0  0
 44113  1  0  0  0
 45 46  2  0  0  0
 45114  1  0  0  0
 46115  1  0  0  0
 47116  1  0  0  0
 47117  1  0  0  0
 48 56  1  0  0  0
 48 65  1  0  0  0
 48118  1  0  0  0
 49 50  1  0  0  0
 49 53  1  0  0  0
 49 64  1  0  0  0
 49119  1  0  0  0
 50 51  1  0  0  0
 50120  1  0  0  0
 50121  1  0  0  0
 51 52  1  0  0  0
 51122  1  0  0  0
 51123  1  0  0  0
 52124  1  0  0  0
 52125  1  0  0  0
 53 54  1  0  0  0
 54 55  2  0  0  0
 54126  1  0  0  0
 55 57  1  0  0  0
 55127  1  0  0  0
 56 69  2  0  0  0
 57 58  2  0  0  0
 57128  1  0  0  0
 58129  1  0  0  0
 59 60  1  0  0  0
 59 61  1  0  0  0
 59 62  1  0  0  0
 60130  1  0  0  0
 60131  1  0  0  0
 60132  1  0  0  0
 61133  1  0  0  0
 61134  1  0  0  0
 61135  1  0  0  0
 62136  1  0  0  0
 62137  1  0  0  0
 62138  1  0  0  0
 63 65  1  0  0  0
 63139  1  0  0  0
 63140  1  0  0  0
 63141  1  0  0  0
 64142  1  0  0  0
 65143  1  0  0  0
 68 80  1  0  0  0
 71 72  2  0  0  0
 71 75  1  0  0  0
 71144  1  0  0  0
 72 76  1  0  0  0
 72145  1  0  0  0
 73 74  1  0  0  0
 73 75  2  0  0  0
 73146  1  0  0  0
 74 76  2  0  0  0
 74 78  1  0  0  0
 75 81  1  0  0  0
 76 84  1  0  0  0
 77 79  1  0  0  0
 77 82  1  0  0  0
 77 83  2  0  0  0
 78 82  1  0  0  0
 78147  1  0  0  0
 78148  1  0  0  0
 79 80  1  0  0  0
 79149  1  0  0  0
 79150  1  0  0  0
 80151  1  0  0  0
 80152  1  0  0  0
 81153  1  0  0  0
 82154  1  0  0  0
M  ISO  4   1 100  68 101  80 101  81 100
M  END
> <chiral flag>
0

> <version>
0

> <s_m_source_file>
/data/baiqing/PycharmProjects/Reinvent-master-3.2/result/LINK_invent/BTK/process_docking_weight1_custom_product_contain_oxygen_bond_distance_aromatic_linkinvent_7_9_3/rearranged_h_0019.sdf

> <i_m_source_file_index>
4

> <r_mmod_Potential_Energy-OPLS-2005>
-86.052116394043

> <r_mmod_Stretch_Energy-OPLS-2005>
49.1865615844727

> <r_mmod_Bend_Energy-OPLS-2005>
109.1572265625

> <r_mmod_Torsional_Energy-OPLS-2005>
251.870483398438

> <r_mmod_Improper_Torsional_Energy-OPLS-2005>
6.51515054702759

> <r_mmod_Van_der_Waal_Energy-OPLS-2005>
140.228973388672

> <r_mmod_Electrostatic_Energy-OPLS-2005>
-418.508544921875

> <r_mmod_Solvation_Energy-OPLS-2005>
-248.464233398438

> <b_mmod_Minimization_Converged-OPLS-2005>
0

> <r_mmod_RMS_Derivative-OPLS-2005>
1.87481296062469

$$$$
4
                    3D
 Structure written by MMmdl.
168176  0  0  1  0            999 V2000
  -30.6700  -14.5137   20.5952 C   0  0  0  0  0  0
  -30.4352  -12.3295   19.4774 C   0  0  0  0  0  0
  -29.5300  -12.5068   18.2382 C   0  0  0  0  0  0
  -28.0379  -12.3777   18.6187 C   0  0  0  0  0  0
  -27.6594  -13.2199   19.8690 C   0  0  2  0  0  0
  -28.6809  -13.0250   21.0102 C   0  0  0  0  0  0
  -25.2521  -13.8173   20.5612 C   0  0  0  0  0  0
  -24.1772  -13.0446   20.9156 C   0  0  0  0  0  0
  -24.6318  -11.6906   20.8612 C   0  0  0  0  0  0
  -23.8968  -10.4316   21.0317 C   0  0  0  0  0  0
  -24.3551   -9.4271   21.9111 C   0  0  0  0  0  0
  -23.6308   -8.2272   22.0694 C   0  0  0  0  0  0
  -22.4314   -8.0228   21.3483 C   0  0  0  0  0  0
  -21.9858   -9.0157   20.4604 C   0  0  0  0  0  0
  -22.7116  -10.2083   20.3011 C   0  0  0  0  0  0
  -21.6851   -6.0707   22.5223 C   0  0  0  0  0  0
  -21.4031   -6.5616   23.8153 C   0  0  0  0  0  0
  -21.3663   -5.6768   24.9115 C   0  0  0  0  0  0
  -21.6058   -4.3034   24.7186 C   0  0  0  0  0  0
  -21.8827   -3.8130   23.4312 C   0  0  0  0  0  0
  -21.9197   -4.6935   22.3358 C   0  0  0  0  0  0
  -22.7774  -13.5243   21.1838 C   0  0  0  0  0  0
  -22.1690   -4.2097   21.0938 F   0  0  0  0  0  0
  -21.5642   -3.4527   25.7710 F   0  0  0  0  0  0
  -30.0221  -13.3219   20.4832 N   0  0  0  0  0  0
  -26.2958  -12.9380   20.3225 N   0  0  0  0  0  0
  -25.9248  -11.6493   20.5580 N   0  0  0  0  0  0
  -22.0434  -12.8221   22.0409 N   0  0  0  0  0  0
  -25.4287  -15.1883   20.4029 N   0  0  0  0  0  0
  -31.8051  -14.6892   20.1304 O   0  0  0  0  0  0
  -21.6684   -6.8825   21.4183 O   0  0  0  0  0  0
  -22.3424  -14.5520   20.6636 O   0  0  0  0  0  0
  -24.6129  -31.8722   23.2158 C   0  0  0  0  0  0
  -25.9063  -32.4847   23.8401 C   0  0  1  0  0  0
  -27.2299  -27.4578   20.0618 C   0  0  0  0  0  0
  -25.5940  -33.8649   24.2341 N   0  0  0  0  0  0
  -23.3970  -30.4998   21.5563 C   0  0  2  0  0  0
  -24.8329  -28.9695   20.1128 C   0  0  0  0  0  0
  -22.7416  -29.4667   22.5030 C   0  0  0  0  0  0
  -18.0273  -28.1410   22.8462 C   0  0  0  0  0  0
  -24.1489  -36.7317   23.2631 C   0  0  0  0  0  0
  -25.9228  -30.8412   21.3655 C   0  0  0  0  0  0
  -25.9914  -29.4751   20.7147 C   0  0  0  0  0  0
  -27.1836  -28.7165   20.7035 C   0  0  0  0  0  0
  -26.0445  -26.9626   19.4617 C   0  0  0  0  0  0
  -24.8505  -27.7099   19.4888 C   0  0  0  0  0  0
  -23.6001  -29.8437   20.1638 C   0  0  0  0  0  0
  -25.4122  -36.3138   24.0321 C   0  0  1  0  0  0
  -20.5846  -28.3678   23.1342 C   0  0  2  0  0  0
  -20.6784  -26.9430   22.5435 C   0  0  0  0  0  0
  -19.5766  -26.6412   21.5231 C   0  0  0  0  0  0
  -18.1935  -26.7972   22.1619 C   0  0  0  0  0  0
  -19.1514  -28.8873   23.2886 C   0  0  0  0  0  0
  -18.9456  -30.1497   23.8891 C   0  0  0  0  0  0
  -17.6449  -30.6616   24.0573 C   0  0  0  0  0  0
  -25.9033  -34.9503   23.5117 C   0  0  0  0  0  0
  -16.5335  -29.9134   23.6335 C   0  0  0  0  0  0
  -16.7255  -28.6565   23.0313 C   0  0  0  0  0  0
  -26.4490  -31.6628   25.0725 C   0  0  0  0  0  0
  -25.3766  -31.3789   26.1491 C   0  0  0  0  0  0
  -27.0283  -30.3070   24.6084 C   0  0  0  0  0  0
  -27.6056  -32.4365   25.7495 C   0  0  0  0  0  0
  -27.5598  -37.1807   24.8453 C   0  0  0  0  0  0
  -21.4148  -29.3019   22.3747 N   0  0  0  0  0  0
  -26.4300  -37.3827   23.9412 N   0  0  0  0  0  0
  -24.6624  -31.0835   22.1069 N   0  0  0  0  0  0
  -23.4201  -28.8207   23.3042 O   0  0  0  0  0  0
  -28.4336  -26.7817   20.0471 O   0  0  0  0  0  0
  -26.5566  -34.8950   22.4661 O   0  0  0  0  0  0
  -23.5333  -32.1467   23.7584 O   0  0  0  0  0  0
  -28.7996  -17.5518   20.2875 C   0  0  0  0  0  0
  -30.0629  -19.5388   19.6493 C   0  0  0  0  0  0
  -31.2226  -17.5893   20.5642 C   0  0  0  0  0  0
  -28.8212  -18.8726   19.7670 C   0  0  0  0  0  0
  -29.9985  -16.8877   20.6646 C   0  0  0  0  0  0
  -31.2557  -18.9008   20.0527 C   0  0  0  0  0  0
  -28.0070  -20.8030   14.6069 C   0  0  0  0  0  0
  -27.5012  -19.5425   19.3492 C   0  0  0  0  0  0
  -28.0419  -21.3750   16.0315 C   0  0  0  0  0  0
  -28.3710  -23.0891   18.9867 C   0  0  0  0  0  0
  -28.0924  -24.3464   19.8383 C   0  0  0  0  0  0
  -27.2834  -20.4925   17.0442 C   0  0  0  0  0  0
  -27.2527  -22.0238   19.0375 C   0  0  0  0  0  0
  -28.6103  -25.6500   19.1940 C   0  0  0  0  0  0
  -29.9444  -15.5286   21.1159 N   0  0  0  0  0  0
  -27.7022  -20.7247   18.4535 N   0  3  1  0  0  0
  -32.4328  -19.5552   19.9293 F   0  0  0  0  0  0
  -31.4861  -12.4267   19.1978 H   0  0  0  0  0  0
  -30.3290  -11.3258   19.8852 H   0  0  0  0  0  0
  -29.7990  -11.7696   17.4797 H   0  0  0  0  0  0
  -29.7087  -13.4821   17.7838 H   0  0  0  0  0  0
  -27.8322  -11.3247   18.8101 H   0  0  0  0  0  0
  -27.4047  -12.6582   17.7774 H   0  0  0  0  0  0
  -27.7004  -14.2679   19.5596 H   0  0  0  0  0  0
  -28.6386  -12.0097   21.3951 H   0  0  0  0  0  0
  -28.4109  -13.6529   21.8574 H   0  0  0  0  0  0
  -25.2694   -9.5863   22.4650 H   0  0  0  0  0  0
  -24.0049   -7.4714   22.7429 H   0  0  0  0  0  0
  -21.0760   -8.8621   19.8948 H   0  0  0  0  0  0
  -22.3483  -10.9570   19.6126 H   0  0  0  0  0  0
  -21.2056   -7.6122   23.9651 H   0  0  0  0  0  0
  -21.1480   -6.0502   25.9016 H   0  0  0  0  0  0
  -22.0628   -2.7609   23.2793 H   0  0  0  0  0  0
  -22.4160  -11.9975   22.4865 H   0  0  0  0  0  0
  -21.0985  -13.1187   22.2518 H   0  0  0  0  0  0
  -24.6641  -15.8502   20.4878 H   0  0  0  0  0  0
  -26.2784  -15.5977   20.0379 H   0  0  0  0  0  0
  -26.7121  -32.5580   23.1149 H   0  0  0  0  0  0
  -25.0188  -33.9783   25.0568 H   0  0  0  0  0  0
  -22.6803  -31.3140   21.4290 H   0  0  0  0  0  0
  -23.3763  -35.9631   23.3290 H   0  0  0  0  0  0
  -24.3590  -36.8946   22.2045 H   0  0  0  0  0  0
  -23.7208  -37.6507   23.6655 H   0  0  0  0  0  0
  -26.0264  -31.6059   20.5949 H   0  0  0  0  0  0
  -26.8170  -30.8953   21.9761 H   0  0  0  0  0  0
  -28.0841  -29.0993   21.1642 H   0  0  0  0  0  0
  -26.0165  -26.0055   18.9607 H   0  0  0  0  0  0
  -23.9588  -27.3164   19.0170 H   0  0  0  0  0  0
  -23.7157  -30.6265   19.4120 H   0  0  0  0  0  0
  -22.7191  -29.2727   19.8642 H   0  0  0  0  0  0
  -25.1307  -36.1980   25.0804 H   0  0  0  0  0  0
  -20.9923  -28.3280   24.1472 H   0  0  0  0  0  0
  -20.5787  -26.2290   23.3617 H   0  0  0  0  0  0
  -21.6663  -26.7570   22.1181 H   0  0  0  0  0  0
  -19.6935  -25.6338   21.1266 H   0  0  0  0  0  0
  -19.6732  -27.3221   20.6764 H   0  0  0  0  0  0
  -17.4233  -26.6712   21.3991 H   0  0  0  0  0  0
  -18.0302  -26.0144   22.9048 H   0  0  0  0  0  0
  -19.7931  -30.7305   24.2256 H   0  0  0  0  0  0
  -17.5020  -31.6287   24.5213 H   0  0  0  0  0  0
  -15.5347  -30.3016   23.7707 H   0  0  0  0  0  0
  -15.8662  -28.0926   22.6965 H   0  0  0  0  0  0
  -24.5862  -30.7222   25.7873 H   0  0  0  0  0  0
  -24.9059  -32.2968   26.4995 H   0  0  0  0  0  0
  -25.8100  -30.8920   27.0216 H   0  0  0  0  0  0
  -26.2790  -29.6875   24.1152 H   0  0  0  0  0  0
  -27.4047  -29.7290   25.4519 H   0  0  0  0  0  0
  -27.8636  -30.4392   23.9218 H   0  0  0  0  0  0
  -27.2653  -33.3654   26.2084 H   0  0  0  0  0  0
  -28.3857  -32.6940   25.0333 H   0  0  0  0  0  0
  -28.0721  -31.8503   26.5413 H   0  0  0  0  0  0
  -28.2594  -38.0128   24.7551 H   0  0  0  0  0  0
  -28.1096  -36.2640   24.6218 H   0  0  0  0  0  0
  -27.2314  -37.1443   25.8857 H   0  0  0  0  0  0
  -20.9338  -29.8718   21.6934 H   0  0  0  0  0  0
  -26.0177  -38.2902   24.1440 H   0  0  0  0  0  0
  -27.8505  -17.0427   20.3664 H   0  0  0  0  0  0
  -30.1465  -20.5384   19.2491 H   0  0  0  0  0  0
  -32.1544  -17.1334   20.8770 H   0  0  0  0  0  0
  -28.5635  -21.4393   13.9191 H   0  0  0  0  0  0
  -26.9857  -20.7110   14.2374 H   0  0  0  0  0  0
  -28.4658  -19.8138   14.5723 H   0  0  0  0  0  0
  -26.9518  -19.7970   20.2547 H   0  0  0  0  0  0
  -26.8702  -18.8006   18.8634 H   0  0  0  0  0  0
  -27.6235  -22.3853   16.0309 H   0  0  0  0  0  0
  -29.0940  -21.4499   16.3193 H   0  0  0  0  0  0
  -29.3130  -22.6597   19.3312 H   0  0  0  0  0  0
  -28.5386  -23.3730   17.9471 H   0  0  0  0  0  0
  -28.5875  -24.2241   20.8023 H   0  0  0  0  0  0
  -27.0288  -24.4270   20.0623 H   0  0  0  0  0  0
  -27.5042  -19.4584   16.7771 H   0  0  0  0  0  0
  -26.2028  -20.6179   16.9261 H   0  0  0  0  0  0
  -26.3556  -22.3876   18.5266 H   0  0  0  0  0  0
  -26.9684  -21.9058   20.0826 H   0  0  0  0  0  0
  -28.1679  -25.8231   18.2110 H   0  0  0  0  0  0
  -29.6815  -25.5492   19.0116 H   0  0  0  0  0  0
  -29.0843  -15.2450   21.5677 H   0  0  0  0  0  0
  -28.7033  -20.7932   18.4123 H   0  0  0  0  0  0
  1 25  1  0  0  0
  1 30  2  0  0  0
  1 85  1  0  0  0
  2  3  1  0  0  0
  2 25  1  0  0  0
  2 88  1  0  0  0
  2 89  1  0  0  0
  3  4  1  0  0  0
  3 90  1  0  0  0
  3 91  1  0  0  0
  4  5  1  0  0  0
  4 92  1  0  0  0
  4 93  1  0  0  0
  5  6  1  0  0  0
  5 26  1  0  0  0
  5 94  1  0  0  0
  6 25  1  0  0  0
  6 95  1  0  0  0
  6 96  1  0  0  0
  7  8  2  0  0  0
  7 26  1  0  0  0
  7 29  1  0  0  0
  8  9  1  0  0  0
  8 22  1  0  0  0
  9 10  1  0  0  0
  9 27  2  0  0  0
 10 11  2  0  0  0
 10 15  1  0  0  0
 11 12  1  0  0  0
 11 97  1  0  0  0
 12 13  2  0  0  0
 12 98  1  0  0  0
 13 14  1  0  0  0
 13 31  1  0  0  0
 14 15  2  0  0  0
 14 99  1  0  0  0
 15100  1  0  0  0
 16 17  2  0  0  0
 16 21  1  0  0  0
 16 31  1  0  0  0
 17 18  1  0  0  0
 17101  1  0  0  0
 18 19  2  0  0  0
 18102  1  0  0  0
 19 20  1  0  0  0
 19 24  1  0  0  0
 20 21  2  0  0  0
 20103  1  0  0  0
 21 23  1  0  0  0
 22 28  1  0  0  0
 22 32  2  0  0  0
 26 27  1  0  0  0
 28104  1  0  0  0
 28105  1  0  0  0
 29106  1  0  0  0
 29107  1  0  0  0
 33 34  1  0  0  0
 33 66  1  0  0  0
 33 70  2  0  0  0
 34 36  1  0  0  0
 34 59  1  0  0  0
 34108  1  0  0  0
 35 44  2  0  0  0
 35 45  1  0  0  0
 35 68  1  0  0  0
 36 56  1  0  0  0
 36109  1  0  0  0
 37 39  1  0  0  0
 37 47  1  0  0  0
 37 66  1  0  0  0
 37110  1  0  0  0
 38 43  2  0  0  0
 38 46  1  0  0  0
 38 47  1  0  0  0
 39 64  1  0  0  0
 39 67  2  0  0  0
 40 52  1  0  0  0
 40 53  2  0  0  0
 40 58  1  0  0  0
 41111  1  0  0  0
 41112  1  0  0  0
 41113  1  0  0  0
 41 48  1  0  0  0
 42 43  1  0  0  0
 42 66  1  0  0  0
 42114  1  0  0  0
 42115  1  0  0  0
 43 44  1  0  0  0
 44116  1  0  0  0
 45 46  2  0  0  0
 45117  1  0  0  0
 46118  1  0  0  0
 47119  1  0  0  0
 47120  1  0  0  0
 48 56  1  0  0  0
 48 65  1  0  0  0
 48121  1  0  0  0
 49 50  1  0  0  0
 49 53  1  0  0  0
 49 64  1  0  0  0
 49122  1  0  0  0
 50 51  1  0  0  0
 50123  1  0  0  0
 50124  1  0  0  0
 51 52  1  0  0  0
 51125  1  0  0  0
 51126  1  0  0  0
 52127  1  0  0  0
 52128  1  0  0  0
 53 54  1  0  0  0
 54 55  2  0  0  0
 54129  1  0  0  0
 55 57  1  0  0  0
 55130  1  0  0  0
 56 69  2  0  0  0
 57 58  2  0  0  0
 57131  1  0  0  0
 58132  1  0  0  0
 59 60  1  0  0  0
 59 61  1  0  0  0
 59 62  1  0  0  0
 60133  1  0  0  0
 60134  1  0  0  0
 60135  1  0  0  0
 61136  1  0  0  0
 61137  1  0  0  0
 61138  1  0  0  0
 62139  1  0  0  0
 62140  1  0  0  0
 62141  1  0  0  0
 63 65  1  0  0  0
 63142  1  0  0  0
 63143  1  0  0  0
 63144  1  0  0  0
 64145  1  0  0  0
 65146  1  0  0  0
 68 84  1  0  0  0
 71 74  2  0  0  0
 71 75  1  0  0  0
 71147  1  0  0  0
 72 74  1  0  0  0
 72 76  2  0  0  0
 72148  1  0  0  0
 73 75  2  0  0  0
 73 76  1  0  0  0
 73149  1  0  0  0
 74 78  1  0  0  0
 75 85  1  0  0  0
 76 87  1  0  0  0
 77 79  1  0  0  0
 77150  1  0  0  0
 77151  1  0  0  0
 77152  1  0  0  0
 78153  1  0  0  0
 78154  1  0  0  0
 78 86  1  0  0  0
 79 82  1  0  0  0
 79155  1  0  0  0
 79156  1  0  0  0
 80 81  1  0  0  0
 80 83  1  0  0  0
 80157  1  0  0  0
 80158  1  0  0  0
 81 84  1  0  0  0
 81159  1  0  0  0
 81160  1  0  0  0
 82 86  1  0  0  0
 82161  1  0  0  0
 82162  1  0  0  0
 83 86  1  0  0  0
 83163  1  0  0  0
 83164  1  0  0  0
 84165  1  0  0  0
 84166  1  0  0  0
 85167  1  0  0  0
 86168  1  0  0  0
M  CHG  1  86   1
M  ISO  4   1 100  68 101  84 101  85 100
M  END
> <chiral flag>
0

> <version>
0

> <s_m_source_file>
/data/baiqing/PycharmProjects/Reinvent-master-3.2/result/LINK_invent/BTK/process_docking_weight1_custom_product_contain_oxygen_bond_distance_aromatic_linkinvent_7_9_3/rearranged_h_0019.sdf

> <i_m_source_file_index>
5

> <r_mmod_Potential_Energy-OPLS-2005>
-102.791687011719

> <r_mmod_Stretch_Energy-OPLS-2005>
40.0674743652344

> <r_mmod_Bend_Energy-OPLS-2005>
103.12833404541

> <r_mmod_Torsional_Energy-OPLS-2005>
249.901809692383

> <r_mmod_Improper_Torsional_Energy-OPLS-2005>
4.91315412521362

> <r_mmod_Van_der_Waal_Energy-OPLS-2005>
154.282012939453

> <r_mmod_Electrostatic_Energy-OPLS-2005>
-211.724258422852

> <r_mmod_Solvation_Energy-OPLS-2005>
-460.390441894531

> <b_mmod_Minimization_Converged-OPLS-2005>
0

> <r_mmod_RMS_Derivative-OPLS-2005>
8.15908432006836

$$$$
5
                    3D
 Structure written by MMmdl.
173181  0  0  1  0            999 V2000
  -30.7922  -14.5057   20.6160 C   0  0  0  0  0  0
  -30.4083  -12.3483   19.4619 C   0  0  0  0  0  0
  -29.4973  -12.5104   18.2287 C   0  0  0  0  0  0
  -28.0293  -12.3443   18.6530 C   0  0  0  0  0  0
  -27.6569  -13.2295   19.8698 C   0  0  2  0  0  0
  -28.6942  -13.1568   21.0163 C   0  0  0  0  0  0
  -25.2611  -13.8264   20.5764 C   0  0  0  0  0  0
  -24.1837  -13.0481   20.9164 C   0  0  0  0  0  0
  -24.6412  -11.6983   20.8686 C   0  0  0  0  0  0
  -23.9048  -10.4350   21.0331 C   0  0  0  0  0  0
  -24.3618   -9.4293   21.9128 C   0  0  0  0  0  0
  -23.6289   -8.2321   22.0754 C   0  0  0  0  0  0
  -22.4255   -8.0330   21.3559 C   0  0  0  0  0  0
  -21.9840   -9.0264   20.4645 C   0  0  0  0  0  0
  -22.7179  -10.2159   20.2991 C   0  0  0  0  0  0
  -21.6863   -6.0719   22.5283 C   0  0  0  0  0  0
  -21.4015   -6.5605   23.8212 C   0  0  0  0  0  0
  -21.3688   -5.6773   24.9182 C   0  0  0  0  0  0
  -21.6062   -4.3027   24.7238 C   0  0  0  0  0  0
  -21.8788   -3.8117   23.4349 C   0  0  0  0  0  0
  -21.9160   -4.6935   22.3404 C   0  0  0  0  0  0
  -22.7887  -13.5286   21.1810 C   0  0  0  0  0  0
  -22.1621   -4.2096   21.0998 F   0  0  0  0  0  0
  -21.5685   -3.4519   25.7763 F   0  0  0  0  0  0
  -30.0391  -13.3785   20.4533 N   0  0  0  0  0  0
  -26.3042  -12.9455   20.3408 N   0  0  0  0  0  0
  -25.9381  -11.6611   20.5817 N   0  0  0  0  0  0
  -22.0493  -12.8305   22.0377 N   0  0  0  0  0  0
  -25.4376  -15.1976   20.4373 N   0  0  0  0  0  0
  -31.8547  -14.6740   20.0078 O   0  0  0  0  0  0
  -21.6671   -6.8886   21.4254 O   0  0  0  0  0  0
  -22.3551  -14.5541   20.6611 O   0  0  0  0  0  0
  -24.6171  -31.8683   23.2080 C   0  0  0  0  0  0
  -25.9073  -32.4823   23.8376 C   0  0  1  0  0  0
  -27.2550  -27.4341   20.0857 C   0  0  0  0  0  0
  -25.5915  -33.8617   24.2308 N   0  0  0  0  0  0
  -23.4035  -30.4891   21.5498 C   0  0  2  0  0  0
  -24.8575  -28.9457   20.1274 C   0  0  0  0  0  0
  -22.7400  -29.4665   22.5004 C   0  0  0  0  0  0
  -18.0274  -28.1340   22.8494 C   0  0  0  0  0  0
  -24.1481  -36.7315   23.2628 C   0  0  0  0  0  0
  -25.9352  -30.8301   21.3632 C   0  0  0  0  0  0
  -26.0180  -29.4588   20.7227 C   0  0  0  0  0  0
  -27.2217  -28.7076   20.7054 C   0  0  0  0  0  0
  -26.0773  -26.9399   19.4891 C   0  0  0  0  0  0
  -24.8796  -27.6823   19.5117 C   0  0  0  0  0  0
  -23.6153  -29.8111   20.1697 C   0  0  0  0  0  0
  -25.4095  -36.3117   24.0335 C   0  0  1  0  0  0
  -20.5859  -28.3641   23.1312 C   0  0  2  0  0  0
  -20.6748  -26.9380   22.5397 C   0  0  0  0  0  0
  -19.5732  -26.6365   21.5183 C   0  0  0  0  0  0
  -18.1906  -26.7900   22.1596 C   0  0  0  0  0  0
  -19.1515  -28.8810   23.2903 C   0  0  0  0  0  0
  -18.9460  -30.1415   23.8900 C   0  0  0  0  0  0
  -17.6458  -30.6563   24.0564 C   0  0  0  0  0  0
  -25.9039  -34.9485   23.5122 C   0  0  0  0  0  0
  -16.5353  -29.9056   23.6331 C   0  0  0  0  0  0
  -16.7257  -28.6470   23.0364 C   0  0  0  0  0  0
  -26.4490  -31.6611   25.0702 C   0  0  0  0  0  0
  -25.3773  -31.3765   26.1483 C   0  0  0  0  0  0
  -27.0253  -30.3017   24.6102 C   0  0  0  0  0  0
  -27.6100  -32.4290   25.7444 C   0  0  0  0  0  0
  -27.5602  -37.1779   24.8449 C   0  0  0  0  0  0
  -21.4126  -29.3023   22.3736 N   0  0  0  0  0  0
  -26.4279  -37.3813   23.9448 N   0  0  0  0  0  0
  -24.6695  -31.0766   22.0990 N   0  0  0  0  0  0
  -23.4176  -28.8220   23.3065 O   0  0  0  0  0  0
  -28.4174  -26.7046   19.9045 O   0  0  0  0  0  0
  -26.5590  -34.8949   22.4676 O   0  0  0  0  0  0
  -23.5338  -32.1450   23.7470 O   0  0  0  0  0  0
  -29.7594  -19.9089   19.9843 C   0  0  0  0  0  0
  -29.7943  -21.2905   19.6539 C   0  0  0  0  0  0
  -29.9280  -21.8622   21.9878 C   0  0  0  0  0  0
  -29.7919  -19.4846   21.3369 C   0  0  0  0  0  0
  -29.8528  -22.3151   20.6453 C   0  0  0  0  0  0
  -29.9012  -20.4909   22.3246 C   0  0  0  0  0  0
  -33.6453  -25.8601   17.8228 C   0  0  0  0  0  0
  -31.3280  -26.1062   16.8749 C   0  0  0  0  0  0
  -30.6725  -15.3376   22.8324 C   0  0  0  0  0  0
  -29.6437  -18.0061   21.7821 C   0  0  0  0  0  0
  -31.7262  -24.6955   19.0319 C   0  0  0  0  0  0
  -30.3249  -16.8985   20.9062 C   0  0  0  0  0  0
  -30.2668  -24.1842   19.0221 C   0  0  0  0  0  0
  -28.9486  -24.6044   21.1591 C   0  0  0  0  0  0
  -29.1220  -26.1624   21.0269 C   0  0  0  0  0  0
  -32.2754  -25.1751   17.6639 C   0  0  0  0  0  0
  -29.8295  -23.7181   20.3444 N   0  0  0  0  0  0
  -30.3067  -15.4921   21.4189 N   0  0  0  0  0  0
  -29.9567  -20.1411   23.6341 F   0  0  0  0  0  0
  -31.4642  -12.3891   19.1705 H   0  0  0  0  0  0
  -30.2704  -11.3632   19.9085 H   0  0  0  0  0  0
  -29.7528  -11.7619   17.4752 H   0  0  0  0  0  0
  -29.6418  -13.4855   17.7552 H   0  0  0  0  0  0
  -27.8814  -11.2908   18.8974 H   0  0  0  0  0  0
  -27.3693  -12.5704   17.8154 H   0  0  0  0  0  0
  -27.6598  -14.2548   19.4955 H   0  0  0  0  0  0
  -28.6519  -12.2268   21.5767 H   0  0  0  0  0  0
  -28.4216  -13.9143   21.7578 H   0  0  0  0  0  0
  -25.2734   -9.5826   22.4736 H   0  0  0  0  0  0
  -23.9963   -7.4714   22.7502 H   0  0  0  0  0  0
  -21.0730   -8.8758   19.8973 H   0  0  0  0  0  0
  -22.3534  -10.9698   19.6128 H   0  0  0  0  0  0
  -21.1988   -7.6099   23.9686 H   0  0  0  0  0  0
  -21.1587   -6.0537   25.9098 H   0  0  0  0  0  0
  -22.0527   -2.7566   23.2894 H   0  0  0  0  0  0
  -22.4008  -11.9951   22.4819 H   0  0  0  0  0  0
  -21.1192  -13.1566   22.2581 H   0  0  0  0  0  0
  -24.7260  -15.8865   20.6601 H   0  0  0  0  0  0
  -26.3370  -15.6140   20.2325 H   0  0  0  0  0  0
  -26.7131  -32.5549   23.1131 H   0  0  0  0  0  0
  -25.0100  -33.9767   25.0483 H   0  0  0  0  0  0
  -22.6935  -31.3062   21.4020 H   0  0  0  0  0  0
  -23.3790  -35.9599   23.3180 H   0  0  0  0  0  0
  -24.3618  -36.9046   22.2074 H   0  0  0  0  0  0
  -23.7161  -37.6450   23.6710 H   0  0  0  0  0  0
  -26.0433  -31.5941   20.5922 H   0  0  0  0  0  0
  -26.8236  -30.8913   21.9783 H   0  0  0  0  0  0
  -28.1300  -29.1218   21.1219 H   0  0  0  0  0  0
  -26.0923  -25.9854   18.9834 H   0  0  0  0  0  0
  -23.9893  -27.2878   19.0416 H   0  0  0  0  0  0
  -23.7135  -30.5795   19.4004 H   0  0  0  0  0  0
  -22.7405  -29.2220   19.8819 H   0  0  0  0  0  0
  -25.1263  -36.1957   25.0818 H   0  0  0  0  0  0
  -20.9944  -28.3175   24.1444 H   0  0  0  0  0  0
  -20.5603  -26.2249   23.3576 H   0  0  0  0  0  0
  -21.6628  -26.7399   22.1229 H   0  0  0  0  0  0
  -19.6900  -25.6276   21.1205 H   0  0  0  0  0  0
  -19.6678  -27.3186   20.6710 H   0  0  0  0  0  0
  -17.4195  -26.6696   21.3976 H   0  0  0  0  0  0
  -18.0301  -25.9995   22.8932 H   0  0  0  0  0  0
  -19.7937  -30.7222   24.2270 H   0  0  0  0  0  0
  -17.5023  -31.6252   24.5144 H   0  0  0  0  0  0
  -15.5351  -30.2973   23.7624 H   0  0  0  0  0  0
  -15.8660  -28.0772   22.7091 H   0  0  0  0  0  0
  -24.5874  -30.7179   25.7848 H   0  0  0  0  0  0
  -24.9061  -32.2946   26.5000 H   0  0  0  0  0  0
  -25.8143  -30.8874   27.0201 H   0  0  0  0  0  0
  -26.2742  -29.6774   24.1227 H   0  0  0  0  0  0
  -27.4039  -29.7278   25.4577 H   0  0  0  0  0  0
  -27.8607  -30.4261   23.9202 H   0  0  0  0  0  0
  -27.2776  -33.3610   26.2029 H   0  0  0  0  0  0
  -28.3926  -32.6799   25.0268 H   0  0  0  0  0  0
  -28.0745  -31.8380   26.5354 H   0  0  0  0  0  0
  -28.2567  -38.0129   24.7596 H   0  0  0  0  0  0
  -28.1137  -36.2672   24.6113 H   0  0  0  0  0  0
  -27.2347  -37.1255   25.8852 H   0  0  0  0  0  0
  -20.9269  -29.8765   21.6984 H   0  0  0  0  0  0
  -26.0157  -38.2872   24.1519 H   0  0  0  0  0  0
  -29.6818  -19.1849   19.1810 H   0  0  0  0  0  0
  -29.7457  -21.5244   18.6023 H   0  0  0  0  0  0
  -30.0253  -22.5666   22.7983 H   0  0  0  0  0  0
  -34.1394  -25.9786   16.8567 H   0  0  0  0  0  0
  -34.3152  -25.2889   18.4636 H   0  0  0  0  0  0
  -33.5418  -26.8556   18.2572 H   0  0  0  0  0  0
  -31.8411  -27.0096   16.5475 H   0  0  0  0  0  0
  -30.4653  -26.4303   17.4537 H   0  0  0  0  0  0
  -30.9592  -25.6196   15.9731 H   0  0  0  0  0  0
  -31.6883  -15.7011   23.0085 H   0  0  0  0  0  0
  -30.6514  -14.2896   23.1444 H   0  0  0  0  0  0
  -29.9853  -15.8707   23.4851 H   0  0  0  0  0  0
  -28.5742  -17.8134   21.8847 H   0  0  0  0  0  0
  -30.0452  -17.9437   22.7941 H   0  0  0  0  0  0
  -32.3678  -23.8870   19.3899 H   0  0  0  0  0  0
  -31.8437  -25.4861   19.7724 H   0  0  0  0  0  0
  -31.3659  -17.1796   20.7356 H   0  0  0  0  0  0
  -29.8345  -16.8890   19.9320 H   0  0  0  0  0  0
  -30.1522  -23.4475   18.2343 H   0  0  0  0  0  0
  -29.5960  -24.9859   18.7278 H   0  0  0  0  0  0
  -27.9022  -24.3528   20.9868 H   0  0  0  0  0  0
  -29.1347  -24.3671   22.2044 H   0  0  0  0  0  0
  -30.1760  -26.4277   20.9344 H   0  0  0  0  0  0
  -28.7824  -26.6618   21.9348 H   0  0  0  0  0  0
  -32.4426  -24.2776   17.0643 H   0  0  0  0  0  0
  1 25  1  0  0  0
  1 30  2  0  0  0
  1 88  1  0  0  0
  2  3  1  0  0  0
  2 25  1  0  0  0
  2 90  1  0  0  0
  2 91  1  0  0  0
  3  4  1  0  0  0
  3 92  1  0  0  0
  3 93  1  0  0  0
  4  5  1  0  0  0
  4 94  1  0  0  0
  4 95  1  0  0  0
  5  6  1  0  0  0
  5 26  1  0  0  0
  5 96  1  0  0  0
  6 25  1  0  0  0
  6 97  1  0  0  0
  6 98  1  0  0  0
  7  8  2  0  0  0
  7 26  1  0  0  0
  7 29  1  0  0  0
  8  9  1  0  0  0
  8 22  1  0  0  0
  9 10  1  0  0  0
  9 27  2  0  0  0
 10 11  2  0  0  0
 10 15  1  0  0  0
 11 12  1  0  0  0
 11 99  1  0  0  0
 12 13  2  0  0  0
 12100  1  0  0  0
 13 14  1  0  0  0
 13 31  1  0  0  0
 14 15  2  0  0  0
 14101  1  0  0  0
 15102  1  0  0  0
 16 17  2  0  0  0
 16 21  1  0  0  0
 16 31  1  0  0  0
 17 18  1  0  0  0
 17103  1  0  0  0
 18 19  2  0  0  0
 18104  1  0  0  0
 19 20  1  0  0  0
 19 24  1  0  0  0
 20 21  2  0  0  0
 20105  1  0  0  0
 21 23  1  0  0  0
 22 28  1  0  0  0
 22 32  2  0  0  0
 26 27  1  0  0  0
 28106  1  0  0  0
 28107  1  0  0  0
 29108  1  0  0  0
 29109  1  0  0  0
 33 34  1  0  0  0
 33 66  1  0  0  0
 33 70  2  0  0  0
 34 36  1  0  0  0
 34 59  1  0  0  0
 34110  1  0  0  0
 35 44  2  0  0  0
 35 45  1  0  0  0
 35 68  1  0  0  0
 36 56  1  0  0  0
 36111  1  0  0  0
 37 39  1  0  0  0
 37 47  1  0  0  0
 37 66  1  0  0  0
 37112  1  0  0  0
 38 43  2  0  0  0
 38 46  1  0  0  0
 38 47  1  0  0  0
 39 64  1  0  0  0
 39 67  2  0  0  0
 40 52  1  0  0  0
 40 53  2  0  0  0
 40 58  1  0  0  0
 41113  1  0  0  0
 41114  1  0  0  0
 41115  1  0  0  0
 41 48  1  0  0  0
 42 43  1  0  0  0
 42 66  1  0  0  0
 42116  1  0  0  0
 42117  1  0  0  0
 43 44  1  0  0  0
 44118  1  0  0  0
 45 46  2  0  0  0
 45119  1  0  0  0
 46120  1  0  0  0
 47121  1  0  0  0
 47122  1  0  0  0
 48 56  1  0  0  0
 48 65  1  0  0  0
 48123  1  0  0  0
 49 50  1  0  0  0
 49 53  1  0  0  0
 49 64  1  0  0  0
 49124  1  0  0  0
 50 51  1  0  0  0
 50125  1  0  0  0
 50126  1  0  0  0
 51 52  1  0  0  0
 51127  1  0  0  0
 51128  1  0  0  0
 52129  1  0  0  0
 52130  1  0  0  0
 53 54  1  0  0  0
 54 55  2  0  0  0
 54131  1  0  0  0
 55 57  1  0  0  0
 55132  1  0  0  0
 56 69  2  0  0  0
 57 58  2  0  0  0
 57133  1  0  0  0
 58134  1  0  0  0
 59 60  1  0  0  0
 59 61  1  0  0  0
 59 62  1  0  0  0
 60135  1  0  0  0
 60136  1  0  0  0
 60137  1  0  0  0
 61138  1  0  0  0
 61139  1  0  0  0
 61140  1  0  0  0
 62141  1  0  0  0
 62142  1  0  0  0
 62143  1  0  0  0
 63 65  1  0  0  0
 63144  1  0  0  0
 63145  1  0  0  0
 63146  1  0  0  0
 64147  1  0  0  0
 65148  1  0  0  0
 68 85  1  0  0  0
 71 72  2  0  0  0
 71 74  1  0  0  0
 71149  1  0  0  0
 72 75  1  0  0  0
 72150  1  0  0  0
 73 75  2  0  0  0
 73 76  1  0  0  0
 73151  1  0  0  0
 74 76  2  0  0  0
 74 80  1  0  0  0
 75 87  1  0  0  0
 76 89  1  0  0  0
 77152  1  0  0  0
 77153  1  0  0  0
 77154  1  0  0  0
 77 86  1  0  0  0
 78 86  1  0  0  0
 78155  1  0  0  0
 78156  1  0  0  0
 78157  1  0  0  0
 79 88  1  0  0  0
 79158  1  0  0  0
 79159  1  0  0  0
 79160  1  0  0  0
 80 82  1  0  0  0
 80161  1  0  0  0
 80162  1  0  0  0
 81 83  1  0  0  0
 81 86  1  0  0  0
 81163  1  0  0  0
 81164  1  0  0  0
 82 88  1  0  0  0
 82165  1  0  0  0
 82166  1  0  0  0
 83 87  1  0  0  0
 83167  1  0  0  0
 83168  1  0  0  0
 84 85  1  0  0  0
 84 87  1  0  0  0
 84169  1  0  0  0
 84170  1  0  0  0
 85171  1  0  0  0
 85172  1  0  0  0
 86173  1  0  0  0
M  ISO  4   1 100  68 101  85 101  88 100
M  END
> <chiral flag>
0

> <version>
0

> <s_m_source_file>
/data/baiqing/PycharmProjects/Reinvent-master-3.2/result/LINK_invent/BTK/process_docking_weight1_custom_product_contain_oxygen_bond_distance_aromatic_linkinvent_7_9_3/rearranged_h_0019.sdf

> <i_m_source_file_index>
6

> <r_mmod_Potential_Energy-OPLS-2005>
244.968048095703

> <r_mmod_Stretch_Energy-OPLS-2005>
57.2976417541504

> <r_mmod_Bend_Energy-OPLS-2005>
142.202606201172

> <r_mmod_Torsional_Energy-OPLS-2005>
338.134460449219

> <r_mmod_Improper_Torsional_Energy-OPLS-2005>
7.13342523574829

> <r_mmod_Van_der_Waal_Energy-OPLS-2005>
159.155624389648

> <r_mmod_Electrostatic_Energy-OPLS-2005>
-289.602203369141

> <r_mmod_Solvation_Energy-OPLS-2005>
-190.644241333008

> <b_mmod_Minimization_Converged-OPLS-2005>
0

> <r_mmod_RMS_Derivative-OPLS-2005>
8.39714813232422

$$$$
6
                    3D
 Structure written by MMmdl.
162170  0  0  1  0            999 V2000
  -30.6934  -14.4316   20.6193 C   0  0  0  0  0  0
  -30.4345  -12.2991   19.3990 C   0  0  0  0  0  0
  -29.4949  -12.5138   18.1940 C   0  0  0  0  0  0
  -28.0153  -12.3732   18.6081 C   0  0  0  0  0  0
  -27.6695  -13.1921   19.8800 C   0  0  2  0  0  0
  -28.7093  -12.9194   20.9890 C   0  0  0  0  0  0
  -25.2650  -13.8134   20.5694 C   0  0  0  0  0  0
  -24.1873  -13.0439   20.9163 C   0  0  0  0  0  0
  -24.6390  -11.6895   20.8713 C   0  0  0  0  0  0
  -23.9048  -10.4292   21.0396 C   0  0  0  0  0  0
  -24.3605   -9.4212   21.9176 C   0  0  0  0  0  0
  -23.6287   -8.2246   22.0750 C   0  0  0  0  0  0
  -22.4267   -8.0281   21.3547 C   0  0  0  0  0  0
  -21.9896   -9.0250   20.4649 C   0  0  0  0  0  0
  -22.7215  -10.2133   20.3053 C   0  0  0  0  0  0
  -21.6858   -6.0728   22.5276 C   0  0  0  0  0  0
  -21.4006   -6.5633   23.8205 C   0  0  0  0  0  0
  -21.3650   -5.6785   24.9172 C   0  0  0  0  0  0
  -21.6041   -4.3051   24.7229 C   0  0  0  0  0  0
  -21.8826   -3.8143   23.4349 C   0  0  0  0  0  0
  -21.9202   -4.6956   22.3398 C   0  0  0  0  0  0
  -22.7904  -13.5262   21.1827 C   0  0  0  0  0  0
  -22.1674   -4.2146   21.0978 F   0  0  0  0  0  0
  -21.5628   -3.4535   25.7742 F   0  0  0  0  0  0
  -30.0450  -13.2477   20.4517 N   0  0  0  0  0  0
  -26.3065  -12.9263   20.3370 N   0  0  0  0  0  0
  -25.9306  -11.6439   20.5727 N   0  0  0  0  0  0
  -22.0528  -12.8263   22.0381 N   0  0  0  0  0  0
  -25.4448  -15.1847   20.4159 N   0  0  0  0  0  0
  -31.7828  -14.6832   20.0927 O   0  0  0  0  0  0
  -21.6644   -6.8868   21.4238 O   0  0  0  0  0  0
  -22.3594  -14.5571   20.6678 O   0  0  0  0  0  0
  -24.6129  -31.8685   23.2108 C   0  0  0  0  0  0
  -25.9030  -32.4825   23.8394 C   0  0  1  0  0  0
  -27.2386  -27.4544   20.0956 C   0  0  0  0  0  0
  -25.5897  -33.8620   24.2333 N   0  0  0  0  0  0
  -23.4004  -30.4902   21.5511 C   0  0  2  0  0  0
  -24.8494  -28.9546   20.1185 C   0  0  0  0  0  0
  -22.7399  -29.4652   22.5001 C   0  0  0  0  0  0
  -18.0270  -28.1371   22.8488 C   0  0  0  0  0  0
  -24.1471  -36.7294   23.2635 C   0  0  0  0  0  0
  -25.9273  -30.8396   21.3615 C   0  0  0  0  0  0
  -26.0078  -29.4739   20.7119 C   0  0  0  0  0  0
  -27.2085  -28.7306   20.6973 C   0  0  0  0  0  0
  -26.0676  -26.9386   19.5046 C   0  0  0  0  0  0
  -24.8721  -27.6838   19.5144 C   0  0  0  0  0  0
  -23.6091  -29.8188   20.1672 C   0  0  0  0  0  0
  -25.4090  -36.3099   24.0337 C   0  0  1  0  0  0
  -20.5858  -28.3649   23.1321 C   0  0  2  0  0  0
  -20.6755  -26.9378   22.5428 C   0  0  0  0  0  0
  -19.5744  -26.6372   21.5208 C   0  0  0  0  0  0
  -18.1910  -26.7925   22.1600 C   0  0  0  0  0  0
  -19.1521  -28.8826   23.2903 C   0  0  0  0  0  0
  -18.9455  -30.1430   23.8919 C   0  0  0  0  0  0
  -17.6459  -30.6578   24.0563 C   0  0  0  0  0  0
  -25.9028  -34.9471   23.5131 C   0  0  0  0  0  0
  -16.5348  -29.9081   23.6326 C   0  0  0  0  0  0
  -16.7260  -28.6493   23.0356 C   0  0  0  0  0  0
  -26.4467  -31.6602   25.0716 C   0  0  0  0  0  0
  -25.3750  -31.3738   26.1488 C   0  0  0  0  0  0
  -27.0266  -30.3035   24.6074 C   0  0  0  0  0  0
  -27.6063  -32.4309   25.7464 C   0  0  0  0  0  0
  -27.5574  -37.1779   24.8451 C   0  0  0  0  0  0
  -21.4130  -29.3014   22.3732 N   0  0  0  0  0  0
  -26.4268  -37.3790   23.9427 N   0  0  0  0  0  0
  -24.6648  -31.0798   22.0999 N   0  0  0  0  0  0
  -23.4175  -28.8195   23.3043 O   0  0  0  0  0  0
  -28.3981  -26.7195   20.0581 O   0  0  0  0  0  0
  -26.5589  -34.8924   22.4690 O   0  0  0  0  0  0
  -23.5327  -32.1430   23.7519 O   0  0  0  0  0  0
  -31.2838  -18.8757   21.3943 C   0  0  0  0  0  0
  -31.2771  -17.4756   21.2102 C   0  0  0  0  0  0
  -28.9359  -17.4234   21.8563 C   0  0  0  0  0  0
  -30.1231  -19.5667   21.8158 C   0  0  0  0  0  0
  -28.9330  -18.8245   22.0354 C   0  0  0  0  0  0
  -30.0979  -16.7346   21.4506 C   0  0  0  0  0  0
  -27.6460  -19.4909   22.4977 C   0  0  0  0  0  0
  -30.8359  -22.0221   19.9276 C   0  0  0  0  0  0
  -30.2049  -21.0706   22.1146 C   0  0  0  0  0  0
  -29.0634  -24.3810   20.4162 C   0  0  0  0  0  0
  -29.3698  -23.3035   21.4917 C   0  0  0  0  0  0
  -28.4614  -25.6664   21.0230 C   0  0  0  0  0  0
  -30.0015  -15.3176   21.3570 N   0  0  0  0  0  0
  -29.8007  -21.9611   20.9887 N   0  3  1  0  0  0
  -31.4748  -12.4197   19.0933 H   0  0  0  0  0  0
  -30.3533  -11.2768   19.7724 H   0  0  0  0  0  0
  -29.7290  -11.7984   17.4043 H   0  0  0  0  0  0
  -29.6642  -13.5039   17.7674 H   0  0  0  0  0  0
  -27.8198  -11.3151   18.7851 H   0  0  0  0  0  0
  -27.3657  -12.6675   17.7834 H   0  0  0  0  0  0
  -27.7298  -14.2471   19.6120 H   0  0  0  0  0  0
  -28.6869  -11.8653   21.2712 H   0  0  0  0  0  0
  -28.4583  -13.4550   21.9053 H   0  0  0  0  0  0
  -25.2754   -9.5698   22.4746 H   0  0  0  0  0  0
  -24.0014   -7.4635   22.7463 H   0  0  0  0  0  0
  -21.0826   -8.8759   19.8947 H   0  0  0  0  0  0
  -22.3668  -10.9673   19.6166 H   0  0  0  0  0  0
  -21.1983   -7.6137   23.9705 H   0  0  0  0  0  0
  -21.1458   -6.0517   25.9071 H   0  0  0  0  0  0
  -22.0612   -2.7607   23.2857 H   0  0  0  0  0  0
  -22.4130  -11.9926   22.4777 H   0  0  0  0  0  0
  -21.1144  -13.1292   22.2560 H   0  0  0  0  0  0
  -24.6892  -15.8503   20.5353 H   0  0  0  0  0  0
  -26.3071  -15.6164   20.1081 H   0  0  0  0  0  0
  -26.7106  -32.5546   23.1170 H   0  0  0  0  0  0
  -25.0078  -33.9783   25.0497 H   0  0  0  0  0  0
  -22.6871  -31.3053   21.4118 H   0  0  0  0  0  0
  -23.3741  -35.9615   23.3291 H   0  0  0  0  0  0
  -24.3568  -36.8917   22.2049 H   0  0  0  0  0  0
  -23.7212  -37.6488   23.6660 H   0  0  0  0  0  0
  -26.0370  -31.6050   20.5917 H   0  0  0  0  0  0
  -26.8163  -30.8954   21.9779 H   0  0  0  0  0  0
  -28.1073  -29.1293   21.1465 H   0  0  0  0  0  0
  -26.0843  -25.9648   19.0351 H   0  0  0  0  0  0
  -23.9807  -27.2768   19.0573 H   0  0  0  0  0  0
  -23.7143  -30.5918   19.4053 H   0  0  0  0  0  0
  -22.7338  -29.2364   19.8738 H   0  0  0  0  0  0
  -25.1257  -36.1955   25.0827 H   0  0  0  0  0  0
  -20.9941  -28.3220   24.1443 H   0  0  0  0  0  0
  -20.5626  -26.2252   23.3614 H   0  0  0  0  0  0
  -21.6636  -26.7407   22.1245 H   0  0  0  0  0  0
  -19.6898  -25.6287   21.1225 H   0  0  0  0  0  0
  -19.6691  -27.3185   20.6742 H   0  0  0  0  0  0
  -17.4187  -26.6699   21.3989 H   0  0  0  0  0  0
  -18.0280  -26.0054   22.8974 H   0  0  0  0  0  0
  -19.7932  -30.7240   24.2297 H   0  0  0  0  0  0
  -17.5020  -31.6261   24.5155 H   0  0  0  0  0  0
  -15.5354  -30.2995   23.7645 H   0  0  0  0  0  0
  -15.8652  -28.0817   22.7082 H   0  0  0  0  0  0
  -24.5910  -30.7080   25.7865 H   0  0  0  0  0  0
  -24.8961  -32.2909   26.4926 H   0  0  0  0  0  0
  -25.8123  -30.8934   27.0251 H   0  0  0  0  0  0
  -26.2778  -29.6814   24.1155 H   0  0  0  0  0  0
  -27.4060  -29.7256   25.4514 H   0  0  0  0  0  0
  -27.8614  -30.4338   23.9183 H   0  0  0  0  0  0
  -27.2696  -33.3599   26.2077 H   0  0  0  0  0  0
  -28.3850  -32.6883   25.0272 H   0  0  0  0  0  0
  -28.0753  -31.8412   26.5351 H   0  0  0  0  0  0
  -28.2582  -38.0088   24.7536 H   0  0  0  0  0  0
  -28.1080  -36.2632   24.6209 H   0  0  0  0  0  0
  -27.2316  -37.1354   25.8858 H   0  0  0  0  0  0
  -20.9285  -29.8739   21.6962 H   0  0  0  0  0  0
  -26.0154  -38.2849   24.1495 H   0  0  0  0  0  0
  -32.2079  -19.4140   21.2341 H   0  0  0  0  0  0
  -32.1942  -16.9901   20.9120 H   0  0  0  0  0  0
  -28.0279  -16.8665   22.0465 H   0  0  0  0  0  0
  -26.8108  -18.7889   22.4892 H   0  0  0  0  0  0
  -27.3771  -20.3215   21.8461 H   0  0  0  0  0  0
  -27.7489  -19.8640   23.5170 H   0  0  0  0  0  0
  -31.1292  -21.0256   19.5992 H   0  0  0  0  0  0
  -31.7312  -22.5358   20.2791 H   0  0  0  0  0  0
  -30.4699  -22.5398   19.0418 H   0  0  0  0  0  0
  -31.2195  -21.3220   22.4294 H   0  0  0  0  0  0
  -29.5872  -21.2751   22.9896 H   0  0  0  0  0  0
  -28.3776  -23.9875   19.6653 H   0  0  0  0  0  0
  -29.9821  -24.6510   19.8948 H   0  0  0  0  0  0
  -28.4778  -23.1581   22.1036 H   0  0  0  0  0  0
  -30.1373  -23.6916   22.1637 H   0  0  0  0  0  0
  -29.0863  -26.0155   21.8459 H   0  0  0  0  0  0
  -27.4830  -25.4415   21.4538 H   0  0  0  0  0  0
  -29.1513  -14.9240   21.7296 H   0  0  0  0  0  0
  -28.9890  -21.5311   20.5720 H   0  0  0  0  0  0
  1 25  1  0  0  0
  1 30  2  0  0  0
  1 83  1  0  0  0
  2  3  1  0  0  0
  2 25  1  0  0  0
  2 85  1  0  0  0
  2 86  1  0  0  0
  3  4  1  0  0  0
  3 87  1  0  0  0
  3 88  1  0  0  0
  4  5  1  0  0  0
  4 89  1  0  0  0
  4 90  1  0  0  0
  5  6  1  0  0  0
  5 26  1  0  0  0
  5 91  1  0  0  0
  6 25  1  0  0  0
  6 92  1  0  0  0
  6 93  1  0  0  0
  7  8  2  0  0  0
  7 26  1  0  0  0
  7 29  1  0  0  0
  8  9  1  0  0  0
  8 22  1  0  0  0
  9 10  1  0  0  0
  9 27  2  0  0  0
 10 11  2  0  0  0
 10 15  1  0  0  0
 11 12  1  0  0  0
 11 94  1  0  0  0
 12 13  2  0  0  0
 12 95  1  0  0  0
 13 14  1  0  0  0
 13 31  1  0  0  0
 14 15  2  0  0  0
 14 96  1  0  0  0
 15 97  1  0  0  0
 16 17  2  0  0  0
 16 21  1  0  0  0
 16 31  1  0  0  0
 17 18  1  0  0  0
 17 98  1  0  0  0
 18 19  2  0  0  0
 18 99  1  0  0  0
 19 20  1  0  0  0
 19 24  1  0  0  0
 20 21  2  0  0  0
 20100  1  0  0  0
 21 23  1  0  0  0
 22 28  1  0  0  0
 22 32  2  0  0  0
 26 27  1  0  0  0
 28101  1  0  0  0
 28102  1  0  0  0
 29103  1  0  0  0
 29104  1  0  0  0
 33 34  1  0  0  0
 33 66  1  0  0  0
 33 70  2  0  0  0
 34 36  1  0  0  0
 34 59  1  0  0  0
 34105  1  0  0  0
 35 44  2  0  0  0
 35 45  1  0  0  0
 35 68  1  0  0  0
 36 56  1  0  0  0
 36106  1  0  0  0
 37 39  1  0  0  0
 37 47  1  0  0  0
 37 66  1  0  0  0
 37107  1  0  0  0
 38 43  2  0  0  0
 38 46  1  0  0  0
 38 47  1  0  0  0
 39 64  1  0  0  0
 39 67  2  0  0  0
 40 52  1  0  0  0
 40 53  2  0  0  0
 40 58  1  0  0  0
 41108  1  0  0  0
 41109  1  0  0  0
 41110  1  0  0  0
 41 48  1  0  0  0
 42 43  1  0  0  0
 42 66  1  0  0  0
 42111  1  0  0  0
 42112  1  0  0  0
 43 44  1  0  0  0
 44113  1  0  0  0
 45 46  2  0  0  0
 45114  1  0  0  0
 46115  1  0  0  0
 47116  1  0  0  0
 47117  1  0  0  0
 48 56  1  0  0  0
 48 65  1  0  0  0
 48118  1  0  0  0
 49 50  1  0  0  0
 49 53  1  0  0  0
 49 64  1  0  0  0
 49119  1  0  0  0
 50 51  1  0  0  0
 50120  1  0  0  0
 50121  1  0  0  0
 51 52  1  0  0  0
 51122  1  0  0  0
 51123  1  0  0  0
 52124  1  0  0  0
 52125  1  0  0  0
 53 54  1  0  0  0
 54 55  2  0  0  0
 54126  1  0  0  0
 55 57  1  0  0  0
 55127  1  0  0  0
 56 69  2  0  0  0
 57 58  2  0  0  0
 57128  1  0  0  0
 58129  1  0  0  0
 59 60  1  0  0  0
 59 61  1  0  0  0
 59 62  1  0  0  0
 60130  1  0  0  0
 60131  1  0  0  0
 60132  1  0  0  0
 61133  1  0  0  0
 61134  1  0  0  0
 61135  1  0  0  0
 62136  1  0  0  0
 62137  1  0  0  0
 62138  1  0  0  0
 63 65  1  0  0  0
 63139  1  0  0  0
 63140  1  0  0  0
 63141  1  0  0  0
 64142  1  0  0  0
 65143  1  0  0  0
 68 82  1  0  0  0
 71 72  2  0  0  0
 71 74  1  0  0  0
 71144  1  0  0  0
 72 76  1  0  0  0
 72145  1  0  0  0
 73 75  1  0  0  0
 73 76  2  0  0  0
 73146  1  0  0  0
 74 75  2  0  0  0
 74 79  1  0  0  0
 75 77  1  0  0  0
 76 83  1  0  0  0
 77147  1  0  0  0
 77148  1  0  0  0
 77149  1  0  0  0
 78150  1  0  0  0
 78151  1  0  0  0
 78152  1  0  0  0
 78 84  1  0  0  0
 79 84  1  0  0  0
 79153  1  0  0  0
 79154  1  0  0  0
 80 81  1  0  0  0
 80 82  1  0  0  0
 80155  1  0  0  0
 80156  1  0  0  0
 81 84  1  0  0  0
 81157  1  0  0  0
 81158  1  0  0  0
 82159  1  0  0  0
 82160  1  0  0  0
 83161  1  0  0  0
 84162  1  0  0  0
M  CHG  1  84   1
M  ISO  4   1 100  68 101  82 101  83 100
M  END
> <chiral flag>
0

> <version>
0

> <s_m_source_file>
/data/baiqing/PycharmProjects/Reinvent-master-3.2/result/LINK_invent/BTK/process_docking_weight1_custom_product_contain_oxygen_bond_distance_aromatic_linkinvent_7_9_3/rearranged_h_0019.sdf

> <i_m_source_file_index>
7

> <r_mmod_Potential_Energy-OPLS-2005>
-181.292007446289

> <r_mmod_Stretch_Energy-OPLS-2005>
36.5363731384277

> <r_mmod_Bend_Energy-OPLS-2005>
101.221160888672

> <r_mmod_Torsional_Energy-OPLS-2005>
230.888565063477

> <r_mmod_Improper_Torsional_Energy-OPLS-2005>
3.07782912254333

> <r_mmod_Van_der_Waal_Energy-OPLS-2005>
153.278610229492

> <r_mmod_Electrostatic_Energy-OPLS-2005>
-272.305206298828

> <r_mmod_Solvation_Energy-OPLS-2005>
-442.763641357422

> <b_mmod_Minimization_Converged-OPLS-2005>
0

> <r_mmod_RMS_Derivative-OPLS-2005>
1.44268119335175

$$$$
7
                    3D
 Structure written by MMmdl.
188197  0  0  1  0            999 V2000
  -31.2188  -13.6449   21.1577 C   0  0  0  0  0  0
  -30.9191  -12.4984   18.6929 C   0  0  0  0  0  0
  -29.3749  -11.7245   17.9152 C   0  0  0  0  0  0
  -27.5458  -12.0456   18.3240 C   0  0  0  0  0  0
  -27.0151  -13.4347   19.5543 C   0  0  2  0  0  0
  -29.8286  -14.7860   20.3416 C   0  0  0  0  0  0
  -24.9660  -13.8408   20.6986 C   0  0  0  0  0  0
  -23.9908  -13.0051   21.0595 C   0  0  0  0  0  0
  -24.5234  -11.6800   20.9728 C   0  0  0  0  0  0
  -23.8571  -10.3977   21.0736 C   0  0  0  0  0  0
  -24.3350   -9.3896   21.9337 C   0  0  0  0  0  0
  -23.6142   -8.1916   22.0764 C   0  0  0  0  0  0
  -22.4144   -8.0004   21.3562 C   0  0  0  0  0  0
  -21.9756   -8.9948   20.4644 C   0  0  0  0  0  0
  -22.6959  -10.1842   20.3128 C   0  0  0  0  0  0
  -21.6775   -6.0515   22.5261 C   0  0  0  0  0  0
  -21.3922   -6.5525   23.8142 C   0  0  0  0  0  0
  -21.3664   -5.6792   24.9181 C   0  0  0  0  0  0
  -21.6095   -4.3037   24.7320 C   0  0  0  0  0  0
  -21.8795   -3.8019   23.4463 C   0  0  0  0  0  0
  -21.9167   -4.6747   22.3453 C   0  0  0  0  0  0
  -22.5996  -13.4584   21.2757 C   0  0  0  0  0  0
  -22.1676   -4.1991   21.1006 F   0  0  0  0  0  0
  -21.5650   -3.4506   25.7811 F   0  0  0  0  0  0
  -31.0211  -13.7726   19.8594 N   0  0  0  0  0  0
  -25.9939  -13.0134   20.3986 N   0  0  0  0  0  0
  -25.8029  -11.7081   20.6568 N   0  0  0  0  0  0
  -21.8835  -12.7504   22.1241 N   0  0  0  0  0  0
  -24.9700  -15.2071   20.4435 N   0  0  0  0  0  0
  -32.1916  -14.3453   21.4088 O   0  0  0  0  0  0
  -21.6554   -6.8614   21.4217 O   0  0  0  0  0  0
  -22.1780  -14.4841   20.7399 O   0  0  0  0  0  0
  -24.6104  -31.8699   23.2139 C   0  0  0  0  0  0
  -25.9009  -32.4837   23.8424 C   0  0  1  0  0  0
  -27.2479  -27.4800   20.0737 C   0  0  0  0  0  0
  -25.5883  -33.8643   24.2345 N   0  0  0  0  0  0
  -23.3991  -30.4907   21.5527 C   0  0  2  0  0  0
  -24.8490  -28.9552   20.1217 C   0  0  0  0  0  0
  -22.7386  -29.4660   22.5017 C   0  0  0  0  0  0
  -18.0264  -28.1376   22.8490 C   0  0  0  0  0  0
  -24.1495  -36.7338   23.2634 C   0  0  0  0  0  0
  -25.9246  -30.8394   21.3702 C   0  0  0  0  0  0
  -26.0032  -29.4761   20.7204 C   0  0  0  0  0  0
  -27.2057  -28.7401   20.7043 C   0  0  0  0  0  0
  -26.0813  -26.9558   19.4828 C   0  0  0  0  0  0
  -24.8780  -27.6887   19.5089 C   0  0  0  0  0  0
  -23.6081  -29.8170   20.1692 C   0  0  0  0  0  0
  -25.4109  -36.3132   24.0343 C   0  0  1  0  0  0
  -20.5850  -28.3658   23.1338 C   0  0  2  0  0  0
  -20.6755  -26.9392   22.5448 C   0  0  0  0  0  0
  -19.5750  -26.6378   21.5229 C   0  0  0  0  0  0
  -18.1917  -26.7926   22.1614 C   0  0  0  0  0  0
  -19.1513  -28.8832   23.2912 C   0  0  0  0  0  0
  -18.9441  -30.1438   23.8921 C   0  0  0  0  0  0
  -17.6447  -30.6583   24.0565 C   0  0  0  0  0  0
  -25.9028  -34.9489   23.5146 C   0  0  0  0  0  0
  -16.5337  -29.9088   23.6318 C   0  0  0  0  0  0
  -16.7256  -28.6505   23.0339 C   0  0  0  0  0  0
  -26.4447  -31.6619   25.0749 C   0  0  0  0  0  0
  -25.3724  -31.3773   26.1519 C   0  0  0  0  0  0
  -27.0247  -30.3040   24.6149 C   0  0  0  0  0  0
  -27.6051  -32.4330   25.7469 C   0  0  0  0  0  0
  -27.5608  -37.1796   24.8447 C   0  0  0  0  0  0
  -21.4124  -29.3027   22.3748 N   0  0  0  0  0  0
  -26.4300  -37.3813   23.9424 N   0  0  0  0  0  0
  -24.6617  -31.0811   22.1038 N   0  0  0  0  0  0
  -23.4169  -28.8202   23.3055 O   0  0  0  0  0  0
  -28.4225  -26.7819   19.9803 O   0  0  0  0  0  0
  -26.5591  -34.8930   22.4703 O   0  0  0  0  0  0
  -23.5301  -32.1443   23.7541 O   0  0  0  0  0  0
  -27.6020  -15.6005   20.5197 C   0  0  0  0  0  0
  -27.8516  -14.5042   21.6904 C   0  0  0  0  0  0
  -28.9889  -12.6975   20.1096 C   0  0  0  0  0  0
  -28.0519  -15.4902   18.9609 C   0  0  0  0  0  0
  -28.6734  -13.1371   21.5388 C   0  0  0  0  0  0
  -28.8521  -14.0791   18.5119 C   0  0  0  0  0  0
  -27.5914  -16.6194   18.0541 C   0  0  0  0  0  0
  -27.9550  -19.6357   18.3693 C   0  0  0  0  0  0
  -29.3028  -19.5706   16.3010 C   0  0  0  0  0  0
  -28.6777  -20.9284   18.8557 C   0  0  0  0  0  0
  -30.0381  -20.8714   16.7344 C   0  0  0  0  0  0
  -28.8907  -18.7106   17.5251 C   0  0  2  0  0  0
  -29.2858  -21.8271   17.7352 C   0  0  1  0  0  0
  -28.1445  -22.5644   16.9819 C   0  0  0  0  0  0
  -30.6663  -24.9253   22.3948 C   0  0  0  0  0  0
  -28.3189  -16.8454   15.8298 C   0  0  0  0  0  0
  -31.3351  -23.3304   17.4619 C   0  0  0  0  0  0
  -30.6820  -24.8887   19.8475 C   0  0  0  0  0  0
  -29.6440  -23.9165   19.2121 C   0  0  0  0  0  0
  -28.7748  -26.0898   21.1648 C   0  0  0  0  0  0
  -30.2574  -25.6712   21.1142 C   0  0  1  0  0  0
  -30.1428  -13.1210   21.9945 N   0  0  0  0  0  0
  -28.4409  -17.2894   17.2369 N   0  0  0  0  0  0
  -30.2508  -22.8296   18.3656 N   0  3  1  0  0  0
  -26.4067  -16.9629   18.1284 O   0  0  0  0  0  0
  -29.3250  -14.0508   17.2321 F   0  0  0  0  0  0
  -31.5297  -12.8103   17.8420 H   0  0  0  0  0  0
  -31.4986  -11.6759   19.1178 H   0  0  0  0  0  0
  -29.5007  -10.6563   18.0870 H   0  0  0  0  0  0
  -29.4793  -11.7709   16.8281 H   0  0  0  0  0  0
  -27.1510  -11.0894   18.6591 H   0  0  0  0  0  0
  -27.0240  -12.2146   17.3836 H   0  0  0  0  0  0
  -26.3933  -13.9579   18.8129 H   0  0  0  0  0  0
  -29.9232  -15.4891   21.2037 H   0  0  0  0  0  0
  -30.2067  -15.6160   19.7179 H   0  0  0  0  0  0
  -25.2365   -9.5577   22.5039 H   0  0  0  0  0  0
  -23.9846   -7.4312   22.7510 H   0  0  0  0  0  0
  -21.0665   -8.8425   19.8987 H   0  0  0  0  0  0
  -22.3324  -10.9453   19.6315 H   0  0  0  0  0  0
  -21.1828   -7.6007   23.9626 H   0  0  0  0  0  0
  -21.1601   -6.0503   25.9110 H   0  0  0  0  0  0
  -22.0561   -2.7465   23.2992 H   0  0  0  0  0  0
  -22.2546  -11.9098   22.5481 H   0  0  0  0  0  0
  -20.9286  -13.0162   22.3220 H   0  0  0  0  0  0
  -24.1785  -15.8106   20.6097 H   0  0  0  0  0  0
  -25.7092  -15.6536   19.9145 H   0  0  0  0  0  0
  -26.7090  -32.5559   23.1201 H   0  0  0  0  0  0
  -25.0044  -33.9820   25.0500 H   0  0  0  0  0  0
  -22.6876  -31.3072   21.4108 H   0  0  0  0  0  0
  -23.3773  -35.9650   23.3246 H   0  0  0  0  0  0
  -24.3611  -36.9002   22.2059 H   0  0  0  0  0  0
  -23.7212  -37.6516   23.6677 H   0  0  0  0  0  0
  -26.0406  -31.6046   20.6019 H   0  0  0  0  0  0
  -26.8108  -30.8896   21.9914 H   0  0  0  0  0  0
  -28.1031  -29.1417   21.1539 H   0  0  0  0  0  0
  -26.1076  -25.9913   18.9951 H   0  0  0  0  0  0
  -23.9893  -27.2817   19.0467 H   0  0  0  0  0  0
  -23.7127  -30.5886   19.4055 H   0  0  0  0  0  0
  -22.7347  -29.2310   19.8772 H   0  0  0  0  0  0
  -25.1276  -36.2005   25.0835 H   0  0  0  0  0  0
  -20.9933  -28.3225   24.1463 H   0  0  0  0  0  0
  -20.5646  -26.2268   23.3639 H   0  0  0  0  0  0
  -21.6631  -26.7430   22.1255 H   0  0  0  0  0  0
  -19.6914  -25.6290   21.1261 H   0  0  0  0  0  0
  -19.6714  -27.3192   20.6765 H   0  0  0  0  0  0
  -17.4204  -26.6694   21.3996 H   0  0  0  0  0  0
  -18.0291  -26.0059   22.8995 H   0  0  0  0  0  0
  -19.7917  -30.7244   24.2310 H   0  0  0  0  0  0
  -17.5002  -31.6266   24.5160 H   0  0  0  0  0  0
  -15.5340  -30.2996   23.7632 H   0  0  0  0  0  0
  -15.8653  -28.0839   22.7035 H   0  0  0  0  0  0
  -24.5911  -30.7074   25.7911 H   0  0  0  0  0  0
  -24.8892  -32.2946   26.4898 H   0  0  0  0  0  0
  -25.8092  -30.9034   27.0317 H   0  0  0  0  0  0
  -26.2789  -29.6840   24.1161 H   0  0  0  0  0  0
  -27.3928  -29.7255   25.4633 H   0  0  0  0  0  0
  -27.8674  -30.4323   23.9351 H   0  0  0  0  0  0
  -27.2699  -33.3630   26.2074 H   0  0  0  0  0  0
  -28.3816  -32.6890   25.0249 H   0  0  0  0  0  0
  -28.0763  -31.8441   26.5348 H   0  0  0  0  0  0
  -28.2595  -38.0126   24.7553 H   0  0  0  0  0  0
  -28.1132  -36.2665   24.6171 H   0  0  0  0  0  0
  -27.2355  -37.1330   25.8856 H   0  0  0  0  0  0
  -20.9284  -29.8749   21.6970 H   0  0  0  0  0  0
  -26.0201  -38.2889   24.1465 H   0  0  0  0  0  0
  -27.1217  -16.5191   20.8249 H   0  0  0  0  0  0
  -27.5468  -14.7871   22.6914 H   0  0  0  0  0  0
  -29.3800  -11.6828   20.1691 H   0  0  0  0  0  0
  -27.0666  -19.9095   17.7968 H   0  0  0  0  0  0
  -27.5778  -19.1141   19.2457 H   0  0  0  0  0  0
  -29.9761  -19.0222   15.6420 H   0  0  0  0  0  0
  -28.4372  -19.8163   15.6840 H   0  0  0  0  0  0
  -29.4666  -20.6457   19.5554 H   0  0  0  0  0  0
  -27.9749  -21.5114   19.4504 H   0  0  0  0  0  0
  -30.3250  -21.4182   15.8311 H   0  0  0  0  0  0
  -30.9723  -20.5497   17.2009 H   0  0  0  0  0  0
  -29.7907  -18.5635   18.1230 H   0  0  0  0  0  0
  -27.4814  -21.8707   16.4636 H   0  0  0  0  0  0
  -28.5326  -23.2670   16.2416 H   0  0  0  0  0  0
  -27.5021  -23.1295   17.6575 H   0  0  0  0  0  0
  -31.7341  -24.6985   22.4004 H   0  0  0  0  0  0
  -30.1252  -23.9850   22.4994 H   0  0  0  0  0  0
  -30.4647  -25.5303   23.2804 H   0  0  0  0  0  0
  -29.1336  -17.1321   15.1650 H   0  0  0  0  0  0
  -27.3797  -17.1952   15.3943 H   0  0  0  0  0  0
  -28.2745  -15.7577   15.7587 H   0  0  0  0  0  0
  -31.9617  -22.5224   17.0824 H   0  0  0  0  0  0
  -32.0557  -23.9774   17.9616 H   0  0  0  0  0  0
  -30.9394  -23.8960   16.6185 H   0  0  0  0  0  0
  -30.9636  -25.6238   19.0909 H   0  0  0  0  0  0
  -31.6031  -24.3581   20.0914 H   0  0  0  0  0  0
  -28.9497  -24.5180   18.6248 H   0  0  0  0  0  0
  -29.0598  -23.4502   20.0028 H   0  0  0  0  0  0
  -28.6115  -26.7200   22.0418 H   0  0  0  0  0  0
  -28.1241  -25.2212   21.2737 H   0  0  0  0  0  0
  -30.8455  -26.5919   21.1113 H   0  0  0  0  0  0
  -30.3024  -13.1420   22.9909 H   0  0  0  0  0  0
  -30.7623  -22.2806   19.0396 H   0  0  0  0  0  0
  1 25  1  0  0  0
  1 30  2  0  0  0
  1 92  1  0  0  0
  2  3  1  0  0  0
  2 25  1  0  0  0
  2 97  1  0  0  0
  2 98  1  0  0  0
  3  4  1  0  0  0
  3 99  1  0  0  0
  3100  1  0  0  0
  4  5  1  0  0  0
  4101  1  0  0  0
  4102  1  0  0  0
  5  6  1  0  0  0
  5 26  1  0  0  0
  5103  1  0  0  0
  6 25  1  0  0  0
  6104  1  0  0  0
  6105  1  0  0  0
  7  8  2  0  0  0
  7 26  1  0  0  0
  7 29  1  0  0  0
  8  9  1  0  0  0
  8 22  1  0  0  0
  9 10  1  0  0  0
  9 27  2  0  0  0
 10 11  2  0  0  0
 10 15  1  0  0  0
 11 12  1  0  0  0
 11106  1  0  0  0
 12 13  2  0  0  0
 12107  1  0  0  0
 13 14  1  0  0  0
 13 31  1  0  0  0
 14 15  2  0  0  0
 14108  1  0  0  0
 15109  1  0  0  0
 16 17  2  0  0  0
 16 21  1  0  0  0
 16 31  1  0  0  0
 17 18  1  0  0  0
 17110  1  0  0  0
 18 19  2  0  0  0
 18111  1  0  0  0
 19 20  1  0  0  0
 19 24  1  0  0  0
 20 21  2  0  0  0
 20112  1  0  0  0
 21 23  1  0  0  0
 22 28  1  0  0  0
 22 32  2  0  0  0
 26 27  1  0  0  0
 28113  1  0  0  0
 28114  1  0  0  0
 29115  1  0  0  0
 29116  1  0  0  0
 33 34  1  0  0  0
 33 66  1  0  0  0
 33 70  2  0  0  0
 34 36  1  0  0  0
 34 59  1  0  0  0
 34117  1  0  0  0
 35 44  2  0  0  0
 35 45  1  0  0  0
 35 68  1  0  0  0
 36 56  1  0  0  0
 36118  1  0  0  0
 37 39  1  0  0  0
 37 47  1  0  0  0
 37 66  1  0  0  0
 37119  1  0  0  0
 38 43  2  0  0  0
 38 46  1  0  0  0
 38 47  1  0  0  0
 39 64  1  0  0  0
 39 67  2  0  0  0
 40 52  1  0  0  0
 40 53  2  0  0  0
 40 58  1  0  0  0
 41120  1  0  0  0
 41121  1  0  0  0
 41122  1  0  0  0
 41 48  1  0  0  0
 42 43  1  0  0  0
 42 66  1  0  0  0
 42123  1  0  0  0
 42124  1  0  0  0
 43 44  1  0  0  0
 44125  1  0  0  0
 45 46  2  0  0  0
 45126  1  0  0  0
 46127  1  0  0  0
 47128  1  0  0  0
 47129  1  0  0  0
 48 56  1  0  0  0
 48 65  1  0  0  0
 48130  1  0  0  0
 49 50  1  0  0  0
 49 53  1  0  0  0
 49 64  1  0  0  0
 49131  1  0  0  0
 50 51  1  0  0  0
 50132  1  0  0  0
 50133  1  0  0  0
 51 52  1  0  0  0
 51134  1  0  0  0
 51135  1  0  0  0
 52136  1  0  0  0
 52137  1  0  0  0
 53 54  1  0  0  0
 54 55  2  0  0  0
 54138  1  0  0  0
 55 57  1  0  0  0
 55139  1  0  0  0
 56 69  2  0  0  0
 57 58  2  0  0  0
 57140  1  0  0  0
 58141  1  0  0  0
 59 60  1  0  0  0
 59 61  1  0  0  0
 59 62  1  0  0  0
 60142  1  0  0  0
 60143  1  0  0  0
 60144  1  0  0  0
 61145  1  0  0  0
 61146  1  0  0  0
 61147  1  0  0  0
 62148  1  0  0  0
 62149  1  0  0  0
 62150  1  0  0  0
 63 65  1  0  0  0
 63151  1  0  0  0
 63152  1  0  0  0
 63153  1  0  0  0
 64154  1  0  0  0
 65155  1  0  0  0
 68 90  1  0  0  0
 71 72  2  0  0  0
 71 74  1  0  0  0
 71156  1  0  0  0
 72 75  1  0  0  0
 72157  1  0  0  0
 73 75  2  0  0  0
 73 76  1  0  0  0
 73158  1  0  0  0
 74 76  2  0  0  0
 74 77  1  0  0  0
 75 92  1  0  0  0
 76 96  1  0  0  0
 77 93  1  0  0  0
 77 95  2  0  0  0
 78 80  1  0  0  0
 78 82  1  0  0  0
 78159  1  0  0  0
 78160  1  0  0  0
 79 81  1  0  0  0
 79 82  1  0  0  0
 79161  1  0  0  0
 79162  1  0  0  0
 80 83  1  0  0  0
 80163  1  0  0  0
 80164  1  0  0  0
 81 83  1  0  0  0
 81165  1  0  0  0
 81166  1  0  0  0
 82 93  1  0  0  0
 82167  1  0  0  0
 83 84  1  0  0  0
 83 94  1  0  0  0
 84168  1  0  0  0
 84169  1  0  0  0
 84170  1  0  0  0
 85171  1  0  0  0
 85172  1  0  0  0
 85173  1  0  0  0
 85 91  1  0  0  0
 86 93  1  0  0  0
 86174  1  0  0  0
 86175  1  0  0  0
 86176  1  0  0  0
 87177  1  0  0  0
 87178  1  0  0  0
 87179  1  0  0  0
 87 94  1  0  0  0
 88 89  1  0  0  0
 88 91  1  0  0  0
 88180  1  0  0  0
 88181  1  0  0  0
 89 94  1  0  0  0
 89182  1  0  0  0
 89183  1  0  0  0
 90 91  1  0  0  0
 90184  1  0  0  0
 90185  1  0  0  0
 91186  1  0  0  0
 92187  1  0  0  0
 94188  1  0  0  0
M  CHG  1  94   1
M  ISO  4   1 100  68 101  90 101  92 100
M  END
> <chiral flag>
0

> <version>
0

> <s_m_source_file>
/data/baiqing/PycharmProjects/Reinvent-master-3.2/result/LINK_invent/BTK/process_docking_weight1_custom_product_contain_oxygen_bond_distance_aromatic_linkinvent_7_9_3/rearranged_h_0019.sdf

> <i_m_source_file_index>
8

> <r_mmod_Potential_Energy-OPLS-2005>
10497.1748046875

> <r_mmod_Stretch_Energy-OPLS-2005>
5445.77978515625

> <r_mmod_Bend_Energy-OPLS-2005>
579.0693359375

> <r_mmod_Torsional_Energy-OPLS-2005>
688.874145507812

> <r_mmod_Improper_Torsional_Energy-OPLS-2005>
53.5375289916992

> <r_mmod_Van_der_Waal_Energy-OPLS-2005>
3071.51733398438

> <r_mmod_Electrostatic_Energy-OPLS-2005>
-237.345565795898

> <r_mmod_Solvation_Energy-OPLS-2005>
-412.977966308594

> <b_mmod_Minimization_Converged-OPLS-2005>
0

> <r_mmod_RMS_Derivative-OPLS-2005>
11.3724784851074

$$$$
8
                    3D
 Structure written by MMmdl.
162170  0  0  1  0            999 V2000
  -30.7555  -14.4121   20.6627 C   0  0  0  0  0  0
  -30.4123  -12.3016   19.4194 C   0  0  0  0  0  0
  -29.4979  -12.5202   18.1988 C   0  0  0  0  0  0
  -28.0141  -12.3899   18.5926 C   0  0  0  0  0  0
  -27.6578  -13.2126   19.8574 C   0  0  2  0  0  0
  -28.6828  -12.9791   20.9821 C   0  0  0  0  0  0
  -25.2584  -13.8192   20.5631 C   0  0  0  0  0  0
  -24.1853  -13.0453   20.9136 C   0  0  0  0  0  0
  -24.6409  -11.6924   20.8706 C   0  0  0  0  0  0
  -23.9065  -10.4301   21.0397 C   0  0  0  0  0  0
  -24.3623   -9.4219   21.9179 C   0  0  0  0  0  0
  -23.6309   -8.2251   22.0748 C   0  0  0  0  0  0
  -22.4285   -8.0286   21.3538 C   0  0  0  0  0  0
  -21.9907   -9.0260   20.4646 C   0  0  0  0  0  0
  -22.7226  -10.2142   20.3055 C   0  0  0  0  0  0
  -21.6865   -6.0741   22.5281 C   0  0  0  0  0  0
  -21.4011   -6.5637   23.8217 C   0  0  0  0  0  0
  -21.3664   -5.6793   24.9177 C   0  0  0  0  0  0
  -21.6049   -4.3053   24.7229 C   0  0  0  0  0  0
  -21.8821   -3.8148   23.4344 C   0  0  0  0  0  0
  -21.9190   -4.6971   22.3406 C   0  0  0  0  0  0
  -22.7867  -13.5231   21.1865 C   0  0  0  0  0  0
  -22.1665   -4.2146   21.0985 F   0  0  0  0  0  0
  -21.5632   -3.4540   25.7740 F   0  0  0  0  0  0
  -30.0300  -13.2732   20.4583 N   0  0  0  0  0  0
  -26.2991  -12.9368   20.3207 N   0  0  0  0  0  0
  -25.9316  -11.6520   20.5639 N   0  0  0  0  0  0
  -22.0514  -12.8236   22.0418 N   0  0  0  0  0  0
  -25.4331  -15.1915   20.4100 N   0  0  0  0  0  0
  -31.8126  -14.6350   20.0607 O   0  0  0  0  0  0
  -21.6648   -6.8883   21.4243 O   0  0  0  0  0  0
  -22.3540  -14.5564   20.6722 O   0  0  0  0  0  0
  -24.6184  -31.8634   23.2065 C   0  0  0  0  0  0
  -25.9061  -32.4807   23.8382 C   0  0  1  0  0  0
  -27.2396  -27.4263   20.0864 C   0  0  0  0  0  0
  -25.5893  -33.8607   24.2304 N   0  0  0  0  0  0
  -23.4062  -30.4879   21.5488 C   0  0  2  0  0  0
  -24.8516  -28.9425   20.1240 C   0  0  0  0  0  0
  -22.7413  -29.4655   22.4998 C   0  0  0  0  0  0
  -18.0274  -28.1393   22.8486 C   0  0  0  0  0  0
  -24.1476  -36.7317   23.2644 C   0  0  0  0  0  0
  -25.9329  -30.8323   21.3523 C   0  0  0  0  0  0
  -26.0161  -29.4615   20.7056 C   0  0  0  0  0  0
  -27.2183  -28.7137   20.6742 C   0  0  0  0  0  0
  -26.0522  -26.9105   19.5272 C   0  0  0  0  0  0
  -24.8642  -27.6658   19.5359 C   0  0  0  0  0  0
  -23.6146  -29.8130   20.1649 C   0  0  0  0  0  0
  -25.4092  -36.3113   24.0347 C   0  0  1  0  0  0
  -20.5865  -28.3676   23.1306 C   0  0  2  0  0  0
  -20.6774  -26.9411   22.5417 C   0  0  0  0  0  0
  -19.5747  -26.6385   21.5221 C   0  0  0  0  0  0
  -18.1914  -26.7938   22.1625 C   0  0  0  0  0  0
  -19.1525  -28.8851   23.2899 C   0  0  0  0  0  0
  -18.9465  -30.1461   23.8901 C   0  0  0  0  0  0
  -17.6467  -30.6603   24.0564 C   0  0  0  0  0  0
  -25.9021  -34.9480   23.5118 C   0  0  0  0  0  0
  -16.5350  -29.9106   23.6335 C   0  0  0  0  0  0
  -16.7265  -28.6528   23.0346 C   0  0  0  0  0  0
  -26.4472  -31.6608   25.0726 C   0  0  0  0  0  0
  -25.3718  -31.3709   26.1469 C   0  0  0  0  0  0
  -27.0318  -30.3080   24.6059 C   0  0  0  0  0  0
  -27.6067  -32.4318   25.7458 C   0  0  0  0  0  0
  -27.5581  -37.1797   24.8463 C   0  0  0  0  0  0
  -21.4146  -29.3027   22.3719 N   0  0  0  0  0  0
  -26.4280  -37.3806   23.9426 N   0  0  0  0  0  0
  -24.6723  -31.0759   22.0950 N   0  0  0  0  0  0
  -23.4169  -28.8204   23.3056 O   0  0  0  0  0  0
  -28.4073  -26.6932   20.0385 O   0  0  0  0  0  0
  -26.5610  -34.8940   22.4690 O   0  0  0  0  0  0
  -23.5378  -32.1376   23.7473 O   0  0  0  0  0  0
  -30.0142  -18.4724   19.3727 C   0  0  0  0  0  0
  -29.9631  -17.1192   19.7825 C   0  0  0  0  0  0
  -30.3749  -19.1469   21.6663 C   0  0  0  0  0  0
  -30.2437  -19.5032   20.3101 C   0  0  0  0  0  0
  -30.1819  -16.7399   21.1375 C   0  0  0  0  0  0
  -30.3576  -17.7985   22.0770 C   0  0  0  0  0  0
  -30.2589  -14.9546   22.9440 C   0  0  0  0  0  0
  -28.4251  -21.3186   18.5263 C   0  0  0  0  0  0
  -30.4564  -20.9680   19.8872 C   0  0  0  0  0  0
  -28.2191  -24.1495   19.8533 C   0  0  0  0  0  0
  -29.4875  -23.2569   19.6869 C   0  0  0  0  0  0
  -28.3891  -25.4322   20.7273 C   0  0  0  0  0  0
  -30.2465  -15.3346   21.5189 N   0  0  0  0  0  0
  -29.2175  -21.7791   19.6944 N   0  3  1  0  0  0
  -30.5519  -17.5641   23.3946 F   0  0  0  0  0  0
  -31.4604  -12.3861   19.1235 H   0  0  0  0  0  0
  -30.3006  -11.2847   19.7977 H   0  0  0  0  0  0
  -29.7434  -11.8051   17.4099 H   0  0  0  0  0  0
  -29.6856  -13.5110   17.7803 H   0  0  0  0  0  0
  -27.8065  -11.3325   18.7632 H   0  0  0  0  0  0
  -27.3818  -12.6959   17.7591 H   0  0  0  0  0  0
  -27.7085  -14.2670   19.5812 H   0  0  0  0  0  0
  -28.6403  -11.9453   21.3293 H   0  0  0  0  0  0
  -28.3938  -13.5849   21.8372 H   0  0  0  0  0  0
  -25.2771   -9.5705   22.4743 H   0  0  0  0  0  0
  -24.0024   -7.4640   22.7461 H   0  0  0  0  0  0
  -21.0831   -8.8777   19.8961 H   0  0  0  0  0  0
  -22.3679  -10.9684   19.6170 H   0  0  0  0  0  0
  -21.2005   -7.6140   23.9717 H   0  0  0  0  0  0
  -21.1490   -6.0522   25.9082 H   0  0  0  0  0  0
  -22.0599   -2.7605   23.2850 H   0  0  0  0  0  0
  -22.4119  -11.9895   22.4821 H   0  0  0  0  0  0
  -21.1126  -13.1283   22.2622 H   0  0  0  0  0  0
  -24.6787  -15.8535   20.5426 H   0  0  0  0  0  0
  -26.2991  -15.6295   20.1253 H   0  0  0  0  0  0
  -26.7110  -32.5533   23.1142 H   0  0  0  0  0  0
  -25.0052  -33.9752   25.0458 H   0  0  0  0  0  0
  -22.6955  -31.3051   21.4041 H   0  0  0  0  0  0
  -23.3753  -35.9640   23.3313 H   0  0  0  0  0  0
  -24.3554  -36.8931   22.2053 H   0  0  0  0  0  0
  -23.7208  -37.6519   23.6644 H   0  0  0  0  0  0
  -26.0244  -31.5872   20.5702 H   0  0  0  0  0  0
  -26.8274  -30.9023   21.9587 H   0  0  0  0  0  0
  -28.1276  -29.1141   21.1009 H   0  0  0  0  0  0
  -26.0432  -25.9283   19.0765 H   0  0  0  0  0  0
  -23.9649  -27.2530   19.1000 H   0  0  0  0  0  0
  -23.7229  -30.5811   19.3970 H   0  0  0  0  0  0
  -22.7364  -29.2329   19.8782 H   0  0  0  0  0  0
  -25.1263  -36.1981   25.0844 H   0  0  0  0  0  0
  -20.9944  -28.3248   24.1444 H   0  0  0  0  0  0
  -20.5660  -26.2287   23.3612 H   0  0  0  0  0  0
  -21.6644  -26.7449   22.1216 H   0  0  0  0  0  0
  -19.6904  -25.6289   21.1262 H   0  0  0  0  0  0
  -19.6707  -27.3193   20.6744 H   0  0  0  0  0  0
  -17.4189  -26.6683   21.4033 H   0  0  0  0  0  0
  -18.0334  -26.0082   22.9018 H   0  0  0  0  0  0
  -19.7931  -30.7288   24.2262 H   0  0  0  0  0  0
  -17.5018  -31.6283   24.5177 H   0  0  0  0  0  0
  -15.5350  -30.3018   23.7676 H   0  0  0  0  0  0
  -15.8658  -28.0870   22.7053 H   0  0  0  0  0  0
  -24.5903  -30.7038   25.7798 H   0  0  0  0  0  0
  -24.8893  -32.2866   26.4909 H   0  0  0  0  0  0
  -25.8079  -30.8885   27.0223 H   0  0  0  0  0  0
  -26.2858  -29.6823   24.1139 H   0  0  0  0  0  0
  -27.4164  -29.7340   25.4496 H   0  0  0  0  0  0
  -27.8644  -30.4477   23.9156 H   0  0  0  0  0  0
  -27.2728  -33.3626   26.2051 H   0  0  0  0  0  0
  -28.3859  -32.6845   25.0253 H   0  0  0  0  0  0
  -28.0725  -31.8403   26.5350 H   0  0  0  0  0  0
  -28.2599  -38.0101   24.7560 H   0  0  0  0  0  0
  -28.1078  -36.2645   24.6224 H   0  0  0  0  0  0
  -27.2308  -37.1378   25.8868 H   0  0  0  0  0  0
  -20.9324  -29.8742   21.6930 H   0  0  0  0  0  0
  -26.0184  -38.2882   24.1477 H   0  0  0  0  0  0
  -29.9027  -18.7050   18.3220 H   0  0  0  0  0  0
  -29.7901  -16.3704   19.0222 H   0  0  0  0  0  0
  -30.5453  -19.9110   22.4120 H   0  0  0  0  0  0
  -29.4129  -15.3977   23.4717 H   0  0  0  0  0  0
  -31.1844  -15.2739   23.4198 H   0  0  0  0  0  0
  -30.1994  -13.8794   23.1149 H   0  0  0  0  0  0
  -28.0762  -20.2966   18.6808 H   0  0  0  0  0  0
  -29.0179  -21.3370   17.6102 H   0  0  0  0  0  0
  -27.5356  -21.9267   18.3683 H   0  0  0  0  0  0
  -31.0700  -21.0133   18.9865 H   0  0  0  0  0  0
  -31.0623  -21.4303   20.6678 H   0  0  0  0  0  0
  -27.4411  -23.5514   20.3254 H   0  0  0  0  0  0
  -27.8205  -24.4032   18.8688 H   0  0  0  0  0  0
  -30.1861  -23.4790   20.4961 H   0  0  0  0  0  0
  -30.0114  -23.5350   18.7684 H   0  0  0  0  0  0
  -27.5987  -25.4434   21.4820 H   0  0  0  0  0  0
  -29.3149  -25.3699   21.3009 H   0  0  0  0  0  0
  -28.6572  -21.5992   20.5121 H   0  0  0  0  0  0
  1 25  1  0  0  0
  1 30  2  0  0  0
  1 83  1  0  0  0
  2  3  1  0  0  0
  2 25  1  0  0  0
  2 86  1  0  0  0
  2 87  1  0  0  0
  3  4  1  0  0  0
  3 88  1  0  0  0
  3 89  1  0  0  0
  4  5  1  0  0  0
  4 90  1  0  0  0
  4 91  1  0  0  0
  5  6  1  0  0  0
  5 26  1  0  0  0
  5 92  1  0  0  0
  6 25  1  0  0  0
  6 93  1  0  0  0
  6 94  1  0  0  0
  7  8  2  0  0  0
  7 26  1  0  0  0
  7 29  1  0  0  0
  8  9  1  0  0  0
  8 22  1  0  0  0
  9 10  1  0  0  0
  9 27  2  0  0  0
 10 11  2  0  0  0
 10 15  1  0  0  0
 11 12  1  0  0  0
 11 95  1  0  0  0
 12 13  2  0  0  0
 12 96  1  0  0  0
 13 14  1  0  0  0
 13 31  1  0  0  0
 14 15  2  0  0  0
 14 97  1  0  0  0
 15 98  1  0  0  0
 16 17  2  0  0  0
 16 21  1  0  0  0
 16 31  1  0  0  0
 17 18  1  0  0  0
 17 99  1  0  0  0
 18 19  2  0  0  0
 18100  1  0  0  0
 19 20  1  0  0  0
 19 24  1  0  0  0
 20 21  2  0  0  0
 20101  1  0  0  0
 21 23  1  0  0  0
 22 28  1  0  0  0
 22 32  2  0  0  0
 26 27  1  0  0  0
 28102  1  0  0  0
 28103  1  0  0  0
 29104  1  0  0  0
 29105  1  0  0  0
 33 34  1  0  0  0
 33 66  1  0  0  0
 33 70  2  0  0  0
 34 36  1  0  0  0
 34 59  1  0  0  0
 34106  1  0  0  0
 35 44  2  0  0  0
 35 45  1  0  0  0
 35 68  1  0  0  0
 36 56  1  0  0  0
 36107  1  0  0  0
 37 39  1  0  0  0
 37 47  1  0  0  0
 37 66  1  0  0  0
 37108  1  0  0  0
 38 43  2  0  0  0
 38 46  1  0  0  0
 38 47  1  0  0  0
 39 64  1  0  0  0
 39 67  2  0  0  0
 40 52  1  0  0  0
 40 53  2  0  0  0
 40 58  1  0  0  0
 41109  1  0  0  0
 41110  1  0  0  0
 41111  1  0  0  0
 41 48  1  0  0  0
 42 43  1  0  0  0
 42 66  1  0  0  0
 42112  1  0  0  0
 42113  1  0  0  0
 43 44  1  0  0  0
 44114  1  0  0  0
 45 46  2  0  0  0
 45115  1  0  0  0
 46116  1  0  0  0
 47117  1  0  0  0
 47118  1  0  0  0
 48 56  1  0  0  0
 48 65  1  0  0  0
 48119  1  0  0  0
 49 50  1  0  0  0
 49 53  1  0  0  0
 49 64  1  0  0  0
 49120  1  0  0  0
 50 51  1  0  0  0
 50121  1  0  0  0
 50122  1  0  0  0
 51 52  1  0  0  0
 51123  1  0  0  0
 51124  1  0  0  0
 52125  1  0  0  0
 52126  1  0  0  0
 53 54  1  0  0  0
 54 55  2  0  0  0
 54127  1  0  0  0
 55 57  1  0  0  0
 55128  1  0  0  0
 56 69  2  0  0  0
 57 58  2  0  0  0
 57129  1  0  0  0
 58130  1  0  0  0
 59 60  1  0  0  0
 59 61  1  0  0  0
 59 62  1  0  0  0
 60131  1  0  0  0
 60132  1  0  0  0
 60133  1  0  0  0
 61134  1  0  0  0
 61135  1  0  0  0
 61136  1  0  0  0
 62137  1  0  0  0
 62138  1  0  0  0
 62139  1  0  0  0
 63 65  1  0  0  0
 63140  1  0  0  0
 63141  1  0  0  0
 63142  1  0  0  0
 64143  1  0  0  0
 65144  1  0  0  0
 68 82  1  0  0  0
 71 72  2  0  0  0
 71 74  1  0  0  0
 71145  1  0  0  0
 72 75  1  0  0  0
 72146  1  0  0  0
 73 74  2  0  0  0
 73 76  1  0  0  0
 73147  1  0  0  0
 74 79  1  0  0  0
 75 76  2  0  0  0
 75 83  1  0  0  0
 76 85  1  0  0  0
 77 83  1  0  0  0
 77148  1  0  0  0
 77149  1  0  0  0
 77150  1  0  0  0
 78151  1  0  0  0
 78152  1  0  0  0
 78153  1  0  0  0
 78 84  1  0  0  0
 79 84  1  0  0  0
 79154  1  0  0  0
 79155  1  0  0  0
 80 81  1  0  0  0
 80 82  1  0  0  0
 80156  1  0  0  0
 80157  1  0  0  0
 81 84  1  0  0  0
 81158  1  0  0  0
 81159  1  0  0  0
 82160  1  0  0  0
 82161  1  0  0  0
 84162  1  0  0  0
M  CHG  1  84   1
M  ISO  4   1 100  68 101  82 101  83 100
M  END
> <chiral flag>
0

> <version>
0

> <s_m_source_file>
/data/baiqing/PycharmProjects/Reinvent-master-3.2/result/LINK_invent/BTK/process_docking_weight1_custom_product_contain_oxygen_bond_distance_aromatic_linkinvent_7_9_3/rearranged_h_0019.sdf

> <i_m_source_file_index>
9

> <r_mmod_Potential_Energy-OPLS-2005>
-5.08770847320557

> <r_mmod_Stretch_Energy-OPLS-2005>
47.7403793334961

> <r_mmod_Bend_Energy-OPLS-2005>
107.14151763916

> <r_mmod_Torsional_Energy-OPLS-2005>
307.034240722656

> <r_mmod_Improper_Torsional_Energy-OPLS-2005>
3.27989721298218

> <r_mmod_Van_der_Waal_Energy-OPLS-2005>
167.20915222168

> <r_mmod_Electrostatic_Energy-OPLS-2005>
-203.203659057617

> <r_mmod_Solvation_Energy-OPLS-2005>
-444.204864501953

> <b_mmod_Minimization_Converged-OPLS-2005>
0

> <r_mmod_RMS_Derivative-OPLS-2005>
3.97116446495056

$$$$
9
                    3D
 Structure written by MMmdl.
153161  0  0  1  0            999 V2000
  -30.4145  -15.1725   20.4200 C   0  0  0  0  0  0
  -30.4390  -12.7398   19.5370 C   0  0  0  0  0  0
  -29.5453  -12.6039   18.2799 C   0  0  0  0  0  0
  -28.0763  -12.3405   18.6732 C   0  0  0  0  0  0
  -27.6134  -13.2707   19.8248 C   0  0  2  0  0  0
  -28.6415  -13.3473   20.9694 C   0  0  0  0  0  0
  -25.2362  -13.8201   20.5657 C   0  0  0  0  0  0
  -24.1733  -13.0400   20.9218 C   0  0  0  0  0  0
  -24.6373  -11.6911   20.8676 C   0  0  0  0  0  0
  -23.9055  -10.4272   21.0356 C   0  0  0  0  0  0
  -24.3624   -9.4200   21.9143 C   0  0  0  0  0  0
  -23.6309   -8.2220   22.0725 C   0  0  0  0  0  0
  -22.4286   -8.0230   21.3509 C   0  0  0  0  0  0
  -21.9902   -9.0186   20.4594 C   0  0  0  0  0  0
  -22.7225  -10.2076   20.2998 C   0  0  0  0  0  0
  -21.6855   -6.0680   22.5262 C   0  0  0  0  0  0
  -21.4022   -6.5594   23.8190 C   0  0  0  0  0  0
  -21.3692   -5.6763   24.9163 C   0  0  0  0  0  0
  -21.6056   -4.3022   24.7211 C   0  0  0  0  0  0
  -21.8830   -3.8096   23.4338 C   0  0  0  0  0  0
  -21.9193   -4.6907   22.3387 C   0  0  0  0  0  0
  -22.7751  -13.5143   21.1889 C   0  0  0  0  0  0
  -22.1663   -4.2088   21.0969 F   0  0  0  0  0  0
  -21.5643   -3.4530   25.7735 F   0  0  0  0  0  0
  -29.8928  -13.8552   20.3829 N   0  0  0  0  0  0
  -26.2769  -12.9482   20.3065 N   0  0  0  0  0  0
  -25.9296  -11.6577   20.5586 N   0  0  0  0  0  0
  -22.0390  -12.8136   22.0441 N   0  0  0  0  0  0
  -25.3946  -15.1944   20.4184 N   0  0  0  0  0  0
  -31.6288  -15.2388   20.1732 O   0  0  0  0  0  0
  -21.6655   -6.8825   21.4219 O   0  0  0  0  0  0
  -22.3432  -14.5423   20.6697 O   0  0  0  0  0  0
  -24.6580  -31.8257   23.1729 C   0  0  0  0  0  0
  -25.9276  -32.4604   23.8182 C   0  0  1  0  0  0
  -27.2312  -26.9727   20.1925 C   0  0  0  0  0  0
  -25.5956  -33.8420   24.2100 N   0  0  0  0  0  0
  -23.4727  -30.4367   21.5168 C   0  0  2  0  0  0
  -24.9328  -28.8296   20.1108 C   0  0  0  0  0  0
  -22.7656  -29.4457   22.4771 C   0  0  0  0  0  0
  -18.0312  -28.1419   22.8458 C   0  0  0  0  0  0
  -24.1506  -36.7246   23.2637 C   0  0  0  0  0  0
  -26.0360  -30.6500   21.3938 C   0  0  0  0  0  0
  -26.1101  -29.2399   20.7477 C   0  0  0  0  0  0
  -27.2520  -28.3288   20.7681 C   0  0  0  0  0  0
  -26.0309  -26.7068   19.4967 C   0  0  0  0  0  0
  -24.9181  -27.5847   19.4605 C   0  0  0  0  0  0
  -23.7147  -29.7486   20.1443 C   0  0  0  0  0  0
  -25.4121  -36.2976   24.0307 C   0  0  1  0  0  0
  -20.5943  -28.3763   23.1208 C   0  0  2  0  0  0
  -20.6805  -26.9455   22.5421 C   0  0  0  0  0  0
  -19.5779  -26.6383   21.5232 C   0  0  0  0  0  0
  -18.1955  -26.7951   22.1640 C   0  0  0  0  0  0
  -19.1572  -28.8912   23.2824 C   0  0  0  0  0  0
  -18.9470  -30.1494   23.8872 C   0  0  0  0  0  0
  -17.6456  -30.6602   24.0561 C   0  0  0  0  0  0
  -25.9078  -34.9359   23.5018 C   0  0  0  0  0  0
  -16.5350  -29.9091   23.6350 C   0  0  0  0  0  0
  -16.7289  -28.6519   23.0347 C   0  0  0  0  0  0
  -26.4547  -31.6498   25.0659 C   0  0  0  0  0  0
  -25.3696  -31.3739   26.1322 C   0  0  0  0  0  0
  -27.0386  -30.2859   24.6324 C   0  0  0  0  0  0
  -27.6049  -32.4276   25.7489 C   0  0  0  0  0  0
  -27.5581  -37.1777   24.8442 C   0  0  0  0  0  0
  -21.4319  -29.3049   22.3545 N   0  0  0  0  0  0
  -26.4267  -37.3706   23.9413 N   0  0  0  0  0  0
  -24.7429  -30.9974   22.0829 N   0  0  0  0  0  0
  -23.4206  -28.8019   23.3011 O   0  0  0  0  0  0
  -28.2544  -25.9062   20.2764 O   0  0  0  0  0  0
  -26.5686  -34.8893   22.4611 O   0  0  0  0  0  0
  -23.5657  -32.1190   23.6851 O   0  0  0  0  0  0
  -28.2182  -20.2445   20.0102 C   0  0  0  0  0  0
  -30.3240  -20.4171   20.9096 C   0  0  0  0  0  0
  -28.3743  -18.7618   20.0284 C   0  0  0  0  0  0
  -30.4872  -18.9428   20.9216 C   0  0  0  0  0  0
  -29.1895  -21.2298   20.4613 C   0  0  0  0  0  0
  -29.5219  -17.9609   20.4682 C   0  0  0  0  0  0
  -30.2796  -23.3108   19.3907 C   0  0  0  0  0  0
  -29.7937  -23.3645   21.8340 C   0  0  0  0  0  0
  -28.0370  -24.2852   20.2241 C   0  0  0  0  0  0
  -29.2179  -22.9798   20.4562 C   0  0  0  0  0  0
  -29.5484  -16.3535   20.5306 N   0  0  0  0  0  0
  -31.4734  -12.9251   19.2437 H   0  0  0  0  0  0
  -30.4592  -11.8017   20.0947 H   0  0  0  0  0  0
  -29.9166  -11.8137   17.6292 H   0  0  0  0  0  0
  -29.6016  -13.5304   17.7042 H   0  0  0  0  0  0
  -27.9956  -11.2983   18.9845 H   0  0  0  0  0  0
  -27.4240  -12.4508   17.8069 H   0  0  0  0  0  0
  -27.5549  -14.2666   19.3863 H   0  0  0  0  0  0
  -28.7736  -12.3715   21.4370 H   0  0  0  0  0  0
  -28.2898  -14.0160   21.7581 H   0  0  0  0  0  0
  -25.2754   -9.5702   22.4734 H   0  0  0  0  0  0
  -23.9991   -7.4633   22.7481 H   0  0  0  0  0  0
  -21.0797   -8.8684   19.8943 H   0  0  0  0  0  0
  -22.3637  -10.9586   19.6099 H   0  0  0  0  0  0
  -21.2027   -7.6105   23.9676 H   0  0  0  0  0  0
  -21.1524   -6.0499   25.9074 H   0  0  0  0  0  0
  -22.0593   -2.7554   23.2860 H   0  0  0  0  0  0
  -22.4047  -11.9868   22.4943 H   0  0  0  0  0  0
  -21.0961  -13.1077   22.2529 H   0  0  0  0  0  0
  -24.6254  -15.8355   20.5776 H   0  0  0  0  0  0
  -26.2059  -15.6416   20.0144 H   0  0  0  0  0  0
  -26.7329  -32.5200   23.0890 H   0  0  0  0  0  0
  -25.0034  -33.9496   25.0202 H   0  0  0  0  0  0
  -22.7823  -31.2648   21.3426 H   0  0  0  0  0  0
  -23.3770  -35.9577   23.3218 H   0  0  0  0  0  0
  -24.3590  -36.8974   22.2071 H   0  0  0  0  0  0
  -23.7286  -37.6420   23.6736 H   0  0  0  0  0  0
  -26.1956  -31.3835   20.6025 H   0  0  0  0  0  0
  -26.9046  -30.7199   22.0372 H   0  0  0  0  0  0
  -28.1391  -28.6314   21.3086 H   0  0  0  0  0  0
  -25.9274  -25.7598   18.9892 H   0  0  0  0  0  0
  -24.0289  -27.2675   18.9320 H   0  0  0  0  0  0
  -23.8647  -30.5111   19.3787 H   0  0  0  0  0  0
  -22.8315  -29.1921   19.8310 H   0  0  0  0  0  0
  -25.1328  -36.1751   25.0798 H   0  0  0  0  0  0
  -21.0027  -28.3374   24.1337 H   0  0  0  0  0  0
  -20.5728  -26.2373   23.3642 H   0  0  0  0  0  0
  -21.6661  -26.7474   22.1198 H   0  0  0  0  0  0
  -19.6942  -25.6291   21.1282 H   0  0  0  0  0  0
  -19.6735  -27.3181   20.6751 H   0  0  0  0  0  0
  -17.4246  -26.6681   21.4028 H   0  0  0  0  0  0
  -18.0359  -26.0102   22.9049 H   0  0  0  0  0  0
  -19.7925  -30.7311   24.2258 H   0  0  0  0  0  0
  -17.4995  -31.6275   24.5187 H   0  0  0  0  0  0
  -15.5348  -30.2961   23.7707 H   0  0  0  0  0  0
  -15.8682  -28.0817   22.7083 H   0  0  0  0  0  0
  -24.5863  -30.7104   25.7637 H   0  0  0  0  0  0
  -24.8895  -32.2941   26.4673 H   0  0  0  0  0  0
  -25.7921  -30.8942   27.0163 H   0  0  0  0  0  0
  -26.2974  -29.6569   24.1372 H   0  0  0  0  0  0
  -27.3959  -29.7186   25.4937 H   0  0  0  0  0  0
  -27.8935  -30.4021   23.9654 H   0  0  0  0  0  0
  -27.2586  -33.3571   26.2031 H   0  0  0  0  0  0
  -28.3900  -32.6857   25.0362 H   0  0  0  0  0  0
  -28.0662  -31.8418   26.5450 H   0  0  0  0  0  0
  -28.2527  -38.0138   24.7525 H   0  0  0  0  0  0
  -28.1153  -36.2678   24.6199 H   0  0  0  0  0  0
  -27.2314  -37.1325   25.8840 H   0  0  0  0  0  0
  -20.9573  -29.8738   21.6677 H   0  0  0  0  0  0
  -26.0120  -38.2771   24.1391 H   0  0  0  0  0  0
  -27.2895  -20.6267   19.6135 H   0  0  0  0  0  0
  -31.1815  -20.9572   21.2843 H   0  0  0  0  0  0
  -27.5202  -18.2110   19.6575 H   0  0  0  0  0  0
  -31.4128  -18.5631   21.3310 H   0  0  0  0  0  0
  -31.2167  -22.7771   19.5620 H   0  0  0  0  0  0
  -30.5145  -24.3749   19.3666 H   0  0  0  0  0  0
  -29.9232  -23.0358   18.3977 H   0  0  0  0  0  0
  -30.7959  -22.9725   21.9998 H   0  0  0  0  0  0
  -29.1506  -22.9977   22.6347 H   0  0  0  0  0  0
  -29.8748  -24.4468   21.9471 H   0  0  0  0  0  0
  -27.2414  -24.0984   20.9477 H   0  0  0  0  0  0
  -27.5687  -24.0952   19.2582 H   0  0  0  0  0  0
  -28.6074  -16.0050   20.6390 H   0  0  0  0  0  0
  1 25  1  0  0  0
  1 30  2  0  0  0
  1 81  1  0  0  0
  2  3  1  0  0  0
  2 25  1  0  0  0
  2 82  1  0  0  0
  2 83  1  0  0  0
  3  4  1  0  0  0
  3 84  1  0  0  0
  3 85  1  0  0  0
  4  5  1  0  0  0
  4 86  1  0  0  0
  4 87  1  0  0  0
  5  6  1  0  0  0
  5 26  1  0  0  0
  5 88  1  0  0  0
  6 25  1  0  0  0
  6 89  1  0  0  0
  6 90  1  0  0  0
  7  8  2  0  0  0
  7 26  1  0  0  0
  7 29  1  0  0  0
  8  9  1  0  0  0
  8 22  1  0  0  0
  9 10  1  0  0  0
  9 27  2  0  0  0
 10 11  2  0  0  0
 10 15  1  0  0  0
 11 12  1  0  0  0
 11 91  1  0  0  0
 12 13  2  0  0  0
 12 92  1  0  0  0
 13 14  1  0  0  0
 13 31  1  0  0  0
 14 15  2  0  0  0
 14 93  1  0  0  0
 15 94  1  0  0  0
 16 17  2  0  0  0
 16 21  1  0  0  0
 16 31  1  0  0  0
 17 18  1  0  0  0
 17 95  1  0  0  0
 18 19  2  0  0  0
 18 96  1  0  0  0
 19 20  1  0  0  0
 19 24  1  0  0  0
 20 21  2  0  0  0
 20 97  1  0  0  0
 21 23  1  0  0  0
 22 28  1  0  0  0
 22 32  2  0  0  0
 26 27  1  0  0  0
 28 98  1  0  0  0
 28 99  1  0  0  0
 29100  1  0  0  0
 29101  1  0  0  0
 33 34  1  0  0  0
 33 66  1  0  0  0
 33 70  2  0  0  0
 34 36  1  0  0  0
 34 59  1  0  0  0
 34102  1  0  0  0
 35 44  2  0  0  0
 35 45  1  0  0  0
 35 68  1  0  0  0
 36 56  1  0  0  0
 36103  1  0  0  0
 37 39  1  0  0  0
 37 47  1  0  0  0
 37 66  1  0  0  0
 37104  1  0  0  0
 38 43  2  0  0  0
 38 46  1  0  0  0
 38 47  1  0  0  0
 39 64  1  0  0  0
 39 67  2  0  0  0
 40 52  1  0  0  0
 40 53  2  0  0  0
 40 58  1  0  0  0
 41105  1  0  0  0
 41106  1  0  0  0
 41107  1  0  0  0
 41 48  1  0  0  0
 42 43  1  0  0  0
 42 66  1  0  0  0
 42108  1  0  0  0
 42109  1  0  0  0
 43 44  1  0  0  0
 44110  1  0  0  0
 45 46  2  0  0  0
 45111  1  0  0  0
 46112  1  0  0  0
 47113  1  0  0  0
 47114  1  0  0  0
 48 56  1  0  0  0
 48 65  1  0  0  0
 48115  1  0  0  0
 49 50  1  0  0  0
 49 53  1  0  0  0
 49 64  1  0  0  0
 49116  1  0  0  0
 50 51  1  0  0  0
 50117  1  0  0  0
 50118  1  0  0  0
 51 52  1  0  0  0
 51119  1  0  0  0
 51120  1  0  0  0
 52121  1  0  0  0
 52122  1  0  0  0
 53 54  1  0  0  0
 54 55  2  0  0  0
 54123  1  0  0  0
 55 57  1  0  0  0
 55124  1  0  0  0
 56 69  2  0  0  0
 57 58  2  0  0  0
 57125  1  0  0  0
 58126  1  0  0  0
 59 60  1  0  0  0
 59 61  1  0  0  0
 59 62  1  0  0  0
 60127  1  0  0  0
 60128  1  0  0  0
 60129  1  0  0  0
 61130  1  0  0  0
 61131  1  0  0  0
 61132  1  0  0  0
 62133  1  0  0  0
 62134  1  0  0  0
 62135  1  0  0  0
 63 65  1  0  0  0
 63136  1  0  0  0
 63137  1  0  0  0
 63138  1  0  0  0
 64139  1  0  0  0
 65140  1  0  0  0
 68 79  1  0  0  0
 71 73  2  0  0  0
 71 75  1  0  0  0
 71141  1  0  0  0
 72 74  1  0  0  0
 72 75  2  0  0  0
 72142  1  0  0  0
 73 76  1  0  0  0
 73143  1  0  0  0
 74 76  2  0  0  0
 74144  1  0  0  0
 75 80  1  0  0  0
 76 81  1  0  0  0
 77145  1  0  0  0
 77146  1  0  0  0
 77147  1  0  0  0
 77 80  1  0  0  0
 78 80  1  0  0  0
 78148  1  0  0  0
 78149  1  0  0  0
 78150  1  0  0  0
 79 80  1  0  0  0
 79151  1  0  0  0
 79152  1  0  0  0
 81153  1  0  0  0
M  ISO  4   1 100  68 101  79 101  81 100
M  END
> <chiral flag>
0

> <version>
0

> <s_m_source_file>
/data/baiqing/PycharmProjects/Reinvent-master-3.2/result/LINK_invent/BTK/process_docking_weight1_custom_product_contain_oxygen_bond_distance_aromatic_linkinvent_7_9_3/rearranged_h_0019.sdf

> <i_m_source_file_index>
10

> <r_mmod_Potential_Energy-OPLS-2005>
1058.32983398438

> <r_mmod_Stretch_Energy-OPLS-2005>
468.218353271484

> <r_mmod_Bend_Energy-OPLS-2005>
426.311889648438

> <r_mmod_Torsional_Energy-OPLS-2005>
228.708923339844

> <r_mmod_Improper_Torsional_Energy-OPLS-2005>
5.02562856674194

> <r_mmod_Van_der_Waal_Energy-OPLS-2005>
128.713012695312

> <r_mmod_Electrostatic_Energy-OPLS-2005>
-372.040100097656

> <r_mmod_Solvation_Energy-OPLS-2005>
-204.523239135742

> <b_mmod_Minimization_Converged-OPLS-2005>
0

> <r_mmod_RMS_Derivative-OPLS-2005>
4.698073387146

$$$$
10
                    3D
 Structure written by MMmdl.
164172  0  0  1  0            999 V2000
  -30.7854  -14.4331   20.6240 C   0  0  0  0  0  0
  -30.4160  -12.3038   19.4240 C   0  0  0  0  0  0
  -29.4913  -12.4835   18.2043 C   0  0  0  0  0  0
  -28.0119  -12.3659   18.6185 C   0  0  0  0  0  0
  -27.6636  -13.2140   19.8739 C   0  0  2  0  0  0
  -28.7081  -13.0059   20.9930 C   0  0  0  0  0  0
  -25.2596  -13.8159   20.5692 C   0  0  0  0  0  0
  -24.1859  -13.0449   20.9192 C   0  0  0  0  0  0
  -24.6404  -11.6916   20.8745 C   0  0  0  0  0  0
  -23.9049  -10.4296   21.0393 C   0  0  0  0  0  0
  -24.3593   -9.4203   21.9175 C   0  0  0  0  0  0
  -23.6275   -8.2232   22.0754 C   0  0  0  0  0  0
  -22.4260   -8.0276   21.3534 C   0  0  0  0  0  0
  -21.9883   -9.0253   20.4638 C   0  0  0  0  0  0
  -22.7214  -10.2132   20.3047 C   0  0  0  0  0  0
  -21.6865   -6.0729   22.5274 C   0  0  0  0  0  0
  -21.4023   -6.5634   23.8204 C   0  0  0  0  0  0
  -21.3655   -5.6789   24.9168 C   0  0  0  0  0  0
  -21.6030   -4.3046   24.7217 C   0  0  0  0  0  0
  -21.8820   -3.8137   23.4341 C   0  0  0  0  0  0
  -21.9199   -4.6959   22.3397 C   0  0  0  0  0  0
  -22.7863  -13.5242   21.1858 C   0  0  0  0  0  0
  -22.1670   -4.2137   21.0975 F   0  0  0  0  0  0
  -21.5623   -3.4535   25.7728 F   0  0  0  0  0  0
  -30.0444  -13.2980   20.4424 N   0  0  0  0  0  0
  -26.3049  -12.9365   20.3377 N   0  0  0  0  0  0
  -25.9348  -11.6516   20.5797 N   0  0  0  0  0  0
  -22.0477  -12.8250   22.0389 N   0  0  0  0  0  0
  -25.4364  -15.1872   20.4107 N   0  0  0  0  0  0
  -31.8713  -14.6128   20.0703 O   0  0  0  0  0  0
  -21.6642   -6.8870   21.4232 O   0  0  0  0  0  0
  -22.3566  -14.5568   20.6728 O   0  0  0  0  0  0
  -24.6168  -31.8653   23.2150 C   0  0  0  0  0  0
  -25.9089  -32.4787   23.8408 C   0  0  1  0  0  0
  -27.2469  -27.4568   20.0419 C   0  0  0  0  0  0
  -25.5920  -33.8582   24.2345 N   0  0  0  0  0  0
  -23.4079  -30.4857   21.5581 C   0  0  2  0  0  0
  -24.8533  -28.9575   20.1251 C   0  0  0  0  0  0
  -22.7476  -29.4550   22.5070 C   0  0  0  0  0  0
  -18.0219  -28.1368   22.8505 C   0  0  0  0  0  0
  -24.1476  -36.7279   23.2639 C   0  0  0  0  0  0
  -25.9398  -30.8358   21.3700 C   0  0  0  0  0  0
  -26.0172  -29.4744   20.7045 C   0  0  0  0  0  0
  -27.2198  -28.7326   20.6554 C   0  0  0  0  0  0
  -26.0522  -26.9422   19.4919 C   0  0  0  0  0  0
  -24.8621  -27.6888   19.5233 C   0  0  0  0  0  0
  -23.6244  -29.8298   20.1704 C   0  0  0  0  0  0
  -25.4099  -36.3091   24.0344 C   0  0  1  0  0  0
  -20.5829  -28.3619   23.1409 C   0  0  2  0  0  0
  -20.6700  -26.9357   22.5465 C   0  0  0  0  0  0
  -19.5671  -26.6381   21.5247 C   0  0  0  0  0  0
  -18.1850  -26.7913   22.1643 C   0  0  0  0  0  0
  -19.1473  -28.8817   23.2937 C   0  0  0  0  0  0
  -18.9428  -30.1419   23.8963 C   0  0  0  0  0  0
  -17.6429  -30.6581   24.0574 C   0  0  0  0  0  0
  -25.9041  -34.9451   23.5152 C   0  0  0  0  0  0
  -16.5320  -29.9087   23.6296 C   0  0  0  0  0  0
  -16.7216  -28.6485   23.0350 C   0  0  0  0  0  0
  -26.4515  -31.6532   25.0714 C   0  0  0  0  0  0
  -25.3824  -31.3623   26.1494 C   0  0  0  0  0  0
  -27.0305  -30.2948   24.6058 C   0  0  0  0  0  0
  -27.6078  -32.4251   25.7472 C   0  0  0  0  0  0
  -27.5575  -37.1804   24.8482 C   0  0  0  0  0  0
  -21.4186  -29.2980   22.3871 N   0  0  0  0  0  0
  -26.4288  -37.3778   23.9432 N   0  0  0  0  0  0
  -24.6720  -31.0768   22.1056 N   0  0  0  0  0  0
  -23.4272  -28.8051   23.3076 O   0  0  0  0  0  0
  -28.4417  -26.7680   19.9937 O   0  0  0  0  0  0
  -26.5607  -34.8911   22.4714 O   0  0  0  0  0  0
  -23.5366  -32.1421   23.7550 O   0  0  0  0  0  0
  -25.4263  -21.8312   19.7025 C   0  0  0  0  0  0
  -26.5604  -21.5624   19.3462 C   0  0  0  0  0  0
  -30.2682  -19.2006   21.5446 C   0  0  0  0  0  0
  -30.2931  -17.8385   21.9156 C   0  0  0  0  0  0
  -29.9267  -18.5458   19.2486 C   0  0  0  0  0  0
  -30.1053  -19.5732   20.1991 C   0  0  0  0  0  0
  -30.1488  -16.7850   20.9656 C   0  0  0  0  0  0
  -29.9113  -17.1810   19.6093 C   0  0  0  0  0  0
  -30.4346  -15.1454   22.8552 C   0  0  0  0  0  0
  -27.9046  -21.2092   18.8527 C   0  0  0  0  0  0
  -30.2159  -21.0476   19.7682 C   0  0  0  0  0  0
  -28.2194  -24.3433   19.5565 C   0  0  0  0  0  0
  -29.2811  -23.2501   19.2529 C   0  0  0  0  0  0
  -28.6195  -25.7287   19.0169 C   0  0  0  0  0  0
  -30.2616  -15.4026   21.4160 N   0  0  0  0  0  0
  -28.9533  -21.8542   19.6997 N   0  3  1  0  0  0
  -29.5560  -16.0878   18.3155 Cl  0  0  0  0  0  0
  -31.4608  -12.3693   19.1176 H   0  0  0  0  0  0
  -30.3019  -11.3039   19.8438 H   0  0  0  0  0  0
  -29.7285  -11.7328   17.4498 H   0  0  0  0  0  0
  -29.6636  -13.4447   17.7236 H   0  0  0  0  0  0
  -27.8102  -11.3119   18.8149 H   0  0  0  0  0  0
  -27.3661  -12.6412   17.7827 H   0  0  0  0  0  0
  -27.7035  -14.2639   19.5834 H   0  0  0  0  0  0
  -28.6676  -11.9745   21.3478 H   0  0  0  0  0  0
  -28.4700  -13.6171   21.8619 H   0  0  0  0  0  0
  -25.2741   -9.5691   22.4735 H   0  0  0  0  0  0
  -24.0000   -7.4624   22.7468 H   0  0  0  0  0  0
  -21.0815   -8.8759   19.8932 H   0  0  0  0  0  0
  -22.3676  -10.9666   19.6142 H   0  0  0  0  0  0
  -21.2026   -7.6145   23.9701 H   0  0  0  0  0  0
  -21.1476   -6.0523   25.9068 H   0  0  0  0  0  0
  -22.0607   -2.7598   23.2848 H   0  0  0  0  0  0
  -22.4152  -11.9944   22.4794 H   0  0  0  0  0  0
  -21.1073  -13.1248   22.2537 H   0  0  0  0  0  0
  -24.6812  -15.8527   20.5364 H   0  0  0  0  0  0
  -26.3005  -15.6066   20.0914 H   0  0  0  0  0  0
  -26.7190  -32.5545   23.1192 H   0  0  0  0  0  0
  -25.0005  -33.9679   25.0453 H   0  0  0  0  0  0
  -22.6953  -31.3003   21.4107 H   0  0  0  0  0  0
  -23.3740  -35.9609   23.3329 H   0  0  0  0  0  0
  -24.3598  -36.8870   22.2057 H   0  0  0  0  0  0
  -23.7216  -37.6483   23.6648 H   0  0  0  0  0  0
  -26.0743  -31.6159   20.6196 H   0  0  0  0  0  0
  -26.8258  -30.8733   21.9919 H   0  0  0  0  0  0
  -28.1304  -29.1581   21.0528 H   0  0  0  0  0  0
  -26.0169  -25.9700   19.0229 H   0  0  0  0  0  0
  -23.9638  -27.2807   19.0851 H   0  0  0  0  0  0
  -23.7721  -30.6095   19.4206 H   0  0  0  0  0  0
  -22.7463  -29.2648   19.8518 H   0  0  0  0  0  0
  -25.1248  -36.1946   25.0830 H   0  0  0  0  0  0
  -20.9826  -28.3161   24.1572 H   0  0  0  0  0  0
  -20.5577  -26.2198   23.3629 H   0  0  0  0  0  0
  -21.6566  -26.7360   22.1269 H   0  0  0  0  0  0
  -19.6799  -25.6303   21.1211 H   0  0  0  0  0  0
  -19.6633  -27.3261   20.6836 H   0  0  0  0  0  0
  -17.4110  -26.6690   21.4055 H   0  0  0  0  0  0
  -18.0236  -26.0066   22.9037 H   0  0  0  0  0  0
  -19.7905  -30.7174   24.2442 H   0  0  0  0  0  0
  -17.4975  -31.6254   24.5174 H   0  0  0  0  0  0
  -15.5319  -30.3006   23.7564 H   0  0  0  0  0  0
  -15.8618  -28.0800   22.7076 H   0  0  0  0  0  0
  -24.5957  -30.6964   25.7918 H   0  0  0  0  0  0
  -24.9014  -32.2747   26.5039 H   0  0  0  0  0  0
  -25.8221  -30.8760   27.0201 H   0  0  0  0  0  0
  -26.2784  -29.6719   24.1177 H   0  0  0  0  0  0
  -27.4140  -29.7169   25.4479 H   0  0  0  0  0  0
  -27.8621  -30.4216   23.9119 H   0  0  0  0  0  0
  -27.2650  -33.3543   26.2061 H   0  0  0  0  0  0
  -28.3880  -32.6861   25.0306 H   0  0  0  0  0  0
  -28.0752  -31.8363   26.5382 H   0  0  0  0  0  0
  -28.2613  -38.0088   24.7518 H   0  0  0  0  0  0
  -28.1035  -36.2616   24.6287 H   0  0  0  0  0  0
  -27.2308  -37.1453   25.8892 H   0  0  0  0  0  0
  -20.9429  -29.8838   21.7169 H   0  0  0  0  0  0
  -26.0166  -38.2834   24.1476 H   0  0  0  0  0  0
  -24.4216  -22.0372   20.0069 H   0  0  0  0  0  0
  -30.4100  -19.9573   22.3045 H   0  0  0  0  0  0
  -30.4521  -17.6384   22.9624 H   0  0  0  0  0  0
  -29.7840  -18.7954   18.2082 H   0  0  0  0  0  0
  -29.5749  -15.5165   23.4107 H   0  0  0  0  0  0
  -31.3353  -15.6387   23.2290 H   0  0  0  0  0  0
  -30.5323  -14.0867   23.1046 H   0  0  0  0  0  0
  -28.0034  -21.4824   17.8039 H   0  0  0  0  0  0
  -27.9257  -20.1260   18.8931 H   0  0  0  0  0  0
  -30.7199  -21.0836   18.8013 H   0  0  0  0  0  0
  -30.9049  -21.5402   20.4553 H   0  0  0  0  0  0
  -28.0749  -24.4194   20.6302 H   0  0  0  0  0  0
  -27.2405  -24.1025   19.1406 H   0  0  0  0  0  0
  -30.2204  -23.5546   19.7227 H   0  0  0  0  0  0
  -29.5021  -23.2432   18.1854 H   0  0  0  0  0  0
  -28.0872  -25.9063   18.0834 H   0  0  0  0  0  0
  -29.6693  -25.7397   18.7187 H   0  0  0  0  0  0
  -28.6192  -21.9008   20.6500 H   0  0  0  0  0  0
  1 25  1  0  0  0
  1 30  2  0  0  0
  1 85  1  0  0  0
  2  3  1  0  0  0
  2 25  1  0  0  0
  2 88  1  0  0  0
  2 89  1  0  0  0
  3  4  1  0  0  0
  3 90  1  0  0  0
  3 91  1  0  0  0
  4  5  1  0  0  0
  4 92  1  0  0  0
  4 93  1  0  0  0
  5  6  1  0  0  0
  5 26  1  0  0  0
  5 94  1  0  0  0
  6 25  1  0  0  0
  6 95  1  0  0  0
  6 96  1  0  0  0
  7  8  2  0  0  0
  7 26  1  0  0  0
  7 29  1  0  0  0
  8  9  1  0  0  0
  8 22  1  0  0  0
  9 10  1  0  0  0
  9 27  2  0  0  0
 10 11  2  0  0  0
 10 15  1  0  0  0
 11 12  1  0  0  0
 11 97  1  0  0  0
 12 13  2  0  0  0
 12 98  1  0  0  0
 13 14  1  0  0  0
 13 31  1  0  0  0
 14 15  2  0  0  0
 14 99  1  0  0  0
 15100  1  0  0  0
 16 17  2  0  0  0
 16 21  1  0  0  0
 16 31  1  0  0  0
 17 18  1  0  0  0
 17101  1  0  0  0
 18 19  2  0  0  0
 18102  1  0  0  0
 19 20  1  0  0  0
 19 24  1  0  0  0
 20 21  2  0  0  0
 20103  1  0  0  0
 21 23  1  0  0  0
 22 28  1  0  0  0
 22 32  2  0  0  0
 26 27  1  0  0  0
 28104  1  0  0  0
 28105  1  0  0  0
 29106  1  0  0  0
 29107  1  0  0  0
 33 34  1  0  0  0
 33 66  1  0  0  0
 33 70  2  0  0  0
 34 36  1  0  0  0
 34 59  1  0  0  0
 34108  1  0  0  0
 35 44  2  0  0  0
 35 45  1  0  0  0
 35 68  1  0  0  0
 36 56  1  0  0  0
 36109  1  0  0  0
 37 39  1  0  0  0
 37 47  1  0  0  0
 37 66  1  0  0  0
 37110  1  0  0  0
 38 43  2  0  0  0
 38 46  1  0  0  0
 38 47  1  0  0  0
 39 64  1  0  0  0
 39 67  2  0  0  0
 40 52  1  0  0  0
 40 53  2  0  0  0
 40 58  1  0  0  0
 41111  1  0  0  0
 41112  1  0  0  0
 41113  1  0  0  0
 41 48  1  0  0  0
 42 43  1  0  0  0
 42 66  1  0  0  0
 42114  1  0  0  0
 42115  1  0  0  0
 43 44  1  0  0  0
 44116  1  0  0  0
 45 46  2  0  0  0
 45117  1  0  0  0
 46118  1  0  0  0
 47119  1  0  0  0
 47120  1  0  0  0
 48 56  1  0  0  0
 48 65  1  0  0  0
 48121  1  0  0  0
 49 50  1  0  0  0
 49 53  1  0  0  0
 49 64  1  0  0  0
 49122  1  0  0  0
 50 51  1  0  0  0
 50123  1  0  0  0
 50124  1  0  0  0
 51 52  1  0  0  0
 51125  1  0  0  0
 51126  1  0  0  0
 52127  1  0  0  0
 52128  1  0  0  0
 53 54  1  0  0  0
 54 55  2  0  0  0
 54129  1  0  0  0
 55 57  1  0  0  0
 55130  1  0  0  0
 56 69  2  0  0  0
 57 58  2  0  0  0
 57131  1  0  0  0
 58132  1  0  0  0
 59 60  1  0  0  0
 59 61  1  0  0  0
 59 62  1  0  0  0
 60133  1  0  0  0
 60134  1  0  0  0
 60135  1  0  0  0
 61136  1  0  0  0
 61137  1  0  0  0
 61138  1  0  0  0
 62139  1  0  0  0
 62140  1  0  0  0
 62141  1  0  0  0
 63 65  1  0  0  0
 63142  1  0  0  0
 63143  1  0  0  0
 63144  1  0  0  0
 64145  1  0  0  0
 65146  1  0  0  0
 68 84  1  0  0  0
 71 72  3  0  0  0
 71147  1  0  0  0
 72 80  1  0  0  0
 73 74  2  0  0  0
 73 76  1  0  0  0
 73148  1  0  0  0
 74 77  1  0  0  0
 74149  1  0  0  0
 75 76  2  0  0  0
 75 78  1  0  0  0
 75150  1  0  0  0
 76 81  1  0  0  0
 77 78  2  0  0  0
 77 85  1  0  0  0
 78 87  1  0  0  0
 79 85  1  0  0  0
 79151  1  0  0  0
 79152  1  0  0  0
 79153  1  0  0  0
 80154  1  0  0  0
 80155  1  0  0  0
 80 86  1  0  0  0
 81 86  1  0  0  0
 81156  1  0  0  0
 81157  1  0  0  0
 82 83  1  0  0  0
 82 84  1  0  0  0
 82158  1  0  0  0
 82159  1  0  0  0
 83 86  1  0  0  0
 83160  1  0  0  0
 83161  1  0  0  0
 84162  1  0  0  0
 84163  1  0  0  0
 86164  1  0  0  0
M  CHG  1  86   1
M  ISO  4   1 100  68 101  84 101  85 100
M  END
> <chiral flag>
0

> <version>
0

> <s_m_source_file>
/data/baiqing/PycharmProjects/Reinvent-master-3.2/result/LINK_invent/BTK/process_docking_weight1_custom_product_contain_oxygen_bond_distance_aromatic_linkinvent_7_9_3/rearranged_h_0019.sdf

> <i_m_source_file_index>
11

> <r_mmod_Potential_Energy-OPLS-2005>
-25.651195526123

> <r_mmod_Stretch_Energy-OPLS-2005>
48.8182792663574

> <r_mmod_Bend_Energy-OPLS-2005>
125.218818664551

> <r_mmod_Torsional_Energy-OPLS-2005>
280.232208251953

> <r_mmod_Improper_Torsional_Energy-OPLS-2005>
3.75231862068176

> <r_mmod_Van_der_Waal_Energy-OPLS-2005>
173.084121704102

> <r_mmod_Electrostatic_Energy-OPLS-2005>
-229.174850463867

> <r_mmod_Solvation_Energy-OPLS-2005>
-439.603088378906

> <b_mmod_Minimization_Converged-OPLS-2005>
0

> <r_mmod_RMS_Derivative-OPLS-2005>
6.97671794891357

$$$$
11
                    3D
 Structure written by MMmdl.
165173  0  0  1  0            999 V2000
  -30.7603  -14.3432   20.6067 C   0  0  0  0  0  0
  -30.4054  -12.2578   19.3539 C   0  0  0  0  0  0
  -29.4678  -12.5234   18.1610 C   0  0  0  0  0  0
  -27.9919  -12.3980   18.5861 C   0  0  0  0  0  0
  -27.6618  -13.1998   19.8693 C   0  0  2  0  0  0
  -28.7077  -12.9185   20.9708 C   0  0  0  0  0  0
  -25.2551  -13.8150   20.5611 C   0  0  0  0  0  0
  -24.1811  -13.0452   20.9114 C   0  0  0  0  0  0
  -24.6338  -11.6902   20.8688 C   0  0  0  0  0  0
  -23.8987  -10.4313   21.0379 C   0  0  0  0  0  0
  -24.3561   -9.4245   21.9160 C   0  0  0  0  0  0
  -23.6266   -8.2269   22.0739 C   0  0  0  0  0  0
  -22.4261   -8.0252   21.3522 C   0  0  0  0  0  0
  -21.9866   -9.0221   20.4643 C   0  0  0  0  0  0
  -22.7149  -10.2124   20.3040 C   0  0  0  0  0  0
  -21.6890   -6.0688   22.5253 C   0  0  0  0  0  0
  -21.4059   -6.5603   23.8175 C   0  0  0  0  0  0
  -21.3661   -5.6753   24.9144 C   0  0  0  0  0  0
  -21.6035   -4.3013   24.7230 C   0  0  0  0  0  0
  -21.8819   -3.8091   23.4365 C   0  0  0  0  0  0
  -21.9205   -4.6905   22.3403 C   0  0  0  0  0  0
  -22.7833  -13.5256   21.1809 C   0  0  0  0  0  0
  -22.1666   -4.2075   21.0984 F   0  0  0  0  0  0
  -21.5632   -3.4513   25.7750 F   0  0  0  0  0  0
  -30.0488  -13.2027   20.4190 N   0  0  0  0  0  0
  -26.3009  -12.9323   20.3331 N   0  0  0  0  0  0
  -25.9282  -11.6482   20.5736 N   0  0  0  0  0  0
  -22.0451  -12.8317   22.0374 N   0  0  0  0  0  0
  -25.4278  -15.1875   20.3950 N   0  0  0  0  0  0
  -31.8219  -14.5933   20.0278 O   0  0  0  0  0  0
  -21.6664   -6.8828   21.4211 O   0  0  0  0  0  0
  -22.3535  -14.5546   20.6612 O   0  0  0  0  0  0
  -24.6110  -31.8672   23.2079 C   0  0  0  0  0  0
  -25.9026  -32.4799   23.8358 C   0  0  1  0  0  0
  -27.2482  -27.4494   20.0782 C   0  0  0  0  0  0
  -25.5900  -33.8608   24.2280 N   0  0  0  0  0  0
  -23.3985  -30.4893   21.5453 C   0  0  2  0  0  0
  -24.8469  -28.9532   20.1129 C   0  0  0  0  0  0
  -22.7370  -29.4648   22.4967 C   0  0  0  0  0  0
  -18.0261  -28.1379   22.8501 C   0  0  0  0  0  0
  -24.1492  -36.7271   23.2641 C   0  0  0  0  0  0
  -25.9269  -30.8318   21.3631 C   0  0  0  0  0  0
  -26.0037  -29.4682   20.7065 C   0  0  0  0  0  0
  -27.2025  -28.7220   20.6871 C   0  0  0  0  0  0
  -26.0694  -26.9408   19.4821 C   0  0  0  0  0  0
  -24.8724  -27.6857   19.5022 C   0  0  0  0  0  0
  -23.6074  -29.8183   20.1616 C   0  0  0  0  0  0
  -25.4123  -36.3085   24.0336 C   0  0  1  0  0  0
  -20.5837  -28.3672   23.1311 C   0  0  2  0  0  0
  -20.6747  -26.9399   22.5400 C   0  0  0  0  0  0
  -19.5734  -26.6392   21.5192 C   0  0  0  0  0  0
  -18.1918  -26.7932   22.1606 C   0  0  0  0  0  0
  -19.1512  -28.8840   23.2900 C   0  0  0  0  0  0
  -18.9452  -30.1443   23.8926 C   0  0  0  0  0  0
  -17.6462  -30.6599   24.0571 C   0  0  0  0  0  0
  -25.9051  -34.9476   23.5107 C   0  0  0  0  0  0
  -16.5346  -29.9103   23.6325 C   0  0  0  0  0  0
  -16.7246  -28.6507   23.0360 C   0  0  0  0  0  0
  -26.4499  -31.6584   25.0669 C   0  0  0  0  0  0
  -25.3785  -31.3690   26.1434 C   0  0  0  0  0  0
  -27.0320  -30.3015   24.6036 C   0  0  0  0  0  0
  -27.6080  -32.4311   25.7438 C   0  0  0  0  0  0
  -27.5587  -37.1788   24.8477 C   0  0  0  0  0  0
  -21.4094  -29.3043   22.3701 N   0  0  0  0  0  0
  -26.4297  -37.3768   23.9430 N   0  0  0  0  0  0
  -24.6630  -31.0767   22.0979 N   0  0  0  0  0  0
  -23.4146  -28.8191   23.3015 O   0  0  0  0  0  0
  -28.4523  -26.7745   20.0744 O   0  0  0  0  0  0
  -26.5587  -34.8924   22.4649 O   0  0  0  0  0  0
  -23.5315  -32.1431   23.7507 O   0  0  0  0  0  0
  -31.3692  -17.8865   20.4566 C   0  0  0  0  0  0
  -29.3746  -18.8275   21.4685 C   0  0  0  0  0  0
  -31.9409  -19.1722   20.3995 C   0  0  0  0  0  0
  -29.9452  -20.1139   21.4106 C   0  0  0  0  0  0
  -30.0800  -17.7027   20.9964 C   0  0  0  0  0  0
  -31.2370  -20.3067   20.8637 C   0  0  0  0  0  0
  -30.7674  -15.2689   22.8339 C   0  0  0  0  0  0
  -31.1948  -22.9775   22.7048 C   0  0  0  0  0  0
  -29.4060  -16.3331   21.0097 C   0  0  0  0  0  0
  -31.9338  -21.6715   20.7222 C   0  0  0  0  0  0
  -29.7936  -24.8451   20.5100 C   0  0  0  0  0  0
  -30.0088  -23.3098   20.4946 C   0  0  0  0  0  0
  -28.4778  -25.3563   19.8823 C   0  0  0  0  0  0
  -30.2234  -15.2068   21.4801 N   0  0  0  0  0  0
  -31.2533  -22.9019   21.2206 N   0  3  1  0  0  0
  -31.4462  -12.3467   19.0375 H   0  0  0  0  0  0
  -30.2889  -11.2309   19.7068 H   0  0  0  0  0  0
  -29.6825  -11.8338   17.3445 H   0  0  0  0  0  0
  -29.6463  -13.5208   17.7585 H   0  0  0  0  0  0
  -27.7754  -11.3409   18.7445 H   0  0  0  0  0  0
  -27.3430  -12.7257   17.7723 H   0  0  0  0  0  0
  -27.7227  -14.2557   19.6065 H   0  0  0  0  0  0
  -28.6643  -11.8713   21.2762 H   0  0  0  0  0  0
  -28.4738  -13.4936   21.8678 H   0  0  0  0  0  0
  -25.2707   -9.5778   22.4700 H   0  0  0  0  0  0
  -23.9973   -7.4721   22.7512 H   0  0  0  0  0  0
  -21.0758   -8.8719   19.9034 H   0  0  0  0  0  0
  -22.3537  -10.9634   19.6136 H   0  0  0  0  0  0
  -21.2079   -7.6106   23.9676 H   0  0  0  0  0  0
  -21.1480   -6.0492   25.9046 H   0  0  0  0  0  0
  -22.0614   -2.7548   23.2890 H   0  0  0  0  0  0
  -22.4065  -12.0000   22.4812 H   0  0  0  0  0  0
  -21.1083  -13.1409   22.2579 H   0  0  0  0  0  0
  -24.6539  -15.8395   20.4627 H   0  0  0  0  0  0
  -26.2728  -15.6214   20.0507 H   0  0  0  0  0  0
  -26.7071  -32.5503   23.1122 H   0  0  0  0  0  0
  -25.0145  -33.9785   25.0485 H   0  0  0  0  0  0
  -22.6862  -31.3058   21.4030 H   0  0  0  0  0  0
  -23.3741  -35.9613   23.3319 H   0  0  0  0  0  0
  -24.3567  -36.8844   22.2047 H   0  0  0  0  0  0
  -23.7267  -37.6501   23.6630 H   0  0  0  0  0  0
  -26.0429  -31.6003   20.5986 H   0  0  0  0  0  0
  -26.8118  -30.8761   21.9866 H   0  0  0  0  0  0
  -28.1014  -29.1198   21.1370 H   0  0  0  0  0  0
  -26.0664  -25.9831   18.9838 H   0  0  0  0  0  0
  -23.9789  -27.2886   19.0418 H   0  0  0  0  0  0
  -23.7219  -30.5925   19.3981 H   0  0  0  0  0  0
  -22.7291  -29.2429   19.8632 H   0  0  0  0  0  0
  -25.1296  -36.1943   25.0819 H   0  0  0  0  0  0
  -20.9962  -28.3247   24.1422 H   0  0  0  0  0  0
  -20.5649  -26.2267   23.3586 H   0  0  0  0  0  0
  -21.6623  -26.7455   22.1195 H   0  0  0  0  0  0
  -19.6905  -25.6314   21.1210 H   0  0  0  0  0  0
  -19.6692  -27.3215   20.6733 H   0  0  0  0  0  0
  -17.4171  -26.6679   21.4019 H   0  0  0  0  0  0
  -18.0345  -26.0089   22.9016 H   0  0  0  0  0  0
  -19.7943  -30.7248   24.2308 H   0  0  0  0  0  0
  -17.5034  -31.6301   24.5153 H   0  0  0  0  0  0
  -15.5354  -30.3037   23.7654 H   0  0  0  0  0  0
  -15.8638  -28.0849   22.7092 H   0  0  0  0  0  0
  -24.5959  -30.7031   25.7776 H   0  0  0  0  0  0
  -24.8998  -32.2855   26.4907 H   0  0  0  0  0  0
  -25.8184  -30.8856   27.0162 H   0  0  0  0  0  0
  -26.2857  -29.6804   24.1074 H   0  0  0  0  0  0
  -27.4070  -29.7235   25.4493 H   0  0  0  0  0  0
  -27.8707  -30.4308   23.9189 H   0  0  0  0  0  0
  -27.2672  -33.3586   26.2066 H   0  0  0  0  0  0
  -28.3886  -32.6900   25.0263 H   0  0  0  0  0  0
  -28.0755  -31.8383   26.5326 H   0  0  0  0  0  0
  -28.2588  -38.0087   24.7492 H   0  0  0  0  0  0
  -28.1061  -36.2609   24.6317 H   0  0  0  0  0  0
  -27.2270  -37.1468   25.8860 H   0  0  0  0  0  0
  -20.9239  -29.8753   21.6927 H   0  0  0  0  0  0
  -26.0157  -38.2821   24.1446 H   0  0  0  0  0  0
  -31.9303  -17.0530   20.0658 H   0  0  0  0  0  0
  -28.3787  -18.7093   21.8737 H   0  0  0  0  0  0
  -32.9305  -19.2850   19.9812 H   0  0  0  0  0  0
  -29.3557  -20.9258   21.7975 H   0  0  0  0  0  0
  -29.9840  -15.5534   23.5343 H   0  0  0  0  0  0
  -31.1565  -14.2973   23.1540 H   0  0  0  0  0  0
  -31.5850  -15.9870   22.8972 H   0  0  0  0  0  0
  -32.1975  -22.8876   23.1291 H   0  0  0  0  0  0
  -30.5862  -22.1865   23.1373 H   0  0  0  0  0  0
  -30.7942  -23.9259   23.0607 H   0  0  0  0  0  0
  -29.0502  -16.1546   19.9923 H   0  0  0  0  0  0
  -28.5066  -16.3657   21.6254 H   0  0  0  0  0  0
  -32.1823  -21.8049   19.6670 H   0  0  0  0  0  0
  -32.8981  -21.5958   21.2311 H   0  0  0  0  0  0
  -29.8175  -25.2082   21.5363 H   0  0  0  0  0  0
  -30.6275  -25.3244   19.9995 H   0  0  0  0  0  0
  -29.1339  -22.8068   20.9044 H   0  0  0  0  0  0
  -30.0841  -22.9848   19.4535 H   0  0  0  0  0  0
  -27.6338  -24.8842   20.3823 H   0  0  0  0  0  0
  -28.4248  -25.1125   18.8209 H   0  0  0  0  0  0
  -31.9208  -23.6147   20.9704 H   0  0  0  0  0  0
  1 25  1  0  0  0
  1 30  2  0  0  0
  1 84  1  0  0  0
  2  3  1  0  0  0
  2 25  1  0  0  0
  2 86  1  0  0  0
  2 87  1  0  0  0
  3  4  1  0  0  0
  3 88  1  0  0  0
  3 89  1  0  0  0
  4  5  1  0  0  0
  4 90  1  0  0  0
  4 91  1  0  0  0
  5  6  1  0  0  0
  5 26  1  0  0  0
  5 92  1  0  0  0
  6 25  1  0  0  0
  6 93  1  0  0  0
  6 94  1  0  0  0
  7  8  2  0  0  0
  7 26  1  0  0  0
  7 29  1  0  0  0
  8  9  1  0  0  0
  8 22  1  0  0  0
  9 10  1  0  0  0
  9 27  2  0  0  0
 10 11  2  0  0  0
 10 15  1  0  0  0
 11 12  1  0  0  0
 11 95  1  0  0  0
 12 13  2  0  0  0
 12 96  1  0  0  0
 13 14  1  0  0  0
 13 31  1  0  0  0
 14 15  2  0  0  0
 14 97  1  0  0  0
 15 98  1  0  0  0
 16 17  2  0  0  0
 16 21  1  0  0  0
 16 31  1  0  0  0
 17 18  1  0  0  0
 17 99  1  0  0  0
 18 19  2  0  0  0
 18100  1  0  0  0
 19 20  1  0  0  0
 19 24  1  0  0  0
 20 21  2  0  0  0
 20101  1  0  0  0
 21 23  1  0  0  0
 22 28  1  0  0  0
 22 32  2  0  0  0
 26 27  1  0  0  0
 28102  1  0  0  0
 28103  1  0  0  0
 29104  1  0  0  0
 29105  1  0  0  0
 33 34  1  0  0  0
 33 66  1  0  0  0
 33 70  2  0  0  0
 34 36  1  0  0  0
 34 59  1  0  0  0
 34106  1  0  0  0
 35 44  2  0  0  0
 35 45  1  0  0  0
 35 68  1  0  0  0
 36 56  1  0  0  0
 36107  1  0  0  0
 37 39  1  0  0  0
 37 47  1  0  0  0
 37 66  1  0  0  0
 37108  1  0  0  0
 38 43  2  0  0  0
 38 46  1  0  0  0
 38 47  1  0  0  0
 39 64  1  0  0  0
 39 67  2  0  0  0
 40 52  1  0  0  0
 40 53  2  0  0  0
 40 58  1  0  0  0
 41109  1  0  0  0
 41110  1  0  0  0
 41111  1  0  0  0
 41 48  1  0  0  0
 42 43  1  0  0  0
 42 66  1  0  0  0
 42112  1  0  0  0
 42113  1  0  0  0
 43 44  1  0  0  0
 44114  1  0  0  0
 45 46  2  0  0  0
 45115  1  0  0  0
 46116  1  0  0  0
 47117  1  0  0  0
 47118  1  0  0  0
 48 56  1  0  0  0
 48 65  1  0  0  0
 48119  1  0  0  0
 49 50  1  0  0  0
 49 53  1  0  0  0
 49 64  1  0  0  0
 49120  1  0  0  0
 50 51  1  0  0  0
 50121  1  0  0  0
 50122  1  0  0  0
 51 52  1  0  0  0
 51123  1  0  0  0
 51124  1  0  0  0
 52125  1  0  0  0
 52126  1  0  0  0
 53 54  1  0  0  0
 54 55  2  0  0  0
 54127  1  0  0  0
 55 57  1  0  0  0
 55128  1  0  0  0
 56 69  2  0  0  0
 57 58  2  0  0  0
 57129  1  0  0  0
 58130  1  0  0  0
 59 60  1  0  0  0
 59 61  1  0  0  0
 59 62  1  0  0  0
 60131  1  0  0  0
 60132  1  0  0  0
 60133  1  0  0  0
 61134  1  0  0  0
 61135  1  0  0  0
 61136  1  0  0  0
 62137  1  0  0  0
 62138  1  0  0  0
 62139  1  0  0  0
 63 65  1  0  0  0
 63140  1  0  0  0
 63141  1  0  0  0
 63142  1  0  0  0
 64143  1  0  0  0
 65144  1  0  0  0
 68 83  1  0  0  0
 71 73  2  0  0  0
 71 75  1  0  0  0
 71145  1  0  0  0
 72 74  1  0  0  0
 72 75  2  0  0  0
 72146  1  0  0  0
 73 76  1  0  0  0
 73147  1  0  0  0
 74 76  2  0  0  0
 74148  1  0  0  0
 75 79  1  0  0  0
 76 80  1  0  0  0
 77 84  1  0  0  0
 77149  1  0  0  0
 77150  1  0  0  0
 77151  1  0  0  0
 78152  1  0  0  0
 78153  1  0  0  0
 78154  1  0  0  0
 78 85  1  0  0  0
 79 84  1  0  0  0
 79155  1  0  0  0
 79156  1  0  0  0
 80 85  1  0  0  0
 80157  1  0  0  0
 80158  1  0  0  0
 81 82  1  0  0  0
 81 83  1  0  0  0
 81159  1  0  0  0
 81160  1  0  0  0
 82 85  1  0  0  0
 82161  1  0  0  0
 82162  1  0  0  0
 83163  1  0  0  0
 83164  1  0  0  0
 85165  1  0  0  0
M  CHG  1  85   1
M  ISO  4   1 100  68 101  83 101  84 100
M  END
> <chiral flag>
0

> <version>
0

> <s_m_source_file>
/data/baiqing/PycharmProjects/Reinvent-master-3.2/result/LINK_invent/BTK/process_docking_weight1_custom_product_contain_oxygen_bond_distance_aromatic_linkinvent_7_9_3/rearranged_h_0019.sdf

> <i_m_source_file_index>
12

> <r_mmod_Potential_Energy-OPLS-2005>
-53.4013595581055

> <r_mmod_Stretch_Energy-OPLS-2005>
37.1784515380859

> <r_mmod_Bend_Energy-OPLS-2005>
113.66015625

> <r_mmod_Torsional_Energy-OPLS-2005>
281.912811279297

> <r_mmod_Improper_Torsional_Energy-OPLS-2005>
2.89408612251282

> <r_mmod_Van_der_Waal_Energy-OPLS-2005>
152.694732666016

> <r_mmod_Electrostatic_Energy-OPLS-2005>
-221.941696166992

> <r_mmod_Solvation_Energy-OPLS-2005>
-429.491882324219

> <b_mmod_Minimization_Converged-OPLS-2005>
0

> <r_mmod_RMS_Derivative-OPLS-2005>
5.24202680587769

$$$$
12
                    3D
 Structure written by MMmdl.
156164  0  0  1  0            999 V2000
  -30.6227  -14.6204   20.5328 C   0  0  0  0  0  0
  -30.4436  -12.3904   19.4494 C   0  0  0  0  0  0
  -29.5081  -12.5178   18.2242 C   0  0  0  0  0  0
  -28.0300  -12.3569   18.6349 C   0  0  0  0  0  0
  -27.6580  -13.2148   19.8739 C   0  0  2  0  0  0
  -28.7018  -13.0412   21.0008 C   0  0  0  0  0  0
  -25.2569  -13.8166   20.5699 C   0  0  0  0  0  0
  -24.1835  -13.0439   20.9203 C   0  0  0  0  0  0
  -24.6406  -11.6902   20.8767 C   0  0  0  0  0  0
  -23.9091  -10.4288   21.0429 C   0  0  0  0  0  0
  -24.3638   -9.4188   21.9197 C   0  0  0  0  0  0
  -23.6296   -8.2230   22.0755 C   0  0  0  0  0  0
  -22.4271   -8.0286   21.3553 C   0  0  0  0  0  0
  -21.9928   -9.0266   20.4653 C   0  0  0  0  0  0
  -22.7274  -10.2135   20.3062 C   0  0  0  0  0  0
  -21.6850   -6.0743   22.5289 C   0  0  0  0  0  0
  -21.4010   -6.5640   23.8223 C   0  0  0  0  0  0
  -21.3654   -5.6792   24.9179 C   0  0  0  0  0  0
  -21.6045   -4.3056   24.7237 C   0  0  0  0  0  0
  -21.8816   -3.8152   23.4355 C   0  0  0  0  0  0
  -21.9190   -4.6972   22.3410 C   0  0  0  0  0  0
  -22.7855  -13.5231   21.1864 C   0  0  0  0  0  0
  -22.1652   -4.2160   21.0989 F   0  0  0  0  0  0
  -21.5638   -3.4539   25.7745 F   0  0  0  0  0  0
  -30.0204  -13.3933   20.4449 N   0  0  0  0  0  0
  -26.3005  -12.9348   20.3364 N   0  0  0  0  0  0
  -25.9338  -11.6506   20.5792 N   0  0  0  0  0  0
  -22.0499  -12.8212   22.0412 N   0  0  0  0  0  0
  -25.4308  -15.1891   20.4106 N   0  0  0  0  0  0
  -31.7720  -14.8057   20.1195 O   0  0  0  0  0  0
  -21.6629   -6.8885   21.4248 O   0  0  0  0  0  0
  -22.3540  -14.5546   20.6718 O   0  0  0  0  0  0
  -24.6249  -31.8604   23.2040 C   0  0  0  0  0  0
  -25.9107  -32.4780   23.8352 C   0  0  1  0  0  0
  -27.2245  -27.3257   20.1089 C   0  0  0  0  0  0
  -25.5919  -33.8577   24.2271 N   0  0  0  0  0  0
  -23.4184  -30.4827   21.5493 C   0  0  2  0  0  0
  -24.8643  -28.9426   20.1094 C   0  0  0  0  0  0
  -22.7488  -29.4601   22.4969 C   0  0  0  0  0  0
  -18.0285  -28.1401   22.8491 C   0  0  0  0  0  0
  -24.1492  -36.7299   23.2635 C   0  0  0  0  0  0
  -25.9600  -30.7884   21.3767 C   0  0  0  0  0  0
  -26.0321  -29.4176   20.7186 C   0  0  0  0  0  0
  -27.2137  -28.6201   20.7108 C   0  0  0  0  0  0
  -26.0339  -26.9070   19.4664 C   0  0  0  0  0  0
  -24.8683  -27.6936   19.4721 C   0  0  0  0  0  0
  -23.6319  -29.8214   20.1631 C   0  0  0  0  0  0
  -25.4114  -36.3083   24.0323 C   0  0  1  0  0  0
  -20.5885  -28.3687   23.1311 C   0  0  2  0  0  0
  -20.6790  -26.9415   22.5425 C   0  0  0  0  0  0
  -19.5760  -26.6393   21.5239 C   0  0  0  0  0  0
  -18.1931  -26.7939   22.1640 C   0  0  0  0  0  0
  -19.1535  -28.8870   23.2888 C   0  0  0  0  0  0
  -18.9455  -30.1483   23.8884 C   0  0  0  0  0  0
  -17.6449  -30.6593   24.0577 C   0  0  0  0  0  0
  -25.9054  -34.9450   23.5101 C   0  0  0  0  0  0
  -16.5343  -29.9093   23.6338 C   0  0  0  0  0  0
  -16.7269  -28.6526   23.0332 C   0  0  0  0  0  0
  -26.4486  -31.6585   25.0719 C   0  0  0  0  0  0
  -25.3695  -31.3726   26.1433 C   0  0  0  0  0  0
  -27.0321  -30.3002   24.6170 C   0  0  0  0  0  0
  -27.6059  -32.4311   25.7484 C   0  0  0  0  0  0
  -27.5583  -37.1796   24.8456 C   0  0  0  0  0  0
  -21.4205  -29.3018   22.3709 N   0  0  0  0  0  0
  -26.4290  -37.3777   23.9408 N   0  0  0  0  0  0
  -24.6866  -31.0607   22.0999 N   0  0  0  0  0  0
  -23.4221  -28.8124   23.3026 O   0  0  0  0  0  0
  -28.3486  -26.4868   20.1710 O   0  0  0  0  0  0
  -26.5631  -34.8919   22.4671 O   0  0  0  0  0  0
  -23.5416  -32.1401   23.7366 O   0  0  0  0  0  0
  -30.9222  -19.2816   20.3666 C   0  0  0  0  0  0
  -30.9536  -17.8527   20.3791 C   0  0  0  0  0  0
  -28.7484  -17.8413   21.3412 C   0  0  0  0  0  0
  -29.8142  -20.0288   20.8588 C   0  0  0  0  0  0
  -29.8673  -17.0907   20.8857 C   0  0  0  0  0  0
  -28.7170  -19.2669   21.3303 C   0  0  0  0  0  0
  -29.0566  -22.1451   18.7731 C   0  0  0  0  0  0
  -29.8835  -21.5940   21.0345 C   0  0  0  0  0  0
  -29.2668  -24.0150   20.4422 C   0  0  0  0  0  0
  -28.1638  -25.0395   19.9250 C   0  0  0  0  0  0
  -29.8138  -15.6311   20.9741 N   0  0  0  0  0  0
  -29.0135  -22.5218   20.2067 N   0  3  1  0  0  0
  -27.6240  -19.9085   21.8082 F   0  0  0  0  0  0
  -31.4829  -12.5269   19.1443 H   0  0  0  0  0  0
  -30.3879  -11.3892   19.8800 H   0  0  0  0  0  0
  -29.7709  -11.7720   17.4731 H   0  0  0  0  0  0
  -29.6509  -13.4892   17.7476 H   0  0  0  0  0  0
  -27.8645  -11.3021   18.8546 H   0  0  0  0  0  0
  -27.3750  -12.5977   17.7969 H   0  0  0  0  0  0
  -27.6830  -14.2570   19.5533 H   0  0  0  0  0  0
  -28.7095  -12.0081   21.3546 H   0  0  0  0  0  0
  -28.4444  -13.6477   21.8707 H   0  0  0  0  0  0
  -25.2792   -9.5634   22.4769 H   0  0  0  0  0  0
  -24.0006   -7.4610   22.7452 H   0  0  0  0  0  0
  -21.0873   -8.8799   19.8949 H   0  0  0  0  0  0
  -22.3769  -10.9675   19.6157 H   0  0  0  0  0  0
  -21.1990   -7.6150   23.9734 H   0  0  0  0  0  0
  -21.1479   -6.0522   25.9089 H   0  0  0  0  0  0
  -22.0601   -2.7620   23.2859 H   0  0  0  0  0  0
  -22.4129  -11.9861   22.4780 H   0  0  0  0  0  0
  -21.1118  -13.1224   22.2628 H   0  0  0  0  0  0
  -24.6690  -15.8485   20.5245 H   0  0  0  0  0  0
  -26.2789  -15.6217   20.0692 H   0  0  0  0  0  0
  -26.7158  -32.5448   23.1088 H   0  0  0  0  0  0
  -25.0050  -33.9725   25.0408 H   0  0  0  0  0  0
  -22.7091  -31.3014   21.4099 H   0  0  0  0  0  0
  -23.3761  -35.9629   23.3289 H   0  0  0  0  0  0
  -24.3572  -36.8928   22.2048 H   0  0  0  0  0  0
  -23.7242  -37.6493   23.6672 H   0  0  0  0  0  0
  -26.0897  -31.5479   20.6045 H   0  0  0  0  0  0
  -26.8432  -30.8386   22.0030 H   0  0  0  0  0  0
  -28.1090  -28.9774   21.1988 H   0  0  0  0  0  0
  -25.9698  -25.9602   18.9515 H   0  0  0  0  0  0
  -23.9775  -27.3297   18.9776 H   0  0  0  0  0  0
  -23.7455  -30.6008   19.4088 H   0  0  0  0  0  0
  -22.7530  -29.2484   19.8644 H   0  0  0  0  0  0
  -25.1292  -36.1927   25.0813 H   0  0  0  0  0  0
  -20.9964  -28.3255   24.1442 H   0  0  0  0  0  0
  -20.5746  -26.2278   23.3611 H   0  0  0  0  0  0
  -21.6646  -26.7480   22.1171 H   0  0  0  0  0  0
  -19.6921  -25.6313   21.1252 H   0  0  0  0  0  0
  -19.6706  -27.3233   20.6793 H   0  0  0  0  0  0
  -17.4210  -26.6703   21.4033 H   0  0  0  0  0  0
  -18.0312  -26.0087   22.9037 H   0  0  0  0  0  0
  -19.7924  -30.7328   24.2222 H   0  0  0  0  0  0
  -17.4990  -31.6263   24.5204 H   0  0  0  0  0  0
  -15.5344  -30.2984   23.7675 H   0  0  0  0  0  0
  -15.8672  -28.0863   22.7010 H   0  0  0  0  0  0
  -24.5895  -30.7058   25.7739 H   0  0  0  0  0  0
  -24.8866  -32.2899   26.4813 H   0  0  0  0  0  0
  -25.7985  -30.8918   27.0234 H   0  0  0  0  0  0
  -26.2893  -29.6765   24.1187 H   0  0  0  0  0  0
  -27.4010  -29.7236   25.4663 H   0  0  0  0  0  0
  -27.8767  -30.4285   23.9397 H   0  0  0  0  0  0
  -27.2695  -33.3636   26.2029 H   0  0  0  0  0  0
  -28.3885  -32.6819   25.0311 H   0  0  0  0  0  0
  -28.0716  -31.8448   26.5419 H   0  0  0  0  0  0
  -28.2575  -38.0117   24.7527 H   0  0  0  0  0  0
  -28.1104  -36.2646   24.6252 H   0  0  0  0  0  0
  -27.2301  -37.1395   25.8857 H   0  0  0  0  0  0
  -20.9406  -29.8698   21.6872 H   0  0  0  0  0  0
  -26.0172  -38.2848   24.1429 H   0  0  0  0  0  0
  -31.7975  -19.8061   20.0088 H   0  0  0  0  0  0
  -31.8398  -17.3529   20.0135 H   0  0  0  0  0  0
  -27.8840  -17.3223   21.7307 H   0  0  0  0  0  0
  -28.6608  -21.1388   18.6306 H   0  0  0  0  0  0
  -30.0801  -22.1541   18.3970 H   0  0  0  0  0  0
  -28.4596  -22.8099   18.1509 H   0  0  0  0  0  0
  -30.9208  -21.8866   20.8639 H   0  0  0  0  0  0
  -29.6961  -21.8110   22.0879 H   0  0  0  0  0  0
  -29.3654  -24.1693   21.5170 H   0  0  0  0  0  0
  -30.2367  -24.2790   20.0180 H   0  0  0  0  0  0
  -27.2213  -24.7197   20.3725 H   0  0  0  0  0  0
  -28.0538  -24.9266   18.8467 H   0  0  0  0  0  0
  -28.9436  -15.2683   21.3335 H   0  0  0  0  0  0
  -28.0693  -22.3440   20.5176 H   0  0  0  0  0  0
  1 25  1  0  0  0
  1 30  2  0  0  0
  1 81  1  0  0  0
  2  3  1  0  0  0
  2 25  1  0  0  0
  2 84  1  0  0  0
  2 85  1  0  0  0
  3  4  1  0  0  0
  3 86  1  0  0  0
  3 87  1  0  0  0
  4  5  1  0  0  0
  4 88  1  0  0  0
  4 89  1  0  0  0
  5  6  1  0  0  0
  5 26  1  0  0  0
  5 90  1  0  0  0
  6 25  1  0  0  0
  6 91  1  0  0  0
  6 92  1  0  0  0
  7  8  2  0  0  0
  7 26  1  0  0  0
  7 29  1  0  0  0
  8  9  1  0  0  0
  8 22  1  0  0  0
  9 10  1  0  0  0
  9 27  2  0  0  0
 10 11  2  0  0  0
 10 15  1  0  0  0
 11 12  1  0  0  0
 11 93  1  0  0  0
 12 13  2  0  0  0
 12 94  1  0  0  0
 13 14  1  0  0  0
 13 31  1  0  0  0
 14 15  2  0  0  0
 14 95  1  0  0  0
 15 96  1  0  0  0
 16 17  2  0  0  0
 16 21  1  0  0  0
 16 31  1  0  0  0
 17 18  1  0  0  0
 17 97  1  0  0  0
 18 19  2  0  0  0
 18 98  1  0  0  0
 19 20  1  0  0  0
 19 24  1  0  0  0
 20 21  2  0  0  0
 20 99  1  0  0  0
 21 23  1  0  0  0
 22 28  1  0  0  0
 22 32  2  0  0  0
 26 27  1  0  0  0
 28100  1  0  0  0
 28101  1  0  0  0
 29102  1  0  0  0
 29103  1  0  0  0
 33 34  1  0  0  0
 33 66  1  0  0  0
 33 70  2  0  0  0
 34 36  1  0  0  0
 34 59  1  0  0  0
 34104  1  0  0  0
 35 44  2  0  0  0
 35 45  1  0  0  0
 35 68  1  0  0  0
 36 56  1  0  0  0
 36105  1  0  0  0
 37 39  1  0  0  0
 37 47  1  0  0  0
 37 66  1  0  0  0
 37106  1  0  0  0
 38 43  2  0  0  0
 38 46  1  0  0  0
 38 47  1  0  0  0
 39 64  1  0  0  0
 39 67  2  0  0  0
 40 52  1  0  0  0
 40 53  2  0  0  0
 40 58  1  0  0  0
 41107  1  0  0  0
 41108  1  0  0  0
 41109  1  0  0  0
 41 48  1  0  0  0
 42 43  1  0  0  0
 42 66  1  0  0  0
 42110  1  0  0  0
 42111  1  0  0  0
 43 44  1  0  0  0
 44112  1  0  0  0
 45 46  2  0  0  0
 45113  1  0  0  0
 46114  1  0  0  0
 47115  1  0  0  0
 47116  1  0  0  0
 48 56  1  0  0  0
 48 65  1  0  0  0
 48117  1  0  0  0
 49 50  1  0  0  0
 49 53  1  0  0  0
 49 64  1  0  0  0
 49118  1  0  0  0
 50 51  1  0  0  0
 50119  1  0  0  0
 50120  1  0  0  0
 51 52  1  0  0  0
 51121  1  0  0  0
 51122  1  0  0  0
 52123  1  0  0  0
 52124  1  0  0  0
 53 54  1  0  0  0
 54 55  2  0  0  0
 54125  1  0  0  0
 55 57  1  0  0  0
 55126  1  0  0  0
 56 69  2  0  0  0
 57 58  2  0  0  0
 57127  1  0  0  0
 58128  1  0  0  0
 59 60  1  0  0  0
 59 61  1  0  0  0
 59 62  1  0  0  0
 60129  1  0  0  0
 60130  1  0  0  0
 60131  1  0  0  0
 61132  1  0  0  0
 61133  1  0  0  0
 61134  1  0  0  0
 62135  1  0  0  0
 62136  1  0  0  0
 62137  1  0  0  0
 63 65  1  0  0  0
 63138  1  0  0  0
 63139  1  0  0  0
 63140  1  0  0  0
 64141  1  0  0  0
 65142  1  0  0  0
 68 80  1  0  0  0
 71 72  2  0  0  0
 71 74  1  0  0  0
 71143  1  0  0  0
 72 75  1  0  0  0
 72144  1  0  0  0
 73 75  2  0  0  0
 73 76  1  0  0  0
 73145  1  0  0  0
 74 76  2  0  0  0
 74 78  1  0  0  0
 75 81  1  0  0  0
 76 83  1  0  0  0
 77146  1  0  0  0
 77147  1  0  0  0
 77148  1  0  0  0
 77 82  1  0  0  0
 78 82  1  0  0  0
 78149  1  0  0  0
 78150  1  0  0  0
 79 80  1  0  0  0
 79 82  1  0  0  0
 79151  1  0  0  0
 79152  1  0  0  0
 80153  1  0  0  0
 80154  1  0  0  0
 81155  1  0  0  0
 82156  1  0  0  0
M  CHG  1  82   1
M  ISO  4   1 100  68 101  80 101  81 100
M  END
> <chiral flag>
0

> <version>
0

> <s_m_source_file>
/data/baiqing/PycharmProjects/Reinvent-master-3.2/result/LINK_invent/BTK/process_docking_weight1_custom_product_contain_oxygen_bond_distance_aromatic_linkinvent_7_9_3/rearranged_h_0019.sdf

> <i_m_source_file_index>
13

> <r_mmod_Potential_Energy-OPLS-2005>
-72.4477767944336

> <r_mmod_Stretch_Energy-OPLS-2005>
77.2074813842773

> <r_mmod_Bend_Energy-OPLS-2005>
137.644012451172

> <r_mmod_Torsional_Energy-OPLS-2005>
204.07666015625

> <r_mmod_Improper_Torsional_Energy-OPLS-2005>
4.14148139953613

> <r_mmod_Van_der_Waal_Energy-OPLS-2005>
145.579650878906

> <r_mmod_Electrostatic_Energy-OPLS-2005>
-253.568542480469

> <r_mmod_Solvation_Energy-OPLS-2005>
-431.46044921875

> <b_mmod_Minimization_Converged-OPLS-2005>
0

> <r_mmod_RMS_Derivative-OPLS-2005>
1.99835777282715

$$$$
13
                    3D
 Structure written by MMmdl.
158166  0  0  1  0            999 V2000
  -30.7434  -14.4717   20.6107 C   0  0  0  0  0  0
  -30.4154  -12.3314   19.4203 C   0  0  0  0  0  0
  -29.4869  -12.5051   18.2031 C   0  0  0  0  0  0
  -28.0113  -12.3632   18.6201 C   0  0  0  0  0  0
  -27.6564  -13.2133   19.8686 C   0  0  2  0  0  0
  -28.7004  -13.0214   20.9916 C   0  0  0  0  0  0
  -25.2566  -13.8186   20.5663 C   0  0  0  0  0  0
  -24.1832  -13.0461   20.9178 C   0  0  0  0  0  0
  -24.6383  -11.6929   20.8748 C   0  0  0  0  0  0
  -23.9044  -10.4318   21.0435 C   0  0  0  0  0  0
  -24.3610   -9.4232   21.9197 C   0  0  0  0  0  0
  -23.6296   -8.2255   22.0752 C   0  0  0  0  0  0
  -22.4271   -8.0301   21.3547 C   0  0  0  0  0  0
  -21.9911   -9.0268   20.4644 C   0  0  0  0  0  0
  -22.7231  -10.2156   20.3068 C   0  0  0  0  0  0
  -21.6847   -6.0750   22.5288 C   0  0  0  0  0  0
  -21.4011   -6.5650   23.8225 C   0  0  0  0  0  0
  -21.3661   -5.6797   24.9183 C   0  0  0  0  0  0
  -21.6046   -4.3062   24.7233 C   0  0  0  0  0  0
  -21.8817   -3.8159   23.4350 C   0  0  0  0  0  0
  -21.9189   -4.6978   22.3409 C   0  0  0  0  0  0
  -22.7853  -13.5267   21.1840 C   0  0  0  0  0  0
  -22.1658   -4.2170   21.0979 F   0  0  0  0  0  0
  -21.5625   -3.4538   25.7732 F   0  0  0  0  0  0
  -30.0278  -13.3268   20.4336 N   0  0  0  0  0  0
  -26.2994  -12.9358   20.3334 N   0  0  0  0  0  0
  -25.9311  -11.6519   20.5769 N   0  0  0  0  0  0
  -22.0468  -12.8277   22.0400 N   0  0  0  0  0  0
  -25.4321  -15.1903   20.4088 N   0  0  0  0  0  0
  -31.8447  -14.6404   20.0826 O   0  0  0  0  0  0
  -21.6634   -6.8896   21.4245 O   0  0  0  0  0  0
  -22.3544  -14.5577   20.6681 O   0  0  0  0  0  0
  -24.6170  -31.8637   23.2074 C   0  0  0  0  0  0
  -25.9049  -32.4800   23.8381 C   0  0  1  0  0  0
  -27.2347  -27.4108   20.0929 C   0  0  0  0  0  0
  -25.5898  -33.8598   24.2298 N   0  0  0  0  0  0
  -23.4064  -30.4878   21.5496 C   0  0  2  0  0  0
  -24.8509  -28.9538   20.1148 C   0  0  0  0  0  0
  -22.7411  -29.4634   22.4985 C   0  0  0  0  0  0
  -18.0257  -28.1372   22.8499 C   0  0  0  0  0  0
  -24.1474  -36.7316   23.2645 C   0  0  0  0  0  0
  -25.9383  -30.8239   21.3632 C   0  0  0  0  0  0
  -26.0153  -29.4583   20.7075 C   0  0  0  0  0  0
  -27.2091  -28.6971   20.6883 C   0  0  0  0  0  0
  -26.0453  -26.9275   19.4977 C   0  0  0  0  0  0
  -24.8641  -27.6899   19.5057 C   0  0  0  0  0  0
  -23.6139  -29.8200   20.1661 C   0  0  0  0  0  0
  -25.4094  -36.3093   24.0334 C   0  0  1  0  0  0
  -20.5855  -28.3646   23.1323 C   0  0  2  0  0  0
  -20.6750  -26.9381   22.5424 C   0  0  0  0  0  0
  -19.5728  -26.6379   21.5219 C   0  0  0  0  0  0
  -18.1906  -26.7918   22.1637 C   0  0  0  0  0  0
  -19.1515  -28.8822   23.2908 C   0  0  0  0  0  0
  -18.9445  -30.1436   23.8913 C   0  0  0  0  0  0
  -17.6453  -30.6588   24.0560 C   0  0  0  0  0  0
  -25.9025  -34.9464   23.5104 C   0  0  0  0  0  0
  -16.5336  -29.9092   23.6330 C   0  0  0  0  0  0
  -16.7249  -28.6502   23.0354 C   0  0  0  0  0  0
  -26.4477  -31.6597   25.0721 C   0  0  0  0  0  0
  -25.3752  -31.3724   26.1480 C   0  0  0  0  0  0
  -27.0313  -30.3031   24.6124 C   0  0  0  0  0  0
  -27.6039  -32.4336   25.7491 C   0  0  0  0  0  0
  -27.5561  -37.1807   24.8462 C   0  0  0  0  0  0
  -21.4137  -29.3009   22.3722 N   0  0  0  0  0  0
  -26.4273  -37.3784   23.9400 N   0  0  0  0  0  0
  -24.6724  -31.0730   22.0984 N   0  0  0  0  0  0
  -23.4175  -28.8170   23.3029 O   0  0  0  0  0  0
  -28.4072  -26.6705   20.1028 O   0  0  0  0  0  0
  -26.5609  -34.8924   22.4679 O   0  0  0  0  0  0
  -23.5358  -32.1381   23.7469 O   0  0  0  0  0  0
  -29.4651  -18.6520   22.3424 C   0  0  0  0  0  0
  -29.2160  -20.0394   22.2132 C   0  0  0  0  0  0
  -30.9018  -20.1849   20.4775 C   0  0  0  0  0  0
  -30.4699  -18.0213   21.5739 C   0  0  0  0  0  0
  -29.9522  -20.8356   21.3030 C   0  0  0  0  0  0
  -31.1637  -18.8004   20.6155 C   0  0  0  0  0  0
  -30.8814  -22.7237   22.2848 C   0  0  0  0  0  0
  -30.9318  -16.5931   21.9166 C   0  0  0  0  0  0
  -29.6774  -24.5424   20.1788 C   0  0  0  0  0  0
  -29.6967  -22.9757   20.0877 C   0  0  0  0  0  0
  -28.3098  -25.2360   19.9592 C   0  0  0  0  0  0
  -30.1886  -15.4384   21.3681 N   0  0  0  0  0  0
  -29.8429  -22.2492   21.3675 N   0  0  0  0  0  0
  -32.1428  -18.2382   19.8669 F   0  0  0  0  0  0
  -31.4575  -12.4271   19.1122 H   0  0  0  0  0  0
  -30.3250  -11.3261   19.8350 H   0  0  0  0  0  0
  -29.7300  -11.7635   17.4407 H   0  0  0  0  0  0
  -29.6496  -13.4831   17.7450 H   0  0  0  0  0  0
  -27.8239  -11.3062   18.8215 H   0  0  0  0  0  0
  -27.3601  -12.6331   17.7884 H   0  0  0  0  0  0
  -27.6956  -14.2579   19.5579 H   0  0  0  0  0  0
  -28.6846  -11.9916   21.3508 H   0  0  0  0  0  0
  -28.4534  -13.6379   21.8554 H   0  0  0  0  0  0
  -25.2766   -9.5705   22.4758 H   0  0  0  0  0  0
  -24.0022   -7.4637   22.7464 H   0  0  0  0  0  0
  -21.0830   -8.8781   19.8944 H   0  0  0  0  0  0
  -22.3691  -10.9689   19.6169 H   0  0  0  0  0  0
  -21.2001   -7.6155   23.9740 H   0  0  0  0  0  0
  -21.1476   -6.0515   25.9081 H   0  0  0  0  0  0
  -22.0587   -2.7615   23.2833 H   0  0  0  0  0  0
  -22.4062  -11.9959   22.4845 H   0  0  0  0  0  0
  -21.1078  -13.1314   22.2563 H   0  0  0  0  0  0
  -24.6688  -15.8506   20.5128 H   0  0  0  0  0  0
  -26.2879  -15.6246   20.0851 H   0  0  0  0  0  0
  -26.7121  -32.5487   23.1148 H   0  0  0  0  0  0
  -25.0010  -33.9739   25.0419 H   0  0  0  0  0  0
  -22.6975  -31.3053   21.4096 H   0  0  0  0  0  0
  -23.3714  -35.9676   23.3325 H   0  0  0  0  0  0
  -24.3556  -36.8903   22.2055 H   0  0  0  0  0  0
  -23.7257  -37.6536   23.6650 H   0  0  0  0  0  0
  -26.0540  -31.5900   20.5961 H   0  0  0  0  0  0
  -26.8269  -30.8741   21.9823 H   0  0  0  0  0  0
  -28.1083  -29.0862   21.1444 H   0  0  0  0  0  0
  -26.0039  -25.9645   19.0128 H   0  0  0  0  0  0
  -23.9712  -27.2936   19.0426 H   0  0  0  0  0  0
  -23.7170  -30.5907   19.4021 H   0  0  0  0  0  0
  -22.7382  -29.2351   19.8761 H   0  0  0  0  0  0
  -25.1273  -36.1954   25.0832 H   0  0  0  0  0  0
  -20.9943  -28.3201   24.1444 H   0  0  0  0  0  0
  -20.5630  -26.2247   23.3602 H   0  0  0  0  0  0
  -21.6619  -26.7407   22.1220 H   0  0  0  0  0  0
  -19.6882  -25.6294   21.1224 H   0  0  0  0  0  0
  -19.6671  -27.3210   20.6764 H   0  0  0  0  0  0
  -17.4166  -26.6646   21.4048 H   0  0  0  0  0  0
  -18.0318  -26.0063   22.9039 H   0  0  0  0  0  0
  -19.7917  -30.7249   24.2285 H   0  0  0  0  0  0
  -17.5003  -31.6268   24.5161 H   0  0  0  0  0  0
  -15.5336  -30.3007   23.7643 H   0  0  0  0  0  0
  -15.8642  -28.0836   22.7074 H   0  0  0  0  0  0
  -24.5895  -30.7103   25.7823 H   0  0  0  0  0  0
  -24.9009  -32.2904   26.4960 H   0  0  0  0  0  0
  -25.8121  -30.8861   27.0213 H   0  0  0  0  0  0
  -26.2873  -29.6791   24.1165 H   0  0  0  0  0  0
  -27.4043  -29.7262   25.4595 H   0  0  0  0  0  0
  -27.8722  -30.4318   23.9307 H   0  0  0  0  0  0
  -27.2626  -33.3607   26.2110 H   0  0  0  0  0  0
  -28.3844  -32.6945   25.0331 H   0  0  0  0  0  0
  -28.0732  -31.8452   26.5381 H   0  0  0  0  0  0
  -28.2598  -38.0084   24.7473 H   0  0  0  0  0  0
  -28.1030  -36.2608   24.6330 H   0  0  0  0  0  0
  -27.2269  -37.1512   25.8866 H   0  0  0  0  0  0
  -20.9290  -29.8737   21.6961 H   0  0  0  0  0  0
  -26.0150  -38.2850   24.1427 H   0  0  0  0  0  0
  -28.9341  -18.0878   23.0988 H   0  0  0  0  0  0
  -28.4960  -20.5041   22.8732 H   0  0  0  0  0  0
  -31.5070  -20.7502   19.7847 H   0  0  0  0  0  0
  -31.1052  -22.0009   23.0723 H   0  0  0  0  0  0
  -30.5768  -23.6417   22.7869 H   0  0  0  0  0  0
  -31.8133  -22.9203   21.7501 H   0  0  0  0  0  0
  -30.8929  -16.4993   23.0023 H   0  0  0  0  0  0
  -31.9968  -16.5220   21.6867 H   0  0  0  0  0  0
  -30.1265  -24.9125   21.0974 H   0  0  0  0  0  0
  -30.3377  -24.9139   19.3949 H   0  0  0  0  0  0
  -30.5205  -22.6945   19.4315 H   0  0  0  0  0  0
  -28.7921  -22.6268   19.5865 H   0  0  0  0  0  0
  -27.5878  -24.8409   20.6769 H   0  0  0  0  0  0
  -27.9581  -24.9856   18.9576 H   0  0  0  0  0  0
  -29.2654  -15.2606   21.7366 H   0  0  0  0  0  0
  1 25  1  0  0  0
  1 30  2  0  0  0
  1 82  1  0  0  0
  2  3  1  0  0  0
  2 25  1  0  0  0
  2 85  1  0  0  0
  2 86  1  0  0  0
  3  4  1  0  0  0
  3 87  1  0  0  0
  3 88  1  0  0  0
  4  5  1  0  0  0
  4 89  1  0  0  0
  4 90  1  0  0  0
  5  6  1  0  0  0
  5 26  1  0  0  0
  5 91  1  0  0  0
  6 25  1  0  0  0
  6 92  1  0  0  0
  6 93  1  0  0  0
  7  8  2  0  0  0
  7 26  1  0  0  0
  7 29  1  0  0  0
  8  9  1  0  0  0
  8 22  1  0  0  0
  9 10  1  0  0  0
  9 27  2  0  0  0
 10 11  2  0  0  0
 10 15  1  0  0  0
 11 12  1  0  0  0
 11 94  1  0  0  0
 12 13  2  0  0  0
 12 95  1  0  0  0
 13 14  1  0  0  0
 13 31  1  0  0  0
 14 15  2  0  0  0
 14 96  1  0  0  0
 15 97  1  0  0  0
 16 17  2  0  0  0
 16 21  1  0  0  0
 16 31  1  0  0  0
 17 18  1  0  0  0
 17 98  1  0  0  0
 18 19  2  0  0  0
 18 99  1  0  0  0
 19 20  1  0  0  0
 19 24  1  0  0  0
 20 21  2  0  0  0
 20100  1  0  0  0
 21 23  1  0  0  0
 22 28  1  0  0  0
 22 32  2  0  0  0
 26 27  1  0  0  0
 28101  1  0  0  0
 28102  1  0  0  0
 29103  1  0  0  0
 29104  1  0  0  0
 33 34  1  0  0  0
 33 66  1  0  0  0
 33 70  2  0  0  0
 34 36  1  0  0  0
 34 59  1  0  0  0
 34105  1  0  0  0
 35 44  2  0  0  0
 35 45  1  0  0  0
 35 68  1  0  0  0
 36 56  1  0  0  0
 36106  1  0  0  0
 37 39  1  0  0  0
 37 47  1  0  0  0
 37 66  1  0  0  0
 37107  1  0  0  0
 38 43  2  0  0  0
 38 46  1  0  0  0
 38 47  1  0  0  0
 39 64  1  0  0  0
 39 67  2  0  0  0
 40 52  1  0  0  0
 40 53  2  0  0  0
 40 58  1  0  0  0
 41108  1  0  0  0
 41109  1  0  0  0
 41110  1  0  0  0
 41 48  1  0  0  0
 42 43  1  0  0  0
 42 66  1  0  0  0
 42111  1  0  0  0
 42112  1  0  0  0
 43 44  1  0  0  0
 44113  1  0  0  0
 45 46  2  0  0  0
 45114  1  0  0  0
 46115  1  0  0  0
 47116  1  0  0  0
 47117  1  0  0  0
 48 56  1  0  0  0
 48 65  1  0  0  0
 48118  1  0  0  0
 49 50  1  0  0  0
 49 53  1  0  0  0
 49 64  1  0  0  0
 49119  1  0  0  0
 50 51  1  0  0  0
 50120  1  0  0  0
 50121  1  0  0  0
 51 52  1  0  0  0
 51122  1  0  0  0
 51123  1  0  0  0
 52124  1  0  0  0
 52125  1  0  0  0
 53 54  1  0  0  0
 54 55  2  0  0  0
 54126  1  0  0  0
 55 57  1  0  0  0
 55127  1  0  0  0
 56 69  2  0  0  0
 57 58  2  0  0  0
 57128  1  0  0  0
 58129  1  0  0  0
 59 60  1  0  0  0
 59 61  1  0  0  0
 59 62  1  0  0  0
 60130  1  0  0  0
 60131  1  0  0  0
 60132  1  0  0  0
 61133  1  0  0  0
 61134  1  0  0  0
 61135  1  0  0  0
 62136  1  0  0  0
 62137  1  0  0  0
 62138  1  0  0  0
 63 65  1  0  0  0
 63139  1  0  0  0
 63140  1  0  0  0
 63141  1  0  0  0
 64142  1  0  0  0
 65143  1  0  0  0
 68 81  1  0  0  0
 71 72  2  0  0  0
 71 74  1  0  0  0
 71144  1  0  0  0
 72 75  1  0  0  0
 72145  1  0  0  0
 73 75  2  0  0  0
 73 76  1  0  0  0
 73146  1  0  0  0
 74 76  2  0  0  0
 74 78  1  0  0  0
 75 83  1  0  0  0
 76 84  1  0  0  0
 77 83  1  0  0  0
 77147  1  0  0  0
 77148  1  0  0  0
 77149  1  0  0  0
 78 82  1  0  0  0
 78150  1  0  0  0
 78151  1  0  0  0
 79 80  1  0  0  0
 79 81  1  0  0  0
 79152  1  0  0  0
 79153  1  0  0  0
 80 83  1  0  0  0
 80154  1  0  0  0
 80155  1  0  0  0
 81156  1  0  0  0
 81157  1  0  0  0
 82158  1  0  0  0
M  ISO  4   1 100  68 101  81 101  82 100
M  END
> <chiral flag>
0

> <version>
0

> <s_m_source_file>
/data/baiqing/PycharmProjects/Reinvent-master-3.2/result/LINK_invent/BTK/process_docking_weight1_custom_product_contain_oxygen_bond_distance_aromatic_linkinvent_7_9_3/rearranged_h_0019.sdf

> <i_m_source_file_index>
14

> <r_mmod_Potential_Energy-OPLS-2005>
-30.9242286682129

> <r_mmod_Stretch_Energy-OPLS-2005>
43.633716583252

> <r_mmod_Bend_Energy-OPLS-2005>
106.935760498047

> <r_mmod_Torsional_Energy-OPLS-2005>
238.377563476562

> <r_mmod_Improper_Torsional_Energy-OPLS-2005>
8.27741622924805

> <r_mmod_Van_der_Waal_Energy-OPLS-2005>
159.490539550781

> <r_mmod_Electrostatic_Energy-OPLS-2005>
-376.258392333984

> <r_mmod_Solvation_Energy-OPLS-2005>
-226.03076171875

> <b_mmod_Minimization_Converged-OPLS-2005>
0

> <r_mmod_RMS_Derivative-OPLS-2005>
2.77856636047363

$$$$
14
                    3D
 Structure written by MMmdl.
155163  0  0  1  0            999 V2000
  -30.6326  -14.6268   20.4990 C   0  0  0  0  0  0
  -30.4419  -12.3792   19.4581 C   0  0  0  0  0  0
  -29.5086  -12.4887   18.2303 C   0  0  0  0  0  0
  -28.0313  -12.3347   18.6442 C   0  0  0  0  0  0
  -27.6552  -13.2126   19.8663 C   0  0  2  0  0  0
  -28.7020  -13.0652   20.9961 C   0  0  0  0  0  0
  -25.2556  -13.8167   20.5693 C   0  0  0  0  0  0
  -24.1814  -13.0428   20.9182 C   0  0  0  0  0  0
  -24.6381  -11.6901   20.8741 C   0  0  0  0  0  0
  -23.9057  -10.4283   21.0409 C   0  0  0  0  0  0
  -24.3607   -9.4195   21.9180 C   0  0  0  0  0  0
  -23.6269   -8.2237   22.0757 C   0  0  0  0  0  0
  -22.4255   -8.0279   21.3541 C   0  0  0  0  0  0
  -21.9892   -9.0266   20.4660 C   0  0  0  0  0  0
  -22.7235  -10.2134   20.3064 C   0  0  0  0  0  0
  -21.6852   -6.0731   22.5280 C   0  0  0  0  0  0
  -21.4028   -6.5641   23.8216 C   0  0  0  0  0  0
  -21.3654   -5.6789   24.9173 C   0  0  0  0  0  0
  -21.6039   -4.3054   24.7222 C   0  0  0  0  0  0
  -21.8819   -3.8143   23.4348 C   0  0  0  0  0  0
  -21.9191   -4.6958   22.3402 C   0  0  0  0  0  0
  -22.7834  -13.5223   21.1848 C   0  0  0  0  0  0
  -22.1647   -4.2145   21.0977 F   0  0  0  0  0  0
  -21.5620   -3.4536   25.7730 F   0  0  0  0  0  0
  -30.0205  -13.4022   20.4338 N   0  0  0  0  0  0
  -26.2983  -12.9347   20.3333 N   0  0  0  0  0  0
  -25.9309  -11.6501   20.5760 N   0  0  0  0  0  0
  -22.0473  -12.8245   22.0417 N   0  0  0  0  0  0
  -25.4269  -15.1901   20.4150 N   0  0  0  0  0  0
  -31.7884  -14.7897   20.0977 O   0  0  0  0  0  0
  -21.6627   -6.8873   21.4237 O   0  0  0  0  0  0
  -22.3527  -14.5536   20.6709 O   0  0  0  0  0  0
  -24.6249  -31.8623   23.2067 C   0  0  0  0  0  0
  -25.9100  -32.4787   23.8383 C   0  0  1  0  0  0
  -27.2184  -27.3350   20.1024 C   0  0  0  0  0  0
  -25.5909  -33.8593   24.2278 N   0  0  0  0  0  0
  -23.4173  -30.4902   21.5501 C   0  0  2  0  0  0
  -24.8606  -28.9506   20.1156 C   0  0  0  0  0  0
  -22.7466  -29.4657   22.4962 C   0  0  0  0  0  0
  -18.0290  -28.1398   22.8501 C   0  0  0  0  0  0
  -24.1482  -36.7302   23.2644 C   0  0  0  0  0  0
  -25.9614  -30.7969   21.3800 C   0  0  0  0  0  0
  -26.0337  -29.4297   20.7135 C   0  0  0  0  0  0
  -27.2174  -28.6349   20.6933 C   0  0  0  0  0  0
  -26.0167  -26.9063   19.4910 C   0  0  0  0  0  0
  -24.8533  -27.6932   19.4999 C   0  0  0  0  0  0
  -23.6302  -29.8298   20.1650 C   0  0  0  0  0  0
  -25.4106  -36.3087   24.0323 C   0  0  1  0  0  0
  -20.5886  -28.3693   23.1292 C   0  0  2  0  0  0
  -20.6774  -26.9418   22.5417 C   0  0  0  0  0  0
  -19.5744  -26.6390   21.5225 C   0  0  0  0  0  0
  -18.1923  -26.7942   22.1635 C   0  0  0  0  0  0
  -19.1537  -28.8861   23.2893 C   0  0  0  0  0  0
  -18.9465  -30.1472   23.8907 C   0  0  0  0  0  0
  -17.6460  -30.6594   24.0578 C   0  0  0  0  0  0
  -25.9041  -34.9453   23.5093 C   0  0  0  0  0  0
  -16.5356  -29.9096   23.6342 C   0  0  0  0  0  0
  -16.7275  -28.6516   23.0359 C   0  0  0  0  0  0
  -26.4471  -31.6619   25.0769 C   0  0  0  0  0  0
  -25.3698  -31.3792   26.1507 C   0  0  0  0  0  0
  -27.0332  -30.3036   24.6269 C   0  0  0  0  0  0
  -27.6029  -32.4384   25.7506 C   0  0  0  0  0  0
  -27.5573  -37.1803   24.8457 C   0  0  0  0  0  0
  -21.4183  -29.3051   22.3690 N   0  0  0  0  0  0
  -26.4284  -37.3783   23.9401 N   0  0  0  0  0  0
  -24.6867  -31.0656   22.1012 N   0  0  0  0  0  0
  -23.4192  -28.8190   23.3035 O   0  0  0  0  0  0
  -28.3432  -26.4967   20.1254 O   0  0  0  0  0  0
  -26.5619  -34.8918   22.4665 O   0  0  0  0  0  0
  -23.5413  -32.1417   23.7400 O   0  0  0  0  0  0
  -30.9542  -17.8187   20.0648 C   0  0  0  0  0  0
  -30.9410  -19.2402   19.9659 C   0  0  0  0  0  0
  -28.8714  -17.9237   21.2475 C   0  0  0  0  0  0
  -29.9192  -17.1169   20.7297 C   0  0  0  0  0  0
  -29.9197  -20.0685   20.5238 C   0  0  0  0  0  0
  -28.8552  -19.3473   21.1577 C   0  0  0  0  0  0
  -31.4076  -22.0110   20.7229 C   0  0  0  0  0  0
  -29.3104  -24.0377   20.2257 C   0  0  0  0  0  0
  -28.9607  -22.5206   20.5795 C   0  0  0  0  0  0
  -28.0951  -25.0406   20.1517 C   0  0  0  0  0  0
  -29.8332  -15.6645   20.8927 N   0  0  0  0  0  0
  -30.0588  -21.5115   20.4439 N   0  0  0  0  0  0
  -27.5025  -20.1384   21.8939 Cl  0  0  0  0  0  0
  -31.4841  -12.4964   19.1550 H   0  0  0  0  0  0
  -30.3731  -11.3875   19.9090 H   0  0  0  0  0  0
  -29.7700  -11.7283   17.4936 H   0  0  0  0  0  0
  -29.6560  -13.4515   17.7405 H   0  0  0  0  0  0
  -27.8716  -11.2833   18.8875 H   0  0  0  0  0  0
  -27.3744  -12.5575   17.8019 H   0  0  0  0  0  0
  -27.6775  -14.2476   19.5237 H   0  0  0  0  0  0
  -28.7075  -12.0417   21.3751 H   0  0  0  0  0  0
  -28.4513  -13.6937   21.8518 H   0  0  0  0  0  0
  -25.2753   -9.5663   22.4751 H   0  0  0  0  0  0
  -23.9978   -7.4628   22.7482 H   0  0  0  0  0  0
  -21.0809   -8.8815   19.8969 H   0  0  0  0  0  0
  -22.3703  -10.9683   19.6188 H   0  0  0  0  0  0
  -21.2040   -7.6150   23.9726 H   0  0  0  0  0  0
  -21.1464   -6.0512   25.9079 H   0  0  0  0  0  0
  -22.0598   -2.7604   23.2855 H   0  0  0  0  0  0
  -22.4083  -11.9923   22.4845 H   0  0  0  0  0  0
  -21.1116  -13.1337   22.2638 H   0  0  0  0  0  0
  -24.6596  -15.8450   20.5299 H   0  0  0  0  0  0
  -26.2680  -15.6286   20.0644 H   0  0  0  0  0  0
  -26.7169  -32.5434   23.1133 H   0  0  0  0  0  0
  -25.0031  -33.9747   25.0404 H   0  0  0  0  0  0
  -22.7110  -31.3112   21.4100 H   0  0  0  0  0  0
  -23.3734  -35.9647   23.3319 H   0  0  0  0  0  0
  -24.3584  -36.8923   22.2060 H   0  0  0  0  0  0
  -23.7255  -37.6509   23.6674 H   0  0  0  0  0  0
  -26.1015  -31.5683   20.6218 H   0  0  0  0  0  0
  -26.8376  -30.8336   22.0161 H   0  0  0  0  0  0
  -28.1197  -29.0010   21.1612 H   0  0  0  0  0  0
  -25.9327  -25.9541   18.9925 H   0  0  0  0  0  0
  -23.9537  -27.3195   19.0307 H   0  0  0  0  0  0
  -23.7491  -30.6082   19.4107 H   0  0  0  0  0  0
  -22.7490  -29.2614   19.8617 H   0  0  0  0  0  0
  -25.1290  -36.1935   25.0818 H   0  0  0  0  0  0
  -20.9984  -28.3276   24.1413 H   0  0  0  0  0  0
  -20.5690  -26.2302   23.3617 H   0  0  0  0  0  0
  -21.6637  -26.7458   22.1199 H   0  0  0  0  0  0
  -19.6896  -25.6300   21.1260 H   0  0  0  0  0  0
  -19.6674  -27.3195   20.6749 H   0  0  0  0  0  0
  -17.4190  -26.6711   21.4047 H   0  0  0  0  0  0
  -18.0310  -26.0084   22.9023 H   0  0  0  0  0  0
  -19.7937  -30.7297   24.2265 H   0  0  0  0  0  0
  -17.5013  -31.6272   24.5180 H   0  0  0  0  0  0
  -15.5357  -30.2994   23.7669 H   0  0  0  0  0  0
  -15.8677  -28.0845   22.7057 H   0  0  0  0  0  0
  -24.5819  -30.7196   25.7848 H   0  0  0  0  0  0
  -24.8944  -32.2978   26.4963 H   0  0  0  0  0  0
  -25.8011  -30.8940   27.0270 H   0  0  0  0  0  0
  -26.2940  -29.6788   24.1243 H   0  0  0  0  0  0
  -27.3949  -29.7315   25.4823 H   0  0  0  0  0  0
  -27.8840  -30.4316   23.9574 H   0  0  0  0  0  0
  -27.2616  -33.3670   26.2095 H   0  0  0  0  0  0
  -28.3800  -32.6985   25.0307 H   0  0  0  0  0  0
  -28.0735  -31.8520   26.5403 H   0  0  0  0  0  0
  -28.2590  -38.0097   24.7491 H   0  0  0  0  0  0
  -28.1065  -36.2628   24.6286 H   0  0  0  0  0  0
  -27.2300  -37.1467   25.8863 H   0  0  0  0  0  0
  -20.9355  -29.8768   21.6899 H   0  0  0  0  0  0
  -26.0160  -38.2857   24.1403 H   0  0  0  0  0  0
  -31.7801  -17.2859   19.6158 H   0  0  0  0  0  0
  -31.7646  -19.6977   19.4360 H   0  0  0  0  0  0
  -28.0424  -17.4446   21.7488 H   0  0  0  0  0  0
  -32.1278  -21.2397   20.9973 H   0  0  0  0  0  0
  -31.3928  -22.7138   21.5567 H   0  0  0  0  0  0
  -31.8007  -22.5363   19.8507 H   0  0  0  0  0  0
  -29.8279  -24.0732   19.2662 H   0  0  0  0  0  0
  -30.0125  -24.4258   20.9628 H   0  0  0  0  0  0
  -28.1230  -22.1980   19.9589 H   0  0  0  0  0  0
  -28.6089  -22.5068   21.6121 H   0  0  0  0  0  0
  -27.4352  -24.8344   20.9952 H   0  0  0  0  0  0
  -27.5578  -24.7420   19.2539 H   0  0  0  0  0  0
  -28.9587  -15.3410   21.2757 H   0  0  0  0  0  0
  1 25  1  0  0  0
  1 30  2  0  0  0
  1 81  1  0  0  0
  2  3  1  0  0  0
  2 25  1  0  0  0
  2 84  1  0  0  0
  2 85  1  0  0  0
  3  4  1  0  0  0
  3 86  1  0  0  0
  3 87  1  0  0  0
  4  5  1  0  0  0
  4 88  1  0  0  0
  4 89  1  0  0  0
  5  6  1  0  0  0
  5 26  1  0  0  0
  5 90  1  0  0  0
  6 25  1  0  0  0
  6 91  1  0  0  0
  6 92  1  0  0  0
  7  8  2  0  0  0
  7 26  1  0  0  0
  7 29  1  0  0  0
  8  9  1  0  0  0
  8 22  1  0  0  0
  9 10  1  0  0  0
  9 27  2  0  0  0
 10 11  2  0  0  0
 10 15  1  0  0  0
 11 12  1  0  0  0
 11 93  1  0  0  0
 12 13  2  0  0  0
 12 94  1  0  0  0
 13 14  1  0  0  0
 13 31  1  0  0  0
 14 15  2  0  0  0
 14 95  1  0  0  0
 15 96  1  0  0  0
 16 17  2  0  0  0
 16 21  1  0  0  0
 16 31  1  0  0  0
 17 18  1  0  0  0
 17 97  1  0  0  0
 18 19  2  0  0  0
 18 98  1  0  0  0
 19 20  1  0  0  0
 19 24  1  0  0  0
 20 21  2  0  0  0
 20 99  1  0  0  0
 21 23  1  0  0  0
 22 28  1  0  0  0
 22 32  2  0  0  0
 26 27  1  0  0  0
 28100  1  0  0  0
 28101  1  0  0  0
 29102  1  0  0  0
 29103  1  0  0  0
 33 34  1  0  0  0
 33 66  1  0  0  0
 33 70  2  0  0  0
 34 36  1  0  0  0
 34 59  1  0  0  0
 34104  1  0  0  0
 35 44  2  0  0  0
 35 45  1  0  0  0
 35 68  1  0  0  0
 36 56  1  0  0  0
 36105  1  0  0  0
 37 39  1  0  0  0
 37 47  1  0  0  0
 37 66  1  0  0  0
 37106  1  0  0  0
 38 43  2  0  0  0
 38 46  1  0  0  0
 38 47  1  0  0  0
 39 64  1  0  0  0
 39 67  2  0  0  0
 40 52  1  0  0  0
 40 53  2  0  0  0
 40 58  1  0  0  0
 41107  1  0  0  0
 41108  1  0  0  0
 41109  1  0  0  0
 41 48  1  0  0  0
 42 43  1  0  0  0
 42 66  1  0  0  0
 42110  1  0  0  0
 42111  1  0  0  0
 43 44  1  0  0  0
 44112  1  0  0  0
 45 46  2  0  0  0
 45113  1  0  0  0
 46114  1  0  0  0
 47115  1  0  0  0
 47116  1  0  0  0
 48 56  1  0  0  0
 48 65  1  0  0  0
 48117  1  0  0  0
 49 50  1  0  0  0
 49 53  1  0  0  0
 49 64  1  0  0  0
 49118  1  0  0  0
 50 51  1  0  0  0
 50119  1  0  0  0
 50120  1  0  0  0
 51 52  1  0  0  0
 51121  1  0  0  0
 51122  1  0  0  0
 52123  1  0  0  0
 52124  1  0  0  0
 53 54  1  0  0  0
 54 55  2  0  0  0
 54125  1  0  0  0
 55 57  1  0  0  0
 55126  1  0  0  0
 56 69  2  0  0  0
 57 58  2  0  0  0
 57127  1  0  0  0
 58128  1  0  0  0
 59 60  1  0  0  0
 59 61  1  0  0  0
 59 62  1  0  0  0
 60129  1  0  0  0
 60130  1  0  0  0
 60131  1  0  0  0
 61132  1  0  0  0
 61133  1  0  0  0
 61134  1  0  0  0
 62135  1  0  0  0
 62136  1  0  0  0
 62137  1  0  0  0
 63 65  1  0  0  0
 63138  1  0  0  0
 63139  1  0  0  0
 63140  1  0  0  0
 64141  1  0  0  0
 65142  1  0  0  0
 68 80  1  0  0  0
 71 72  2  0  0  0
 71 74  1  0  0  0
 71143  1  0  0  0
 72 75  1  0  0  0
 72144  1  0  0  0
 73 74  2  0  0  0
 73 76  1  0  0  0
 73145  1  0  0  0
 74 81  1  0  0  0
 75 76  2  0  0  0
 75 82  1  0  0  0
 76 83  1  0  0  0
 77 82  1  0  0  0
 77146  1  0  0  0
 77147  1  0  0  0
 77148  1  0  0  0
 78 79  1  0  0  0
 78 80  1  0  0  0
 78149  1  0  0  0
 78150  1  0  0  0
 79 82  1  0  0  0
 79151  1  0  0  0
 79152  1  0  0  0
 80153  1  0  0  0
 80154  1  0  0  0
 81155  1  0  0  0
M  ISO  4   1 100  68 101  80 101  81 100
M  END
> <chiral flag>
0

> <version>
0

> <s_m_source_file>
/data/baiqing/PycharmProjects/Reinvent-master-3.2/result/LINK_invent/BTK/process_docking_weight1_custom_product_contain_oxygen_bond_distance_aromatic_linkinvent_7_9_3/rearranged_h_0019.sdf

> <i_m_source_file_index>
15

> <r_mmod_Potential_Energy-OPLS-2005>
96.2130355834961

> <r_mmod_Stretch_Energy-OPLS-2005>
77.1825332641602

> <r_mmod_Bend_Energy-OPLS-2005>
151.108978271484

> <r_mmod_Torsional_Energy-OPLS-2005>
215.141036987305

> <r_mmod_Improper_Torsional_Energy-OPLS-2005>
4.90351581573486

> <r_mmod_Van_der_Waal_Energy-OPLS-2005>
160.893203735352

> <r_mmod_Electrostatic_Energy-OPLS-2005>
-334.150909423828

> <r_mmod_Solvation_Energy-OPLS-2005>
-222.021881103516

> <b_mmod_Minimization_Converged-OPLS-2005>
0

> <r_mmod_RMS_Derivative-OPLS-2005>
2.50880789756775

$$$$
15
                    3D
 Structure written by MMmdl.
147155  0  0  1  0            999 V2000
  -30.4095  -15.3369   20.3712 C   0  0  0  0  0  0
  -30.4398  -12.8674   19.5110 C   0  0  0  0  0  0
  -29.5357  -12.5852   18.2838 C   0  0  0  0  0  0
  -28.0896  -12.2929   18.7215 C   0  0  0  0  0  0
  -27.6065  -13.2779   19.8140 C   0  0  2  0  0  0
  -28.6419  -13.4866   20.9385 C   0  0  0  0  0  0
  -25.2376  -13.8242   20.5753 C   0  0  0  0  0  0
  -24.1735  -13.0429   20.9270 C   0  0  0  0  0  0
  -24.6397  -11.6929   20.8766 C   0  0  0  0  0  0
  -23.9093  -10.4289   21.0406 C   0  0  0  0  0  0
  -24.3635   -9.4203   21.9186 C   0  0  0  0  0  0
  -23.6302   -8.2242   22.0756 C   0  0  0  0  0  0
  -22.4285   -8.0281   21.3543 C   0  0  0  0  0  0
  -21.9926   -9.0256   20.4645 C   0  0  0  0  0  0
  -22.7262  -10.2132   20.3055 C   0  0  0  0  0  0
  -21.6855   -6.0738   22.5278 C   0  0  0  0  0  0
  -21.4015   -6.5641   23.8211 C   0  0  0  0  0  0
  -21.3660   -5.6794   24.9173 C   0  0  0  0  0  0
  -21.6044   -4.3056   24.7224 C   0  0  0  0  0  0
  -21.8819   -3.8147   23.4344 C   0  0  0  0  0  0
  -21.9193   -4.6965   22.3401 C   0  0  0  0  0  0
  -22.7751  -13.5180   21.1913 C   0  0  0  0  0  0
  -22.1661   -4.2150   21.0978 F   0  0  0  0  0  0
  -21.5630   -3.4539   25.7737 F   0  0  0  0  0  0
  -29.8542  -14.0211   20.2929 N   0  0  0  0  0  0
  -26.2802  -12.9522   20.3203 N   0  0  0  0  0  0
  -25.9333  -11.6626   20.5711 N   0  0  0  0  0  0
  -22.0411  -12.8160   22.0466 N   0  0  0  0  0  0
  -25.3993  -15.1979   20.4187 N   0  0  0  0  0  0
  -31.6439  -15.3233   20.2482 O   0  0  0  0  0  0
  -21.6644   -6.8881   21.4240 O   0  0  0  0  0  0
  -22.3431  -14.5482   20.6753 O   0  0  0  0  0  0
  -24.6673  -31.8194   23.1662 C   0  0  0  0  0  0
  -25.9335  -32.4567   23.8145 C   0  0  1  0  0  0
  -27.2197  -26.8809   20.2008 C   0  0  0  0  0  0
  -25.5987  -33.8382   24.2053 N   0  0  0  0  0  0
  -23.4842  -30.4286   21.5175 C   0  0  2  0  0  0
  -24.9375  -28.8016   20.1219 C   0  0  0  0  0  0
  -22.7685  -29.4425   22.4779 C   0  0  0  0  0  0
  -18.0326  -28.1415   22.8469 C   0  0  0  0  0  0
  -24.1493  -36.7195   23.2649 C   0  0  0  0  0  0
  -26.0563  -30.6118   21.4020 C   0  0  0  0  0  0
  -26.1247  -29.1941   20.7534 C   0  0  0  0  0  0
  -27.2627  -28.2591   20.7597 C   0  0  0  0  0  0
  -25.9997  -26.6489   19.5266 C   0  0  0  0  0  0
  -24.9022  -27.5497   19.4874 C   0  0  0  0  0  0
  -23.7273  -29.7372   20.1477 C   0  0  0  0  0  0
  -25.4136  -36.2954   24.0298 C   0  0  1  0  0  0
  -20.5953  -28.3763   23.1183 C   0  0  2  0  0  0
  -20.6803  -26.9442   22.5403 C   0  0  0  0  0  0
  -19.5776  -26.6382   21.5216 C   0  0  0  0  0  0
  -18.1958  -26.7949   22.1623 C   0  0  0  0  0  0
  -19.1589  -28.8910   23.2811 C   0  0  0  0  0  0
  -18.9498  -30.1498   23.8848 C   0  0  0  0  0  0
  -17.6491  -30.6603   24.0555 C   0  0  0  0  0  0
  -25.9105  -34.9340   23.5000 C   0  0  0  0  0  0
  -16.5381  -29.9089   23.6346 C   0  0  0  0  0  0
  -16.7308  -28.6509   23.0367 C   0  0  0  0  0  0
  -26.4572  -31.6526   25.0689 C   0  0  0  0  0  0
  -25.3688  -31.3786   26.1335 C   0  0  0  0  0  0
  -27.0477  -30.2890   24.6446 C   0  0  0  0  0  0
  -27.6055  -32.4343   25.7496 C   0  0  0  0  0  0
  -27.5565  -37.1757   24.8469 C   0  0  0  0  0  0
  -21.4351  -29.3045   22.3526 N   0  0  0  0  0  0
  -26.4278  -37.3694   23.9406 N   0  0  0  0  0  0
  -24.7579  -30.9814   22.0821 N   0  0  0  0  0  0
  -23.4211  -28.8005   23.3046 O   0  0  0  0  0  0
  -28.2259  -25.7625   20.1891 O   0  0  0  0  0  0
  -26.5717  -34.8884   22.4597 O   0  0  0  0  0  0
  -23.5733  -32.1184   23.6729 O   0  0  0  0  0  0
  -29.2442  -19.9411   18.6814 C   0  0  0  0  0  0
  -28.9738  -21.1638   18.0012 C   0  0  0  0  0  0
  -28.9257  -21.2189   20.6988 C   0  0  0  0  0  0
  -29.2654  -19.8250   20.0871 C   0  0  0  0  0  0
  -28.6105  -22.5878   20.0196 C   0  0  0  0  0  0
  -28.6754  -22.4143   18.6179 C   0  0  0  0  0  0
  -29.8042  -18.2677   20.7409 C   0  0  0  0  0  0
  -28.0069  -24.1546   20.5916 C   0  0  0  0  0  0
  -29.6322  -16.6195   20.3903 N   0  0  0  0  0  0
  -28.4084  -23.4733   17.8167 F   0  0  0  0  0  0
  -31.4491  -13.0967   19.1666 H   0  0  0  0  0  0
  -30.5380  -11.9786   20.1364 H   0  0  0  0  0  0
  -29.9301  -11.7502   17.7029 H   0  0  0  0  0  0
  -29.5462  -13.4524   17.6217 H   0  0  0  0  0  0
  -28.0636  -11.2752   19.1125 H   0  0  0  0  0  0
  -27.4175  -12.3092   17.8628 H   0  0  0  0  0  0
  -27.5084  -14.2343   19.2988 H   0  0  0  0  0  0
  -28.8358  -12.5629   21.4859 H   0  0  0  0  0  0
  -28.2690  -14.2082   21.6672 H   0  0  0  0  0  0
  -25.2775   -9.5681   22.4768 H   0  0  0  0  0  0
  -24.0007   -7.4635   22.7478 H   0  0  0  0  0  0
  -21.0858   -8.8778   19.8950 H   0  0  0  0  0  0
  -22.3718  -10.9672   19.6167 H   0  0  0  0  0  0
  -21.2009   -7.6149   23.9714 H   0  0  0  0  0  0
  -21.1483   -6.0524   25.9076 H   0  0  0  0  0  0
  -22.0597   -2.7610   23.2844 H   0  0  0  0  0  0
  -22.4041  -11.9826   22.4852 H   0  0  0  0  0  0
  -21.1022  -13.1163   22.2671 H   0  0  0  0  0  0
  -24.6269  -15.8453   20.5329 H   0  0  0  0  0  0
  -26.2365  -15.6416   20.0658 H   0  0  0  0  0  0
  -26.7404  -32.5094   23.0858 H   0  0  0  0  0  0
  -25.0083  -33.9455   25.0169 H   0  0  0  0  0  0
  -22.8002  -31.2613   21.3410 H   0  0  0  0  0  0
  -23.3766  -35.9514   23.3287 H   0  0  0  0  0  0
  -24.3566  -36.8865   22.2067 H   0  0  0  0  0  0
  -23.7242  -37.6374   23.6721 H   0  0  0  0  0  0
  -26.2380  -31.3470   20.6169 H   0  0  0  0  0  0
  -26.9159  -30.6753   22.0572 H   0  0  0  0  0  0
  -28.1677  -28.5672   21.2639 H   0  0  0  0  0  0
  -25.8722  -25.6958   19.0332 H   0  0  0  0  0  0
  -24.0019  -27.2426   18.9731 H   0  0  0  0  0  0
  -23.8897  -30.5016   19.3870 H   0  0  0  0  0  0
  -22.8354  -29.1949   19.8285 H   0  0  0  0  0  0
  -25.1339  -36.1744   25.0790 H   0  0  0  0  0  0
  -21.0039  -28.3370   24.1306 H   0  0  0  0  0  0
  -20.5686  -26.2382   23.3647 H   0  0  0  0  0  0
  -21.6666  -26.7416   22.1208 H   0  0  0  0  0  0
  -19.6936  -25.6279   21.1280 H   0  0  0  0  0  0
  -19.6714  -27.3164   20.6725 H   0  0  0  0  0  0
  -17.4228  -26.6692   21.4026 H   0  0  0  0  0  0
  -18.0350  -26.0103   22.9032 H   0  0  0  0  0  0
  -19.7971  -30.7330   24.2195 H   0  0  0  0  0  0
  -17.5041  -31.6277   24.5167 H   0  0  0  0  0  0
  -15.5379  -30.2975   23.7700 H   0  0  0  0  0  0
  -15.8708  -28.0810   22.7114 H   0  0  0  0  0  0
  -24.5892  -30.7111   25.7643 H   0  0  0  0  0  0
  -24.8852  -32.2990   26.4616 H   0  0  0  0  0  0
  -25.7913  -30.9050   27.0205 H   0  0  0  0  0  0
  -26.3156  -29.6554   24.1429 H   0  0  0  0  0  0
  -27.3976  -29.7267   25.5113 H   0  0  0  0  0  0
  -27.9107  -30.4068   23.9890 H   0  0  0  0  0  0
  -27.2617  -33.3692   26.1936 H   0  0  0  0  0  0
  -28.3940  -32.6828   25.0380 H   0  0  0  0  0  0
  -28.0641  -31.8561   26.5527 H   0  0  0  0  0  0
  -28.2574  -38.0060   24.7505 H   0  0  0  0  0  0
  -28.1071  -36.2588   24.6315 H   0  0  0  0  0  0
  -27.2281  -37.1419   25.8872 H   0  0  0  0  0  0
  -20.9616  -29.8716   21.6630 H   0  0  0  0  0  0
  -26.0122  -38.2751   24.1409 H   0  0  0  0  0  0
  -29.4777  -19.0667   18.0893 H   0  0  0  0  0  0
  -28.9923  -21.1427   16.9211 H   0  0  0  0  0  0
  -28.8998  -21.2420   21.7789 H   0  0  0  0  0  0
  -29.4929  -18.3248   21.7844 H   0  0  0  0  0  0
  -30.8864  -18.3911   20.7951 H   0  0  0  0  0  0
  -28.2258  -24.1324   21.6590 H   0  0  0  0  0  0
  -26.9255  -24.0244   20.5508 H   0  0  0  0  0  0
  -28.6516  -16.3973   20.3079 H   0  0  0  0  0  0
  1 25  1  0  0  0
  1 30  2  0  0  0
  1 79  1  0  0  0
  2  3  1  0  0  0
  2 25  1  0  0  0
  2 81  1  0  0  0
  2 82  1  0  0  0
  3  4  1  0  0  0
  3 83  1  0  0  0
  3 84  1  0  0  0
  4  5  1  0  0  0
  4 85  1  0  0  0
  4 86  1  0  0  0
  5  6  1  0  0  0
  5 26  1  0  0  0
  5 87  1  0  0  0
  6 25  1  0  0  0
  6 88  1  0  0  0
  6 89  1  0  0  0
  7  8  2  0  0  0
  7 26  1  0  0  0
  7 29  1  0  0  0
  8  9  1  0  0  0
  8 22  1  0  0  0
  9 10  1  0  0  0
  9 27  2  0  0  0
 10 11  2  0  0  0
 10 15  1  0  0  0
 11 12  1  0  0  0
 11 90  1  0  0  0
 12 13  2  0  0  0
 12 91  1  0  0  0
 13 14  1  0  0  0
 13 31  1  0  0  0
 14 15  2  0  0  0
 14 92  1  0  0  0
 15 93  1  0  0  0
 16 17  2  0  0  0
 16 21  1  0  0  0
 16 31  1  0  0  0
 17 18  1  0  0  0
 17 94  1  0  0  0
 18 19  2  0  0  0
 18 95  1  0  0  0
 19 20  1  0  0  0
 19 24  1  0  0  0
 20 21  2  0  0  0
 20 96  1  0  0  0
 21 23  1  0  0  0
 22 28  1  0  0  0
 22 32  2  0  0  0
 26 27  1  0  0  0
 28 97  1  0  0  0
 28 98  1  0  0  0
 29 99  1  0  0  0
 29100  1  0  0  0
 33 34  1  0  0  0
 33 66  1  0  0  0
 33 70  2  0  0  0
 34 36  1  0  0  0
 34 59  1  0  0  0
 34101  1  0  0  0
 35 44  2  0  0  0
 35 45  1  0  0  0
 35 68  1  0  0  0
 36 56  1  0  0  0
 36102  1  0  0  0
 37 39  1  0  0  0
 37 47  1  0  0  0
 37 66  1  0  0  0
 37103  1  0  0  0
 38 43  2  0  0  0
 38 46  1  0  0  0
 38 47  1  0  0  0
 39 64  1  0  0  0
 39 67  2  0  0  0
 40 52  1  0  0  0
 40 53  2  0  0  0
 40 58  1  0  0  0
 41104  1  0  0  0
 41105  1  0  0  0
 41106  1  0  0  0
 41 48  1  0  0  0
 42 43  1  0  0  0
 42 66  1  0  0  0
 42107  1  0  0  0
 42108  1  0  0  0
 43 44  1  0  0  0
 44109  1  0  0  0
 45 46  2  0  0  0
 45110  1  0  0  0
 46111  1  0  0  0
 47112  1  0  0  0
 47113  1  0  0  0
 48 56  1  0  0  0
 48 65  1  0  0  0
 48114  1  0  0  0
 49 50  1  0  0  0
 49 53  1  0  0  0
 49 64  1  0  0  0
 49115  1  0  0  0
 50 51  1  0  0  0
 50116  1  0  0  0
 50117  1  0  0  0
 51 52  1  0  0  0
 51118  1  0  0  0
 51119  1  0  0  0
 52120  1  0  0  0
 52121  1  0  0  0
 53 54  1  0  0  0
 54 55  2  0  0  0
 54122  1  0  0  0
 55 57  1  0  0  0
 55123  1  0  0  0
 56 69  2  0  0  0
 57 58  2  0  0  0
 57124  1  0  0  0
 58125  1  0  0  0
 59 60  1  0  0  0
 59 61  1  0  0  0
 59 62  1  0  0  0
 60126  1  0  0  0
 60127  1  0  0  0
 60128  1  0  0  0
 61129  1  0  0  0
 61130  1  0  0  0
 61131  1  0  0  0
 62132  1  0  0  0
 62133  1  0  0  0
 62134  1  0  0  0
 63 65  1  0  0  0
 63135  1  0  0  0
 63136  1  0  0  0
 63137  1  0  0  0
 64138  1  0  0  0
 65139  1  0  0  0
 68 78  1  0  0  0
 71 72  2  0  0  0
 71 74  1  0  0  0
 71140  1  0  0  0
 72 76  1  0  0  0
 72141  1  0  0  0
 73 74  2  0  0  0
 73 75  1  0  0  0
 73142  1  0  0  0
 74 77  1  0  0  0
 75 76  2  0  0  0
 75 78  1  0  0  0
 76 80  1  0  0  0
 77 79  1  0  0  0
 77143  1  0  0  0
 77144  1  0  0  0
 78145  1  0  0  0
 78146  1  0  0  0
 79147  1  0  0  0
M  ISO  4   1 100  68 101  78 101  79 100
M  END
> <chiral flag>
0

> <version>
0

> <s_m_source_file>
/data/baiqing/PycharmProjects/Reinvent-master-3.2/result/LINK_invent/BTK/process_docking_weight1_custom_product_contain_oxygen_bond_distance_aromatic_linkinvent_7_9_3/rearranged_h_0019.sdf

> <i_m_source_file_index>
16

> <r_mmod_Potential_Energy-OPLS-2005>
1407.59399414062

> <r_mmod_Stretch_Energy-OPLS-2005>
644.404846191406

> <r_mmod_Bend_Energy-OPLS-2005>
451.870208740234

> <r_mmod_Torsional_Energy-OPLS-2005>
237.958557128906

> <r_mmod_Improper_Torsional_Energy-OPLS-2005>
6.07363986968994

> <r_mmod_Van_der_Waal_Energy-OPLS-2005>
122.080795288086

> <r_mmod_Electrostatic_Energy-OPLS-2005>
-372.206146240234

> <r_mmod_Solvation_Energy-OPLS-2005>
-214.803741455078

> <b_mmod_Minimization_Converged-OPLS-2005>
0

> <r_mmod_RMS_Derivative-OPLS-2005>
0.4357730448246

$$$$
16
                    3D
 Structure written by MMmdl.
147155  0  0  1  0            999 V2000
  -30.4826  -15.1847   20.3801 C   0  0  0  0  0  0
  -30.4382  -12.7536   19.5172 C   0  0  0  0  0  0
  -29.5297  -12.5574   18.2790 C   0  0  0  0  0  0
  -28.0759  -12.2970   18.7091 C   0  0  0  0  0  0
  -27.6156  -13.2680   19.8255 C   0  0  2  0  0  0
  -28.6532  -13.4170   20.9588 C   0  0  0  0  0  0
  -25.2408  -13.8239   20.5741 C   0  0  0  0  0  0
  -24.1749  -13.0439   20.9249 C   0  0  0  0  0  0
  -24.6394  -11.6933   20.8765 C   0  0  0  0  0  0
  -23.9088  -10.4294   21.0411 C   0  0  0  0  0  0
  -24.3633   -9.4208   21.9188 C   0  0  0  0  0  0
  -23.6304   -8.2244   22.0753 C   0  0  0  0  0  0
  -22.4286   -8.0284   21.3543 C   0  0  0  0  0  0
  -21.9928   -9.0258   20.4644 C   0  0  0  0  0  0
  -22.7260  -10.2135   20.3057 C   0  0  0  0  0  0
  -21.6856   -6.0740   22.5276 C   0  0  0  0  0  0
  -21.4017   -6.5642   23.8211 C   0  0  0  0  0  0
  -21.3660   -5.6793   24.9173 C   0  0  0  0  0  0
  -21.6044   -4.3055   24.7222 C   0  0  0  0  0  0
  -21.8820   -3.8148   23.4342 C   0  0  0  0  0  0
  -21.9196   -4.6967   22.3400 C   0  0  0  0  0  0
  -22.7768  -13.5199   21.1896 C   0  0  0  0  0  0
  -22.1663   -4.2155   21.0977 F   0  0  0  0  0  0
  -21.5632   -3.4537   25.7734 F   0  0  0  0  0  0
  -29.8956  -13.8962   20.3331 N   0  0  0  0  0  0
  -26.2834  -12.9502   20.3234 N   0  0  0  0  0  0
  -25.9330  -11.6614   20.5732 N   0  0  0  0  0  0
  -22.0426  -12.8178   22.0450 N   0  0  0  0  0  0
  -25.4045  -15.1971   20.4167 N   0  0  0  0  0  0
  -31.7019  -15.1802   20.1664 O   0  0  0  0  0  0
  -21.6645   -6.8884   21.4239 O   0  0  0  0  0  0
  -22.3450  -14.5506   20.6740 O   0  0  0  0  0  0
  -24.6593  -31.8288   23.1761 C   0  0  0  0  0  0
  -25.9295  -32.4622   23.8202 C   0  0  1  0  0  0
  -27.2158  -26.9739   20.1721 C   0  0  0  0  0  0
  -25.5979  -33.8431   24.2109 N   0  0  0  0  0  0
  -23.4709  -30.4438   21.5248 C   0  0  2  0  0  0
  -24.9243  -28.8442   20.1116 C   0  0  0  0  0  0
  -22.7648  -29.4469   22.4803 C   0  0  0  0  0  0
  -18.0319  -28.1411   22.8479 C   0  0  0  0  0  0
  -24.1486  -36.7213   23.2644 C   0  0  0  0  0  0
  -26.0384  -30.6513   21.3993 C   0  0  0  0  0  0
  -26.1082  -29.2461   20.7427 C   0  0  0  0  0  0
  -27.2506  -28.3306   20.7526 C   0  0  0  0  0  0
  -26.0038  -26.7218   19.4883 C   0  0  0  0  0  0
  -24.8952  -27.6009   19.4649 C   0  0  0  0  0  0
  -23.7085  -29.7654   20.1492 C   0  0  0  0  0  0
  -25.4127  -36.2989   24.0303 C   0  0  1  0  0  0
  -20.5941  -28.3754   23.1200 C   0  0  2  0  0  0
  -20.6795  -26.9439   22.5404 C   0  0  0  0  0  0
  -19.5766  -26.6387   21.5218 C   0  0  0  0  0  0
  -18.1950  -26.7945   22.1630 C   0  0  0  0  0  0
  -19.1581  -28.8903   23.2826 C   0  0  0  0  0  0
  -18.9491  -30.1493   23.8862 C   0  0  0  0  0  0
  -17.6484  -30.6604   24.0562 C   0  0  0  0  0  0
  -25.9090  -34.9369   23.5026 C   0  0  0  0  0  0
  -16.5374  -29.9094   23.6347 C   0  0  0  0  0  0
  -16.7300  -28.6513   23.0369 C   0  0  0  0  0  0
  -26.4558  -31.6545   25.0706 C   0  0  0  0  0  0
  -25.3698  -31.3786   26.1373 C   0  0  0  0  0  0
  -27.0445  -30.2921   24.6395 C   0  0  0  0  0  0
  -27.6059  -32.4339   25.7509 C   0  0  0  0  0  0
  -27.5566  -37.1766   24.8469 C   0  0  0  0  0  0
  -21.4322  -29.3049   22.3550 N   0  0  0  0  0  0
  -26.4277  -37.3721   23.9414 N   0  0  0  0  0  0
  -24.7439  -30.9995   22.0879 N   0  0  0  0  0  0
  -23.4217  -28.8033   23.3023 O   0  0  0  0  0  0
  -28.2023  -25.8672   20.2597 O   0  0  0  0  0  0
  -26.5691  -34.8896   22.4611 O   0  0  0  0  0  0
  -23.5672  -32.1231   23.6884 O   0  0  0  0  0  0
  -30.3112  -20.8330   20.1721 C   0  0  0  0  0  0
  -29.8730  -22.2508   20.1182 C   0  0  0  0  0  0
  -28.1447  -20.1129   20.4499 C   0  0  0  0  0  0
  -29.5044  -19.6232   20.3334 C   0  0  0  0  0  0
  -28.5122  -22.7376   20.2338 C   0  0  0  0  0  0
  -27.6961  -21.5299   20.3975 C   0  0  0  0  0  0
  -30.2068  -18.0332   20.3627 C   0  0  0  0  0  0
  -27.8112  -24.3111   20.0016 C   0  0  0  0  0  0
  -29.7489  -16.4577   20.4582 N   0  0  0  0  0  0
  -26.3583  -21.7224   20.4849 F   0  0  0  0  0  0
  -31.4606  -12.9430   19.1865 H   0  0  0  0  0  0
  -30.4874  -11.8403   20.1123 H   0  0  0  0  0  0
  -29.8933  -11.7311   17.6662 H   0  0  0  0  0  0
  -29.5712  -13.4480   17.6501 H   0  0  0  0  0  0
  -28.0227  -11.2703   19.0733 H   0  0  0  0  0  0
  -27.4059  -12.3513   17.8504 H   0  0  0  0  0  0
  -27.5397  -14.2408   19.3385 H   0  0  0  0  0  0
  -28.8028  -12.4766   21.4912 H   0  0  0  0  0  0
  -28.3082  -14.1424   21.6975 H   0  0  0  0  0  0
  -25.2776   -9.5685   22.4767 H   0  0  0  0  0  0
  -24.0015   -7.4635   22.7471 H   0  0  0  0  0  0
  -21.0862   -8.8777   19.8945 H   0  0  0  0  0  0
  -22.3719  -10.9676   19.6167 H   0  0  0  0  0  0
  -21.2005   -7.6150   23.9716 H   0  0  0  0  0  0
  -21.1482   -6.0522   25.9076 H   0  0  0  0  0  0
  -22.0598   -2.7612   23.2837 H   0  0  0  0  0  0
  -22.4069  -11.9853   22.4839 H   0  0  0  0  0  0
  -21.1033  -13.1172   22.2653 H   0  0  0  0  0  0
  -24.6326  -15.8455   20.5274 H   0  0  0  0  0  0
  -26.2437  -15.6381   20.0639 H   0  0  0  0  0  0
  -26.7362  -32.5185   23.0917 H   0  0  0  0  0  0
  -25.0091  -33.9515   25.0237 H   0  0  0  0  0  0
  -22.7817  -31.2742   21.3591 H   0  0  0  0  0  0
  -23.3765  -35.9528   23.3289 H   0  0  0  0  0  0
  -24.3560  -36.8873   22.2062 H   0  0  0  0  0  0
  -23.7229  -37.6391   23.6705 H   0  0  0  0  0  0
  -26.2098  -31.3950   20.6200 H   0  0  0  0  0  0
  -26.9015  -30.7093   22.0506 H   0  0  0  0  0  0
  -28.1437  -28.6333   21.2801 H   0  0  0  0  0  0
  -25.8657  -25.7759   18.9873 H   0  0  0  0  0  0
  -23.9959  -27.2884   18.9520 H   0  0  0  0  0  0
  -23.8608  -30.5356   19.3926 H   0  0  0  0  0  0
  -22.8198  -29.2173   19.8324 H   0  0  0  0  0  0
  -25.1321  -36.1792   25.0796 H   0  0  0  0  0  0
  -21.0032  -28.3364   24.1322 H   0  0  0  0  0  0
  -20.5681  -26.2370   23.3640 H   0  0  0  0  0  0
  -21.6656  -26.7418   22.1205 H   0  0  0  0  0  0
  -19.6917  -25.6289   21.1271 H   0  0  0  0  0  0
  -19.6702  -27.3174   20.6729 H   0  0  0  0  0  0
  -17.4215  -26.6697   21.4036 H   0  0  0  0  0  0
  -18.0349  -26.0090   22.9028 H   0  0  0  0  0  0
  -19.7965  -30.7323   24.2215 H   0  0  0  0  0  0
  -17.5036  -31.6282   24.5169 H   0  0  0  0  0  0
  -15.5373  -30.2987   23.7690 H   0  0  0  0  0  0
  -15.8700  -28.0817   22.7112 H   0  0  0  0  0  0
  -24.5903  -30.7100   25.7702 H   0  0  0  0  0  0
  -24.8854  -32.2981   26.4672 H   0  0  0  0  0  0
  -25.7946  -30.9057   27.0236 H   0  0  0  0  0  0
  -26.3101  -29.6617   24.1367 H   0  0  0  0  0  0
  -27.3964  -29.7264   25.5031 H   0  0  0  0  0  0
  -27.9048  -30.4117   23.9807 H   0  0  0  0  0  0
  -27.2642  -33.3685   26.1966 H   0  0  0  0  0  0
  -28.3941  -32.6821   25.0388 H   0  0  0  0  0  0
  -28.0642  -31.8536   26.5527 H   0  0  0  0  0  0
  -28.2578  -38.0067   24.7513 H   0  0  0  0  0  0
  -28.1068  -36.2595   24.6304 H   0  0  0  0  0  0
  -27.2279  -37.1417   25.8871 H   0  0  0  0  0  0
  -20.9567  -29.8752   21.6694 H   0  0  0  0  0  0
  -26.0128  -38.2781   24.1431 H   0  0  0  0  0  0
  -31.3754  -20.6730   20.0632 H   0  0  0  0  0  0
  -30.6406  -22.9935   19.9510 H   0  0  0  0  0  0
  -27.3715  -19.3688   20.5746 H   0  0  0  0  0  0
  -30.9257  -18.1126   21.1792 H   0  0  0  0  0  0
  -30.8383  -18.0393   19.4733 H   0  0  0  0  0  0
  -26.8545  -24.2162   20.5150 H   0  0  0  0  0  0
  -27.5553  -24.2872   18.9425 H   0  0  0  0  0  0
  -28.7551  -16.3326   20.5813 H   0  0  0  0  0  0
  1 25  1  0  0  0
  1 30  2  0  0  0
  1 79  1  0  0  0
  2  3  1  0  0  0
  2 25  1  0  0  0
  2 81  1  0  0  0
  2 82  1  0  0  0
  3  4  1  0  0  0
  3 83  1  0  0  0
  3 84  1  0  0  0
  4  5  1  0  0  0
  4 85  1  0  0  0
  4 86  1  0  0  0
  5  6  1  0  0  0
  5 26  1  0  0  0
  5 87  1  0  0  0
  6 25  1  0  0  0
  6 88  1  0  0  0
  6 89  1  0  0  0
  7  8  2  0  0  0
  7 26  1  0  0  0
  7 29  1  0  0  0
  8  9  1  0  0  0
  8 22  1  0  0  0
  9 10  1  0  0  0
  9 27  2  0  0  0
 10 11  2  0  0  0
 10 15  1  0  0  0
 11 12  1  0  0  0
 11 90  1  0  0  0
 12 13  2  0  0  0
 12 91  1  0  0  0
 13 14  1  0  0  0
 13 31  1  0  0  0
 14 15  2  0  0  0
 14 92  1  0  0  0
 15 93  1  0  0  0
 16 17  2  0  0  0
 16 21  1  0  0  0
 16 31  1  0  0  0
 17 18  1  0  0  0
 17 94  1  0  0  0
 18 19  2  0  0  0
 18 95  1  0  0  0
 19 20  1  0  0  0
 19 24  1  0  0  0
 20 21  2  0  0  0
 20 96  1  0  0  0
 21 23  1  0  0  0
 22 28  1  0  0  0
 22 32  2  0  0  0
 26 27  1  0  0  0
 28 97  1  0  0  0
 28 98  1  0  0  0
 29 99  1  0  0  0
 29100  1  0  0  0
 33 34  1  0  0  0
 33 66  1  0  0  0
 33 70  2  0  0  0
 34 36  1  0  0  0
 34 59  1  0  0  0
 34101  1  0  0  0
 35 44  2  0  0  0
 35 45  1  0  0  0
 35 68  1  0  0  0
 36 56  1  0  0  0
 36102  1  0  0  0
 37 39  1  0  0  0
 37 47  1  0  0  0
 37 66  1  0  0  0
 37103  1  0  0  0
 38 43  2  0  0  0
 38 46  1  0  0  0
 38 47  1  0  0  0
 39 64  1  0  0  0
 39 67  2  0  0  0
 40 52  1  0  0  0
 40 53  2  0  0  0
 40 58  1  0  0  0
 41104  1  0  0  0
 41105  1  0  0  0
 41106  1  0  0  0
 41 48  1  0  0  0
 42 43  1  0  0  0
 42 66  1  0  0  0
 42107  1  0  0  0
 42108  1  0  0  0
 43 44  1  0  0  0
 44109  1  0  0  0
 45 46  2  0  0  0
 45110  1  0  0  0
 46111  1  0  0  0
 47112  1  0  0  0
 47113  1  0  0  0
 48 56  1  0  0  0
 48 65  1  0  0  0
 48114  1  0  0  0
 49 50  1  0  0  0
 49 53  1  0  0  0
 49 64  1  0  0  0
 49115  1  0  0  0
 50 51  1  0  0  0
 50116  1  0  0  0
 50117  1  0  0  0
 51 52  1  0  0  0
 51118  1  0  0  0
 51119  1  0  0  0
 52120  1  0  0  0
 52121  1  0  0  0
 53 54  1  0  0  0
 54 55  2  0  0  0
 54122  1  0  0  0
 55 57  1  0  0  0
 55123  1  0  0  0
 56 69  2  0  0  0
 57 58  2  0  0  0
 57124  1  0  0  0
 58125  1  0  0  0
 59 60  1  0  0  0
 59 61  1  0  0  0
 59 62  1  0  0  0
 60126  1  0  0  0
 60127  1  0  0  0
 60128  1  0  0  0
 61129  1  0  0  0
 61130  1  0  0  0
 61131  1  0  0  0
 62132  1  0  0  0
 62133  1  0  0  0
 62134  1  0  0  0
 63 65  1  0  0  0
 63135  1  0  0  0
 63136  1  0  0  0
 63137  1  0  0  0
 64138  1  0  0  0
 65139  1  0  0  0
 68 78  1  0  0  0
 71 72  2  0  0  0
 71 74  1  0  0  0
 71140  1  0  0  0
 72 75  1  0  0  0
 72141  1  0  0  0
 73 74  2  0  0  0
 73 76  1  0  0  0
 73142  1  0  0  0
 74 77  1  0  0  0
 75 76  2  0  0  0
 75 78  1  0  0  0
 76 80  1  0  0  0
 77 79  1  0  0  0
 77143  1  0  0  0
 77144  1  0  0  0
 78145  1  0  0  0
 78146  1  0  0  0
 79147  1  0  0  0
M  ISO  4   1 100  68 101  78 101  79 100
M  END
> <chiral flag>
0

> <version>
0

> <s_m_source_file>
/data/baiqing/PycharmProjects/Reinvent-master-3.2/result/LINK_invent/BTK/process_docking_weight1_custom_product_contain_oxygen_bond_distance_aromatic_linkinvent_7_9_3/rearranged_h_0019.sdf

> <i_m_source_file_index>
17

> <r_mmod_Potential_Energy-OPLS-2005>
1020.87054443359

> <r_mmod_Stretch_Energy-OPLS-2005>
446.756439208984

> <r_mmod_Bend_Energy-OPLS-2005>
431.267242431641

> <r_mmod_Torsional_Energy-OPLS-2005>
208.694320678711

> <r_mmod_Improper_Torsional_Energy-OPLS-2005>
5.31454849243164

> <r_mmod_Van_der_Waal_Energy-OPLS-2005>
132.753433227539

> <r_mmod_Electrostatic_Energy-OPLS-2005>
-381.897827148438

> <r_mmod_Solvation_Energy-OPLS-2005>
-209.788604736328

> <b_mmod_Minimization_Converged-OPLS-2005>
0

> <r_mmod_RMS_Derivative-OPLS-2005>
0.852894365787506

$$$$
17
                    3D
 Structure written by MMmdl.
151159  0  0  1  0            999 V2000
  -30.3107  -15.5953   20.3865 C   0  0  0  0  0  0
  -30.4320  -13.0489   19.5622 C   0  0  0  0  0  0
  -29.5567  -12.6599   18.3335 C   0  0  0  0  0  0
  -28.1222  -12.3097   18.7573 C   0  0  0  0  0  0
  -27.6039  -13.3001   19.8223 C   0  0  2  0  0  0
  -28.6192  -13.5681   20.9549 C   0  0  0  0  0  0
  -25.2321  -13.8262   20.5703 C   0  0  0  0  0  0
  -24.1713  -13.0428   20.9242 C   0  0  0  0  0  0
  -24.6414  -11.6938   20.8752 C   0  0  0  0  0  0
  -23.9111  -10.4291   21.0397 C   0  0  0  0  0  0
  -24.3649   -9.4203   21.9179 C   0  0  0  0  0  0
  -23.6309   -8.2246   22.0754 C   0  0  0  0  0  0
  -22.4286   -8.0289   21.3549 C   0  0  0  0  0  0
  -21.9935   -9.0261   20.4645 C   0  0  0  0  0  0
  -22.7279  -10.2130   20.3047 C   0  0  0  0  0  0
  -21.6857   -6.0741   22.5279 C   0  0  0  0  0  0
  -21.4021   -6.5641   23.8214 C   0  0  0  0  0  0
  -21.3656   -5.6793   24.9173 C   0  0  0  0  0  0
  -21.6039   -4.3056   24.7221 C   0  0  0  0  0  0
  -21.8818   -3.8151   23.4342 C   0  0  0  0  0  0
  -21.9196   -4.6970   22.3399 C   0  0  0  0  0  0
  -22.7731  -13.5167   21.1901 C   0  0  0  0  0  0
  -22.1659   -4.2156   21.0978 F   0  0  0  0  0  0
  -21.5624   -3.4537   25.7731 F   0  0  0  0  0  0
  -29.8093  -14.2147   20.3451 N   0  0  0  0  0  0
  -26.2789  -12.9585   20.3219 N   0  0  0  0  0  0
  -25.9363  -11.6666   20.5706 N   0  0  0  0  0  0
  -22.0416  -12.8145   22.0471 N   0  0  0  0  0  0
  -25.3886  -15.1984   20.4054 N   0  0  0  0  0  0
  -31.5066  -15.5687   20.0340 O   0  0  0  0  0  0
  -21.6644   -6.8889   21.4244 O   0  0  0  0  0  0
  -22.3387  -14.5461   20.6744 O   0  0  0  0  0  0
  -24.6832  -31.8010   23.1521 C   0  0  0  0  0  0
  -25.9419  -32.4475   23.8063 C   0  0  1  0  0  0
  -27.2302  -26.7166   20.2114 C   0  0  0  0  0  0
  -25.6004  -33.8296   24.1958 N   0  0  0  0  0  0
  -23.5087  -30.4036   21.5049 C   0  0  2  0  0  0
  -24.9676  -28.7475   20.1157 C   0  0  0  0  0  0
  -22.7766  -29.4323   22.4704 C   0  0  0  0  0  0
  -18.0340  -28.1427   22.8462 C   0  0  0  0  0  0
  -24.1488  -36.7147   23.2651 C   0  0  0  0  0  0
  -26.0887  -30.5389   21.4142 C   0  0  0  0  0  0
  -26.1557  -29.1051   20.7642 C   0  0  0  0  0  0
  -27.2716  -28.1164   20.7816 C   0  0  0  0  0  0
  -26.0103  -26.5675   19.5032 C   0  0  0  0  0  0
  -24.9332  -27.5038   19.4620 C   0  0  0  0  0  0
  -23.7626  -29.7012   20.1398 C   0  0  0  0  0  0
  -25.4138  -36.2895   24.0286 C   0  0  1  0  0  0
  -20.5979  -28.3785   23.1143 C   0  0  2  0  0  0
  -20.6806  -26.9446   22.5402 C   0  0  0  0  0  0
  -19.5777  -26.6379   21.5218 C   0  0  0  0  0  0
  -18.1964  -26.7955   22.1627 C   0  0  0  0  0  0
  -19.1609  -28.8929   23.2783 C   0  0  0  0  0  0
  -18.9514  -30.1514   23.8827 C   0  0  0  0  0  0
  -17.6502  -30.6612   24.0551 C   0  0  0  0  0  0
  -25.9121  -34.9289   23.4957 C   0  0  0  0  0  0
  -16.5391  -29.9093   23.6354 C   0  0  0  0  0  0
  -16.7319  -28.6516   23.0372 C   0  0  0  0  0  0
  -26.4602  -31.6503   25.0676 C   0  0  0  0  0  0
  -25.3673  -31.3831   26.1300 C   0  0  0  0  0  0
  -27.0525  -30.2840   24.6567 C   0  0  0  0  0  0
  -27.6054  -32.4357   25.7491 C   0  0  0  0  0  0
  -27.5558  -37.1729   24.8467 C   0  0  0  0  0  0
  -21.4411  -29.3031   22.3461 N   0  0  0  0  0  0
  -26.4257  -37.3664   23.9419 N   0  0  0  0  0  0
  -24.7834  -30.9471   22.0764 N   0  0  0  0  0  0
  -23.4213  -28.7925   23.3048 O   0  0  0  0  0  0
  -28.1844  -25.4955   20.3033 O   0  0  0  0  0  0
  -26.5748  -34.8864   22.4565 O   0  0  0  0  0  0
  -23.5855  -32.1070   23.6491 O   0  0  0  0  0  0
  -29.0996  -21.0680   19.2615 C   0  0  0  0  0  0
  -29.4354  -19.5679   19.3664 C   0  0  0  0  0  0
  -28.9596  -19.6689   21.5222 C   0  0  0  0  0  0
  -28.6484  -22.0819   20.2739 C   0  0  0  0  0  0
  -29.3963  -18.6307   20.5282 C   0  0  0  0  0  0
  -28.6249  -21.1561   21.4323 C   0  0  0  0  0  0
  -26.9724  -16.1034   23.3143 C   0  0  0  0  0  0
  -27.6731  -16.8093   22.4136 C   0  0  0  0  0  0
  -27.9071  -23.7857   20.0616 C   0  0  0  0  0  0
  -29.1738  -16.6782   22.2054 C   0  0  0  0  0  0
  -29.5909  -16.9223   20.8063 N   0  0  0  0  0  0
  -28.1906  -21.7093   22.5897 F   0  0  0  0  0  0
  -31.4302  -13.3038   19.2049 H   0  0  0  0  0  0
  -30.5873  -12.1838   20.2089 H   0  0  0  0  0  0
  -30.0048  -11.8231   17.7956 H   0  0  0  0  0  0
  -29.5317  -13.4960   17.6331 H   0  0  0  0  0  0
  -28.1308  -11.3011   19.1720 H   0  0  0  0  0  0
  -27.4589  -12.2843   17.8918 H   0  0  0  0  0  0
  -27.4871  -14.2417   19.2841 H   0  0  0  0  0  0
  -28.8668  -12.6529   21.4948 H   0  0  0  0  0  0
  -28.1640  -14.2237   21.6896 H   0  0  0  0  0  0
  -25.2788   -9.5672   22.4762 H   0  0  0  0  0  0
  -24.0011   -7.4634   22.7473 H   0  0  0  0  0  0
  -21.0866   -8.8783   19.8948 H   0  0  0  0  0  0
  -22.3738  -10.9668   19.6156 H   0  0  0  0  0  0
  -21.2018   -7.6150   23.9715 H   0  0  0  0  0  0
  -21.1478   -6.0525   25.9076 H   0  0  0  0  0  0
  -22.0601   -2.7615   23.2840 H   0  0  0  0  0  0
  -22.4071  -11.9819   22.4849 H   0  0  0  0  0  0
  -21.1026  -13.1139   22.2690 H   0  0  0  0  0  0
  -24.6300  -15.8542   20.5517 H   0  0  0  0  0  0
  -26.2613  -15.6475   20.1614 H   0  0  0  0  0  0
  -26.7501  -32.4958   23.0776 H   0  0  0  0  0  0
  -25.0092  -33.9336   25.0073 H   0  0  0  0  0  0
  -22.8338  -31.2409   21.3152 H   0  0  0  0  0  0
  -23.3771  -35.9452   23.3257 H   0  0  0  0  0  0
  -24.3561  -36.8861   22.2076 H   0  0  0  0  0  0
  -23.7218  -37.6303   23.6754 H   0  0  0  0  0  0
  -26.2904  -31.2647   20.6253 H   0  0  0  0  0  0
  -26.9403  -30.6069   22.0787 H   0  0  0  0  0  0
  -28.1636  -28.3942   21.3254 H   0  0  0  0  0  0
  -25.8454  -25.6253   19.0009 H   0  0  0  0  0  0
  -24.0365  -27.2215   18.9271 H   0  0  0  0  0  0
  -23.9366  -30.4607   19.3765 H   0  0  0  0  0  0
  -22.8677  -29.1665   19.8169 H   0  0  0  0  0  0
  -25.1346  -36.1652   25.0774 H   0  0  0  0  0  0
  -21.0067  -28.3407   24.1265 H   0  0  0  0  0  0
  -20.5672  -26.2412   23.3666 H   0  0  0  0  0  0
  -21.6667  -26.7390   22.1216 H   0  0  0  0  0  0
  -19.6930  -25.6272   21.1296 H   0  0  0  0  0  0
  -19.6716  -27.3147   20.6714 H   0  0  0  0  0  0
  -17.4234  -26.6700   21.4029 H   0  0  0  0  0  0
  -18.0346  -26.0116   22.9043 H   0  0  0  0  0  0
  -19.7989  -30.7351   24.2160 H   0  0  0  0  0  0
  -17.5056  -31.6284   24.5170 H   0  0  0  0  0  0
  -15.5390  -30.2972   23.7719 H   0  0  0  0  0  0
  -15.8721  -28.0807   22.7126 H   0  0  0  0  0  0
  -24.5846  -30.7198   25.7599 H   0  0  0  0  0  0
  -24.8879  -32.3064   26.4557 H   0  0  0  0  0  0
  -25.7849  -30.9087   27.0188 H   0  0  0  0  0  0
  -26.3237  -29.6461   24.1554 H   0  0  0  0  0  0
  -27.3950  -29.7282   25.5305 H   0  0  0  0  0  0
  -27.9224  -30.3964   24.0094 H   0  0  0  0  0  0
  -27.2602  -33.3735   26.1859 H   0  0  0  0  0  0
  -28.3976  -32.6798   25.0400 H   0  0  0  0  0  0
  -28.0596  -31.8621   26.5582 H   0  0  0  0  0  0
  -28.2543  -38.0055   24.7533 H   0  0  0  0  0  0
  -28.1087  -36.2581   24.6272 H   0  0  0  0  0  0
  -27.2284  -37.1347   25.8872 H   0  0  0  0  0  0
  -20.9715  -29.8683   21.6525 H   0  0  0  0  0  0
  -26.0082  -38.2707   24.1447 H   0  0  0  0  0  0
  -29.1561  -21.4569   18.2552 H   0  0  0  0  0  0
  -29.7052  -19.1037   18.4280 H   0  0  0  0  0  0
  -28.8076  -19.3090   22.5262 H   0  0  0  0  0  0
  -25.9052  -16.2420   23.4189 H   0  0  0  0  0  0
  -27.4450  -15.3779   23.9610 H   0  0  0  0  0  0
  -27.1474  -17.5286   21.8013 H   0  0  0  0  0  0
  -26.9517  -23.6559   20.5703 H   0  0  0  0  0  0
  -27.6370  -23.7635   19.0058 H   0  0  0  0  0  0
  -29.5038  -15.7299   22.6374 H   0  0  0  0  0  0
  -29.6819  -17.4009   22.8423 H   0  0  0  0  0  0
  1 25  1  0  0  0
  1 30  2  0  0  0
  1 81  1  0  0  0
  2  3  1  0  0  0
  2 25  1  0  0  0
  2 83  1  0  0  0
  2 84  1  0  0  0
  3  4  1  0  0  0
  3 85  1  0  0  0
  3 86  1  0  0  0
  4  5  1  0  0  0
  4 87  1  0  0  0
  4 88  1  0  0  0
  5  6  1  0  0  0
  5 26  1  0  0  0
  5 89  1  0  0  0
  6 25  1  0  0  0
  6 90  1  0  0  0
  6 91  1  0  0  0
  7  8  2  0  0  0
  7 26  1  0  0  0
  7 29  1  0  0  0
  8  9  1  0  0  0
  8 22  1  0  0  0
  9 10  1  0  0  0
  9 27  2  0  0  0
 10 11  2  0  0  0
 10 15  1  0  0  0
 11 12  1  0  0  0
 11 92  1  0  0  0
 12 13  2  0  0  0
 12 93  1  0  0  0
 13 14  1  0  0  0
 13 31  1  0  0  0
 14 15  2  0  0  0
 14 94  1  0  0  0
 15 95  1  0  0  0
 16 17  2  0  0  0
 16 21  1  0  0  0
 16 31  1  0  0  0
 17 18  1  0  0  0
 17 96  1  0  0  0
 18 19  2  0  0  0
 18 97  1  0  0  0
 19 20  1  0  0  0
 19 24  1  0  0  0
 20 21  2  0  0  0
 20 98  1  0  0  0
 21 23  1  0  0  0
 22 28  1  0  0  0
 22 32  2  0  0  0
 26 27  1  0  0  0
 28 99  1  0  0  0
 28100  1  0  0  0
 29101  1  0  0  0
 29102  1  0  0  0
 33 34  1  0  0  0
 33 66  1  0  0  0
 33 70  2  0  0  0
 34 36  1  0  0  0
 34 59  1  0  0  0
 34103  1  0  0  0
 35 44  2  0  0  0
 35 45  1  0  0  0
 35 68  1  0  0  0
 36 56  1  0  0  0
 36104  1  0  0  0
 37 39  1  0  0  0
 37 47  1  0  0  0
 37 66  1  0  0  0
 37105  1  0  0  0
 38 43  2  0  0  0
 38 46  1  0  0  0
 38 47  1  0  0  0
 39 64  1  0  0  0
 39 67  2  0  0  0
 40 52  1  0  0  0
 40 53  2  0  0  0
 40 58  1  0  0  0
 41106  1  0  0  0
 41107  1  0  0  0
 41108  1  0  0  0
 41 48  1  0  0  0
 42 43  1  0  0  0
 42 66  1  0  0  0
 42109  1  0  0  0
 42110  1  0  0  0
 43 44  1  0  0  0
 44111  1  0  0  0
 45 46  2  0  0  0
 45112  1  0  0  0
 46113  1  0  0  0
 47114  1  0  0  0
 47115  1  0  0  0
 48 56  1  0  0  0
 48 65  1  0  0  0
 48116  1  0  0  0
 49 50  1  0  0  0
 49 53  1  0  0  0
 49 64  1  0  0  0
 49117  1  0  0  0
 50 51  1  0  0  0
 50118  1  0  0  0
 50119  1  0  0  0
 51 52  1  0  0  0
 51120  1  0  0  0
 51121  1  0  0  0
 52122  1  0  0  0
 52123  1  0  0  0
 53 54  1  0  0  0
 54 55  2  0  0  0
 54124  1  0  0  0
 55 57  1  0  0  0
 55125  1  0  0  0
 56 69  2  0  0  0
 57 58  2  0  0  0
 57126  1  0  0  0
 58127  1  0  0  0
 59 60  1  0  0  0
 59 61  1  0  0  0
 59 62  1  0  0  0
 60128  1  0  0  0
 60129  1  0  0  0
 60130  1  0  0  0
 61131  1  0  0  0
 61132  1  0  0  0
 61133  1  0  0  0
 62134  1  0  0  0
 62135  1  0  0  0
 62136  1  0  0  0
 63 65  1  0  0  0
 63137  1  0  0  0
 63138  1  0  0  0
 63139  1  0  0  0
 64140  1  0  0  0
 65141  1  0  0  0
 68 79  1  0  0  0
 71 72  2  0  0  0
 71 74  1  0  0  0
 71142  1  0  0  0
 72 75  1  0  0  0
 72143  1  0  0  0
 73 75  2  0  0  0
 73 76  1  0  0  0
 73144  1  0  0  0
 74 76  2  0  0  0
 74 79  1  0  0  0
 75 81  1  0  0  0
 76 82  1  0  0  0
 77 78  2  0  0  0
 77145  1  0  0  0
 77146  1  0  0  0
 78 80  1  0  0  0
 78147  1  0  0  0
 79148  1  0  0  0
 79149  1  0  0  0
 80 81  1  0  0  0
 80150  1  0  0  0
 80151  1  0  0  0
M  ISO  4   1 100  68 101  79 101  81 100
M  END
> <chiral flag>
0

> <version>
0

> <s_m_source_file>
/data/baiqing/PycharmProjects/Reinvent-master-3.2/result/LINK_invent/BTK/process_docking_weight1_custom_product_contain_oxygen_bond_distance_aromatic_linkinvent_7_9_3/rearranged_h_0019.sdf

> <i_m_source_file_index>
18

> <r_mmod_Potential_Energy-OPLS-2005>
2484.12719726562

> <r_mmod_Stretch_Energy-OPLS-2005>
953.579528808594

> <r_mmod_Bend_Energy-OPLS-2005>
693.432800292969

> <r_mmod_Torsional_Energy-OPLS-2005>
291.265747070312

> <r_mmod_Improper_Torsional_Energy-OPLS-2005>
7.18984127044678

> <r_mmod_Van_der_Waal_Energy-OPLS-2005>
142.369598388672

> <r_mmod_Electrostatic_Energy-OPLS-2005>
-262.744934082031

> <r_mmod_Solvation_Energy-OPLS-2005>
-190.564636230469

> <b_mmod_Minimization_Converged-OPLS-2005>
0

> <r_mmod_RMS_Derivative-OPLS-2005>
0.85337769985199

$$$$
18
                    3D
 Structure written by MMmdl.
162170  0  0  1  0            999 V2000
  -30.7322  -14.3908   20.6356 C   0  0  0  0  0  0
  -30.4267  -12.2910   19.3773 C   0  0  0  0  0  0
  -29.4830  -12.4966   18.1772 C   0  0  0  0  0  0
  -28.0029  -12.3767   18.5958 C   0  0  0  0  0  0
  -27.6650  -13.1990   19.8689 C   0  0  2  0  0  0
  -28.7062  -12.9256   20.9717 C   0  0  0  0  0  0
  -25.2621  -13.8149   20.5637 C   0  0  0  0  0  0
  -24.1865  -13.0436   20.9148 C   0  0  0  0  0  0
  -24.6410  -11.6914   20.8744 C   0  0  0  0  0  0
  -23.9070  -10.4305   21.0412 C   0  0  0  0  0  0
  -24.3624   -9.4218   21.9193 C   0  0  0  0  0  0
  -23.6315   -8.2240   22.0739 C   0  0  0  0  0  0
  -22.4302   -8.0284   21.3506 C   0  0  0  0  0  0
  -21.9924   -9.0270   20.4623 C   0  0  0  0  0  0
  -22.7237  -10.2170   20.3055 C   0  0  0  0  0  0
  -21.6876   -6.0746   22.5276 C   0  0  0  0  0  0
  -21.4018   -6.5635   23.8210 C   0  0  0  0  0  0
  -21.3654   -5.6769   24.9159 C   0  0  0  0  0  0
  -21.6054   -4.3038   24.7200 C   0  0  0  0  0  0
  -21.8830   -3.8140   23.4314 C   0  0  0  0  0  0
  -21.9205   -4.6972   22.3389 C   0  0  0  0  0  0
  -22.7875  -13.5268   21.1775 C   0  0  0  0  0  0
  -22.1658   -4.2162   21.0970 F   0  0  0  0  0  0
  -21.5643   -3.4521   25.7703 F   0  0  0  0  0  0
  -30.0336  -13.2474   20.4196 N   0  0  0  0  0  0
  -26.3056  -12.9309   20.3333 N   0  0  0  0  0  0
  -25.9320  -11.6476   20.5733 N   0  0  0  0  0  0
  -22.0479  -12.8336   22.0354 N   0  0  0  0  0  0
  -25.4412  -15.1872   20.4074 N   0  0  0  0  0  0
  -31.8458  -14.6044   20.1526 O   0  0  0  0  0  0
  -21.6634   -6.8900   21.4230 O   0  0  0  0  0  0
  -22.3604  -14.5561   20.6578 O   0  0  0  0  0  0
  -24.6129  -31.8677   23.2106 C   0  0  0  0  0  0
  -25.9007  -32.4839   23.8425 C   0  0  1  0  0  0
  -27.2580  -27.4307   20.0702 C   0  0  0  0  0  0
  -25.5864  -33.8650   24.2328 N   0  0  0  0  0  0
  -23.4084  -30.4858   21.5514 C   0  0  2  0  0  0
  -24.8568  -28.9486   20.1256 C   0  0  0  0  0  0
  -22.7426  -29.4647   22.5015 C   0  0  0  0  0  0
  -18.0251  -28.1371   22.8487 C   0  0  0  0  0  0
  -24.1472  -36.7298   23.2647 C   0  0  0  0  0  0
  -25.9398  -30.8214   21.3730 C   0  0  0  0  0  0
  -26.0177  -29.4545   20.7240 C   0  0  0  0  0  0
  -27.2169  -28.7012   20.6976 C   0  0  0  0  0  0
  -26.0630  -26.9356   19.4933 C   0  0  0  0  0  0
  -24.8746  -27.6877   19.5101 C   0  0  0  0  0  0
  -23.6170  -29.8070   20.1729 C   0  0  0  0  0  0
  -25.4116  -36.3126   24.0331 C   0  0  1  0  0  0
  -20.5850  -28.3659   23.1308 C   0  0  2  0  0  0
  -20.6759  -26.9395   22.5415 C   0  0  0  0  0  0
  -19.5743  -26.6365   21.5211 C   0  0  0  0  0  0
  -18.1911  -26.7929   22.1604 C   0  0  0  0  0  0
  -19.1509  -28.8821   23.2904 C   0  0  0  0  0  0
  -18.9429  -30.1411   23.8926 C   0  0  0  0  0  0
  -17.6441  -30.6599   24.0512 C   0  0  0  0  0  0
  -25.9027  -34.9485   23.5138 C   0  0  0  0  0  0
  -16.5329  -29.9078   23.6315 C   0  0  0  0  0  0
  -16.7236  -28.6475   23.0392 C   0  0  0  0  0  0
  -26.4448  -31.6661   25.0775 C   0  0  0  0  0  0
  -25.3696  -31.3786   26.1508 C   0  0  0  0  0  0
  -27.0295  -30.3098   24.6190 C   0  0  0  0  0  0
  -27.6027  -32.4408   25.7503 C   0  0  0  0  0  0
  -27.5583  -37.1806   24.8461 C   0  0  0  0  0  0
  -21.4148  -29.3048   22.3738 N   0  0  0  0  0  0
  -26.4299  -37.3818   23.9409 N   0  0  0  0  0  0
  -24.6713  -31.0753   22.1011 N   0  0  0  0  0  0
  -23.4185  -28.8168   23.3059 O   0  0  0  0  0  0
  -28.4512  -26.7230   20.0403 O   0  0  0  0  0  0
  -26.5596  -34.8923   22.4691 O   0  0  0  0  0  0
  -23.5297  -32.1415   23.7465 O   0  0  0  0  0  0
  -31.2349  -18.8016   22.4119 C   0  0  0  0  0  0
  -31.0375  -19.3416   19.6740 C   0  0  0  0  0  0
  -30.8957  -17.7487   21.5372 C   0  0  0  0  0  0
  -31.3512  -20.3977   20.5597 C   0  0  0  0  0  0
  -30.7640  -18.0409   20.1555 C   0  0  0  0  0  0
  -31.4388  -20.1119   21.9381 C   0  0  0  0  0  0
  -30.1902  -22.2758   18.1399 C   0  0  0  0  0  0
  -30.7622  -16.3553   22.1641 C   0  0  0  0  0  0
  -31.6843  -21.8092   20.0523 C   0  0  0  0  0  0
  -29.9860  -25.1230   18.8852 C   0  0  0  0  0  0
  -30.7124  -24.0917   19.8096 C   0  0  0  0  0  0
  -28.5341  -25.5306   19.2339 C   0  0  0  0  0  0
  -30.1096  -15.2909   21.4097 N   0  0  0  0  0  0
  -30.5278  -22.6180   19.5463 N   0  3  1  0  0  0
  -30.3787  -17.0985   19.2632 F   0  0  0  0  0  0
  -31.7435  -21.0876   22.8246 F   0  0  0  0  0  0
  -31.4645  -12.4122   19.0611 H   0  0  0  0  0  0
  -30.3515  -11.2709   19.7573 H   0  0  0  0  0  0
  -29.7055  -11.7684   17.3942 H   0  0  0  0  0  0
  -29.6624  -13.4787   17.7387 H   0  0  0  0  0  0
  -27.7877  -11.3221   18.7697 H   0  0  0  0  0  0
  -27.3594  -12.6792   17.7686 H   0  0  0  0  0  0
  -27.7277  -14.2556   19.6034 H   0  0  0  0  0  0
  -28.6817  -11.8677   21.2485 H   0  0  0  0  0  0
  -28.4732  -13.4740   21.8841 H   0  0  0  0  0  0
  -25.2776   -9.5734   22.4738 H   0  0  0  0  0  0
  -24.0030   -7.4674   22.7493 H   0  0  0  0  0  0
  -21.0823   -8.8804   19.8979 H   0  0  0  0  0  0
  -22.3677  -10.9701   19.6165 H   0  0  0  0  0  0
  -21.1985   -7.6135   23.9730 H   0  0  0  0  0  0
  -21.1463   -6.0476   25.9078 H   0  0  0  0  0  0
  -22.0617   -2.7602   23.2801 H   0  0  0  0  0  0
  -22.4018  -12.0033   22.4847 H   0  0  0  0  0  0
  -21.1101  -13.1433   22.2457 H   0  0  0  0  0  0
  -24.6858  -15.8542   20.5269 H   0  0  0  0  0  0
  -26.3005  -15.6151   20.0880 H   0  0  0  0  0  0
  -26.7093  -32.5564   23.1215 H   0  0  0  0  0  0
  -25.0068  -33.9848   25.0496 H   0  0  0  0  0  0
  -22.6989  -31.3013   21.4059 H   0  0  0  0  0  0
  -23.3770  -35.9600   23.3330 H   0  0  0  0  0  0
  -24.3563  -36.8879   22.2053 H   0  0  0  0  0  0
  -23.7150  -37.6476   23.6646 H   0  0  0  0  0  0
  -26.0657  -31.5811   20.6020 H   0  0  0  0  0  0
  -26.8249  -30.8747   21.9958 H   0  0  0  0  0  0
  -28.1168  -29.0940   21.1516 H   0  0  0  0  0  0
  -26.0170  -25.9682   19.0181 H   0  0  0  0  0  0
  -23.9860  -27.2942   19.0403 H   0  0  0  0  0  0
  -23.7166  -30.5676   19.3992 H   0  0  0  0  0  0
  -22.7457  -29.2102   19.8892 H   0  0  0  0  0  0
  -25.1298  -36.2050   25.0830 H   0  0  0  0  0  0
  -20.9940  -28.3229   24.1421 H   0  0  0  0  0  0
  -20.5651  -26.2273   23.3613 H   0  0  0  0  0  0
  -21.6632  -26.7453   22.1198 H   0  0  0  0  0  0
  -19.6919  -25.6277   21.1226 H   0  0  0  0  0  0
  -19.6684  -27.3169   20.6734 H   0  0  0  0  0  0
  -17.4195  -26.6651   21.3985 H   0  0  0  0  0  0
  -18.0298  -26.0061   22.8981 H   0  0  0  0  0  0
  -19.7915  -30.7184   24.2353 H   0  0  0  0  0  0
  -17.5011  -31.6290   24.5088 H   0  0  0  0  0  0
  -15.5336  -30.2985   23.7660 H   0  0  0  0  0  0
  -15.8628  -28.0765   22.7198 H   0  0  0  0  0  0
  -24.5854  -30.7165   25.7822 H   0  0  0  0  0  0
  -24.8904  -32.2943   26.4965 H   0  0  0  0  0  0
  -25.8008  -30.8927   27.0265 H   0  0  0  0  0  0
  -26.2858  -29.6879   24.1198 H   0  0  0  0  0  0
  -27.3985  -29.7344   25.4690 H   0  0  0  0  0  0
  -27.8722  -30.4413   23.9411 H   0  0  0  0  0  0
  -27.2665  -33.3724   26.2070 H   0  0  0  0  0  0
  -28.3812  -32.6964   25.0302 H   0  0  0  0  0  0
  -28.0733  -31.8568   26.5412 H   0  0  0  0  0  0
  -28.2631  -38.0080   24.7556 H   0  0  0  0  0  0
  -28.1059  -36.2625   24.6287 H   0  0  0  0  0  0
  -27.2307  -37.1440   25.8863 H   0  0  0  0  0  0
  -20.9330  -29.8738   21.6921 H   0  0  0  0  0  0
  -26.0209  -38.2908   24.1438 H   0  0  0  0  0  0
  -31.3447  -18.6128   23.4708 H   0  0  0  0  0  0
  -31.0237  -19.5017   18.6077 H   0  0  0  0  0  0
  -29.9681  -21.2220   18.0190 H   0  0  0  0  0  0
  -31.0119  -22.5197   17.4635 H   0  0  0  0  0  0
  -29.2846  -22.7761   17.8031 H   0  0  0  0  0  0
  -30.2087  -16.4531   23.1002 H   0  0  0  0  0  0
  -31.7617  -16.0274   22.4578 H   0  0  0  0  0  0
  -32.4646  -21.7406   19.2925 H   0  0  0  0  0  0
  -32.1572  -22.3441   20.8765 H   0  0  0  0  0  0
  -30.0215  -24.8161   17.8407 H   0  0  0  0  0  0
  -30.5807  -26.0360   18.8666 H   0  0  0  0  0  0
  -30.4720  -24.2929   20.8549 H   0  0  0  0  0  0
  -31.7764  -24.3065   19.7095 H   0  0  0  0  0  0
  -27.9989  -24.7068   19.7065 H   0  0  0  0  0  0
  -28.0508  -25.7229   18.2749 H   0  0  0  0  0  0
  -29.1493  -15.0949   21.6458 H   0  0  0  0  0  0
  -29.7346  -22.3387   20.1036 H   0  0  0  0  0  0
  1 25  1  0  0  0
  1 30  2  0  0  0
  1 83  1  0  0  0
  2  3  1  0  0  0
  2 25  1  0  0  0
  2 87  1  0  0  0
  2 88  1  0  0  0
  3  4  1  0  0  0
  3 89  1  0  0  0
  3 90  1  0  0  0
  4  5  1  0  0  0
  4 91  1  0  0  0
  4 92  1  0  0  0
  5  6  1  0  0  0
  5 26  1  0  0  0
  5 93  1  0  0  0
  6 25  1  0  0  0
  6 94  1  0  0  0
  6 95  1  0  0  0
  7  8  2  0  0  0
  7 26  1  0  0  0
  7 29  1  0  0  0
  8  9  1  0  0  0
  8 22  1  0  0  0
  9 10  1  0  0  0
  9 27  2  0  0  0
 10 11  2  0  0  0
 10 15  1  0  0  0
 11 12  1  0  0  0
 11 96  1  0  0  0
 12 13  2  0  0  0
 12 97  1  0  0  0
 13 14  1  0  0  0
 13 31  1  0  0  0
 14 15  2  0  0  0
 14 98  1  0  0  0
 15 99  1  0  0  0
 16 17  2  0  0  0
 16 21  1  0  0  0
 16 31  1  0  0  0
 17 18  1  0  0  0
 17100  1  0  0  0
 18 19  2  0  0  0
 18101  1  0  0  0
 19 20  1  0  0  0
 19 24  1  0  0  0
 20 21  2  0  0  0
 20102  1  0  0  0
 21 23  1  0  0  0
 22 28  1  0  0  0
 22 32  2  0  0  0
 26 27  1  0  0  0
 28103  1  0  0  0
 28104  1  0  0  0
 29105  1  0  0  0
 29106  1  0  0  0
 33 34  1  0  0  0
 33 66  1  0  0  0
 33 70  2  0  0  0
 34 36  1  0  0  0
 34 59  1  0  0  0
 34107  1  0  0  0
 35 44  2  0  0  0
 35 45  1  0  0  0
 35 68  1  0  0  0
 36 56  1  0  0  0
 36108  1  0  0  0
 37 39  1  0  0  0
 37 47  1  0  0  0
 37 66  1  0  0  0
 37109  1  0  0  0
 38 43  2  0  0  0
 38 46  1  0  0  0
 38 47  1  0  0  0
 39 64  1  0  0  0
 39 67  2  0  0  0
 40 52  1  0  0  0
 40 53  2  0  0  0
 40 58  1  0  0  0
 41110  1  0  0  0
 41111  1  0  0  0
 41112  1  0  0  0
 41 48  1  0  0  0
 42 43  1  0  0  0
 42 66  1  0  0  0
 42113  1  0  0  0
 42114  1  0  0  0
 43 44  1  0  0  0
 44115  1  0  0  0
 45 46  2  0  0  0
 45116  1  0  0  0
 46117  1  0  0  0
 47118  1  0  0  0
 47119  1  0  0  0
 48 56  1  0  0  0
 48 65  1  0  0  0
 48120  1  0  0  0
 49 50  1  0  0  0
 49 53  1  0  0  0
 49 64  1  0  0  0
 49121  1  0  0  0
 50 51  1  0  0  0
 50122  1  0  0  0
 50123  1  0  0  0
 51 52  1  0  0  0
 51124  1  0  0  0
 51125  1  0  0  0
 52126  1  0  0  0
 52127  1  0  0  0
 53 54  1  0  0  0
 54 55  2  0  0  0
 54128  1  0  0  0
 55 57  1  0  0  0
 55129  1  0  0  0
 56 69  2  0  0  0
 57 58  2  0  0  0
 57130  1  0  0  0
 58131  1  0  0  0
 59 60  1  0  0  0
 59 61  1  0  0  0
 59 62  1  0  0  0
 60132  1  0  0  0
 60133  1  0  0  0
 60134  1  0  0  0
 61135  1  0  0  0
 61136  1  0  0  0
 61137  1  0  0  0
 62138  1  0  0  0
 62139  1  0  0  0
 62140  1  0  0  0
 63 65  1  0  0  0
 63141  1  0  0  0
 63142  1  0  0  0
 63143  1  0  0  0
 64144  1  0  0  0
 65145  1  0  0  0
 68 82  1  0  0  0
 71 73  2  0  0  0
 71 76  1  0  0  0
 71146  1  0  0  0
 72 74  1  0  0  0
 72 75  2  0  0  0
 72147  1  0  0  0
 73 75  1  0  0  0
 73 78  1  0  0  0
 74 76  2  0  0  0
 74 79  1  0  0  0
 75 85  1  0  0  0
 76 86  1  0  0  0
 77148  1  0  0  0
 77149  1  0  0  0
 77150  1  0  0  0
 77 84  1  0  0  0
 78 83  1  0  0  0
 78151  1  0  0  0
 78152  1  0  0  0
 79 84  1  0  0  0
 79153  1  0  0  0
 79154  1  0  0  0
 80 81  1  0  0  0
 80 82  1  0  0  0
 80155  1  0  0  0
 80156  1  0  0  0
 81 84  1  0  0  0
 81157  1  0  0  0
 81158  1  0  0  0
 82159  1  0  0  0
 82160  1  0  0  0
 83161  1  0  0  0
 84162  1  0  0  0
M  CHG  1  84   1
M  ISO  4   1 100  68 101  82 101  83 100
M  END
> <chiral flag>
0

> <version>
0

> <s_m_source_file>
/data/baiqing/PycharmProjects/Reinvent-master-3.2/result/LINK_invent/BTK/process_docking_weight1_custom_product_contain_oxygen_bond_distance_aromatic_linkinvent_7_9_3/rearranged_h_0019.sdf

> <i_m_source_file_index>
19

> <r_mmod_Potential_Energy-OPLS-2005>
-226.521057128906

> <r_mmod_Stretch_Energy-OPLS-2005>
41.2780838012695

> <r_mmod_Bend_Energy-OPLS-2005>
119.515182495117

> <r_mmod_Torsional_Energy-OPLS-2005>
210.281997680664

> <r_mmod_Improper_Torsional_Energy-OPLS-2005>
2.34687662124634

> <r_mmod_Van_der_Waal_Energy-OPLS-2005>
168.177200317383

> <r_mmod_Electrostatic_Energy-OPLS-2005>
-326.842864990234

> <r_mmod_Solvation_Energy-OPLS-2005>
-452.451690673828

> <b_mmod_Minimization_Converged-OPLS-2005>
0

> <r_mmod_RMS_Derivative-OPLS-2005>
5.20787143707275

$$$$
19
                    3D
 Structure written by MMmdl.
174182  0  0  1  0            999 V2000
  -30.7142  -14.5272   20.6133 C   0  0  0  0  0  0
  -30.4313  -12.3596   19.4380 C   0  0  0  0  0  0
  -29.5040  -12.5088   18.2135 C   0  0  0  0  0  0
  -28.0224  -12.3614   18.6166 C   0  0  0  0  0  0
  -27.6572  -13.1987   19.8690 C   0  0  2  0  0  0
  -28.6945  -12.9743   20.9846 C   0  0  0  0  0  0
  -25.2596  -13.8156   20.5725 C   0  0  0  0  0  0
  -24.1829  -13.0455   20.9197 C   0  0  0  0  0  0
  -24.6355  -11.6921   20.8691 C   0  0  0  0  0  0
  -23.9035  -10.4322   21.0358 C   0  0  0  0  0  0
  -24.3619   -9.4261   21.9144 C   0  0  0  0  0  0
  -23.6310   -8.2293   22.0730 C   0  0  0  0  0  0
  -22.4284   -8.0304   21.3538 C   0  0  0  0  0  0
  -21.9891   -9.0263   20.4615 C   0  0  0  0  0  0
  -22.7217  -10.2143   20.3015 C   0  0  0  0  0  0
  -21.6873   -6.0749   22.5280 C   0  0  0  0  0  0
  -21.4003   -6.5633   23.8206 C   0  0  0  0  0  0
  -21.3663   -5.6786   24.9173 C   0  0  0  0  0  0
  -21.6070   -4.3052   24.7215 C   0  0  0  0  0  0
  -21.8829   -3.8156   23.4331 C   0  0  0  0  0  0
  -21.9207   -4.6975   22.3392 C   0  0  0  0  0  0
  -22.7841  -13.5249   21.1862 C   0  0  0  0  0  0
  -22.1652   -4.2161   21.0965 F   0  0  0  0  0  0
  -21.5664   -3.4542   25.7729 F   0  0  0  0  0  0
  -30.0155  -13.3546   20.4525 N   0  0  0  0  0  0
  -26.2985  -12.9294   20.3313 N   0  0  0  0  0  0
  -25.9256  -11.6465   20.5672 N   0  0  0  0  0  0
  -22.0470  -12.8240   22.0388 N   0  0  0  0  0  0
  -25.4407  -15.1883   20.4264 N   0  0  0  0  0  0
  -31.8381  -14.6497   20.1126 O   0  0  0  0  0  0
  -21.6647   -6.8900   21.4249 O   0  0  0  0  0  0
  -22.3510  -14.5534   20.6701 O   0  0  0  0  0  0
  -24.6161  -31.8670   23.2096 C   0  0  0  0  0  0
  -25.9042  -32.4819   23.8407 C   0  0  1  0  0  0
  -27.2419  -27.4133   20.1093 C   0  0  0  0  0  0
  -25.5897  -33.8614   24.2331 N   0  0  0  0  0  0
  -23.4084  -30.4891   21.5478 C   0  0  2  0  0  0
  -24.8620  -28.9526   20.1203 C   0  0  0  0  0  0
  -22.7433  -29.4648   22.4961 C   0  0  0  0  0  0
  -18.0273  -28.1390   22.8488 C   0  0  0  0  0  0
  -24.1489  -36.7305   23.2641 C   0  0  0  0  0  0
  -25.9393  -30.8249   21.3701 C   0  0  0  0  0  0
  -26.0218  -29.4546   20.7260 C   0  0  0  0  0  0
  -27.2159  -28.6900   20.7256 C   0  0  0  0  0  0
  -26.0713  -26.9445   19.4789 C   0  0  0  0  0  0
  -24.8823  -27.6956   19.4952 C   0  0  0  0  0  0
  -23.6238  -29.8216   20.1638 C   0  0  0  0  0  0
  -25.4113  -36.3107   24.0340 C   0  0  1  0  0  0
  -20.5870  -28.3683   23.1308 C   0  0  2  0  0  0
  -20.6760  -26.9411   22.5419 C   0  0  0  0  0  0
  -19.5739  -26.6387   21.5215 C   0  0  0  0  0  0
  -18.1917  -26.7931   22.1626 C   0  0  0  0  0  0
  -19.1526  -28.8848   23.2894 C   0  0  0  0  0  0
  -18.9446  -30.1449   23.8920 C   0  0  0  0  0  0
  -17.6450  -30.6587   24.0571 C   0  0  0  0  0  0
  -25.9039  -34.9472   23.5138 C   0  0  0  0  0  0
  -16.5342  -29.9093   23.6332 C   0  0  0  0  0  0
  -16.7266  -28.6510   23.0356 C   0  0  0  0  0  0
  -26.4479  -31.6590   25.0721 C   0  0  0  0  0  0
  -25.3746  -31.3648   26.1458 C   0  0  0  0  0  0
  -27.0313  -30.3048   24.6064 C   0  0  0  0  0  0
  -27.6063  -32.4308   25.7467 C   0  0  0  0  0  0
  -27.5582  -37.1807   24.8466 C   0  0  0  0  0  0
  -21.4152  -29.3046   22.3703 N   0  0  0  0  0  0
  -26.4298  -37.3791   23.9407 N   0  0  0  0  0  0
  -24.6724  -31.0749   22.1009 N   0  0  0  0  0  0
  -23.4192  -28.8185   23.3009 O   0  0  0  0  0  0
  -28.3745  -26.6207   20.0707 O   0  0  0  0  0  0
  -26.5592  -34.8919   22.4691 O   0  0  0  0  0  0
  -23.5348  -32.1420   23.7479 O   0  0  0  0  0  0
  -27.4480  -20.1066   20.3360 C   0  0  0  0  0  0
  -27.2018  -18.8006   19.8784 C   0  0  0  0  0  0
  -29.7117  -19.4654   20.9237 C   0  0  0  0  0  0
  -28.7145  -20.4888   20.8376 C   0  0  0  0  0  0
  -29.4546  -18.1201   20.5119 C   0  0  0  0  0  0
  -28.1986  -17.8184   19.9482 C   0  0  0  0  0  0
  -26.2114  -23.2377   21.4021 C   0  0  0  0  0  0
  -30.5329  -24.8435   18.7170 C   0  0  0  0  0  0
  -31.6954  -25.5526   20.8594 C   0  0  0  0  0  0
  -29.3208  -15.7068   22.3317 C   0  0  0  0  0  0
  -30.5240  -17.0089   20.6323 C   0  0  0  0  0  0
  -28.9683  -21.9211   21.4104 C   0  0  0  0  0  0
  -27.2095  -23.3393   20.2213 C   0  0  0  0  0  0
  -28.5684  -25.7626   21.2151 C   0  0  0  0  0  0
  -30.7148  -24.5529   20.2201 C   0  0  0  0  0  0
  -29.3794  -24.4094   21.0095 C   0  0  2  0  0  0
  -30.0695  -15.6513   21.0691 N   0  0  0  0  0  0
  -28.6456  -23.1469   20.5770 N   0  3  1  0  0  0
  -27.9319  -16.5808   19.4722 F   0  0  0  0  0  0
  -31.4725  -12.4722   19.1285 H   0  0  0  0  0  0
  -30.3659  -11.3520   19.8491 H   0  0  0  0  0  0
  -29.7630  -11.7674   17.4547 H   0  0  0  0  0  0
  -29.6634  -13.4850   17.7516 H   0  0  0  0  0  0
  -27.8399  -11.3054   18.8199 H   0  0  0  0  0  0
  -27.3770  -12.6273   17.7779 H   0  0  0  0  0  0
  -27.6983  -14.2426   19.5704 H   0  0  0  0  0  0
  -28.7045  -11.9213   21.2704 H   0  0  0  0  0  0
  -28.3954  -13.4741   21.8966 H   0  0  0  0  0  0
  -25.2768   -9.5810   22.4684 H   0  0  0  0  0  0
  -24.0076   -7.4701   22.7429 H   0  0  0  0  0  0
  -21.0850   -8.8787   19.8892 H   0  0  0  0  0  0
  -22.3694  -10.9679   19.6104 H   0  0  0  0  0  0
  -21.1945   -7.6129   23.9732 H   0  0  0  0  0  0
  -21.1469   -6.0485   25.9081 H   0  0  0  0  0  0
  -22.0602   -2.7624   23.2815 H   0  0  0  0  0  0
  -22.4084  -11.9916   22.4841 H   0  0  0  0  0  0
  -21.1082  -13.1263   22.2534 H   0  0  0  0  0  0
  -24.7004  -15.8601   20.5926 H   0  0  0  0  0  0
  -26.3161  -15.6200   20.1483 H   0  0  0  0  0  0
  -26.7107  -32.5557   23.1176 H   0  0  0  0  0  0
  -25.0076  -33.9793   25.0493 H   0  0  0  0  0  0
  -22.6981  -31.3051   21.4041 H   0  0  0  0  0  0
  -23.3758  -35.9633   23.3314 H   0  0  0  0  0  0
  -24.3578  -36.8909   22.2051 H   0  0  0  0  0  0
  -23.7234  -37.6509   23.6651 H   0  0  0  0  0  0
  -26.0524  -31.5857   20.5972 H   0  0  0  0  0  0
  -26.8269  -30.8861   21.9874 H   0  0  0  0  0  0
  -28.1100  -29.0753   21.1957 H   0  0  0  0  0  0
  -26.0709  -26.0001   18.9580 H   0  0  0  0  0  0
  -23.9971  -27.3098   19.0097 H   0  0  0  0  0  0
  -23.7370  -30.5949   19.4027 H   0  0  0  0  0  0
  -22.7485  -29.2402   19.8675 H   0  0  0  0  0  0
  -25.1290  -36.1978   25.0832 H   0  0  0  0  0  0
  -20.9971  -28.3251   24.1426 H   0  0  0  0  0  0
  -20.5661  -26.2288   23.3609 H   0  0  0  0  0  0
  -21.6627  -26.7436   22.1211 H   0  0  0  0  0  0
  -19.6894  -25.6297   21.1246 H   0  0  0  0  0  0
  -19.6686  -27.3197   20.6744 H   0  0  0  0  0  0
  -17.4184  -26.6696   21.4027 H   0  0  0  0  0  0
  -18.0308  -26.0069   22.9020 H   0  0  0  0  0  0
  -19.7922  -30.7251   24.2319 H   0  0  0  0  0  0
  -17.5006  -31.6276   24.5161 H   0  0  0  0  0  0
  -15.5349  -30.3009   23.7626 H   0  0  0  0  0  0
  -15.8667  -28.0835   22.7071 H   0  0  0  0  0  0
  -24.5952  -30.6970   25.7765 H   0  0  0  0  0  0
  -24.8897  -32.2771   26.4934 H   0  0  0  0  0  0
  -25.8111  -30.8793   27.0193 H   0  0  0  0  0  0
  -26.2836  -29.6795   24.1170 H   0  0  0  0  0  0
  -27.4156  -29.7294   25.4492 H   0  0  0  0  0  0
  -27.8644  -30.4387   23.9164 H   0  0  0  0  0  0
  -27.2707  -33.3614   26.2053 H   0  0  0  0  0  0
  -28.3858  -32.6853   25.0272 H   0  0  0  0  0  0
  -28.0748  -31.8420   26.5363 H   0  0  0  0  0  0
  -28.2600  -38.0106   24.7523 H   0  0  0  0  0  0
  -28.1085  -36.2635   24.6297 H   0  0  0  0  0  0
  -27.2297  -37.1455   25.8869 H   0  0  0  0  0  0
  -20.9306  -29.8782   21.6938 H   0  0  0  0  0  0
  -26.0193  -38.2870   24.1414 H   0  0  0  0  0  0
  -26.6126  -20.7806   20.2961 H   0  0  0  0  0  0
  -26.2302  -18.5453   19.4816 H   0  0  0  0  0  0
  -30.6798  -19.7000   21.3438 H   0  0  0  0  0  0
  -25.2028  -23.4813   21.0680 H   0  0  0  0  0  0
  -26.4409  -23.9103   22.2246 H   0  0  0  0  0  0
  -26.1609  -22.2391   21.8343 H   0  0  0  0  0  0
  -31.4835  -24.7595   18.1897 H   0  0  0  0  0  0
  -30.1608  -25.8503   18.5340 H   0  0  0  0  0  0
  -29.8452  -24.1458   18.2398 H   0  0  0  0  0  0
  -32.6578  -25.5393   20.3435 H   0  0  0  0  0  0
  -31.8921  -25.3099   21.9048 H   0  0  0  0  0  0
  -31.3230  -26.5762   20.8207 H   0  0  0  0  0  0
  -28.2499  -15.6425   22.1331 H   0  0  0  0  0  0
  -29.4770  -16.6452   22.8632 H   0  0  0  0  0  0
  -29.6140  -14.9136   23.0228 H   0  0  0  0  0  0
  -30.9895  -16.9457   19.6471 H   0  0  0  0  0  0
  -31.3126  -17.3336   21.3123 H   0  0  0  0  0  0
  -30.0308  -21.9645   21.6553 H   0  0  0  0  0  0
  -28.4560  -21.9987   22.3710 H   0  0  0  0  0  0
  -27.0915  -24.2904   19.7143 H   0  0  0  0  0  0
  -26.9431  -22.6352   19.4355 H   0  0  0  0  0  0
  -29.1280  -26.3704   21.9260 H   0  0  0  0  0  0
  -27.6253  -25.5915   21.7282 H   0  0  0  0  0  0
  -31.2208  -23.5876   20.2795 H   0  0  0  0  0  0
  -29.6783  -24.1875   22.0347 H   0  0  0  0  0  0
  -29.0747  -22.9402   19.6870 H   0  0  0  0  0  0
  1 25  1  0  0  0
  1 30  2  0  0  0
  1 87  1  0  0  0
  2  3  1  0  0  0
  2 25  1  0  0  0
  2 90  1  0  0  0
  2 91  1  0  0  0
  3  4  1  0  0  0
  3 92  1  0  0  0
  3 93  1  0  0  0
  4  5  1  0  0  0
  4 94  1  0  0  0
  4 95  1  0  0  0
  5  6  1  0  0  0
  5 26  1  0  0  0
  5 96  1  0  0  0
  6 25  1  0  0  0
  6 97  1  0  0  0
  6 98  1  0  0  0
  7  8  2  0  0  0
  7 26  1  0  0  0
  7 29  1  0  0  0
  8  9  1  0  0  0
  8 22  1  0  0  0
  9 10  1  0  0  0
  9 27  2  0  0  0
 10 11  2  0  0  0
 10 15  1  0  0  0
 11 12  1  0  0  0
 11 99  1  0  0  0
 12 13  2  0  0  0
 12100  1  0  0  0
 13 14  1  0  0  0
 13 31  1  0  0  0
 14 15  2  0  0  0
 14101  1  0  0  0
 15102  1  0  0  0
 16 17  2  0  0  0
 16 21  1  0  0  0
 16 31  1  0  0  0
 17 18  1  0  0  0
 17103  1  0  0  0
 18 19  2  0  0  0
 18104  1  0  0  0
 19 20  1  0  0  0
 19 24  1  0  0  0
 20 21  2  0  0  0
 20105  1  0  0  0
 21 23  1  0  0  0
 22 28  1  0  0  0
 22 32  2  0  0  0
 26 27  1  0  0  0
 28106  1  0  0  0
 28107  1  0  0  0
 29108  1  0  0  0
 29109  1  0  0  0
 33 34  1  0  0  0
 33 66  1  0  0  0
 33 70  2  0  0  0
 34 36  1  0  0  0
 34 59  1  0  0  0
 34110  1  0  0  0
 35 44  2  0  0  0
 35 45  1  0  0  0
 35 68  1  0  0  0
 36 56  1  0  0  0
 36111  1  0  0  0
 37 39  1  0  0  0
 37 47  1  0  0  0
 37 66  1  0  0  0
 37112  1  0  0  0
 38 43  2  0  0  0
 38 46  1  0  0  0
 38 47  1  0  0  0
 39 64  1  0  0  0
 39 67  2  0  0  0
 40 52  1  0  0  0
 40 53  2  0  0  0
 40 58  1  0  0  0
 41113  1  0  0  0
 41114  1  0  0  0
 41115  1  0  0  0
 41 48  1  0  0  0
 42 43  1  0  0  0
 42 66  1  0  0  0
 42116  1  0  0  0
 42117  1  0  0  0
 43 44  1  0  0  0
 44118  1  0  0  0
 45 46  2  0  0  0
 45119  1  0  0  0
 46120  1  0  0  0
 47121  1  0  0  0
 47122  1  0  0  0
 48 56  1  0  0  0
 48 65  1  0  0  0
 48123  1  0  0  0
 49 50  1  0  0  0
 49 53  1  0  0  0
 49 64  1  0  0  0
 49124  1  0  0  0
 50 51  1  0  0  0
 50125  1  0  0  0
 50126  1  0  0  0
 51 52  1  0  0  0
 51127  1  0  0  0
 51128  1  0  0  0
 52129  1  0  0  0
 52130  1  0  0  0
 53 54  1  0  0  0
 54 55  2  0  0  0
 54131  1  0  0  0
 55 57  1  0  0  0
 55132  1  0  0  0
 56 69  2  0  0  0
 57 58  2  0  0  0
 57133  1  0  0  0
 58134  1  0  0  0
 59 60  1  0  0  0
 59 61  1  0  0  0
 59 62  1  0  0  0
 60135  1  0  0  0
 60136  1  0  0  0
 60137  1  0  0  0
 61138  1  0  0  0
 61139  1  0  0  0
 61140  1  0  0  0
 62141  1  0  0  0
 62142  1  0  0  0
 62143  1  0  0  0
 63 65  1  0  0  0
 63144  1  0  0  0
 63145  1  0  0  0
 63146  1  0  0  0
 64147  1  0  0  0
 65148  1  0  0  0
 68 84  1  0  0  0
 71 72  2  0  0  0
 71 74  1  0  0  0
 71149  1  0  0  0
 72 76  1  0  0  0
 72150  1  0  0  0
 73 74  2  0  0  0
 73 75  1  0  0  0
 73151  1  0  0  0
 74 82  1  0  0  0
 75 76  2  0  0  0
 75 81  1  0  0  0
 76 89  1  0  0  0
 77 83  1  0  0  0
 77152  1  0  0  0
 77153  1  0  0  0
 77154  1  0  0  0
 78155  1  0  0  0
 78156  1  0  0  0
 78157  1  0  0  0
 78 85  1  0  0  0
 79 85  1  0  0  0
 79158  1  0  0  0
 79159  1  0  0  0
 79160  1  0  0  0
 80 87  1  0  0  0
 80161  1  0  0  0
 80162  1  0  0  0
 80163  1  0  0  0
 81 87  1  0  0  0
 81164  1  0  0  0
 81165  1  0  0  0
 82166  1  0  0  0
 82167  1  0  0  0
 82 88  1  0  0  0
 83 88  1  0  0  0
 83168  1  0  0  0
 83169  1  0  0  0
 84170  1  0  0  0
 84171  1  0  0  0
 84 86  1  0  0  0
 85 86  1  0  0  0
 85172  1  0  0  0
 86 88  1  0  0  0
 86173  1  0  0  0
 88174  1  0  0  0
M  CHG  1  88   1
M  ISO  4   1 100  68 101  84 101  87 100
M  END
> <chiral flag>
0

> <version>
0

> <s_m_source_file>
/data/baiqing/PycharmProjects/Reinvent-master-3.2/result/LINK_invent/BTK/process_docking_weight1_custom_product_contain_oxygen_bond_distance_aromatic_linkinvent_7_9_3/rearranged_h_0019.sdf

> <i_m_source_file_index>
20

> <r_mmod_Potential_Energy-OPLS-2005>
150.622848510742

> <r_mmod_Stretch_Energy-OPLS-2005>
65.2330932617188

> <r_mmod_Bend_Energy-OPLS-2005>
155.304183959961

> <r_mmod_Torsional_Energy-OPLS-2005>
311.123596191406

> <r_mmod_Improper_Torsional_Energy-OPLS-2005>
8.52670001983643

> <r_mmod_Van_der_Waal_Energy-OPLS-2005>
159.505493164062

> <r_mmod_Electrostatic_Energy-OPLS-2005>
-175.717803955078

> <r_mmod_Solvation_Energy-OPLS-2005>
-391.197937011719

> <b_mmod_Minimization_Converged-OPLS-2005>
0

> <r_mmod_RMS_Derivative-OPLS-2005>
2.92223024368286

$$$$
20
                    3D
 Structure written by MMmdl.
179187  0  0  1  0            999 V2000
  -30.6921  -14.5912   20.5481 C   0  0  0  0  0  0
  -30.4243  -12.3885   19.4301 C   0  0  0  0  0  0
  -29.4883  -12.5128   18.2087 C   0  0  0  0  0  0
  -28.0146  -12.3347   18.6266 C   0  0  0  0  0  0
  -27.6489  -13.1832   19.8702 C   0  0  2  0  0  0
  -28.7092  -13.0007   20.9857 C   0  0  0  0  0  0
  -25.2549  -13.8080   20.5673 C   0  0  0  0  0  0
  -24.1794  -13.0381   20.9195 C   0  0  0  0  0  0
  -24.6344  -11.6847   20.8754 C   0  0  0  0  0  0
  -23.9006  -10.4260   21.0422 C   0  0  0  0  0  0
  -24.3571   -9.4185   21.9194 C   0  0  0  0  0  0
  -23.6264   -8.2220   22.0757 C   0  0  0  0  0  0
  -22.4255   -8.0259   21.3541 C   0  0  0  0  0  0
  -21.9863   -9.0226   20.4642 C   0  0  0  0  0  0
  -22.7184  -10.2113   20.3061 C   0  0  0  0  0  0
  -21.6845   -6.0714   22.5281 C   0  0  0  0  0  0
  -21.4007   -6.5625   23.8210 C   0  0  0  0  0  0
  -21.3651   -5.6780   24.9177 C   0  0  0  0  0  0
  -21.6050   -4.3045   24.7227 C   0  0  0  0  0  0
  -21.8826   -3.8134   23.4352 C   0  0  0  0  0  0
  -21.9195   -4.6941   22.3404 C   0  0  0  0  0  0
  -22.7827  -13.5206   21.1850 C   0  0  0  0  0  0
  -22.1664   -4.2130   21.0984 F   0  0  0  0  0  0
  -21.5628   -3.4533   25.7737 F   0  0  0  0  0  0
  -30.0034  -13.4053   20.4196 N   0  0  0  0  0  0
  -26.2957  -12.9196   20.3397 N   0  0  0  0  0  0
  -25.9266  -11.6381   20.5798 N   0  0  0  0  0  0
  -22.0471  -12.8208   22.0411 N   0  0  0  0  0  0
  -25.4237  -15.1792   20.4045 N   0  0  0  0  0  0
  -31.8583  -14.6502   20.1446 O   0  0  0  0  0  0
  -21.6631   -6.8850   21.4239 O   0  0  0  0  0  0
  -22.3529  -14.5511   20.6687 O   0  0  0  0  0  0
  -24.6189  -31.8654   23.2083 C   0  0  0  0  0  0
  -25.9069  -32.4809   23.8392 C   0  0  1  0  0  0
  -27.2448  -27.3970   20.0945 C   0  0  0  0  0  0
  -25.5918  -33.8606   24.2320 N   0  0  0  0  0  0
  -23.4089  -30.4898   21.5498 C   0  0  2  0  0  0
  -24.8561  -28.9499   20.1178 C   0  0  0  0  0  0
  -22.7435  -29.4659   22.4987 C   0  0  0  0  0  0
  -18.0280  -28.1375   22.8495 C   0  0  0  0  0  0
  -24.1486  -36.7306   23.2638 C   0  0  0  0  0  0
  -25.9433  -30.8172   21.3697 C   0  0  0  0  0  0
  -26.0206  -29.4502   20.7127 C   0  0  0  0  0  0
  -27.2147  -28.6846   20.6939 C   0  0  0  0  0  0
  -26.0521  -26.9239   19.4936 C   0  0  0  0  0  0
  -24.8688  -27.6866   19.5060 C   0  0  0  0  0  0
  -23.6200  -29.8220   20.1658 C   0  0  0  0  0  0
  -25.4111  -36.3105   24.0338 C   0  0  1  0  0  0
  -20.5870  -28.3680   23.1303 C   0  0  2  0  0  0
  -20.6774  -26.9417   22.5409 C   0  0  0  0  0  0
  -19.5747  -26.6386   21.5213 C   0  0  0  0  0  0
  -18.1926  -26.7924   22.1627 C   0  0  0  0  0  0
  -19.1527  -28.8844   23.2895 C   0  0  0  0  0  0
  -18.9456  -30.1449   23.8905 C   0  0  0  0  0  0
  -17.6458  -30.6583   24.0563 C   0  0  0  0  0  0
  -25.9041  -34.9473   23.5129 C   0  0  0  0  0  0
  -16.5351  -29.9081   23.6324 C   0  0  0  0  0  0
  -16.7271  -28.6495   23.0356 C   0  0  0  0  0  0
  -26.4479  -31.6595   25.0737 C   0  0  0  0  0  0
  -25.3730  -31.3711   26.1478 C   0  0  0  0  0  0
  -27.0313  -30.3031   24.6141 C   0  0  0  0  0  0
  -27.6052  -32.4319   25.7497 C   0  0  0  0  0  0
  -27.5584  -37.1812   24.8466 C   0  0  0  0  0  0
  -21.4162  -29.3042   22.3707 N   0  0  0  0  0  0
  -26.4295  -37.3797   23.9409 N   0  0  0  0  0  0
  -24.6749  -31.0728   22.0995 N   0  0  0  0  0  0
  -23.4193  -28.8202   23.3041 O   0  0  0  0  0  0
  -28.4156  -26.6417   20.1109 O   0  0  0  0  0  0
  -26.5607  -34.8925   22.4692 O   0  0  0  0  0  0
  -23.5376  -32.1421   23.7465 O   0  0  0  0  0  0
  -30.4524  -17.8255   18.8254 C   0  0  0  0  0  0
  -30.3367  -18.8349   17.8574 C   0  0  0  0  0  0
  -30.6148  -18.1548   20.1832 C   0  0  0  0  0  0
  -30.4941  -20.5779   19.5756 C   0  0  0  0  0  0
  -30.4064  -20.2028   18.1998 C   0  0  0  0  0  0
  -30.5992  -19.5347   20.5513 C   0  0  0  0  0  0
  -33.9426  -21.7801   15.5514 C   0  0  0  0  0  0
  -28.0799  -23.5669   15.3809 C   0  0  0  0  0  0
  -28.6605  -16.0810   21.0938 C   0  0  0  0  0  0
  -30.8688  -17.0188   21.2078 C   0  0  0  0  0  0
  -30.6560  -22.0612   20.0065 C   0  0  0  0  0  0
  -32.6997  -22.0467   16.4085 C   0  0  0  0  0  0
  -29.0971  -22.4266   15.5069 C   0  0  0  0  0  0
  -31.6530  -20.9388   16.2406 C   0  0  0  0  0  0
  -29.5369  -22.2042   16.9628 C   0  0  0  0  0  0
  -29.6008  -24.3805   20.1590 C   0  0  0  0  0  0
  -28.3054  -25.2107   19.8804 C   0  0  0  0  0  0
  -30.4953  -21.1122   17.1246 N   0  0  0  0  0  0
  -30.0943  -15.7521   21.0117 N   0  0  0  0  0  0
  -29.4106  -22.8915   20.0293 N   0  3  0  0  0  0
  -30.7360  -19.8665   21.8583 F   0  0  0  0  0  0
  -31.4621  -12.5004   19.1153 H   0  0  0  0  0  0
  -30.3646  -11.3875   19.8585 H   0  0  0  0  0  0
  -29.7544  -11.7742   17.4520 H   0  0  0  0  0  0
  -29.6184  -13.4891   17.7394 H   0  0  0  0  0  0
  -27.8579  -11.2773   18.8409 H   0  0  0  0  0  0
  -27.3536  -12.5809   17.7947 H   0  0  0  0  0  0
  -27.6616  -14.2032   19.5093 H   0  0  0  0  0  0
  -28.7449  -11.9495   21.2778 H   0  0  0  0  0  0
  -28.4765  -13.4996   21.9216 H   0  0  0  0  0  0
  -25.2722   -9.5672   22.4758 H   0  0  0  0  0  0
  -23.9983   -7.4607   22.7465 H   0  0  0  0  0  0
  -21.0807   -8.8745   19.8929 H   0  0  0  0  0  0
  -22.3657  -10.9656   19.6171 H   0  0  0  0  0  0
  -21.2003   -7.6135   23.9706 H   0  0  0  0  0  0
  -21.1460   -6.0514   25.9077 H   0  0  0  0  0  0
  -22.0611   -2.7598   23.2863 H   0  0  0  0  0  0
  -22.4058  -11.9867   22.4800 H   0  0  0  0  0  0
  -21.1093  -13.1245   22.2613 H   0  0  0  0  0  0
  -24.6564  -15.8323   20.5215 H   0  0  0  0  0  0
  -26.2794  -15.6243   20.1005 H   0  0  0  0  0  0
  -26.7144  -32.5500   23.1154 H   0  0  0  0  0  0
  -25.0079  -33.9762   25.0477 H   0  0  0  0  0  0
  -22.6994  -31.3078   21.4099 H   0  0  0  0  0  0
  -23.3750  -35.9633   23.3300 H   0  0  0  0  0  0
  -24.3583  -36.8921   22.2050 H   0  0  0  0  0  0
  -23.7223  -37.6508   23.6649 H   0  0  0  0  0  0
  -26.0683  -31.5835   20.6037 H   0  0  0  0  0  0
  -26.8258  -30.8639   21.9966 H   0  0  0  0  0  0
  -28.1118  -29.0719   21.1568 H   0  0  0  0  0  0
  -26.0037  -25.9623   19.0052 H   0  0  0  0  0  0
  -23.9750  -27.2921   19.0425 H   0  0  0  0  0  0
  -23.7342  -30.5967   19.4068 H   0  0  0  0  0  0
  -22.7413  -29.2477   19.8667 H   0  0  0  0  0  0
  -25.1283  -36.1975   25.0831 H   0  0  0  0  0  0
  -20.9967  -28.3243   24.1421 H   0  0  0  0  0  0
  -20.5683  -26.2293   23.3599 H   0  0  0  0  0  0
  -21.6642  -26.7456   22.1194 H   0  0  0  0  0  0
  -19.6911  -25.6295   21.1236 H   0  0  0  0  0  0
  -19.6673  -27.3197   20.6738 H   0  0  0  0  0  0
  -17.4200  -26.6677   21.4026 H   0  0  0  0  0  0
  -18.0331  -26.0053   22.9008 H   0  0  0  0  0  0
  -19.7934  -30.7261   24.2279 H   0  0  0  0  0  0
  -17.5015  -31.6266   24.5161 H   0  0  0  0  0  0
  -15.5353  -30.2990   23.7638 H   0  0  0  0  0  0
  -15.8674  -28.0813   22.7076 H   0  0  0  0  0  0
  -24.5899  -30.7065   25.7810 H   0  0  0  0  0  0
  -24.8927  -32.2868   26.4934 H   0  0  0  0  0  0
  -25.8072  -30.8869   27.0233 H   0  0  0  0  0  0
  -26.2869  -29.6797   24.1170 H   0  0  0  0  0  0
  -27.4042  -29.7268   25.4619 H   0  0  0  0  0  0
  -27.8727  -30.4343   23.9332 H   0  0  0  0  0  0
  -27.2673  -33.3615   26.2089 H   0  0  0  0  0  0
  -28.3849  -32.6883   25.0313 H   0  0  0  0  0  0
  -28.0730  -31.8433   26.5397 H   0  0  0  0  0  0
  -28.2604  -38.0110   24.7529 H   0  0  0  0  0  0
  -28.1081  -36.2645   24.6274 H   0  0  0  0  0  0
  -27.2310  -37.1442   25.8873 H   0  0  0  0  0  0
  -20.9337  -29.8772   21.6926 H   0  0  0  0  0  0
  -26.0184  -38.2878   24.1406 H   0  0  0  0  0  0
  -30.4581  -16.7940   18.5043 H   0  0  0  0  0  0
  -30.2515  -18.5450   16.8204 H   0  0  0  0  0  0
  -34.6810  -22.5729   15.6672 H   0  0  0  0  0  0
  -33.6879  -21.7148   14.4934 H   0  0  0  0  0  0
  -34.4194  -20.8410   15.8357 H   0  0  0  0  0  0
  -27.8302  -23.7510   14.3359 H   0  0  0  0  0  0
  -28.4738  -24.4967   15.7914 H   0  0  0  0  0  0
  -27.1530  -23.3340   15.9067 H   0  0  0  0  0  0
  -28.0778  -15.4544   21.7590 H   0  0  0  0  0  0
  -28.2231  -16.1060   20.1002 H   0  0  0  0  0  0
  -28.4939  -17.0809   21.4972 H   0  0  0  0  0  0
  -30.6588  -17.3891   22.2121 H   0  0  0  0  0  0
  -31.9435  -16.8310   21.2202 H   0  0  0  0  0  0
  -31.3757  -22.5160   19.3255 H   0  0  0  0  0  0
  -31.1274  -22.1109   20.9881 H   0  0  0  0  0  0
  -32.2702  -23.0120   16.1394 H   0  0  0  0  0  0
  -32.9997  -22.1159   17.4544 H   0  0  0  0  0  0
  -29.9603  -22.6757   14.8903 H   0  0  0  0  0  0
  -28.6686  -21.5115   15.0944 H   0  0  0  0  0  0
  -32.1435  -19.9822   16.4309 H   0  0  0  0  0  0
  -31.3204  -20.8872   15.2025 H   0  0  0  0  0  0
  -28.6493  -21.9920   17.5615 H   0  0  0  0  0  0
  -29.9822  -23.1247   17.3398 H   0  0  0  0  0  0
  -29.9656  -24.5991   21.1625 H   0  0  0  0  0  0
  -30.3788  -24.7099   19.4688 H   0  0  0  0  0  0
  -27.5033  -24.8165   20.5065 H   0  0  0  0  0  0
  -28.0174  -25.0459   18.8405 H   0  0  0  0  0  0
  -28.8306  -22.5652   20.7871 H   0  0  0  0  0  0
  -28.9178  -22.7029   19.1722 H   0  0  0  0  0  0
  1 25  1  0  0  0
  1 30  2  0  0  0
  1 89  1  0  0  0
  2  3  1  0  0  0
  2 25  1  0  0  0
  2 92  1  0  0  0
  2 93  1  0  0  0
  3  4  1  0  0  0
  3 94  1  0  0  0
  3 95  1  0  0  0
  4  5  1  0  0  0
  4 96  1  0  0  0
  4 97  1  0  0  0
  5  6  1  0  0  0
  5 26  1  0  0  0
  5 98  1  0  0  0
  6 25  1  0  0  0
  6 99  1  0  0  0
  6100  1  0  0  0
  7  8  2  0  0  0
  7 26  1  0  0  0
  7 29  1  0  0  0
  8  9  1  0  0  0
  8 22  1  0  0  0
  9 10  1  0  0  0
  9 27  2  0  0  0
 10 11  2  0  0  0
 10 15  1  0  0  0
 11 12  1  0  0  0
 11101  1  0  0  0
 12 13  2  0  0  0
 12102  1  0  0  0
 13 14  1  0  0  0
 13 31  1  0  0  0
 14 15  2  0  0  0
 14103  1  0  0  0
 15104  1  0  0  0
 16 17  2  0  0  0
 16 21  1  0  0  0
 16 31  1  0  0  0
 17 18  1  0  0  0
 17105  1  0  0  0
 18 19  2  0  0  0
 18106  1  0  0  0
 19 20  1  0  0  0
 19 24  1  0  0  0
 20 21  2  0  0  0
 20107  1  0  0  0
 21 23  1  0  0  0
 22 28  1  0  0  0
 22 32  2  0  0  0
 26 27  1  0  0  0
 28108  1  0  0  0
 28109  1  0  0  0
 29110  1  0  0  0
 29111  1  0  0  0
 33 34  1  0  0  0
 33 66  1  0  0  0
 33 70  2  0  0  0
 34 36  1  0  0  0
 34 59  1  0  0  0
 34112  1  0  0  0
 35 44  2  0  0  0
 35 45  1  0  0  0
 35 68  1  0  0  0
 36 56  1  0  0  0
 36113  1  0  0  0
 37 39  1  0  0  0
 37 47  1  0  0  0
 37 66  1  0  0  0
 37114  1  0  0  0
 38 43  2  0  0  0
 38 46  1  0  0  0
 38 47  1  0  0  0
 39 64  1  0  0  0
 39 67  2  0  0  0
 40 52  1  0  0  0
 40 53  2  0  0  0
 40 58  1  0  0  0
 41115  1  0  0  0
 41116  1  0  0  0
 41117  1  0  0  0
 41 48  1  0  0  0
 42 43  1  0  0  0
 42 66  1  0  0  0
 42118  1  0  0  0
 42119  1  0  0  0
 43 44  1  0  0  0
 44120  1  0  0  0
 45 46  2  0  0  0
 45121  1  0  0  0
 46122  1  0  0  0
 47123  1  0  0  0
 47124  1  0  0  0
 48 56  1  0  0  0
 48 65  1  0  0  0
 48125  1  0  0  0
 49 50  1  0  0  0
 49 53  1  0  0  0
 49 64  1  0  0  0
 49126  1  0  0  0
 50 51  1  0  0  0
 50127  1  0  0  0
 50128  1  0  0  0
 51 52  1  0  0  0
 51129  1  0  0  0
 51130  1  0  0  0
 52131  1  0  0  0
 52132  1  0  0  0
 53 54  1  0  0  0
 54 55  2  0  0  0
 54133  1  0  0  0
 55 57  1  0  0  0
 55134  1  0  0  0
 56 69  2  0  0  0
 57 58  2  0  0  0
 57135  1  0  0  0
 58136  1  0  0  0
 59 60  1  0  0  0
 59 61  1  0  0  0
 59 62  1  0  0  0
 60137  1  0  0  0
 60138  1  0  0  0
 60139  1  0  0  0
 61140  1  0  0  0
 61141  1  0  0  0
 61142  1  0  0  0
 62143  1  0  0  0
 62144  1  0  0  0
 62145  1  0  0  0
 63 65  1  0  0  0
 63146  1  0  0  0
 63147  1  0  0  0
 63148  1  0  0  0
 64149  1  0  0  0
 65150  1  0  0  0
 68 87  1  0  0  0
 71 72  2  0  0  0
 71 73  1  0  0  0
 71151  1  0  0  0
 72 75  1  0  0  0
 72152  1  0  0  0
 73 76  2  0  0  0
 73 80  1  0  0  0
 74 75  2  0  0  0
 74 76  1  0  0  0
 74 81  1  0  0  0
 75 88  1  0  0  0
 76 91  1  0  0  0
 77 82  1  0  0  0
 77153  1  0  0  0
 77154  1  0  0  0
 77155  1  0  0  0
 78 83  1  0  0  0
 78156  1  0  0  0
 78157  1  0  0  0
 78158  1  0  0  0
 79 89  1  0  0  0
 79159  1  0  0  0
 79160  1  0  0  0
 79161  1  0  0  0
 80 89  1  0  0  0
 80162  1  0  0  0
 80163  1  0  0  0
 81 90  1  0  0  0
 81164  1  0  0  0
 81165  1  0  0  0
 82 84  1  0  0  0
 82166  1  0  0  0
 82167  1  0  0  0
 83 85  1  0  0  0
 83168  1  0  0  0
 83169  1  0  0  0
 84 88  1  0  0  0
 84170  1  0  0  0
 84171  1  0  0  0
 85 88  1  0  0  0
 85172  1  0  0  0
 85173  1  0  0  0
 86 87  1  0  0  0
 86 90  1  0  0  0
 86174  1  0  0  0
 86175  1  0  0  0
 87176  1  0  0  0
 87177  1  0  0  0
 90178  1  0  0  0
 90179  1  0  0  0
M  CHG  1  90   1
M  ISO  4   1 100  68 101  87 101  89 100
M  END
> <chiral flag>
0

> <version>
0

> <s_m_source_file>
/data/baiqing/PycharmProjects/Reinvent-master-3.2/result/LINK_invent/BTK/process_docking_weight1_custom_product_contain_oxygen_bond_distance_aromatic_linkinvent_7_9_3/rearranged_h_0019.sdf

> <i_m_source_file_index>
21

> <r_mmod_Potential_Energy-OPLS-2005>
-15.3943338394165

> <r_mmod_Stretch_Energy-OPLS-2005>
62.9775123596191

> <r_mmod_Bend_Energy-OPLS-2005>
155.356994628906

> <r_mmod_Torsional_Energy-OPLS-2005>
255.630706787109

> <r_mmod_Improper_Torsional_Energy-OPLS-2005>
3.96950912475586

> <r_mmod_Van_der_Waal_Energy-OPLS-2005>
164.269088745117

> <r_mmod_Electrostatic_Energy-OPLS-2005>
-260.846710205078

> <r_mmod_Solvation_Energy-OPLS-2005>
-423.762847900391

> <b_mmod_Minimization_Converged-OPLS-2005>
0

> <r_mmod_RMS_Derivative-OPLS-2005>
2.13168549537659

$$$$
21
                    3D
 Structure written by MMmdl.
188198  0  0  1  0            999 V2000
  -29.0630  -18.0348   20.4092 C   0  0  0  0  0  0
  -29.9281  -14.9521   19.5926 C   0  0  0  0  0  0
  -29.5287  -13.6702   18.6117 C   0  0  0  0  0  0
  -28.4016  -12.7748   19.1206 C   0  0  0  0  0  0
  -27.5295  -13.7417   19.9110 C   0  0  2  0  0  0
  -28.2450  -14.8800   20.8735 C   0  0  0  0  0  0
  -25.1546  -13.9092   20.6155 C   0  0  0  0  0  0
  -24.1441  -13.0623   20.9410 C   0  0  0  0  0  0
  -24.6778  -11.7359   20.8661 C   0  0  0  0  0  0
  -23.9553  -10.4477   21.0197 C   0  0  0  0  0  0
  -24.3910   -9.4382   21.9085 C   0  0  0  0  0  0
  -23.6481   -8.2454   22.0722 C   0  0  0  0  0  0
  -22.4462   -8.0442   21.3537 C   0  0  0  0  0  0
  -22.0181   -9.0431   20.4618 C   0  0  0  0  0  0
  -22.7620  -10.2268   20.2943 C   0  0  0  0  0  0
  -21.6943   -6.0792   22.5252 C   0  0  0  0  0  0
  -21.4092   -6.5664   23.8186 C   0  0  0  0  0  0
  -21.3658   -5.6805   24.9139 C   0  0  0  0  0  0
  -21.6030   -4.3066   24.7202 C   0  0  0  0  0  0
  -21.8830   -3.8168   23.4325 C   0  0  0  0  0  0
  -21.9228   -4.6995   22.3378 C   0  0  0  0  0  0
  -22.7342  -13.4944   21.1964 C   0  0  0  0  0  0
  -22.1675   -4.2140   21.0961 F   0  0  0  0  0  0
  -21.5597   -3.4559   25.7724 F   0  0  0  0  0  0
  -28.9116  -16.2249   20.1993 N   0  0  0  0  0  0
  -26.2718  -13.1439   20.4062 N   0  0  0  0  0  0
  -25.9944  -11.7991   20.5707 N   0  0  0  0  0  0
  -22.0135  -12.7839   22.0529 N   0  0  0  0  0  0
  -25.2190  -15.2879   20.4416 N   0  0  0  0  0  0
  -30.3317  -17.6123   20.3864 O   0  0  0  0  0  0
  -21.6774   -6.9026   21.4257 O   0  0  0  0  0  0
  -22.2889  -14.5183   20.6791 O   0  0  0  0  0  0
  -24.8118  -31.4975   23.1468 C   0  0  0  0  0  0
  -25.9830  -32.3216   23.8056 C   0  0  1  0  0  0
  -28.4167  -25.7862   19.4836 C   0  0  0  0  0  0
  -25.5608  -33.7274   24.1059 N   0  0  0  0  0  0
  -23.4576  -29.7232   21.6014 C   0  0  2  0  0  0
  -24.9028  -26.9400   20.0230 C   0  0  0  0  0  0
  -22.5396  -29.3717   22.7106 C   0  0  0  0  0  0
  -17.9630  -28.1349   22.8304 C   0  0  0  0  0  0
  -24.1517  -36.6628   23.2581 C   0  0  0  0  0  0
  -26.6699  -29.5332   22.1371 C   0  0  0  0  0  0
  -26.9568  -27.7839   21.1572 C   0  0  0  0  0  0
  -28.3459  -27.0137   20.7590 C   0  0  0  0  0  0
  -26.9100  -25.0985   18.5556 C   0  0  0  0  0  0
  -25.1974  -25.6947   18.8823 C   0  0  0  0  0  0
  -23.3216  -28.1423   20.3261 C   0  0  0  0  0  0
  -25.4154  -36.2221   24.0148 C   0  0  1  0  0  0
  -20.4684  -28.3196   23.1877 C   0  0  2  0  0  0
  -20.5856  -26.8886   22.6273 C   0  0  0  0  0  0
  -19.5453  -26.6012   21.5477 C   0  0  0  0  0  0
  -18.1356  -26.8019   22.1157 C   0  0  0  0  0  0
  -19.0732  -28.8668   23.3021 C   0  0  0  0  0  0
  -18.8942  -30.1330   23.8984 C   0  0  0  0  0  0
  -17.6015  -30.6609   24.0516 C   0  0  0  0  0  0
  -25.9228  -34.8579   23.4737 C   0  0  0  0  0  0
  -16.4903  -29.9162   23.6147 C   0  0  0  0  0  0
  -16.6712  -28.6580   23.0110 C   0  0  0  0  0  0
  -26.4812  -31.6916   25.1650 C   0  0  0  0  0  0
  -25.3492  -31.4829   26.1933 C   0  0  0  0  0  0
  -27.1381  -30.3282   25.0049 C   0  0  0  0  0  0
  -27.5762  -32.5761   25.8022 C   0  0  0  0  0  0
  -27.5465  -37.1467   24.8446 C   0  0  0  0  0  0
  -21.2774  -29.2073   22.3936 N   0  0  0  0  0  0
  -26.4147  -37.3156   23.9394 N   0  0  0  0  0  0
  -25.0054  -30.3374   22.3570 N   0  0  0  0  0  0
  -22.9980  -29.0922   23.8142 O   0  0  0  0  0  0
  -29.4136  -26.3736   18.7982 O   0  0  0  0  0  0
  -26.6503  -34.8440   22.4833 O   0  0  0  0  0  0
  -23.6823  -31.9602   23.4082 O   0  0  0  0  0  0
  -25.6003  -26.0950   22.0946 C   0  0  0  0  0  0
  -24.9519  -27.8280   22.0525 C   0  0  0  0  0  0
  -26.8268  -27.2959   19.0171 C   0  0  0  0  0  0
  -26.5699  -25.3303   20.8002 C   0  0  0  0  0  0
  -25.3954  -29.1651   20.2232 C   0  0  0  0  0  0
  -26.2650  -28.6645   18.9483 C   0  0  0  0  0  0
  -25.4181  -27.9474   13.1435 C   0  0  0  0  0  0
  -26.5877  -28.8339   12.6617 C   0  0  0  0  0  0
  -26.3356  -33.9601   19.2483 C   0  0  0  0  0  0
  -25.0274  -33.7807   18.4908 C   0  0  0  0  0  0
  -25.8100  -27.4527   14.5401 C   0  0  0  0  0  0
  -27.5905  -28.8972   13.8235 C   0  0  0  0  0  0
  -26.6949  -32.5443   19.7585 C   0  0  0  0  0  0
  -25.1996  -32.3814   17.9103 C   0  0  0  0  0  0
  -26.7049  -28.6143   15.0344 C   0  0  0  0  0  0
  -29.5911  -20.6725   20.3188 C   0  0  0  0  0  0
  -27.6398  -22.7028   20.7144 C   0  0  0  0  0  0
  -24.9662  -30.6521   19.6774 C   0  0  0  0  0  0
  -26.4825  -29.1039   17.4317 C   0  0  0  0  0  0
  -28.1294  -27.0397   16.3604 C   0  0  0  0  0  0
  -29.3947  -26.7171   17.3354 C   0  0  0  0  0  0
  -28.2592  -20.0790   20.5097 N   0  0  0  0  0  0
  -25.8983  -31.5733   18.9523 N   0  3  0  0  0  0
  -27.4106  -28.4306   16.3429 N   0  3  1  0  0  0
  -30.6208  -15.5161   18.9665 H   0  0  0  0  0  0
  -30.6047  -14.6145   20.3825 H   0  0  0  0  0  0
  -30.4195  -13.0784   18.3963 H   0  0  0  0  0  0
  -29.2323  -14.0961   17.6536 H   0  0  0  0  0  0
  -28.8042  -12.0237   19.8000 H   0  0  0  0  0  0
  -27.8686  -12.2791   18.3083 H   0  0  0  0  0  0
  -27.1756  -14.3737   19.0923 H   0  0  0  0  0  0
  -28.8836  -14.4083   21.6262 H   0  0  0  0  0  0
  -27.4813  -15.3189   21.5141 H   0  0  0  0  0  0
  -25.2997   -9.5829   22.4766 H   0  0  0  0  0  0
  -24.0089   -7.4878   22.7521 H   0  0  0  0  0  0
  -21.1074   -8.9020   19.8975 H   0  0  0  0  0  0
  -22.4034  -10.9790   19.6044 H   0  0  0  0  0  0
  -21.2130   -7.6176   23.9690 H   0  0  0  0  0  0
  -21.1435   -6.0525   25.9020 H   0  0  0  0  0  0
  -22.0601   -2.7630   23.2841 H   0  0  0  0  0  0
  -22.3915  -11.9605   22.4975 H   0  0  0  0  0  0
  -21.0669  -13.0706   22.2643 H   0  0  0  0  0  0
  -24.4156  -15.9034   20.5072 H   0  0  0  0  0  0
  -26.0532  -15.7628   20.1224 H   0  0  0  0  0  0
  -26.8157  -32.3344   23.1016 H   0  0  0  0  0  0
  -24.9176  -33.8255   24.8769 H   0  0  0  0  0  0
  -22.8924  -30.5576   21.1750 H   0  0  0  0  0  0
  -23.3768  -35.8952   23.3003 H   0  0  0  0  0  0
  -24.3633  -36.8542   22.2048 H   0  0  0  0  0  0
  -23.7278  -37.5724   23.6849 H   0  0  0  0  0  0
  -27.4145  -30.2644   21.8349 H   0  0  0  0  0  0
  -27.0213  -29.0825   23.0373 H   0  0  0  0  0  0
  -29.2695  -27.4401   21.1139 H   0  0  0  0  0  0
  -27.0762  -24.4537   17.7094 H   0  0  0  0  0  0
  -24.3855  -25.3504   18.2621 H   0  0  0  0  0  0
  -23.0317  -28.5087   19.3398 H   0  0  0  0  0  0
  -22.4702  -27.5144   20.5832 H   0  0  0  0  0  0
  -25.1382  -36.0817   25.0604 H   0  0  0  0  0  0
  -20.8108  -28.2855   24.2248 H   0  0  0  0  0  0
  -20.4090  -26.1919   23.4473 H   0  0  0  0  0  0
  -21.5976  -26.6571   22.2985 H   0  0  0  0  0  0
  -19.6567  -25.5794   21.1863 H   0  0  0  0  0  0
  -19.7079  -27.2528   20.6883 H   0  0  0  0  0  0
  -17.4120  -26.7304   21.3030 H   0  0  0  0  0  0
  -17.8915  -26.0045   22.8166 H   0  0  0  0  0  0
  -19.7520  -30.6992   24.2388 H   0  0  0  0  0  0
  -17.4618  -31.6297   24.5122 H   0  0  0  0  0  0
  -15.4928  -30.3144   23.7360 H   0  0  0  0  0  0
  -15.8091  -28.1042   22.6619 H   0  0  0  0  0  0
  -24.5904  -30.7805   25.8469 H   0  0  0  0  0  0
  -24.8486  -32.4225   26.4274 H   0  0  0  0  0  0
  -25.7375  -31.0931   27.1353 H   0  0  0  0  0  0
  -26.3853  -29.5563   24.8412 H   0  0  0  0  0  0
  -27.6026  -30.0086   25.9384 H   0  0  0  0  0  0
  -27.9554  -30.3534   24.2821 H   0  0  0  0  0  0
  -27.1847  -33.5494   26.0987 H   0  0  0  0  0  0
  -28.4058  -32.7561   25.1170 H   0  0  0  0  0  0
  -27.9892  -32.1377   26.7121 H   0  0  0  0  0  0
  -28.2267  -37.9938   24.7490 H   0  0  0  0  0  0
  -28.1165  -36.2428   24.6236 H   0  0  0  0  0  0
  -27.2207  -37.1019   25.8854 H   0  0  0  0  0  0
  -20.9404  -29.4597   21.4730 H   0  0  0  0  0  0
  -25.9794  -38.2124   24.1380 H   0  0  0  0  0  0
  -25.4055  -25.5065   22.9796 H   0  0  0  0  0  0
  -24.6572  -28.0580   23.0419 H   0  0  0  0  0  0
  -27.5045  -27.3616   18.3158 H   0  0  0  0  0  0
  -25.1770  -27.1333   12.4541 H   0  0  0  0  0  0
  -24.5257  -28.5678   13.2478 H   0  0  0  0  0  0
  -26.2091  -29.8372   12.4465 H   0  0  0  0  0  0
  -27.0552  -28.4416   11.7572 H   0  0  0  0  0  0
  -26.2439  -34.7020   20.0417 H   0  0  0  0  0  0
  -27.1080  -34.3138   18.5605 H   0  0  0  0  0  0
  -24.8626  -34.5386   17.7241 H   0  0  0  0  0  0
  -24.1787  -33.8085   19.1794 H   0  0  0  0  0  0
  -26.3687  -26.5204   14.4365 H   0  0  0  0  0  0
  -24.9341  -27.2418   15.1613 H   0  0  0  0  0  0
  -28.1017  -29.8582   13.8902 H   0  0  0  0  0  0
  -28.3481  -28.1295   13.6735 H   0  0  0  0  0  0
  -26.5046  -32.4474   20.8239 H   0  0  0  0  0  0
  -27.7595  -32.3542   19.5964 H   0  0  0  0  0  0
  -25.8412  -32.4409   17.0278 H   0  0  0  0  0  0
  -24.2474  -31.9756   17.5561 H   0  0  0  0  0  0
  -26.0670  -29.4998   15.1039 H   0  0  0  0  0  0
  -29.6050  -21.2353   19.3844 H   0  0  0  0  0  0
  -30.4452  -20.0038   20.2682 H   0  0  0  0  0  0
  -29.8310  -21.3524   21.1355 H   0  0  0  0  0  0
  -28.5196  -23.0404   20.1637 H   0  0  0  0  0  0
  -27.9338  -22.7306   21.7656 H   0  0  0  0  0  0
  -24.5175  -31.4023   20.3161 H   0  0  0  0  0  0
  -24.1638  -30.4046   18.9830 H   0  0  0  0  0  0
  -26.7560  -30.1469   17.3244 H   0  0  0  0  0  0
  -25.4540  -29.0084   17.0674 H   0  0  0  0  0  0
  -27.3944  -26.2411   16.3902 H   0  0  0  0  0  0
  -28.5506  -26.9017   15.3694 H   0  0  0  0  0  0
  -30.0661  -27.5705   17.2421 H   0  0  0  0  0  0
  -29.9450  -25.9034   16.8741 H   0  0  0  0  0  0
  -26.5615  -30.9878   18.4776 H   0  0  0  0  0  0
  -28.1959  -29.0652   16.2928 H   0  0  0  0  0  0
  1 25  1  0  0  0
  1 30  2  0  0  0
  1 92  1  0  0  0
  2  3  1  0  0  0
  2 25  1  0  0  0
  2 95  1  0  0  0
  2 96  1  0  0  0
  3  4  1  0  0  0
  3 97  1  0  0  0
  3 98  1  0  0  0
  4  5  1  0  0  0
  4 99  1  0  0  0
  4100  1  0  0  0
  5  6  1  0  0  0
  5 26  1  0  0  0
  5101  1  0  0  0
  6 25  1  0  0  0
  6102  1  0  0  0
  6103  1  0  0  0
  7  8  2  0  0  0
  7 26  1  0  0  0
  7 29  1  0  0  0
  8  9  1  0  0  0
  8 22  1  0  0  0
  9 10  1  0  0  0
  9 27  2  0  0  0
 10 11  2  0  0  0
 10 15  1  0  0  0
 11 12  1  0  0  0
 11104  1  0  0  0
 12 13  2  0  0  0
 12105  1  0  0  0
 13 14  1  0  0  0
 13 31  1  0  0  0
 14 15  2  0  0  0
 14106  1  0  0  0
 15107  1  0  0  0
 16 17  2  0  0  0
 16 21  1  0  0  0
 16 31  1  0  0  0
 17 18  1  0  0  0
 17108  1  0  0  0
 18 19  2  0  0  0
 18109  1  0  0  0
 19 20  1  0  0  0
 19 24  1  0  0  0
 20 21  2  0  0  0
 20110  1  0  0  0
 21 23  1  0  0  0
 22 28  1  0  0  0
 22 32  2  0  0  0
 26 27  1  0  0  0
 28111  1  0  0  0
 28112  1  0  0  0
 29113  1  0  0  0
 29114  1  0  0  0
 33 34  1  0  0  0
 33 66  1  0  0  0
 33 70  2  0  0  0
 34 36  1  0  0  0
 34 59  1  0  0  0
 34115  1  0  0  0
 35 44  2  0  0  0
 35 45  1  0  0  0
 35 68  1  0  0  0
 36 56  1  0  0  0
 36116  1  0  0  0
 37 39  1  0  0  0
 37 47  1  0  0  0
 37 66  1  0  0  0
 37117  1  0  0  0
 38 43  2  0  0  0
 38 46  1  0  0  0
 38 47  1  0  0  0
 39 64  1  0  0  0
 39 67  2  0  0  0
 40 52  1  0  0  0
 40 53  2  0  0  0
 40 58  1  0  0  0
 41118  1  0  0  0
 41119  1  0  0  0
 41120  1  0  0  0
 41 48  1  0  0  0
 42 43  1  0  0  0
 42 66  1  0  0  0
 42121  1  0  0  0
 42122  1  0  0  0
 43 44  1  0  0  0
 44123  1  0  0  0
 45 46  2  0  0  0
 45124  1  0  0  0
 46125  1  0  0  0
 47126  1  0  0  0
 47127  1  0  0  0
 48 56  1  0  0  0
 48 65  1  0  0  0
 48128  1  0  0  0
 49 50  1  0  0  0
 49 53  1  0  0  0
 49 64  1  0  0  0
 49129  1  0  0  0
 50 51  1  0  0  0
 50130  1  0  0  0
 50131  1  0  0  0
 51 52  1  0  0  0
 51132  1  0  0  0
 51133  1  0  0  0
 52134  1  0  0  0
 52135  1  0  0  0
 53 54  1  0  0  0
 54 55  2  0  0  0
 54136  1  0  0  0
 55 57  1  0  0  0
 55137  1  0  0  0
 56 69  2  0  0  0
 57 58  2  0  0  0
 57138  1  0  0  0
 58139  1  0  0  0
 59 60  1  0  0  0
 59 61  1  0  0  0
 59 62  1  0  0  0
 60140  1  0  0  0
 60141  1  0  0  0
 60142  1  0  0  0
 61143  1  0  0  0
 61144  1  0  0  0
 61145  1  0  0  0
 62146  1  0  0  0
 62147  1  0  0  0
 62148  1  0  0  0
 63 65  1  0  0  0
 63149  1  0  0  0
 63150  1  0  0  0
 63151  1  0  0  0
 64152  1  0  0  0
 65153  1  0  0  0
 68 91  1  0  0  0
 71 72  2  0  0  0
 71 74  1  0  0  0
 71154  1  0  0  0
 72 75  1  0  0  0
 72155  1  0  0  0
 73 74  2  0  0  0
 73 76  1  0  0  0
 73156  1  0  0  0
 74 87  1  0  0  0
 75 76  2  0  0  0
 75 88  1  0  0  0
 76 89  1  0  0  0
 77 78  1  0  0  0
 77 81  1  0  0  0
 77157  1  0  0  0
 77158  1  0  0  0
 78 82  1  0  0  0
 78159  1  0  0  0
 78160  1  0  0  0
 79 80  1  0  0  0
 79 83  1  0  0  0
 79161  1  0  0  0
 79162  1  0  0  0
 80 84  1  0  0  0
 80163  1  0  0  0
 80164  1  0  0  0
 81165  1  0  0  0
 81166  1  0  0  0
 81 85  1  0  0  0
 82 85  1  0  0  0
 82167  1  0  0  0
 82168  1  0  0  0
 83 93  1  0  0  0
 83169  1  0  0  0
 83170  1  0  0  0
 84 93  1  0  0  0
 84171  1  0  0  0
 84172  1  0  0  0
 85 94  1  0  0  0
 85173  1  0  0  0
 86 92  1  0  0  0
 86174  1  0  0  0
 86175  1  0  0  0
 86176  1  0  0  0
 87 92  1  0  0  0
 87177  1  0  0  0
 87178  1  0  0  0
 88179  1  0  0  0
 88180  1  0  0  0
 88 93  1  0  0  0
 89181  1  0  0  0
 89182  1  0  0  0
 89 94  1  0  0  0
 90 91  1  0  0  0
 90 94  1  0  0  0
 90183  1  0  0  0
 90184  1  0  0  0
 91185  1  0  0  0
 91186  1  0  0  0
 93187  1  0  0  0
 94188  1  0  0  0
M  CHG  2  93   1  94   1
M  ISO  4   1 100  68 101  91 101  92 100
M  END
> <chiral flag>
0

> <version>
0

> <s_m_source_file>
/data/baiqing/PycharmProjects/Reinvent-master-3.2/result/LINK_invent/BTK/process_docking_weight1_custom_product_contain_oxygen_bond_distance_aromatic_linkinvent_7_9_3/rearranged_h_0019.sdf

> <i_m_source_file_index>
22

> <r_mmod_Potential_Energy-OPLS-2005>
33844.1796875

> <r_mmod_Stretch_Energy-OPLS-2005>
17763.2734375

> <r_mmod_Bend_Energy-OPLS-2005>
2066.12280273438

> <r_mmod_Torsional_Energy-OPLS-2005>
514.879150390625

> <r_mmod_Improper_Torsional_Energy-OPLS-2005>
35.4884605407715

> <r_mmod_Van_der_Waal_Energy-OPLS-2005>
5148.783203125

> <r_mmod_Electrostatic_Energy-OPLS-2005>
237.676712036133

> <r_mmod_Solvation_Energy-OPLS-2005>
-929.808898925781

> <b_mmod_Minimization_Converged-OPLS-2005>
0

> <r_mmod_RMS_Derivative-OPLS-2005>
16.1176071166992

$$$$
22
                    3D
 Structure written by MMmdl.
147155  0  0  1  0            999 V2000
  -30.2471  -15.8115   20.3265 C   0  0  0  0  0  0
  -30.4121  -13.2083   19.5566 C   0  0  0  0  0  0
  -29.5535  -12.7307   18.3425 C   0  0  0  0  0  0
  -28.1572  -12.2973   18.8030 C   0  0  0  0  0  0
  -27.5956  -13.3208   19.8109 C   0  0  2  0  0  0
  -28.5974  -13.7137   20.9261 C   0  0  0  0  0  0
  -25.2312  -13.8296   20.5787 C   0  0  0  0  0  0
  -24.1696  -13.0415   20.9297 C   0  0  0  0  0  0
  -24.6403  -11.6943   20.8732 C   0  0  0  0  0  0
  -23.9102  -10.4296   21.0364 C   0  0  0  0  0  0
  -24.3639   -9.4231   21.9166 C   0  0  0  0  0  0
  -23.6306   -8.2248   22.0749 C   0  0  0  0  0  0
  -22.4296   -8.0242   21.3512 C   0  0  0  0  0  0
  -21.9908   -9.0241   20.4626 C   0  0  0  0  0  0
  -22.7255  -10.2125   20.3030 C   0  0  0  0  0  0
  -21.6841   -6.0722   22.5288 C   0  0  0  0  0  0
  -21.4028   -6.5628   23.8226 C   0  0  0  0  0  0
  -21.3679   -5.6774   24.9187 C   0  0  0  0  0  0
  -21.6047   -4.3026   24.7223 C   0  0  0  0  0  0
  -21.8817   -3.8122   23.4354 C   0  0  0  0  0  0
  -21.9191   -4.6939   22.3403 C   0  0  0  0  0  0
  -22.7718  -13.5143   21.1958 C   0  0  0  0  0  0
  -22.1660   -4.2142   21.0979 F   0  0  0  0  0  0
  -21.5641   -3.4490   25.7740 F   0  0  0  0  0  0
  -29.7515  -14.4068   20.2835 N   0  0  0  0  0  0
  -26.2773  -12.9653   20.3196 N   0  0  0  0  0  0
  -25.9367  -11.6726   20.5690 N   0  0  0  0  0  0
  -22.0384  -12.8095   22.0525 N   0  0  0  0  0  0
  -25.3847  -15.2020   20.4192 N   0  0  0  0  0  0
  -31.4713  -15.7170   20.0945 O   0  0  0  0  0  0
  -21.6634   -6.8841   21.4235 O   0  0  0  0  0  0
  -22.3382  -14.5439   20.6788 O   0  0  0  0  0  0
  -24.6943  -31.7876   23.1363 C   0  0  0  0  0  0
  -25.9479  -32.4396   23.7987 C   0  0  1  0  0  0
  -27.2671  -26.6213   20.2052 C   0  0  0  0  0  0
  -25.6003  -33.8203   24.1859 N   0  0  0  0  0  0
  -23.5288  -30.3813   21.4932 C   0  0  2  0  0  0
  -24.9973  -28.7014   20.1221 C   0  0  0  0  0  0
  -22.7849  -29.4241   22.4674 C   0  0  0  0  0  0
  -18.0367  -28.1398   22.8447 C   0  0  0  0  0  0
  -24.1500  -36.7107   23.2642 C   0  0  0  0  0  0
  -26.1119  -30.4966   21.4128 C   0  0  0  0  0  0
  -26.1887  -29.0500   20.7662 C   0  0  0  0  0  0
  -27.3060  -28.0435   20.7672 C   0  0  0  0  0  0
  -26.0305  -26.5033   19.5144 C   0  0  0  0  0  0
  -24.9631  -27.4545   19.4727 C   0  0  0  0  0  0
  -23.7912  -29.6568   20.1386 C   0  0  0  0  0  0
  -25.4141  -36.2832   24.0275 C   0  0  1  0  0  0
  -20.6012  -28.3785   23.1090 C   0  0  2  0  0  0
  -20.6803  -26.9431   22.5378 C   0  0  0  0  0  0
  -19.5763  -26.6348   21.5191 C   0  0  0  0  0  0
  -18.1976  -26.7915   22.1627 C   0  0  0  0  0  0
  -19.1639  -28.8920   23.2758 C   0  0  0  0  0  0
  -18.9529  -30.1505   23.8812 C   0  0  0  0  0  0
  -17.6500  -30.6579   24.0546 C   0  0  0  0  0  0
  -25.9128  -34.9240   23.4902 C   0  0  0  0  0  0
  -16.5393  -29.9053   23.6335 C   0  0  0  0  0  0
  -16.7343  -28.6468   23.0375 C   0  0  0  0  0  0
  -26.4617  -31.6453   25.0650 C   0  0  0  0  0  0
  -25.3641  -31.3781   26.1241 C   0  0  0  0  0  0
  -27.0556  -30.2773   24.6612 C   0  0  0  0  0  0
  -27.6051  -32.4324   25.7475 C   0  0  0  0  0  0
  -27.5572  -37.1678   24.8430 C   0  0  0  0  0  0
  -21.4480  -29.3016   22.3426 N   0  0  0  0  0  0
  -26.4230  -37.3631   23.9443 N   0  0  0  0  0  0
  -24.8038  -30.9263   22.0648 N   0  0  0  0  0  0
  -23.4258  -28.7888   23.3081 O   0  0  0  0  0  0
  -28.2397  -25.3731   20.2095 O   0  0  0  0  0  0
  -26.5814  -34.8861   22.4540 O   0  0  0  0  0  0
  -23.5947  -32.0960   23.6276 O   0  0  0  0  0  0
  -29.9356  -21.8781   19.0474 C   0  0  0  0  0  0
  -30.6362  -20.6945   18.6250 C   0  0  0  0  0  0
  -28.8200  -20.3474   20.5117 C   0  0  0  0  0  0
  -28.9252  -21.9148   20.0425 C   0  0  0  0  0  0
  -29.5711  -18.9453   20.1145 C   0  0  0  0  0  0
  -30.4919  -19.3434   19.1031 C   0  0  0  0  0  0
  -28.4217  -17.0673   21.4923 C   0  0  0  0  0  0
  -28.0270  -23.5824   20.3106 C   0  0  0  0  0  0
  -29.5038  -17.2257   20.5139 N   0  0  0  0  0  0
  -31.2675  -18.3961   18.5302 F   0  0  0  0  0  0
  -31.4065  -13.4640   19.1949 H   0  0  0  0  0  0
  -30.5920  -12.3791   20.2462 H   0  0  0  0  0  0
  -30.0507  -11.9228   17.8047 H   0  0  0  0  0  0
  -29.4529  -13.5567   17.6382 H   0  0  0  0  0  0
  -28.2519  -11.3274   19.2931 H   0  0  0  0  0  0
  -27.4866  -12.1534   17.9562 H   0  0  0  0  0  0
  -27.4428  -14.2140   19.2069 H   0  0  0  0  0  0
  -28.8901  -12.8552   21.5297 H   0  0  0  0  0  0
  -28.1031  -14.3837   21.6223 H   0  0  0  0  0  0
  -25.2774   -9.5685   22.4736 H   0  0  0  0  0  0
  -23.9999   -7.4637   22.7458 H   0  0  0  0  0  0
  -21.0842   -8.8749   19.8923 H   0  0  0  0  0  0
  -22.3710  -10.9651   19.6096 H   0  0  0  0  0  0
  -21.2032   -7.6137   23.9708 H   0  0  0  0  0  0
  -21.1507   -6.0519   25.9088 H   0  0  0  0  0  0
  -22.0569   -2.7588   23.2858 H   0  0  0  0  0  0
  -22.4037  -11.9792   22.4948 H   0  0  0  0  0  0
  -21.0982  -13.1112   22.2648 H   0  0  0  0  0  0
  -24.6050  -15.8450   20.5110 H   0  0  0  0  0  0
  -26.2244  -15.6430   20.0699 H   0  0  0  0  0  0
  -26.7590  -32.4900   23.0738 H   0  0  0  0  0  0
  -25.0060  -33.9200   24.9957 H   0  0  0  0  0  0
  -22.8553  -31.2165   21.2874 H   0  0  0  0  0  0
  -23.3794  -35.9393   23.3157 H   0  0  0  0  0  0
  -24.3569  -36.8910   22.2079 H   0  0  0  0  0  0
  -23.7212  -37.6228   23.6795 H   0  0  0  0  0  0
  -26.3098  -31.2130   20.6164 H   0  0  0  0  0  0
  -26.9580  -30.5842   22.0809 H   0  0  0  0  0  0
  -28.2106  -28.3408   21.2847 H   0  0  0  0  0  0
  -25.8538  -25.5670   19.0059 H   0  0  0  0  0  0
  -24.0666  -27.1677   18.9396 H   0  0  0  0  0  0
  -23.9681  -30.4000   19.3613 H   0  0  0  0  0  0
  -22.8976  -29.1141   19.8301 H   0  0  0  0  0  0
  -25.1330  -36.1538   25.0756 H   0  0  0  0  0  0
  -21.0084  -28.3411   24.1215 H   0  0  0  0  0  0
  -20.5601  -26.2439   23.3688 H   0  0  0  0  0  0
  -21.6690  -26.7315   22.1260 H   0  0  0  0  0  0
  -19.6941  -25.6235   21.1278 H   0  0  0  0  0  0
  -19.6706  -27.3120   20.6706 H   0  0  0  0  0  0
  -17.4249  -26.6665   21.4040 H   0  0  0  0  0  0
  -18.0387  -26.0080   22.9046 H   0  0  0  0  0  0
  -19.8009  -30.7352   24.2141 H   0  0  0  0  0  0
  -17.5056  -31.6257   24.5166 H   0  0  0  0  0  0
  -15.5397  -30.2938   23.7647 H   0  0  0  0  0  0
  -15.8765  -28.0738   22.7114 H   0  0  0  0  0  0
  -24.5906  -30.7055   25.7508 H   0  0  0  0  0  0
  -24.8779  -32.3019   26.4381 H   0  0  0  0  0  0
  -25.7804  -30.9141   27.0195 H   0  0  0  0  0  0
  -26.3315  -29.6363   24.1605 H   0  0  0  0  0  0
  -27.3924  -29.7237   25.5378 H   0  0  0  0  0  0
  -27.9295  -30.3824   24.0188 H   0  0  0  0  0  0
  -27.2542  -33.3629   26.1929 H   0  0  0  0  0  0
  -28.3928  -32.6874   25.0367 H   0  0  0  0  0  0
  -28.0697  -31.8588   26.5512 H   0  0  0  0  0  0
  -28.2423  -38.0135   24.7675 H   0  0  0  0  0  0
  -28.1249  -36.2680   24.5991 H   0  0  0  0  0  0
  -27.2350  -37.0992   25.8840 H   0  0  0  0  0  0
  -20.9803  -29.8704   21.6522 H   0  0  0  0  0  0
  -26.0032  -38.2628   24.1604 H   0  0  0  0  0  0
  -30.1760  -22.8033   18.5457 H   0  0  0  0  0  0
  -31.3583  -20.8252   17.8300 H   0  0  0  0  0  0
  -28.0505  -20.2120   21.2559 H   0  0  0  0  0  0
  -28.6706  -16.3701   22.2970 H   0  0  0  0  0  0
  -27.5088  -16.7411   20.9926 H   0  0  0  0  0  0
  -28.1976  -18.0070   22.0082 H   0  0  0  0  0  0
  -27.1315  -23.4285   19.7085 H   0  0  0  0  0  0
  -27.6750  -23.4682   21.3358 H   0  0  0  0  0  0
  1 25  1  0  0  0
  1 30  2  0  0  0
  1 79  1  0  0  0
  2  3  1  0  0  0
  2 25  1  0  0  0
  2 81  1  0  0  0
  2 82  1  0  0  0
  3  4  1  0  0  0
  3 83  1  0  0  0
  3 84  1  0  0  0
  4  5  1  0  0  0
  4 85  1  0  0  0
  4 86  1  0  0  0
  5  6  1  0  0  0
  5 26  1  0  0  0
  5 87  1  0  0  0
  6 25  1  0  0  0
  6 88  1  0  0  0
  6 89  1  0  0  0
  7  8  2  0  0  0
  7 26  1  0  0  0
  7 29  1  0  0  0
  8  9  1  0  0  0
  8 22  1  0  0  0
  9 10  1  0  0  0
  9 27  2  0  0  0
 10 11  2  0  0  0
 10 15  1  0  0  0
 11 12  1  0  0  0
 11 90  1  0  0  0
 12 13  2  0  0  0
 12 91  1  0  0  0
 13 14  1  0  0  0
 13 31  1  0  0  0
 14 15  2  0  0  0
 14 92  1  0  0  0
 15 93  1  0  0  0
 16 17  2  0  0  0
 16 21  1  0  0  0
 16 31  1  0  0  0
 17 18  1  0  0  0
 17 94  1  0  0  0
 18 19  2  0  0  0
 18 95  1  0  0  0
 19 20  1  0  0  0
 19 24  1  0  0  0
 20 21  2  0  0  0
 20 96  1  0  0  0
 21 23  1  0  0  0
 22 28  1  0  0  0
 22 32  2  0  0  0
 26 27  1  0  0  0
 28 97  1  0  0  0
 28 98  1  0  0  0
 29 99  1  0  0  0
 29100  1  0  0  0
 33 34  1  0  0  0
 33 66  1  0  0  0
 33 70  2  0  0  0
 34 36  1  0  0  0
 34 59  1  0  0  0
 34101  1  0  0  0
 35 44  2  0  0  0
 35 45  1  0  0  0
 35 68  1  0  0  0
 36 56  1  0  0  0
 36102  1  0  0  0
 37 39  1  0  0  0
 37 47  1  0  0  0
 37 66  1  0  0  0
 37103  1  0  0  0
 38 43  2  0  0  0
 38 46  1  0  0  0
 38 47  1  0  0  0
 39 64  1  0  0  0
 39 67  2  0  0  0
 40 52  1  0  0  0
 40 53  2  0  0  0
 40 58  1  0  0  0
 41104  1  0  0  0
 41105  1  0  0  0
 41106  1  0  0  0
 41 48  1  0  0  0
 42 43  1  0  0  0
 42 66  1  0  0  0
 42107  1  0  0  0
 42108  1  0  0  0
 43 44  1  0  0  0
 44109  1  0  0  0
 45 46  2  0  0  0
 45110  1  0  0  0
 46111  1  0  0  0
 47112  1  0  0  0
 47113  1  0  0  0
 48 56  1  0  0  0
 48 65  1  0  0  0
 48114  1  0  0  0
 49 50  1  0  0  0
 49 53  1  0  0  0
 49 64  1  0  0  0
 49115  1  0  0  0
 50 51  1  0  0  0
 50116  1  0  0  0
 50117  1  0  0  0
 51 52  1  0  0  0
 51118  1  0  0  0
 51119  1  0  0  0
 52120  1  0  0  0
 52121  1  0  0  0
 53 54  1  0  0  0
 54 55  2  0  0  0
 54122  1  0  0  0
 55 57  1  0  0  0
 55123  1  0  0  0
 56 69  2  0  0  0
 57 58  2  0  0  0
 57124  1  0  0  0
 58125  1  0  0  0
 59 60  1  0  0  0
 59 61  1  0  0  0
 59 62  1  0  0  0
 60126  1  0  0  0
 60127  1  0  0  0
 60128  1  0  0  0
 61129  1  0  0  0
 61130  1  0  0  0
 61131  1  0  0  0
 62132  1  0  0  0
 62133  1  0  0  0
 62134  1  0  0  0
 63 65  1  0  0  0
 63135  1  0  0  0
 63136  1  0  0  0
 63137  1  0  0  0
 64138  1  0  0  0
 65139  1  0  0  0
 68 78  1  0  0  0
 71 72  2  0  0  0
 71 74  1  0  0  0
 71140  1  0  0  0
 72 76  1  0  0  0
 72141  1  0  0  0
 73 74  2  0  0  0
 73 75  1  0  0  0
 73142  1  0  0  0
 74 78  1  0  0  0
 75 76  2  0  0  0
 75 79  1  0  0  0
 76 80  1  0  0  0
 77 79  1  0  0  0
 77143  1  0  0  0
 77144  1  0  0  0
 77145  1  0  0  0
 78146  1  0  0  0
 78147  1  0  0  0
M  ISO  4   1 100  68 101  78 101  79 100
M  END
> <chiral flag>
0

> <version>
0

> <s_m_source_file>
/data/baiqing/PycharmProjects/Reinvent-master-3.2/result/LINK_invent/BTK/process_docking_weight1_custom_product_contain_oxygen_bond_distance_aromatic_linkinvent_7_9_3/rearranged_h_0019.sdf

> <i_m_source_file_index>
23

> <r_mmod_Potential_Energy-OPLS-2005>
2980.99536132812

> <r_mmod_Stretch_Energy-OPLS-2005>
1271.27221679688

> <r_mmod_Bend_Energy-OPLS-2005>
666.826293945312

> <r_mmod_Torsional_Energy-OPLS-2005>
278.507843017578

> <r_mmod_Improper_Torsional_Energy-OPLS-2005>
3.03380751609802

> <r_mmod_Van_der_Waal_Energy-OPLS-2005>
129.183166503906

> <r_mmod_Electrostatic_Energy-OPLS-2005>
-299.002777099609

> <r_mmod_Solvation_Energy-OPLS-2005>
-198.279937744141

> <b_mmod_Minimization_Converged-OPLS-2005>
0

> <r_mmod_RMS_Derivative-OPLS-2005>
7.07770442962646

$$$$
23
                    3D
 Structure written by MMmdl.
152160  0  0  1  0            999 V2000
  -30.5241  -14.9140   20.4248 C   0  0  0  0  0  0
  -30.4496  -12.5628   19.4915 C   0  0  0  0  0  0
  -29.5227  -12.5333   18.2527 C   0  0  0  0  0  0
  -28.0560  -12.3214   18.6719 C   0  0  0  0  0  0
  -27.6396  -13.2411   19.8490 C   0  0  2  0  0  0
  -28.6832  -13.2337   20.9874 C   0  0  0  0  0  0
  -25.2509  -13.8204   20.5718 C   0  0  0  0  0  0
  -24.1804  -13.0440   20.9192 C   0  0  0  0  0  0
  -24.6419  -11.6924   20.8756 C   0  0  0  0  0  0
  -23.9099  -10.4292   21.0419 C   0  0  0  0  0  0
  -24.3644   -9.4207   21.9195 C   0  0  0  0  0  0
  -23.6311   -8.2248   22.0767 C   0  0  0  0  0  0
  -22.4285   -8.0296   21.3551 C   0  0  0  0  0  0
  -21.9934   -9.0269   20.4650 C   0  0  0  0  0  0
  -22.7274  -10.2145   20.3063 C   0  0  0  0  0  0
  -21.6855   -6.0751   22.5276 C   0  0  0  0  0  0
  -21.4016   -6.5654   23.8211 C   0  0  0  0  0  0
  -21.3653   -5.6803   24.9166 C   0  0  0  0  0  0
  -21.6049   -4.3067   24.7215 C   0  0  0  0  0  0
  -21.8819   -3.8162   23.4332 C   0  0  0  0  0  0
  -21.9192   -4.6982   22.3394 C   0  0  0  0  0  0
  -22.7820  -13.5225   21.1845 C   0  0  0  0  0  0
  -22.1661   -4.2174   21.0967 F   0  0  0  0  0  0
  -21.5625   -3.4549   25.7723 F   0  0  0  0  0  0
  -29.9668  -13.6399   20.3991 N   0  0  0  0  0  0
  -26.2944  -12.9430   20.3294 N   0  0  0  0  0  0
  -25.9355  -11.6565   20.5763 N   0  0  0  0  0  0
  -22.0473  -12.8204   22.0406 N   0  0  0  0  0  0
  -25.4188  -15.1937   20.4193 N   0  0  0  0  0  0
  -31.7125  -15.0319   20.1071 O   0  0  0  0  0  0
  -21.6640   -6.8900   21.4244 O   0  0  0  0  0  0
  -22.3507  -14.5526   20.6698 O   0  0  0  0  0  0
  -24.6410  -31.8434   23.1899 C   0  0  0  0  0  0
  -25.9190  -32.4692   23.8273 C   0  0  1  0  0  0
  -27.2235  -27.1559   20.1377 C   0  0  0  0  0  0
  -25.5950  -33.8501   24.2198 N   0  0  0  0  0  0
  -23.4431  -30.4661   21.5326 C   0  0  2  0  0  0
  -24.8925  -28.8947   20.1080 C   0  0  0  0  0  0
  -22.7568  -29.4546   22.4842 C   0  0  0  0  0  0
  -18.0303  -28.1390   22.8441 C   0  0  0  0  0  0
  -24.1493  -36.7256   23.2649 C   0  0  0  0  0  0
  -25.9968  -30.7269   21.3834 C   0  0  0  0  0  0
  -26.0679  -29.3397   20.7232 C   0  0  0  0  0  0
  -27.2286  -28.4837   20.7265 C   0  0  0  0  0  0
  -26.0165  -26.8038   19.4929 C   0  0  0  0  0  0
  -24.8778  -27.6379   19.4845 C   0  0  0  0  0  0
  -23.6701  -29.7971   20.1507 C   0  0  0  0  0  0
  -25.4115  -36.3037   24.0337 C   0  0  1  0  0  0
  -20.5912  -28.3706   23.1228 C   0  0  2  0  0  0
  -20.6779  -26.9408   22.5404 C   0  0  0  0  0  0
  -19.5764  -26.6367   21.5200 C   0  0  0  0  0  0
  -18.1942  -26.7921   22.1598 C   0  0  0  0  0  0
  -19.1561  -28.8860   23.2822 C   0  0  0  0  0  0
  -18.9487  -30.1448   23.8855 C   0  0  0  0  0  0
  -17.6493  -30.6575   24.0548 C   0  0  0  0  0  0
  -25.9074  -34.9412   23.5078 C   0  0  0  0  0  0
  -16.5376  -29.9071   23.6335 C   0  0  0  0  0  0
  -16.7294  -28.6505   23.0324 C   0  0  0  0  0  0
  -26.4525  -31.6549   25.0703 C   0  0  0  0  0  0
  -25.3723  -31.3745   26.1416 C   0  0  0  0  0  0
  -27.0406  -30.2956   24.6267 C   0  0  0  0  0  0
  -27.6042  -32.4319   25.7482 C   0  0  0  0  0  0
  -27.5575  -37.1770   24.8464 C   0  0  0  0  0  0
  -21.4263  -29.3048   22.3617 N   0  0  0  0  0  0
  -26.4266  -37.3756   23.9437 N   0  0  0  0  0  0
  -24.7134  -31.0326   22.0915 N   0  0  0  0  0  0
  -23.4229  -28.8117   23.2993 O   0  0  0  0  0  0
  -28.3041  -26.2109   20.2404 O   0  0  0  0  0  0
  -26.5653  -34.8913   22.4653 O   0  0  0  0  0  0
  -23.5534  -32.1276   23.7151 O   0  0  0  0  0  0
  -30.6158  -19.7982   19.7829 C   0  0  0  0  0  0
  -30.7261  -18.3596   19.9412 C   0  0  0  0  0  0
  -28.4713  -19.8011   20.7349 C   0  0  0  0  0  0
  -29.4918  -20.6363   20.1646 C   0  0  0  0  0  0
  -29.6947  -17.5436   20.4909 C   0  0  0  0  0  0
  -28.5644  -18.3508   20.8766 C   0  0  0  0  0  0
  -30.7553  -22.6115   19.4647 C   0  0  0  0  0  0
  -28.5881  -23.2981   20.4998 C   0  0  0  0  0  0
  -28.3524  -24.7628   19.6801 C   0  0  0  0  0  0
  -29.6754  -16.0219   20.6532 N   0  0  0  0  0  0
  -29.4558  -22.1237   19.9374 N   0  0  0  0  0  0
  -27.5001  -17.6990   21.4040 F   0  0  0  0  0  0
  -31.4820  -12.7272   19.1778 H   0  0  0  0  0  0
  -30.4427  -11.5993   20.0035 H   0  0  0  0  0  0
  -29.8331  -11.7462   17.5643 H   0  0  0  0  0  0
  -29.6136  -13.4725   17.7048 H   0  0  0  0  0  0
  -27.9457  -11.2778   18.9673 H   0  0  0  0  0  0
  -27.3909  -12.4692   17.8207 H   0  0  0  0  0  0
  -27.6135  -14.2503   19.4376 H   0  0  0  0  0  0
  -28.7592  -12.2489   21.4506 H   0  0  0  0  0  0
  -28.3880  -13.9219   21.7811 H   0  0  0  0  0  0
  -25.2794   -9.5677   22.4765 H   0  0  0  0  0  0
  -24.0017   -7.4643   22.7494 H   0  0  0  0  0  0
  -21.0866   -8.8806   19.8952 H   0  0  0  0  0  0
  -22.3752  -10.9692   19.6175 H   0  0  0  0  0  0
  -21.2013   -7.6162   23.9723 H   0  0  0  0  0  0
  -21.1474   -6.0526   25.9070 H   0  0  0  0  0  0
  -22.0604   -2.7630   23.2818 H   0  0  0  0  0  0
  -22.4100  -11.9858   22.4759 H   0  0  0  0  0  0
  -21.1101  -13.1239   22.2635 H   0  0  0  0  0  0
  -24.6603  -15.8487   20.5679 H   0  0  0  0  0  0
  -26.2797  -15.6509   20.1507 H   0  0  0  0  0  0
  -26.7253  -32.5304   23.0996 H   0  0  0  0  0  0
  -25.0092  -33.9610   25.0344 H   0  0  0  0  0  0
  -22.7433  -31.2913   21.3798 H   0  0  0  0  0  0
  -23.3767  -35.9569   23.3270 H   0  0  0  0  0  0
  -24.3593  -36.8919   22.2074 H   0  0  0  0  0  0
  -23.7234  -37.6443   23.6695 H   0  0  0  0  0  0
  -26.1493  -31.4857   20.6145 H   0  0  0  0  0  0
  -26.8688  -30.7764   22.0242 H   0  0  0  0  0  0
  -28.1218  -28.8202   21.2351 H   0  0  0  0  0  0
  -25.8984  -25.8420   19.0229 H   0  0  0  0  0  0
  -23.9760  -27.2853   19.0034 H   0  0  0  0  0  0
  -23.8116  -30.5730   19.3972 H   0  0  0  0  0  0
  -22.7844  -29.2439   19.8351 H   0  0  0  0  0  0
  -25.1294  -36.1855   25.0826 H   0  0  0  0  0  0
  -20.9972  -28.3284   24.1360 H   0  0  0  0  0  0
  -20.5644  -26.2328   23.3626 H   0  0  0  0  0  0
  -21.6648  -26.7397   22.1223 H   0  0  0  0  0  0
  -19.6935  -25.6281   21.1228 H   0  0  0  0  0  0
  -19.6705  -27.3163   20.6722 H   0  0  0  0  0  0
  -17.4217  -26.6652   21.4003 H   0  0  0  0  0  0
  -18.0328  -26.0074   22.9004 H   0  0  0  0  0  0
  -19.7981  -30.7246   24.2205 H   0  0  0  0  0  0
  -17.5069  -31.6251   24.5158 H   0  0  0  0  0  0
  -15.5378  -30.2961   23.7693 H   0  0  0  0  0  0
  -15.8695  -28.0825   22.7034 H   0  0  0  0  0  0
  -24.5914  -30.7070   25.7761 H   0  0  0  0  0  0
  -24.8898  -32.2932   26.4760 H   0  0  0  0  0  0
  -25.8011  -30.8990   27.0245 H   0  0  0  0  0  0
  -26.3033  -29.6659   24.1277 H   0  0  0  0  0  0
  -27.4067  -29.7281   25.4835 H   0  0  0  0  0  0
  -27.8907  -30.4235   23.9560 H   0  0  0  0  0  0
  -27.2638  -33.3661   26.1966 H   0  0  0  0  0  0
  -28.3886  -32.6804   25.0319 H   0  0  0  0  0  0
  -28.0664  -31.8506   26.5477 H   0  0  0  0  0  0
  -28.2547  -38.0110   24.7542 H   0  0  0  0  0  0
  -28.1118  -36.2638   24.6221 H   0  0  0  0  0  0
  -27.2311  -37.1329   25.8872 H   0  0  0  0  0  0
  -20.9470  -29.8823   21.6854 H   0  0  0  0  0  0
  -26.0140  -38.2821   24.1454 H   0  0  0  0  0  0
  -31.4802  -20.2467   19.3186 H   0  0  0  0  0  0
  -31.6352  -17.8786   19.6103 H   0  0  0  0  0  0
  -27.5568  -20.2699   21.0671 H   0  0  0  0  0  0
  -30.9828  -22.2250   18.4702 H   0  0  0  0  0  0
  -31.5522  -22.3130   20.1473 H   0  0  0  0  0  0
  -30.8206  -23.6948   19.4033 H   0  0  0  0  0  0
  -27.6016  -22.8949   20.7344 H   0  0  0  0  0  0
  -29.0175  -23.5435   21.4710 H   0  0  0  0  0  0
  -27.5102  -24.5937   19.0169 H   0  0  0  0  0  0
  -29.1656  -24.8529   18.9647 H   0  0  0  0  0  0
  -28.7695  -15.7009   20.9602 H   0  0  0  0  0  0
  1 25  1  0  0  0
  1 30  2  0  0  0
  1 80  1  0  0  0
  2  3  1  0  0  0
  2 25  1  0  0  0
  2 83  1  0  0  0
  2 84  1  0  0  0
  3  4  1  0  0  0
  3 85  1  0  0  0
  3 86  1  0  0  0
  4  5  1  0  0  0
  4 87  1  0  0  0
  4 88  1  0  0  0
  5  6  1  0  0  0
  5 26  1  0  0  0
  5 89  1  0  0  0
  6 25  1  0  0  0
  6 90  1  0  0  0
  6 91  1  0  0  0
  7  8  2  0  0  0
  7 26  1  0  0  0
  7 29  1  0  0  0
  8  9  1  0  0  0
  8 22  1  0  0  0
  9 10  1  0  0  0
  9 27  2  0  0  0
 10 11  2  0  0  0
 10 15  1  0  0  0
 11 12  1  0  0  0
 11 92  1  0  0  0
 12 13  2  0  0  0
 12 93  1  0  0  0
 13 14  1  0  0  0
 13 31  1  0  0  0
 14 15  2  0  0  0
 14 94  1  0  0  0
 15 95  1  0  0  0
 16 17  2  0  0  0
 16 21  1  0  0  0
 16 31  1  0  0  0
 17 18  1  0  0  0
 17 96  1  0  0  0
 18 19  2  0  0  0
 18 97  1  0  0  0
 19 20  1  0  0  0
 19 24  1  0  0  0
 20 21  2  0  0  0
 20 98  1  0  0  0
 21 23  1  0  0  0
 22 28  1  0  0  0
 22 32  2  0  0  0
 26 27  1  0  0  0
 28 99  1  0  0  0
 28100  1  0  0  0
 29101  1  0  0  0
 29102  1  0  0  0
 33 34  1  0  0  0
 33 66  1  0  0  0
 33 70  2  0  0  0
 34 36  1  0  0  0
 34 59  1  0  0  0
 34103  1  0  0  0
 35 44  2  0  0  0
 35 45  1  0  0  0
 35 68  1  0  0  0
 36 56  1  0  0  0
 36104  1  0  0  0
 37 39  1  0  0  0
 37 47  1  0  0  0
 37 66  1  0  0  0
 37105  1  0  0  0
 38 43  2  0  0  0
 38 46  1  0  0  0
 38 47  1  0  0  0
 39 64  1  0  0  0
 39 67  2  0  0  0
 40 52  1  0  0  0
 40 53  2  0  0  0
 40 58  1  0  0  0
 41106  1  0  0  0
 41107  1  0  0  0
 41108  1  0  0  0
 41 48  1  0  0  0
 42 43  1  0  0  0
 42 66  1  0  0  0
 42109  1  0  0  0
 42110  1  0  0  0
 43 44  1  0  0  0
 44111  1  0  0  0
 45 46  2  0  0  0
 45112  1  0  0  0
 46113  1  0  0  0
 47114  1  0  0  0
 47115  1  0  0  0
 48 56  1  0  0  0
 48 65  1  0  0  0
 48116  1  0  0  0
 49 50  1  0  0  0
 49 53  1  0  0  0
 49 64  1  0  0  0
 49117  1  0  0  0
 50 51  1  0  0  0
 50118  1  0  0  0
 50119  1  0  0  0
 51 52  1  0  0  0
 51120  1  0  0  0
 51121  1  0  0  0
 52122  1  0  0  0
 52123  1  0  0  0
 53 54  1  0  0  0
 54 55  2  0  0  0
 54124  1  0  0  0
 55 57  1  0  0  0
 55125  1  0  0  0
 56 69  2  0  0  0
 57 58  2  0  0  0
 57126  1  0  0  0
 58127  1  0  0  0
 59 60  1  0  0  0
 59 61  1  0  0  0
 59 62  1  0  0  0
 60128  1  0  0  0
 60129  1  0  0  0
 60130  1  0  0  0
 61131  1  0  0  0
 61132  1  0  0  0
 61133  1  0  0  0
 62134  1  0  0  0
 62135  1  0  0  0
 62136  1  0  0  0
 63 65  1  0  0  0
 63137  1  0  0  0
 63138  1  0  0  0
 63139  1  0  0  0
 64140  1  0  0  0
 65141  1  0  0  0
 68 79  1  0  0  0
 71 72  2  0  0  0
 71 74  1  0  0  0
 71142  1  0  0  0
 72 75  1  0  0  0
 72143  1  0  0  0
 73 74  2  0  0  0
 73 76  1  0  0  0
 73144  1  0  0  0
 74 81  1  0  0  0
 75 76  2  0  0  0
 75 80  1  0  0  0
 76 82  1  0  0  0
 77 81  1  0  0  0
 77145  1  0  0  0
 77146  1  0  0  0
 77147  1  0  0  0
 78 79  1  0  0  0
 78 81  1  0  0  0
 78148  1  0  0  0
 78149  1  0  0  0
 79150  1  0  0  0
 79151  1  0  0  0
 80152  1  0  0  0
M  ISO  4   1 100  68 101  79 101  80 100
M  END
> <chiral flag>
0

> <version>
0

> <s_m_source_file>
/data/baiqing/PycharmProjects/Reinvent-master-3.2/result/LINK_invent/BTK/process_docking_weight1_custom_product_contain_oxygen_bond_distance_aromatic_linkinvent_7_9_3/rearranged_h_0019.sdf

> <i_m_source_file_index>
24

> <r_mmod_Potential_Energy-OPLS-2005>
422.703674316406

> <r_mmod_Stretch_Energy-OPLS-2005>
226.532485961914

> <r_mmod_Bend_Energy-OPLS-2005>
287.821533203125

> <r_mmod_Torsional_Energy-OPLS-2005>
202.968505859375

> <r_mmod_Improper_Torsional_Energy-OPLS-2005>
4.99595546722412

> <r_mmod_Van_der_Waal_Energy-OPLS-2005>
146.032180786133

> <r_mmod_Electrostatic_Energy-OPLS-2005>
-393.502685546875

> <r_mmod_Solvation_Energy-OPLS-2005>
-222.135986328125

> <b_mmod_Minimization_Converged-OPLS-2005>
0

> <r_mmod_RMS_Derivative-OPLS-2005>
2.36566257476807

$$$$
24
                    3D
 Structure written by MMmdl.
167176  0  0  1  0            999 V2000
  -30.7618  -14.4577   20.6481 C   0  0  0  0  0  0
  -30.4136  -12.3281   19.4269 C   0  0  0  0  0  0
  -29.4898  -12.5221   18.2099 C   0  0  0  0  0  0
  -28.0158  -12.3649   18.6230 C   0  0  0  0  0  0
  -27.6592  -13.2137   19.8711 C   0  0  2  0  0  0
  -28.6976  -13.0232   20.9993 C   0  0  0  0  0  0
  -25.2575  -13.8154   20.5680 C   0  0  0  0  0  0
  -24.1834  -13.0421   20.9171 C   0  0  0  0  0  0
  -24.6391  -11.6892   20.8713 C   0  0  0  0  0  0
  -23.9053  -10.4274   21.0394 C   0  0  0  0  0  0
  -24.3606   -9.4189   21.9178 C   0  0  0  0  0  0
  -23.6271   -8.2233   22.0757 C   0  0  0  0  0  0
  -22.4255   -8.0280   21.3549 C   0  0  0  0  0  0
  -21.9887   -9.0245   20.4645 C   0  0  0  0  0  0
  -22.7219  -10.2120   20.3047 C   0  0  0  0  0  0
  -21.6844   -6.0729   22.5289 C   0  0  0  0  0  0
  -21.4024   -6.5638   23.8226 C   0  0  0  0  0  0
  -21.3648   -5.6790   24.9189 C   0  0  0  0  0  0
  -21.6036   -4.3054   24.7233 C   0  0  0  0  0  0
  -21.8810   -3.8144   23.4350 C   0  0  0  0  0  0
  -21.9187   -4.6964   22.3406 C   0  0  0  0  0  0
  -22.7860  -13.5221   21.1835 C   0  0  0  0  0  0
  -22.1649   -4.2148   21.0985 F   0  0  0  0  0  0
  -21.5608   -3.4537   25.7739 F   0  0  0  0  0  0
  -30.0383  -13.3116   20.4601 N   0  0  0  0  0  0
  -26.3025  -12.9345   20.3349 N   0  0  0  0  0  0
  -25.9321  -11.6489   20.5741 N   0  0  0  0  0  0
  -22.0490  -12.8239   22.0399 N   0  0  0  0  0  0
  -25.4271  -15.1879   20.4104 N   0  0  0  0  0  0
  -31.7869  -14.6871   19.9992 O   0  0  0  0  0  0
  -21.6618   -6.8871   21.4251 O   0  0  0  0  0  0
  -22.3545  -14.5520   20.6670 O   0  0  0  0  0  0
  -24.6162  -31.8657   23.2075 C   0  0  0  0  0  0
  -25.9046  -32.4809   23.8382 C   0  0  1  0  0  0
  -27.2298  -27.4111   20.1053 C   0  0  0  0  0  0
  -25.5895  -33.8609   24.2321 N   0  0  0  0  0  0
  -23.4060  -30.4882   21.5485 C   0  0  2  0  0  0
  -24.8533  -28.9520   20.1124 C   0  0  0  0  0  0
  -22.7426  -29.4637   22.4973 C   0  0  0  0  0  0
  -18.0276  -28.1378   22.8487 C   0  0  0  0  0  0
  -24.1493  -36.7307   23.2637 C   0  0  0  0  0  0
  -25.9367  -30.8260   21.3627 C   0  0  0  0  0  0
  -26.0143  -29.4602   20.7077 C   0  0  0  0  0  0
  -27.2094  -28.6991   20.6927 C   0  0  0  0  0  0
  -26.0523  -26.9251   19.4981 C   0  0  0  0  0  0
  -24.8681  -27.6864   19.5011 C   0  0  0  0  0  0
  -23.6151  -29.8195   20.1632 C   0  0  0  0  0  0
  -25.4110  -36.3097   24.0337 C   0  0  1  0  0  0
  -20.5871  -28.3657   23.1324 C   0  0  2  0  0  0
  -20.6760  -26.9393   22.5416 C   0  0  0  0  0  0
  -19.5738  -26.6381   21.5211 C   0  0  0  0  0  0
  -18.1922  -26.7924   22.1627 C   0  0  0  0  0  0
  -19.1525  -28.8834   23.2904 C   0  0  0  0  0  0
  -18.9451  -30.1441   23.8916 C   0  0  0  0  0  0
  -17.6451  -30.6582   24.0563 C   0  0  0  0  0  0
  -25.9031  -34.9466   23.5126 C   0  0  0  0  0  0
  -16.5343  -29.9082   23.6324 C   0  0  0  0  0  0
  -16.7266  -28.6500   23.0347 C   0  0  0  0  0  0
  -26.4464  -31.6585   25.0714 C   0  0  0  0  0  0
  -25.3725  -31.3709   26.1460 C   0  0  0  0  0  0
  -27.0275  -30.3019   24.6084 C   0  0  0  0  0  0
  -27.6047  -32.4288   25.7481 C   0  0  0  0  0  0
  -27.5587  -37.1789   24.8458 C   0  0  0  0  0  0
  -21.4149  -29.3027   22.3730 N   0  0  0  0  0  0
  -26.4300  -37.3774   23.9410 N   0  0  0  0  0  0
  -24.6714  -31.0746   22.0977 N   0  0  0  0  0  0
  -23.4191  -28.8177   23.3019 O   0  0  0  0  0  0
  -28.3859  -26.6525   20.1251 O   0  0  0  0  0  0
  -26.5590  -34.8914   22.4689 O   0  0  0  0  0  0
  -23.5348  -32.1420   23.7454 O   0  0  0  0  0  0
  -29.0668  -18.8363   20.9279 C   0  0  0  0  0  0
  -29.0955  -17.4286   21.1093 C   0  0  0  0  0  0
  -31.4648  -18.9090   21.1865 C   0  0  0  0  0  0
  -30.2550  -19.6194   20.9482 C   0  0  0  0  0  0
  -30.3126  -16.7434   21.3378 C   0  0  0  0  0  0
  -31.4975  -17.5122   21.3915 C   0  0  0  0  0  0
  -29.4534  -21.7903   19.9524 C   0  0  0  0  0  0
  -31.2209  -23.2798   21.6330 C   0  0  0  0  0  0
  -31.0257  -23.8811   20.2477 C   0  0  0  0  0  0
  -31.3994  -21.7675   21.4758 C   0  0  0  0  0  0
  -29.8024  -23.2652   19.5387 C   0  0  2  0  0  0
  -29.8579  -15.7175   24.0519 C   0  0  0  0  0  0
  -28.6091  -24.2757   19.3511 C   0  0  0  0  0  0
  -30.6335  -14.9161   22.9933 C   0  0  0  0  0  0
  -28.2575  -25.2602   20.5053 C   0  0  0  0  0  0
  -30.2873  -21.0753   20.7857 N   0  0  0  0  0  0
  -30.3354  -15.3255   21.6076 N   0  0  0  0  0  0
  -28.4338  -21.3040   19.4562 O   0  0  0  0  0  0
  -32.6857  -16.9204   21.6647 F   0  0  0  0  0  0
  -31.4599  -12.4142   19.1240 H   0  0  0  0  0  0
  -30.3065  -11.3189   19.8263 H   0  0  0  0  0  0
  -29.7359  -11.7997   17.4293 H   0  0  0  0  0  0
  -29.6516  -13.5100   17.7755 H   0  0  0  0  0  0
  -27.8394  -11.3087   18.8320 H   0  0  0  0  0  0
  -27.3608  -12.6220   17.7898 H   0  0  0  0  0  0
  -27.6957  -14.2584   19.5628 H   0  0  0  0  0  0
  -28.6736  -12.0000   21.3772 H   0  0  0  0  0  0
  -28.4324  -13.6596   21.8442 H   0  0  0  0  0  0
  -25.2752   -9.5654   22.4750 H   0  0  0  0  0  0
  -23.9967   -7.4620   22.7482 H   0  0  0  0  0  0
  -21.0809   -8.8757   19.8956 H   0  0  0  0  0  0
  -22.3672  -10.9657   19.6159 H   0  0  0  0  0  0
  -21.2046   -7.6157   23.9735 H   0  0  0  0  0  0
  -21.1472   -6.0524   25.9089 H   0  0  0  0  0  0
  -22.0599   -2.7606   23.2859 H   0  0  0  0  0  0
  -22.4085  -11.9911   22.4822 H   0  0  0  0  0  0
  -21.1117  -13.1308   22.2586 H   0  0  0  0  0  0
  -24.6598  -15.8420   20.5203 H   0  0  0  0  0  0
  -26.2774  -15.6257   20.0790 H   0  0  0  0  0  0
  -26.7123  -32.5513   23.1151 H   0  0  0  0  0  0
  -25.0059  -33.9775   25.0472 H   0  0  0  0  0  0
  -22.6947  -31.3045   21.4062 H   0  0  0  0  0  0
  -23.3747  -35.9647   23.3308 H   0  0  0  0  0  0
  -24.3587  -36.8903   22.2047 H   0  0  0  0  0  0
  -23.7254  -37.6520   23.6645 H   0  0  0  0  0  0
  -26.0511  -31.5932   20.5953 H   0  0  0  0  0  0
  -26.8245  -30.8797   21.9806 H   0  0  0  0  0  0
  -28.1075  -29.0854   21.1547 H   0  0  0  0  0  0
  -26.0441  -25.9541   19.0233 H   0  0  0  0  0  0
  -23.9754  -27.2924   19.0339 H   0  0  0  0  0  0
  -23.7230  -30.5933   19.4013 H   0  0  0  0  0  0
  -22.7392  -29.2374   19.8688 H   0  0  0  0  0  0
  -25.1287  -36.1960   25.0828 H   0  0  0  0  0  0
  -20.9968  -28.3218   24.1442 H   0  0  0  0  0  0
  -20.5663  -26.2259   23.3600 H   0  0  0  0  0  0
  -21.6634  -26.7431   22.1210 H   0  0  0  0  0  0
  -19.6898  -25.6293   21.1235 H   0  0  0  0  0  0
  -19.6692  -27.3198   20.6752 H   0  0  0  0  0  0
  -17.4189  -26.6673   21.4032 H   0  0  0  0  0  0
  -18.0329  -26.0071   22.9029 H   0  0  0  0  0  0
  -19.7921  -30.7254   24.2304 H   0  0  0  0  0  0
  -17.5001  -31.6273   24.5149 H   0  0  0  0  0  0
  -15.5341  -30.2989   23.7640 H   0  0  0  0  0  0
  -15.8666  -28.0826   22.7055 H   0  0  0  0  0  0
  -24.5895  -30.7052   25.7800 H   0  0  0  0  0  0
  -24.8921  -32.2876   26.4896 H   0  0  0  0  0  0
  -25.8079  -30.8888   27.0221 H   0  0  0  0  0  0
  -26.2818  -29.6806   24.1102 H   0  0  0  0  0  0
  -27.4002  -29.7222   25.4536 H   0  0  0  0  0  0
  -27.8676  -30.4329   23.9259 H   0  0  0  0  0  0
  -27.2674  -33.3586   26.2079 H   0  0  0  0  0  0
  -28.3861  -32.6849   25.0311 H   0  0  0  0  0  0
  -28.0711  -31.8389   26.5382 H   0  0  0  0  0  0
  -28.2608  -38.0082   24.7504 H   0  0  0  0  0  0
  -28.1081  -36.2615   24.6290 H   0  0  0  0  0  0
  -27.2310  -37.1447   25.8861 H   0  0  0  0  0  0
  -20.9301  -29.8768   21.6968 H   0  0  0  0  0  0
  -26.0192  -38.2853   24.1406 H   0  0  0  0  0  0
  -28.1013  -19.3039   20.7964 H   0  0  0  0  0  0
  -28.1656  -16.8771   21.1049 H   0  0  0  0  0  0
  -32.4155  -19.4182   21.2243 H   0  0  0  0  0  0
  -30.3705  -23.5005   22.2809 H   0  0  0  0  0  0
  -32.0995  -23.7142   22.1117 H   0  0  0  0  0  0
  -31.9200  -23.6904   19.6526 H   0  0  0  0  0  0
  -30.9546  -24.9667   20.3096 H   0  0  0  0  0  0
  -31.5419  -21.3342   22.4669 H   0  0  0  0  0  0
  -32.3205  -21.5951   20.9166 H   0  0  0  0  0  0
  -30.1417  -23.1059   18.5139 H   0  0  0  0  0  0
  -30.0485  -15.3178   25.0488 H   0  0  0  0  0  0
  -28.7828  -15.6678   23.8800 H   0  0  0  0  0  0
  -30.1533  -16.7668   24.0648 H   0  0  0  0  0  0
  -27.7038  -23.7329   19.0773 H   0  0  0  0  0  0
  -28.8241  -24.8771   18.4674 H   0  0  0  0  0  0
  -31.7057  -15.0176   23.1727 H   0  0  0  0  0  0
  -30.4123  -13.8566   23.1358 H   0  0  0  0  0  0
  -28.9134  -25.1024   21.3597 H   0  0  0  0  0  0
  -27.2639  -25.0323   20.8959 H   0  0  0  0  0  0
  1 25  1  0  0  0
  1 30  2  0  0  0
  1 87  1  0  0  0
  2  3  1  0  0  0
  2 25  1  0  0  0
  2 90  1  0  0  0
  2 91  1  0  0  0
  3  4  1  0  0  0
  3 92  1  0  0  0
  3 93  1  0  0  0
  4  5  1  0  0  0
  4 94  1  0  0  0
  4 95  1  0  0  0
  5  6  1  0  0  0
  5 26  1  0  0  0
  5 96  1  0  0  0
  6 25  1  0  0  0
  6 97  1  0  0  0
  6 98  1  0  0  0
  7  8  2  0  0  0
  7 26  1  0  0  0
  7 29  1  0  0  0
  8  9  1  0  0  0
  8 22  1  0  0  0
  9 10  1  0  0  0
  9 27  2  0  0  0
 10 11  2  0  0  0
 10 15  1  0  0  0
 11 12  1  0  0  0
 11 99  1  0  0  0
 12 13  2  0  0  0
 12100  1  0  0  0
 13 14  1  0  0  0
 13 31  1  0  0  0
 14 15  2  0  0  0
 14101  1  0  0  0
 15102  1  0  0  0
 16 17  2  0  0  0
 16 21  1  0  0  0
 16 31  1  0  0  0
 17 18  1  0  0  0
 17103  1  0  0  0
 18 19  2  0  0  0
 18104  1  0  0  0
 19 20  1  0  0  0
 19 24  1  0  0  0
 20 21  2  0  0  0
 20105  1  0  0  0
 21 23  1  0  0  0
 22 28  1  0  0  0
 22 32  2  0  0  0
 26 27  1  0  0  0
 28106  1  0  0  0
 28107  1  0  0  0
 29108  1  0  0  0
 29109  1  0  0  0
 33 34  1  0  0  0
 33 66  1  0  0  0
 33 70  2  0  0  0
 34 36  1  0  0  0
 34 59  1  0  0  0
 34110  1  0  0  0
 35 44  2  0  0  0
 35 45  1  0  0  0
 35 68  1  0  0  0
 36 56  1  0  0  0
 36111  1  0  0  0
 37 39  1  0  0  0
 37 47  1  0  0  0
 37 66  1  0  0  0
 37112  1  0  0  0
 38 43  2  0  0  0
 38 46  1  0  0  0
 38 47  1  0  0  0
 39 64  1  0  0  0
 39 67  2  0  0  0
 40 52  1  0  0  0
 40 53  2  0  0  0
 40 58  1  0  0  0
 41113  1  0  0  0
 41114  1  0  0  0
 41115  1  0  0  0
 41 48  1  0  0  0
 42 43  1  0  0  0
 42 66  1  0  0  0
 42116  1  0  0  0
 42117  1  0  0  0
 43 44  1  0  0  0
 44118  1  0  0  0
 45 46  2  0  0  0
 45119  1  0  0  0
 46120  1  0  0  0
 47121  1  0  0  0
 47122  1  0  0  0
 48 56  1  0  0  0
 48 65  1  0  0  0
 48123  1  0  0  0
 49 50  1  0  0  0
 49 53  1  0  0  0
 49 64  1  0  0  0
 49124  1  0  0  0
 50 51  1  0  0  0
 50125  1  0  0  0
 50126  1  0  0  0
 51 52  1  0  0  0
 51127  1  0  0  0
 51128  1  0  0  0
 52129  1  0  0  0
 52130  1  0  0  0
 53 54  1  0  0  0
 54 55  2  0  0  0
 54131  1  0  0  0
 55 57  1  0  0  0
 55132  1  0  0  0
 56 69  2  0  0  0
 57 58  2  0  0  0
 57133  1  0  0  0
 58134  1  0  0  0
 59 60  1  0  0  0
 59 61  1  0  0  0
 59 62  1  0  0  0
 60135  1  0  0  0
 60136  1  0  0  0
 60137  1  0  0  0
 61138  1  0  0  0
 61139  1  0  0  0
 61140  1  0  0  0
 62141  1  0  0  0
 62142  1  0  0  0
 62143  1  0  0  0
 63 65  1  0  0  0
 63144  1  0  0  0
 63145  1  0  0  0
 63146  1  0  0  0
 64147  1  0  0  0
 65148  1  0  0  0
 68 85  1  0  0  0
 71 72  2  0  0  0
 71 74  1  0  0  0
 71149  1  0  0  0
 72 75  1  0  0  0
 72150  1  0  0  0
 73 74  2  0  0  0
 73 76  1  0  0  0
 73151  1  0  0  0
 74 86  1  0  0  0
 75 76  2  0  0  0
 75 87  1  0  0  0
 76 89  1  0  0  0
 77 81  1  0  0  0
 77 86  1  0  0  0
 77 88  2  0  0  0
 78 79  1  0  0  0
 78 80  1  0  0  0
 78152  1  0  0  0
 78153  1  0  0  0
 79 81  1  0  0  0
 79154  1  0  0  0
 79155  1  0  0  0
 80 86  1  0  0  0
 80156  1  0  0  0
 80157  1  0  0  0
 81 83  1  0  0  0
 81158  1  0  0  0
 82 84  1  0  0  0
 82159  1  0  0  0
 82160  1  0  0  0
 82161  1  0  0  0
 83 85  1  0  0  0
 83162  1  0  0  0
 83163  1  0  0  0
 84 87  1  0  0  0
 84164  1  0  0  0
 84165  1  0  0  0
 85166  1  0  0  0
 85167  1  0  0  0
M  ISO  4   1 100  68 101  85 101  87 100
M  END
> <chiral flag>
0

> <version>
0

> <s_m_source_file>
/data/baiqing/PycharmProjects/Reinvent-master-3.2/result/LINK_invent/BTK/process_docking_weight1_custom_product_contain_oxygen_bond_distance_aromatic_linkinvent_7_9_3/rearranged_h_0019.sdf

> <i_m_source_file_index>
25

> <r_mmod_Potential_Energy-OPLS-2005>
297.299713134766

> <r_mmod_Stretch_Energy-OPLS-2005>
60.1603393554688

> <r_mmod_Bend_Energy-OPLS-2005>
129.232650756836

> <r_mmod_Torsional_Energy-OPLS-2005>
386.337432861328

> <r_mmod_Improper_Torsional_Energy-OPLS-2005>
4.82717609405518

> <r_mmod_Van_der_Waal_Energy-OPLS-2005>
172.901580810547

> <r_mmod_Electrostatic_Energy-OPLS-2005>
-275.935699462891

> <r_mmod_Solvation_Energy-OPLS-2005>
-194.154067993164

> <b_mmod_Minimization_Converged-OPLS-2005>
0

> <r_mmod_RMS_Derivative-OPLS-2005>
2.16931748390198

$$$$
25
                    3D
 Structure written by MMmdl.
155163  0  0  1  0            999 V2000
  -30.6153  -14.7273   20.4579 C   0  0  0  0  0  0
  -30.4312  -12.4428   19.4678 C   0  0  0  0  0  0
  -29.5091  -12.5039   18.2311 C   0  0  0  0  0  0
  -28.0343  -12.3304   18.6452 C   0  0  0  0  0  0
  -27.6411  -13.2296   19.8478 C   0  0  2  0  0  0
  -28.6868  -13.1597   20.9818 C   0  0  0  0  0  0
  -25.2511  -13.8194   20.5691 C   0  0  0  0  0  0
  -24.1804  -13.0442   20.9212 C   0  0  0  0  0  0
  -24.6395  -11.6918   20.8753 C   0  0  0  0  0  0
  -23.9075  -10.4293   21.0407 C   0  0  0  0  0  0
  -24.3625   -9.4209   21.9187 C   0  0  0  0  0  0
  -23.6297   -8.2246   22.0758 C   0  0  0  0  0  0
  -22.4281   -8.0285   21.3546 C   0  0  0  0  0  0
  -21.9918   -9.0257   20.4645 C   0  0  0  0  0  0
  -22.7247  -10.2135   20.3052 C   0  0  0  0  0  0
  -21.6858   -6.0742   22.5281 C   0  0  0  0  0  0
  -21.4015   -6.5640   23.8217 C   0  0  0  0  0  0
  -21.3659   -5.6792   24.9177 C   0  0  0  0  0  0
  -21.6044   -4.3059   24.7223 C   0  0  0  0  0  0
  -21.8816   -3.8151   23.4343 C   0  0  0  0  0  0
  -21.9195   -4.6968   22.3399 C   0  0  0  0  0  0
  -22.7823  -13.5226   21.1862 C   0  0  0  0  0  0
  -22.1658   -4.2156   21.0973 F   0  0  0  0  0  0
  -21.5632   -3.4542   25.7732 F   0  0  0  0  0  0
  -29.9875  -13.5055   20.3964 N   0  0  0  0  0  0
  -26.2934  -12.9398   20.3264 N   0  0  0  0  0  0
  -25.9323  -11.6541   20.5750 N   0  0  0  0  0  0
  -22.0460  -12.8227   22.0418 N   0  0  0  0  0  0
  -25.4169  -15.1923   20.4086 N   0  0  0  0  0  0
  -31.8104  -14.8147   20.1615 O   0  0  0  0  0  0
  -21.6641   -6.8886   21.4244 O   0  0  0  0  0  0
  -22.3509  -14.5529   20.6701 O   0  0  0  0  0  0
  -24.6303  -31.8550   23.1981 C   0  0  0  0  0  0
  -25.9133  -32.4752   23.8328 C   0  0  1  0  0  0
  -27.2236  -27.2798   20.1326 C   0  0  0  0  0  0
  -25.5938  -33.8557   24.2260 N   0  0  0  0  0  0
  -23.4266  -30.4758   21.5406 C   0  0  2  0  0  0
  -24.8742  -28.9179   20.1155 C   0  0  0  0  0  0
  -22.7491  -29.4602   22.4922 C   0  0  0  0  0  0
  -18.0287  -28.1384   22.8481 C   0  0  0  0  0  0
  -24.1489  -36.7285   23.2639 C   0  0  0  0  0  0
  -25.9697  -30.7748   21.3728 C   0  0  0  0  0  0
  -26.0451  -29.3969   20.7186 C   0  0  0  0  0  0
  -27.2265  -28.5915   20.7107 C   0  0  0  0  0  0
  -26.0320  -26.8557   19.5110 C   0  0  0  0  0  0
  -24.8709  -27.6546   19.5012 C   0  0  0  0  0  0
  -23.6443  -29.8035   20.1590 C   0  0  0  0  0  0
  -25.4114  -36.3069   24.0326 C   0  0  1  0  0  0
  -20.5887  -28.3694   23.1271 C   0  0  2  0  0  0
  -20.6772  -26.9414   22.5403 C   0  0  0  0  0  0
  -19.5749  -26.6381   21.5206 C   0  0  0  0  0  0
  -18.1930  -26.7929   22.1618 C   0  0  0  0  0  0
  -19.1539  -28.8856   23.2873 C   0  0  0  0  0  0
  -18.9461  -30.1457   23.8889 C   0  0  0  0  0  0
  -17.6460  -30.6586   24.0557 C   0  0  0  0  0  0
  -25.9055  -34.9439   23.5095 C   0  0  0  0  0  0
  -16.5351  -29.9081   23.6332 C   0  0  0  0  0  0
  -16.7274  -28.6499   23.0352 C   0  0  0  0  0  0
  -26.4504  -31.6576   25.0716 C   0  0  0  0  0  0
  -25.3735  -31.3711   26.1442 C   0  0  0  0  0  0
  -27.0353  -30.2996   24.6196 C   0  0  0  0  0  0
  -27.6054  -32.4318   25.7493 C   0  0  0  0  0  0
  -27.5579  -37.1795   24.8460 C   0  0  0  0  0  0
  -21.4201  -29.3041   22.3662 N   0  0  0  0  0  0
  -26.4285  -37.3770   23.9412 N   0  0  0  0  0  0
  -24.6947  -31.0529   22.0943 N   0  0  0  0  0  0
  -23.4191  -28.8145   23.3024 O   0  0  0  0  0  0
  -28.3283  -26.4086   20.1290 O   0  0  0  0  0  0
  -26.5624  -34.8913   22.4662 O   0  0  0  0  0  0
  -23.5458  -32.1361   23.7291 O   0  0  0  0  0  0
  -31.4570  -17.7110   21.0888 C   0  0  0  0  0  0
  -30.8836  -20.0920   20.8584 C   0  0  0  0  0  0
  -30.1746  -17.3054   20.6550 C   0  0  0  0  0  0
  -29.5738  -19.8068   20.4139 C   0  0  0  0  0  0
  -31.8002  -19.0738   21.1878 C   0  0  0  0  0  0
  -29.2429  -18.3753   20.3301 C   0  0  0  0  0  0
  -27.5573  -20.6236   19.2365 C   0  0  0  0  0  0
  -28.6042  -23.6826   19.9138 C   0  0  0  0  0  0
  -28.7020  -22.2933   20.7492 C   0  0  0  0  0  0
  -28.1688  -25.0312   20.6956 C   0  0  0  0  0  0
  -29.8262  -15.8592   20.6032 N   0  0  0  0  0  0
  -28.7350  -20.9474   20.0374 N   0  0  0  0  0  0
  -33.0441  -19.4141   21.6032 F   0  0  0  0  0  0
  -28.0043  -17.9897   19.9336 F   0  0  0  0  0  0
  -31.4728  -12.5647   19.1659 H   0  0  0  0  0  0
  -30.3708  -11.4658   19.9493 H   0  0  0  0  0  0
  -29.7899  -11.7336   17.5116 H   0  0  0  0  0  0
  -29.6387  -13.4595   17.7216 H   0  0  0  0  0  0
  -27.8907  -11.2815   18.9068 H   0  0  0  0  0  0
  -27.3785  -12.5235   17.7959 H   0  0  0  0  0  0
  -27.6339  -14.2508   19.4671 H   0  0  0  0  0  0
  -28.7197  -12.1618   21.4220 H   0  0  0  0  0  0
  -28.4276  -13.8440   21.7917 H   0  0  0  0  0  0
  -25.2765   -9.5697   22.4770 H   0  0  0  0  0  0
  -24.0008   -7.4644   22.7479 H   0  0  0  0  0  0
  -21.0852   -8.8775   19.8949 H   0  0  0  0  0  0
  -22.3704  -10.9677   19.6166 H   0  0  0  0  0  0
  -21.2001   -7.6146   23.9729 H   0  0  0  0  0  0
  -21.1488   -6.0515   25.9083 H   0  0  0  0  0  0
  -22.0595   -2.7613   23.2837 H   0  0  0  0  0  0
  -22.4057  -11.9887   22.4813 H   0  0  0  0  0  0
  -21.1077  -13.1264   22.2592 H   0  0  0  0  0  0
  -24.6437  -15.8384   20.5213 H   0  0  0  0  0  0
  -26.2536  -15.6430   20.0611 H   0  0  0  0  0  0
  -26.7201  -32.5404   23.1072 H   0  0  0  0  0  0
  -25.0082  -33.9689   25.0405 H   0  0  0  0  0  0
  -22.7229  -31.2980   21.3916 H   0  0  0  0  0  0
  -23.3754  -35.9613   23.3284 H   0  0  0  0  0  0
  -24.3583  -36.8928   22.2057 H   0  0  0  0  0  0
  -23.7237  -37.6477   23.6677 H   0  0  0  0  0  0
  -26.1038  -31.5340   20.6009 H   0  0  0  0  0  0
  -26.8492  -30.8267   22.0029 H   0  0  0  0  0  0
  -28.1285  -28.9561   21.1815 H   0  0  0  0  0  0
  -25.9965  -25.8844   19.0370 H   0  0  0  0  0  0
  -23.9738  -27.2814   19.0261 H   0  0  0  0  0  0
  -23.7684  -30.5756   19.3993 H   0  0  0  0  0  0
  -22.7636  -29.2342   19.8558 H   0  0  0  0  0  0
  -25.1296  -36.1907   25.0817 H   0  0  0  0  0  0
  -20.9978  -28.3267   24.1391 H   0  0  0  0  0  0
  -20.5663  -26.2306   23.3606 H   0  0  0  0  0  0
  -21.6642  -26.7432   22.1198 H   0  0  0  0  0  0
  -19.6907  -25.6290   21.1244 H   0  0  0  0  0  0
  -19.6687  -27.3185   20.6731 H   0  0  0  0  0  0
  -17.4197  -26.6674   21.4021 H   0  0  0  0  0  0
  -18.0331  -26.0069   22.9012 H   0  0  0  0  0  0
  -19.7934  -30.7277   24.2252 H   0  0  0  0  0  0
  -17.5012  -31.6267   24.5157 H   0  0  0  0  0  0
  -15.5351  -30.2979   23.7663 H   0  0  0  0  0  0
  -15.8673  -28.0817   22.7074 H   0  0  0  0  0  0
  -24.5915  -30.7055   25.7768 H   0  0  0  0  0  0
  -24.8922  -32.2872   26.4873 H   0  0  0  0  0  0
  -25.8064  -30.8884   27.0214 H   0  0  0  0  0  0
  -26.2931  -29.6733   24.1231 H   0  0  0  0  0  0
  -27.4047  -29.7266   25.4711 H   0  0  0  0  0  0
  -27.8802  -30.4269   23.9425 H   0  0  0  0  0  0
  -27.2659  -33.3620   26.2058 H   0  0  0  0  0  0
  -28.3874  -32.6874   25.0332 H   0  0  0  0  0  0
  -28.0713  -31.8454   26.5422 H   0  0  0  0  0  0
  -28.2576  -38.0110   24.7531 H   0  0  0  0  0  0
  -28.1098  -36.2644   24.6257 H   0  0  0  0  0  0
  -27.2304  -37.1401   25.8864 H   0  0  0  0  0  0
  -20.9391  -29.8767   21.6867 H   0  0  0  0  0  0
  -26.0161  -38.2839   24.1428 H   0  0  0  0  0  0
  -32.2024  -16.9825   21.3687 H   0  0  0  0  0  0
  -31.2284  -21.1123   20.9245 H   0  0  0  0  0  0
  -27.8093  -19.9570   18.4098 H   0  0  0  0  0  0
  -27.1102  -21.5150   18.7975 H   0  0  0  0  0  0
  -26.7912  -20.1438   19.8472 H   0  0  0  0  0  0
  -27.9099  -23.5612   19.0837 H   0  0  0  0  0  0
  -29.5747  -23.8571   19.4500 H   0  0  0  0  0  0
  -27.8250  -22.2557   21.3978 H   0  0  0  0  0  0
  -29.5418  -22.3707   21.4397 H   0  0  0  0  0  0
  -28.7492  -25.0525   21.6179 H   0  0  0  0  0  0
  -27.1408  -24.8969   21.0352 H   0  0  0  0  0  0
  -28.8371  -15.6694   20.6409 H   0  0  0  0  0  0
  1 25  1  0  0  0
  1 30  2  0  0  0
  1 81  1  0  0  0
  2  3  1  0  0  0
  2 25  1  0  0  0
  2 85  1  0  0  0
  2 86  1  0  0  0
  3  4  1  0  0  0
  3 87  1  0  0  0
  3 88  1  0  0  0
  4  5  1  0  0  0
  4 89  1  0  0  0
  4 90  1  0  0  0
  5  6  1  0  0  0
  5 26  1  0  0  0
  5 91  1  0  0  0
  6 25  1  0  0  0
  6 92  1  0  0  0
  6 93  1  0  0  0
  7  8  2  0  0  0
  7 26  1  0  0  0
  7 29  1  0  0  0
  8  9  1  0  0  0
  8 22  1  0  0  0
  9 10  1  0  0  0
  9 27  2  0  0  0
 10 11  2  0  0  0
 10 15  1  0  0  0
 11 12  1  0  0  0
 11 94  1  0  0  0
 12 13  2  0  0  0
 12 95  1  0  0  0
 13 14  1  0  0  0
 13 31  1  0  0  0
 14 15  2  0  0  0
 14 96  1  0  0  0
 15 97  1  0  0  0
 16 17  2  0  0  0
 16 21  1  0  0  0
 16 31  1  0  0  0
 17 18  1  0  0  0
 17 98  1  0  0  0
 18 19  2  0  0  0
 18 99  1  0  0  0
 19 20  1  0  0  0
 19 24  1  0  0  0
 20 21  2  0  0  0
 20100  1  0  0  0
 21 23  1  0  0  0
 22 28  1  0  0  0
 22 32  2  0  0  0
 26 27  1  0  0  0
 28101  1  0  0  0
 28102  1  0  0  0
 29103  1  0  0  0
 29104  1  0  0  0
 33 34  1  0  0  0
 33 66  1  0  0  0
 33 70  2  0  0  0
 34 36  1  0  0  0
 34 59  1  0  0  0
 34105  1  0  0  0
 35 44  2  0  0  0
 35 45  1  0  0  0
 35 68  1  0  0  0
 36 56  1  0  0  0
 36106  1  0  0  0
 37 39  1  0  0  0
 37 47  1  0  0  0
 37 66  1  0  0  0
 37107  1  0  0  0
 38 43  2  0  0  0
 38 46  1  0  0  0
 38 47  1  0  0  0
 39 64  1  0  0  0
 39 67  2  0  0  0
 40 52  1  0  0  0
 40 53  2  0  0  0
 40 58  1  0  0  0
 41108  1  0  0  0
 41109  1  0  0  0
 41110  1  0  0  0
 41 48  1  0  0  0
 42 43  1  0  0  0
 42 66  1  0  0  0
 42111  1  0  0  0
 42112  1  0  0  0
 43 44  1  0  0  0
 44113  1  0  0  0
 45 46  2  0  0  0
 45114  1  0  0  0
 46115  1  0  0  0
 47116  1  0  0  0
 47117  1  0  0  0
 48 56  1  0  0  0
 48 65  1  0  0  0
 48118  1  0  0  0
 49 50  1  0  0  0
 49 53  1  0  0  0
 49 64  1  0  0  0
 49119  1  0  0  0
 50 51  1  0  0  0
 50120  1  0  0  0
 50121  1  0  0  0
 51 52  1  0  0  0
 51122  1  0  0  0
 51123  1  0  0  0
 52124  1  0  0  0
 52125  1  0  0  0
 53 54  1  0  0  0
 54 55  2  0  0  0
 54126  1  0  0  0
 55 57  1  0  0  0
 55127  1  0  0  0
 56 69  2  0  0  0
 57 58  2  0  0  0
 57128  1  0  0  0
 58129  1  0  0  0
 59 60  1  0  0  0
 59 61  1  0  0  0
 59 62  1  0  0  0
 60130  1  0  0  0
 60131  1  0  0  0
 60132  1  0  0  0
 61133  1  0  0  0
 61134  1  0  0  0
 61135  1  0  0  0
 62136  1  0  0  0
 62137  1  0  0  0
 62138  1  0  0  0
 63 65  1  0  0  0
 63139  1  0  0  0
 63140  1  0  0  0
 63141  1  0  0  0
 64142  1  0  0  0
 65143  1  0  0  0
 68 80  1  0  0  0
 71 73  2  0  0  0
 71 75  1  0  0  0
 71144  1  0  0  0
 72 74  1  0  0  0
 72 75  2  0  0  0
 72145  1  0  0  0
 73 76  1  0  0  0
 73 81  1  0  0  0
 74 76  2  0  0  0
 74 82  1  0  0  0
 75 83  1  0  0  0
 76 84  1  0  0  0
 77 82  1  0  0  0
 77146  1  0  0  0
 77147  1  0  0  0
 77148  1  0  0  0
 78 79  1  0  0  0
 78 80  1  0  0  0
 78149  1  0  0  0
 78150  1  0  0  0
 79 82  1  0  0  0
 79151  1  0  0  0
 79152  1  0  0  0
 80153  1  0  0  0
 80154  1  0  0  0
 81155  1  0  0  0
M  ISO  4   1 100  68 101  80 101  81 100
M  END
> <chiral flag>
0

> <version>
0

> <s_m_source_file>
/data/baiqing/PycharmProjects/Reinvent-master-3.2/result/LINK_invent/BTK/process_docking_weight1_custom_product_contain_oxygen_bond_distance_aromatic_linkinvent_7_9_3/rearranged_h_0019.sdf

> <i_m_source_file_index>
26

> <r_mmod_Potential_Energy-OPLS-2005>
207.404602050781

> <r_mmod_Stretch_Energy-OPLS-2005>
122.461517333984

> <r_mmod_Bend_Energy-OPLS-2005>
167.150009155273

> <r_mmod_Torsional_Energy-OPLS-2005>
230.331130981445

> <r_mmod_Improper_Torsional_Energy-OPLS-2005>
7.09421873092651

> <r_mmod_Van_der_Waal_Energy-OPLS-2005>
142.693222045898

> <r_mmod_Electrostatic_Energy-OPLS-2005>
-325.1767578125

> <r_mmod_Solvation_Energy-OPLS-2005>
-212.460479736328

> <b_mmod_Minimization_Converged-OPLS-2005>
0

> <r_mmod_RMS_Derivative-OPLS-2005>
1.02672362327576

$$$$
26
                    3D
 Structure written by MMmdl.
163171  0  0  1  0            999 V2000
  -30.7335  -14.4162   20.4582 C   0  0  0  0  0  0
  -30.4229  -12.2534   19.3941 C   0  0  0  0  0  0
  -29.4791  -12.4689   18.1926 C   0  0  0  0  0  0
  -28.0011  -12.3458   18.6215 C   0  0  0  0  0  0
  -27.6614  -13.1903   19.8802 C   0  0  2  0  0  0
  -28.7246  -12.9481   20.9763 C   0  0  0  0  0  0
  -25.2582  -13.8129   20.5773 C   0  0  0  0  0  0
  -24.1823  -13.0431   20.9187 C   0  0  0  0  0  0
  -24.6361  -11.6893   20.8762 C   0  0  0  0  0  0
  -23.9027  -10.4312   21.0418 C   0  0  0  0  0  0
  -24.3594   -9.4223   21.9182 C   0  0  0  0  0  0
  -23.6285   -8.2260   22.0733 C   0  0  0  0  0  0
  -22.4256   -8.0312   21.3559 C   0  0  0  0  0  0
  -21.9912   -9.0259   20.4639 C   0  0  0  0  0  0
  -22.7213  -10.2154   20.3049 C   0  0  0  0  0  0
  -21.6859   -6.0745   22.5295 C   0  0  0  0  0  0
  -21.4005   -6.5642   23.8223 C   0  0  0  0  0  0
  -21.3645   -5.6800   24.9188 C   0  0  0  0  0  0
  -21.6034   -4.3055   24.7246 C   0  0  0  0  0  0
  -21.8814   -3.8156   23.4367 C   0  0  0  0  0  0
  -21.9196   -4.6974   22.3422 C   0  0  0  0  0  0
  -22.7830  -13.5224   21.1846 C   0  0  0  0  0  0
  -22.1661   -4.2156   21.0994 F   0  0  0  0  0  0
  -21.5638   -3.4534   25.7752 F   0  0  0  0  0  0
  -30.0418  -13.2502   20.3966 N   0  0  0  0  0  0
  -26.3031  -12.9281   20.3502 N   0  0  0  0  0  0
  -25.9289  -11.6456   20.5862 N   0  0  0  0  0  0
  -22.0465  -12.8237   22.0405 N   0  0  0  0  0  0
  -25.4349  -15.1847   20.4288 N   0  0  0  0  0  0
  -31.9531  -14.4627   20.2833 O   0  0  0  0  0  0
  -21.6635   -6.8903   21.4268 O   0  0  0  0  0  0
  -22.3511  -14.5516   20.6671 O   0  0  0  0  0  0
  -24.6081  -31.8678   23.2126 C   0  0  0  0  0  0
  -25.8990  -32.4826   23.8388 C   0  0  1  0  0  0
  -27.2485  -27.4809   20.0800 C   0  0  0  0  0  0
  -25.5880  -33.8626   24.2324 N   0  0  0  0  0  0
  -23.3979  -30.4868   21.5521 C   0  0  2  0  0  0
  -24.8471  -28.9538   20.1190 C   0  0  0  0  0  0
  -22.7386  -29.4652   22.5021 C   0  0  0  0  0  0
  -18.0282  -28.1324   22.8511 C   0  0  0  0  0  0
  -24.1481  -36.7337   23.2644 C   0  0  0  0  0  0
  -25.9196  -30.8411   21.3626 C   0  0  0  0  0  0
  -26.0011  -29.4747   20.7189 C   0  0  0  0  0  0
  -27.2026  -28.7401   20.7108 C   0  0  0  0  0  0
  -26.0873  -26.9639   19.4752 C   0  0  0  0  0  0
  -24.8792  -27.6885   19.5021 C   0  0  0  0  0  0
  -23.6048  -29.8125   20.1690 C   0  0  0  0  0  0
  -25.4104  -36.3114   24.0334 C   0  0  1  0  0  0
  -20.5858  -28.3619   23.1393 C   0  0  2  0  0  0
  -20.6783  -26.9358   22.5454 C   0  0  0  0  0  0
  -19.5782  -26.6352   21.5213 C   0  0  0  0  0  0
  -18.1954  -26.7901   22.1605 C   0  0  0  0  0  0
  -19.1514  -28.8797   23.2955 C   0  0  0  0  0  0
  -18.9420  -30.1412   23.8958 C   0  0  0  0  0  0
  -17.6422  -30.6567   24.0550 C   0  0  0  0  0  0
  -25.9034  -34.9484   23.5126 C   0  0  0  0  0  0
  -16.5326  -29.9058   23.6282 C   0  0  0  0  0  0
  -16.7257  -28.6455   23.0343 C   0  0  0  0  0  0
  -26.4439  -31.6598   25.0703 C   0  0  0  0  0  0
  -25.3719  -31.3712   26.1460 C   0  0  0  0  0  0
  -27.0274  -30.3048   24.6055 C   0  0  0  0  0  0
  -27.6015  -32.4320   25.7478 C   0  0  0  0  0  0
  -27.5571  -37.1820   24.8463 C   0  0  0  0  0  0
  -21.4094  -29.3059   22.3828 N   0  0  0  0  0  0
  -26.4291  -37.3789   23.9401 N   0  0  0  0  0  0
  -24.6598  -31.0778   22.1034 N   0  0  0  0  0  0
  -23.4183  -28.8172   23.3003 O   0  0  0  0  0  0
  -28.4148  -26.7652   20.0081 O   0  0  0  0  0  0
  -26.5592  -34.8945   22.4683 O   0  0  0  0  0  0
  -23.5297  -32.1449   23.7536 O   0  0  0  0  0  0
  -26.7810  -18.5077   19.3121 C   0  0  0  0  0  0
  -26.6866  -19.5715   20.2351 C   0  0  0  0  0  0
  -27.6298  -17.4129   19.5638 C   0  0  0  0  0  0
  -28.3055  -18.4508   21.6583 C   0  0  0  0  0  0
  -27.4570  -19.5434   21.4183 C   0  0  0  0  0  0
  -28.3963  -17.3809   20.7500 C   0  0  0  0  0  0
  -27.3408  -20.5927   22.4825 C   0  0  0  0  0  0
  -30.4928  -16.3074   18.9598 C   0  0  0  0  0  0
  -29.2803  -16.2083   21.1478 C   0  0  0  0  0  0
  -28.3276  -24.0541   22.6566 C   0  0  0  0  0  0
  -28.0321  -24.8162   21.3617 C   0  0  0  0  0  0
  -27.2512  -23.0101   22.9754 C   0  0  0  0  0  0
  -28.8044  -26.1351   21.2202 C   0  0  0  0  0  0
  -27.3057  -21.8638   22.0714 N   0  0  0  0  0  0
  -30.0070  -15.4953   20.0957 N   0  0  0  0  0  0
  -27.3536  -20.2627   23.6712 O   0  0  0  0  0  0
  -31.4633  -12.3472   19.0779 H   0  0  0  0  0  0
  -30.3294  -11.2443   19.7954 H   0  0  0  0  0  0
  -29.7006  -11.7446   17.4095 H   0  0  0  0  0  0
  -29.6530  -13.4527   17.7544 H   0  0  0  0  0  0
  -27.8085  -11.2925   18.8217 H   0  0  0  0  0  0
  -27.3411  -12.6215   17.7992 H   0  0  0  0  0  0
  -27.7060  -14.2341   19.5745 H   0  0  0  0  0  0
  -28.7114  -11.8996   21.2741 H   0  0  0  0  0  0
  -28.5236  -13.4914   21.8955 H   0  0  0  0  0  0
  -25.2734   -9.5715   22.4749 H   0  0  0  0  0  0
  -23.9997   -7.4661   22.7425 H   0  0  0  0  0  0
  -21.0860   -8.8766   19.8948 H   0  0  0  0  0  0
  -22.3651  -10.9690   19.6157 H   0  0  0  0  0  0
  -21.1973   -7.6142   23.9732 H   0  0  0  0  0  0
  -21.1468   -6.0522   25.9089 H   0  0  0  0  0  0
  -22.0602   -2.7621   23.2858 H   0  0  0  0  0  0
  -22.4100  -11.9867   22.4737 H   0  0  0  0  0  0
  -21.1077  -13.1257   22.2659 H   0  0  0  0  0  0
  -24.6805  -15.8421   20.5879 H   0  0  0  0  0  0
  -26.3111  -15.6445   20.2150 H   0  0  0  0  0  0
  -26.7064  -32.5553   23.1165 H   0  0  0  0  0  0
  -24.9992  -33.9775   25.0442 H   0  0  0  0  0  0
  -22.6881  -31.3004   21.4111 H   0  0  0  0  0  0
  -23.3710  -35.9697   23.3329 H   0  0  0  0  0  0
  -24.3586  -36.8932   22.2056 H   0  0  0  0  0  0
  -23.7270  -37.6571   23.6645 H   0  0  0  0  0  0
  -26.0178  -31.5982   20.5848 H   0  0  0  0  0  0
  -26.8171  -30.9075   21.9665 H   0  0  0  0  0  0
  -28.0971  -29.1425   21.1631 H   0  0  0  0  0  0
  -26.1256  -26.0052   18.9804 H   0  0  0  0  0  0
  -23.9966  -27.2780   19.0317 H   0  0  0  0  0  0
  -23.7079  -30.5860   19.4078 H   0  0  0  0  0  0
  -22.7335  -29.2229   19.8758 H   0  0  0  0  0  0
  -25.1275  -36.1981   25.0823 H   0  0  0  0  0  0
  -20.9957  -28.3143   24.1509 H   0  0  0  0  0  0
  -20.5687  -26.2183   23.3598 H   0  0  0  0  0  0
  -21.6672  -26.7473   22.1278 H   0  0  0  0  0  0
  -19.6925  -25.6269   21.1223 H   0  0  0  0  0  0
  -19.6690  -27.3208   20.6745 H   0  0  0  0  0  0
  -17.4243  -26.6700   21.3958 H   0  0  0  0  0  0
  -18.0258  -25.9994   22.8950 H   0  0  0  0  0  0
  -19.7875  -30.7248   24.2391 H   0  0  0  0  0  0
  -17.4962  -31.6289   24.5071 H   0  0  0  0  0  0
  -15.5329  -30.2985   23.7504 H   0  0  0  0  0  0
  -15.8687  -28.0770   22.7029 H   0  0  0  0  0  0
  -24.5849  -30.7109   25.7804 H   0  0  0  0  0  0
  -24.8954  -32.2875   26.4953 H   0  0  0  0  0  0
  -25.8066  -30.8841   27.0187 H   0  0  0  0  0  0
  -26.2818  -29.6838   24.1074 H   0  0  0  0  0  0
  -27.4027  -29.7258   25.4502 H   0  0  0  0  0  0
  -27.8654  -30.4400   23.9216 H   0  0  0  0  0  0
  -27.2601  -33.3579   26.2121 H   0  0  0  0  0  0
  -28.3787  -32.6938   25.0290 H   0  0  0  0  0  0
  -28.0705  -31.8395   26.5343 H   0  0  0  0  0  0
  -28.2594  -38.0109   24.7465 H   0  0  0  0  0  0
  -28.1053  -36.2629   24.6319 H   0  0  0  0  0  0
  -27.2289  -37.1522   25.8870 H   0  0  0  0  0  0
  -20.9211  -29.8815   21.7125 H   0  0  0  0  0  0
  -26.0175  -38.2870   24.1377 H   0  0  0  0  0  0
  -26.1891  -18.5146   18.4096 H   0  0  0  0  0  0
  -26.0157  -20.3909   20.0311 H   0  0  0  0  0  0
  -27.6670  -16.6071   18.8443 H   0  0  0  0  0  0
  -28.8796  -18.4260   22.5752 H   0  0  0  0  0  0
  -30.4566  -17.3769   19.1556 H   0  0  0  0  0  0
  -29.8843  -16.0896   18.0851 H   0  0  0  0  0  0
  -31.5218  -16.0980   18.6658 H   0  0  0  0  0  0
  -30.0170  -16.5501   21.8771 H   0  0  0  0  0  0
  -28.6198  -15.5350   21.6803 H   0  0  0  0  0  0
  -28.3631  -24.7506   23.4951 H   0  0  0  0  0  0
  -29.3144  -23.5886   22.6133 H   0  0  0  0  0  0
  -26.9658  -25.0316   21.3232 H   0  0  0  0  0  0
  -28.2459  -24.1774   20.5039 H   0  0  0  0  0  0
  -26.2542  -23.4520   22.9184 H   0  0  0  0  0  0
  -27.3847  -22.7026   24.0129 H   0  0  0  0  0  0
  -29.8738  -25.9360   21.1730 H   0  0  0  0  0  0
  -28.6544  -26.7925   22.0831 H   0  0  0  0  0  0
  -27.3388  -22.0388   21.0762 H   0  0  0  0  0  0
  1 25  1  0  0  0
  1 30  2  0  0  0
  1 85  1  0  0  0
  2  3  1  0  0  0
  2 25  1  0  0  0
  2 87  1  0  0  0
  2 88  1  0  0  0
  3  4  1  0  0  0
  3 89  1  0  0  0
  3 90  1  0  0  0
  4  5  1  0  0  0
  4 91  1  0  0  0
  4 92  1  0  0  0
  5  6  1  0  0  0
  5 26  1  0  0  0
  5 93  1  0  0  0
  6 25  1  0  0  0
  6 94  1  0  0  0
  6 95  1  0  0  0
  7  8  2  0  0  0
  7 26  1  0  0  0
  7 29  1  0  0  0
  8  9  1  0  0  0
  8 22  1  0  0  0
  9 10  1  0  0  0
  9 27  2  0  0  0
 10 11  2  0  0  0
 10 15  1  0  0  0
 11 12  1  0  0  0
 11 96  1  0  0  0
 12 13  2  0  0  0
 12 97  1  0  0  0
 13 14  1  0  0  0
 13 31  1  0  0  0
 14 15  2  0  0  0
 14 98  1  0  0  0
 15 99  1  0  0  0
 16 17  2  0  0  0
 16 21  1  0  0  0
 16 31  1  0  0  0
 17 18  1  0  0  0
 17100  1  0  0  0
 18 19  2  0  0  0
 18101  1  0  0  0
 19 20  1  0  0  0
 19 24  1  0  0  0
 20 21  2  0  0  0
 20102  1  0  0  0
 21 23  1  0  0  0
 22 28  1  0  0  0
 22 32  2  0  0  0
 26 27  1  0  0  0
 28103  1  0  0  0
 28104  1  0  0  0
 29105  1  0  0  0
 29106  1  0  0  0
 33 34  1  0  0  0
 33 66  1  0  0  0
 33 70  2  0  0  0
 34 36  1  0  0  0
 34 59  1  0  0  0
 34107  1  0  0  0
 35 44  2  0  0  0
 35 45  1  0  0  0
 35 68  1  0  0  0
 36 56  1  0  0  0
 36108  1  0  0  0
 37 39  1  0  0  0
 37 47  1  0  0  0
 37 66  1  0  0  0
 37109  1  0  0  0
 38 43  2  0  0  0
 38 46  1  0  0  0
 38 47  1  0  0  0
 39 64  1  0  0  0
 39 67  2  0  0  0
 40 52  1  0  0  0
 40 53  2  0  0  0
 40 58  1  0  0  0
 41110  1  0  0  0
 41111  1  0  0  0
 41112  1  0  0  0
 41 48  1  0  0  0
 42 43  1  0  0  0
 42 66  1  0  0  0
 42113  1  0  0  0
 42114  1  0  0  0
 43 44  1  0  0  0
 44115  1  0  0  0
 45 46  2  0  0  0
 45116  1  0  0  0
 46117  1  0  0  0
 47118  1  0  0  0
 47119  1  0  0  0
 48 56  1  0  0  0
 48 65  1  0  0  0
 48120  1  0  0  0
 49 50  1  0  0  0
 49 53  1  0  0  0
 49 64  1  0  0  0
 49121  1  0  0  0
 50 51  1  0  0  0
 50122  1  0  0  0
 50123  1  0  0  0
 51 52  1  0  0  0
 51124  1  0  0  0
 51125  1  0  0  0
 52126  1  0  0  0
 52127  1  0  0  0
 53 54  1  0  0  0
 54 55  2  0  0  0
 54128  1  0  0  0
 55 57  1  0  0  0
 55129  1  0  0  0
 56 69  2  0  0  0
 57 58  2  0  0  0
 57130  1  0  0  0
 58131  1  0  0  0
 59 60  1  0  0  0
 59 61  1  0  0  0
 59 62  1  0  0  0
 60132  1  0  0  0
 60133  1  0  0  0
 60134  1  0  0  0
 61135  1  0  0  0
 61136  1  0  0  0
 61137  1  0  0  0
 62138  1  0  0  0
 62139  1  0  0  0
 62140  1  0  0  0
 63 65  1  0  0  0
 63141  1  0  0  0
 63142  1  0  0  0
 63143  1  0  0  0
 64144  1  0  0  0
 65145  1  0  0  0
 68 83  1  0  0  0
 71 72  2  0  0  0
 71 73  1  0  0  0
 71146  1  0  0  0
 72 75  1  0  0  0
 72147  1  0  0  0
 73 76  2  0  0  0
 73148  1  0  0  0
 74 75  2  0  0  0
 74 76  1  0  0  0
 74149  1  0  0  0
 75 77  1  0  0  0
 76 79  1  0  0  0
 77 84  1  0  0  0
 77 86  2  0  0  0
 78 85  1  0  0  0
 78150  1  0  0  0
 78151  1  0  0  0
 78152  1  0  0  0
 79 85  1  0  0  0
 79153  1  0  0  0
 79154  1  0  0  0
 80 81  1  0  0  0
 80 82  1  0  0  0
 80155  1  0  0  0
 80156  1  0  0  0
 81 83  1  0  0  0
 81157  1  0  0  0
 81158  1  0  0  0
 82 84  1  0  0  0
 82159  1  0  0  0
 82160  1  0  0  0
 83161  1  0  0  0
 83162  1  0  0  0
 84163  1  0  0  0
M  ISO  4   1 100  68 101  83 101  85 100
M  END
> <chiral flag>
0

> <version>
0

> <s_m_source_file>
/data/baiqing/PycharmProjects/Reinvent-master-3.2/result/LINK_invent/BTK/process_docking_weight1_custom_product_contain_oxygen_bond_distance_aromatic_linkinvent_7_9_3/rearranged_h_0019.sdf

> <i_m_source_file_index>
27

> <r_mmod_Potential_Energy-OPLS-2005>
77.4180297851562

> <r_mmod_Stretch_Energy-OPLS-2005>
31.3638801574707

> <r_mmod_Bend_Energy-OPLS-2005>
101.615615844727

> <r_mmod_Torsional_Energy-OPLS-2005>
312.664367675781

> <r_mmod_Improper_Torsional_Energy-OPLS-2005>
24.5052318572998

> <r_mmod_Van_der_Waal_Energy-OPLS-2005>
163.275466918945

> <r_mmod_Electrostatic_Energy-OPLS-2005>
-370.318023681641

> <r_mmod_Solvation_Energy-OPLS-2005>
-210.14811706543

> <b_mmod_Minimization_Converged-OPLS-2005>
0

> <r_mmod_RMS_Derivative-OPLS-2005>
5.29673957824707

$$$$
27
                    3D
 Structure written by MMmdl.
168176  0  0  1  0            999 V2000
  -30.6981  -14.4961   20.5557 C   0  0  0  0  0  0
  -30.4218  -12.3148   19.4359 C   0  0  0  0  0  0
  -29.4958  -12.5026   18.2160 C   0  0  0  0  0  0
  -28.0192  -12.3543   18.6294 C   0  0  0  0  0  0
  -27.6599  -13.2084   19.8746 C   0  0  2  0  0  0
  -28.7008  -13.0109   21.0009 C   0  0  0  0  0  0
  -25.2577  -13.8167   20.5686 C   0  0  0  0  0  0
  -24.1831  -13.0439   20.9180 C   0  0  0  0  0  0
  -24.6380  -11.6907   20.8735 C   0  0  0  0  0  0
  -23.9048  -10.4298   21.0405 C   0  0  0  0  0  0
  -24.3607   -9.4217   21.9181 C   0  0  0  0  0  0
  -23.6292   -8.2248   22.0751 C   0  0  0  0  0  0
  -22.4274   -8.0281   21.3540 C   0  0  0  0  0  0
  -21.9905   -9.0252   20.4643 C   0  0  0  0  0  0
  -22.7223  -10.2135   20.3052 C   0  0  0  0  0  0
  -21.6853   -6.0734   22.5273 C   0  0  0  0  0  0
  -21.4014   -6.5640   23.8206 C   0  0  0  0  0  0
  -21.3659   -5.6792   24.9172 C   0  0  0  0  0  0
  -21.6043   -4.3053   24.7225 C   0  0  0  0  0  0
  -21.8822   -3.8146   23.4349 C   0  0  0  0  0  0
  -21.9196   -4.6961   22.3402 C   0  0  0  0  0  0
  -22.7857  -13.5239   21.1855 C   0  0  0  0  0  0
  -22.1664   -4.2148   21.0979 F   0  0  0  0  0  0
  -21.5631   -3.4540   25.7747 F   0  0  0  0  0  0
  -30.0327  -13.3118   20.4487 N   0  0  0  0  0  0
  -26.3014  -12.9337   20.3376 N   0  0  0  0  0  0
  -25.9305  -11.6498   20.5771 N   0  0  0  0  0  0
  -22.0497  -12.8221   22.0406 N   0  0  0  0  0  0
  -25.4323  -15.1891   20.4105 N   0  0  0  0  0  0
  -31.8377  -14.6442   20.1072 O   0  0  0  0  0  0
  -21.6633   -6.8878   21.4236 O   0  0  0  0  0  0
  -22.3536  -14.5550   20.6714 O   0  0  0  0  0  0
  -24.6125  -31.8674   23.2099 C   0  0  0  0  0  0
  -25.9013  -32.4814   23.8400 C   0  0  1  0  0  0
  -27.2432  -27.4286   20.0922 C   0  0  0  0  0  0
  -25.5862  -33.8613   24.2318 N   0  0  0  0  0  0
  -23.4015  -30.4880   21.5523 C   0  0  2  0  0  0
  -24.8489  -28.9532   20.1127 C   0  0  0  0  0  0
  -22.7405  -29.4630   22.5021 C   0  0  0  0  0  0
  -18.0265  -28.1362   22.8497 C   0  0  0  0  0  0
  -24.1476  -36.7326   23.2644 C   0  0  0  0  0  0
  -25.9301  -30.8284   21.3654 C   0  0  0  0  0  0
  -26.0066  -29.4608   20.7151 C   0  0  0  0  0  0
  -27.1993  -28.7029   20.7067 C   0  0  0  0  0  0
  -26.0648  -26.9402   19.4758 C   0  0  0  0  0  0
  -24.8733  -27.6913   19.4940 C   0  0  0  0  0  0
  -23.6094  -29.8190   20.1669 C   0  0  0  0  0  0
  -25.4092  -36.3114   24.0346 C   0  0  1  0  0  0
  -20.5857  -28.3635   23.1341 C   0  0  2  0  0  0
  -20.6758  -26.9373   22.5438 C   0  0  0  0  0  0
  -19.5743  -26.6381   21.5221 C   0  0  0  0  0  0
  -18.1907  -26.7912   22.1615 C   0  0  0  0  0  0
  -19.1519  -28.8817   23.2908 C   0  0  0  0  0  0
  -18.9450  -30.1428   23.8910 C   0  0  0  0  0  0
  -17.6458  -30.6573   24.0570 C   0  0  0  0  0  0
  -25.9027  -34.9471   23.5139 C   0  0  0  0  0  0
  -16.5345  -29.9083   23.6320 C   0  0  0  0  0  0
  -16.7255  -28.6497   23.0339 C   0  0  0  0  0  0
  -26.4437  -31.6604   25.0733 C   0  0  0  0  0  0
  -25.3699  -31.3737   26.1497 C   0  0  0  0  0  0
  -27.0264  -30.3043   24.6120 C   0  0  0  0  0  0
  -27.6043  -32.4309   25.7456 C   0  0  0  0  0  0
  -27.5578  -37.1804   24.8454 C   0  0  0  0  0  0
  -21.4138  -29.2998   22.3757 N   0  0  0  0  0  0
  -26.4280  -37.3789   23.9413 N   0  0  0  0  0  0
  -24.6665  -31.0761   22.1009 N   0  0  0  0  0  0
  -23.4168  -28.8163   23.3066 O   0  0  0  0  0  0
  -28.4334  -26.7239   20.1360 O   0  0  0  0  0  0
  -26.5607  -34.8925   22.4720 O   0  0  0  0  0  0
  -23.5319  -32.1446   23.7488 O   0  0  0  0  0  0
  -29.3776  -19.2109   21.5354 C   0  0  0  0  0  0
  -31.2883  -18.9580   20.0655 C   0  0  0  0  0  0
  -29.2714  -17.8016   21.6303 C   0  0  0  0  0  0
  -31.1823  -17.5526   20.1603 C   0  0  0  0  0  0
  -30.3900  -19.8065   20.7507 C   0  0  0  0  0  0
  -30.1719  -16.9450   20.9506 C   0  0  0  0  0  0
  -27.8878  -21.2290   16.3901 C   0  0  0  0  0  0
  -26.8231  -21.8398   18.5978 C   0  0  0  0  0  0
  -30.5640  -21.3361   20.6698 C   0  0  0  0  0  0
  -29.7185  -24.6466   20.2116 C   0  0  0  0  0  0
  -30.2689  -23.4524   19.3841 C   0  0  0  0  0  0
  -29.3350  -21.3488   18.4658 C   0  0  0  0  0  0
  -28.5220  -25.4028   19.5803 C   0  0  0  0  0  0
  -28.0971  -21.9329   17.7400 C   0  0  0  0  0  0
  -29.9838  -15.5218   21.0759 N   0  0  0  0  0  0
  -29.6990  -22.0981   19.7042 N   0  3  1  0  0  0
  -31.4663  -12.4081   19.1339 H   0  0  0  0  0  0
  -30.3208  -11.3080   19.8435 H   0  0  0  0  0  0
  -29.7401  -11.7747   17.4411 H   0  0  0  0  0  0
  -29.6583  -13.4883   17.7758 H   0  0  0  0  0  0
  -27.8425  -11.2997   18.8440 H   0  0  0  0  0  0
  -27.3645  -12.6082   17.7957 H   0  0  0  0  0  0
  -27.6988  -14.2522   19.5629 H   0  0  0  0  0  0
  -28.6785  -11.9821   21.3641 H   0  0  0  0  0  0
  -28.4589  -13.6300   21.8659 H   0  0  0  0  0  0
  -25.2745   -9.5698   22.4759 H   0  0  0  0  0  0
  -24.0000   -7.4639   22.7468 H   0  0  0  0  0  0
  -21.0834   -8.8762   19.8950 H   0  0  0  0  0  0
  -22.3669  -10.9675   19.6164 H   0  0  0  0  0  0
  -21.2000   -7.6150   23.9710 H   0  0  0  0  0  0
  -21.1478   -6.0526   25.9078 H   0  0  0  0  0  0
  -22.0606   -2.7608   23.2848 H   0  0  0  0  0  0
  -22.4107  -11.9861   22.4767 H   0  0  0  0  0  0
  -21.1111  -13.1235   22.2627 H   0  0  0  0  0  0
  -24.6681  -15.8477   20.5148 H   0  0  0  0  0  0
  -26.2911  -15.6251   20.0994 H   0  0  0  0  0  0
  -26.7078  -32.5516   23.1167 H   0  0  0  0  0  0
  -24.9932  -33.9760   25.0400 H   0  0  0  0  0  0
  -22.6886  -31.3029   21.4128 H   0  0  0  0  0  0
  -23.3744  -35.9650   23.3266 H   0  0  0  0  0  0
  -24.3571  -36.8995   22.2067 H   0  0  0  0  0  0
  -23.7214  -37.6512   23.6687 H   0  0  0  0  0  0
  -26.0378  -31.5895   20.5915 H   0  0  0  0  0  0
  -26.8192  -30.8882   21.9807 H   0  0  0  0  0  0
  -28.0922  -29.0869   21.1813 H   0  0  0  0  0  0
  -26.0372  -25.9847   18.9737 H   0  0  0  0  0  0
  -23.9836  -27.2961   19.0222 H   0  0  0  0  0  0
  -23.7104  -30.5932   19.4056 H   0  0  0  0  0  0
  -22.7332  -29.2347   19.8787 H   0  0  0  0  0  0
  -25.1265  -36.1995   25.0839 H   0  0  0  0  0  0
  -20.9933  -28.3212   24.1477 H   0  0  0  0  0  0
  -20.5669  -26.2240   23.3624 H   0  0  0  0  0  0
  -21.6627  -26.7423   22.1237 H   0  0  0  0  0  0
  -19.6907  -25.6304   21.1215 H   0  0  0  0  0  0
  -19.6698  -27.3226   20.6774 H   0  0  0  0  0  0
  -17.4199  -26.6692   21.3992 H   0  0  0  0  0  0
  -18.0268  -26.0044   22.8991 H   0  0  0  0  0  0
  -19.7932  -30.7228   24.2302 H   0  0  0  0  0  0
  -17.5017  -31.6251   24.5172 H   0  0  0  0  0  0
  -15.5344  -30.2989   23.7642 H   0  0  0  0  0  0
  -15.8653  -28.0829   22.7035 H   0  0  0  0  0  0
  -24.5848  -30.7106   25.7840 H   0  0  0  0  0  0
  -24.8901  -32.2904   26.4943 H   0  0  0  0  0  0
  -25.8035  -30.8901   27.0259 H   0  0  0  0  0  0
  -26.2816  -29.6801   24.1171 H   0  0  0  0  0  0
  -27.4034  -29.7284   25.4580 H   0  0  0  0  0  0
  -27.8643  -30.4356   23.9266 H   0  0  0  0  0  0
  -27.2722  -33.3643   26.2008 H   0  0  0  0  0  0
  -28.3842  -32.6811   25.0251 H   0  0  0  0  0  0
  -28.0714  -31.8443   26.5379 H   0  0  0  0  0  0
  -28.2592  -38.0103   24.7511 H   0  0  0  0  0  0
  -28.1075  -36.2641   24.6249 H   0  0  0  0  0  0
  -27.2303  -37.1444   25.8857 H   0  0  0  0  0  0
  -20.9302  -29.8727   21.6981 H   0  0  0  0  0  0
  -26.0185  -38.2870   24.1420 H   0  0  0  0  0  0
  -28.6787  -19.8323   22.0797 H   0  0  0  0  0  0
  -32.0788  -19.3828   19.4611 H   0  0  0  0  0  0
  -28.4841  -17.3844   22.2424 H   0  0  0  0  0  0
  -31.8989  -16.9674   19.6050 H   0  0  0  0  0  0
  -27.0467  -21.6583   15.8438 H   0  0  0  0  0  0
  -27.6885  -20.1646   16.5239 H   0  0  0  0  0  0
  -28.7696  -21.3250   15.7551 H   0  0  0  0  0  0
  -25.9569  -22.2198   18.0540 H   0  0  0  0  0  0
  -26.9030  -22.4255   19.5136 H   0  0  0  0  0  0
  -26.6049  -20.8093   18.8800 H   0  0  0  0  0  0
  -31.6155  -21.5052   20.4331 H   0  0  0  0  0  0
  -30.4248  -21.7617   21.6641 H   0  0  0  0  0  0
  -30.5355  -25.3660   20.2976 H   0  0  0  0  0  0
  -29.4945  -24.3517   21.2378 H   0  0  0  0  0  0
  -31.3511  -23.4249   19.5093 H   0  0  0  0  0  0
  -30.1617  -23.6905   18.3264 H   0  0  0  0  0  0
  -30.1988  -21.3267   17.7988 H   0  0  0  0  0  0
  -29.0997  -20.3073   18.6807 H   0  0  0  0  0  0
  -27.6240  -24.8096   19.7504 H   0  0  0  0  0  0
  -28.6576  -25.5068   18.5032 H   0  0  0  0  0  0
  -28.2607  -22.9864   17.5126 H   0  0  0  0  0  0
  -29.1142  -15.2370   21.4998 H   0  0  0  0  0  0
  -28.8235  -22.2346   20.1853 H   0  0  0  0  0  0
  1 25  1  0  0  0
  1 30  2  0  0  0
  1 85  1  0  0  0
  2  3  1  0  0  0
  2 25  1  0  0  0
  2 87  1  0  0  0
  2 88  1  0  0  0
  3  4  1  0  0  0
  3 89  1  0  0  0
  3 90  1  0  0  0
  4  5  1  0  0  0
  4 91  1  0  0  0
  4 92  1  0  0  0
  5  6  1  0  0  0
  5 26  1  0  0  0
  5 93  1  0  0  0
  6 25  1  0  0  0
  6 94  1  0  0  0
  6 95  1  0  0  0
  7  8  2  0  0  0
  7 26  1  0  0  0
  7 29  1  0  0  0
  8  9  1  0  0  0
  8 22  1  0  0  0
  9 10  1  0  0  0
  9 27  2  0  0  0
 10 11  2  0  0  0
 10 15  1  0  0  0
 11 12  1  0  0  0
 11 96  1  0  0  0
 12 13  2  0  0  0
 12 97  1  0  0  0
 13 14  1  0  0  0
 13 31  1  0  0  0
 14 15  2  0  0  0
 14 98  1  0  0  0
 15 99  1  0  0  0
 16 17  2  0  0  0
 16 21  1  0  0  0
 16 31  1  0  0  0
 17 18  1  0  0  0
 17100  1  0  0  0
 18 19  2  0  0  0
 18101  1  0  0  0
 19 20  1  0  0  0
 19 24  1  0  0  0
 20 21  2  0  0  0
 20102  1  0  0  0
 21 23  1  0  0  0
 22 28  1  0  0  0
 22 32  2  0  0  0
 26 27  1  0  0  0
 28103  1  0  0  0
 28104  1  0  0  0
 29105  1  0  0  0
 29106  1  0  0  0
 33 34  1  0  0  0
 33 66  1  0  0  0
 33 70  2  0  0  0
 34 36  1  0  0  0
 34 59  1  0  0  0
 34107  1  0  0  0
 35 44  2  0  0  0
 35 45  1  0  0  0
 35 68  1  0  0  0
 36 56  1  0  0  0
 36108  1  0  0  0
 37 39  1  0  0  0
 37 47  1  0  0  0
 37 66  1  0  0  0
 37109  1  0  0  0
 38 43  2  0  0  0
 38 46  1  0  0  0
 38 47  1  0  0  0
 39 64  1  0  0  0
 39 67  2  0  0  0
 40 52  1  0  0  0
 40 53  2  0  0  0
 40 58  1  0  0  0
 41110  1  0  0  0
 41111  1  0  0  0
 41112  1  0  0  0
 41 48  1  0  0  0
 42 43  1  0  0  0
 42 66  1  0  0  0
 42113  1  0  0  0
 42114  1  0  0  0
 43 44  1  0  0  0
 44115  1  0  0  0
 45 46  2  0  0  0
 45116  1  0  0  0
 46117  1  0  0  0
 47118  1  0  0  0
 47119  1  0  0  0
 48 56  1  0  0  0
 48 65  1  0  0  0
 48120  1  0  0  0
 49 50  1  0  0  0
 49 53  1  0  0  0
 49 64  1  0  0  0
 49121  1  0  0  0
 50 51  1  0  0  0
 50122  1  0  0  0
 50123  1  0  0  0
 51 52  1  0  0  0
 51124  1  0  0  0
 51125  1  0  0  0
 52126  1  0  0  0
 52127  1  0  0  0
 53 54  1  0  0  0
 54 55  2  0  0  0
 54128  1  0  0  0
 55 57  1  0  0  0
 55129  1  0  0  0
 56 69  2  0  0  0
 57 58  2  0  0  0
 57130  1  0  0  0
 58131  1  0  0  0
 59 60  1  0  0  0
 59 61  1  0  0  0
 59 62  1  0  0  0
 60132  1  0  0  0
 60133  1  0  0  0
 60134  1  0  0  0
 61135  1  0  0  0
 61136  1  0  0  0
 61137  1  0  0  0
 62138  1  0  0  0
 62139  1  0  0  0
 62140  1  0  0  0
 63 65  1  0  0  0
 63141  1  0  0  0
 63142  1  0  0  0
 63143  1  0  0  0
 64144  1  0  0  0
 65145  1  0  0  0
 68 83  1  0  0  0
 71 73  2  0  0  0
 71 75  1  0  0  0
 71146  1  0  0  0
 72 74  1  0  0  0
 72 75  2  0  0  0
 72147  1  0  0  0
 73 76  1  0  0  0
 73148  1  0  0  0
 74 76  2  0  0  0
 74149  1  0  0  0
 75 79  1  0  0  0
 76 85  1  0  0  0
 77150  1  0  0  0
 77151  1  0  0  0
 77152  1  0  0  0
 77 84  1  0  0  0
 78 84  1  0  0  0
 78153  1  0  0  0
 78154  1  0  0  0
 78155  1  0  0  0
 79156  1  0  0  0
 79157  1  0  0  0
 79 86  1  0  0  0
 80 81  1  0  0  0
 80 83  1  0  0  0
 80158  1  0  0  0
 80159  1  0  0  0
 81 86  1  0  0  0
 81160  1  0  0  0
 81161  1  0  0  0
 82 84  1  0  0  0
 82 86  1  0  0  0
 82162  1  0  0  0
 82163  1  0  0  0
 83164  1  0  0  0
 83165  1  0  0  0
 84166  1  0  0  0
 85167  1  0  0  0
 86168  1  0  0  0
M  CHG  1  86   1
M  ISO  4   1 100  68 101  83 101  85 100
M  END
> <chiral flag>
0

> <version>
0

> <s_m_source_file>
/data/baiqing/PycharmProjects/Reinvent-master-3.2/result/LINK_invent/BTK/process_docking_weight1_custom_product_contain_oxygen_bond_distance_aromatic_linkinvent_7_9_3/rearranged_h_0019.sdf

> <i_m_source_file_index>
28

> <r_mmod_Potential_Energy-OPLS-2005>
-122.587844848633

> <r_mmod_Stretch_Energy-OPLS-2005>
44.1522178649902

> <r_mmod_Bend_Energy-OPLS-2005>
121.202583312988

> <r_mmod_Torsional_Energy-OPLS-2005>
228.390060424805

> <r_mmod_Improper_Torsional_Energy-OPLS-2005>
3.134521484375

> <r_mmod_Van_der_Waal_Energy-OPLS-2005>
158.460800170898

> <r_mmod_Electrostatic_Energy-OPLS-2005>
-256.832397460938

> <r_mmod_Solvation_Energy-OPLS-2005>
-436.863555908203

> <b_mmod_Minimization_Converged-OPLS-2005>
0

> <r_mmod_RMS_Derivative-OPLS-2005>
1.97564995288849

$$$$
28
                    3D
 Structure written by MMmdl.
152161  0  0  1  0            999 V2000
  -30.4416  -15.2184   20.3668 C   0  0  0  0  0  0
  -30.4434  -12.7633   19.5370 C   0  0  0  0  0  0
  -29.5409  -12.5699   18.2914 C   0  0  0  0  0  0
  -28.0833  -12.3042   18.7089 C   0  0  0  0  0  0
  -27.6147  -13.2745   19.8214 C   0  0  2  0  0  0
  -28.6448  -13.4274   20.9581 C   0  0  0  0  0  0
  -25.2406  -13.8255   20.5742 C   0  0  0  0  0  0
  -24.1750  -13.0443   20.9238 C   0  0  0  0  0  0
  -24.6401  -11.6939   20.8743 C   0  0  0  0  0  0
  -23.9094  -10.4299   21.0397 C   0  0  0  0  0  0
  -24.3639   -9.4213   21.9178 C   0  0  0  0  0  0
  -23.6306   -8.2251   22.0753 C   0  0  0  0  0  0
  -22.4286   -8.0287   21.3545 C   0  0  0  0  0  0
  -21.9926   -9.0259   20.4644 C   0  0  0  0  0  0
  -22.7262  -10.2135   20.3049 C   0  0  0  0  0  0
  -21.6860   -6.0739   22.5278 C   0  0  0  0  0  0
  -21.4017   -6.5638   23.8211 C   0  0  0  0  0  0
  -21.3660   -5.6791   24.9173 C   0  0  0  0  0  0
  -21.6045   -4.3055   24.7224 C   0  0  0  0  0  0
  -21.8817   -3.8146   23.4346 C   0  0  0  0  0  0
  -21.9192   -4.6965   22.3402 C   0  0  0  0  0  0
  -22.7768  -13.5195   21.1899 C   0  0  0  0  0  0
  -22.1660   -4.2150   21.0979 F   0  0  0  0  0  0
  -21.5629   -3.4536   25.7736 F   0  0  0  0  0  0
  -29.8984  -13.9051   20.3558 N   0  0  0  0  0  0
  -26.2829  -12.9528   20.3190 N   0  0  0  0  0  0
  -25.9337  -11.6633   20.5694 N   0  0  0  0  0  0
  -22.0429  -12.8172   22.0455 N   0  0  0  0  0  0
  -25.4064  -15.1992   20.4233 N   0  0  0  0  0  0
  -31.6604  -15.2134   20.1412 O   0  0  0  0  0  0
  -21.6646   -6.8885   21.4242 O   0  0  0  0  0  0
  -22.3441  -14.5497   20.6746 O   0  0  0  0  0  0
  -24.6613  -31.8271   23.1736 C   0  0  0  0  0  0
  -25.9306  -32.4608   23.8192 C   0  0  1  0  0  0
  -27.2133  -26.9503   20.1814 C   0  0  0  0  0  0
  -25.5983  -33.8420   24.2097 N   0  0  0  0  0  0
  -23.4749  -30.4409   21.5234 C   0  0  2  0  0  0
  -24.9270  -28.8358   20.1152 C   0  0  0  0  0  0
  -22.7663  -29.4461   22.4799 C   0  0  0  0  0  0
  -18.0320  -28.1414   22.8462 C   0  0  0  0  0  0
  -24.1492  -36.7211   23.2646 C   0  0  0  0  0  0
  -26.0441  -30.6413   21.4012 C   0  0  0  0  0  0
  -26.1123  -29.2336   20.7464 C   0  0  0  0  0  0
  -27.2531  -28.3126   20.7550 C   0  0  0  0  0  0
  -26.0002  -26.7080   19.4963 C   0  0  0  0  0  0
  -24.8949  -27.5922   19.4699 C   0  0  0  0  0  0
  -23.7133  -29.7608   20.1489 C   0  0  0  0  0  0
  -25.4133  -36.2978   24.0302 C   0  0  1  0  0  0
  -20.5945  -28.3757   23.1191 C   0  0  2  0  0  0
  -20.6800  -26.9443   22.5397 C   0  0  0  0  0  0
  -19.5771  -26.6384   21.5212 C   0  0  0  0  0  0
  -18.1953  -26.7945   22.1619 C   0  0  0  0  0  0
  -19.1581  -28.8905   23.2812 C   0  0  0  0  0  0
  -18.9493  -30.1492   23.8852 C   0  0  0  0  0  0
  -17.6486  -30.6601   24.0555 C   0  0  0  0  0  0
  -25.9099  -34.9360   23.5018 C   0  0  0  0  0  0
  -16.5376  -29.9088   23.6346 C   0  0  0  0  0  0
  -16.7303  -28.6510   23.0363 C   0  0  0  0  0  0
  -26.4566  -31.6540   25.0709 C   0  0  0  0  0  0
  -25.3697  -31.3782   26.1366 C   0  0  0  0  0  0
  -27.0458  -30.2910   24.6423 C   0  0  0  0  0  0
  -27.6067  -32.4344   25.7507 C   0  0  0  0  0  0
  -27.5569  -37.1764   24.8469 C   0  0  0  0  0  0
  -21.4336  -29.3049   22.3545 N   0  0  0  0  0  0
  -26.4279  -37.3712   23.9409 N   0  0  0  0  0  0
  -24.7481  -30.9957   22.0865 N   0  0  0  0  0  0
  -23.4218  -28.8025   23.3031 O   0  0  0  0  0  0
  -28.2066  -25.8409   20.2297 O   0  0  0  0  0  0
  -26.5701  -34.8887   22.4608 O   0  0  0  0  0  0
  -23.5689  -32.1231   23.6845 O   0  0  0  0  0  0
  -29.7964  -20.8295   18.9094 C   0  0  0  0  0  0
  -29.3502  -22.2147   19.1150 C   0  0  0  0  0  0
  -28.4069  -21.5369   21.1394 C   0  0  0  0  0  0
  -29.5707  -19.7013   19.7897 C   0  0  0  0  0  0
  -28.8659  -20.1158   20.9443 C   0  0  0  0  0  0
  -28.6065  -22.7139   20.2461 C   0  0  0  0  0  0
  -30.0607  -18.1285   19.5188 C   0  0  0  0  0  0
  -28.5761  -18.9050   21.9009 C   0  0  0  0  0  0
  -29.4557  -17.5349   21.8153 C   0  0  0  0  0  0
  -29.6360  -16.7766   20.4307 C   0  0  2  0  0  0
  -27.8021  -24.2590   20.3437 C   0  0  0  0  0  0
  -31.4689  -12.9491   19.2154 H   0  0  0  0  0  0
  -30.4856  -11.8484   20.1299 H   0  0  0  0  0  0
  -29.9117  -11.7485   17.6769 H   0  0  0  0  0  0
  -29.5858  -13.4647   17.6691 H   0  0  0  0  0  0
  -28.0282  -11.2775   19.0725 H   0  0  0  0  0  0
  -27.4198  -12.3587   17.8455 H   0  0  0  0  0  0
  -27.5384  -14.2473   19.3343 H   0  0  0  0  0  0
  -28.7878  -12.4882   21.4946 H   0  0  0  0  0  0
  -28.2927  -14.1547   21.6917 H   0  0  0  0  0  0
  -25.2782   -9.5688   22.4758 H   0  0  0  0  0  0
  -24.0008   -7.4644   22.7474 H   0  0  0  0  0  0
  -21.0857   -8.8782   19.8951 H   0  0  0  0  0  0
  -22.3719  -10.9674   19.6159 H   0  0  0  0  0  0
  -21.2013   -7.6146   23.9717 H   0  0  0  0  0  0
  -21.1484   -6.0519   25.9076 H   0  0  0  0  0  0
  -22.0597   -2.7608   23.2844 H   0  0  0  0  0  0
  -22.4056  -11.9837   22.4842 H   0  0  0  0  0  0
  -21.1041  -13.1179   22.2665 H   0  0  0  0  0  0
  -24.6411  -15.8524   20.5514 H   0  0  0  0  0  0
  -26.2602  -15.6465   20.1167 H   0  0  0  0  0  0
  -26.7374  -32.5149   23.0908 H   0  0  0  0  0  0
  -25.0100  -33.9506   25.0229 H   0  0  0  0  0  0
  -22.7869  -31.2721   21.3547 H   0  0  0  0  0  0
  -23.3764  -35.9530   23.3289 H   0  0  0  0  0  0
  -24.3564  -36.8875   22.2063 H   0  0  0  0  0  0
  -23.7239  -37.6393   23.6708 H   0  0  0  0  0  0
  -26.2211  -31.3837   20.6220 H   0  0  0  0  0  0
  -26.9057  -30.6982   22.0546 H   0  0  0  0  0  0
  -28.1507  -28.6161   21.2749 H   0  0  0  0  0  0
  -25.8645  -25.7715   18.9788 H   0  0  0  0  0  0
  -23.9973  -27.2837   18.9518 H   0  0  0  0  0  0
  -23.8683  -30.5303   19.3918 H   0  0  0  0  0  0
  -22.8235  -29.2154   19.8305 H   0  0  0  0  0  0
  -25.1328  -36.1782   25.0794 H   0  0  0  0  0  0
  -21.0025  -28.3357   24.1319 H   0  0  0  0  0  0
  -20.5694  -26.2375   23.3635 H   0  0  0  0  0  0
  -21.6662  -26.7430   22.1196 H   0  0  0  0  0  0
  -19.6937  -25.6286   21.1268 H   0  0  0  0  0  0
  -19.6709  -27.3172   20.6724 H   0  0  0  0  0  0
  -17.4223  -26.6690   21.4022 H   0  0  0  0  0  0
  -18.0344  -26.0101   22.9031 H   0  0  0  0  0  0
  -19.7970  -30.7318   24.2204 H   0  0  0  0  0  0
  -17.5040  -31.6276   24.5167 H   0  0  0  0  0  0
  -15.5374  -30.2975   23.7700 H   0  0  0  0  0  0
  -15.8704  -28.0811   22.7111 H   0  0  0  0  0  0
  -24.5893  -30.7120   25.7672 H   0  0  0  0  0  0
  -24.8870  -32.2979   26.4679 H   0  0  0  0  0  0
  -25.7929  -30.9022   27.0221 H   0  0  0  0  0  0
  -26.3122  -29.6590   24.1404 H   0  0  0  0  0  0
  -27.3976  -29.7267   25.5072 H   0  0  0  0  0  0
  -27.9069  -30.4101   23.9844 H   0  0  0  0  0  0
  -27.2649  -33.3694   26.1952 H   0  0  0  0  0  0
  -28.3942  -32.6819   25.0379 H   0  0  0  0  0  0
  -28.0657  -31.8554   26.5530 H   0  0  0  0  0  0
  -28.2573  -38.0072   24.7508 H   0  0  0  0  0  0
  -28.1078  -36.2596   24.6306 H   0  0  0  0  0  0
  -27.2281  -37.1419   25.8871 H   0  0  0  0  0  0
  -20.9593  -29.8746   21.6678 H   0  0  0  0  0  0
  -26.0131  -38.2774   24.1414 H   0  0  0  0  0  0
  -30.3284  -20.6268   17.9899 H   0  0  0  0  0  0
  -29.5555  -22.9182   18.3200 H   0  0  0  0  0  0
  -27.8146  -21.7206   22.0250 H   0  0  0  0  0  0
  -31.1503  -18.1689   19.5252 H   0  0  0  0  0  0
  -29.8093  -17.9050   18.4818 H   0  0  0  0  0  0
  -27.5289  -18.6404   21.7500 H   0  0  0  0  0  0
  -28.6321  -19.2817   22.9228 H   0  0  0  0  0  0
  -29.0538  -16.8257   22.5397 H   0  0  0  0  0  0
  -30.4558  -17.7700   22.1815 H   0  0  0  0  0  0
  -28.6223  -16.5272   20.1177 H   0  0  0  0  0  0
  -27.2674  -24.2065   21.2925 H   0  0  0  0  0  0
  -27.0222  -24.1210   19.5985 H   0  0  0  0  0  0
  1 25  1  0  0  0
  1 30  2  0  0  0
  1 80  1  0  0  0
  2  3  1  0  0  0
  2 25  1  0  0  0
  2 82  1  0  0  0
  2 83  1  0  0  0
  3  4  1  0  0  0
  3 84  1  0  0  0
  3 85  1  0  0  0
  4  5  1  0  0  0
  4 86  1  0  0  0
  4 87  1  0  0  0
  5  6  1  0  0  0
  5 26  1  0  0  0
  5 88  1  0  0  0
  6 25  1  0  0  0
  6 89  1  0  0  0
  6 90  1  0  0  0
  7  8  2  0  0  0
  7 26  1  0  0  0
  7 29  1  0  0  0
  8  9  1  0  0  0
  8 22  1  0  0  0
  9 10  1  0  0  0
  9 27  2  0  0  0
 10 11  2  0  0  0
 10 15  1  0  0  0
 11 12  1  0  0  0
 11 91  1  0  0  0
 12 13  2  0  0  0
 12 92  1  0  0  0
 13 14  1  0  0  0
 13 31  1  0  0  0
 14 15  2  0  0  0
 14 93  1  0  0  0
 15 94  1  0  0  0
 16 17  2  0  0  0
 16 21  1  0  0  0
 16 31  1  0  0  0
 17 18  1  0  0  0
 17 95  1  0  0  0
 18 19  2  0  0  0
 18 96  1  0  0  0
 19 20  1  0  0  0
 19 24  1  0  0  0
 20 21  2  0  0  0
 20 97  1  0  0  0
 21 23  1  0  0  0
 22 28  1  0  0  0
 22 32  2  0  0  0
 26 27  1  0  0  0
 28 98  1  0  0  0
 28 99  1  0  0  0
 29100  1  0  0  0
 29101  1  0  0  0
 33 34  1  0  0  0
 33 66  1  0  0  0
 33 70  2  0  0  0
 34 36  1  0  0  0
 34 59  1  0  0  0
 34102  1  0  0  0
 35 44  2  0  0  0
 35 45  1  0  0  0
 35 68  1  0  0  0
 36 56  1  0  0  0
 36103  1  0  0  0
 37 39  1  0  0  0
 37 47  1  0  0  0
 37 66  1  0  0  0
 37104  1  0  0  0
 38 43  2  0  0  0
 38 46  1  0  0  0
 38 47  1  0  0  0
 39 64  1  0  0  0
 39 67  2  0  0  0
 40 52  1  0  0  0
 40 53  2  0  0  0
 40 58  1  0  0  0
 41105  1  0  0  0
 41106  1  0  0  0
 41107  1  0  0  0
 41 48  1  0  0  0
 42 43  1  0  0  0
 42 66  1  0  0  0
 42108  1  0  0  0
 42109  1  0  0  0
 43 44  1  0  0  0
 44110  1  0  0  0
 45 46  2  0  0  0
 45111  1  0  0  0
 46112  1  0  0  0
 47113  1  0  0  0
 47114  1  0  0  0
 48 56  1  0  0  0
 48 65  1  0  0  0
 48115  1  0  0  0
 49 50  1  0  0  0
 49 53  1  0  0  0
 49 64  1  0  0  0
 49116  1  0  0  0
 50 51  1  0  0  0
 50117  1  0  0  0
 50118  1  0  0  0
 51 52  1  0  0  0
 51119  1  0  0  0
 51120  1  0  0  0
 52121  1  0  0  0
 52122  1  0  0  0
 53 54  1  0  0  0
 54 55  2  0  0  0
 54123  1  0  0  0
 55 57  1  0  0  0
 55124  1  0  0  0
 56 69  2  0  0  0
 57 58  2  0  0  0
 57125  1  0  0  0
 58126  1  0  0  0
 59 60  1  0  0  0
 59 61  1  0  0  0
 59 62  1  0  0  0
 60127  1  0  0  0
 60128  1  0  0  0
 60129  1  0  0  0
 61130  1  0  0  0
 61131  1  0  0  0
 61132  1  0  0  0
 62133  1  0  0  0
 62134  1  0  0  0
 62135  1  0  0  0
 63 65  1  0  0  0
 63136  1  0  0  0
 63137  1  0  0  0
 63138  1  0  0  0
 64139  1  0  0  0
 65140  1  0  0  0
 68 81  1  0  0  0
 71 72  2  0  0  0
 71 74  1  0  0  0
 71141  1  0  0  0
 72 76  1  0  0  0
 72142  1  0  0  0
 73 75  1  0  0  0
 73 76  2  0  0  0
 73143  1  0  0  0
 74 75  2  0  0  0
 74 77  1  0  0  0
 75 78  1  0  0  0
 76 81  1  0  0  0
 77 80  1  0  0  0
 77144  1  0  0  0
 77145  1  0  0  0
 78 79  1  0  0  0
 78146  1  0  0  0
 78147  1  0  0  0
 79 80  1  0  0  0
 79148  1  0  0  0
 79149  1  0  0  0
 80150  1  0  0  0
 81151  1  0  0  0
 81152  1  0  0  0
M  ISO  4   1 100  68 101  80 100  81 101
M  END
> <chiral flag>
0

> <version>
0

> <s_m_source_file>
/data/baiqing/PycharmProjects/Reinvent-master-3.2/result/LINK_invent/BTK/process_docking_weight1_custom_product_contain_oxygen_bond_distance_aromatic_linkinvent_7_9_3/rearranged_h_0019.sdf

> <i_m_source_file_index>
29

> <r_mmod_Potential_Energy-OPLS-2005>
1101.03271484375

> <r_mmod_Stretch_Energy-OPLS-2005>
457.84619140625

> <r_mmod_Bend_Energy-OPLS-2005>
386.487640380859

> <r_mmod_Torsional_Energy-OPLS-2005>
213.945266723633

> <r_mmod_Improper_Torsional_Energy-OPLS-2005>
6.46855211257935

> <r_mmod_Van_der_Waal_Energy-OPLS-2005>
126.921226501465

> <r_mmod_Electrostatic_Energy-OPLS-2005>
-310.352600097656

> <r_mmod_Solvation_Energy-OPLS-2005>
-195.277389526367

> <b_mmod_Minimization_Converged-OPLS-2005>
0

> <r_mmod_RMS_Derivative-OPLS-2005>
0.660348355770111

$$$$
29
                    3D
 Structure written by MMmdl.
157166  0  0  1  0            999 V2000
  -30.5854  -14.7221   20.4801 C   0  0  0  0  0  0
  -30.4427  -12.4403   19.4686 C   0  0  0  0  0  0
  -29.5138  -12.5196   18.2353 C   0  0  0  0  0  0
  -28.0377  -12.3450   18.6446 C   0  0  0  0  0  0
  -27.6504  -13.2245   19.8628 C   0  0  2  0  0  0
  -28.6942  -13.1086   20.9956 C   0  0  0  0  0  0
  -25.2546  -13.8180   20.5688 C   0  0  0  0  0  0
  -24.1818  -13.0435   20.9185 C   0  0  0  0  0  0
  -24.6405  -11.6911   20.8732 C   0  0  0  0  0  0
  -23.9077  -10.4286   21.0402 C   0  0  0  0  0  0
  -24.3622   -9.4201   21.9183 C   0  0  0  0  0  0
  -23.6289   -8.2241   22.0756 C   0  0  0  0  0  0
  -22.4273   -8.0281   21.3545 C   0  0  0  0  0  0
  -21.9912   -9.0256   20.4648 C   0  0  0  0  0  0
  -22.7243  -10.2132   20.3057 C   0  0  0  0  0  0
  -21.6853   -6.0735   22.5278 C   0  0  0  0  0  0
  -21.4015   -6.5639   23.8210 C   0  0  0  0  0  0
  -21.3659   -5.6790   24.9170 C   0  0  0  0  0  0
  -21.6046   -4.3055   24.7222 C   0  0  0  0  0  0
  -21.8819   -3.8146   23.4341 C   0  0  0  0  0  0
  -21.9192   -4.6962   22.3399 C   0  0  0  0  0  0
  -22.7840  -13.5224   21.1846 C   0  0  0  0  0  0
  -22.1660   -4.2149   21.0976 F   0  0  0  0  0  0
  -21.5627   -3.4540   25.7735 F   0  0  0  0  0  0
  -30.0023  -13.4753   20.4312 N   0  0  0  0  0  0
  -26.2977  -12.9379   20.3315 N   0  0  0  0  0  0
  -25.9340  -11.6525   20.5760 N   0  0  0  0  0  0
  -22.0489  -12.8216   22.0407 N   0  0  0  0  0  0
  -25.4243  -15.1905   20.4101 N   0  0  0  0  0  0
  -31.7471  -14.8811   20.0917 O   0  0  0  0  0  0
  -21.6638   -6.8878   21.4241 O   0  0  0  0  0  0
  -22.3524  -14.5529   20.6694 O   0  0  0  0  0  0
  -24.6309  -31.8546   23.1983 C   0  0  0  0  0  0
  -25.9137  -32.4751   23.8334 C   0  0  1  0  0  0
  -27.2239  -27.2697   20.1280 C   0  0  0  0  0  0
  -25.5937  -33.8555   24.2253 N   0  0  0  0  0  0
  -23.4279  -30.4769   21.5405 C   0  0  2  0  0  0
  -24.8769  -28.9237   20.1100 C   0  0  0  0  0  0
  -22.7497  -29.4601   22.4908 C   0  0  0  0  0  0
  -18.0285  -28.1390   22.8474 C   0  0  0  0  0  0
  -24.1494  -36.7274   23.2639 C   0  0  0  0  0  0
  -25.9737  -30.7691   21.3784 C   0  0  0  0  0  0
  -26.0479  -29.3932   20.7190 C   0  0  0  0  0  0
  -27.2256  -28.5798   20.7133 C   0  0  0  0  0  0
  -26.0327  -26.8677   19.4840 C   0  0  0  0  0  0
  -24.8745  -27.6697   19.4803 C   0  0  0  0  0  0
  -23.6469  -29.8093   20.1576 C   0  0  0  0  0  0
  -25.4116  -36.3061   24.0325 C   0  0  1  0  0  0
  -20.5889  -28.3697   23.1270 C   0  0  2  0  0  0
  -20.6778  -26.9409   22.5415 C   0  0  0  0  0  0
  -19.5761  -26.6377   21.5212 C   0  0  0  0  0  0
  -18.1930  -26.7933   22.1605 C   0  0  0  0  0  0
  -19.1538  -28.8858   23.2870 C   0  0  0  0  0  0
  -18.9466  -30.1456   23.8892 C   0  0  0  0  0  0
  -17.6469  -30.6589   24.0563 C   0  0  0  0  0  0
  -25.9056  -34.9434   23.5088 C   0  0  0  0  0  0
  -16.5357  -29.9085   23.6343 C   0  0  0  0  0  0
  -16.7272  -28.6506   23.0351 C   0  0  0  0  0  0
  -26.4506  -31.6580   25.0727 C   0  0  0  0  0  0
  -25.3732  -31.3767   26.1463 C   0  0  0  0  0  0
  -27.0323  -30.2981   24.6228 C   0  0  0  0  0  0
  -27.6083  -32.4316   25.7473 C   0  0  0  0  0  0
  -27.5581  -37.1779   24.8456 C   0  0  0  0  0  0
  -21.4201  -29.3046   22.3659 N   0  0  0  0  0  0
  -26.4282  -37.3766   23.9419 N   0  0  0  0  0  0
  -24.6963  -31.0515   22.0956 N   0  0  0  0  0  0
  -23.4197  -28.8140   23.3005 O   0  0  0  0  0  0
  -28.3199  -26.3796   20.1811 O   0  0  0  0  0  0
  -26.5623  -34.8912   22.4655 O   0  0  0  0  0  0
  -23.5461  -32.1367   23.7278 O   0  0  0  0  0  0
  -29.3006  -19.5564   21.5507 C   0  0  0  0  0  0
  -30.1192  -19.3124   19.3219 C   0  0  0  0  0  0
  -29.6856  -20.2098   20.3465 C   0  0  0  0  0  0
  -29.3504  -18.1276   21.7189 C   0  0  0  0  0  0
  -29.8256  -17.2419   20.6973 C   0  0  0  0  0  0
  -30.1917  -17.8872   19.4808 C   0  0  0  0  0  0
  -29.0046  -24.0357   21.2126 C   0  0  0  0  0  0
  -28.5136  -23.8558   19.2734 C   0  0  0  0  0  0
  -28.0528  -24.9051   20.3370 C   0  0  2  0  0  0
  -28.8931  -17.5462   23.0459 C   0  0  0  0  0  0
  -29.8624  -21.7982   20.1960 C   0  0  0  0  0  0
  -29.7822  -15.7701   20.8867 N   0  0  0  0  0  0
  -28.7413  -22.8403   20.3519 N   0  3  1  0  0  0
  -30.5917  -17.1385   18.4255 F   0  0  0  0  0  0
  -31.4823  -12.5770   19.1664 H   0  0  0  0  0  0
  -30.3930  -11.4507   19.9253 H   0  0  0  0  0  0
  -29.7907  -11.7603   17.5030 H   0  0  0  0  0  0
  -29.6438  -13.4836   17.7402 H   0  0  0  0  0  0
  -27.8854  -11.2922   18.8866 H   0  0  0  0  0  0
  -27.3822  -12.5588   17.7993 H   0  0  0  0  0  0
  -27.6585  -14.2558   19.5093 H   0  0  0  0  0  0
  -28.7229  -12.0914   21.3880 H   0  0  0  0  0  0
  -28.4264  -13.7450   21.8399 H   0  0  0  0  0  0
  -25.2772   -9.5675   22.4756 H   0  0  0  0  0  0
  -23.9997   -7.4634   22.7481 H   0  0  0  0  0  0
  -21.0841   -8.8775   19.8955 H   0  0  0  0  0  0
  -22.3701  -10.9673   19.6168 H   0  0  0  0  0  0
  -21.2010   -7.6150   23.9713 H   0  0  0  0  0  0
  -21.1481   -6.0522   25.9073 H   0  0  0  0  0  0
  -22.0600   -2.7611   23.2841 H   0  0  0  0  0  0
  -22.4106  -11.9873   22.4786 H   0  0  0  0  0  0
  -21.1112  -13.1245   22.2620 H   0  0  0  0  0  0
  -24.6543  -15.8423   20.5123 H   0  0  0  0  0  0
  -26.2699  -15.6298   20.0699 H   0  0  0  0  0  0
  -26.7203  -32.5398   23.1076 H   0  0  0  0  0  0
  -25.0118  -33.9710   25.0421 H   0  0  0  0  0  0
  -22.7249  -31.2995   21.3933 H   0  0  0  0  0  0
  -23.3772  -35.9587   23.3265 H   0  0  0  0  0  0
  -24.3591  -36.8934   22.2061 H   0  0  0  0  0  0
  -23.7228  -37.6454   23.6693 H   0  0  0  0  0  0
  -26.1141  -31.5296   20.6092 H   0  0  0  0  0  0
  -26.8511  -30.8159   22.0128 H   0  0  0  0  0  0
  -28.1231  -28.9334   21.2012 H   0  0  0  0  0  0
  -25.9788  -25.9104   18.9859 H   0  0  0  0  0  0
  -23.9790  -27.3095   18.9930 H   0  0  0  0  0  0
  -23.7705  -30.5861   19.4021 H   0  0  0  0  0  0
  -22.7665  -29.2417   19.8515 H   0  0  0  0  0  0
  -25.1295  -36.1895   25.0815 H   0  0  0  0  0  0
  -20.9970  -28.3279   24.1395 H   0  0  0  0  0  0
  -20.5666  -26.2306   23.3622 H   0  0  0  0  0  0
  -21.6653  -26.7423   22.1223 H   0  0  0  0  0  0
  -19.6931  -25.6285   21.1248 H   0  0  0  0  0  0
  -19.6718  -27.3191   20.6747 H   0  0  0  0  0  0
  -17.4206  -26.6687   21.3999 H   0  0  0  0  0  0
  -18.0320  -26.0068   22.8993 H   0  0  0  0  0  0
  -19.7941  -30.7272   24.2261 H   0  0  0  0  0  0
  -17.5023  -31.6274   24.5158 H   0  0  0  0  0  0
  -15.5358  -30.2991   23.7681 H   0  0  0  0  0  0
  -15.8667  -28.0835   22.7068 H   0  0  0  0  0  0
  -24.5935  -30.7059   25.7837 H   0  0  0  0  0  0
  -24.8893  -32.2941   26.4826 H   0  0  0  0  0  0
  -25.8061  -30.9025   27.0280 H   0  0  0  0  0  0
  -26.2884  -29.6734   24.1266 H   0  0  0  0  0  0
  -27.3992  -29.7255   25.4757 H   0  0  0  0  0  0
  -27.8786  -30.4227   23.9467 H   0  0  0  0  0  0
  -27.2747  -33.3695   26.1927 H   0  0  0  0  0  0
  -28.3953  -32.6724   25.0312 H   0  0  0  0  0  0
  -28.0669  -31.8495   26.5478 H   0  0  0  0  0  0
  -28.2575  -38.0099   24.7524 H   0  0  0  0  0  0
  -28.1097  -36.2629   24.6237 H   0  0  0  0  0  0
  -27.2308  -37.1372   25.8861 H   0  0  0  0  0  0
  -20.9383  -29.8766   21.6864 H   0  0  0  0  0  0
  -26.0151  -38.2827   24.1464 H   0  0  0  0  0  0
  -28.9857  -20.1683   22.3853 H   0  0  0  0  0  0
  -30.4497  -19.7223   18.3784 H   0  0  0  0  0  0
  -28.6776  -23.9097   22.2442 H   0  0  0  0  0  0
  -30.0435  -24.3721   21.1722 H   0  0  0  0  0  0
  -29.4299  -24.1488   18.7560 H   0  0  0  0  0  0
  -27.7411  -23.5648   18.5611 H   0  0  0  0  0  0
  -27.0246  -24.7173   20.6560 H   0  0  0  0  0  0
  -28.6738  -18.3273   23.7743 H   0  0  0  0  0  0
  -29.6653  -16.9045   23.4721 H   0  0  0  0  0  0
  -27.9873  -16.9543   22.9104 H   0  0  0  0  0  0
  -30.3212  -21.9745   19.2232 H   0  0  0  0  0  0
  -30.6425  -22.0640   20.9095 H   0  0  0  0  0  0
  -28.9447  -15.4487   21.3453 H   0  0  0  0  0  0
  -27.8738  -22.4005   20.6164 H   0  0  0  0  0  0
  1 25  1  0  0  0
  1 30  2  0  0  0
  1 82  1  0  0  0
  2  3  1  0  0  0
  2 25  1  0  0  0
  2 85  1  0  0  0
  2 86  1  0  0  0
  3  4  1  0  0  0
  3 87  1  0  0  0
  3 88  1  0  0  0
  4  5  1  0  0  0
  4 89  1  0  0  0
  4 90  1  0  0  0
  5  6  1  0  0  0
  5 26  1  0  0  0
  5 91  1  0  0  0
  6 25  1  0  0  0
  6 92  1  0  0  0
  6 93  1  0  0  0
  7  8  2  0  0  0
  7 26  1  0  0  0
  7 29  1  0  0  0
  8  9  1  0  0  0
  8 22  1  0  0  0
  9 10  1  0  0  0
  9 27  2  0  0  0
 10 11  2  0  0  0
 10 15  1  0  0  0
 11 12  1  0  0  0
 11 94  1  0  0  0
 12 13  2  0  0  0
 12 95  1  0  0  0
 13 14  1  0  0  0
 13 31  1  0  0  0
 14 15  2  0  0  0
 14 96  1  0  0  0
 15 97  1  0  0  0
 16 17  2  0  0  0
 16 21  1  0  0  0
 16 31  1  0  0  0
 17 18  1  0  0  0
 17 98  1  0  0  0
 18 19  2  0  0  0
 18 99  1  0  0  0
 19 20  1  0  0  0
 19 24  1  0  0  0
 20 21  2  0  0  0
 20100  1  0  0  0
 21 23  1  0  0  0
 22 28  1  0  0  0
 22 32  2  0  0  0
 26 27  1  0  0  0
 28101  1  0  0  0
 28102  1  0  0  0
 29103  1  0  0  0
 29104  1  0  0  0
 33 34  1  0  0  0
 33 66  1  0  0  0
 33 70  2  0  0  0
 34 36  1  0  0  0
 34 59  1  0  0  0
 34105  1  0  0  0
 35 44  2  0  0  0
 35 45  1  0  0  0
 35 68  1  0  0  0
 36 56  1  0  0  0
 36106  1  0  0  0
 37 39  1  0  0  0
 37 47  1  0  0  0
 37 66  1  0  0  0
 37107  1  0  0  0
 38 43  2  0  0  0
 38 46  1  0  0  0
 38 47  1  0  0  0
 39 64  1  0  0  0
 39 67  2  0  0  0
 40 52  1  0  0  0
 40 53  2  0  0  0
 40 58  1  0  0  0
 41108  1  0  0  0
 41109  1  0  0  0
 41110  1  0  0  0
 41 48  1  0  0  0
 42 43  1  0  0  0
 42 66  1  0  0  0
 42111  1  0  0  0
 42112  1  0  0  0
 43 44  1  0  0  0
 44113  1  0  0  0
 45 46  2  0  0  0
 45114  1  0  0  0
 46115  1  0  0  0
 47116  1  0  0  0
 47117  1  0  0  0
 48 56  1  0  0  0
 48 65  1  0  0  0
 48118  1  0  0  0
 49 50  1  0  0  0
 49 53  1  0  0  0
 49 64  1  0  0  0
 49119  1  0  0  0
 50 51  1  0  0  0
 50120  1  0  0  0
 50121  1  0  0  0
 51 52  1  0  0  0
 51122  1  0  0  0
 51123  1  0  0  0
 52124  1  0  0  0
 52125  1  0  0  0
 53 54  1  0  0  0
 54 55  2  0  0  0
 54126  1  0  0  0
 55 57  1  0  0  0
 55127  1  0  0  0
 56 69  2  0  0  0
 57 58  2  0  0  0
 57128  1  0  0  0
 58129  1  0  0  0
 59 60  1  0  0  0
 59 61  1  0  0  0
 59 62  1  0  0  0
 60130  1  0  0  0
 60131  1  0  0  0
 60132  1  0  0  0
 61133  1  0  0  0
 61134  1  0  0  0
 61135  1  0  0  0
 62136  1  0  0  0
 62137  1  0  0  0
 62138  1  0  0  0
 63 65  1  0  0  0
 63139  1  0  0  0
 63140  1  0  0  0
 63141  1  0  0  0
 64142  1  0  0  0
 65143  1  0  0  0
 68 79  1  0  0  0
 71 73  2  0  0  0
 71 74  1  0  0  0
 71144  1  0  0  0
 72 73  1  0  0  0
 72 76  2  0  0  0
 72145  1  0  0  0
 73 81  1  0  0  0
 74 75  2  0  0  0
 74 80  1  0  0  0
 75 76  1  0  0  0
 75 82  1  0  0  0
 76 84  1  0  0  0
 77 79  1  0  0  0
 77 83  1  0  0  0
 77146  1  0  0  0
 77147  1  0  0  0
 78 79  1  0  0  0
 78 83  1  0  0  0
 78148  1  0  0  0
 78149  1  0  0  0
 79150  1  0  0  0
 80151  1  0  0  0
 80152  1  0  0  0
 80153  1  0  0  0
 81154  1  0  0  0
 81155  1  0  0  0
 81 83  1  0  0  0
 82156  1  0  0  0
 83157  1  0  0  0
M  CHG  1  83   1
M  ISO  4   1 100  68 101  79 101  82 100
M  END
> <chiral flag>
0

> <version>
0

> <s_m_source_file>
/data/baiqing/PycharmProjects/Reinvent-master-3.2/result/LINK_invent/BTK/process_docking_weight1_custom_product_contain_oxygen_bond_distance_aromatic_linkinvent_7_9_3/rearranged_h_0019.sdf

> <i_m_source_file_index>
30

> <r_mmod_Potential_Energy-OPLS-2005>
-69.7126159667969

> <r_mmod_Stretch_Energy-OPLS-2005>
108.645568847656

> <r_mmod_Bend_Energy-OPLS-2005>
186.775939941406

> <r_mmod_Torsional_Energy-OPLS-2005>
249.907730102539

> <r_mmod_Improper_Torsional_Energy-OPLS-2005>
4.35718059539795

> <r_mmod_Van_der_Waal_Energy-OPLS-2005>
139.129089355469

> <r_mmod_Electrostatic_Energy-OPLS-2005>
-342.605743408203

> <r_mmod_Solvation_Energy-OPLS-2005>
-492.812408447266

> <b_mmod_Minimization_Converged-OPLS-2005>
0

> <r_mmod_RMS_Derivative-OPLS-2005>
1.05561125278473

$$$$
30
                    3D
 Structure written by MMmdl.
165173  0  0  1  0            999 V2000
  -30.7311  -14.4888   20.5225 C   0  0  0  0  0  0
  -30.4144  -12.3078   19.4034 C   0  0  0  0  0  0
  -29.4663  -12.4465   18.1948 C   0  0  0  0  0  0
  -28.0043  -12.2478   18.6362 C   0  0  0  0  0  0
  -27.6337  -13.1372   19.8418 C   0  0  2  0  0  0
  -28.7008  -13.0083   20.9644 C   0  0  0  0  0  0
  -25.2547  -13.7947   20.5650 C   0  0  0  0  0  0
  -24.1784  -13.0340   20.9229 C   0  0  0  0  0  0
  -24.6281  -11.6792   20.8832 C   0  0  0  0  0  0
  -23.8950  -10.4235   21.0471 C   0  0  0  0  0  0
  -24.3532   -9.4146   21.9238 C   0  0  0  0  0  0
  -23.6237   -8.2168   22.0743 C   0  0  0  0  0  0
  -22.4237   -8.0228   21.3529 C   0  0  0  0  0  0
  -21.9870   -9.0195   20.4645 C   0  0  0  0  0  0
  -22.7140  -10.2091   20.3089 C   0  0  0  0  0  0
  -21.6822   -6.0709   22.5296 C   0  0  0  0  0  0
  -21.3982   -6.5617   23.8221 C   0  0  0  0  0  0
  -21.3659   -5.6775   24.9192 C   0  0  0  0  0  0
  -21.6038   -4.3034   24.7238 C   0  0  0  0  0  0
  -21.8816   -3.8132   23.4354 C   0  0  0  0  0  0
  -21.9180   -4.6951   22.3416 C   0  0  0  0  0  0
  -22.7815  -13.5201   21.1870 C   0  0  0  0  0  0
  -22.1657   -4.2131   21.0991 F   0  0  0  0  0  0
  -21.5649   -3.4528   25.7753 F   0  0  0  0  0  0
  -30.0214  -13.3252   20.3954 N   0  0  0  0  0  0
  -26.2885  -12.8966   20.3314 N   0  0  0  0  0  0
  -25.9166  -11.6221   20.5858 N   0  0  0  0  0  0
  -22.0419  -12.8276   22.0432 N   0  0  0  0  0  0
  -25.4271  -15.1658   20.3896 N   0  0  0  0  0  0
  -31.8914  -14.5902   20.1138 O   0  0  0  0  0  0
  -21.6594   -6.8835   21.4244 O   0  0  0  0  0  0
  -22.3545  -14.5510   20.6665 O   0  0  0  0  0  0
  -24.6038  -31.8714   23.2140 C   0  0  0  0  0  0
  -25.8942  -32.4857   23.8427 C   0  0  1  0  0  0
  -27.2257  -27.4744   20.0815 C   0  0  0  0  0  0
  -25.5826  -33.8660   24.2344 N   0  0  0  0  0  0
  -23.3894  -30.4986   21.5490 C   0  0  2  0  0  0
  -24.8321  -28.9729   20.1059 C   0  0  0  0  0  0
  -22.7324  -29.4690   22.4971 C   0  0  0  0  0  0
  -18.0304  -28.1464   22.8403 C   0  0  0  0  0  0
  -24.1472  -36.7332   23.2639 C   0  0  0  0  0  0
  -25.9117  -30.8466   21.3634 C   0  0  0  0  0  0
  -25.9851  -29.4817   20.7149 C   0  0  0  0  0  0
  -27.1777  -28.7329   20.7090 C   0  0  0  0  0  0
  -26.0509  -26.9822   19.4548 C   0  0  0  0  0  0
  -24.8569  -27.7209   19.4736 C   0  0  0  0  0  0
  -23.5930  -29.8315   20.1608 C   0  0  0  0  0  0
  -25.4082  -36.3144   24.0349 C   0  0  1  0  0  0
  -20.5822  -28.3668   23.1267 C   0  0  2  0  0  0
  -20.6737  -26.9343   22.5508 C   0  0  0  0  0  0
  -19.5811  -26.6315   21.5199 C   0  0  0  0  0  0
  -18.1945  -26.8097   22.1363 C   0  0  0  0  0  0
  -19.1521  -28.8880   23.2920 C   0  0  0  0  0  0
  -18.9429  -30.1441   23.9031 C   0  0  0  0  0  0
  -17.6399  -30.6564   24.0671 C   0  0  0  0  0  0
  -25.9014  -34.9502   23.5158 C   0  0  0  0  0  0
  -16.5301  -29.9053   23.6380 C   0  0  0  0  0  0
  -16.7296  -28.6548   23.0293 C   0  0  0  0  0  0
  -26.4408  -31.6657   25.0752 C   0  0  0  0  0  0
  -25.3718  -31.3726   26.1544 C   0  0  0  0  0  0
  -27.0219  -30.3101   24.6102 C   0  0  0  0  0  0
  -27.5984  -32.4346   25.7517 C   0  0  0  0  0  0
  -27.5580  -37.1811   24.8459 C   0  0  0  0  0  0
  -21.4081  -29.2958   22.3604 N   0  0  0  0  0  0
  -26.4286  -37.3798   23.9432 N   0  0  0  0  0  0
  -24.6532  -31.0877   22.1010 N   0  0  0  0  0  0
  -23.4105  -28.8350   23.3095 O   0  0  0  0  0  0
  -28.4229  -26.7948   20.1111 O   0  0  0  0  0  0
  -26.5569  -34.8932   22.4715 O   0  0  0  0  0  0
  -23.5238  -32.1478   23.7551 O   0  0  0  0  0  0
  -27.9705  -19.8095   20.8914 C   0  0  0  0  0  0
  -28.6326  -18.5775   21.0803 C   0  0  0  0  0  0
  -26.8897  -18.9213   18.9029 C   0  0  0  0  0  0
  -27.0447  -19.9600   19.8343 C   0  0  0  0  0  0
  -28.4195  -17.5007   20.1879 C   0  0  0  0  0  0
  -27.5669  -17.7047   19.0748 C   0  0  0  0  0  0
  -30.9059  -16.5231   21.8484 C   0  0  0  0  0  0
  -25.1496  -22.9414   21.0561 C   0  0  0  0  0  0
  -28.8576  -16.0515   20.4356 C   0  0  0  0  0  0
  -26.1085  -21.1511   19.6981 C   0  0  0  0  0  0
  -27.7140  -24.5128   20.6834 C   0  0  0  0  0  0
  -27.3914  -23.1868   19.9659 C   0  0  0  0  0  0
  -28.4583  -25.4404   19.6958 C   0  0  0  0  0  0
  -30.1117  -15.5771   21.0643 N   0  0  0  0  0  0
  -26.4029  -22.2844   20.6094 N   0  3  1  0  0  0
  -27.3024  -16.6978   18.2035 F   0  0  0  0  0  0
  -31.4482  -12.4075   19.0712 H   0  0  0  0  0  0
  -30.3392  -11.3059   19.8323 H   0  0  0  0  0  0
  -29.7200  -11.7113   17.4292 H   0  0  0  0  0  0
  -29.5916  -13.4265   17.7337 H   0  0  0  0  0  0
  -27.8748  -11.1986   18.9040 H   0  0  0  0  0  0
  -27.3246  -12.4237   17.8017 H   0  0  0  0  0  0
  -27.5939  -14.1202   19.4030 H   0  0  0  0  0  0
  -28.7044  -11.9843   21.3411 H   0  0  0  0  0  0
  -28.4615  -13.6264   21.8291 H   0  0  0  0  0  0
  -25.2643   -9.5639   22.4861 H   0  0  0  0  0  0
  -23.9934   -7.4523   22.7451 H   0  0  0  0  0  0
  -21.0790   -8.8696   19.8941 H   0  0  0  0  0  0
  -22.3569  -10.9655   19.6236 H   0  0  0  0  0  0
  -21.1955   -7.6121   23.9717 H   0  0  0  0  0  0
  -21.1494   -6.0513   25.9094 H   0  0  0  0  0  0
  -22.0600   -2.7595   23.2861 H   0  0  0  0  0  0
  -22.3959  -11.9927   22.4872 H   0  0  0  0  0  0
  -21.1067  -13.1382   22.2659 H   0  0  0  0  0  0
  -24.6406  -15.8038   20.4520 H   0  0  0  0  0  0
  -26.2377  -15.5817   19.9539 H   0  0  0  0  0  0
  -26.6987  -32.5578   23.1187 H   0  0  0  0  0  0
  -24.9974  -33.9827   25.0491 H   0  0  0  0  0  0
  -22.6771  -31.3131   21.4055 H   0  0  0  0  0  0
  -23.3747  -35.9661   23.3288 H   0  0  0  0  0  0
  -24.3587  -36.8942   22.2068 H   0  0  0  0  0  0
  -23.7205  -37.6527   23.6634 H   0  0  0  0  0  0
  -26.0173  -31.6074   20.5886 H   0  0  0  0  0  0
  -26.8060  -30.9046   21.9741 H   0  0  0  0  0  0
  -28.0629  -29.1122   21.1967 H   0  0  0  0  0  0
  -26.0286  -26.0371   18.9331 H   0  0  0  0  0  0
  -23.9697  -27.3324   18.9875 H   0  0  0  0  0  0
  -23.6899  -30.6003   19.3895 H   0  0  0  0  0  0
  -22.7234  -29.2331   19.8786 H   0  0  0  0  0  0
  -25.1260  -36.2038   25.0829 H   0  0  0  0  0  0
  -20.9949  -28.3354   24.1368 H   0  0  0  0  0  0
  -20.5442  -26.2308   23.3756 H   0  0  0  0  0  0
  -21.6615  -26.7309   22.1406 H   0  0  0  0  0  0
  -19.6924  -25.6195   21.1200 H   0  0  0  0  0  0
  -19.6986  -27.3158   20.6804 H   0  0  0  0  0  0
  -17.4408  -26.7145   21.3537 H   0  0  0  0  0  0
  -18.0021  -26.0186   22.8586 H   0  0  0  0  0  0
  -19.7918  -30.7222   24.2496 H   0  0  0  0  0  0
  -17.4888  -31.6240   24.5296 H   0  0  0  0  0  0
  -15.5307  -30.2915   23.7697 H   0  0  0  0  0  0
  -15.8704  -28.0970   22.6810 H   0  0  0  0  0  0
  -24.5902  -30.7040   25.7931 H   0  0  0  0  0  0
  -24.8914  -32.2866   26.5033 H   0  0  0  0  0  0
  -25.8160  -30.8916   27.0274 H   0  0  0  0  0  0
  -26.2756  -29.6895   24.1125 H   0  0  0  0  0  0
  -27.3961  -29.7311   25.4557 H   0  0  0  0  0  0
  -27.8605  -30.4433   23.9266 H   0  0  0  0  0  0
  -27.2617  -33.3609   26.2172 H   0  0  0  0  0  0
  -28.3795  -32.6943   25.0365 H   0  0  0  0  0  0
  -28.0657  -31.8423   26.5395 H   0  0  0  0  0  0
  -28.2589  -38.0106   24.7518 H   0  0  0  0  0  0
  -28.1071  -36.2651   24.6268 H   0  0  0  0  0  0
  -27.2309  -37.1451   25.8852 H   0  0  0  0  0  0
  -20.9284  -29.8383   21.6584 H   0  0  0  0  0  0
  -26.0205  -38.2887   24.1389 H   0  0  0  0  0  0
  -28.1379  -20.5976   21.6120 H   0  0  0  0  0  0
  -29.2468  -18.4761   21.9572 H   0  0  0  0  0  0
  -26.2017  -19.0170   18.0739 H   0  0  0  0  0  0
  -30.3690  -16.8255   22.7471 H   0  0  0  0  0  0
  -31.1630  -17.4020   21.2602 H   0  0  0  0  0  0
  -31.8431  -16.0851   22.1876 H   0  0  0  0  0  0
  -24.4610  -22.2064   21.4707 H   0  0  0  0  0  0
  -24.6409  -23.4277   20.2194 H   0  0  0  0  0  0
  -25.3102  -23.6714   21.8468 H   0  0  0  0  0  0
  -28.8836  -15.6464   19.4224 H   0  0  0  0  0  0
  -28.0252  -15.6193   20.9857 H   0  0  0  0  0  0
  -25.1076  -20.7635   19.8842 H   0  0  0  0  0  0
  -26.0964  -21.4752   18.6586 H   0  0  0  0  0  0
  -28.3184  -24.3593   21.5773 H   0  0  0  0  0  0
  -26.8067  -25.0061   21.0227 H   0  0  0  0  0  0
  -28.3213  -22.6430   19.7965 H   0  0  0  0  0  0
  -26.9943  -23.4426   18.9841 H   0  0  0  0  0  0
  -29.5003  -25.1327   19.6312 H   0  0  0  0  0  0
  -28.0811  -25.3623   18.6748 H   0  0  0  0  0  0
  -26.8154  -21.8724   21.4307 H   0  0  0  0  0  0
  1 25  1  0  0  0
  1 30  2  0  0  0
  1 84  1  0  0  0
  2  3  1  0  0  0
  2 25  1  0  0  0
  2 87  1  0  0  0
  2 88  1  0  0  0
  3  4  1  0  0  0
  3 89  1  0  0  0
  3 90  1  0  0  0
  4  5  1  0  0  0
  4 91  1  0  0  0
  4 92  1  0  0  0
  5  6  1  0  0  0
  5 26  1  0  0  0
  5 93  1  0  0  0
  6 25  1  0  0  0
  6 94  1  0  0  0
  6 95  1  0  0  0
  7  8  2  0  0  0
  7 26  1  0  0  0
  7 29  1  0  0  0
  8  9  1  0  0  0
  8 22  1  0  0  0
  9 10  1  0  0  0
  9 27  2  0  0  0
 10 11  2  0  0  0
 10 15  1  0  0  0
 11 12  1  0  0  0
 11 96  1  0  0  0
 12 13  2  0  0  0
 12 97  1  0  0  0
 13 14  1  0  0  0
 13 31  1  0  0  0
 14 15  2  0  0  0
 14 98  1  0  0  0
 15 99  1  0  0  0
 16 17  2  0  0  0
 16 21  1  0  0  0
 16 31  1  0  0  0
 17 18  1  0  0  0
 17100  1  0  0  0
 18 19  2  0  0  0
 18101  1  0  0  0
 19 20  1  0  0  0
 19 24  1  0  0  0
 20 21  2  0  0  0
 20102  1  0  0  0
 21 23  1  0  0  0
 22 28  1  0  0  0
 22 32  2  0  0  0
 26 27  1  0  0  0
 28103  1  0  0  0
 28104  1  0  0  0
 29105  1  0  0  0
 29106  1  0  0  0
 33 34  1  0  0  0
 33 66  1  0  0  0
 33 70  2  0  0  0
 34 36  1  0  0  0
 34 59  1  0  0  0
 34107  1  0  0  0
 35 44  2  0  0  0
 35 45  1  0  0  0
 35 68  1  0  0  0
 36 56  1  0  0  0
 36108  1  0  0  0
 37 39  1  0  0  0
 37 47  1  0  0  0
 37 66  1  0  0  0
 37109  1  0  0  0
 38 43  2  0  0  0
 38 46  1  0  0  0
 38 47  1  0  0  0
 39 64  1  0  0  0
 39 67  2  0  0  0
 40 52  1  0  0  0
 40 53  2  0  0  0
 40 58  1  0  0  0
 41110  1  0  0  0
 41111  1  0  0  0
 41112  1  0  0  0
 41 48  1  0  0  0
 42 43  1  0  0  0
 42 66  1  0  0  0
 42113  1  0  0  0
 42114  1  0  0  0
 43 44  1  0  0  0
 44115  1  0  0  0
 45 46  2  0  0  0
 45116  1  0  0  0
 46117  1  0  0  0
 47118  1  0  0  0
 47119  1  0  0  0
 48 56  1  0  0  0
 48 65  1  0  0  0
 48120  1  0  0  0
 49 50  1  0  0  0
 49 53  1  0  0  0
 49 64  1  0  0  0
 49121  1  0  0  0
 50 51  1  0  0  0
 50122  1  0  0  0
 50123  1  0  0  0
 51 52  1  0  0  0
 51124  1  0  0  0
 51125  1  0  0  0
 52126  1  0  0  0
 52127  1  0  0  0
 53 54  1  0  0  0
 54 55  2  0  0  0
 54128  1  0  0  0
 55 57  1  0  0  0
 55129  1  0  0  0
 56 69  2  0  0  0
 57 58  2  0  0  0
 57130  1  0  0  0
 58131  1  0  0  0
 59 60  1  0  0  0
 59 61  1  0  0  0
 59 62  1  0  0  0
 60132  1  0  0  0
 60133  1  0  0  0
 60134  1  0  0  0
 61135  1  0  0  0
 61136  1  0  0  0
 61137  1  0  0  0
 62138  1  0  0  0
 62139  1  0  0  0
 62140  1  0  0  0
 63 65  1  0  0  0
 63141  1  0  0  0
 63142  1  0  0  0
 63143  1  0  0  0
 64144  1  0  0  0
 65145  1  0  0  0
 68 83  1  0  0  0
 71 72  2  0  0  0
 71 74  1  0  0  0
 71146  1  0  0  0
 72 75  1  0  0  0
 72147  1  0  0  0
 73 74  2  0  0  0
 73 76  1  0  0  0
 73148  1  0  0  0
 74 80  1  0  0  0
 75 76  2  0  0  0
 75 79  1  0  0  0
 76 86  1  0  0  0
 77 84  1  0  0  0
 77149  1  0  0  0
 77150  1  0  0  0
 77151  1  0  0  0
 78152  1  0  0  0
 78153  1  0  0  0
 78154  1  0  0  0
 78 85  1  0  0  0
 79 84  1  0  0  0
 79155  1  0  0  0
 79156  1  0  0  0
 80 85  1  0  0  0
 80157  1  0  0  0
 80158  1  0  0  0
 81 82  1  0  0  0
 81 83  1  0  0  0
 81159  1  0  0  0
 81160  1  0  0  0
 82 85  1  0  0  0
 82161  1  0  0  0
 82162  1  0  0  0
 83163  1  0  0  0
 83164  1  0  0  0
 85165  1  0  0  0
M  CHG  1  85   1
M  ISO  4   1 100  68 101  83 101  84 100
M  END
> <chiral flag>
0

> <version>
0

> <s_m_source_file>
/data/baiqing/PycharmProjects/Reinvent-master-3.2/result/LINK_invent/BTK/process_docking_weight1_custom_product_contain_oxygen_bond_distance_aromatic_linkinvent_7_9_3/rearranged_h_0019.sdf

> <i_m_source_file_index>
31

> <r_mmod_Potential_Energy-OPLS-2005>
18.511173248291

> <r_mmod_Stretch_Energy-OPLS-2005>
36.7785606384277

> <r_mmod_Bend_Energy-OPLS-2005>
149.789962768555

> <r_mmod_Torsional_Energy-OPLS-2005>
268.314849853516

> <r_mmod_Improper_Torsional_Energy-OPLS-2005>
5.54809474945068

> <r_mmod_Van_der_Waal_Energy-OPLS-2005>
190.118606567383

> <r_mmod_Electrostatic_Energy-OPLS-2005>
-208.085067749023

> <r_mmod_Solvation_Energy-OPLS-2005>
-446.126983642578

> <b_mmod_Minimization_Converged-OPLS-2005>
0

> <r_mmod_RMS_Derivative-OPLS-2005>
7.23019599914551

$$$$
31
                    3D
 Structure written by MMmdl.
144152  0  0  1  0            999 V2000
  -30.3021  -15.5932   20.3329 C   0  0  0  0  0  0
  -30.4326  -13.0479   19.5373 C   0  0  0  0  0  0
  -29.5520  -12.6461   18.3194 C   0  0  0  0  0  0
  -28.1210  -12.2991   18.7600 C   0  0  0  0  0  0
  -27.5995  -13.3023   19.8140 C   0  0  2  0  0  0
  -28.6192  -13.6098   20.9351 C   0  0  0  0  0  0
  -25.2337  -13.8274   20.5781 C   0  0  0  0  0  0
  -24.1722  -13.0430   20.9285 C   0  0  0  0  0  0
  -24.6417  -11.6940   20.8764 C   0  0  0  0  0  0
  -23.9117  -10.4290   21.0399 C   0  0  0  0  0  0
  -24.3652   -9.4203   21.9181 C   0  0  0  0  0  0
  -23.6312   -8.2246   22.0754 C   0  0  0  0  0  0
  -22.4292   -8.0288   21.3546 C   0  0  0  0  0  0
  -21.9939   -9.0264   20.4645 C   0  0  0  0  0  0
  -22.7284  -10.2134   20.3051 C   0  0  0  0  0  0
  -21.6858   -6.0741   22.5279 C   0  0  0  0  0  0
  -21.4018   -6.5643   23.8213 C   0  0  0  0  0  0
  -21.3661   -5.6794   24.9174 C   0  0  0  0  0  0
  -21.6044   -4.3056   24.7224 C   0  0  0  0  0  0
  -21.8818   -3.8150   23.4344 C   0  0  0  0  0  0
  -21.9194   -4.6968   22.3402 C   0  0  0  0  0  0
  -22.7734  -13.5165   21.1921 C   0  0  0  0  0  0
  -22.1661   -4.2153   21.0979 F   0  0  0  0  0  0
  -21.5627   -3.4539   25.7736 F   0  0  0  0  0  0
  -29.8007  -14.2227   20.2856 N   0  0  0  0  0  0
  -26.2785  -12.9597   20.3223 N   0  0  0  0  0  0
  -25.9362  -11.6674   20.5699 N   0  0  0  0  0  0
  -22.0396  -12.8143   22.0473 N   0  0  0  0  0  0
  -25.3915  -15.2015   20.4212 N   0  0  0  0  0  0
  -31.5371  -15.5643   20.1684 O   0  0  0  0  0  0
  -21.6647   -6.8889   21.4243 O   0  0  0  0  0  0
  -22.3409  -14.5464   20.6757 O   0  0  0  0  0  0
  -24.6831  -31.8011   23.1526 C   0  0  0  0  0  0
  -25.9415  -32.4474   23.8070 C   0  0  1  0  0  0
  -27.2274  -26.7157   20.2118 C   0  0  0  0  0  0
  -25.5996  -33.8299   24.1956 N   0  0  0  0  0  0
  -23.5088  -30.4037   21.5064 C   0  0  2  0  0  0
  -24.9668  -28.7480   20.1182 C   0  0  0  0  0  0
  -22.7764  -29.4322   22.4715 C   0  0  0  0  0  0
  -18.0338  -28.1421   22.8455 C   0  0  0  0  0  0
  -24.1496  -36.7158   23.2652 C   0  0  0  0  0  0
  -26.0894  -30.5386   21.4154 C   0  0  0  0  0  0
  -26.1562  -29.1049   20.7648 C   0  0  0  0  0  0
  -27.2730  -28.1167   20.7789 C   0  0  0  0  0  0
  -26.0047  -26.5663   19.5091 C   0  0  0  0  0  0
  -24.9293  -27.5037   19.4667 C   0  0  0  0  0  0
  -23.7624  -29.7017   20.1415 C   0  0  0  0  0  0
  -25.4146  -36.2900   24.0282 C   0  0  1  0  0  0
  -20.5974  -28.3781   23.1142 C   0  0  2  0  0  0
  -20.6805  -26.9441   22.5403 C   0  0  0  0  0  0
  -19.5781  -26.6371   21.5216 C   0  0  0  0  0  0
  -18.1964  -26.7949   22.1619 C   0  0  0  0  0  0
  -19.1605  -28.8925   23.2779 C   0  0  0  0  0  0
  -18.9510  -30.1509   23.8825 C   0  0  0  0  0  0
  -17.6500  -30.6604   24.0550 C   0  0  0  0  0  0
  -25.9124  -34.9289   23.4955 C   0  0  0  0  0  0
  -16.5389  -29.9086   23.6350 C   0  0  0  0  0  0
  -16.7318  -28.6508   23.0366 C   0  0  0  0  0  0
  -26.4594  -31.6505   25.0689 C   0  0  0  0  0  0
  -25.3661  -31.3820   26.1304 C   0  0  0  0  0  0
  -27.0525  -30.2844   24.6583 C   0  0  0  0  0  0
  -27.6042  -32.4365   25.7508 C   0  0  0  0  0  0
  -27.5564  -37.1737   24.8466 C   0  0  0  0  0  0
  -21.4412  -29.3030   22.3464 N   0  0  0  0  0  0
  -26.4273  -37.3659   23.9406 N   0  0  0  0  0  0
  -24.7838  -30.9469   22.0774 N   0  0  0  0  0  0
  -23.4211  -28.7922   23.3056 O   0  0  0  0  0  0
  -28.1833  -25.4944   20.2808 O   0  0  0  0  0  0
  -26.5764  -34.8864   22.4572 O   0  0  0  0  0  0
  -23.5852  -32.1079   23.6486 O   0  0  0  0  0  0
  -29.2152  -21.2102   21.2850 C   0  0  0  0  0  0
  -28.4680  -20.9815   19.2114 C   0  0  0  0  0  0
  -29.5547  -19.7084   21.3189 C   0  0  0  0  0  0
  -28.7956  -19.4896   19.2463 C   0  0  0  0  0  0
  -28.6202  -22.0723   20.2165 C   0  0  0  0  0  0
  -29.3952  -18.6241   20.2984 C   0  0  0  0  0  0
  -27.8596  -23.7811   20.1605 C   0  0  0  0  0  0
  -29.4728  -16.9054   20.3744 N   0  0  0  0  0  0
  -31.4270  -13.3120   19.1754 H   0  0  0  0  0  0
  -30.5883  -12.1960   20.2015 H   0  0  0  0  0  0
  -29.9972  -11.8055   17.7855 H   0  0  0  0  0  0
  -29.5208  -13.4766   17.6126 H   0  0  0  0  0  0
  -28.1388  -11.2971   19.1903 H   0  0  0  0  0  0
  -27.4518  -12.2545   17.8999 H   0  0  0  0  0  0
  -27.4696  -14.2308   19.2564 H   0  0  0  0  0  0
  -28.8689  -12.7178   21.5116 H   0  0  0  0  0  0
  -28.1952  -14.3242   21.6424 H   0  0  0  0  0  0
  -25.2792   -9.5675   22.4765 H   0  0  0  0  0  0
  -24.0012   -7.4637   22.7479 H   0  0  0  0  0  0
  -21.0869   -8.8793   19.8951 H   0  0  0  0  0  0
  -22.3745  -10.9677   19.6162 H   0  0  0  0  0  0
  -21.2013   -7.6151   23.9718 H   0  0  0  0  0  0
  -21.1483   -6.0523   25.9077 H   0  0  0  0  0  0
  -22.0595   -2.7612   23.2843 H   0  0  0  0  0  0
  -22.4036  -11.9820   22.4872 H   0  0  0  0  0  0
  -21.1003  -13.1140   22.2670 H   0  0  0  0  0  0
  -24.6148  -15.8447   20.5307 H   0  0  0  0  0  0
  -26.2216  -15.6451   20.0524 H   0  0  0  0  0  0
  -26.7498  -32.4951   23.0785 H   0  0  0  0  0  0
  -25.0053  -33.9339   25.0048 H   0  0  0  0  0  0
  -22.8336  -31.2408   21.3174 H   0  0  0  0  0  0
  -23.3775  -35.9470   23.3267 H   0  0  0  0  0  0
  -24.3564  -36.8867   22.2076 H   0  0  0  0  0  0
  -23.7240  -37.6318   23.6760 H   0  0  0  0  0  0
  -26.2912  -31.2650   20.6272 H   0  0  0  0  0  0
  -26.9406  -30.6057   22.0807 H   0  0  0  0  0  0
  -28.1680  -28.3958   21.3169 H   0  0  0  0  0  0
  -25.8372  -25.6248   19.0063 H   0  0  0  0  0  0
  -24.0317  -27.2214   18.9338 H   0  0  0  0  0  0
  -23.9365  -30.4623   19.3796 H   0  0  0  0  0  0
  -22.8675  -29.1676   19.8174 H   0  0  0  0  0  0
  -25.1355  -36.1664   25.0772 H   0  0  0  0  0  0
  -21.0055  -28.3406   24.1269 H   0  0  0  0  0  0
  -20.5670  -26.2405   23.3665 H   0  0  0  0  0  0
  -21.6667  -26.7385   22.1221 H   0  0  0  0  0  0
  -19.6938  -25.6262   21.1294 H   0  0  0  0  0  0
  -19.6725  -27.3140   20.6714 H   0  0  0  0  0  0
  -17.4233  -26.6689   21.4023 H   0  0  0  0  0  0
  -18.0354  -26.0109   22.9033 H   0  0  0  0  0  0
  -19.7985  -30.7344   24.2163 H   0  0  0  0  0  0
  -17.5050  -31.6276   24.5167 H   0  0  0  0  0  0
  -15.5386  -30.2965   23.7716 H   0  0  0  0  0  0
  -15.8719  -28.0803   22.7123 H   0  0  0  0  0  0
  -24.5869  -30.7145   25.7603 H   0  0  0  0  0  0
  -24.8823  -32.3041   26.4534 H   0  0  0  0  0  0
  -25.7838  -30.9110   27.0211 H   0  0  0  0  0  0
  -26.3240  -29.6459   24.1575 H   0  0  0  0  0  0
  -27.3954  -29.7289   25.5322 H   0  0  0  0  0  0
  -27.9220  -30.3970   24.0106 H   0  0  0  0  0  0
  -27.2581  -33.3734   26.1884 H   0  0  0  0  0  0
  -28.3957  -32.6817   25.0414 H   0  0  0  0  0  0
  -28.0596  -31.8630   26.5592 H   0  0  0  0  0  0
  -28.2551  -38.0060   24.7511 H   0  0  0  0  0  0
  -28.1090  -36.2582   24.6297 H   0  0  0  0  0  0
  -27.2278  -37.1377   25.8867 H   0  0  0  0  0  0
  -20.9716  -29.8686   21.6531 H   0  0  0  0  0  0
  -26.0101  -38.2707   24.1416 H   0  0  0  0  0  0
  -29.3875  -21.7246   22.2200 H   0  0  0  0  0  0
  -27.9811  -21.2980   18.2995 H   0  0  0  0  0  0
  -29.9269  -19.3646   22.2737 H   0  0  0  0  0  0
  -28.4989  -18.9566   18.3538 H   0  0  0  0  0  0
  -27.0553  -23.6708   20.8879 H   0  0  0  0  0  0
  -27.3414  -23.7369   19.2027 H   0  0  0  0  0  0
  -28.5226  -16.5669   20.4124 H   0  0  0  0  0  0
  1 25  1  0  0  0
  1 30  2  0  0  0
  1 78  1  0  0  0
  2  3  1  0  0  0
  2 25  1  0  0  0
  2 79  1  0  0  0
  2 80  1  0  0  0
  3  4  1  0  0  0
  3 81  1  0  0  0
  3 82  1  0  0  0
  4  5  1  0  0  0
  4 83  1  0  0  0
  4 84  1  0  0  0
  5  6  1  0  0  0
  5 26  1  0  0  0
  5 85  1  0  0  0
  6 25  1  0  0  0
  6 86  1  0  0  0
  6 87  1  0  0  0
  7  8  2  0  0  0
  7 26  1  0  0  0
  7 29  1  0  0  0
  8  9  1  0  0  0
  8 22  1  0  0  0
  9 10  1  0  0  0
  9 27  2  0  0  0
 10 11  2  0  0  0
 10 15  1  0  0  0
 11 12  1  0  0  0
 11 88  1  0  0  0
 12 13  2  0  0  0
 12 89  1  0  0  0
 13 14  1  0  0  0
 13 31  1  0  0  0
 14 15  2  0  0  0
 14 90  1  0  0  0
 15 91  1  0  0  0
 16 17  2  0  0  0
 16 21  1  0  0  0
 16 31  1  0  0  0
 17 18  1  0  0  0
 17 92  1  0  0  0
 18 19  2  0  0  0
 18 93  1  0  0  0
 19 20  1  0  0  0
 19 24  1  0  0  0
 20 21  2  0  0  0
 20 94  1  0  0  0
 21 23  1  0  0  0
 22 28  1  0  0  0
 22 32  2  0  0  0
 26 27  1  0  0  0
 28 95  1  0  0  0
 28 96  1  0  0  0
 29 97  1  0  0  0
 29 98  1  0  0  0
 33 34  1  0  0  0
 33 66  1  0  0  0
 33 70  2  0  0  0
 34 36  1  0  0  0
 34 59  1  0  0  0
 34 99  1  0  0  0
 35 44  2  0  0  0
 35 45  1  0  0  0
 35 68  1  0  0  0
 36 56  1  0  0  0
 36100  1  0  0  0
 37 39  1  0  0  0
 37 47  1  0  0  0
 37 66  1  0  0  0
 37101  1  0  0  0
 38 43  2  0  0  0
 38 46  1  0  0  0
 38 47  1  0  0  0
 39 64  1  0  0  0
 39 67  2  0  0  0
 40 52  1  0  0  0
 40 53  2  0  0  0
 40 58  1  0  0  0
 41102  1  0  0  0
 41103  1  0  0  0
 41104  1  0  0  0
 41 48  1  0  0  0
 42 43  1  0  0  0
 42 66  1  0  0  0
 42105  1  0  0  0
 42106  1  0  0  0
 43 44  1  0  0  0
 44107  1  0  0  0
 45 46  2  0  0  0
 45108  1  0  0  0
 46109  1  0  0  0
 47110  1  0  0  0
 47111  1  0  0  0
 48 56  1  0  0  0
 48 65  1  0  0  0
 48112  1  0  0  0
 49 50  1  0  0  0
 49 53  1  0  0  0
 49 64  1  0  0  0
 49113  1  0  0  0
 50 51  1  0  0  0
 50114  1  0  0  0
 50115  1  0  0  0
 51 52  1  0  0  0
 51116  1  0  0  0
 51117  1  0  0  0
 52118  1  0  0  0
 52119  1  0  0  0
 53 54  1  0  0  0
 54 55  2  0  0  0
 54120  1  0  0  0
 55 57  1  0  0  0
 55121  1  0  0  0
 56 69  2  0  0  0
 57 58  2  0  0  0
 57122  1  0  0  0
 58123  1  0  0  0
 59 60  1  0  0  0
 59 61  1  0  0  0
 59 62  1  0  0  0
 60124  1  0  0  0
 60125  1  0  0  0
 60126  1  0  0  0
 61127  1  0  0  0
 61128  1  0  0  0
 61129  1  0  0  0
 62130  1  0  0  0
 62131  1  0  0  0
 62132  1  0  0  0
 63 65  1  0  0  0
 63133  1  0  0  0
 63134  1  0  0  0
 63135  1  0  0  0
 64136  1  0  0  0
 65137  1  0  0  0
 68 77  1  0  0  0
 71 73  2  0  0  0
 71 75  1  0  0  0
 71138  1  0  0  0
 72 74  1  0  0  0
 72 75  2  0  0  0
 72139  1  0  0  0
 73 76  1  0  0  0
 73140  1  0  0  0
 74 76  2  0  0  0
 74141  1  0  0  0
 75 77  1  0  0  0
 76 78  1  0  0  0
 77142  1  0  0  0
 77143  1  0  0  0
 78144  1  0  0  0
M  ISO  4   1 100  68 101  77 101  78 100
M  END
> <chiral flag>
0

> <version>
0

> <s_m_source_file>
/data/baiqing/PycharmProjects/Reinvent-master-3.2/result/LINK_invent/BTK/process_docking_weight1_custom_product_contain_oxygen_bond_distance_aromatic_linkinvent_7_9_3/rearranged_h_0019.sdf

> <i_m_source_file_index>
32

> <r_mmod_Potential_Energy-OPLS-2005>
2267.25439453125

> <r_mmod_Stretch_Energy-OPLS-2005>
909.600280761719

> <r_mmod_Bend_Energy-OPLS-2005>
657.110290527344

> <r_mmod_Torsional_Energy-OPLS-2005>
259.846252441406

> <r_mmod_Improper_Torsional_Energy-OPLS-2005>
10.6979417800903

> <r_mmod_Van_der_Waal_Energy-OPLS-2005>
132.425323486328

> <r_mmod_Electrostatic_Energy-OPLS-2005>
-345.95654296875

> <r_mmod_Solvation_Energy-OPLS-2005>
-215.57307434082

> <b_mmod_Minimization_Converged-OPLS-2005>
0

> <r_mmod_RMS_Derivative-OPLS-2005>
0.113339096307755

$$$$
32
                    3D
 Structure written by MMmdl.
158166  0  0  1  0            999 V2000
  -30.6626  -14.7364   20.4153 C   0  0  0  0  0  0
  -30.4214  -12.4469   19.4511 C   0  0  0  0  0  0
  -29.5034  -12.5090   18.2147 C   0  0  0  0  0  0
  -28.0239  -12.3707   18.6223 C   0  0  0  0  0  0
  -27.6405  -13.2519   19.8433 C   0  0  2  0  0  0
  -28.7001  -13.1988   20.9669 C   0  0  0  0  0  0
  -25.2479  -13.8236   20.5695 C   0  0  0  0  0  0
  -24.1826  -13.0439   20.9224 C   0  0  0  0  0  0
  -24.6466  -11.6937   20.8755 C   0  0  0  0  0  0
  -23.9150  -10.4307   21.0385 C   0  0  0  0  0  0
  -24.3666   -9.4213   21.9157 C   0  0  0  0  0  0
  -23.6332   -8.2250   22.0730 C   0  0  0  0  0  0
  -22.4313   -8.0281   21.3523 C   0  0  0  0  0  0
  -21.9963   -9.0279   20.4649 C   0  0  0  0  0  0
  -22.7306  -10.2137   20.3058 C   0  0  0  0  0  0
  -21.6872   -6.0737   22.5273 C   0  0  0  0  0  0
  -21.4038   -6.5641   23.8213 C   0  0  0  0  0  0
  -21.3680   -5.6784   24.9179 C   0  0  0  0  0  0
  -21.6046   -4.3055   24.7206 C   0  0  0  0  0  0
  -21.8818   -3.8145   23.4337 C   0  0  0  0  0  0
  -21.9192   -4.6964   22.3386 C   0  0  0  0  0  0
  -22.7824  -13.5184   21.1851 C   0  0  0  0  0  0
  -22.1650   -4.2167   21.0958 F   0  0  0  0  0  0
  -21.5628   -3.4518   25.7712 F   0  0  0  0  0  0
  -29.9989  -13.5295   20.3680 N   0  0  0  0  0  0
  -26.2971  -12.9490   20.3281 N   0  0  0  0  0  0
  -25.9413  -11.6612   20.5777 N   0  0  0  0  0  0
  -22.0483  -12.8186   22.0427 N   0  0  0  0  0  0
  -25.4029  -15.1977   20.4078 N   0  0  0  0  0  0
  -31.8615  -14.7709   20.1371 O   0  0  0  0  0  0
  -21.6657   -6.8890   21.4238 O   0  0  0  0  0  0
  -22.3492  -14.5449   20.6658 O   0  0  0  0  0  0
  -24.6246  -31.8592   23.2015 C   0  0  0  0  0  0
  -25.9084  -32.4777   23.8348 C   0  0  1  0  0  0
  -27.2088  -27.2807   20.1484 C   0  0  0  0  0  0
  -25.5921  -33.8582   24.2268 N   0  0  0  0  0  0
  -23.4226  -30.4824   21.5419 C   0  0  2  0  0  0
  -24.8736  -28.9340   20.1092 C   0  0  0  0  0  0
  -22.7490  -29.4588   22.4890 C   0  0  0  0  0  0
  -18.0295  -28.1398   22.8500 C   0  0  0  0  0  0
  -24.1495  -36.7289   23.2634 C   0  0  0  0  0  0
  -25.9666  -30.7836   21.3780 C   0  0  0  0  0  0
  -26.0429  -29.4069   20.7206 C   0  0  0  0  0  0
  -27.2194  -28.5935   20.7256 C   0  0  0  0  0  0
  -26.0273  -26.8716   19.5007 C   0  0  0  0  0  0
  -24.8706  -27.6768   19.4843 C   0  0  0  0  0  0
  -23.6458  -29.8223   20.1554 C   0  0  0  0  0  0
  -25.4124  -36.3073   24.0317 C   0  0  1  0  0  0
  -20.5898  -28.3692   23.1287 C   0  0  2  0  0  0
  -20.6785  -26.9411   22.5425 C   0  0  0  0  0  0
  -19.5754  -26.6378   21.5236 C   0  0  0  0  0  0
  -18.1929  -26.7941   22.1639 C   0  0  0  0  0  0
  -19.1541  -28.8859   23.2900 C   0  0  0  0  0  0
  -18.9467  -30.1469   23.8917 C   0  0  0  0  0  0
  -17.6459  -30.6597   24.0568 C   0  0  0  0  0  0
  -25.9060  -34.9450   23.5087 C   0  0  0  0  0  0
  -16.5354  -29.9099   23.6324 C   0  0  0  0  0  0
  -16.7268  -28.6524   23.0343 C   0  0  0  0  0  0
  -26.4476  -31.6598   25.0725 C   0  0  0  0  0  0
  -25.3676  -31.3784   26.1429 C   0  0  0  0  0  0
  -27.0307  -30.2998   24.6208 C   0  0  0  0  0  0
  -27.6017  -32.4347   25.7510 C   0  0  0  0  0  0
  -27.5595  -37.1793   24.8443 C   0  0  0  0  0  0
  -21.4199  -29.3034   22.3672 N   0  0  0  0  0  0
  -26.4291  -37.3774   23.9414 N   0  0  0  0  0  0
  -24.6893  -31.0581   22.0972 N   0  0  0  0  0  0
  -23.4213  -28.8117   23.2952 O   0  0  0  0  0  0
  -28.2944  -26.3879   20.1729 O   0  0  0  0  0  0
  -26.5623  -34.8915   22.4646 O   0  0  0  0  0  0
  -23.5405  -32.1400   23.7327 O   0  0  0  0  0  0
  -32.0349  -19.1092   20.4217 C   0  0  0  0  0  0
  -31.6605  -17.7526   20.5122 C   0  0  0  0  0  0
  -29.3534  -18.4398   20.3483 C   0  0  0  0  0  0
  -31.0901  -20.1538   20.2890 C   0  0  0  0  0  0
  -30.3070  -17.3489   20.4553 C   0  0  0  0  0  0
  -29.6956  -19.8648   20.2849 C   0  0  0  0  0  0
  -31.6448  -21.5616   20.0884 C   0  0  0  0  0  0
  -27.4214  -20.4845   19.6471 C   0  0  0  0  0  0
  -28.4637  -23.6567   19.9939 C   0  0  0  0  0  0
  -28.7227  -22.2927   20.8341 C   0  0  0  0  0  0
  -28.0957  -25.0258   20.7740 C   0  0  0  0  0  0
  -29.9177  -15.9088   20.5199 N   0  0  0  0  0  0
  -28.7210  -20.9415   20.1319 N   0  0  0  0  0  0
  -31.4631  -12.5491   19.1424 H   0  0  0  0  0  0
  -30.3459  -11.4735   19.9387 H   0  0  0  0  0  0
  -29.7712  -11.7240   17.5057 H   0  0  0  0  0  0
  -29.6544  -13.4550   17.6908 H   0  0  0  0  0  0
  -27.8351  -11.3199   18.8402 H   0  0  0  0  0  0
  -27.3877  -12.6246   17.7740 H   0  0  0  0  0  0
  -27.6227  -14.2782   19.4723 H   0  0  0  0  0  0
  -28.7358  -12.2139   21.4343 H   0  0  0  0  0  0
  -28.4518  -13.9066   21.7566 H   0  0  0  0  0  0
  -25.2826   -9.5659   22.4726 H   0  0  0  0  0  0
  -24.0037   -7.4649   22.7455 H   0  0  0  0  0  0
  -21.0889   -8.8829   19.8978 H   0  0  0  0  0  0
  -22.3795  -10.9664   19.6168 H   0  0  0  0  0  0
  -21.2049   -7.6152   23.9725 H   0  0  0  0  0  0
  -21.1501   -6.0506   25.9080 H   0  0  0  0  0  0
  -22.0581   -2.7606   23.2811 H   0  0  0  0  0  0
  -22.4125  -11.9932   22.4937 H   0  0  0  0  0  0
  -21.1074  -13.1179   22.2545 H   0  0  0  0  0  0
  -24.6118  -15.8256   20.5102 H   0  0  0  0  0  0
  -26.2276  -15.6546   20.0394 H   0  0  0  0  0  0
  -26.7153  -32.5445   23.1103 H   0  0  0  0  0  0
  -25.0058  -33.9747   25.0410 H   0  0  0  0  0  0
  -22.7144  -31.3030   21.3984 H   0  0  0  0  0  0
  -23.3769  -35.9599   23.3232 H   0  0  0  0  0  0
  -24.3607  -36.8980   22.2064 H   0  0  0  0  0  0
  -23.7231  -37.6463   23.6698 H   0  0  0  0  0  0
  -26.1052  -31.5560   20.6201 H   0  0  0  0  0  0
  -26.8421  -30.8271   22.0141 H   0  0  0  0  0  0
  -28.1143  -28.9584   21.2108 H   0  0  0  0  0  0
  -25.9975  -25.9078   19.0101 H   0  0  0  0  0  0
  -23.9760  -27.3183   18.9931 H   0  0  0  0  0  0
  -23.7815  -30.6061   19.4092 H   0  0  0  0  0  0
  -22.7656  -29.2644   19.8318 H   0  0  0  0  0  0
  -25.1308  -36.1894   25.0807 H   0  0  0  0  0  0
  -21.0001  -28.3259   24.1397 H   0  0  0  0  0  0
  -20.5721  -26.2288   23.3627 H   0  0  0  0  0  0
  -21.6647  -26.7461   22.1188 H   0  0  0  0  0  0
  -19.6914  -25.6280   21.1279 H   0  0  0  0  0  0
  -19.6696  -27.3190   20.6766 H   0  0  0  0  0  0
  -17.4214  -26.6700   21.4026 H   0  0  0  0  0  0
  -18.0310  -26.0095   22.9041 H   0  0  0  0  0  0
  -19.7939  -30.7290   24.2285 H   0  0  0  0  0  0
  -17.5009  -31.6266   24.5179 H   0  0  0  0  0  0
  -15.5354  -30.3003   23.7644 H   0  0  0  0  0  0
  -15.8675  -28.0850   22.7030 H   0  0  0  0  0  0
  -24.5816  -30.7194   25.7734 H   0  0  0  0  0  0
  -24.8927  -32.2991   26.4825 H   0  0  0  0  0  0
  -25.7958  -30.8949   27.0215 H   0  0  0  0  0  0
  -26.2892  -29.6774   24.1189 H   0  0  0  0  0  0
  -27.3932  -29.7237   25.4736 H   0  0  0  0  0  0
  -27.8796  -30.4266   23.9483 H   0  0  0  0  0  0
  -27.2586  -33.3631   26.2090 H   0  0  0  0  0  0
  -28.3827  -32.6946   25.0349 H   0  0  0  0  0  0
  -28.0668  -31.8478   26.5442 H   0  0  0  0  0  0
  -28.2540  -38.0164   24.7567 H   0  0  0  0  0  0
  -28.1170  -36.2695   24.6150 H   0  0  0  0  0  0
  -27.2328  -37.1284   25.8847 H   0  0  0  0  0  0
  -20.9361  -29.8771   21.6914 H   0  0  0  0  0  0
  -26.0150  -38.2822   24.1473 H   0  0  0  0  0  0
  -33.0889  -19.3512   20.4377 H   0  0  0  0  0  0
  -32.4563  -17.0313   20.6112 H   0  0  0  0  0  0
  -28.3204  -18.1403   20.3031 H   0  0  0  0  0  0
  -32.6317  -21.5389   19.6223 H   0  0  0  0  0  0
  -31.7411  -22.0806   21.0431 H   0  0  0  0  0  0
  -31.0106  -22.1510   19.4272 H   0  0  0  0  0  0
  -27.5345  -20.0453   18.6548 H   0  0  0  0  0  0
  -26.6929  -21.2911   19.5733 H   0  0  0  0  0  0
  -26.9878  -19.7348   20.3108 H   0  0  0  0  0  0
  -27.6712  -23.4751   19.2699 H   0  0  0  0  0  0
  -29.3537  -23.8550   19.3979 H   0  0  0  0  0  0
  -27.9472  -22.2273   21.5992 H   0  0  0  0  0  0
  -29.6319  -22.4113   21.4141 H   0  0  0  0  0  0
  -28.6967  -25.0366   21.6827 H   0  0  0  0  0  0
  -27.0723  -24.9356   21.1436 H   0  0  0  0  0  0
  -28.9271  -15.7414   20.5971 H   0  0  0  0  0  0
  1 25  1  0  0  0
  1 30  2  0  0  0
  1 82  1  0  0  0
  2  3  1  0  0  0
  2 25  1  0  0  0
  2 84  1  0  0  0
  2 85  1  0  0  0
  3  4  1  0  0  0
  3 86  1  0  0  0
  3 87  1  0  0  0
  4  5  1  0  0  0
  4 88  1  0  0  0
  4 89  1  0  0  0
  5  6  1  0  0  0
  5 26  1  0  0  0
  5 90  1  0  0  0
  6 25  1  0  0  0
  6 91  1  0  0  0
  6 92  1  0  0  0
  7  8  2  0  0  0
  7 26  1  0  0  0
  7 29  1  0  0  0
  8  9  1  0  0  0
  8 22  1  0  0  0
  9 10  1  0  0  0
  9 27  2  0  0  0
 10 11  2  0  0  0
 10 15  1  0  0  0
 11 12  1  0  0  0
 11 93  1  0  0  0
 12 13  2  0  0  0
 12 94  1  0  0  0
 13 14  1  0  0  0
 13 31  1  0  0  0
 14 15  2  0  0  0
 14 95  1  0  0  0
 15 96  1  0  0  0
 16 17  2  0  0  0
 16 21  1  0  0  0
 16 31  1  0  0  0
 17 18  1  0  0  0
 17 97  1  0  0  0
 18 19  2  0  0  0
 18 98  1  0  0  0
 19 20  1  0  0  0
 19 24  1  0  0  0
 20 21  2  0  0  0
 20 99  1  0  0  0
 21 23  1  0  0  0
 22 28  1  0  0  0
 22 32  2  0  0  0
 26 27  1  0  0  0
 28100  1  0  0  0
 28101  1  0  0  0
 29102  1  0  0  0
 29103  1  0  0  0
 33 34  1  0  0  0
 33 66  1  0  0  0
 33 70  2  0  0  0
 34 36  1  0  0  0
 34 59  1  0  0  0
 34104  1  0  0  0
 35 44  2  0  0  0
 35 45  1  0  0  0
 35 68  1  0  0  0
 36 56  1  0  0  0
 36105  1  0  0  0
 37 39  1  0  0  0
 37 47  1  0  0  0
 37 66  1  0  0  0
 37106  1  0  0  0
 38 43  2  0  0  0
 38 46  1  0  0  0
 38 47  1  0  0  0
 39 64  1  0  0  0
 39 67  2  0  0  0
 40 52  1  0  0  0
 40 53  2  0  0  0
 40 58  1  0  0  0
 41107  1  0  0  0
 41108  1  0  0  0
 41109  1  0  0  0
 41 48  1  0  0  0
 42 43  1  0  0  0
 42 66  1  0  0  0
 42110  1  0  0  0
 42111  1  0  0  0
 43 44  1  0  0  0
 44112  1  0  0  0
 45 46  2  0  0  0
 45113  1  0  0  0
 46114  1  0  0  0
 47115  1  0  0  0
 47116  1  0  0  0
 48 56  1  0  0  0
 48 65  1  0  0  0
 48117  1  0  0  0
 49 50  1  0  0  0
 49 53  1  0  0  0
 49 64  1  0  0  0
 49118  1  0  0  0
 50 51  1  0  0  0
 50119  1  0  0  0
 50120  1  0  0  0
 51 52  1  0  0  0
 51121  1  0  0  0
 51122  1  0  0  0
 52123  1  0  0  0
 52124  1  0  0  0
 53 54  1  0  0  0
 54 55  2  0  0  0
 54125  1  0  0  0
 55 57  1  0  0  0
 55126  1  0  0  0
 56 69  2  0  0  0
 57 58  2  0  0  0
 57127  1  0  0  0
 58128  1  0  0  0
 59 60  1  0  0  0
 59 61  1  0  0  0
 59 62  1  0  0  0
 60129  1  0  0  0
 60130  1  0  0  0
 60131  1  0  0  0
 61132  1  0  0  0
 61133  1  0  0  0
 61134  1  0  0  0
 62135  1  0  0  0
 62136  1  0  0  0
 62137  1  0  0  0
 63 65  1  0  0  0
 63138  1  0  0  0
 63139  1  0  0  0
 63140  1  0  0  0
 64141  1  0  0  0
 65142  1  0  0  0
 68 81  1  0  0  0
 71 72  2  0  0  0
 71 74  1  0  0  0
 71143  1  0  0  0
 72 75  1  0  0  0
 72144  1  0  0  0
 73 75  2  0  0  0
 73 76  1  0  0  0
 73145  1  0  0  0
 74 76  2  0  0  0
 74 77  1  0  0  0
 75 82  1  0  0  0
 76 83  1  0  0  0
 77146  1  0  0  0
 77147  1  0  0  0
 77148  1  0  0  0
 78 83  1  0  0  0
 78149  1  0  0  0
 78150  1  0  0  0
 78151  1  0  0  0
 79 80  1  0  0  0
 79 81  1  0  0  0
 79152  1  0  0  0
 79153  1  0  0  0
 80 83  1  0  0  0
 80154  1  0  0  0
 80155  1  0  0  0
 81156  1  0  0  0
 81157  1  0  0  0
 82158  1  0  0  0
M  ISO  4   1 100  68 101  81 101  82 100
M  END
> <chiral flag>
0

> <version>
0

> <s_m_source_file>
/data/baiqing/PycharmProjects/Reinvent-master-3.2/result/LINK_invent/BTK/process_docking_weight1_custom_product_contain_oxygen_bond_distance_aromatic_linkinvent_7_9_3/rearranged_h_0019.sdf

> <i_m_source_file_index>
33

> <r_mmod_Potential_Energy-OPLS-2005>
191.132629394531

> <r_mmod_Stretch_Energy-OPLS-2005>
124.552200317383

> <r_mmod_Bend_Energy-OPLS-2005>
171.06005859375

> <r_mmod_Torsional_Energy-OPLS-2005>
235.744598388672

> <r_mmod_Improper_Torsional_Energy-OPLS-2005>
7.57624053955078

> <r_mmod_Van_der_Waal_Energy-OPLS-2005>
151.599349975586

> <r_mmod_Electrostatic_Energy-OPLS-2005>
-360.08837890625

> <r_mmod_Solvation_Energy-OPLS-2005>
-220.66764831543

> <b_mmod_Minimization_Converged-OPLS-2005>
0

> <r_mmod_RMS_Derivative-OPLS-2005>
4.75300121307373

$$$$
33
                    3D
 Structure written by MMmdl.
170178  0  0  1  0            999 V2000
  -30.6973  -14.5213   20.4936 C   0  0  0  0  0  0
  -30.4138  -12.3207   19.4292 C   0  0  0  0  0  0
  -29.4896  -12.4755   18.2039 C   0  0  0  0  0  0
  -28.0130  -12.3331   18.6239 C   0  0  0  0  0  0
  -27.6484  -13.2069   19.8548 C   0  0  2  0  0  0
  -28.6979  -13.0425   20.9776 C   0  0  0  0  0  0
  -25.2568  -13.8154   20.5642 C   0  0  0  0  0  0
  -24.1835  -13.0438   20.9197 C   0  0  0  0  0  0
  -24.6393  -11.6914   20.8767 C   0  0  0  0  0  0
  -23.9059  -10.4314   21.0427 C   0  0  0  0  0  0
  -24.3622   -9.4228   21.9192 C   0  0  0  0  0  0
  -23.6300   -8.2259   22.0761 C   0  0  0  0  0  0
  -22.4274   -8.0303   21.3560 C   0  0  0  0  0  0
  -21.9918   -9.0276   20.4659 C   0  0  0  0  0  0
  -22.7242  -10.2159   20.3065 C   0  0  0  0  0  0
  -21.6847   -6.0747   22.5282 C   0  0  0  0  0  0
  -21.4010   -6.5648   23.8217 C   0  0  0  0  0  0
  -21.3658   -5.6797   24.9179 C   0  0  0  0  0  0
  -21.6043   -4.3063   24.7233 C   0  0  0  0  0  0
  -21.8818   -3.8156   23.4355 C   0  0  0  0  0  0
  -21.9198   -4.6975   22.3413 C   0  0  0  0  0  0
  -22.7873  -13.5260   21.1853 C   0  0  0  0  0  0
  -22.1662   -4.2160   21.0990 F   0  0  0  0  0  0
  -21.5632   -3.4545   25.7746 F   0  0  0  0  0  0
  -30.0088  -13.3498   20.3994 N   0  0  0  0  0  0
  -26.2976  -12.9318   20.3290 N   0  0  0  0  0  0
  -25.9312  -11.6487   20.5772 N   0  0  0  0  0  0
  -22.0524  -12.8240   22.0417 N   0  0  0  0  0  0
  -25.4221  -15.1849   20.3977 N   0  0  0  0  0  0
  -31.9089  -14.5591   20.2544 O   0  0  0  0  0  0
  -21.6641   -6.8894   21.4244 O   0  0  0  0  0  0
  -22.3563  -14.5565   20.6707 O   0  0  0  0  0  0
  -24.6176  -31.8671   23.2132 C   0  0  0  0  0  0
  -25.9060  -32.4809   23.8402 C   0  0  1  0  0  0
  -27.2294  -27.4193   20.0978 C   0  0  0  0  0  0
  -25.5897  -33.8605   24.2322 N   0  0  0  0  0  0
  -23.4026  -30.4953   21.5542 C   0  0  2  0  0  0
  -24.8431  -28.9549   20.1170 C   0  0  0  0  0  0
  -22.7425  -29.4687   22.5010 C   0  0  0  0  0  0
  -18.0303  -28.1365   22.8473 C   0  0  0  0  0  0
  -24.1476  -36.7317   23.2647 C   0  0  0  0  0  0
  -25.9331  -30.8272   21.3645 C   0  0  0  0  0  0
  -26.0046  -29.4608   20.7112 C   0  0  0  0  0  0
  -27.1963  -28.6996   20.7009 C   0  0  0  0  0  0
  -26.0436  -26.9260   19.5047 C   0  0  0  0  0  0
  -24.8569  -27.6841   19.5148 C   0  0  0  0  0  0
  -23.6075  -29.8271   20.1675 C   0  0  0  0  0  0
  -25.4097  -36.3114   24.0352 C   0  0  1  0  0  0
  -20.5901  -28.3646   23.1344 C   0  0  2  0  0  0
  -20.6820  -26.9395   22.5408 C   0  0  0  0  0  0
  -19.5839  -26.6411   21.5143 C   0  0  0  0  0  0
  -18.1983  -26.7936   22.1528 C   0  0  0  0  0  0
  -19.1558  -28.8803   23.2913 C   0  0  0  0  0  0
  -18.9511  -30.1403   23.8938 C   0  0  0  0  0  0
  -17.6529  -30.6571   24.0609 C   0  0  0  0  0  0
  -25.9033  -34.9485   23.5145 C   0  0  0  0  0  0
  -16.5420  -29.9080   23.6364 C   0  0  0  0  0  0
  -16.7293  -28.6501   23.0345 C   0  0  0  0  0  0
  -26.4474  -31.6598   25.0748 C   0  0  0  0  0  0
  -25.3743  -31.3690   26.1506 C   0  0  0  0  0  0
  -27.0317  -30.3051   24.6133 C   0  0  0  0  0  0
  -27.6063  -32.4323   25.7485 C   0  0  0  0  0  0
  -27.5586  -37.1827   24.8475 C   0  0  0  0  0  0
  -21.4149  -29.3057   22.3774 N   0  0  0  0  0  0
  -26.4295  -37.3796   23.9416 N   0  0  0  0  0  0
  -24.6693  -31.0793   22.1010 N   0  0  0  0  0  0
  -23.4224  -28.8246   23.3040 O   0  0  0  0  0  0
  -28.4191  -26.7113   20.1214 O   0  0  0  0  0  0
  -26.5602  -34.8949   22.4710 O   0  0  0  0  0  0
  -23.5379  -32.1403   23.7548 O   0  0  0  0  0  0
  -27.2907  -19.4690   19.9422 C   0  0  0  0  0  0
  -28.7757  -20.1332   21.7354 C   0  0  0  0  0  0
  -28.6591  -17.7636   21.0683 C   0  0  0  0  0  0
  -27.7907  -20.4944   20.7842 C   0  0  0  0  0  0
  -27.7015  -18.1265   20.0951 C   0  0  0  0  0  0
  -29.2049  -18.7889   21.8748 C   0  0  0  0  0  0
  -24.9839  -23.2727   22.6352 C   0  0  0  0  0  0
  -23.7986  -21.1353   21.9615 C   0  0  0  0  0  0
  -30.4973  -16.5704   19.2300 C   0  0  0  0  0  0
  -29.0503  -16.2761   21.2549 C   0  0  0  0  0  0
  -27.8982  -24.2839   20.5374 C   0  0  0  0  0  0
  -28.0895  -22.8268   20.0192 C   0  0  0  0  0  0
  -25.8247  -21.9346   20.6517 C   0  0  0  0  0  0
  -28.4948  -25.3703   19.6026 C   0  0  0  0  0  0
  -25.1482  -21.8654   22.0366 C   0  0  0  0  0  0
  -27.2878  -21.8251   20.7412 N   0  0  0  0  0  0
  -29.9686  -15.6565   20.2600 N   0  0  0  0  0  0
  -27.1665  -17.1736   19.2942 F   0  0  0  0  0  0
  -30.1354  -18.4834   22.8116 F   0  0  0  0  0  0
  -31.4576  -12.4110   19.1279 H   0  0  0  0  0  0
  -30.3183  -11.3252   19.8678 H   0  0  0  0  0  0
  -29.7326  -11.7276   17.4485 H   0  0  0  0  0  0
  -29.6461  -13.4468   17.7316 H   0  0  0  0  0  0
  -27.8385  -11.2810   18.8525 H   0  0  0  0  0  0
  -27.3566  -12.5670   17.7856 H   0  0  0  0  0  0
  -27.6651  -14.2373   19.5031 H   0  0  0  0  0  0
  -28.6908  -12.0176   21.3517 H   0  0  0  0  0  0
  -28.4798  -13.6694   21.8401 H   0  0  0  0  0  0
  -25.2770   -9.5708   22.4765 H   0  0  0  0  0  0
  -24.0030   -7.4643   22.7464 H   0  0  0  0  0  0
  -21.0859   -8.8781   19.8953 H   0  0  0  0  0  0
  -22.3694  -10.9701   19.6182 H   0  0  0  0  0  0
  -21.1978   -7.6154   23.9718 H   0  0  0  0  0  0
  -21.1475   -6.0530   25.9079 H   0  0  0  0  0  0
  -22.0594   -2.7620   23.2842 H   0  0  0  0  0  0
  -22.4135  -11.9885   22.4784 H   0  0  0  0  0  0
  -21.1150  -13.1264   22.2626 H   0  0  0  0  0  0
  -24.6395  -15.8236   20.4808 H   0  0  0  0  0  0
  -26.2326  -15.6225   19.9708 H   0  0  0  0  0  0
  -26.7137  -32.5514   23.1170 H   0  0  0  0  0  0
  -25.0028  -33.9704   25.0459 H   0  0  0  0  0  0
  -22.6886  -31.3105   21.4233 H   0  0  0  0  0  0
  -23.3736  -35.9651   23.3319 H   0  0  0  0  0  0
  -24.3590  -36.8922   22.2064 H   0  0  0  0  0  0
  -23.7225  -37.6539   23.6632 H   0  0  0  0  0  0
  -26.0512  -31.5925   20.5956 H   0  0  0  0  0  0
  -26.8190  -30.8730   21.9876 H   0  0  0  0  0  0
  -28.0942  -29.0881   21.1609 H   0  0  0  0  0  0
  -26.0032  -25.9528   19.0403 H   0  0  0  0  0  0
  -23.9640  -27.2782   19.0618 H   0  0  0  0  0  0
  -23.7182  -30.6066   19.4113 H   0  0  0  0  0  0
  -22.7238  -29.2587   19.8745 H   0  0  0  0  0  0
  -25.1274  -36.1986   25.0846 H   0  0  0  0  0  0
  -21.0005  -28.3197   24.1464 H   0  0  0  0  0  0
  -20.5700  -26.2235   23.3563 H   0  0  0  0  0  0
  -21.6733  -26.7495   22.1238 H   0  0  0  0  0  0
  -19.7010  -25.6314   21.1169 H   0  0  0  0  0  0
  -19.6838  -27.3239   20.6690 H   0  0  0  0  0  0
  -17.4281  -26.6787   21.3899 H   0  0  0  0  0  0
  -18.0344  -25.9995   22.8817 H   0  0  0  0  0  0
  -19.8011  -30.7154   24.2367 H   0  0  0  0  0  0
  -17.5132  -31.6225   24.5301 H   0  0  0  0  0  0
  -15.5436  -30.2993   23.7738 H   0  0  0  0  0  0
  -15.8652  -28.0879   22.7033 H   0  0  0  0  0  0
  -24.5884  -30.7068   25.7847 H   0  0  0  0  0  0
  -24.8968  -32.2840   26.5035 H   0  0  0  0  0  0
  -25.8111  -30.8803   27.0218 H   0  0  0  0  0  0
  -26.2878  -29.6810   24.1172 H   0  0  0  0  0  0
  -27.4081  -29.7303   25.4599 H   0  0  0  0  0  0
  -27.8700  -30.4404   23.9294 H   0  0  0  0  0  0
  -27.2682  -33.3593   26.2127 H   0  0  0  0  0  0
  -28.3817  -32.6930   25.0266 H   0  0  0  0  0  0
  -28.0774  -31.8400   26.5346 H   0  0  0  0  0  0
  -28.2641  -38.0092   24.7521 H   0  0  0  0  0  0
  -28.1044  -36.2646   24.6284 H   0  0  0  0  0  0
  -27.2323  -37.1473   25.8883 H   0  0  0  0  0  0
  -20.9266  -29.8888   21.7120 H   0  0  0  0  0  0
  -26.0197  -38.2892   24.1369 H   0  0  0  0  0  0
  -26.5628  -19.6773   19.1717 H   0  0  0  0  0  0
  -29.1870  -20.8797   22.3986 H   0  0  0  0  0  0
  -24.4963  -23.2367   23.6090 H   0  0  0  0  0  0
  -24.3858  -23.9099   21.9839 H   0  0  0  0  0  0
  -25.9481  -23.7629   22.7734 H   0  0  0  0  0  0
  -23.3234  -21.0826   22.9425 H   0  0  0  0  0  0
  -23.9344  -20.1077   21.6172 H   0  0  0  0  0  0
  -23.1058  -21.6290   21.2772 H   0  0  0  0  0  0
  -29.7277  -17.1756   18.7571 H   0  0  0  0  0  0
  -30.9720  -16.0247   18.4115 H   0  0  0  0  0  0
  -31.2462  -17.2332   19.6622 H   0  0  0  0  0  0
  -28.1079  -15.7321   21.2381 H   0  0  0  0  0  0
  -29.4446  -16.1285   22.2623 H   0  0  0  0  0  0
  -28.3440  -24.3716   21.5280 H   0  0  0  0  0  0
  -26.8426  -24.5031   20.6764 H   0  0  0  0  0  0
  -29.1479  -22.5606   20.0647 H   0  0  0  0  0  0
  -27.8169  -22.7852   18.9636 H   0  0  0  0  0  0
  -25.5357  -22.8502   20.1354 H   0  0  0  0  0  0
  -25.4128  -21.1506   20.0205 H   0  0  0  0  0  0
  -28.0599  -25.3158   18.6038 H   0  0  0  0  0  0
  -29.5527  -25.1521   19.4540 H   0  0  0  0  0  0
  -25.7729  -21.2788   22.7143 H   0  0  0  0  0  0
  1 25  1  0  0  0
  1 30  2  0  0  0
  1 87  1  0  0  0
  2  3  1  0  0  0
  2 25  1  0  0  0
  2 90  1  0  0  0
  2 91  1  0  0  0
  3  4  1  0  0  0
  3 92  1  0  0  0
  3 93  1  0  0  0
  4  5  1  0  0  0
  4 94  1  0  0  0
  4 95  1  0  0  0
  5  6  1  0  0  0
  5 26  1  0  0  0
  5 96  1  0  0  0
  6 25  1  0  0  0
  6 97  1  0  0  0
  6 98  1  0  0  0
  7  8  2  0  0  0
  7 26  1  0  0  0
  7 29  1  0  0  0
  8  9  1  0  0  0
  8 22  1  0  0  0
  9 10  1  0  0  0
  9 27  2  0  0  0
 10 11  2  0  0  0
 10 15  1  0  0  0
 11 12  1  0  0  0
 11 99  1  0  0  0
 12 13  2  0  0  0
 12100  1  0  0  0
 13 14  1  0  0  0
 13 31  1  0  0  0
 14 15  2  0  0  0
 14101  1  0  0  0
 15102  1  0  0  0
 16 17  2  0  0  0
 16 21  1  0  0  0
 16 31  1  0  0  0
 17 18  1  0  0  0
 17103  1  0  0  0
 18 19  2  0  0  0
 18104  1  0  0  0
 19 20  1  0  0  0
 19 24  1  0  0  0
 20 21  2  0  0  0
 20105  1  0  0  0
 21 23  1  0  0  0
 22 28  1  0  0  0
 22 32  2  0  0  0
 26 27  1  0  0  0
 28106  1  0  0  0
 28107  1  0  0  0
 29108  1  0  0  0
 29109  1  0  0  0
 33 34  1  0  0  0
 33 66  1  0  0  0
 33 70  2  0  0  0
 34 36  1  0  0  0
 34 59  1  0  0  0
 34110  1  0  0  0
 35 44  2  0  0  0
 35 45  1  0  0  0
 35 68  1  0  0  0
 36 56  1  0  0  0
 36111  1  0  0  0
 37 39  1  0  0  0
 37 47  1  0  0  0
 37 66  1  0  0  0
 37112  1  0  0  0
 38 43  2  0  0  0
 38 46  1  0  0  0
 38 47  1  0  0  0
 39 64  1  0  0  0
 39 67  2  0  0  0
 40 52  1  0  0  0
 40 53  2  0  0  0
 40 58  1  0  0  0
 41113  1  0  0  0
 41114  1  0  0  0
 41115  1  0  0  0
 41 48  1  0  0  0
 42 43  1  0  0  0
 42 66  1  0  0  0
 42116  1  0  0  0
 42117  1  0  0  0
 43 44  1  0  0  0
 44118  1  0  0  0
 45 46  2  0  0  0
 45119  1  0  0  0
 46120  1  0  0  0
 47121  1  0  0  0
 47122  1  0  0  0
 48 56  1  0  0  0
 48 65  1  0  0  0
 48123  1  0  0  0
 49 50  1  0  0  0
 49 53  1  0  0  0
 49 64  1  0  0  0
 49124  1  0  0  0
 50 51  1  0  0  0
 50125  1  0  0  0
 50126  1  0  0  0
 51 52  1  0  0  0
 51127  1  0  0  0
 51128  1  0  0  0
 52129  1  0  0  0
 52130  1  0  0  0
 53 54  1  0  0  0
 54 55  2  0  0  0
 54131  1  0  0  0
 55 57  1  0  0  0
 55132  1  0  0  0
 56 69  2  0  0  0
 57 58  2  0  0  0
 57133  1  0  0  0
 58134  1  0  0  0
 59 60  1  0  0  0
 59 61  1  0  0  0
 59 62  1  0  0  0
 60135  1  0  0  0
 60136  1  0  0  0
 60137  1  0  0  0
 61138  1  0  0  0
 61139  1  0  0  0
 61140  1  0  0  0
 62141  1  0  0  0
 62142  1  0  0  0
 62143  1  0  0  0
 63 65  1  0  0  0
 63144  1  0  0  0
 63145  1  0  0  0
 63146  1  0  0  0
 64147  1  0  0  0
 65148  1  0  0  0
 68 84  1  0  0  0
 71 74  2  0  0  0
 71 75  1  0  0  0
 71149  1  0  0  0
 72 74  1  0  0  0
 72 76  2  0  0  0
 72150  1  0  0  0
 73 75  2  0  0  0
 73 76  1  0  0  0
 73 80  1  0  0  0
 74 86  1  0  0  0
 75 88  1  0  0  0
 76 89  1  0  0  0
 77151  1  0  0  0
 77152  1  0  0  0
 77153  1  0  0  0
 77 85  1  0  0  0
 78 85  1  0  0  0
 78154  1  0  0  0
 78155  1  0  0  0
 78156  1  0  0  0
 79 87  1  0  0  0
 79157  1  0  0  0
 79158  1  0  0  0
 79159  1  0  0  0
 80 87  1  0  0  0
 80160  1  0  0  0
 80161  1  0  0  0
 81 82  1  0  0  0
 81 84  1  0  0  0
 81162  1  0  0  0
 81163  1  0  0  0
 82 86  1  0  0  0
 82164  1  0  0  0
 82165  1  0  0  0
 83 85  1  0  0  0
 83 86  1  0  0  0
 83166  1  0  0  0
 83167  1  0  0  0
 84168  1  0  0  0
 84169  1  0  0  0
 85170  1  0  0  0
M  ISO  4   1 100  68 101  84 101  87 100
M  END
> <chiral flag>
0

> <version>
0

> <s_m_source_file>
/data/baiqing/PycharmProjects/Reinvent-master-3.2/result/LINK_invent/BTK/process_docking_weight1_custom_product_contain_oxygen_bond_distance_aromatic_linkinvent_7_9_3/rearranged_h_0019.sdf

> <i_m_source_file_index>
34

> <r_mmod_Potential_Energy-OPLS-2005>
164.289657592773

> <r_mmod_Stretch_Energy-OPLS-2005>
46.8919563293457

> <r_mmod_Bend_Energy-OPLS-2005>
117.716850280762

> <r_mmod_Torsional_Energy-OPLS-2005>
296.851837158203

> <r_mmod_Improper_Torsional_Energy-OPLS-2005>
25.2996807098389

> <r_mmod_Van_der_Waal_Energy-OPLS-2005>
156.270935058594

> <r_mmod_Electrostatic_Energy-OPLS-2005>
-322.895904541016

> <r_mmod_Solvation_Energy-OPLS-2005>
-182.83235168457

> <b_mmod_Minimization_Converged-OPLS-2005>
0

> <r_mmod_RMS_Derivative-OPLS-2005>
3.61619186401367

$$$$
34
                    3D
 Structure written by MMmdl.
162170  0  0  1  0            999 V2000
  -30.7325  -14.5623   20.6382 C   0  0  0  0  0  0
  -30.4408  -12.4046   19.4300 C   0  0  0  0  0  0
  -29.4948  -12.5169   18.2171 C   0  0  0  0  0  0
  -28.0249  -12.3488   18.6380 C   0  0  0  0  0  0
  -27.6574  -13.2206   19.8677 C   0  0  2  0  0  0
  -28.7069  -13.0547   20.9901 C   0  0  0  0  0  0
  -25.2593  -13.8161   20.5697 C   0  0  0  0  0  0
  -24.1838  -13.0416   20.9185 C   0  0  0  0  0  0
  -24.6406  -11.6911   20.8743 C   0  0  0  0  0  0
  -23.9084  -10.4270   21.0395 C   0  0  0  0  0  0
  -24.3641   -9.4194   21.9190 C   0  0  0  0  0  0
  -23.6306   -8.2235   22.0758 C   0  0  0  0  0  0
  -22.4290   -8.0267   21.3539 C   0  0  0  0  0  0
  -21.9924   -9.0247   20.4659 C   0  0  0  0  0  0
  -22.7245  -10.2129   20.3051 C   0  0  0  0  0  0
  -21.6843   -6.0743   22.5288 C   0  0  0  0  0  0
  -21.4013   -6.5658   23.8224 C   0  0  0  0  0  0
  -21.3661   -5.6807   24.9179 C   0  0  0  0  0  0
  -21.6026   -4.3070   24.7220 C   0  0  0  0  0  0
  -21.8830   -3.8166   23.4335 C   0  0  0  0  0  0
  -21.9205   -4.6982   22.3394 C   0  0  0  0  0  0
  -22.7887  -13.5227   21.1834 C   0  0  0  0  0  0
  -22.1660   -4.2189   21.0974 F   0  0  0  0  0  0
  -21.5621   -3.4542   25.7730 F   0  0  0  0  0  0
  -30.0300  -13.4015   20.4383 N   0  0  0  0  0  0
  -26.3024  -12.9357   20.3351 N   0  0  0  0  0  0
  -25.9351  -11.6501   20.5777 N   0  0  0  0  0  0
  -22.0519  -12.8226   22.0407 N   0  0  0  0  0  0
  -25.4267  -15.1863   20.4128 N   0  0  0  0  0  0
  -31.8571  -14.7297   20.1648 O   0  0  0  0  0  0
  -21.6614   -6.8881   21.4252 O   0  0  0  0  0  0
  -22.3609  -14.5523   20.6678 O   0  0  0  0  0  0
  -24.6290  -31.8562   23.2003 C   0  0  0  0  0  0
  -25.9143  -32.4742   23.8328 C   0  0  1  0  0  0
  -27.2435  -27.3476   20.0916 C   0  0  0  0  0  0
  -25.5969  -33.8547   24.2246 N   0  0  0  0  0  0
  -23.4212  -30.4809   21.5407 C   0  0  2  0  0  0
  -24.8658  -28.9310   20.1106 C   0  0  0  0  0  0
  -22.7476  -29.4604   22.4899 C   0  0  0  0  0  0
  -18.0296  -28.1390   22.8510 C   0  0  0  0  0  0
  -24.1495  -36.7298   23.2644 C   0  0  0  0  0  0
  -25.9581  -30.7894   21.3735 C   0  0  0  0  0  0
  -26.0290  -29.4182   20.7182 C   0  0  0  0  0  0
  -27.2164  -28.6329   20.7075 C   0  0  0  0  0  0
  -26.0571  -26.9039   19.4639 C   0  0  0  0  0  0
  -24.8776  -27.6759   19.4806 C   0  0  0  0  0  0
  -23.6394  -29.8168   20.1533 C   0  0  0  0  0  0
  -25.4112  -36.3061   24.0329 C   0  0  1  0  0  0
  -20.5895  -28.3684   23.1293 C   0  0  2  0  0  0
  -20.6775  -26.9414   22.5400 C   0  0  0  0  0  0
  -19.5724  -26.6394   21.5236 C   0  0  0  0  0  0
  -18.1919  -26.7927   22.1677 C   0  0  0  0  0  0
  -19.1548  -28.8858   23.2895 C   0  0  0  0  0  0
  -18.9495  -30.1477   23.8879 C   0  0  0  0  0  0
  -17.6492  -30.6584   24.0580 C   0  0  0  0  0  0
  -25.9053  -34.9439   23.5082 C   0  0  0  0  0  0
  -16.5375  -29.9101   23.6334 C   0  0  0  0  0  0
  -16.7291  -28.6533   23.0335 C   0  0  0  0  0  0
  -26.4502  -31.6557   25.0708 C   0  0  0  0  0  0
  -25.3803  -31.3785   26.1504 C   0  0  0  0  0  0
  -27.0308  -30.2953   24.6188 C   0  0  0  0  0  0
  -27.6015  -32.4309   25.7543 C   0  0  0  0  0  0
  -27.5534  -37.1842   24.8487 C   0  0  0  0  0  0
  -21.4191  -29.3047   22.3692 N   0  0  0  0  0  0
  -26.4273  -37.3767   23.9390 N   0  0  0  0  0  0
  -24.6886  -31.0594   22.0952 N   0  0  0  0  0  0
  -23.4206  -28.8141   23.2949 O   0  0  0  0  0  0
  -28.4059  -26.5647   20.0533 O   0  0  0  0  0  0
  -26.5593  -34.8940   22.4631 O   0  0  0  0  0  0
  -23.5445  -32.1358   23.7333 O   0  0  0  0  0  0
  -32.4771  -18.4890   22.0357 C   0  0  0  0  0  0
  -33.0655  -19.6795   21.5673 C   0  0  0  0  0  0
  -30.7097  -18.6948   20.3665 C   0  0  0  0  0  0
  -31.3126  -17.9525   21.4288 C   0  0  0  0  0  0
  -31.2615  -19.9477   19.9394 C   0  0  0  0  0  0
  -32.4697  -20.3912   20.5172 C   0  0  0  0  0  0
  -28.2683  -20.5741   19.0663 C   0  0  0  0  0  0
  -30.7129  -16.6808   22.0937 C   0  0  0  0  0  0
  -30.6894  -20.8109   18.7891 C   0  0  0  0  0  0
  -29.2596  -24.1388   19.5030 C   0  0  0  0  0  0
  -29.2860  -22.6414   20.0201 C   0  0  0  0  0  0
  -28.3125  -25.1190   20.3114 C   0  0  0  0  0  0
  -30.1148  -15.5469   21.3364 N   0  0  0  0  0  0
  -29.3873  -21.5404   18.9873 N   0  3  1  0  0  0
  -33.0888  -21.5064   20.0582 F   0  0  0  0  0  0
  -31.4693  -12.5581   19.0989 H   0  0  0  0  0  0
  -30.4110  -11.4034   19.8615 H   0  0  0  0  0  0
  -29.7594  -11.7642   17.4733 H   0  0  0  0  0  0
  -29.6289  -13.4829   17.7295 H   0  0  0  0  0  0
  -27.8753  -11.2929   18.8770 H   0  0  0  0  0  0
  -27.3644  -12.5679   17.7969 H   0  0  0  0  0  0
  -27.6804  -14.2588   19.5401 H   0  0  0  0  0  0
  -28.7171  -12.0170   21.3320 H   0  0  0  0  0  0
  -28.4457  -13.6544   21.8633 H   0  0  0  0  0  0
  -25.2770   -9.5685   22.4776 H   0  0  0  0  0  0
  -24.0022   -7.4630   22.7475 H   0  0  0  0  0  0
  -21.0850   -8.8740   19.8983 H   0  0  0  0  0  0
  -22.3662  -10.9662   19.6187 H   0  0  0  0  0  0
  -21.1984   -7.6177   23.9751 H   0  0  0  0  0  0
  -21.1476   -6.0515   25.9083 H   0  0  0  0  0  0
  -22.0611   -2.7630   23.2807 H   0  0  0  0  0  0
  -22.4131  -11.9888   22.4760 H   0  0  0  0  0  0
  -21.1158  -13.1302   22.2634 H   0  0  0  0  0  0
  -24.6611  -15.8390   20.5254 H   0  0  0  0  0  0
  -26.2744  -15.6258   20.0751 H   0  0  0  0  0  0
  -26.7211  -32.5390   23.1071 H   0  0  0  0  0  0
  -25.0211  -33.9658   25.0457 H   0  0  0  0  0  0
  -22.7199  -31.3054   21.3944 H   0  0  0  0  0  0
  -23.3723  -35.9670   23.3340 H   0  0  0  0  0  0
  -24.3575  -36.8876   22.2049 H   0  0  0  0  0  0
  -23.7306  -37.6544   23.6632 H   0  0  0  0  0  0
  -26.0929  -31.5536   20.6060 H   0  0  0  0  0  0
  -26.8383  -30.8300   22.0042 H   0  0  0  0  0  0
  -28.1085  -29.0048   21.1925 H   0  0  0  0  0  0
  -26.0409  -25.9666   18.9278 H   0  0  0  0  0  0
  -23.9884  -27.3090   18.9867 H   0  0  0  0  0  0
  -23.7764  -30.5964   19.4047 H   0  0  0  0  0  0
  -22.7616  -29.2551   19.8310 H   0  0  0  0  0  0
  -25.1303  -36.1903   25.0820 H   0  0  0  0  0  0
  -20.9984  -28.3250   24.1418 H   0  0  0  0  0  0
  -20.5724  -26.2288   23.3605 H   0  0  0  0  0  0
  -21.6641  -26.7434   22.1180 H   0  0  0  0  0  0
  -19.6893  -25.6322   21.1245 H   0  0  0  0  0  0
  -19.6655  -27.3236   20.6799 H   0  0  0  0  0  0
  -17.4188  -26.6687   21.4091 H   0  0  0  0  0  0
  -18.0319  -26.0052   22.9061 H   0  0  0  0  0  0
  -19.7978  -30.7302   24.2195 H   0  0  0  0  0  0
  -17.5061  -31.6260   24.5204 H   0  0  0  0  0  0
  -15.5385  -30.3016   23.7651 H   0  0  0  0  0  0
  -15.8696  -28.0878   22.6989 H   0  0  0  0  0  0
  -24.5887  -30.7176   25.7943 H   0  0  0  0  0  0
  -24.9132  -32.3013   26.4955 H   0  0  0  0  0  0
  -25.8197  -30.8987   27.0266 H   0  0  0  0  0  0
  -26.2880  -29.6765   24.1126 H   0  0  0  0  0  0
  -27.3874  -29.7131   25.4700 H   0  0  0  0  0  0
  -27.8821  -30.4172   23.9490 H   0  0  0  0  0  0
  -27.2480  -33.3510   26.2225 H   0  0  0  0  0  0
  -28.3808  -32.7040   25.0417 H   0  0  0  0  0  0
  -28.0717  -31.8413   26.5424 H   0  0  0  0  0  0
  -28.2653  -38.0017   24.7292 H   0  0  0  0  0  0
  -28.0902  -36.2537   24.6579 H   0  0  0  0  0  0
  -27.2222  -37.1821   25.8885 H   0  0  0  0  0  0
  -20.9349  -29.8855   21.7004 H   0  0  0  0  0  0
  -26.0149  -38.2873   24.1262 H   0  0  0  0  0  0
  -32.9427  -17.9979   22.8769 H   0  0  0  0  0  0
  -33.9733  -20.0586   22.0151 H   0  0  0  0  0  0
  -29.8151  -18.2993   19.9013 H   0  0  0  0  0  0
  -28.1963  -20.1237   20.0596 H   0  0  0  0  0  0
  -28.4132  -19.7599   18.3522 H   0  0  0  0  0  0
  -27.3234  -21.0655   18.8343 H   0  0  0  0  0  0
  -31.4253  -16.2794   22.8213 H   0  0  0  0  0  0
  -29.9014  -17.0591   22.7171 H   0  0  0  0  0  0
  -30.5892  -20.1387   17.9363 H   0  0  0  0  0  0
  -31.4379  -21.5280   18.4466 H   0  0  0  0  0  0
  -28.9782  -24.1755   18.4475 H   0  0  0  0  0  0
  -30.2856  -24.5094   19.5508 H   0  0  0  0  0  0
  -28.3473  -22.4899   20.5517 H   0  0  0  0  0  0
  -30.0534  -22.5103   20.7832 H   0  0  0  0  0  0
  -27.2946  -24.7553   20.1848 H   0  0  0  0  0  0
  -28.5195  -24.9805   21.3752 H   0  0  0  0  0  0
  -29.1718  -15.3314   21.6248 H   0  0  0  0  0  0
  -29.2524  -22.0024   18.1008 H   0  0  0  0  0  0
  1 25  1  0  0  0
  1 30  2  0  0  0
  1 83  1  0  0  0
  2  3  1  0  0  0
  2 25  1  0  0  0
  2 86  1  0  0  0
  2 87  1  0  0  0
  3  4  1  0  0  0
  3 88  1  0  0  0
  3 89  1  0  0  0
  4  5  1  0  0  0
  4 90  1  0  0  0
  4 91  1  0  0  0
  5  6  1  0  0  0
  5 26  1  0  0  0
  5 92  1  0  0  0
  6 25  1  0  0  0
  6 93  1  0  0  0
  6 94  1  0  0  0
  7  8  2  0  0  0
  7 26  1  0  0  0
  7 29  1  0  0  0
  8  9  1  0  0  0
  8 22  1  0  0  0
  9 10  1  0  0  0
  9 27  2  0  0  0
 10 11  2  0  0  0
 10 15  1  0  0  0
 11 12  1  0  0  0
 11 95  1  0  0  0
 12 13  2  0  0  0
 12 96  1  0  0  0
 13 14  1  0  0  0
 13 31  1  0  0  0
 14 15  2  0  0  0
 14 97  1  0  0  0
 15 98  1  0  0  0
 16 17  2  0  0  0
 16 21  1  0  0  0
 16 31  1  0  0  0
 17 18  1  0  0  0
 17 99  1  0  0  0
 18 19  2  0  0  0
 18100  1  0  0  0
 19 20  1  0  0  0
 19 24  1  0  0  0
 20 21  2  0  0  0
 20101  1  0  0  0
 21 23  1  0  0  0
 22 28  1  0  0  0
 22 32  2  0  0  0
 26 27  1  0  0  0
 28102  1  0  0  0
 28103  1  0  0  0
 29104  1  0  0  0
 29105  1  0  0  0
 33 34  1  0  0  0
 33 66  1  0  0  0
 33 70  2  0  0  0
 34 36  1  0  0  0
 34 59  1  0  0  0
 34106  1  0  0  0
 35 44  2  0  0  0
 35 45  1  0  0  0
 35 68  1  0  0  0
 36 56  1  0  0  0
 36107  1  0  0  0
 37 39  1  0  0  0
 37 47  1  0  0  0
 37 66  1  0  0  0
 37108  1  0  0  0
 38 43  2  0  0  0
 38 46  1  0  0  0
 38 47  1  0  0  0
 39 64  1  0  0  0
 39 67  2  0  0  0
 40 52  1  0  0  0
 40 53  2  0  0  0
 40 58  1  0  0  0
 41109  1  0  0  0
 41110  1  0  0  0
 41111  1  0  0  0
 41 48  1  0  0  0
 42 43  1  0  0  0
 42 66  1  0  0  0
 42112  1  0  0  0
 42113  1  0  0  0
 43 44  1  0  0  0
 44114  1  0  0  0
 45 46  2  0  0  0
 45115  1  0  0  0
 46116  1  0  0  0
 47117  1  0  0  0
 47118  1  0  0  0
 48 56  1  0  0  0
 48 65  1  0  0  0
 48119  1  0  0  0
 49 50  1  0  0  0
 49 53  1  0  0  0
 49 64  1  0  0  0
 49120  1  0  0  0
 50 51  1  0  0  0
 50121  1  0  0  0
 50122  1  0  0  0
 51 52  1  0  0  0
 51123  1  0  0  0
 51124  1  0  0  0
 52125  1  0  0  0
 52126  1  0  0  0
 53 54  1  0  0  0
 54 55  2  0  0  0
 54127  1  0  0  0
 55 57  1  0  0  0
 55128  1  0  0  0
 56 69  2  0  0  0
 57 58  2  0  0  0
 57129  1  0  0  0
 58130  1  0  0  0
 59 60  1  0  0  0
 59 61  1  0  0  0
 59 62  1  0  0  0
 60131  1  0  0  0
 60132  1  0  0  0
 60133  1  0  0  0
 61134  1  0  0  0
 61135  1  0  0  0
 61136  1  0  0  0
 62137  1  0  0  0
 62138  1  0  0  0
 62139  1  0  0  0
 63 65  1  0  0  0
 63140  1  0  0  0
 63141  1  0  0  0
 63142  1  0  0  0
 64143  1  0  0  0
 65144  1  0  0  0
 68 82  1  0  0  0
 71 72  2  0  0  0
 71 74  1  0  0  0
 71145  1  0  0  0
 72 76  1  0  0  0
 72146  1  0  0  0
 73 74  2  0  0  0
 73 75  1  0  0  0
 73147  1  0  0  0
 74 78  1  0  0  0
 75 76  2  0  0  0
 75 79  1  0  0  0
 76 85  1  0  0  0
 77148  1  0  0  0
 77149  1  0  0  0
 77150  1  0  0  0
 77 84  1  0  0  0
 78 83  1  0  0  0
 78151  1  0  0  0
 78152  1  0  0  0
 79 84  1  0  0  0
 79153  1  0  0  0
 79154  1  0  0  0
 80 81  1  0  0  0
 80 82  1  0  0  0
 80155  1  0  0  0
 80156  1  0  0  0
 81 84  1  0  0  0
 81157  1  0  0  0
 81158  1  0  0  0
 82159  1  0  0  0
 82160  1  0  0  0
 83161  1  0  0  0
 84162  1  0  0  0
M  CHG  1  84   1
M  ISO  4   1 100  68 101  82 101  83 100
M  END
> <chiral flag>
0

> <version>
0

> <s_m_source_file>
/data/baiqing/PycharmProjects/Reinvent-master-3.2/result/LINK_invent/BTK/process_docking_weight1_custom_product_contain_oxygen_bond_distance_aromatic_linkinvent_7_9_3/rearranged_h_0019.sdf

> <i_m_source_file_index>
35

> <r_mmod_Potential_Energy-OPLS-2005>
-156.582427978516

> <r_mmod_Stretch_Energy-OPLS-2005>
65.5255737304688

> <r_mmod_Bend_Energy-OPLS-2005>
152.880477905273

> <r_mmod_Torsional_Energy-OPLS-2005>
222.2529296875

> <r_mmod_Improper_Torsional_Energy-OPLS-2005>
3.6459436416626

> <r_mmod_Van_der_Waal_Energy-OPLS-2005>
144.498123168945

> <r_mmod_Electrostatic_Energy-OPLS-2005>
-318.816345214844

> <r_mmod_Solvation_Energy-OPLS-2005>
-457.703308105469

> <b_mmod_Minimization_Converged-OPLS-2005>
0

> <r_mmod_RMS_Derivative-OPLS-2005>
7.01637268066406

$$$$
35
                    3D
 Structure written by MMmdl.
158166  0  0  1  0            999 V2000
  -30.4885  -15.0472   20.3643 C   0  0  0  0  0  0
  -30.4385  -12.6397   19.5332 C   0  0  0  0  0  0
  -29.5353  -12.5275   18.2807 C   0  0  0  0  0  0
  -28.0668  -12.3100   18.6906 C   0  0  0  0  0  0
  -27.6240  -13.2588   19.8349 C   0  0  2  0  0  0
  -28.6572  -13.3297   20.9796 C   0  0  0  0  0  0
  -25.2439  -13.8231   20.5737 C   0  0  0  0  0  0
  -24.1766  -13.0441   20.9247 C   0  0  0  0  0  0
  -24.6395  -11.6935   20.8776 C   0  0  0  0  0  0
  -23.9094  -10.4289   21.0412 C   0  0  0  0  0  0
  -24.3644   -9.4204   21.9194 C   0  0  0  0  0  0
  -23.6313   -8.2234   22.0757 C   0  0  0  0  0  0
  -22.4287   -8.0284   21.3548 C   0  0  0  0  0  0
  -21.9920   -9.0266   20.4656 C   0  0  0  0  0  0
  -22.7253  -10.2141   20.3068 C   0  0  0  0  0  0
  -21.6843   -6.0762   22.5298 C   0  0  0  0  0  0
  -21.4017   -6.5663   23.8229 C   0  0  0  0  0  0
  -21.3661   -5.6812   24.9186 C   0  0  0  0  0  0
  -21.6027   -4.3072   24.7230 C   0  0  0  0  0  0
  -21.8809   -3.8172   23.4342 C   0  0  0  0  0  0
  -21.9182   -4.6995   22.3404 C   0  0  0  0  0  0
  -22.7788  -13.5225   21.1884 C   0  0  0  0  0  0
  -22.1648   -4.2185   21.0984 F   0  0  0  0  0  0
  -21.5611   -3.4548   25.7729 F   0  0  0  0  0  0
  -29.9274  -13.7613   20.3829 N   0  0  0  0  0  0
  -26.2862  -12.9482   20.3226 N   0  0  0  0  0  0
  -25.9327  -11.6605   20.5736 N   0  0  0  0  0  0
  -22.0408  -12.8254   22.0439 N   0  0  0  0  0  0
  -25.4091  -15.1959   20.4185 N   0  0  0  0  0  0
  -31.6873  -15.0983   20.0600 O   0  0  0  0  0  0
  -21.6630   -6.8901   21.4252 O   0  0  0  0  0  0
  -22.3496  -14.5528   20.6707 O   0  0  0  0  0  0
  -24.6459  -31.8369   23.1799 C   0  0  0  0  0  0
  -25.9210  -32.4653   23.8200 C   0  0  1  0  0  0
  -27.2159  -27.0693   20.1592 C   0  0  0  0  0  0
  -25.5946  -33.8465   24.2122 N   0  0  0  0  0  0
  -23.4523  -30.4520   21.5254 C   0  0  2  0  0  0
  -24.9019  -28.8604   20.1012 C   0  0  0  0  0  0
  -22.7580  -29.4514   22.4816 C   0  0  0  0  0  0
  -18.0320  -28.1394   22.8474 C   0  0  0  0  0  0
  -24.1498  -36.7233   23.2643 C   0  0  0  0  0  0
  -26.0099  -30.6845   21.3915 C   0  0  0  0  0  0
  -26.0757  -29.2901   20.7312 C   0  0  0  0  0  0
  -27.2243  -28.4077   20.7473 C   0  0  0  0  0  0
  -26.0207  -26.7502   19.4819 C   0  0  0  0  0  0
  -24.8915  -27.6077   19.4611 C   0  0  0  0  0  0
  -23.6800  -29.7706   20.1469 C   0  0  0  0  0  0
  -25.4134  -36.3005   24.0302 C   0  0  1  0  0  0
  -20.5932  -28.3730   23.1225 C   0  0  2  0  0  0
  -20.6798  -26.9420   22.5413 C   0  0  0  0  0  0
  -19.5777  -26.6367   21.5216 C   0  0  0  0  0  0
  -18.1961  -26.7934   22.1620 C   0  0  0  0  0  0
  -19.1576  -28.8878   23.2845 C   0  0  0  0  0  0
  -18.9493  -30.1474   23.8870 C   0  0  0  0  0  0
  -17.6490  -30.6588   24.0557 C   0  0  0  0  0  0
  -25.9088  -34.9383   23.5030 C   0  0  0  0  0  0
  -16.5383  -29.9078   23.6338 C   0  0  0  0  0  0
  -16.7305  -28.6497   23.0358 C   0  0  0  0  0  0
  -26.4510  -31.6558   25.0682 C   0  0  0  0  0  0
  -25.3666  -31.3782   26.1358 C   0  0  0  0  0  0
  -27.0395  -30.2942   24.6339 C   0  0  0  0  0  0
  -27.6017  -32.4349   25.7480 C   0  0  0  0  0  0
  -27.5579  -37.1774   24.8458 C   0  0  0  0  0  0
  -21.4269  -29.3039   22.3565 N   0  0  0  0  0  0
  -26.4290  -37.3723   23.9406 N   0  0  0  0  0  0
  -24.7225  -31.0160   22.0863 N   0  0  0  0  0  0
  -23.4200  -28.8089   23.3008 O   0  0  0  0  0  0
  -28.2679  -26.0777   20.3105 O   0  0  0  0  0  0
  -26.5691  -34.8902   22.4625 O   0  0  0  0  0  0
  -23.5573  -32.1276   23.6995 O   0  0  0  0  0  0
  -29.4841  -19.0276   17.8576 C   0  0  0  0  0  0
  -29.3445  -19.0206   20.5808 C   0  0  0  0  0  0
  -29.6805  -17.7890   18.5207 C   0  0  0  0  0  0
  -29.2263  -20.2659   18.4976 C   0  0  0  0  0  0
  -29.6327  -17.6829   19.9390 C   0  0  0  0  0  0
  -29.1333  -20.3652   19.9120 C   0  0  0  0  0  0
  -29.8944  -16.5718   17.6331 C   0  0  0  0  0  0
  -29.1046  -21.4893   17.5957 C   0  0  0  0  0  0
  -29.4997  -21.7781   21.8760 C   0  0  0  0  0  0
  -28.0273  -23.0018   20.2143 C   0  0  0  0  0  0
  -28.4464  -24.6079   19.7378 C   0  0  0  0  0  0
  -29.7094  -16.2475   20.5699 N   0  0  0  0  0  0
  -28.9647  -21.7441   20.5188 N   0  0  0  0  0  0
  -31.4747  -12.7958   19.2296 H   0  0  0  0  0  0
  -30.4402  -11.7076   20.0992 H   0  0  0  0  0  0
  -29.8722  -11.7035   17.6503 H   0  0  0  0  0  0
  -29.6280  -13.4313   17.6771 H   0  0  0  0  0  0
  -27.9777  -11.2768   19.0255 H   0  0  0  0  0  0
  -27.4050  -12.4080   17.8281 H   0  0  0  0  0  0
  -27.5759  -14.2516   19.3863 H   0  0  0  0  0  0
  -28.7592  -12.3670   21.4830 H   0  0  0  0  0  0
  -28.3339  -14.0432   21.7398 H   0  0  0  0  0  0
  -25.2774   -9.5671   22.4804 H   0  0  0  0  0  0
  -24.0004   -7.4619   22.7489 H   0  0  0  0  0  0
  -21.0826   -8.8810   19.8984 H   0  0  0  0  0  0
  -22.3702  -10.9705   19.6206 H   0  0  0  0  0  0
  -21.2026   -7.6174   23.9752 H   0  0  0  0  0  0
  -21.1489   -6.0535   25.9093 H   0  0  0  0  0  0
  -22.0582   -2.7640   23.2825 H   0  0  0  0  0  0
  -22.3992  -11.9931   22.4895 H   0  0  0  0  0  0
  -21.1032  -13.1323   22.2599 H   0  0  0  0  0  0
  -24.6383  -15.8445   20.5307 H   0  0  0  0  0  0
  -26.2485  -15.6372   20.0675 H   0  0  0  0  0  0
  -26.7270  -32.5224   23.0909 H   0  0  0  0  0  0
  -25.0037  -33.9566   25.0233 H   0  0  0  0  0  0
  -22.7583  -31.2797   21.3652 H   0  0  0  0  0  0
  -23.3774  -35.9548   23.3276 H   0  0  0  0  0  0
  -24.3573  -36.8907   22.2063 H   0  0  0  0  0  0
  -23.7244  -37.6411   23.6714 H   0  0  0  0  0  0
  -26.1810  -31.4370   20.6211 H   0  0  0  0  0  0
  -26.8737  -30.7293   22.0423 H   0  0  0  0  0  0
  -28.1100  -28.7242   21.2797 H   0  0  0  0  0  0
  -25.9263  -25.7822   19.0115 H   0  0  0  0  0  0
  -23.9922  -27.2732   18.9615 H   0  0  0  0  0  0
  -23.8181  -30.5407   19.3870 H   0  0  0  0  0  0
  -22.7926  -29.2147   19.8390 H   0  0  0  0  0  0
  -25.1331  -36.1808   25.0792 H   0  0  0  0  0  0
  -21.0038  -28.3341   24.1338 H   0  0  0  0  0  0
  -20.5702  -26.2340   23.3641 H   0  0  0  0  0  0
  -21.6669  -26.7435   22.1209 H   0  0  0  0  0  0
  -19.6947  -25.6267   21.1277 H   0  0  0  0  0  0
  -19.6725  -27.3151   20.6728 H   0  0  0  0  0  0
  -17.4233  -26.6689   21.4018 H   0  0  0  0  0  0
  -18.0364  -26.0082   22.9023 H   0  0  0  0  0  0
  -19.7967  -30.7305   24.2225 H   0  0  0  0  0  0
  -17.5044  -31.6268   24.5152 H   0  0  0  0  0  0
  -15.5387  -30.2977   23.7673 H   0  0  0  0  0  0
  -15.8705  -28.0811   22.7089 H   0  0  0  0  0  0
  -24.5835  -30.7152   25.7660 H   0  0  0  0  0  0
  -24.8862  -32.2982   26.4701 H   0  0  0  0  0  0
  -25.7902  -30.8984   27.0188 H   0  0  0  0  0  0
  -26.3031  -29.6643   24.1338 H   0  0  0  0  0  0
  -27.3964  -29.7274   25.4947 H   0  0  0  0  0  0
  -27.8956  -30.4157   23.9699 H   0  0  0  0  0  0
  -27.2586  -33.3679   26.1965 H   0  0  0  0  0  0
  -28.3873  -32.6870   25.0344 H   0  0  0  0  0  0
  -28.0632  -31.8538   26.5475 H   0  0  0  0  0  0
  -28.2574  -38.0092   24.7520 H   0  0  0  0  0  0
  -28.1104  -36.2621   24.6273 H   0  0  0  0  0  0
  -27.2296  -37.1401   25.8860 H   0  0  0  0  0  0
  -20.9484  -29.8698   21.6693 H   0  0  0  0  0  0
  -26.0149  -38.2788   24.1411 H   0  0  0  0  0  0
  -29.5353  -19.0294   16.7769 H   0  0  0  0  0  0
  -29.2796  -19.0132   21.6589 H   0  0  0  0  0  0
  -29.7395  -16.8060   16.5800 H   0  0  0  0  0  0
  -29.1949  -15.7764   17.8853 H   0  0  0  0  0  0
  -30.9109  -16.1940   17.7329 H   0  0  0  0  0  0
  -29.5745  -21.3138   16.6277 H   0  0  0  0  0  0
  -29.6026  -22.3592   18.0224 H   0  0  0  0  0  0
  -28.0578  -21.7362   17.4150 H   0  0  0  0  0  0
  -28.7725  -21.3781   22.5839 H   0  0  0  0  0  0
  -29.7297  -22.8016   22.1753 H   0  0  0  0  0  0
  -30.4170  -21.1942   21.9673 H   0  0  0  0  0  0
  -27.3198  -22.6493   19.4631 H   0  0  0  0  0  0
  -27.3948  -23.1109   21.0960 H   0  0  0  0  0  0
  -28.0712  -24.6896   18.7182 H   0  0  0  0  0  0
  -29.5251  -24.5565   19.5868 H   0  0  0  0  0  0
  -28.8813  -16.0346   21.1067 H   0  0  0  0  0  0
  1 25  1  0  0  0
  1 30  2  0  0  0
  1 82  1  0  0  0
  2  3  1  0  0  0
  2 25  1  0  0  0
  2 84  1  0  0  0
  2 85  1  0  0  0
  3  4  1  0  0  0
  3 86  1  0  0  0
  3 87  1  0  0  0
  4  5  1  0  0  0
  4 88  1  0  0  0
  4 89  1  0  0  0
  5  6  1  0  0  0
  5 26  1  0  0  0
  5 90  1  0  0  0
  6 25  1  0  0  0
  6 91  1  0  0  0
  6 92  1  0  0  0
  7  8  2  0  0  0
  7 26  1  0  0  0
  7 29  1  0  0  0
  8  9  1  0  0  0
  8 22  1  0  0  0
  9 10  1  0  0  0
  9 27  2  0  0  0
 10 11  2  0  0  0
 10 15  1  0  0  0
 11 12  1  0  0  0
 11 93  1  0  0  0
 12 13  2  0  0  0
 12 94  1  0  0  0
 13 14  1  0  0  0
 13 31  1  0  0  0
 14 15  2  0  0  0
 14 95  1  0  0  0
 15 96  1  0  0  0
 16 17  2  0  0  0
 16 21  1  0  0  0
 16 31  1  0  0  0
 17 18  1  0  0  0
 17 97  1  0  0  0
 18 19  2  0  0  0
 18 98  1  0  0  0
 19 20  1  0  0  0
 19 24  1  0  0  0
 20 21  2  0  0  0
 20 99  1  0  0  0
 21 23  1  0  0  0
 22 28  1  0  0  0
 22 32  2  0  0  0
 26 27  1  0  0  0
 28100  1  0  0  0
 28101  1  0  0  0
 29102  1  0  0  0
 29103  1  0  0  0
 33 34  1  0  0  0
 33 66  1  0  0  0
 33 70  2  0  0  0
 34 36  1  0  0  0
 34 59  1  0  0  0
 34104  1  0  0  0
 35 44  2  0  0  0
 35 45  1  0  0  0
 35 68  1  0  0  0
 36 56  1  0  0  0
 36105  1  0  0  0
 37 39  1  0  0  0
 37 47  1  0  0  0
 37 66  1  0  0  0
 37106  1  0  0  0
 38 43  2  0  0  0
 38 46  1  0  0  0
 38 47  1  0  0  0
 39 64  1  0  0  0
 39 67  2  0  0  0
 40 52  1  0  0  0
 40 53  2  0  0  0
 40 58  1  0  0  0
 41107  1  0  0  0
 41108  1  0  0  0
 41109  1  0  0  0
 41 48  1  0  0  0
 42 43  1  0  0  0
 42 66  1  0  0  0
 42110  1  0  0  0
 42111  1  0  0  0
 43 44  1  0  0  0
 44112  1  0  0  0
 45 46  2  0  0  0
 45113  1  0  0  0
 46114  1  0  0  0
 47115  1  0  0  0
 47116  1  0  0  0
 48 56  1  0  0  0
 48 65  1  0  0  0
 48117  1  0  0  0
 49 50  1  0  0  0
 49 53  1  0  0  0
 49 64  1  0  0  0
 49118  1  0  0  0
 50 51  1  0  0  0
 50119  1  0  0  0
 50120  1  0  0  0
 51 52  1  0  0  0
 51121  1  0  0  0
 51122  1  0  0  0
 52123  1  0  0  0
 52124  1  0  0  0
 53 54  1  0  0  0
 54 55  2  0  0  0
 54125  1  0  0  0
 55 57  1  0  0  0
 55126  1  0  0  0
 56 69  2  0  0  0
 57 58  2  0  0  0
 57127  1  0  0  0
 58128  1  0  0  0
 59 60  1  0  0  0
 59 61  1  0  0  0
 59 62  1  0  0  0
 60129  1  0  0  0
 60130  1  0  0  0
 60131  1  0  0  0
 61132  1  0  0  0
 61133  1  0  0  0
 61134  1  0  0  0
 62135  1  0  0  0
 62136  1  0  0  0
 62137  1  0  0  0
 63 65  1  0  0  0
 63138  1  0  0  0
 63139  1  0  0  0
 63140  1  0  0  0
 64141  1  0  0  0
 65142  1  0  0  0
 68 81  1  0  0  0
 71 73  2  0  0  0
 71 74  1  0  0  0
 71143  1  0  0  0
 72 75  2  0  0  0
 72 76  1  0  0  0
 72144  1  0  0  0
 73 75  1  0  0  0
 73 77  1  0  0  0
 74 76  2  0  0  0
 74 78  1  0  0  0
 75 82  1  0  0  0
 76 83  1  0  0  0
 77145  1  0  0  0
 77146  1  0  0  0
 77147  1  0  0  0
 78148  1  0  0  0
 78149  1  0  0  0
 78150  1  0  0  0
 79 83  1  0  0  0
 79151  1  0  0  0
 79152  1  0  0  0
 79153  1  0  0  0
 80 81  1  0  0  0
 80 83  1  0  0  0
 80154  1  0  0  0
 80155  1  0  0  0
 81156  1  0  0  0
 81157  1  0  0  0
 82158  1  0  0  0
M  ISO  4   1 100  68 101  81 101  82 100
M  END
> <chiral flag>
0

> <version>
0

> <s_m_source_file>
/data/baiqing/PycharmProjects/Reinvent-master-3.2/result/LINK_invent/BTK/process_docking_weight1_custom_product_contain_oxygen_bond_distance_aromatic_linkinvent_7_9_3/rearranged_h_0019.sdf

> <i_m_source_file_index>
36

> <r_mmod_Potential_Energy-OPLS-2005>
768.332336425781

> <r_mmod_Stretch_Energy-OPLS-2005>
345.999298095703

> <r_mmod_Bend_Energy-OPLS-2005>
366.934448242188

> <r_mmod_Torsional_Energy-OPLS-2005>
249.822296142578

> <r_mmod_Improper_Torsional_Energy-OPLS-2005>
5.72839260101318

> <r_mmod_Van_der_Waal_Energy-OPLS-2005>
132.692718505859

> <r_mmod_Electrostatic_Energy-OPLS-2005>
-370.313079833984

> <r_mmod_Solvation_Energy-OPLS-2005>
-227.91845703125

> <b_mmod_Minimization_Converged-OPLS-2005>
0

> <r_mmod_RMS_Derivative-OPLS-2005>
2.55058646202087

$$$$
36
                    3D
 Structure written by MMmdl.
163172  0  0  1  0            999 V2000
  -30.2051  -16.1808   20.2215 C   0  0  0  0  0  0
  -30.3644  -13.5039   19.4944 C   0  0  0  0  0  0
  -29.5735  -12.7913   18.3474 C   0  0  0  0  0  0
  -28.1910  -12.3409   18.8264 C   0  0  0  0  0  0
  -27.5899  -13.3828   19.7929 C   0  0  2  0  0  0
  -28.5739  -13.9900   20.8484 C   0  0  0  0  0  0
  -25.2375  -13.8460   20.5863 C   0  0  0  0  0  0
  -24.1892  -13.0516   20.9322 C   0  0  0  0  0  0
  -24.6703  -11.7053   20.8843 C   0  0  0  0  0  0
  -23.9414  -10.4364   21.0447 C   0  0  0  0  0  0
  -24.3892   -9.4241   21.9220 C   0  0  0  0  0  0
  -23.6482   -8.2316   22.0786 C   0  0  0  0  0  0
  -22.4438   -8.0403   21.3583 C   0  0  0  0  0  0
  -22.0152   -9.0426   20.4688 C   0  0  0  0  0  0
  -22.7585  -10.2240   20.3086 C   0  0  0  0  0  0
  -21.6899   -6.0868   22.5290 C   0  0  0  0  0  0
  -21.4030   -6.5736   23.8221 C   0  0  0  0  0  0
  -21.3628   -5.6871   24.9163 C   0  0  0  0  0  0
  -21.6042   -4.3134   24.7203 C   0  0  0  0  0  0
  -21.8821   -3.8248   23.4316 C   0  0  0  0  0  0
  -21.9222   -4.7086   22.3386 C   0  0  0  0  0  0
  -22.7838  -13.5161   21.1845 C   0  0  0  0  0  0
  -22.1702   -4.2279   21.0960 F   0  0  0  0  0  0
  -21.5590   -3.4587   25.7699 F   0  0  0  0  0  0
  -29.6350  -14.7643   20.1072 N   0  0  0  0  0  0
  -26.2944  -12.9957   20.3351 N   0  0  0  0  0  0
  -25.9675  -11.6953   20.5741 N   0  0  0  0  0  0
  -22.0538  -12.8117   22.0351 N   0  0  0  0  0  0
  -25.3750  -15.2240   20.4243 N   0  0  0  0  0  0
  -31.4292  -15.8704   20.2387 O   0  0  0  0  0  0
  -21.6712   -6.9054   21.4275 O   0  0  0  0  0  0
  -22.3474  -14.5461   20.6665 O   0  0  0  0  0  0
  -24.7202  -31.7616   23.1170 C   0  0  0  0  0  0
  -25.9650  -32.4267   23.7835 C   0  0  1  0  0  0
  -27.2318  -26.3376   20.1972 C   0  0  0  0  0  0
  -25.6094  -33.8111   24.1682 N   0  0  0  0  0  0
  -23.5575  -30.3483   21.4785 C   0  0  2  0  0  0
  -25.0243  -28.6293   20.0935 C   0  0  0  0  0  0
  -22.7928  -29.4094   22.4563 C   0  0  0  0  0  0
  -18.0383  -28.1454   22.8361 C   0  0  0  0  0  0
  -24.1498  -36.7085   23.2657 C   0  0  0  0  0  0
  -26.1522  -30.3649   21.4401 C   0  0  0  0  0  0
  -26.2098  -28.8925   20.7850 C   0  0  0  0  0  0
  -27.2699  -27.7851   20.8074 C   0  0  0  0  0  0
  -26.0335  -26.4025   19.4233 C   0  0  0  0  0  0
  -24.9996  -27.4123   19.3845 C   0  0  0  0  0  0
  -23.8273  -29.6243   20.1206 C   0  0  0  0  0  0
  -25.4164  -36.2786   24.0223 C   0  0  1  0  0  0
  -20.6034  -28.3773   23.1069 C   0  0  2  0  0  0
  -20.6825  -26.9423   22.5269 C   0  0  0  0  0  0
  -19.5774  -26.6406   21.5114 C   0  0  0  0  0  0
  -18.1979  -26.7960   22.1540 C   0  0  0  0  0  0
  -19.1671  -28.8923   23.2703 C   0  0  0  0  0  0
  -18.9598  -30.1488   23.8780 C   0  0  0  0  0  0
  -17.6585  -30.6583   24.0551 C   0  0  0  0  0  0
  -25.9184  -34.9195   23.4816 C   0  0  0  0  0  0
  -16.5458  -29.9087   23.6373 C   0  0  0  0  0  0
  -16.7374  -28.6558   23.0326 C   0  0  0  0  0  0
  -26.4703  -31.6466   25.0626 C   0  0  0  0  0  0
  -25.3660  -31.3898   26.1150 C   0  0  0  0  0  0
  -27.0657  -30.2737   24.6849 C   0  0  0  0  0  0
  -27.6038  -32.4428   25.7550 C   0  0  0  0  0  0
  -27.5527  -37.1703   24.8472 C   0  0  0  0  0  0
  -21.4520  -29.3031   22.3400 N   0  0  0  0  0  0
  -26.4249  -37.3599   23.9385 N   0  0  0  0  0  0
  -24.8375  -30.8675   22.0624 N   0  0  0  0  0  0
  -23.4227  -28.7703   23.3020 O   0  0  0  0  0  0
  -28.1167  -24.9329   20.3448 O   0  0  0  0  0  0
  -26.5904  -34.8870   22.4479 O   0  0  0  0  0  0
  -23.6171  -32.0909   23.5938 O   0  0  0  0  0  0
  -27.7330  -18.5838   21.0399 C   0  0  0  0  0  0
  -26.4028  -18.9592   21.1760 C   0  0  0  0  0  0
  -28.2266  -21.0392   20.1483 C   0  0  0  0  0  0
  -26.8187  -20.9652   19.8539 C   0  0  0  0  0  0
  -28.7127  -19.3102   20.3246 C   0  0  0  0  0  0
  -25.9348  -20.0368   20.4414 C   0  0  0  0  0  0
  -23.4069  -24.0292   18.8766 C   0  0  0  0  0  0
  -23.8976  -24.2411   17.4417 C   0  0  0  0  0  0
  -24.1548  -22.7805   19.3468 C   0  0  0  0  0  0
  -25.2433  -23.5027   17.3635 C   0  0  0  0  0  0
  -30.9756  -18.4195   19.3903 C   0  0  0  0  0  0
  -26.2682  -21.6090   18.5686 C   0  0  0  0  0  0
  -28.5356  -23.0576   19.8996 C   0  0  0  0  0  0
  -29.7983  -17.8314   20.0409 N   0  0  0  0  0  0
  -25.4770  -22.8605   18.6841 N   0  3  0  0  0  0
  -24.5995  -20.1074   20.2157 F   0  0  0  0  0  0
  -31.3279  -13.7913   19.0725 H   0  0  0  0  0  0
  -30.6342  -12.7799   20.2669 H   0  0  0  0  0  0
  -30.1378  -11.9337   17.9799 H   0  0  0  0  0  0
  -29.4785  -13.4739   17.5009 H   0  0  0  0  0  0
  -28.3158  -11.3847   19.3403 H   0  0  0  0  0  0
  -27.5340  -12.1589   17.9752 H   0  0  0  0  0  0
  -27.3637  -14.2097   19.1168 H   0  0  0  0  0  0
  -28.9704  -13.2405   21.5380 H   0  0  0  0  0  0
  -28.0502  -14.7111   21.4762 H   0  0  0  0  0  0
  -25.3047   -9.5635   22.4792 H   0  0  0  0  0  0
  -24.0165   -7.4700   22.7502 H   0  0  0  0  0  0
  -21.1085   -8.9095   19.8976 H   0  0  0  0  0  0
  -22.4193  -10.9848   19.6184 H   0  0  0  0  0  0
  -21.2027   -7.6240   23.9758 H   0  0  0  0  0  0
  -21.1412   -6.0587   25.9064 H   0  0  0  0  0  0
  -22.0614   -2.7715   23.2784 H   0  0  0  0  0  0
  -22.4319  -11.9864   22.4762 H   0  0  0  0  0  0
  -21.1083  -13.0978   22.2445 H   0  0  0  0  0  0
  -24.5681  -15.8328   20.4863 H   0  0  0  0  0  0
  -26.1968  -15.6861   20.0558 H   0  0  0  0  0  0
  -26.7782  -32.4651   23.0578 H   0  0  0  0  0  0
  -25.0003  -33.9072   24.9681 H   0  0  0  0  0  0
  -22.9046  -31.1947   21.2694 H   0  0  0  0  0  0
  -23.3748  -35.9434   23.3341 H   0  0  0  0  0  0
  -24.3514  -36.8782   22.2069 H   0  0  0  0  0  0
  -23.7295  -37.6266   23.6784 H   0  0  0  0  0  0
  -26.3975  -31.0717   20.6442 H   0  0  0  0  0  0
  -26.9902  -30.4449   22.1214 H   0  0  0  0  0  0
  -28.1428  -28.0018   21.4074 H   0  0  0  0  0  0
  -25.8224  -25.5241   18.8523 H   0  0  0  0  0  0
  -24.1265  -27.2083   18.7789 H   0  0  0  0  0  0
  -24.0070  -30.3821   19.3530 H   0  0  0  0  0  0
  -22.9210  -29.1023   19.8014 H   0  0  0  0  0  0
  -25.1393  -36.1476   25.0706 H   0  0  0  0  0  0
  -21.0066  -28.3402   24.1217 H   0  0  0  0  0  0
  -20.5602  -26.2333   23.3453 H   0  0  0  0  0  0
  -21.6667  -26.7280   22.1092 H   0  0  0  0  0  0
  -19.6972  -25.6345   21.1102 H   0  0  0  0  0  0
  -19.6656  -27.3185   20.6630 H   0  0  0  0  0  0
  -17.4191  -26.6692   21.3978 H   0  0  0  0  0  0
  -18.0368  -26.0126   22.8936 H   0  0  0  0  0  0
  -19.8060  -30.7294   24.2122 H   0  0  0  0  0  0
  -17.5169  -31.6223   24.5236 H   0  0  0  0  0  0
  -15.5456  -30.2923   23.7870 H   0  0  0  0  0  0
  -15.8778  -28.0879   22.7101 H   0  0  0  0  0  0
  -24.5843  -30.7292   25.7404 H   0  0  0  0  0  0
  -24.8877  -32.3162   26.4327 H   0  0  0  0  0  0
  -25.7732  -30.9176   27.0085 H   0  0  0  0  0  0
  -26.3438  -29.6225   24.1910 H   0  0  0  0  0  0
  -27.3928  -29.7393   25.5772 H   0  0  0  0  0  0
  -27.9496  -30.3695   24.0534 H   0  0  0  0  0  0
  -27.2449  -33.3782   26.1862 H   0  0  0  0  0  0
  -28.4038  -32.6913   25.0564 H   0  0  0  0  0  0
  -28.0509  -31.8738   26.5719 H   0  0  0  0  0  0
  -28.2549  -37.9998   24.7450 H   0  0  0  0  0  0
  -28.1014  -36.2497   24.6380 H   0  0  0  0  0  0
  -27.2233  -37.1453   25.8886 H   0  0  0  0  0  0
  -20.9794  -29.8868   21.6657 H   0  0  0  0  0  0
  -26.0034  -38.2635   24.1396 H   0  0  0  0  0  0
  -27.9553  -17.5877   21.3958 H   0  0  0  0  0  0
  -25.7011  -18.2565   21.6032 H   0  0  0  0  0  0
  -22.3238  -23.9418   18.9595 H   0  0  0  0  0  0
  -23.6948  -24.8784   19.4919 H   0  0  0  0  0  0
  -24.0125  -25.2945   17.1983 H   0  0  0  0  0  0
  -23.1938  -23.8277   16.7203 H   0  0  0  0  0  0
  -23.5976  -21.8992   19.0206 H   0  0  0  0  0  0
  -24.2365  -22.7449   20.4328 H   0  0  0  0  0  0
  -26.0677  -24.1764   17.1271 H   0  0  0  0  0  0
  -25.2084  -22.7726   16.5535 H   0  0  0  0  0  0
  -30.8190  -19.4602   19.1062 H   0  0  0  0  0  0
  -31.2369  -17.8949   18.4681 H   0  0  0  0  0  0
  -31.8329  -18.4124   20.0662 H   0  0  0  0  0  0
  -25.6610  -20.8629   18.0458 H   0  0  0  0  0  0
  -27.0958  -21.7732   17.8744 H   0  0  0  0  0  0
  -28.6299  -23.1397   18.8126 H   0  0  0  0  0  0
  -29.5775  -23.0607   20.2204 H   0  0  0  0  0  0
  -26.0252  -23.5066   19.2284 H   0  0  0  0  0  0
  1 25  1  0  0  0
  1 30  2  0  0  0
  1 84  1  0  0  0
  2  3  1  0  0  0
  2 25  1  0  0  0
  2 87  1  0  0  0
  2 88  1  0  0  0
  3  4  1  0  0  0
  3 89  1  0  0  0
  3 90  1  0  0  0
  4  5  1  0  0  0
  4 91  1  0  0  0
  4 92  1  0  0  0
  5  6  1  0  0  0
  5 26  1  0  0  0
  5 93  1  0  0  0
  6 25  1  0  0  0
  6 94  1  0  0  0
  6 95  1  0  0  0
  7  8  2  0  0  0
  7 26  1  0  0  0
  7 29  1  0  0  0
  8  9  1  0  0  0
  8 22  1  0  0  0
  9 10  1  0  0  0
  9 27  2  0  0  0
 10 11  2  0  0  0
 10 15  1  0  0  0
 11 12  1  0  0  0
 11 96  1  0  0  0
 12 13  2  0  0  0
 12 97  1  0  0  0
 13 14  1  0  0  0
 13 31  1  0  0  0
 14 15  2  0  0  0
 14 98  1  0  0  0
 15 99  1  0  0  0
 16 17  2  0  0  0
 16 21  1  0  0  0
 16 31  1  0  0  0
 17 18  1  0  0  0
 17100  1  0  0  0
 18 19  2  0  0  0
 18101  1  0  0  0
 19 20  1  0  0  0
 19 24  1  0  0  0
 20 21  2  0  0  0
 20102  1  0  0  0
 21 23  1  0  0  0
 22 28  1  0  0  0
 22 32  2  0  0  0
 26 27  1  0  0  0
 28103  1  0  0  0
 28104  1  0  0  0
 29105  1  0  0  0
 29106  1  0  0  0
 33 34  1  0  0  0
 33 66  1  0  0  0
 33 70  2  0  0  0
 34 36  1  0  0  0
 34 59  1  0  0  0
 34107  1  0  0  0
 35 44  2  0  0  0
 35 45  1  0  0  0
 35 68  1  0  0  0
 36 56  1  0  0  0
 36108  1  0  0  0
 37 39  1  0  0  0
 37 47  1  0  0  0
 37 66  1  0  0  0
 37109  1  0  0  0
 38 43  2  0  0  0
 38 46  1  0  0  0
 38 47  1  0  0  0
 39 64  1  0  0  0
 39 67  2  0  0  0
 40 52  1  0  0  0
 40 53  2  0  0  0
 40 58  1  0  0  0
 41110  1  0  0  0
 41111  1  0  0  0
 41112  1  0  0  0
 41 48  1  0  0  0
 42 43  1  0  0  0
 42 66  1  0  0  0
 42113  1  0  0  0
 42114  1  0  0  0
 43 44  1  0  0  0
 44115  1  0  0  0
 45 46  2  0  0  0
 45116  1  0  0  0
 46117  1  0  0  0
 47118  1  0  0  0
 47119  1  0  0  0
 48 56  1  0  0  0
 48 65  1  0  0  0
 48120  1  0  0  0
 49 50  1  0  0  0
 49 53  1  0  0  0
 49 64  1  0  0  0
 49121  1  0  0  0
 50 51  1  0  0  0
 50122  1  0  0  0
 50123  1  0  0  0
 51 52  1  0  0  0
 51124  1  0  0  0
 51125  1  0  0  0
 52126  1  0  0  0
 52127  1  0  0  0
 53 54  1  0  0  0
 54 55  2  0  0  0
 54128  1  0  0  0
 55 57  1  0  0  0
 55129  1  0  0  0
 56 69  2  0  0  0
 57 58  2  0  0  0
 57130  1  0  0  0
 58131  1  0  0  0
 59 60  1  0  0  0
 59 61  1  0  0  0
 59 62  1  0  0  0
 60132  1  0  0  0
 60133  1  0  0  0
 60134  1  0  0  0
 61135  1  0  0  0
 61136  1  0  0  0
 61137  1  0  0  0
 62138  1  0  0  0
 62139  1  0  0  0
 62140  1  0  0  0
 63 65  1  0  0  0
 63141  1  0  0  0
 63142  1  0  0  0
 63143  1  0  0  0
 64144  1  0  0  0
 65145  1  0  0  0
 68 83  1  0  0  0
 71 72  2  0  0  0
 71 75  1  0  0  0
 71146  1  0  0  0
 72 76  1  0  0  0
 72147  1  0  0  0
 73 74  1  0  0  0
 73 75  2  0  0  0
 73 83  1  0  0  0
 74 76  2  0  0  0
 74 82  1  0  0  0
 75 84  1  0  0  0
 76 86  1  0  0  0
 77 78  1  0  0  0
 77 79  1  0  0  0
 77148  1  0  0  0
 77149  1  0  0  0
 78 80  1  0  0  0
 78150  1  0  0  0
 78151  1  0  0  0
 79 85  1  0  0  0
 79152  1  0  0  0
 79153  1  0  0  0
 80 85  1  0  0  0
 80154  1  0  0  0
 80155  1  0  0  0
 81 84  1  0  0  0
 81156  1  0  0  0
 81157  1  0  0  0
 81158  1  0  0  0
 82159  1  0  0  0
 82160  1  0  0  0
 82 85  1  0  0  0
 83161  1  0  0  0
 83162  1  0  0  0
 85163  1  0  0  0
M  CHG  1  85   1
M  ISO  4   1 100  68 101  83 101  84 100
M  END
> <chiral flag>
0

> <version>
0

> <s_m_source_file>
/data/baiqing/PycharmProjects/Reinvent-master-3.2/result/LINK_invent/BTK/process_docking_weight1_custom_product_contain_oxygen_bond_distance_aromatic_linkinvent_7_9_3/rearranged_h_0019.sdf

> <i_m_source_file_index>
37

> <r_mmod_Potential_Energy-OPLS-2005>
5309.26513671875

> <r_mmod_Stretch_Energy-OPLS-2005>
2189.42724609375

> <r_mmod_Bend_Energy-OPLS-2005>
1294.46081542969

> <r_mmod_Torsional_Energy-OPLS-2005>
456.604522705078

> <r_mmod_Improper_Torsional_Energy-OPLS-2005>
18.5970287322998

> <r_mmod_Van_der_Waal_Energy-OPLS-2005>
135.710098266602

> <r_mmod_Electrostatic_Energy-OPLS-2005>
-219.816421508789

> <r_mmod_Solvation_Energy-OPLS-2005>
-428.793701171875

> <b_mmod_Minimization_Converged-OPLS-2005>
0

> <r_mmod_RMS_Derivative-OPLS-2005>
7.74247646331787

$$$$
37
                    3D
 Structure written by MMmdl.
168176  0  0  1  0            999 V2000
  -30.7425  -14.3965   20.6531 C   0  0  0  0  0  0
  -30.4177  -12.2996   19.3899 C   0  0  0  0  0  0
  -29.4814  -12.5245   18.1876 C   0  0  0  0  0  0
  -28.0067  -12.3668   18.6067 C   0  0  0  0  0  0
  -27.6576  -13.1923   19.8721 C   0  0  2  0  0  0
  -28.7002  -12.9464   20.9854 C   0  0  0  0  0  0
  -25.2581  -13.8118   20.5663 C   0  0  0  0  0  0
  -24.1817  -13.0417   20.9171 C   0  0  0  0  0  0
  -24.6356  -11.6879   20.8734 C   0  0  0  0  0  0
  -23.9019  -10.4275   21.0405 C   0  0  0  0  0  0
  -24.3580   -9.4190   21.9183 C   0  0  0  0  0  0
  -23.6268   -8.2227   22.0749 C   0  0  0  0  0  0
  -22.4254   -8.0264   21.3534 C   0  0  0  0  0  0
  -21.9876   -9.0230   20.4646 C   0  0  0  0  0  0
  -22.7189  -10.2113   20.3054 C   0  0  0  0  0  0
  -21.6849   -6.0718   22.5268 C   0  0  0  0  0  0
  -21.4013   -6.5626   23.8201 C   0  0  0  0  0  0
  -21.3656   -5.6787   24.9168 C   0  0  0  0  0  0
  -21.6049   -4.3049   24.7222 C   0  0  0  0  0  0
  -21.8821   -3.8129   23.4348 C   0  0  0  0  0  0
  -21.9189   -4.6946   22.3397 C   0  0  0  0  0  0
  -22.7853  -13.5240   21.1835 C   0  0  0  0  0  0
  -22.1661   -4.2130   21.0976 F   0  0  0  0  0  0
  -21.5625   -3.4535   25.7736 F   0  0  0  0  0  0
  -30.0378  -13.2526   20.4424 N   0  0  0  0  0  0
  -26.2995  -12.9259   20.3344 N   0  0  0  0  0  0
  -25.9270  -11.6429   20.5742 N   0  0  0  0  0  0
  -22.0489  -12.8241   22.0401 N   0  0  0  0  0  0
  -25.4333  -15.1842   20.4044 N   0  0  0  0  0  0
  -31.8248  -14.6344   20.1041 O   0  0  0  0  0  0
  -21.6625   -6.8853   21.4229 O   0  0  0  0  0  0
  -22.3544  -14.5542   20.6679 O   0  0  0  0  0  0
  -24.6097  -31.8664   23.2092 C   0  0  0  0  0  0
  -25.8996  -32.4816   23.8372 C   0  0  1  0  0  0
  -27.2547  -27.4533   20.0973 C   0  0  0  0  0  0
  -25.5887  -33.8624   24.2297 N   0  0  0  0  0  0
  -23.3972  -30.4836   21.5489 C   0  0  2  0  0  0
  -24.8458  -28.9413   20.1187 C   0  0  0  0  0  0
  -22.7377  -29.4627   22.5012 C   0  0  0  0  0  0
  -18.0250  -28.1376   22.8479 C   0  0  0  0  0  0
  -24.1493  -36.7324   23.2628 C   0  0  0  0  0  0
  -25.9191  -30.8378   21.3556 C   0  0  0  0  0  0
  -25.9994  -29.4689   20.7111 C   0  0  0  0  0  0
  -27.2003  -28.7328   20.6928 C   0  0  0  0  0  0
  -26.0809  -26.9270   19.5087 C   0  0  0  0  0  0
  -24.8818  -27.6692   19.5170 C   0  0  0  0  0  0
  -23.6033  -29.8006   20.1672 C   0  0  0  0  0  0
  -25.4120  -36.3121   24.0335 C   0  0  1  0  0  0
  -20.5831  -28.3647   23.1338 C   0  0  2  0  0  0
  -20.6725  -26.9376   22.5435 C   0  0  0  0  0  0
  -19.5725  -26.6359   21.5208 C   0  0  0  0  0  0
  -18.1897  -26.7913   22.1611 C   0  0  0  0  0  0
  -19.1495  -28.8826   23.2897 C   0  0  0  0  0  0
  -18.9436  -30.1436   23.8898 C   0  0  0  0  0  0
  -17.6447  -30.6573   24.0581 C   0  0  0  0  0  0
  -25.9045  -34.9485   23.5106 C   0  0  0  0  0  0
  -16.5332  -29.9097   23.6328 C   0  0  0  0  0  0
  -16.7244  -28.6526   23.0321 C   0  0  0  0  0  0
  -26.4432  -31.6598   25.0705 C   0  0  0  0  0  0
  -25.3712  -31.3735   26.1465 C   0  0  0  0  0  0
  -27.0225  -30.3040   24.6061 C   0  0  0  0  0  0
  -27.6007  -32.4308   25.7478 C   0  0  0  0  0  0
  -27.5584  -37.1805   24.8456 C   0  0  0  0  0  0
  -21.4104  -29.3021   22.3761 N   0  0  0  0  0  0
  -26.4300  -37.3809   23.9419 N   0  0  0  0  0  0
  -24.6604  -31.0772   22.0977 N   0  0  0  0  0  0
  -23.4164  -28.8146   23.3016 O   0  0  0  0  0  0
  -28.4836  -26.8331   20.0671 O   0  0  0  0  0  0
  -26.5597  -34.8947   22.4663 O   0  0  0  0  0  0
  -23.5298  -32.1370   23.7517 O   0  0  0  0  0  0
  -30.7167  -17.9977   19.7987 C   0  0  0  0  0  0
  -31.2284  -19.2993   19.6511 C   0  0  0  0  0  0
  -29.6598  -18.6597   21.8898 C   0  0  0  0  0  0
  -29.9074  -17.6819   20.9079 C   0  0  0  0  0  0
  -30.9433  -20.2981   20.6115 C   0  0  0  0  0  0
  -30.1769  -19.9683   21.7634 C   0  0  0  0  0  0
  -30.9240  -15.6023   22.7565 C   0  0  0  0  0  0
  -29.8359  -22.1422   18.5182 C   0  0  0  0  0  0
  -29.2841  -16.2998   21.0390 C   0  0  0  0  0  0
  -31.4472  -21.7199   20.3603 C   0  0  0  0  0  0
  -29.8876  -25.1039   19.2331 C   0  0  0  0  0  0
  -30.8711  -24.0354   19.7785 C   0  0  0  0  0  0
  -28.6276  -25.4111   20.0736 C   0  0  0  0  0  0
  -29.8810  -21.0045   22.8497 C   0  0  0  0  0  0
  -30.1985  -15.2610   21.5322 N   0  0  0  0  0  0
  -30.3940  -22.6241   19.8088 N   0  3  1  0  0  0
  -29.0508  -20.5356   23.7811 F   0  0  0  0  0  0
  -31.0129  -21.3696   23.4494 F   0  0  0  0  0  0
  -29.3153  -22.0821   22.3010 F   0  0  0  0  0  0
  -31.4597  -12.4069   19.0831 H   0  0  0  0  0  0
  -30.3220  -11.2790   19.7629 H   0  0  0  0  0  0
  -29.7209  -11.8239   17.3868 H   0  0  0  0  0  0
  -29.6396  -13.5234   17.7767 H   0  0  0  0  0  0
  -27.8249  -11.3074   18.7929 H   0  0  0  0  0  0
  -27.3483  -12.6452   17.7817 H   0  0  0  0  0  0
  -27.6992  -14.2388   19.5807 H   0  0  0  0  0  0
  -28.6715  -11.9015   21.2972 H   0  0  0  0  0  0
  -28.4511  -13.5184   21.8797 H   0  0  0  0  0  0
  -25.2729   -9.5676   22.4748 H   0  0  0  0  0  0
  -23.9980   -7.4617   22.7463 H   0  0  0  0  0  0
  -21.0803   -8.8740   19.8955 H   0  0  0  0  0  0
  -22.3644  -10.9648   19.6156 H   0  0  0  0  0  0
  -21.2013   -7.6140   23.9697 H   0  0  0  0  0  0
  -21.1480   -6.0520   25.9071 H   0  0  0  0  0  0
  -22.0607   -2.7594   23.2846 H   0  0  0  0  0  0
  -22.4104  -11.9906   22.4800 H   0  0  0  0  0  0
  -21.1109  -13.1264   22.2609 H   0  0  0  0  0  0
  -24.6657  -15.8402   20.5011 H   0  0  0  0  0  0
  -26.2839  -15.6168   20.0704 H   0  0  0  0  0  0
  -26.7054  -32.5544   23.1130 H   0  0  0  0  0  0
  -25.0134  -33.9805   25.0493 H   0  0  0  0  0  0
  -22.6837  -31.2968   21.4024 H   0  0  0  0  0  0
  -23.3769  -35.9648   23.3317 H   0  0  0  0  0  0
  -24.3599  -36.8899   22.2037 H   0  0  0  0  0  0
  -23.7217  -37.6528   23.6632 H   0  0  0  0  0  0
  -26.0186  -31.5994   20.5800 H   0  0  0  0  0  0
  -26.8122  -30.9016   21.9659 H   0  0  0  0  0  0
  -28.0946  -29.1446   21.1384 H   0  0  0  0  0  0
  -26.0810  -25.9642   19.0187 H   0  0  0  0  0  0
  -23.9969  -27.2582   19.0492 H   0  0  0  0  0  0
  -23.6982  -30.5671   19.3979 H   0  0  0  0  0  0
  -22.7330  -29.2059   19.8836 H   0  0  0  0  0  0
  -25.1282  -36.1987   25.0821 H   0  0  0  0  0  0
  -20.9920  -28.3190   24.1462 H   0  0  0  0  0  0
  -20.5579  -26.2252   23.3623 H   0  0  0  0  0  0
  -21.6607  -26.7375   22.1257 H   0  0  0  0  0  0
  -19.6922  -25.6274   21.1226 H   0  0  0  0  0  0
  -19.6711  -27.3181   20.6757 H   0  0  0  0  0  0
  -17.4174  -26.6649   21.4006 H   0  0  0  0  0  0
  -18.0314  -26.0032   22.8990 H   0  0  0  0  0  0
  -19.7922  -30.7232   24.2248 H   0  0  0  0  0  0
  -17.5023  -31.6249   24.5196 H   0  0  0  0  0  0
  -15.5346  -30.3026   23.7644 H   0  0  0  0  0  0
  -15.8628  -28.0879   22.7015 H   0  0  0  0  0  0
  -24.5962  -30.6956   25.7857 H   0  0  0  0  0  0
  -24.8822  -32.2890   26.4806 H   0  0  0  0  0  0
  -25.8093  -30.9040   27.0278 H   0  0  0  0  0  0
  -26.2742  -29.6874   24.1056 H   0  0  0  0  0  0
  -27.3910  -29.7205   25.4511 H   0  0  0  0  0  0
  -27.8633  -30.4373   23.9247 H   0  0  0  0  0  0
  -27.2635  -33.3642   26.2010 H   0  0  0  0  0  0
  -28.3847  -32.6777   25.0306 H   0  0  0  0  0  0
  -28.0632  -31.8442   26.5423 H   0  0  0  0  0  0
  -28.2578  -38.0125   24.7522 H   0  0  0  0  0  0
  -28.1081  -36.2648   24.6231 H   0  0  0  0  0  0
  -27.2305  -37.1368   25.8855 H   0  0  0  0  0  0
  -20.9240  -29.8788   21.7039 H   0  0  0  0  0  0
  -26.0184  -38.2882   24.1453 H   0  0  0  0  0  0
  -30.9352  -17.2539   19.0448 H   0  0  0  0  0  0
  -31.8238  -19.5273   18.7786 H   0  0  0  0  0  0
  -29.0551  -18.4007   22.7465 H   0  0  0  0  0  0
  -30.2834  -16.1515   23.4477 H   0  0  0  0  0  0
  -31.7977  -16.2184   22.5370 H   0  0  0  0  0  0
  -31.2618  -14.7009   23.2698 H   0  0  0  0  0  0
  -29.3764  -21.1595   18.6261 H   0  0  0  0  0  0
  -30.6107  -22.0688   17.7532 H   0  0  0  0  0  0
  -29.0469  -22.7914   18.1424 H   0  0  0  0  0  0
  -28.8902  -16.0352   20.0565 H   0  0  0  0  0  0
  -28.4129  -16.3457   21.6958 H   0  0  0  0  0  0
  -32.2972  -21.6852   19.6736 H   0  0  0  0  0  0
  -31.8557  -22.1317   21.2828 H   0  0  0  0  0  0
  -29.6157  -24.9190   18.1949 H   0  0  0  0  0  0
  -30.4768  -26.0203   19.1834 H   0  0  0  0  0  0
  -31.1830  -24.3271   20.7845 H   0  0  0  0  0  0
  -31.7748  -24.0685   19.1676 H   0  0  0  0  0  0
  -28.7728  -25.1020   21.1094 H   0  0  0  0  0  0
  -27.7703  -24.8564   19.6951 H   0  0  0  0  0  0
  -29.6406  -22.5922   20.4832 H   0  0  0  0  0  0
  1 25  1  0  0  0
  1 30  2  0  0  0
  1 85  1  0  0  0
  2  3  1  0  0  0
  2 25  1  0  0  0
  2 90  1  0  0  0
  2 91  1  0  0  0
  3  4  1  0  0  0
  3 92  1  0  0  0
  3 93  1  0  0  0
  4  5  1  0  0  0
  4 94  1  0  0  0
  4 95  1  0  0  0
  5  6  1  0  0  0
  5 26  1  0  0  0
  5 96  1  0  0  0
  6 25  1  0  0  0
  6 97  1  0  0  0
  6 98  1  0  0  0
  7  8  2  0  0  0
  7 26  1  0  0  0
  7 29  1  0  0  0
  8  9  1  0  0  0
  8 22  1  0  0  0
  9 10  1  0  0  0
  9 27  2  0  0  0
 10 11  2  0  0  0
 10 15  1  0  0  0
 11 12  1  0  0  0
 11 99  1  0  0  0
 12 13  2  0  0  0
 12100  1  0  0  0
 13 14  1  0  0  0
 13 31  1  0  0  0
 14 15  2  0  0  0
 14101  1  0  0  0
 15102  1  0  0  0
 16 17  2  0  0  0
 16 21  1  0  0  0
 16 31  1  0  0  0
 17 18  1  0  0  0
 17103  1  0  0  0
 18 19  2  0  0  0
 18104  1  0  0  0
 19 20  1  0  0  0
 19 24  1  0  0  0
 20 21  2  0  0  0
 20105  1  0  0  0
 21 23  1  0  0  0
 22 28  1  0  0  0
 22 32  2  0  0  0
 26 27  1  0  0  0
 28106  1  0  0  0
 28107  1  0  0  0
 29108  1  0  0  0
 29109  1  0  0  0
 33 34  1  0  0  0
 33 66  1  0  0  0
 33 70  2  0  0  0
 34 36  1  0  0  0
 34 59  1  0  0  0
 34110  1  0  0  0
 35 44  2  0  0  0
 35 45  1  0  0  0
 35 68  1  0  0  0
 36 56  1  0  0  0
 36111  1  0  0  0
 37 39  1  0  0  0
 37 47  1  0  0  0
 37 66  1  0  0  0
 37112  1  0  0  0
 38 43  2  0  0  0
 38 46  1  0  0  0
 38 47  1  0  0  0
 39 64  1  0  0  0
 39 67  2  0  0  0
 40 52  1  0  0  0
 40 53  2  0  0  0
 40 58  1  0  0  0
 41113  1  0  0  0
 41114  1  0  0  0
 41115  1  0  0  0
 41 48  1  0  0  0
 42 43  1  0  0  0
 42 66  1  0  0  0
 42116  1  0  0  0
 42117  1  0  0  0
 43 44  1  0  0  0
 44118  1  0  0  0
 45 46  2  0  0  0
 45119  1  0  0  0
 46120  1  0  0  0
 47121  1  0  0  0
 47122  1  0  0  0
 48 56  1  0  0  0
 48 65  1  0  0  0
 48123  1  0  0  0
 49 50  1  0  0  0
 49 53  1  0  0  0
 49 64  1  0  0  0
 49124  1  0  0  0
 50 51  1  0  0  0
 50125  1  0  0  0
 50126  1  0  0  0
 51 52  1  0  0  0
 51127  1  0  0  0
 51128  1  0  0  0
 52129  1  0  0  0
 52130  1  0  0  0
 53 54  1  0  0  0
 54 55  2  0  0  0
 54131  1  0  0  0
 55 57  1  0  0  0
 55132  1  0  0  0
 56 69  2  0  0  0
 57 58  2  0  0  0
 57133  1  0  0  0
 58134  1  0  0  0
 59 60  1  0  0  0
 59 61  1  0  0  0
 59 62  1  0  0  0
 60135  1  0  0  0
 60136  1  0  0  0
 60137  1  0  0  0
 61138  1  0  0  0
 61139  1  0  0  0
 61140  1  0  0  0
 62141  1  0  0  0
 62142  1  0  0  0
 62143  1  0  0  0
 63 65  1  0  0  0
 63144  1  0  0  0
 63145  1  0  0  0
 63146  1  0  0  0
 64147  1  0  0  0
 65148  1  0  0  0
 68 83  1  0  0  0
 71 72  2  0  0  0
 71 74  1  0  0  0
 71149  1  0  0  0
 72 75  1  0  0  0
 72150  1  0  0  0
 73 74  2  0  0  0
 73 76  1  0  0  0
 73151  1  0  0  0
 74 79  1  0  0  0
 75 76  2  0  0  0
 75 80  1  0  0  0
 76 84  1  0  0  0
 77 85  1  0  0  0
 77152  1  0  0  0
 77153  1  0  0  0
 77154  1  0  0  0
 78155  1  0  0  0
 78156  1  0  0  0
 78157  1  0  0  0
 78 86  1  0  0  0
 79 85  1  0  0  0
 79158  1  0  0  0
 79159  1  0  0  0
 80 86  1  0  0  0
 80160  1  0  0  0
 80161  1  0  0  0
 81 82  1  0  0  0
 81 83  1  0  0  0
 81162  1  0  0  0
 81163  1  0  0  0
 82 86  1  0  0  0
 82164  1  0  0  0
 82165  1  0  0  0
 83166  1  0  0  0
 83167  1  0  0  0
 84 87  1  0  0  0
 84 88  1  0  0  0
 84 89  1  0  0  0
 86168  1  0  0  0
M  CHG  1  86   1
M  ISO  4   1 100  68 101  83 101  85 100
M  END
> <chiral flag>
0

> <version>
0

> <s_m_source_file>
/data/baiqing/PycharmProjects/Reinvent-master-3.2/result/LINK_invent/BTK/process_docking_weight1_custom_product_contain_oxygen_bond_distance_aromatic_linkinvent_7_9_3/rearranged_h_0019.sdf

> <i_m_source_file_index>
38

> <r_mmod_Potential_Energy-OPLS-2005>
-36.4681091308594

> <r_mmod_Stretch_Energy-OPLS-2005>
36.7360420227051

> <r_mmod_Bend_Energy-OPLS-2005>
112.511650085449

> <r_mmod_Torsional_Energy-OPLS-2005>
287.185180664062

> <r_mmod_Improper_Torsional_Energy-OPLS-2005>
3.92738938331604

> <r_mmod_Van_der_Waal_Energy-OPLS-2005>
157.429763793945

> <r_mmod_Electrostatic_Energy-OPLS-2005>
-222.556167602539

> <r_mmod_Solvation_Energy-OPLS-2005>
-421.371520996094

> <b_mmod_Minimization_Converged-OPLS-2005>
0

> <r_mmod_RMS_Derivative-OPLS-2005>
3.05984044075012

$$$$
38
                    3D
 Structure written by MMmdl.
165173  0  0  1  0            999 V2000
  -30.7359  -14.4885   20.5781 C   0  0  0  0  0  0
  -30.4146  -12.3282   19.4193 C   0  0  0  0  0  0
  -29.4855  -12.5024   18.2027 C   0  0  0  0  0  0
  -28.0116  -12.3412   18.6216 C   0  0  0  0  0  0
  -27.6500  -13.1976   19.8625 C   0  0  2  0  0  0
  -28.6989  -13.0321   20.9869 C   0  0  0  0  0  0
  -25.2558  -13.8120   20.5677 C   0  0  0  0  0  0
  -24.1814  -13.0413   20.9198 C   0  0  0  0  0  0
  -24.6364  -11.6879   20.8760 C   0  0  0  0  0  0
  -23.9036  -10.4274   21.0422 C   0  0  0  0  0  0
  -24.3596   -9.4191   21.9195 C   0  0  0  0  0  0
  -23.6275   -8.2226   22.0756 C   0  0  0  0  0  0
  -22.4260   -8.0266   21.3541 C   0  0  0  0  0  0
  -21.9892   -9.0239   20.4645 C   0  0  0  0  0  0
  -22.7216  -10.2120   20.3061 C   0  0  0  0  0  0
  -21.6846   -6.0726   22.5279 C   0  0  0  0  0  0
  -21.4008   -6.5633   23.8212 C   0  0  0  0  0  0
  -21.3655   -5.6789   24.9175 C   0  0  0  0  0  0
  -21.6042   -4.3051   24.7226 C   0  0  0  0  0  0
  -21.8820   -3.8141   23.4349 C   0  0  0  0  0  0
  -21.9191   -4.6956   22.3403 C   0  0  0  0  0  0
  -22.7843  -13.5226   21.1854 C   0  0  0  0  0  0
  -22.1661   -4.2142   21.0980 F   0  0  0  0  0  0
  -21.5632   -3.4536   25.7741 F   0  0  0  0  0  0
  -30.0257  -13.3326   20.4242 N   0  0  0  0  0  0
  -26.2968  -12.9263   20.3337 N   0  0  0  0  0  0
  -25.9283  -11.6441   20.5780 N   0  0  0  0  0  0
  -22.0476  -12.8224   22.0408 N   0  0  0  0  0  0
  -25.4261  -15.1837   20.4046 N   0  0  0  0  0  0
  -31.8713  -14.6235   20.1133 O   0  0  0  0  0  0
  -21.6627   -6.8864   21.4238 O   0  0  0  0  0  0
  -22.3537  -14.5538   20.6708 O   0  0  0  0  0  0
  -24.6152  -31.8673   23.2082 C   0  0  0  0  0  0
  -25.9043  -32.4822   23.8383 C   0  0  1  0  0  0
  -27.2327  -27.4257   20.1025 C   0  0  0  0  0  0
  -25.5899  -33.8620   24.2318 N   0  0  0  0  0  0
  -23.4032  -30.4904   21.5493 C   0  0  2  0  0  0
  -24.8492  -28.9544   20.1144 C   0  0  0  0  0  0
  -22.7415  -29.4655   22.4985 C   0  0  0  0  0  0
  -18.0270  -28.1370   22.8495 C   0  0  0  0  0  0
  -24.1485  -36.7307   23.2638 C   0  0  0  0  0  0
  -25.9320  -30.8332   21.3592 C   0  0  0  0  0  0
  -26.0102  -29.4665   20.7068 C   0  0  0  0  0  0
  -27.2064  -28.7127   20.6902 C   0  0  0  0  0  0
  -26.0534  -26.9295   19.5032 C   0  0  0  0  0  0
  -24.8667  -27.6869   19.5076 C   0  0  0  0  0  0
  -23.6112  -29.8217   20.1639 C   0  0  0  0  0  0
  -25.4107  -36.3110   24.0335 C   0  0  1  0  0  0
  -20.5863  -28.3659   23.1315 C   0  0  2  0  0  0
  -20.6765  -26.9395   22.5415 C   0  0  0  0  0  0
  -19.5743  -26.6381   21.5213 C   0  0  0  0  0  0
  -18.1918  -26.7918   22.1622 C   0  0  0  0  0  0
  -19.1520  -28.8829   23.2907 C   0  0  0  0  0  0
  -18.9453  -30.1439   23.8916 C   0  0  0  0  0  0
  -17.6455  -30.6580   24.0567 C   0  0  0  0  0  0
  -25.9038  -34.9478   23.5126 C   0  0  0  0  0  0
  -16.5345  -29.9084   23.6329 C   0  0  0  0  0  0
  -16.7259  -28.6501   23.0347 C   0  0  0  0  0  0
  -26.4468  -31.6600   25.0711 C   0  0  0  0  0  0
  -25.3740  -31.3689   26.1464 C   0  0  0  0  0  0
  -27.0300  -30.3049   24.6070 C   0  0  0  0  0  0
  -27.6046  -32.4315   25.7477 C   0  0  0  0  0  0
  -27.5581  -37.1805   24.8465 C   0  0  0  0  0  0
  -21.4140  -29.3034   22.3730 N   0  0  0  0  0  0
  -26.4288  -37.3799   23.9416 N   0  0  0  0  0  0
  -24.6687  -31.0777   22.0977 N   0  0  0  0  0  0
  -23.4191  -28.8192   23.3017 O   0  0  0  0  0  0
  -28.4014  -26.6898   20.1117 O   0  0  0  0  0  0
  -26.5603  -34.8933   22.4691 O   0  0  0  0  0  0
  -23.5346  -32.1419   23.7483 O   0  0  0  0  0  0
  -30.1041  -19.8680   19.4685 C   0  0  0  0  0  0
  -28.6922  -20.1023   21.4251 C   0  0  0  0  0  0
  -29.4247  -20.7067   20.3811 C   0  0  0  0  0  0
  -30.0337  -18.4569   19.5688 C   0  0  0  0  0  0
  -29.2759  -17.8517   20.6080 C   0  0  0  0  0  0
  -28.6179  -18.6958   21.5371 C   0  0  0  0  0  0
  -30.7708  -17.6212   18.5350 C   0  0  0  0  0  0
  -30.9679  -16.1766   22.3065 C   0  0  0  0  0  0
  -27.9593  -22.1743   18.3019 C   0  0  0  0  0  0
  -29.0819  -16.3209   20.6978 C   0  0  0  0  0  0
  -29.5092  -22.2399   20.2475 C   0  0  0  0  0  0
  -28.5661  -24.3581   19.2642 C   0  0  0  0  0  0
  -28.3024  -25.2947   20.4698 C   0  0  0  0  0  0
  -30.1655  -15.4974   21.2859 N   0  0  0  0  0  0
  -28.3624  -22.8937   19.5384 N   0  3  1  0  0  0
  -27.8900  -18.1567   22.5441 F   0  0  0  0  0  0
  -31.4580  -12.4183   19.1112 H   0  0  0  0  0  0
  -30.3172  -11.3251   19.8373 H   0  0  0  0  0  0
  -29.7358  -11.7747   17.4298 H   0  0  0  0  0  0
  -29.6376  -13.4868   17.7569 H   0  0  0  0  0  0
  -27.8411  -11.2860   18.8379 H   0  0  0  0  0  0
  -27.3538  -12.5897   17.7879 H   0  0  0  0  0  0
  -27.6613  -14.2274   19.5210 H   0  0  0  0  0  0
  -28.6883  -12.0102   21.3688 H   0  0  0  0  0  0
  -28.4549  -13.6660   21.8403 H   0  0  0  0  0  0
  -25.2742   -9.5667   22.4769 H   0  0  0  0  0  0
  -23.9984   -7.4615   22.7471 H   0  0  0  0  0  0
  -21.0827   -8.8755   19.8948 H   0  0  0  0  0  0
  -22.3681  -10.9660   19.6168 H   0  0  0  0  0  0
  -21.1998   -7.6141   23.9713 H   0  0  0  0  0  0
  -21.1478   -6.0520   25.9078 H   0  0  0  0  0  0
  -22.0604   -2.7605   23.2853 H   0  0  0  0  0  0
  -22.4077  -11.9878   22.4792 H   0  0  0  0  0  0
  -21.1095  -13.1255   22.2611 H   0  0  0  0  0  0
  -24.6571  -15.8350   20.5163 H   0  0  0  0  0  0
  -26.2693  -15.6250   20.0639 H   0  0  0  0  0  0
  -26.7112  -32.5535   23.1148 H   0  0  0  0  0  0
  -25.0072  -33.9786   25.0478 H   0  0  0  0  0  0
  -22.6923  -31.3073   21.4095 H   0  0  0  0  0  0
  -23.3754  -35.9635   23.3304 H   0  0  0  0  0  0
  -24.3586  -36.8919   22.2054 H   0  0  0  0  0  0
  -23.7230  -37.6508   23.6651 H   0  0  0  0  0  0
  -26.0428  -31.5987   20.5898 H   0  0  0  0  0  0
  -26.8201  -30.8879   21.9770 H   0  0  0  0  0  0
  -28.1048  -29.1070   21.1449 H   0  0  0  0  0  0
  -26.0392  -25.9614   19.0248 H   0  0  0  0  0  0
  -23.9746  -27.2888   19.0436 H   0  0  0  0  0  0
  -23.7182  -30.5960   19.4031 H   0  0  0  0  0  0
  -22.7350  -29.2412   19.8695 H   0  0  0  0  0  0
  -25.1282  -36.1970   25.0826 H   0  0  0  0  0  0
  -20.9956  -28.3216   24.1435 H   0  0  0  0  0  0
  -20.5668  -26.2263   23.3600 H   0  0  0  0  0  0
  -21.6635  -26.7437   22.1208 H   0  0  0  0  0  0
  -19.6909  -25.6300   21.1227 H   0  0  0  0  0  0
  -19.6682  -27.3211   20.6759 H   0  0  0  0  0  0
  -17.4192  -26.6670   21.4022 H   0  0  0  0  0  0
  -18.0317  -26.0048   22.9004 H   0  0  0  0  0  0
  -19.7929  -30.7250   24.2293 H   0  0  0  0  0  0
  -17.5010  -31.6269   24.5155 H   0  0  0  0  0  0
  -15.5350  -30.2995   23.7642 H   0  0  0  0  0  0
  -15.8654  -28.0831   22.7049 H   0  0  0  0  0  0
  -24.5919  -30.7029   25.7799 H   0  0  0  0  0  0
  -24.8928  -32.2837   26.4933 H   0  0  0  0  0  0
  -25.8103  -30.8848   27.0211 H   0  0  0  0  0  0
  -26.2839  -29.6813   24.1132 H   0  0  0  0  0  0
  -27.4097  -29.7277   25.4511 H   0  0  0  0  0  0
  -27.8656  -30.4386   23.9195 H   0  0  0  0  0  0
  -27.2669  -33.3611   26.2072 H   0  0  0  0  0  0
  -28.3848  -32.6880   25.0297 H   0  0  0  0  0  0
  -28.0717  -31.8425   26.5381 H   0  0  0  0  0  0
  -28.2586  -38.0117   24.7542 H   0  0  0  0  0  0
  -28.1086  -36.2651   24.6247 H   0  0  0  0  0  0
  -27.2305  -37.1402   25.8869 H   0  0  0  0  0  0
  -20.9294  -29.8767   21.6968 H   0  0  0  0  0  0
  -26.0171  -38.2870   24.1443 H   0  0  0  0  0  0
  -30.6813  -20.3164   18.6705 H   0  0  0  0  0  0
  -28.1746  -20.7135   22.1504 H   0  0  0  0  0  0
  -31.2154  -18.2478   17.7613 H   0  0  0  0  0  0
  -30.1015  -16.9213   18.0352 H   0  0  0  0  0  0
  -31.5778  -17.0603   19.0047 H   0  0  0  0  0  0
  -30.3305  -16.7104   23.0119 H   0  0  0  0  0  0
  -31.6535  -16.8923   21.8500 H   0  0  0  0  0  0
  -31.5607  -15.4631   22.8818 H   0  0  0  0  0  0
  -27.6399  -21.1529   18.5100 H   0  0  0  0  0  0
  -28.7796  -22.1359   17.5844 H   0  0  0  0  0  0
  -27.1128  -22.6630   17.8183 H   0  0  0  0  0  0
  -28.8660  -15.9843   19.6851 H   0  0  0  0  0  0
  -28.1742  -16.1120   21.2641 H   0  0  0  0  0  0
  -30.4359  -22.4826   19.7248 H   0  0  0  0  0  0
  -29.6100  -22.6713   21.2443 H   0  0  0  0  0  0
  -29.5693  -24.5284   18.8714 H   0  0  0  0  0  0
  -27.8893  -24.6700   18.4691 H   0  0  0  0  0  0
  -29.0481  -25.1067   21.2426 H   0  0  0  0  0  0
  -27.3400  -25.0666   20.9319 H   0  0  0  0  0  0
  -27.5663  -22.8120   20.1545 H   0  0  0  0  0  0
  1 25  1  0  0  0
  1 30  2  0  0  0
  1 84  1  0  0  0
  2  3  1  0  0  0
  2 25  1  0  0  0
  2 87  1  0  0  0
  2 88  1  0  0  0
  3  4  1  0  0  0
  3 89  1  0  0  0
  3 90  1  0  0  0
  4  5  1  0  0  0
  4 91  1  0  0  0
  4 92  1  0  0  0
  5  6  1  0  0  0
  5 26  1  0  0  0
  5 93  1  0  0  0
  6 25  1  0  0  0
  6 94  1  0  0  0
  6 95  1  0  0  0
  7  8  2  0  0  0
  7 26  1  0  0  0
  7 29  1  0  0  0
  8  9  1  0  0  0
  8 22  1  0  0  0
  9 10  1  0  0  0
  9 27  2  0  0  0
 10 11  2  0  0  0
 10 15  1  0  0  0
 11 12  1  0  0  0
 11 96  1  0  0  0
 12 13  2  0  0  0
 12 97  1  0  0  0
 13 14  1  0  0  0
 13 31  1  0  0  0
 14 15  2  0  0  0
 14 98  1  0  0  0
 15 99  1  0  0  0
 16 17  2  0  0  0
 16 21  1  0  0  0
 16 31  1  0  0  0
 17 18  1  0  0  0
 17100  1  0  0  0
 18 19  2  0  0  0
 18101  1  0  0  0
 19 20  1  0  0  0
 19 24  1  0  0  0
 20 21  2  0  0  0
 20102  1  0  0  0
 21 23  1  0  0  0
 22 28  1  0  0  0
 22 32  2  0  0  0
 26 27  1  0  0  0
 28103  1  0  0  0
 28104  1  0  0  0
 29105  1  0  0  0
 29106  1  0  0  0
 33 34  1  0  0  0
 33 66  1  0  0  0
 33 70  2  0  0  0
 34 36  1  0  0  0
 34 59  1  0  0  0
 34107  1  0  0  0
 35 44  2  0  0  0
 35 45  1  0  0  0
 35 68  1  0  0  0
 36 56  1  0  0  0
 36108  1  0  0  0
 37 39  1  0  0  0
 37 47  1  0  0  0
 37 66  1  0  0  0
 37109  1  0  0  0
 38 43  2  0  0  0
 38 46  1  0  0  0
 38 47  1  0  0  0
 39 64  1  0  0  0
 39 67  2  0  0  0
 40 52  1  0  0  0
 40 53  2  0  0  0
 40 58  1  0  0  0
 41110  1  0  0  0
 41111  1  0  0  0
 41112  1  0  0  0
 41 48  1  0  0  0
 42 43  1  0  0  0
 42 66  1  0  0  0
 42113  1  0  0  0
 42114  1  0  0  0
 43 44  1  0  0  0
 44115  1  0  0  0
 45 46  2  0  0  0
 45116  1  0  0  0
 46117  1  0  0  0
 47118  1  0  0  0
 47119  1  0  0  0
 48 56  1  0  0  0
 48 65  1  0  0  0
 48120  1  0  0  0
 49 50  1  0  0  0
 49 53  1  0  0  0
 49 64  1  0  0  0
 49121  1  0  0  0
 50 51  1  0  0  0
 50122  1  0  0  0
 50123  1  0  0  0
 51 52  1  0  0  0
 51124  1  0  0  0
 51125  1  0  0  0
 52126  1  0  0  0
 52127  1  0  0  0
 53 54  1  0  0  0
 54 55  2  0  0  0
 54128  1  0  0  0
 55 57  1  0  0  0
 55129  1  0  0  0
 56 69  2  0  0  0
 57 58  2  0  0  0
 57130  1  0  0  0
 58131  1  0  0  0
 59 60  1  0  0  0
 59 61  1  0  0  0
 59 62  1  0  0  0
 60132  1  0  0  0
 60133  1  0  0  0
 60134  1  0  0  0
 61135  1  0  0  0
 61136  1  0  0  0
 61137  1  0  0  0
 62138  1  0  0  0
 62139  1  0  0  0
 62140  1  0  0  0
 63 65  1  0  0  0
 63141  1  0  0  0
 63142  1  0  0  0
 63143  1  0  0  0
 64144  1  0  0  0
 65145  1  0  0  0
 68 83  1  0  0  0
 71 73  2  0  0  0
 71 74  1  0  0  0
 71146  1  0  0  0
 72 73  1  0  0  0
 72 76  2  0  0  0
 72147  1  0  0  0
 73 81  1  0  0  0
 74 75  2  0  0  0
 74 77  1  0  0  0
 75 76  1  0  0  0
 75 80  1  0  0  0
 76 86  1  0  0  0
 77148  1  0  0  0
 77149  1  0  0  0
 77150  1  0  0  0
 78 84  1  0  0  0
 78151  1  0  0  0
 78152  1  0  0  0
 78153  1  0  0  0
 79154  1  0  0  0
 79155  1  0  0  0
 79156  1  0  0  0
 79 85  1  0  0  0
 80 84  1  0  0  0
 80157  1  0  0  0
 80158  1  0  0  0
 81 85  1  0  0  0
 81159  1  0  0  0
 81160  1  0  0  0
 82 83  1  0  0  0
 82 85  1  0  0  0
 82161  1  0  0  0
 82162  1  0  0  0
 83163  1  0  0  0
 83164  1  0  0  0
 85165  1  0  0  0
M  CHG  1  85   1
M  ISO  4   1 100  68 101  83 101  84 100
M  END
> <chiral flag>
0

> <version>
0

> <s_m_source_file>
/data/baiqing/PycharmProjects/Reinvent-master-3.2/result/LINK_invent/BTK/process_docking_weight1_custom_product_contain_oxygen_bond_distance_aromatic_linkinvent_7_9_3/rearranged_h_0019.sdf

> <i_m_source_file_index>
39

> <r_mmod_Potential_Energy-OPLS-2005>
-20.8438968658447

> <r_mmod_Stretch_Energy-OPLS-2005>
44.4609413146973

> <r_mmod_Bend_Energy-OPLS-2005>
103.41983795166

> <r_mmod_Torsional_Energy-OPLS-2005>
274.961853027344

> <r_mmod_Improper_Torsional_Energy-OPLS-2005>
3.75877642631531

> <r_mmod_Van_der_Waal_Energy-OPLS-2005>
149.167251586914

> <r_mmod_Electrostatic_Energy-OPLS-2005>
-192.756973266602

> <r_mmod_Solvation_Energy-OPLS-2005>
-419.790893554688

> <b_mmod_Minimization_Converged-OPLS-2005>
0

> <r_mmod_RMS_Derivative-OPLS-2005>
0.733274519443512

$$$$
39
                    3D
 Structure written by MMmdl.
170178  0  0  1  0            999 V2000
  -30.6511  -14.7430   20.4799 C   0  0  0  0  0  0
  -30.4213  -12.4679   19.4573 C   0  0  0  0  0  0
  -29.4983  -12.5007   18.2232 C   0  0  0  0  0  0
  -28.0284  -12.3230   18.6468 C   0  0  0  0  0  0
  -27.6328  -13.2377   19.8374 C   0  0  2  0  0  0
  -28.6822  -13.2055   20.9689 C   0  0  0  0  0  0
  -25.2486  -13.8227   20.5712 C   0  0  0  0  0  0
  -24.1790  -13.0462   20.9244 C   0  0  0  0  0  0
  -24.6387  -11.6947   20.8778 C   0  0  0  0  0  0
  -23.9074  -10.4316   21.0420 C   0  0  0  0  0  0
  -24.3629   -9.4221   21.9199 C   0  0  0  0  0  0
  -23.6312   -8.2252   22.0754 C   0  0  0  0  0  0
  -22.4287   -8.0291   21.3549 C   0  0  0  0  0  0
  -21.9933   -9.0261   20.4645 C   0  0  0  0  0  0
  -22.7258  -10.2144   20.3062 C   0  0  0  0  0  0
  -21.6861   -6.0756   22.5289 C   0  0  0  0  0  0
  -21.4006   -6.5654   23.8223 C   0  0  0  0  0  0
  -21.3654   -5.6803   24.9185 C   0  0  0  0  0  0
  -21.6043   -4.3059   24.7230 C   0  0  0  0  0  0
  -21.8820   -3.8160   23.4346 C   0  0  0  0  0  0
  -21.9189   -4.6984   22.3407 C   0  0  0  0  0  0
  -22.7809  -13.5228   21.1905 C   0  0  0  0  0  0
  -22.1662   -4.2171   21.0987 F   0  0  0  0  0  0
  -21.5624   -3.4533   25.7740 F   0  0  0  0  0  0
  -29.9763  -13.5483   20.3677 N   0  0  0  0  0  0
  -26.2894  -12.9441   20.3255 N   0  0  0  0  0  0
  -25.9316  -11.6578   20.5775 N   0  0  0  0  0  0
  -22.0440  -12.8207   22.0436 N   0  0  0  0  0  0
  -25.4145  -15.1954   20.4106 N   0  0  0  0  0  0
  -31.8408  -14.7938   20.1569 O   0  0  0  0  0  0
  -21.6642   -6.8897   21.4258 O   0  0  0  0  0  0
  -22.3491  -14.5525   20.6761 O   0  0  0  0  0  0
  -24.6323  -31.8564   23.1945 C   0  0  0  0  0  0
  -25.9141  -32.4761   23.8292 C   0  0  1  0  0  0
  -27.2040  -27.2511   20.1263 C   0  0  0  0  0  0
  -25.5949  -33.8563   24.2222 N   0  0  0  0  0  0
  -23.4282  -30.4810   21.5403 C   0  0  2  0  0  0
  -24.8702  -28.9309   20.1060 C   0  0  0  0  0  0
  -22.7499  -29.4640   22.4906 C   0  0  0  0  0  0
  -18.0285  -28.1412   22.8512 C   0  0  0  0  0  0
  -24.1497  -36.7261   23.2649 C   0  0  0  0  0  0
  -25.9766  -30.7661   21.3760 C   0  0  0  0  0  0
  -26.0446  -29.3886   20.7192 C   0  0  0  0  0  0
  -27.2146  -28.5595   20.7223 C   0  0  0  0  0  0
  -26.0118  -26.8792   19.4620 C   0  0  0  0  0  0
  -24.8603  -27.6858   19.4661 C   0  0  0  0  0  0
  -23.6432  -29.8185   20.1557 C   0  0  0  0  0  0
  -25.4132  -36.3062   24.0332 C   0  0  1  0  0  0
  -20.5907  -28.3711   23.1284 C   0  0  2  0  0  0
  -20.6800  -26.9432   22.5414 C   0  0  0  0  0  0
  -19.5771  -26.6399   21.5236 C   0  0  0  0  0  0
  -18.1937  -26.7962   22.1630 C   0  0  0  0  0  0
  -19.1542  -28.8875   23.2891 C   0  0  0  0  0  0
  -18.9465  -30.1478   23.8894 C   0  0  0  0  0  0
  -17.6472  -30.6613   24.0573 C   0  0  0  0  0  0
  -25.9082  -34.9450   23.5078 C   0  0  0  0  0  0
  -16.5356  -29.9120   23.6351 C   0  0  0  0  0  0
  -16.7264  -28.6536   23.0361 C   0  0  0  0  0  0
  -26.4492  -31.6595   25.0689 C   0  0  0  0  0  0
  -25.3682  -31.3758   26.1380 C   0  0  0  0  0  0
  -27.0348  -30.3023   24.6177 C   0  0  0  0  0  0
  -27.6036  -32.4326   25.7456 C   0  0  0  0  0  0
  -27.5579  -37.1777   24.8472 C   0  0  0  0  0  0
  -21.4204  -29.3062   22.3656 N   0  0  0  0  0  0
  -26.4282  -37.3780   23.9432 N   0  0  0  0  0  0
  -24.6985  -31.0540   22.0915 N   0  0  0  0  0  0
  -23.4195  -28.8190   23.3006 O   0  0  0  0  0  0
  -28.2758  -26.3263   20.2038 O   0  0  0  0  0  0
  -26.5636  -34.8941   22.4641 O   0  0  0  0  0  0
  -23.5462  -32.1375   23.7248 O   0  0  0  0  0  0
  -30.8918  -19.2932   22.5583 C   0  0  0  0  0  0
  -31.2414  -16.5610   22.6730 C   0  0  0  0  0  0
  -30.2528  -18.5377   21.5264 C   0  0  0  0  0  0
  -31.6472  -18.7487   23.6073 C   0  0  0  0  0  0
  -30.4700  -17.0591   21.5827 C   0  0  0  0  0  0
  -31.8219  -17.3635   23.6579 C   0  0  0  0  0  0
  -28.0697  -18.9156   20.1530 C   0  0  0  0  0  0
  -31.7804  -19.2603   25.9574 C   0  0  0  0  0  0
  -32.5009  -22.3427   24.8124 C   0  0  0  0  0  0
  -28.9392  -23.6563   20.4941 C   0  0  0  0  0  0
  -28.6041  -22.0934   20.1331 C   0  0  0  0  0  0
  -27.9930  -24.8608   19.9643 C   0  0  0  0  0  0
  -29.4559  -19.4857   20.4931 C   0  0  1  0  0  0
  -29.9688  -15.9308   20.7552 N   0  0  0  0  0  0
  -32.1799  -19.5935   24.5927 N   0  0  0  0  0  0
  -29.3802  -20.9939   20.8830 N   0  3  0  0  0  0
  -33.6747  -20.8339   22.9140 O   0  0  0  0  0  0
  -34.4408  -20.5466   25.3362 O   0  0  0  0  0  0
  -32.5435  -16.7903   24.6513 F   0  0  0  0  0  0
  -33.3794  -20.8187   24.3555 S   0  0  0  0  0  0
  -31.4602  -12.5862   19.1456 H   0  0  0  0  0  0
  -30.3667  -11.5001   19.9589 H   0  0  0  0  0  0
  -29.7819  -11.7200   17.5161 H   0  0  0  0  0  0
  -29.6182  -13.4498   17.6978 H   0  0  0  0  0  0
  -27.8910  -11.2759   18.9227 H   0  0  0  0  0  0
  -27.3658  -12.4980   17.7976 H   0  0  0  0  0  0
  -27.6186  -14.2513   19.4360 H   0  0  0  0  0  0
  -28.7251  -12.2236   21.4409 H   0  0  0  0  0  0
  -28.4174  -13.9177   21.7525 H   0  0  0  0  0  0
  -25.2776   -9.5695   22.4779 H   0  0  0  0  0  0
  -24.0023   -7.4636   22.7469 H   0  0  0  0  0  0
  -21.0872   -8.8786   19.8943 H   0  0  0  0  0  0
  -22.3729  -10.9681   19.6164 H   0  0  0  0  0  0
  -21.1987   -7.6155   23.9743 H   0  0  0  0  0  0
  -21.1471   -6.0518   25.9094 H   0  0  0  0  0  0
  -22.0593   -2.7623   23.2840 H   0  0  0  0  0  0
  -22.4019  -11.9839   22.4777 H   0  0  0  0  0  0
  -21.1065  -13.1227   22.2668 H   0  0  0  0  0  0
  -24.6400  -15.8427   20.5068 H   0  0  0  0  0  0
  -26.2559  -15.6368   20.0666 H   0  0  0  0  0  0
  -26.7205  -32.5386   23.1026 H   0  0  0  0  0  0
  -25.0158  -33.9722   25.0402 H   0  0  0  0  0  0
  -22.7271  -31.3047   21.3972 H   0  0  0  0  0  0
  -23.3791  -35.9554   23.3294 H   0  0  0  0  0  0
  -24.3618  -36.8878   22.2062 H   0  0  0  0  0  0
  -23.7188  -37.6440   23.6677 H   0  0  0  0  0  0
  -26.1266  -31.5277   20.6092 H   0  0  0  0  0  0
  -26.8508  -30.8082   22.0130 H   0  0  0  0  0  0
  -28.1075  -28.9028   21.2285 H   0  0  0  0  0  0
  -25.9299  -25.9363   18.9423 H   0  0  0  0  0  0
  -23.9641  -27.3355   18.9695 H   0  0  0  0  0  0
  -23.7640  -30.5953   19.3996 H   0  0  0  0  0  0
  -22.7606  -29.2518   19.8529 H   0  0  0  0  0  0
  -25.1312  -36.1899   25.0820 H   0  0  0  0  0  0
  -20.9978  -28.3248   24.1412 H   0  0  0  0  0  0
  -20.5750  -26.2306   23.3607 H   0  0  0  0  0  0
  -21.6667  -26.7494   22.1177 H   0  0  0  0  0  0
  -19.6947  -25.6309   21.1266 H   0  0  0  0  0  0
  -19.6728  -27.3222   20.6780 H   0  0  0  0  0  0
  -17.4230  -26.6734   21.3998 H   0  0  0  0  0  0
  -18.0303  -26.0098   22.9011 H   0  0  0  0  0  0
  -19.7937  -30.7304   24.2250 H   0  0  0  0  0  0
  -17.5034  -31.6295   24.5173 H   0  0  0  0  0  0
  -15.5362  -30.3011   23.7723 H   0  0  0  0  0  0
  -15.8667  -28.0872   22.7061 H   0  0  0  0  0  0
  -24.5910  -30.7051   25.7712 H   0  0  0  0  0  0
  -24.8821  -32.2938   26.4684 H   0  0  0  0  0  0
  -25.7981  -30.9022   27.0217 H   0  0  0  0  0  0
  -26.2934  -29.6762   24.1206 H   0  0  0  0  0  0
  -27.4072  -29.7294   25.4678 H   0  0  0  0  0  0
  -27.8795  -30.4360   23.9417 H   0  0  0  0  0  0
  -27.2666  -33.3672   26.1960 H   0  0  0  0  0  0
  -28.3873  -32.6788   25.0280 H   0  0  0  0  0  0
  -28.0685  -31.8489   26.5412 H   0  0  0  0  0  0
  -28.2567  -38.0101   24.7555 H   0  0  0  0  0  0
  -28.1081  -36.2625   24.6227 H   0  0  0  0  0  0
  -27.2324  -37.1326   25.8881 H   0  0  0  0  0  0
  -20.9375  -29.8746   21.6845 H   0  0  0  0  0  0
  -26.0145  -38.2846   24.1444 H   0  0  0  0  0  0
  -30.8283  -20.3644   22.6094 H   0  0  0  0  0  0
  -31.4120  -15.5045   22.8122 H   0  0  0  0  0  0
  -28.1615  -17.9100   19.7428 H   0  0  0  0  0  0
  -27.5699  -19.5204   19.3950 H   0  0  0  0  0  0
  -27.4230  -18.8679   21.0289 H   0  0  0  0  0  0
  -30.9727  -18.5262   25.9989 H   0  0  0  0  0  0
  -31.4273  -20.1532   26.4720 H   0  0  0  0  0  0
  -32.6312  -18.8650   26.5145 H   0  0  0  0  0  0
  -31.6213  -22.4665   24.1855 H   0  0  0  0  0  0
  -33.1705  -23.1889   24.6712 H   0  0  0  0  0  0
  -32.2047  -22.2954   25.8577 H   0  0  0  0  0  0
  -29.9508  -23.8655   20.1459 H   0  0  0  0  0  0
  -28.9822  -23.7498   21.5800 H   0  0  0  0  0  0
  -28.7450  -21.9409   19.0623 H   0  0  0  0  0  0
  -27.5430  -21.9201   20.3217 H   0  0  0  0  0  0
  -27.0106  -24.6394   20.3842 H   0  0  0  0  0  0
  -27.8965  -24.7412   18.8842 H   0  0  0  0  0  0
  -30.0407  -19.4550   19.5720 H   0  0  0  0  0  0
  -28.9673  -15.8797   20.6522 H   0  0  0  0  0  0
  -29.0417  -21.0209   21.8317 H   0  0  0  0  0  0
  -30.3379  -21.3027   20.9044 H   0  0  0  0  0  0
  1 25  1  0  0  0
  1 30  2  0  0  0
  1 84  1  0  0  0
  2  3  1  0  0  0
  2 25  1  0  0  0
  2 91  1  0  0  0
  2 92  1  0  0  0
  3  4  1  0  0  0
  3 93  1  0  0  0
  3 94  1  0  0  0
  4  5  1  0  0  0
  4 95  1  0  0  0
  4 96  1  0  0  0
  5  6  1  0  0  0
  5 26  1  0  0  0
  5 97  1  0  0  0
  6 25  1  0  0  0
  6 98  1  0  0  0
  6 99  1  0  0  0
  7  8  2  0  0  0
  7 26  1  0  0  0
  7 29  1  0  0  0
  8  9  1  0  0  0
  8 22  1  0  0  0
  9 10  1  0  0  0
  9 27  2  0  0  0
 10 11  2  0  0  0
 10 15  1  0  0  0
 11 12  1  0  0  0
 11100  1  0  0  0
 12 13  2  0  0  0
 12101  1  0  0  0
 13 14  1  0  0  0
 13 31  1  0  0  0
 14 15  2  0  0  0
 14102  1  0  0  0
 15103  1  0  0  0
 16 17  2  0  0  0
 16 21  1  0  0  0
 16 31  1  0  0  0
 17 18  1  0  0  0
 17104  1  0  0  0
 18 19  2  0  0  0
 18105  1  0  0  0
 19 20  1  0  0  0
 19 24  1  0  0  0
 20 21  2  0  0  0
 20106  1  0  0  0
 21 23  1  0  0  0
 22 28  1  0  0  0
 22 32  2  0  0  0
 26 27  1  0  0  0
 28107  1  0  0  0
 28108  1  0  0  0
 29109  1  0  0  0
 29110  1  0  0  0
 33 34  1  0  0  0
 33 66  1  0  0  0
 33 70  2  0  0  0
 34 36  1  0  0  0
 34 59  1  0  0  0
 34111  1  0  0  0
 35 44  2  0  0  0
 35 45  1  0  0  0
 35 68  1  0  0  0
 36 56  1  0  0  0
 36112  1  0  0  0
 37 39  1  0  0  0
 37 47  1  0  0  0
 37 66  1  0  0  0
 37113  1  0  0  0
 38 43  2  0  0  0
 38 46  1  0  0  0
 38 47  1  0  0  0
 39 64  1  0  0  0
 39 67  2  0  0  0
 40 52  1  0  0  0
 40 53  2  0  0  0
 40 58  1  0  0  0
 41114  1  0  0  0
 41115  1  0  0  0
 41116  1  0  0  0
 41 48  1  0  0  0
 42 43  1  0  0  0
 42 66  1  0  0  0
 42117  1  0  0  0
 42118  1  0  0  0
 43 44  1  0  0  0
 44119  1  0  0  0
 45 46  2  0  0  0
 45120  1  0  0  0
 46121  1  0  0  0
 47122  1  0  0  0
 47123  1  0  0  0
 48 56  1  0  0  0
 48 65  1  0  0  0
 48124  1  0  0  0
 49 50  1  0  0  0
 49 53  1  0  0  0
 49 64  1  0  0  0
 49125  1  0  0  0
 50 51  1  0  0  0
 50126  1  0  0  0
 50127  1  0  0  0
 51 52  1  0  0  0
 51128  1  0  0  0
 51129  1  0  0  0
 52130  1  0  0  0
 52131  1  0  0  0
 53 54  1  0  0  0
 54 55  2  0  0  0
 54132  1  0  0  0
 55 57  1  0  0  0
 55133  1  0  0  0
 56 69  2  0  0  0
 57 58  2  0  0  0
 57134  1  0  0  0
 58135  1  0  0  0
 59 60  1  0  0  0
 59 61  1  0  0  0
 59 62  1  0  0  0
 60136  1  0  0  0
 60137  1  0  0  0
 60138  1  0  0  0
 61139  1  0  0  0
 61140  1  0  0  0
 61141  1  0  0  0
 62142  1  0  0  0
 62143  1  0  0  0
 62144  1  0  0  0
 63 65  1  0  0  0
 63145  1  0  0  0
 63146  1  0  0  0
 63147  1  0  0  0
 64148  1  0  0  0
 65149  1  0  0  0
 68 82  1  0  0  0
 71 73  2  0  0  0
 71 74  1  0  0  0
 71150  1  0  0  0
 72 75  2  0  0  0
 72 76  1  0  0  0
 72151  1  0  0  0
 73 75  1  0  0  0
 73 83  1  0  0  0
 74 76  2  0  0  0
 74 85  1  0  0  0
 75 84  1  0  0  0
 76 89  1  0  0  0
 77152  1  0  0  0
 77153  1  0  0  0
 77154  1  0  0  0
 77 83  1  0  0  0
 78 85  1  0  0  0
 78155  1  0  0  0
 78156  1  0  0  0
 78157  1  0  0  0
 79158  1  0  0  0
 79159  1  0  0  0
 79160  1  0  0  0
 79 90  1  0  0  0
 80 81  1  0  0  0
 80 82  1  0  0  0
 80161  1  0  0  0
 80162  1  0  0  0
 81 86  1  0  0  0
 81163  1  0  0  0
 81164  1  0  0  0
 82165  1  0  0  0
 82166  1  0  0  0
 83 86  1  0  0  0
 83167  1  0  0  0
 84168  1  0  0  0
 85 90  1  0  0  0
 86169  1  0  0  0
 86170  1  0  0  0
 87 90  2  0  0  0
 88 90  2  0  0  0
M  CHG  1  86   1
M  ISO  4   1 100  68 101  82 101  84 100
M  END
> <chiral flag>
0

> <version>
0

> <s_m_source_file>
/data/baiqing/PycharmProjects/Reinvent-master-3.2/result/LINK_invent/BTK/process_docking_weight1_custom_product_contain_oxygen_bond_distance_aromatic_linkinvent_7_9_3/rearranged_h_0019.sdf

> <i_m_source_file_index>
40

> <r_mmod_Potential_Energy-OPLS-2005>
-139.996978759766

> <r_mmod_Stretch_Energy-OPLS-2005>
153.768661499023

> <r_mmod_Bend_Energy-OPLS-2005>
216.080123901367

> <r_mmod_Torsional_Energy-OPLS-2005>
253.089309692383

> <r_mmod_Improper_Torsional_Energy-OPLS-2005>
5.64802694320679

> <r_mmod_Van_der_Waal_Energy-OPLS-2005>
153.543197631836

> <r_mmod_Electrostatic_Energy-OPLS-2005>
-470.379638671875

> <r_mmod_Solvation_Energy-OPLS-2005>
-545.671813964844

> <b_mmod_Minimization_Converged-OPLS-2005>
0

> <r_mmod_RMS_Derivative-OPLS-2005>
3.07870531082153

$$$$
40
                    3D
 Structure written by MMmdl.
152160  0  0  1  0            999 V2000
  -30.5669  -14.9922   20.3954 C   0  0  0  0  0  0
  -30.4252  -12.6153   19.5034 C   0  0  0  0  0  0
  -29.5172  -12.5309   18.2567 C   0  0  0  0  0  0
  -28.0510  -12.3194   18.6733 C   0  0  0  0  0  0
  -27.6225  -13.2603   19.8294 C   0  0  2  0  0  0
  -28.6653  -13.3323   20.9653 C   0  0  0  0  0  0
  -25.2438  -13.8248   20.5717 C   0  0  0  0  0  0
  -24.1770  -13.0448   20.9227 C   0  0  0  0  0  0
  -24.6408  -11.6939   20.8747 C   0  0  0  0  0  0
  -23.9099  -10.4299   21.0395 C   0  0  0  0  0  0
  -24.3648   -9.4215   21.9174 C   0  0  0  0  0  0
  -23.6315   -8.2259   22.0755 C   0  0  0  0  0  0
  -22.4299   -8.0296   21.3544 C   0  0  0  0  0  0
  -21.9934   -9.0268   20.4644 C   0  0  0  0  0  0
  -22.7269  -10.2142   20.3043 C   0  0  0  0  0  0
  -21.6868   -6.0743   22.5270 C   0  0  0  0  0  0
  -21.4025   -6.5644   23.8202 C   0  0  0  0  0  0
  -21.3657   -5.6796   24.9166 C   0  0  0  0  0  0
  -21.6047   -4.3057   24.7218 C   0  0  0  0  0  0
  -21.8819   -3.8150   23.4339 C   0  0  0  0  0  0
  -21.9201   -4.6970   22.3397 C   0  0  0  0  0  0
  -22.7784  -13.5196   21.1877 C   0  0  0  0  0  0
  -22.1665   -4.2153   21.0972 F   0  0  0  0  0  0
  -21.5626   -3.4538   25.7731 F   0  0  0  0  0  0
  -29.9330  -13.7448   20.3523 N   0  0  0  0  0  0
  -26.2862  -12.9498   20.3228 N   0  0  0  0  0  0
  -25.9344  -11.6614   20.5734 N   0  0  0  0  0  0
  -22.0459  -12.8167   22.0436 N   0  0  0  0  0  0
  -25.4097  -15.1984   20.4146 N   0  0  0  0  0  0
  -31.7825  -14.9522   20.1796 O   0  0  0  0  0  0
  -21.6661   -6.8891   21.4236 O   0  0  0  0  0  0
  -22.3444  -14.5492   20.6722 O   0  0  0  0  0  0
  -24.6448  -31.8413   23.1859 C   0  0  0  0  0  0
  -25.9208  -32.4682   23.8261 C   0  0  1  0  0  0
  -27.2139  -27.1053   20.1529 C   0  0  0  0  0  0
  -25.5945  -33.8491   24.2170 N   0  0  0  0  0  0
  -23.4499  -30.4595   21.5321 C   0  0  2  0  0  0
  -24.9004  -28.8845   20.1051 C   0  0  0  0  0  0
  -22.7571  -29.4526   22.4849 C   0  0  0  0  0  0
  -18.0296  -28.1390   22.8472 C   0  0  0  0  0  0
  -24.1490  -36.7253   23.2646 C   0  0  0  0  0  0
  -26.0079  -30.7044   21.3907 C   0  0  0  0  0  0
  -26.0779  -29.3133   20.7305 C   0  0  0  0  0  0
  -27.2335  -28.4400   20.7373 C   0  0  0  0  0  0
  -26.0155  -26.7934   19.4718 C   0  0  0  0  0  0
  -24.8849  -27.6396   19.4579 C   0  0  0  0  0  0
  -23.6774  -29.7892   20.1509 C   0  0  0  0  0  0
  -25.4124  -36.3024   24.0307 C   0  0  1  0  0  0
  -20.5911  -28.3717   23.1222 C   0  0  2  0  0  0
  -20.6783  -26.9420   22.5401 C   0  0  0  0  0  0
  -19.5763  -26.6371   21.5208 C   0  0  0  0  0  0
  -18.1941  -26.7926   22.1617 C   0  0  0  0  0  0
  -19.1554  -28.8871   23.2840 C   0  0  0  0  0  0
  -18.9479  -30.1464   23.8872 C   0  0  0  0  0  0
  -17.6481  -30.6594   24.0553 C   0  0  0  0  0  0
  -25.9076  -34.9401   23.5048 C   0  0  0  0  0  0
  -16.5367  -29.9087   23.6339 C   0  0  0  0  0  0
  -16.7280  -28.6500   23.0363 C   0  0  0  0  0  0
  -26.4519  -31.6568   25.0720 C   0  0  0  0  0  0
  -25.3686  -31.3772   26.1401 C   0  0  0  0  0  0
  -27.0393  -30.2957   24.6340 C   0  0  0  0  0  0
  -27.6042  -32.4343   25.7505 C   0  0  0  0  0  0
  -27.5571  -37.1784   24.8466 C   0  0  0  0  0  0
  -21.4262  -29.3043   22.3595 N   0  0  0  0  0  0
  -26.4285  -37.3742   23.9403 N   0  0  0  0  0  0
  -24.7207  -31.0236   22.0911 N   0  0  0  0  0  0
  -23.4203  -28.8079   23.3010 O   0  0  0  0  0  0
  -28.2514  -26.0955   20.2544 O   0  0  0  0  0  0
  -26.5678  -34.8902   22.4640 O   0  0  0  0  0  0
  -23.5553  -32.1304   23.7054 O   0  0  0  0  0  0
  -31.7247  -18.3296   18.3617 C   0  0  0  0  0  0
  -30.6115  -18.8705   17.6913 C   0  0  0  0  0  0
  -31.5675  -17.8035   19.6589 C   0  0  0  0  0  0
  -29.4282  -19.1316   18.4093 C   0  0  0  0  0  0
  -30.2656  -17.7245   20.2088 C   0  0  0  0  0  0
  -29.4274  -18.9218   19.8062 C   0  0  0  0  0  0
  -28.8274  -23.1742   20.5135 C   0  0  0  0  0  0
  -28.6737  -21.5988   19.8788 C   0  0  0  0  0  0
  -28.0347  -24.5707   19.9270 C   0  0  0  0  0  0
  -29.8557  -16.2462   20.4769 N   0  0  0  0  0  0
  -29.2139  -20.2378   20.4924 N   0  0  0  0  0  0
  -31.4604  -12.7505   19.1873 H   0  0  0  0  0  0
  -30.4075  -11.6761   20.0586 H   0  0  0  0  0  0
  -29.8416  -11.7187   17.6049 H   0  0  0  0  0  0
  -29.6075  -13.4484   17.6727 H   0  0  0  0  0  0
  -27.9468  -11.2805   18.9867 H   0  0  0  0  0  0
  -27.3902  -12.4460   17.8145 H   0  0  0  0  0  0
  -27.5718  -14.2536   19.3821 H   0  0  0  0  0  0
  -28.7651  -12.3721   21.4742 H   0  0  0  0  0  0
  -28.3589  -14.0571   21.7205 H   0  0  0  0  0  0
  -25.2797   -9.5691   22.4747 H   0  0  0  0  0  0
  -24.0024   -7.4651   22.7477 H   0  0  0  0  0  0
  -21.0868   -8.8781   19.8949 H   0  0  0  0  0  0
  -22.3725  -10.9681   19.6149 H   0  0  0  0  0  0
  -21.2013   -7.6152   23.9700 H   0  0  0  0  0  0
  -21.1479   -6.0530   25.9066 H   0  0  0  0  0  0
  -22.0601   -2.7615   23.2835 H   0  0  0  0  0  0
  -22.4120  -11.9850   22.4832 H   0  0  0  0  0  0
  -21.1062  -13.1143   22.2635 H   0  0  0  0  0  0
  -24.6406  -15.8489   20.5290 H   0  0  0  0  0  0
  -26.2495  -15.6403   20.0638 H   0  0  0  0  0  0
  -26.7270  -32.5276   23.0984 H   0  0  0  0  0  0
  -25.0041  -33.9620   25.0277 H   0  0  0  0  0  0
  -22.7531  -31.2861   21.3778 H   0  0  0  0  0  0
  -23.3757  -35.9584   23.3297 H   0  0  0  0  0  0
  -24.3569  -36.8899   22.2065 H   0  0  0  0  0  0
  -23.7241  -37.6439   23.6698 H   0  0  0  0  0  0
  -26.1687  -31.4584   20.6192 H   0  0  0  0  0  0
  -26.8761  -30.7545   22.0361 H   0  0  0  0  0  0
  -28.1288  -28.7611   21.2513 H   0  0  0  0  0  0
  -25.9151  -25.8479   18.9605 H   0  0  0  0  0  0
  -23.9901  -27.3100   18.9468 H   0  0  0  0  0  0
  -23.8111  -30.5657   19.3967 H   0  0  0  0  0  0
  -22.7915  -29.2321   19.8408 H   0  0  0  0  0  0
  -25.1317  -36.1851   25.0799 H   0  0  0  0  0  0
  -21.0001  -28.3313   24.1344 H   0  0  0  0  0  0
  -20.5657  -26.2344   23.3623 H   0  0  0  0  0  0
  -21.6649  -26.7411   22.1219 H   0  0  0  0  0  0
  -19.6933  -25.6272   21.1263 H   0  0  0  0  0  0
  -19.6704  -27.3160   20.6719 H   0  0  0  0  0  0
  -17.4208  -26.6649   21.4023 H   0  0  0  0  0  0
  -18.0351  -26.0071   22.9019 H   0  0  0  0  0  0
  -19.7957  -30.7276   24.2238 H   0  0  0  0  0  0
  -17.5039  -31.6276   24.5154 H   0  0  0  0  0  0
  -15.5370  -30.2995   23.7672 H   0  0  0  0  0  0
  -15.8671  -28.0812   22.7113 H   0  0  0  0  0  0
  -24.5881  -30.7107   25.7713 H   0  0  0  0  0  0
  -24.8860  -32.2960   26.4744 H   0  0  0  0  0  0
  -25.7945  -30.8995   27.0233 H   0  0  0  0  0  0
  -26.3027  -29.6671   24.1329 H   0  0  0  0  0  0
  -27.3959  -29.7270   25.4939 H   0  0  0  0  0  0
  -27.8951  -30.4171   23.9697 H   0  0  0  0  0  0
  -27.2635  -33.3670   26.2009 H   0  0  0  0  0  0
  -28.3890  -32.6860   25.0362 H   0  0  0  0  0  0
  -28.0672  -31.8523   26.5482 H   0  0  0  0  0  0
  -28.2581  -38.0088   24.7505 H   0  0  0  0  0  0
  -28.1068  -36.2612   24.6297 H   0  0  0  0  0  0
  -27.2286  -37.1435   25.8869 H   0  0  0  0  0  0
  -20.9472  -29.8762   21.6780 H   0  0  0  0  0  0
  -26.0146  -38.2804   24.1416 H   0  0  0  0  0  0
  -32.6712  -18.2268   17.8492 H   0  0  0  0  0  0
  -30.7037  -19.1965   16.6646 H   0  0  0  0  0  0
  -32.3876  -17.2174   20.0431 H   0  0  0  0  0  0
  -28.7055  -19.7764   17.9310 H   0  0  0  0  0  0
  -29.8939  -23.4010   20.4992 H   0  0  0  0  0  0
  -28.5755  -23.1120   21.5721 H   0  0  0  0  0  0
  -29.0894  -21.6784   18.8743 H   0  0  0  0  0  0
  -27.6070  -21.4351   19.7189 H   0  0  0  0  0  0
  -26.9844  -24.3664   20.1295 H   0  0  0  0  0  0
  -28.1205  -24.5217   18.8410 H   0  0  0  0  0  0
  -28.8677  -16.1248   20.6384 H   0  0  0  0  0  0
  -29.4507  -20.2599   21.4824 H   0  0  0  0  0  0
  1 25  1  0  0  0
  1 30  2  0  0  0
  1 80  1  0  0  0
  2  3  1  0  0  0
  2 25  1  0  0  0
  2 82  1  0  0  0
  2 83  1  0  0  0
  3  4  1  0  0  0
  3 84  1  0  0  0
  3 85  1  0  0  0
  4  5  1  0  0  0
  4 86  1  0  0  0
  4 87  1  0  0  0
  5  6  1  0  0  0
  5 26  1  0  0  0
  5 88  1  0  0  0
  6 25  1  0  0  0
  6 89  1  0  0  0
  6 90  1  0  0  0
  7  8  2  0  0  0
  7 26  1  0  0  0
  7 29  1  0  0  0
  8  9  1  0  0  0
  8 22  1  0  0  0
  9 10  1  0  0  0
  9 27  2  0  0  0
 10 11  2  0  0  0
 10 15  1  0  0  0
 11 12  1  0  0  0
 11 91  1  0  0  0
 12 13  2  0  0  0
 12 92  1  0  0  0
 13 14  1  0  0  0
 13 31  1  0  0  0
 14 15  2  0  0  0
 14 93  1  0  0  0
 15 94  1  0  0  0
 16 17  2  0  0  0
 16 21  1  0  0  0
 16 31  1  0  0  0
 17 18  1  0  0  0
 17 95  1  0  0  0
 18 19  2  0  0  0
 18 96  1  0  0  0
 19 20  1  0  0  0
 19 24  1  0  0  0
 20 21  2  0  0  0
 20 97  1  0  0  0
 21 23  1  0  0  0
 22 28  1  0  0  0
 22 32  2  0  0  0
 26 27  1  0  0  0
 28 98  1  0  0  0
 28 99  1  0  0  0
 29100  1  0  0  0
 29101  1  0  0  0
 33 34  1  0  0  0
 33 66  1  0  0  0
 33 70  2  0  0  0
 34 36  1  0  0  0
 34 59  1  0  0  0
 34102  1  0  0  0
 35 44  2  0  0  0
 35 45  1  0  0  0
 35 68  1  0  0  0
 36 56  1  0  0  0
 36103  1  0  0  0
 37 39  1  0  0  0
 37 47  1  0  0  0
 37 66  1  0  0  0
 37104  1  0  0  0
 38 43  2  0  0  0
 38 46  1  0  0  0
 38 47  1  0  0  0
 39 64  1  0  0  0
 39 67  2  0  0  0
 40 52  1  0  0  0
 40 53  2  0  0  0
 40 58  1  0  0  0
 41105  1  0  0  0
 41106  1  0  0  0
 41107  1  0  0  0
 41 48  1  0  0  0
 42 43  1  0  0  0
 42 66  1  0  0  0
 42108  1  0  0  0
 42109  1  0  0  0
 43 44  1  0  0  0
 44110  1  0  0  0
 45 46  2  0  0  0
 45111  1  0  0  0
 46112  1  0  0  0
 47113  1  0  0  0
 47114  1  0  0  0
 48 56  1  0  0  0
 48 65  1  0  0  0
 48115  1  0  0  0
 49 50  1  0  0  0
 49 53  1  0  0  0
 49 64  1  0  0  0
 49116  1  0  0  0
 50 51  1  0  0  0
 50117  1  0  0  0
 50118  1  0  0  0
 51 52  1  0  0  0
 51119  1  0  0  0
 51120  1  0  0  0
 52121  1  0  0  0
 52122  1  0  0  0
 53 54  1  0  0  0
 54 55  2  0  0  0
 54123  1  0  0  0
 55 57  1  0  0  0
 55124  1  0  0  0
 56 69  2  0  0  0
 57 58  2  0  0  0
 57125  1  0  0  0
 58126  1  0  0  0
 59 60  1  0  0  0
 59 61  1  0  0  0
 59 62  1  0  0  0
 60127  1  0  0  0
 60128  1  0  0  0
 60129  1  0  0  0
 61130  1  0  0  0
 61131  1  0  0  0
 61132  1  0  0  0
 62133  1  0  0  0
 62134  1  0  0  0
 62135  1  0  0  0
 63 65  1  0  0  0
 63136  1  0  0  0
 63137  1  0  0  0
 63138  1  0  0  0
 64139  1  0  0  0
 65140  1  0  0  0
 68 79  1  0  0  0
 71 72  2  0  0  0
 71 73  1  0  0  0
 71141  1  0  0  0
 72 74  1  0  0  0
 72142  1  0  0  0
 73 75  2  0  0  0
 73143  1  0  0  0
 74 76  2  0  0  0
 74144  1  0  0  0
 75 76  1  0  0  0
 75 80  1  0  0  0
 76 81  1  0  0  0
 77 78  1  0  0  0
 77 79  1  0  0  0
 77145  1  0  0  0
 77146  1  0  0  0
 78 81  1  0  0  0
 78147  1  0  0  0
 78148  1  0  0  0
 79149  1  0  0  0
 79150  1  0  0  0
 80151  1  0  0  0
 81152  1  0  0  0
M  ISO  4   1 100  68 101  79 101  80 100
M  END
> <chiral flag>
0

> <version>
0

> <s_m_source_file>
/data/baiqing/PycharmProjects/Reinvent-master-3.2/result/LINK_invent/BTK/process_docking_weight1_custom_product_contain_oxygen_bond_distance_aromatic_linkinvent_7_9_3/rearranged_h_0019.sdf

> <i_m_source_file_index>
41

> <r_mmod_Potential_Energy-OPLS-2005>
818.139587402344

> <r_mmod_Stretch_Energy-OPLS-2005>
317.209381103516

> <r_mmod_Bend_Energy-OPLS-2005>
306.196594238281

> <r_mmod_Torsional_Energy-OPLS-2005>
426.063995361328

> <r_mmod_Improper_Torsional_Energy-OPLS-2005>
27.3670043945312

> <r_mmod_Van_der_Waal_Energy-OPLS-2005>
150.790344238281

> <r_mmod_Electrostatic_Energy-OPLS-2005>
-412.804107666016

> <r_mmod_Solvation_Energy-OPLS-2005>
-219.791549682617

> <b_mmod_Minimization_Converged-OPLS-2005>
0

> <r_mmod_RMS_Derivative-OPLS-2005>
1.22038316726685

$$$$
41
                    3D
 Structure written by MMmdl.
166174  0  0  1  0            999 V2000
  -30.7528  -14.4679   20.6050 C   0  0  0  0  0  0
  -30.4174  -12.3228   19.4194 C   0  0  0  0  0  0
  -29.4897  -12.5153   18.2047 C   0  0  0  0  0  0
  -28.0143  -12.3674   18.6207 C   0  0  0  0  0  0
  -27.6601  -13.2104   19.8738 C   0  0  2  0  0  0
  -28.7074  -13.0162   20.9950 C   0  0  0  0  0  0
  -25.2583  -13.8166   20.5693 C   0  0  0  0  0  0
  -24.1839  -13.0436   20.9191 C   0  0  0  0  0  0
  -24.6402  -11.6905   20.8749 C   0  0  0  0  0  0
  -23.9068  -10.4292   21.0408 C   0  0  0  0  0  0
  -24.3615   -9.4209   21.9188 C   0  0  0  0  0  0
  -23.6292   -8.2244   22.0756 C   0  0  0  0  0  0
  -22.4276   -8.0282   21.3541 C   0  0  0  0  0  0
  -21.9911   -9.0256   20.4647 C   0  0  0  0  0  0
  -22.7240  -10.2137   20.3058 C   0  0  0  0  0  0
  -21.6853   -6.0738   22.5279 C   0  0  0  0  0  0
  -21.4015   -6.5641   23.8213 C   0  0  0  0  0  0
  -21.3659   -5.6792   24.9173 C   0  0  0  0  0  0
  -21.6047   -4.3054   24.7226 C   0  0  0  0  0  0
  -21.8820   -3.8147   23.4345 C   0  0  0  0  0  0
  -21.9191   -4.6966   22.3400 C   0  0  0  0  0  0
  -22.7861  -13.5234   21.1847 C   0  0  0  0  0  0
  -22.1660   -4.2153   21.0978 F   0  0  0  0  0  0
  -21.5629   -3.4537   25.7737 F   0  0  0  0  0  0
  -30.0384  -13.3164   20.4385 N   0  0  0  0  0  0
  -26.3027  -12.9343   20.3386 N   0  0  0  0  0  0
  -25.9336  -11.6499   20.5788 N   0  0  0  0  0  0
  -22.0497  -12.8228   22.0399 N   0  0  0  0  0  0
  -25.4268  -15.1887   20.4078 N   0  0  0  0  0  0
  -31.8618  -14.6356   20.0885 O   0  0  0  0  0  0
  -21.6634   -6.8883   21.4241 O   0  0  0  0  0  0
  -22.3550  -14.5544   20.6704 O   0  0  0  0  0  0
  -24.6185  -31.8688   23.2105 C   0  0  0  0  0  0
  -25.9076  -32.4826   23.8394 C   0  0  1  0  0  0
  -27.2223  -27.3912   20.0924 C   0  0  0  0  0  0
  -25.5936  -33.8625   24.2320 N   0  0  0  0  0  0
  -23.4063  -30.4974   21.5526 C   0  0  2  0  0  0
  -24.8492  -28.9723   20.1090 C   0  0  0  0  0  0
  -22.7427  -29.4672   22.4957 C   0  0  0  0  0  0
  -18.0282  -28.1371   22.8489 C   0  0  0  0  0  0
  -24.1487  -36.7311   23.2628 C   0  0  0  0  0  0
  -25.9420  -30.8219   21.3698 C   0  0  0  0  0  0
  -26.0158  -29.4564   20.7116 C   0  0  0  0  0  0
  -27.2018  -28.6758   20.6992 C   0  0  0  0  0  0
  -26.0284  -26.9576   19.4628 C   0  0  0  0  0  0
  -24.8541  -27.7229   19.4792 C   0  0  0  0  0  0
  -23.6153  -29.8429   20.1633 C   0  0  0  0  0  0
  -25.4107  -36.3110   24.0331 C   0  0  1  0  0  0
  -20.5873  -28.3675   23.1289 C   0  0  2  0  0  0
  -20.6787  -26.9412   22.5395 C   0  0  0  0  0  0
  -19.5763  -26.6386   21.5196 C   0  0  0  0  0  0
  -18.1934  -26.7920   22.1606 C   0  0  0  0  0  0
  -19.1532  -28.8833   23.2894 C   0  0  0  0  0  0
  -18.9467  -30.1438   23.8899 C   0  0  0  0  0  0
  -17.6472  -30.6583   24.0557 C   0  0  0  0  0  0
  -25.9050  -34.9481   23.5115 C   0  0  0  0  0  0
  -16.5362  -29.9091   23.6320 C   0  0  0  0  0  0
  -16.7270  -28.6507   23.0342 C   0  0  0  0  0  0
  -26.4493  -31.6610   25.0722 C   0  0  0  0  0  0
  -25.3753  -31.3729   26.1468 C   0  0  0  0  0  0
  -27.0322  -30.3046   24.6111 C   0  0  0  0  0  0
  -27.6063  -32.4338   25.7482 C   0  0  0  0  0  0
  -27.5596  -37.1787   24.8445 C   0  0  0  0  0  0
  -21.4151  -29.3055   22.3693 N   0  0  0  0  0  0
  -26.4276  -37.3812   23.9443 N   0  0  0  0  0  0
  -24.6746  -31.0763   22.1031 N   0  0  0  0  0  0
  -23.4185  -28.8200   23.2996 O   0  0  0  0  0  0
  -28.3859  -26.6185   20.1540 O   0  0  0  0  0  0
  -26.5597  -34.8939   22.4664 O   0  0  0  0  0  0
  -23.5371  -32.1465   23.7478 O   0  0  0  0  0  0
  -30.3117  -18.5545   20.0681 C   0  0  0  0  0  0
  -30.4272  -19.9654   20.1036 C   0  0  0  0  0  0
  -28.7646  -18.6369   21.9296 C   0  0  0  0  0  0
  -29.4580  -17.8757   20.9649 C   0  0  0  0  0  0
  -28.8773  -20.0478   21.9742 C   0  0  0  0  0  0
  -29.6904  -20.7402   21.0379 C   0  0  0  0  0  0
  -30.0652  -23.0958   20.1609 C   0  0  0  0  0  0
  -28.0847  -20.8088   23.0249 C   0  0  0  0  0  0
  -27.2964  -24.4429   20.7580 C   0  0  0  0  0  0
  -28.3241  -24.9092   18.3971 C   0  0  0  0  0  0
  -31.0428  -15.9648   22.4881 C   0  0  0  0  0  0
  -29.2085  -16.3588   20.8460 C   0  0  0  0  0  0
  -29.7665  -24.5992   20.4548 C   0  0  0  0  0  0
  -28.3971  -25.1685   19.9262 C   0  0  0  0  0  0
  -29.7193  -22.1804   21.0967 N   0  0  0  0  0  0
  -30.2202  -15.4299   21.3989 N   0  0  0  0  0  0
  -30.6342  -22.8014   19.1070 O   0  0  0  0  0  0
  -31.4616  -12.4100   19.1133 H   0  0  0  0  0  0
  -30.3140  -11.3150   19.8240 H   0  0  0  0  0  0
  -29.7329  -11.7922   17.4254 H   0  0  0  0  0  0
  -29.6531  -13.5025   17.7683 H   0  0  0  0  0  0
  -27.8296  -11.3107   18.8189 H   0  0  0  0  0  0
  -27.3615  -12.6389   17.7898 H   0  0  0  0  0  0
  -27.6923  -14.2528   19.5621 H   0  0  0  0  0  0
  -28.6893  -11.9880   21.3591 H   0  0  0  0  0  0
  -28.4673  -13.6360   21.8598 H   0  0  0  0  0  0
  -25.2757   -9.5685   22.4764 H   0  0  0  0  0  0
  -24.0001   -7.4635   22.7475 H   0  0  0  0  0  0
  -21.0845   -8.8780   19.8948 H   0  0  0  0  0  0
  -22.3704  -10.9679   19.6170 H   0  0  0  0  0  0
  -21.2010   -7.6149   23.9723 H   0  0  0  0  0  0
  -21.1481   -6.0517   25.9078 H   0  0  0  0  0  0
  -22.0599   -2.7612   23.2842 H   0  0  0  0  0  0
  -22.4097  -11.9879   22.4778 H   0  0  0  0  0  0
  -21.1120  -13.1269   22.2610 H   0  0  0  0  0  0
  -24.6556  -15.8386   20.5152 H   0  0  0  0  0  0
  -26.2712  -15.6310   20.0705 H   0  0  0  0  0  0
  -26.7134  -32.5519   23.1143 H   0  0  0  0  0  0
  -25.0148  -33.9795   25.0503 H   0  0  0  0  0  0
  -22.6972  -31.3172   21.4179 H   0  0  0  0  0  0
  -23.3768  -35.9618   23.3241 H   0  0  0  0  0  0
  -24.3600  -36.8983   22.2054 H   0  0  0  0  0  0
  -23.7211  -37.6487   23.6678 H   0  0  0  0  0  0
  -26.0599  -31.5873   20.6017 H   0  0  0  0  0  0
  -26.8293  -30.8733   21.9897 H   0  0  0  0  0  0
  -28.0976  -29.0462   21.1781 H   0  0  0  0  0  0
  -25.9421  -26.0118   18.9594 H   0  0  0  0  0  0
  -23.9623  -27.3451   18.9992 H   0  0  0  0  0  0
  -23.7303  -30.6248   19.4115 H   0  0  0  0  0  0
  -22.7358  -29.2729   19.8573 H   0  0  0  0  0  0
  -25.1271  -36.1957   25.0817 H   0  0  0  0  0  0
  -20.9974  -28.3252   24.1406 H   0  0  0  0  0  0
  -20.5691  -26.2293   23.3588 H   0  0  0  0  0  0
  -21.6665  -26.7455   22.1190 H   0  0  0  0  0  0
  -19.6944  -25.6297   21.1235 H   0  0  0  0  0  0
  -19.6706  -27.3186   20.6714 H   0  0  0  0  0  0
  -17.4216  -26.6656   21.3998 H   0  0  0  0  0  0
  -18.0344  -26.0037   22.8976 H   0  0  0  0  0  0
  -19.7942  -30.7256   24.2258 H   0  0  0  0  0  0
  -17.5037  -31.6257   24.5170 H   0  0  0  0  0  0
  -15.5373  -30.3011   23.7644 H   0  0  0  0  0  0
  -15.8662  -28.0851   22.7037 H   0  0  0  0  0  0
  -24.5911  -30.7094   25.7810 H   0  0  0  0  0  0
  -24.8957  -32.2890   26.4924 H   0  0  0  0  0  0
  -25.8100  -30.8891   27.0219 H   0  0  0  0  0  0
  -26.2860  -29.6807   24.1173 H   0  0  0  0  0  0
  -27.4103  -29.7295   25.4574 H   0  0  0  0  0  0
  -27.8697  -30.4366   23.9256 H   0  0  0  0  0  0
  -27.2686  -33.3648   26.2050 H   0  0  0  0  0  0
  -28.3877  -32.6888   25.0310 H   0  0  0  0  0  0
  -28.0724  -31.8468   26.5409 H   0  0  0  0  0  0
  -28.2536  -38.0160   24.7627 H   0  0  0  0  0  0
  -28.1175  -36.2706   24.6095 H   0  0  0  0  0  0
  -27.2343  -37.1226   25.8847 H   0  0  0  0  0  0
  -20.9313  -29.8817   21.6947 H   0  0  0  0  0  0
  -26.0155  -38.2864   24.1534 H   0  0  0  0  0  0
  -30.8609  -17.9958   19.3229 H   0  0  0  0  0  0
  -31.0844  -20.4360   19.3884 H   0  0  0  0  0  0
  -28.1133  -18.1330   22.6296 H   0  0  0  0  0  0
  -27.5131  -20.1333   23.6614 H   0  0  0  0  0  0
  -27.3792  -21.4937   22.5539 H   0  0  0  0  0  0
  -28.7516  -21.3820   23.6695 H   0  0  0  0  0  0
  -27.3254  -23.3644   20.6079 H   0  0  0  0  0  0
  -26.2699  -24.7172   20.5467 H   0  0  0  0  0  0
  -27.4453  -24.6253   21.8232 H   0  0  0  0  0  0
  -28.1983  -23.8497   18.1758 H   0  0  0  0  0  0
  -29.2494  -25.2310   17.9158 H   0  0  0  0  0  0
  -27.5336  -25.4310   17.8693 H   0  0  0  0  0  0
  -30.4263  -16.4615   23.2385 H   0  0  0  0  0  0
  -31.7727  -16.6839   22.1128 H   0  0  0  0  0  0
  -31.5908  -15.1683   22.9953 H   0  0  0  0  0  0
  -29.0587  -16.1546   19.7830 H   0  0  0  0  0  0
  -28.2553  -16.1232   21.3198 H   0  0  0  0  0  0
  -30.5801  -25.1777   20.0141 H   0  0  0  0  0  0
  -29.8538  -24.7712   21.5286 H   0  0  0  0  0  0
  -29.2828  -22.5748   21.9169 H   0  0  0  0  0  0
  1 25  1  0  0  0
  1 30  2  0  0  0
  1 86  1  0  0  0
  2  3  1  0  0  0
  2 25  1  0  0  0
  2 88  1  0  0  0
  2 89  1  0  0  0
  3  4  1  0  0  0
  3 90  1  0  0  0
  3 91  1  0  0  0
  4  5  1  0  0  0
  4 92  1  0  0  0
  4 93  1  0  0  0
  5  6  1  0  0  0
  5 26  1  0  0  0
  5 94  1  0  0  0
  6 25  1  0  0  0
  6 95  1  0  0  0
  6 96  1  0  0  0
  7  8  2  0  0  0
  7 26  1  0  0  0
  7 29  1  0  0  0
  8  9  1  0  0  0
  8 22  1  0  0  0
  9 10  1  0  0  0
  9 27  2  0  0  0
 10 11  2  0  0  0
 10 15  1  0  0  0
 11 12  1  0  0  0
 11 97  1  0  0  0
 12 13  2  0  0  0
 12 98  1  0  0  0
 13 14  1  0  0  0
 13 31  1  0  0  0
 14 15  2  0  0  0
 14 99  1  0  0  0
 15100  1  0  0  0
 16 17  2  0  0  0
 16 21  1  0  0  0
 16 31  1  0  0  0
 17 18  1  0  0  0
 17101  1  0  0  0
 18 19  2  0  0  0
 18102  1  0  0  0
 19 20  1  0  0  0
 19 24  1  0  0  0
 20 21  2  0  0  0
 20103  1  0  0  0
 21 23  1  0  0  0
 22 28  1  0  0  0
 22 32  2  0  0  0
 26 27  1  0  0  0
 28104  1  0  0  0
 28105  1  0  0  0
 29106  1  0  0  0
 29107  1  0  0  0
 33 34  1  0  0  0
 33 66  1  0  0  0
 33 70  2  0  0  0
 34 36  1  0  0  0
 34 59  1  0  0  0
 34108  1  0  0  0
 35 44  2  0  0  0
 35 45  1  0  0  0
 35 68  1  0  0  0
 36 56  1  0  0  0
 36109  1  0  0  0
 37 39  1  0  0  0
 37 47  1  0  0  0
 37 66  1  0  0  0
 37110  1  0  0  0
 38 43  2  0  0  0
 38 46  1  0  0  0
 38 47  1  0  0  0
 39 64  1  0  0  0
 39 67  2  0  0  0
 40 52  1  0  0  0
 40 53  2  0  0  0
 40 58  1  0  0  0
 41111  1  0  0  0
 41112  1  0  0  0
 41113  1  0  0  0
 41 48  1  0  0  0
 42 43  1  0  0  0
 42 66  1  0  0  0
 42114  1  0  0  0
 42115  1  0  0  0
 43 44  1  0  0  0
 44116  1  0  0  0
 45 46  2  0  0  0
 45117  1  0  0  0
 46118  1  0  0  0
 47119  1  0  0  0
 47120  1  0  0  0
 48 56  1  0  0  0
 48 65  1  0  0  0
 48121  1  0  0  0
 49 50  1  0  0  0
 49 53  1  0  0  0
 49 64  1  0  0  0
 49122  1  0  0  0
 50 51  1  0  0  0
 50123  1  0  0  0
 50124  1  0  0  0
 51 52  1  0  0  0
 51125  1  0  0  0
 51126  1  0  0  0
 52127  1  0  0  0
 52128  1  0  0  0
 53 54  1  0  0  0
 54 55  2  0  0  0
 54129  1  0  0  0
 55 57  1  0  0  0
 55130  1  0  0  0
 56 69  2  0  0  0
 57 58  2  0  0  0
 57131  1  0  0  0
 58132  1  0  0  0
 59 60  1  0  0  0
 59 61  1  0  0  0
 59 62  1  0  0  0
 60133  1  0  0  0
 60134  1  0  0  0
 60135  1  0  0  0
 61136  1  0  0  0
 61137  1  0  0  0
 61138  1  0  0  0
 62139  1  0  0  0
 62140  1  0  0  0
 62141  1  0  0  0
 63 65  1  0  0  0
 63142  1  0  0  0
 63143  1  0  0  0
 63144  1  0  0  0
 64145  1  0  0  0
 65146  1  0  0  0
 68 84  1  0  0  0
 71 72  2  0  0  0
 71 74  1  0  0  0
 71147  1  0  0  0
 72 76  1  0  0  0
 72148  1  0  0  0
 73 74  2  0  0  0
 73 75  1  0  0  0
 73149  1  0  0  0
 74 82  1  0  0  0
 75 76  2  0  0  0
 75 78  1  0  0  0
 76 85  1  0  0  0
 77 83  1  0  0  0
 77 85  1  0  0  0
 77 87  2  0  0  0
 78150  1  0  0  0
 78151  1  0  0  0
 78152  1  0  0  0
 79153  1  0  0  0
 79154  1  0  0  0
 79155  1  0  0  0
 79 84  1  0  0  0
 80 84  1  0  0  0
 80156  1  0  0  0
 80157  1  0  0  0
 80158  1  0  0  0
 81 86  1  0  0  0
 81159  1  0  0  0
 81160  1  0  0  0
 81161  1  0  0  0
 82 86  1  0  0  0
 82162  1  0  0  0
 82163  1  0  0  0
 83 84  1  0  0  0
 83164  1  0  0  0
 83165  1  0  0  0
 85166  1  0  0  0
M  ISO  4   1 100  68 101  84 101  86 100
M  END
> <chiral flag>
0

> <version>
0

> <s_m_source_file>
/data/baiqing/PycharmProjects/Reinvent-master-3.2/result/LINK_invent/BTK/process_docking_weight1_custom_product_contain_oxygen_bond_distance_aromatic_linkinvent_7_9_3/rearranged_h_0019.sdf

> <i_m_source_file_index>
42

> <r_mmod_Potential_Energy-OPLS-2005>
74.4066848754883

> <r_mmod_Stretch_Energy-OPLS-2005>
53.8722953796387

> <r_mmod_Bend_Energy-OPLS-2005>
131.238998413086

> <r_mmod_Torsional_Energy-OPLS-2005>
263.215850830078

> <r_mmod_Improper_Torsional_Energy-OPLS-2005>
4.36819267272949

> <r_mmod_Van_der_Waal_Energy-OPLS-2005>
167.234725952148

> <r_mmod_Electrostatic_Energy-OPLS-2005>
-350.769012451172

> <r_mmod_Solvation_Energy-OPLS-2005>
-212.876190185547

> <b_mmod_Minimization_Converged-OPLS-2005>
0

> <r_mmod_RMS_Derivative-OPLS-2005>
1.56135308742523

$$$$
42
                    3D
 Structure written by MMmdl.
157165  0  0  1  0            999 V2000
  -30.8088  -14.4059   20.6146 C   0  0  0  0  0  0
  -30.4021  -12.2901   19.4311 C   0  0  0  0  0  0
  -29.4850  -12.4966   18.2122 C   0  0  0  0  0  0
  -28.0134  -12.3557   18.6339 C   0  0  0  0  0  0
  -27.6643  -13.2149   19.8788 C   0  0  2  0  0  0
  -28.7082  -13.0354   21.0088 C   0  0  0  0  0  0
  -25.2597  -13.8184   20.5697 C   0  0  0  0  0  0
  -24.1841  -13.0438   20.9175 C   0  0  0  0  0  0
  -24.6413  -11.6919   20.8752 C   0  0  0  0  0  0
  -23.9078  -10.4289   21.0412 C   0  0  0  0  0  0
  -24.3623   -9.4198   21.9192 C   0  0  0  0  0  0
  -23.6284   -8.2235   22.0762 C   0  0  0  0  0  0
  -22.4271   -8.0278   21.3544 C   0  0  0  0  0  0
  -21.9918   -9.0261   20.4646 C   0  0  0  0  0  0
  -22.7255  -10.2131   20.3054 C   0  0  0  0  0  0
  -21.6853   -6.0728   22.5271 C   0  0  0  0  0  0
  -21.4013   -6.5636   23.8206 C   0  0  0  0  0  0
  -21.3657   -5.6790   24.9169 C   0  0  0  0  0  0
  -21.6042   -4.3050   24.7227 C   0  0  0  0  0  0
  -21.8825   -3.8143   23.4350 C   0  0  0  0  0  0
  -21.9195   -4.6954   22.3398 C   0  0  0  0  0  0
  -22.7857  -13.5230   21.1813 C   0  0  0  0  0  0
  -22.1662   -4.2131   21.0976 F   0  0  0  0  0  0
  -21.5633   -3.4542   25.7745 F   0  0  0  0  0  0
  -30.0489  -13.2880   20.4552 N   0  0  0  0  0  0
  -26.3047  -12.9375   20.3419 N   0  0  0  0  0  0
  -25.9344  -11.6532   20.5821 N   0  0  0  0  0  0
  -22.0511  -12.8216   22.0374 N   0  0  0  0  0  0
  -25.4325  -15.1893   20.4098 N   0  0  0  0  0  0
  -31.8359  -14.5855   19.9581 O   0  0  0  0  0  0
  -21.6644   -6.8871   21.4229 O   0  0  0  0  0  0
  -22.3543  -14.5536   20.6666 O   0  0  0  0  0  0
  -24.6125  -31.8699   23.2146 C   0  0  0  0  0  0
  -25.9044  -32.4835   23.8409 C   0  0  1  0  0  0
  -27.2351  -27.4529   20.0909 C   0  0  0  0  0  0
  -25.5924  -33.8638   24.2353 N   0  0  0  0  0  0
  -23.3993  -30.4907   21.5545 C   0  0  2  0  0  0
  -24.8442  -28.9625   20.1136 C   0  0  0  0  0  0
  -22.7401  -29.4621   22.5021 C   0  0  0  0  0  0
  -18.0252  -28.1348   22.8484 C   0  0  0  0  0  0
  -24.1487  -36.7313   23.2642 C   0  0  0  0  0  0
  -25.9242  -30.8392   21.3642 C   0  0  0  0  0  0
  -26.0002  -29.4737   20.7143 C   0  0  0  0  0  0
  -27.1964  -28.7238   20.7032 C   0  0  0  0  0  0
  -26.0616  -26.9551   19.4762 C   0  0  0  0  0  0
  -24.8675  -27.7010   19.4942 C   0  0  0  0  0  0
  -23.6083  -29.8307   20.1647 C   0  0  0  0  0  0
  -25.4111  -36.3130   24.0340 C   0  0  1  0  0  0
  -20.5846  -28.3634   23.1327 C   0  0  2  0  0  0
  -20.6761  -26.9372   22.5413 C   0  0  0  0  0  0
  -19.5743  -26.6382   21.5197 C   0  0  0  0  0  0
  -18.1916  -26.7904   22.1596 C   0  0  0  0  0  0
  -19.1504  -28.8814   23.2895 C   0  0  0  0  0  0
  -18.9438  -30.1426   23.8897 C   0  0  0  0  0  0
  -17.6449  -30.6577   24.0540 C   0  0  0  0  0  0
  -25.9035  -34.9502   23.5141 C   0  0  0  0  0  0
  -16.5342  -29.9073   23.6306 C   0  0  0  0  0  0
  -16.7245  -28.6489   23.0322 C   0  0  0  0  0  0
  -26.4506  -31.6607   25.0714 C   0  0  0  0  0  0
  -25.3781  -31.3662   26.1460 C   0  0  0  0  0  0
  -27.0294  -30.3055   24.6012 C   0  0  0  0  0  0
  -27.6073  -32.4346   25.7488 C   0  0  0  0  0  0
  -27.5585  -37.1821   24.8467 C   0  0  0  0  0  0
  -21.4130  -29.3014   22.3773 N   0  0  0  0  0  0
  -26.4304  -37.3812   23.9406 N   0  0  0  0  0  0
  -24.6628  -31.0800   22.1051 N   0  0  0  0  0  0
  -23.4186  -28.8182   23.3059 O   0  0  0  0  0  0
  -28.4347  -26.7750   20.0987 O   0  0  0  0  0  0
  -26.5578  -34.8959   22.4688 O   0  0  0  0  0  0
  -23.5322  -32.1485   23.7553 O   0  0  0  0  0  0
  -33.1949  -17.7682   22.1885 C   0  0  0  0  0  0
  -32.4706  -18.9632   22.3344 C   0  0  0  0  0  0
  -32.5136  -16.5657   21.9320 C   0  0  0  0  0  0
  -30.3787  -17.7390   22.0107 C   0  0  0  0  0  0
  -31.0607  -18.9596   22.2375 C   0  0  0  0  0  0
  -31.1002  -16.5382   21.8138 C   0  0  0  0  0  0
  -30.3009  -20.2389   22.4257 C   0  0  0  0  0  0
  -29.7560  -23.3208   20.7806 C   0  0  0  0  0  0
  -29.3020  -24.7594   21.0662 C   0  0  0  0  0  0
  -30.4329  -22.6936   22.0083 C   0  0  0  0  0  0
  -28.4578  -25.3576   19.9337 C   0  0  0  0  0  0
  -30.3982  -15.3283   21.5080 N   0  0  0  0  0  0
  -30.8111  -21.3010   21.7882 N   0  0  0  0  0  0
  -29.2904  -20.2810   23.1282 O   0  0  0  0  0  0
  -31.4492  -12.3427   19.1267 H   0  0  0  0  0  0
  -30.2735  -11.2892   19.8429 H   0  0  0  0  0  0
  -29.7223  -11.7637   17.4391 H   0  0  0  0  0  0
  -29.6573  -13.4796   17.7713 H   0  0  0  0  0  0
  -27.8352  -11.3013   18.8513 H   0  0  0  0  0  0
  -27.3551  -12.6085   17.8013 H   0  0  0  0  0  0
  -27.7008  -14.2561   19.5594 H   0  0  0  0  0  0
  -28.6701  -12.0203   21.4053 H   0  0  0  0  0  0
  -28.4692  -13.6891   21.8474 H   0  0  0  0  0  0
  -25.2764   -9.5665   22.4775 H   0  0  0  0  0  0
  -23.9985   -7.4631   22.7492 H   0  0  0  0  0  0
  -21.0852   -8.8784   19.8954 H   0  0  0  0  0  0
  -22.3726  -10.9671   19.6162 H   0  0  0  0  0  0
  -21.2005   -7.6147   23.9694 H   0  0  0  0  0  0
  -21.1474   -6.0531   25.9069 H   0  0  0  0  0  0
  -22.0610   -2.7601   23.2862 H   0  0  0  0  0  0
  -22.4136  -11.9866   22.4733 H   0  0  0  0  0  0
  -21.1122  -13.1232   22.2580 H   0  0  0  0  0  0
  -24.6713  -15.8512   20.5138 H   0  0  0  0  0  0
  -26.2959  -15.6246   20.1073 H   0  0  0  0  0  0
  -26.7112  -32.5560   23.1163 H   0  0  0  0  0  0
  -25.0133  -33.9789   25.0534 H   0  0  0  0  0  0
  -22.6888  -31.3069   21.4189 H   0  0  0  0  0  0
  -23.3758  -35.9635   23.3307 H   0  0  0  0  0  0
  -24.3584  -36.8915   22.2057 H   0  0  0  0  0  0
  -23.7235  -37.6522   23.6636 H   0  0  0  0  0  0
  -26.0282  -31.6035   20.5933 H   0  0  0  0  0  0
  -26.8164  -30.8998   21.9741 H   0  0  0  0  0  0
  -28.0944  -29.1155   21.1639 H   0  0  0  0  0  0
  -26.0478  -26.0100   18.9534 H   0  0  0  0  0  0
  -23.9805  -27.3059   19.0175 H   0  0  0  0  0  0
  -23.7275  -30.6125   19.4138 H   0  0  0  0  0  0
  -22.7304  -29.2588   19.8588 H   0  0  0  0  0  0
  -25.1278  -36.2012   25.0829 H   0  0  0  0  0  0
  -20.9907  -28.3205   24.1450 H   0  0  0  0  0  0
  -20.5710  -26.2219   23.3596 H   0  0  0  0  0  0
  -21.6629  -26.7470   22.1162 H   0  0  0  0  0  0
  -19.6913  -25.6307   21.1191 H   0  0  0  0  0  0
  -19.6676  -27.3225   20.6754 H   0  0  0  0  0  0
  -17.4184  -26.6649   21.3987 H   0  0  0  0  0  0
  -18.0281  -26.0045   22.8979 H   0  0  0  0  0  0
  -19.7935  -30.7206   24.2287 H   0  0  0  0  0  0
  -17.5021  -31.6248   24.5165 H   0  0  0  0  0  0
  -15.5347  -30.2971   23.7671 H   0  0  0  0  0  0
  -15.8632  -28.0838   22.7018 H   0  0  0  0  0  0
  -24.5967  -30.6996   25.7798 H   0  0  0  0  0  0
  -24.8951  -32.2782   26.4972 H   0  0  0  0  0  0
  -25.8169  -30.8804   27.0177 H   0  0  0  0  0  0
  -26.2752  -29.6845   24.1156 H   0  0  0  0  0  0
  -27.4171  -29.7280   25.4412 H   0  0  0  0  0  0
  -27.8567  -30.4367   23.9034 H   0  0  0  0  0  0
  -27.2652  -33.3636   26.2066 H   0  0  0  0  0  0
  -28.3886  -32.6938   25.0327 H   0  0  0  0  0  0
  -28.0723  -31.8467   26.5408 H   0  0  0  0  0  0
  -28.2613  -38.0128   24.7538 H   0  0  0  0  0  0
  -28.1084  -36.2643   24.6265 H   0  0  0  0  0  0
  -27.2281  -37.1452   25.8877 H   0  0  0  0  0  0
  -20.9329  -29.8735   21.6973 H   0  0  0  0  0  0
  -26.0193  -38.2888   24.1422 H   0  0  0  0  0  0
  -34.2746  -17.7719   22.2683 H   0  0  0  0  0  0
  -33.0064  -19.8811   22.5395 H   0  0  0  0  0  0
  -33.1010  -15.6642   21.8178 H   0  0  0  0  0  0
  -29.2985  -17.7456   21.9511 H   0  0  0  0  0  0
  -30.4465  -23.3280   19.9353 H   0  0  0  0  0  0
  -28.9024  -22.7156   20.4745 H   0  0  0  0  0  0
  -30.1807  -25.3773   21.2504 H   0  0  0  0  0  0
  -28.7207  -24.7870   21.9893 H   0  0  0  0  0  0
  -29.7888  -22.7863   22.8842 H   0  0  0  0  0  0
  -31.3375  -23.2527   22.2464 H   0  0  0  0  0  0
  -27.4810  -24.8751   19.9710 H   0  0  0  0  0  0
  -28.9013  -25.1326   18.9626 H   0  0  0  0  0  0
  -29.4852  -15.1974   21.9148 H   0  0  0  0  0  0
  -31.5896  -21.1199   21.1674 H   0  0  0  0  0  0
  1 25  1  0  0  0
  1 30  2  0  0  0
  1 82  1  0  0  0
  2  3  1  0  0  0
  2 25  1  0  0  0
  2 85  1  0  0  0
  2 86  1  0  0  0
  3  4  1  0  0  0
  3 87  1  0  0  0
  3 88  1  0  0  0
  4  5  1  0  0  0
  4 89  1  0  0  0
  4 90  1  0  0  0
  5  6  1  0  0  0
  5 26  1  0  0  0
  5 91  1  0  0  0
  6 25  1  0  0  0
  6 92  1  0  0  0
  6 93  1  0  0  0
  7  8  2  0  0  0
  7 26  1  0  0  0
  7 29  1  0  0  0
  8  9  1  0  0  0
  8 22  1  0  0  0
  9 10  1  0  0  0
  9 27  2  0  0  0
 10 11  2  0  0  0
 10 15  1  0  0  0
 11 12  1  0  0  0
 11 94  1  0  0  0
 12 13  2  0  0  0
 12 95  1  0  0  0
 13 14  1  0  0  0
 13 31  1  0  0  0
 14 15  2  0  0  0
 14 96  1  0  0  0
 15 97  1  0  0  0
 16 17  2  0  0  0
 16 21  1  0  0  0
 16 31  1  0  0  0
 17 18  1  0  0  0
 17 98  1  0  0  0
 18 19  2  0  0  0
 18 99  1  0  0  0
 19 20  1  0  0  0
 19 24  1  0  0  0
 20 21  2  0  0  0
 20100  1  0  0  0
 21 23  1  0  0  0
 22 28  1  0  0  0
 22 32  2  0  0  0
 26 27  1  0  0  0
 28101  1  0  0  0
 28102  1  0  0  0
 29103  1  0  0  0
 29104  1  0  0  0
 33 34  1  0  0  0
 33 66  1  0  0  0
 33 70  2  0  0  0
 34 36  1  0  0  0
 34 59  1  0  0  0
 34105  1  0  0  0
 35 44  2  0  0  0
 35 45  1  0  0  0
 35 68  1  0  0  0
 36 56  1  0  0  0
 36106  1  0  0  0
 37 39  1  0  0  0
 37 47  1  0  0  0
 37 66  1  0  0  0
 37107  1  0  0  0
 38 43  2  0  0  0
 38 46  1  0  0  0
 38 47  1  0  0  0
 39 64  1  0  0  0
 39 67  2  0  0  0
 40 52  1  0  0  0
 40 53  2  0  0  0
 40 58  1  0  0  0
 41108  1  0  0  0
 41109  1  0  0  0
 41110  1  0  0  0
 41 48  1  0  0  0
 42 43  1  0  0  0
 42 66  1  0  0  0
 42111  1  0  0  0
 42112  1  0  0  0
 43 44  1  0  0  0
 44113  1  0  0  0
 45 46  2  0  0  0
 45114  1  0  0  0
 46115  1  0  0  0
 47116  1  0  0  0
 47117  1  0  0  0
 48 56  1  0  0  0
 48 65  1  0  0  0
 48118  1  0  0  0
 49 50  1  0  0  0
 49 53  1  0  0  0
 49 64  1  0  0  0
 49119  1  0  0  0
 50 51  1  0  0  0
 50120  1  0  0  0
 50121  1  0  0  0
 51 52  1  0  0  0
 51122  1  0  0  0
 51123  1  0  0  0
 52124  1  0  0  0
 52125  1  0  0  0
 53 54  1  0  0  0
 54 55  2  0  0  0
 54126  1  0  0  0
 55 57  1  0  0  0
 55127  1  0  0  0
 56 69  2  0  0  0
 57 58  2  0  0  0
 57128  1  0  0  0
 58129  1  0  0  0
 59 60  1  0  0  0
 59 61  1  0  0  0
 59 62  1  0  0  0
 60130  1  0  0  0
 60131  1  0  0  0
 60132  1  0  0  0
 61133  1  0  0  0
 61134  1  0  0  0
 61135  1  0  0  0
 62136  1  0  0  0
 62137  1  0  0  0
 62138  1  0  0  0
 63 65  1  0  0  0
 63139  1  0  0  0
 63140  1  0  0  0
 63141  1  0  0  0
 64142  1  0  0  0
 65143  1  0  0  0
 68 81  1  0  0  0
 71 72  2  0  0  0
 71 73  1  0  0  0
 71144  1  0  0  0
 72 75  1  0  0  0
 72145  1  0  0  0
 73 76  2  0  0  0
 73146  1  0  0  0
 74 75  2  0  0  0
 74 76  1  0  0  0
 74147  1  0  0  0
 75 77  1  0  0  0
 76 82  1  0  0  0
 77 83  1  0  0  0
 77 84  2  0  0  0
 78 79  1  0  0  0
 78 80  1  0  0  0
 78148  1  0  0  0
 78149  1  0  0  0
 79 81  1  0  0  0
 79150  1  0  0  0
 79151  1  0  0  0
 80 83  1  0  0  0
 80152  1  0  0  0
 80153  1  0  0  0
 81154  1  0  0  0
 81155  1  0  0  0
 82156  1  0  0  0
 83157  1  0  0  0
M  ISO  4   1 100  68 101  81 101  82 100
M  END
> <chiral flag>
0

> <version>
0

> <s_m_source_file>
/data/baiqing/PycharmProjects/Reinvent-master-3.2/result/LINK_invent/BTK/process_docking_weight1_custom_product_contain_oxygen_bond_distance_aromatic_linkinvent_7_9_3/rearranged_h_0019.sdf

> <i_m_source_file_index>
43

> <r_mmod_Potential_Energy-OPLS-2005>
-120.534523010254

> <r_mmod_Stretch_Energy-OPLS-2005>
34.2773170471191

> <r_mmod_Bend_Energy-OPLS-2005>
97.4316787719727

> <r_mmod_Torsional_Energy-OPLS-2005>
228.261764526367

> <r_mmod_Improper_Torsional_Energy-OPLS-2005>
1.94049167633057

> <r_mmod_Van_der_Waal_Energy-OPLS-2005>
166.155792236328

> <r_mmod_Electrostatic_Energy-OPLS-2005>
-432.180847167969

> <r_mmod_Solvation_Energy-OPLS-2005>
-228.631439208984

> <b_mmod_Minimization_Converged-OPLS-2005>
0

> <r_mmod_RMS_Derivative-OPLS-2005>
3.67431449890137

$$$$
43
                    3D
 Structure written by MMmdl.
147155  0  0  1  0            999 V2000
  -30.4083  -15.3200   20.3525 C   0  0  0  0  0  0
  -30.4370  -12.8399   19.5474 C   0  0  0  0  0  0
  -29.5427  -12.5933   18.3043 C   0  0  0  0  0  0
  -28.0923  -12.3061   18.7262 C   0  0  0  0  0  0
  -27.6116  -13.2822   19.8280 C   0  0  2  0  0  0
  -28.6382  -13.4730   20.9667 C   0  0  0  0  0  0
  -25.2379  -13.8260   20.5758 C   0  0  0  0  0  0
  -24.1735  -13.0439   20.9258 C   0  0  0  0  0  0
  -24.6399  -11.6939   20.8757 C   0  0  0  0  0  0
  -23.9096  -10.4295   21.0402 C   0  0  0  0  0  0
  -24.3638   -9.4208   21.9183 C   0  0  0  0  0  0
  -23.6305   -8.2246   22.0756 C   0  0  0  0  0  0
  -22.4286   -8.0286   21.3547 C   0  0  0  0  0  0
  -21.9927   -9.0260   20.4647 C   0  0  0  0  0  0
  -22.7263  -10.2135   20.3054 C   0  0  0  0  0  0
  -21.6857   -6.0740   22.5280 C   0  0  0  0  0  0
  -21.4019   -6.5642   23.8213 C   0  0  0  0  0  0
  -21.3659   -5.6794   24.9174 C   0  0  0  0  0  0
  -21.6043   -4.3056   24.7225 C   0  0  0  0  0  0
  -21.8817   -3.8149   23.4346 C   0  0  0  0  0  0
  -21.9193   -4.6966   22.3402 C   0  0  0  0  0  0
  -22.7751  -13.5187   21.1902 C   0  0  0  0  0  0
  -22.1661   -4.2152   21.0979 F   0  0  0  0  0  0
  -21.5625   -3.4540   25.7737 F   0  0  0  0  0  0
  -29.8709  -13.9929   20.3507 N   0  0  0  0  0  0
  -26.2813  -12.9547   20.3232 N   0  0  0  0  0  0
  -25.9339  -11.6643   20.5718 N   0  0  0  0  0  0
  -22.0409  -12.8171   22.0457 N   0  0  0  0  0  0
  -25.4009  -15.1998   20.4208 N   0  0  0  0  0  0
  -31.6183  -15.3222   20.0759 O   0  0  0  0  0  0
  -21.6645   -6.8886   21.4243 O   0  0  0  0  0  0
  -22.3428  -14.5487   20.6740 O   0  0  0  0  0  0
  -24.6655  -31.8187   23.1665 C   0  0  0  0  0  0
  -25.9321  -32.4561   23.8145 C   0  0  1  0  0  0
  -27.2226  -26.8902   20.1883 C   0  0  0  0  0  0
  -25.5973  -33.8379   24.2046 N   0  0  0  0  0  0
  -23.4825  -30.4275   21.5156 C   0  0  2  0  0  0
  -24.9379  -28.8065   20.1081 C   0  0  0  0  0  0
  -22.7680  -29.4410   22.4763 C   0  0  0  0  0  0
  -18.0323  -28.1410   22.8466 C   0  0  0  0  0  0
  -24.1494  -36.7197   23.2650 C   0  0  0  0  0  0
  -26.0524  -30.6118   21.4036 C   0  0  0  0  0  0
  -26.1192  -29.1977   20.7488 C   0  0  0  0  0  0
  -27.2504  -28.2594   20.7667 C   0  0  0  0  0  0
  -26.0161  -26.6629   19.4869 C   0  0  0  0  0  0
  -24.9142  -27.5613   19.4565 C   0  0  0  0  0  0
  -23.7246  -29.7380   20.1429 C   0  0  0  0  0  0
  -25.4137  -36.2953   24.0295 C   0  0  1  0  0  0
  -20.5950  -28.3756   23.1181 C   0  0  2  0  0  0
  -20.6796  -26.9433   22.5405 C   0  0  0  0  0  0
  -19.5772  -26.6375   21.5215 C   0  0  0  0  0  0
  -18.1954  -26.7942   22.1623 C   0  0  0  0  0  0
  -19.1586  -28.8905   23.2808 C   0  0  0  0  0  0
  -18.9496  -30.1493   23.8846 C   0  0  0  0  0  0
  -17.6489  -30.6598   24.0554 C   0  0  0  0  0  0
  -25.9103  -34.9335   23.4997 C   0  0  0  0  0  0
  -16.5379  -29.9085   23.6344 C   0  0  0  0  0  0
  -16.7306  -28.6505   23.0365 C   0  0  0  0  0  0
  -26.4562  -31.6528   25.0693 C   0  0  0  0  0  0
  -25.3679  -31.3791   26.1343 C   0  0  0  0  0  0
  -27.0471  -30.2890   24.6462 C   0  0  0  0  0  0
  -27.6041  -32.4353   25.7500 C   0  0  0  0  0  0
  -27.5565  -37.1760   24.8470 C   0  0  0  0  0  0
  -21.4346  -29.3036   22.3519 N   0  0  0  0  0  0
  -26.4282  -37.3690   23.9400 N   0  0  0  0  0  0
  -24.7549  -30.9813   22.0819 N   0  0  0  0  0  0
  -23.4210  -28.7991   23.3027 O   0  0  0  0  0  0
  -28.2233  -25.7770   20.3225 O   0  0  0  0  0  0
  -26.5724  -34.8878   22.4601 O   0  0  0  0  0  0
  -23.5718  -32.1177   23.6736 O   0  0  0  0  0  0
  -30.5732  -18.4886   19.0539 C   0  0  0  0  0  0
  -30.7072  -19.7985   18.5142 C   0  0  0  0  0  0
  -29.0567  -19.4949   20.6364 C   0  0  0  0  0  0
  -29.1802  -20.9575   20.1086 C   0  0  0  0  0  0
  -29.7366  -18.1795   20.1487 C   0  0  0  0  0  0
  -30.0562  -20.9664   19.0004 C   0  0  0  0  0  0
  -28.6363  -22.5511   20.6627 C   0  0  0  0  0  0
  -28.2079  -24.1580   19.8954 C   0  0  0  0  0  0
  -29.6402  -16.5937   20.5409 N   0  0  0  0  0  0
  -30.3193  -22.1454   18.3894 F   0  0  0  0  0  0
  -31.4574  -13.0418   19.2193 H   0  0  0  0  0  0
  -30.5061  -11.9383   20.1584 H   0  0  0  0  0  0
  -29.9332  -11.7659   17.7103 H   0  0  0  0  0  0
  -29.5683  -13.4736   17.6600 H   0  0  0  0  0  0
  -28.0550  -11.2834   19.1032 H   0  0  0  0  0  0
  -27.4267  -12.3401   17.8630 H   0  0  0  0  0  0
  -27.5229  -14.2458   19.3247 H   0  0  0  0  0  0
  -28.8108  -12.5432   21.5106 H   0  0  0  0  0  0
  -28.2643  -14.1931   21.6961 H   0  0  0  0  0  0
  -25.2779   -9.5683   22.4765 H   0  0  0  0  0  0
  -24.0008   -7.4638   22.7479 H   0  0  0  0  0  0
  -21.0855   -8.8784   19.8955 H   0  0  0  0  0  0
  -22.3720  -10.9676   19.6166 H   0  0  0  0  0  0
  -21.2016   -7.6151   23.9718 H   0  0  0  0  0  0
  -21.1481   -6.0524   25.9077 H   0  0  0  0  0  0
  -22.0596   -2.7612   23.2845 H   0  0  0  0  0  0
  -22.4040  -11.9844   22.4853 H   0  0  0  0  0  0
  -21.1021  -13.1181   22.2659 H   0  0  0  0  0  0
  -24.6293  -15.8483   20.5337 H   0  0  0  0  0  0
  -26.2409  -15.6429   20.0718 H   0  0  0  0  0  0
  -26.7390  -32.5085   23.0856 H   0  0  0  0  0  0
  -25.0054  -33.9450   25.0153 H   0  0  0  0  0  0
  -22.7975  -31.2598   21.3410 H   0  0  0  0  0  0
  -23.3763  -35.9521   23.3293 H   0  0  0  0  0  0
  -24.3562  -36.8866   22.2067 H   0  0  0  0  0  0
  -23.7250  -37.6377   23.6724 H   0  0  0  0  0  0
  -26.2377  -31.3501   20.6222 H   0  0  0  0  0  0
  -26.9105  -30.6700   22.0612 H   0  0  0  0  0  0
  -28.1391  -28.5539   21.3068 H   0  0  0  0  0  0
  -25.8816  -25.7136   18.9904 H   0  0  0  0  0  0
  -24.0179  -27.2567   18.9336 H   0  0  0  0  0  0
  -23.8811  -30.5046   19.3831 H   0  0  0  0  0  0
  -22.8338  -29.1929   19.8259 H   0  0  0  0  0  0
  -25.1341  -36.1745   25.0787 H   0  0  0  0  0  0
  -21.0039  -28.3370   24.1304 H   0  0  0  0  0  0
  -20.5671  -26.2377   23.3649 H   0  0  0  0  0  0
  -21.6659  -26.7400   22.1215 H   0  0  0  0  0  0
  -19.6929  -25.6272   21.1278 H   0  0  0  0  0  0
  -19.6712  -27.3156   20.6721 H   0  0  0  0  0  0
  -17.4223  -26.6685   21.4026 H   0  0  0  0  0  0
  -18.0348  -26.0094   22.9030 H   0  0  0  0  0  0
  -19.7971  -30.7321   24.2194 H   0  0  0  0  0  0
  -17.5040  -31.6273   24.5166 H   0  0  0  0  0  0
  -15.5377  -30.2972   23.7695 H   0  0  0  0  0  0
  -15.8706  -28.0804   22.7113 H   0  0  0  0  0  0
  -24.5878  -30.7123   25.7652 H   0  0  0  0  0  0
  -24.8850  -32.2996   26.4631 H   0  0  0  0  0  0
  -25.7901  -30.9048   27.0212 H   0  0  0  0  0  0
  -26.3150  -29.6548   24.1452 H   0  0  0  0  0  0
  -27.3967  -29.7275   25.5137 H   0  0  0  0  0  0
  -27.9103  -30.4060   23.9909 H   0  0  0  0  0  0
  -27.2597  -33.3700   26.1937 H   0  0  0  0  0  0
  -28.3924  -32.6844   25.0383 H   0  0  0  0  0  0
  -28.0631  -31.8578   26.5535 H   0  0  0  0  0  0
  -28.2580  -38.0056   24.7487 H   0  0  0  0  0  0
  -28.1063  -36.2580   24.6339 H   0  0  0  0  0  0
  -27.2273  -37.1450   25.8871 H   0  0  0  0  0  0
  -20.9610  -29.8714   21.6631 H   0  0  0  0  0  0
  -26.0127  -38.2751   24.1391 H   0  0  0  0  0  0
  -31.1255  -17.6917   18.5765 H   0  0  0  0  0  0
  -31.3660  -19.9200   17.6670 H   0  0  0  0  0  0
  -28.4066  -19.3794   21.4918 H   0  0  0  0  0  0
  -29.4438  -22.8174   21.3443 H   0  0  0  0  0  0
  -27.8054  -22.3271   21.3311 H   0  0  0  0  0  0
  -27.2279  -23.9923   19.4511 H   0  0  0  0  0  0
  -28.8691  -24.1892   19.0301 H   0  0  0  0  0  0
  -28.7483  -16.3750   20.9609 H   0  0  0  0  0  0
  1 25  1  0  0  0
  1 30  2  0  0  0
  1 79  1  0  0  0
  2  3  1  0  0  0
  2 25  1  0  0  0
  2 81  1  0  0  0
  2 82  1  0  0  0
  3  4  1  0  0  0
  3 83  1  0  0  0
  3 84  1  0  0  0
  4  5  1  0  0  0
  4 85  1  0  0  0
  4 86  1  0  0  0
  5  6  1  0  0  0
  5 26  1  0  0  0
  5 87  1  0  0  0
  6 25  1  0  0  0
  6 88  1  0  0  0
  6 89  1  0  0  0
  7  8  2  0  0  0
  7 26  1  0  0  0
  7 29  1  0  0  0
  8  9  1  0  0  0
  8 22  1  0  0  0
  9 10  1  0  0  0
  9 27  2  0  0  0
 10 11  2  0  0  0
 10 15  1  0  0  0
 11 12  1  0  0  0
 11 90  1  0  0  0
 12 13  2  0  0  0
 12 91  1  0  0  0
 13 14  1  0  0  0
 13 31  1  0  0  0
 14 15  2  0  0  0
 14 92  1  0  0  0
 15 93  1  0  0  0
 16 17  2  0  0  0
 16 21  1  0  0  0
 16 31  1  0  0  0
 17 18  1  0  0  0
 17 94  1  0  0  0
 18 19  2  0  0  0
 18 95  1  0  0  0
 19 20  1  0  0  0
 19 24  1  0  0  0
 20 21  2  0  0  0
 20 96  1  0  0  0
 21 23  1  0  0  0
 22 28  1  0  0  0
 22 32  2  0  0  0
 26 27  1  0  0  0
 28 97  1  0  0  0
 28 98  1  0  0  0
 29 99  1  0  0  0
 29100  1  0  0  0
 33 34  1  0  0  0
 33 66  1  0  0  0
 33 70  2  0  0  0
 34 36  1  0  0  0
 34 59  1  0  0  0
 34101  1  0  0  0
 35 44  2  0  0  0
 35 45  1  0  0  0
 35 68  1  0  0  0
 36 56  1  0  0  0
 36102  1  0  0  0
 37 39  1  0  0  0
 37 47  1  0  0  0
 37 66  1  0  0  0
 37103  1  0  0  0
 38 43  2  0  0  0
 38 46  1  0  0  0
 38 47  1  0  0  0
 39 64  1  0  0  0
 39 67  2  0  0  0
 40 52  1  0  0  0
 40 53  2  0  0  0
 40 58  1  0  0  0
 41104  1  0  0  0
 41105  1  0  0  0
 41106  1  0  0  0
 41 48  1  0  0  0
 42 43  1  0  0  0
 42 66  1  0  0  0
 42107  1  0  0  0
 42108  1  0  0  0
 43 44  1  0  0  0
 44109  1  0  0  0
 45 46  2  0  0  0
 45110  1  0  0  0
 46111  1  0  0  0
 47112  1  0  0  0
 47113  1  0  0  0
 48 56  1  0  0  0
 48 65  1  0  0  0
 48114  1  0  0  0
 49 50  1  0  0  0
 49 53  1  0  0  0
 49 64  1  0  0  0
 49115  1  0  0  0
 50 51  1  0  0  0
 50116  1  0  0  0
 50117  1  0  0  0
 51 52  1  0  0  0
 51118  1  0  0  0
 51119  1  0  0  0
 52120  1  0  0  0
 52121  1  0  0  0
 53 54  1  0  0  0
 54 55  2  0  0  0
 54122  1  0  0  0
 55 57  1  0  0  0
 55123  1  0  0  0
 56 69  2  0  0  0
 57 58  2  0  0  0
 57124  1  0  0  0
 58125  1  0  0  0
 59 60  1  0  0  0
 59 61  1  0  0  0
 59 62  1  0  0  0
 60126  1  0  0  0
 60127  1  0  0  0
 60128  1  0  0  0
 61129  1  0  0  0
 61130  1  0  0  0
 61131  1  0  0  0
 62132  1  0  0  0
 62133  1  0  0  0
 62134  1  0  0  0
 63 65  1  0  0  0
 63135  1  0  0  0
 63136  1  0  0  0
 63137  1  0  0  0
 64138  1  0  0  0
 65139  1  0  0  0
 68 78  1  0  0  0
 71 72  2  0  0  0
 71 75  1  0  0  0
 71140  1  0  0  0
 72 76  1  0  0  0
 72141  1  0  0  0
 73 74  1  0  0  0
 73 75  2  0  0  0
 73142  1  0  0  0
 74 76  2  0  0  0
 74 77  1  0  0  0
 75 79  1  0  0  0
 76 80  1  0  0  0
 77 78  1  0  0  0
 77143  1  0  0  0
 77144  1  0  0  0
 78145  1  0  0  0
 78146  1  0  0  0
 79147  1  0  0  0
M  ISO  4   1 100  68 101  78 101  79 100
M  END
> <chiral flag>
0

> <version>
0

> <s_m_source_file>
/data/baiqing/PycharmProjects/Reinvent-master-3.2/result/LINK_invent/BTK/process_docking_weight1_custom_product_contain_oxygen_bond_distance_aromatic_linkinvent_7_9_3/rearranged_h_0019.sdf

> <i_m_source_file_index>
44

> <r_mmod_Potential_Energy-OPLS-2005>
1385.36096191406

> <r_mmod_Stretch_Energy-OPLS-2005>
650.702453613281

> <r_mmod_Bend_Energy-OPLS-2005>
447.885131835938

> <r_mmod_Torsional_Energy-OPLS-2005>
224.298965454102

> <r_mmod_Improper_Torsional_Energy-OPLS-2005>
3.52688765525818

> <r_mmod_Van_der_Waal_Energy-OPLS-2005>
124.427864074707

> <r_mmod_Electrostatic_Energy-OPLS-2005>
-373.795837402344

> <r_mmod_Solvation_Energy-OPLS-2005>
-208.919998168945

> <b_mmod_Minimization_Converged-OPLS-2005>
0

> <r_mmod_RMS_Derivative-OPLS-2005>
0.260414361953735

$$$$
44
                    3D
 Structure written by MMmdl.
144152  0  0  1  0            999 V2000
  -30.2476  -15.7719   20.3179 C   0  0  0  0  0  0
  -30.4158  -13.1841   19.5403 C   0  0  0  0  0  0
  -29.5560  -12.6900   18.3374 C   0  0  0  0  0  0
  -28.1403  -12.3029   18.7877 C   0  0  0  0  0  0
  -27.5911  -13.3208   19.8102 C   0  0  2  0  0  0
  -28.5988  -13.7116   20.9202 C   0  0  0  0  0  0
  -25.2301  -13.8299   20.5814 C   0  0  0  0  0  0
  -24.1704  -13.0432   20.9300 C   0  0  0  0  0  0
  -24.6424  -11.6949   20.8764 C   0  0  0  0  0  0
  -23.9129  -10.4292   21.0392 C   0  0  0  0  0  0
  -24.3660   -9.4205   21.9177 C   0  0  0  0  0  0
  -23.6317   -8.2248   22.0753 C   0  0  0  0  0  0
  -22.4297   -8.0289   21.3544 C   0  0  0  0  0  0
  -21.9946   -9.0265   20.4643 C   0  0  0  0  0  0
  -22.7293  -10.2134   20.3046 C   0  0  0  0  0  0
  -21.6860   -6.0743   22.5279 C   0  0  0  0  0  0
  -21.4020   -6.5644   23.8213 C   0  0  0  0  0  0
  -21.3661   -5.6794   24.9174 C   0  0  0  0  0  0
  -21.6044   -4.3057   24.7223 C   0  0  0  0  0  0
  -21.8818   -3.8151   23.4343 C   0  0  0  0  0  0
  -21.9195   -4.6969   22.3401 C   0  0  0  0  0  0
  -22.7712  -13.5151   21.1929 C   0  0  0  0  0  0
  -22.1662   -4.2154   21.0978 F   0  0  0  0  0  0
  -21.5628   -3.4540   25.7735 F   0  0  0  0  0  0
  -29.7492  -14.3786   20.2543 N   0  0  0  0  0  0
  -26.2763  -12.9655   20.3248 N   0  0  0  0  0  0
  -25.9375  -11.6712   20.5691 N   0  0  0  0  0  0
  -22.0381  -12.8125   22.0480 N   0  0  0  0  0  0
  -25.3870  -15.2043   20.4256 N   0  0  0  0  0  0
  -31.4876  -15.6916   20.1836 O   0  0  0  0  0  0
  -21.6650   -6.8891   21.4243 O   0  0  0  0  0  0
  -22.3383  -14.5448   20.6763 O   0  0  0  0  0  0
  -24.6940  -31.7880   23.1427 C   0  0  0  0  0  0
  -25.9471  -32.4408   23.8012 C   0  0  1  0  0  0
  -27.2313  -26.5981   20.2263 C   0  0  0  0  0  0
  -25.6007  -33.8238   24.1891 N   0  0  0  0  0  0
  -23.5250  -30.3851   21.4992 C   0  0  2  0  0  0
  -24.9837  -28.7035   20.1222 C   0  0  0  0  0  0
  -22.7813  -29.4253   22.4683 C   0  0  0  0  0  0
  -18.0345  -28.1428   22.8450 C   0  0  0  0  0  0
  -24.1497  -36.7128   23.2654 C   0  0  0  0  0  0
  -26.1102  -30.4868   21.4225 C   0  0  0  0  0  0
  -26.1751  -29.0397   20.7754 C   0  0  0  0  0  0
  -27.2794  -28.0188   20.7901 C   0  0  0  0  0  0
  -26.0048  -26.4978   19.5142 C   0  0  0  0  0  0
  -24.9439  -27.4598   19.4668 C   0  0  0  0  0  0
  -23.7849  -29.6718   20.1395 C   0  0  0  0  0  0
  -25.4150  -36.2861   24.0274 C   0  0  1  0  0  0
  -20.5986  -28.3794   23.1122 C   0  0  2  0  0  0
  -20.6806  -26.9443   22.5405 C   0  0  0  0  0  0
  -19.5784  -26.6369   21.5218 C   0  0  0  0  0  0
  -18.1967  -26.7953   22.1618 C   0  0  0  0  0  0
  -19.1614  -28.8938   23.2763 C   0  0  0  0  0  0
  -18.9516  -30.1518   23.8814 C   0  0  0  0  0  0
  -17.6505  -30.6607   24.0549 C   0  0  0  0  0  0
  -25.9138  -34.9254   23.4927 C   0  0  0  0  0  0
  -16.5394  -29.9087   23.6354 C   0  0  0  0  0  0
  -16.7324  -28.6510   23.0369 C   0  0  0  0  0  0
  -26.4615  -31.6485   25.0678 C   0  0  0  0  0  0
  -25.3653  -31.3832   26.1275 C   0  0  0  0  0  0
  -27.0562  -30.2812   24.6651 C   0  0  0  0  0  0
  -27.6043  -32.4369   25.7505 C   0  0  0  0  0  0
  -27.5563  -37.1717   24.8463 C   0  0  0  0  0  0
  -21.4450  -29.3020   22.3430 N   0  0  0  0  0  0
  -26.4266  -37.3635   23.9410 N   0  0  0  0  0  0
  -24.8011  -30.9222   22.0738 N   0  0  0  0  0  0
  -23.4206  -28.7871   23.3078 O   0  0  0  0  0  0
  -28.1817  -25.3316   20.2917 O   0  0  0  0  0  0
  -26.5792  -34.8852   22.4554 O   0  0  0  0  0  0
  -23.5937  -32.1002   23.6316 O   0  0  0  0  0  0
  -30.9006  -19.4483   20.3715 C   0  0  0  0  0  0
  -31.2264  -20.8462   20.3803 C   0  0  0  0  0  0
  -28.9236  -21.8769   20.2817 C   0  0  0  0  0  0
  -29.5874  -18.9219   20.3228 C   0  0  0  0  0  0
  -30.3361  -21.9720   20.3396 C   0  0  0  0  0  0
  -28.6385  -20.2594   20.2780 C   0  0  0  0  0  0
  -27.9602  -23.5335   20.1993 C   0  0  0  0  0  0
  -29.4674  -17.1609   20.3375 N   0  0  0  0  0  0
  -30.8908  -23.2078   20.3523 F   0  0  0  0  0  0
  -27.3192  -19.9562   20.2224 F   0  0  0  0  0  0
  -31.3971  -13.4692   19.1599 H   0  0  0  0  0  0
  -30.6131  -12.3670   20.2364 H   0  0  0  0  0  0
  -30.0388  -11.8473   17.8407 H   0  0  0  0  0  0
  -29.4924  -13.4879   17.5961 H   0  0  0  0  0  0
  -28.1931  -11.3168   19.2508 H   0  0  0  0  0  0
  -27.4724  -12.2083   17.9306 H   0  0  0  0  0  0
  -27.4345  -14.2233   19.2175 H   0  0  0  0  0  0
  -28.8918  -12.8523   21.5255 H   0  0  0  0  0  0
  -28.1386  -14.4239   21.6067 H   0  0  0  0  0  0
  -25.2798   -9.5678   22.4764 H   0  0  0  0  0  0
  -24.0017   -7.4640   22.7479 H   0  0  0  0  0  0
  -21.0876   -8.8793   19.8948 H   0  0  0  0  0  0
  -22.3752  -10.9675   19.6158 H   0  0  0  0  0  0
  -21.2014   -7.6152   23.9718 H   0  0  0  0  0  0
  -21.1484   -6.0524   25.9077 H   0  0  0  0  0  0
  -22.0595   -2.7613   23.2842 H   0  0  0  0  0  0
  -22.4030  -11.9806   22.4878 H   0  0  0  0  0  0
  -21.0983  -13.1111   22.2673 H   0  0  0  0  0  0
  -24.6128  -15.8500   20.5384 H   0  0  0  0  0  0
  -26.2236  -15.6481   20.0717 H   0  0  0  0  0  0
  -26.7563  -32.4854   23.0729 H   0  0  0  0  0  0
  -25.0048  -33.9257   24.9973 H   0  0  0  0  0  0
  -22.8564  -31.2251   21.3000 H   0  0  0  0  0  0
  -23.3785  -35.9428   23.3243 H   0  0  0  0  0  0
  -24.3565  -36.8871   22.2083 H   0  0  0  0  0  0
  -23.7228  -37.6270   23.6787 H   0  0  0  0  0  0
  -26.3228  -31.2041   20.6287 H   0  0  0  0  0  0
  -26.9575  -30.5599   22.0916 H   0  0  0  0  0  0
  -28.1746  -28.2875   21.3330 H   0  0  0  0  0  0
  -25.8202  -25.5627   19.0047 H   0  0  0  0  0  0
  -24.0479  -27.1917   18.9238 H   0  0  0  0  0  0
  -23.9693  -30.4271   19.3748 H   0  0  0  0  0  0
  -22.8875  -29.1436   19.8130 H   0  0  0  0  0  0
  -25.1363  -36.1607   25.0762 H   0  0  0  0  0  0
  -21.0063  -28.3428   24.1251 H   0  0  0  0  0  0
  -20.5659  -26.2422   23.3677 H   0  0  0  0  0  0
  -21.6666  -26.7370   22.1230 H   0  0  0  0  0  0
  -19.6938  -25.6257   21.1303 H   0  0  0  0  0  0
  -19.6729  -27.3132   20.6711 H   0  0  0  0  0  0
  -17.4236  -26.6696   21.4022 H   0  0  0  0  0  0
  -18.0353  -26.0115   22.9033 H   0  0  0  0  0  0
  -19.7991  -30.7356   24.2147 H   0  0  0  0  0  0
  -17.5054  -31.6278   24.5169 H   0  0  0  0  0  0
  -15.5391  -30.2962   23.7725 H   0  0  0  0  0  0
  -15.8725  -28.0801   22.7131 H   0  0  0  0  0  0
  -24.5872  -30.7147   25.7572 H   0  0  0  0  0  0
  -24.8806  -32.3063   26.4465 H   0  0  0  0  0  0
  -25.7808  -30.9151   27.0207 H   0  0  0  0  0  0
  -26.3300  -29.6396   24.1651 H   0  0  0  0  0  0
  -27.3957  -29.7298   25.5429 H   0  0  0  0  0  0
  -27.9292  -30.3914   24.0216 H   0  0  0  0  0  0
  -27.2570  -33.3754   26.1839 H   0  0  0  0  0  0
  -28.3978  -32.6796   25.0425 H   0  0  0  0  0  0
  -28.0573  -31.8663   26.5621 H   0  0  0  0  0  0
  -28.2529  -38.0060   24.7530 H   0  0  0  0  0  0
  -28.1111  -36.2581   24.6266 H   0  0  0  0  0  0
  -27.2281  -37.1320   25.8864 H   0  0  0  0  0  0
  -20.9781  -29.8658   21.6464 H   0  0  0  0  0  0
  -26.0084  -38.2676   24.1435 H   0  0  0  0  0  0
  -31.7228  -18.7483   20.4082 H   0  0  0  0  0  0
  -32.2794  -21.0845   20.4213 H   0  0  0  0  0  0
  -27.1844  -23.3688   20.9469 H   0  0  0  0  0  0
  -27.4284  -23.4254   19.2543 H   0  0  0  0  0  0
  -28.4887  -16.9138   20.3658 H   0  0  0  0  0  0
  1 25  1  0  0  0
  1 30  2  0  0  0
  1 78  1  0  0  0
  2  3  1  0  0  0
  2 25  1  0  0  0
  2 81  1  0  0  0
  2 82  1  0  0  0
  3  4  1  0  0  0
  3 83  1  0  0  0
  3 84  1  0  0  0
  4  5  1  0  0  0
  4 85  1  0  0  0
  4 86  1  0  0  0
  5  6  1  0  0  0
  5 26  1  0  0  0
  5 87  1  0  0  0
  6 25  1  0  0  0
  6 88  1  0  0  0
  6 89  1  0  0  0
  7  8  2  0  0  0
  7 26  1  0  0  0
  7 29  1  0  0  0
  8  9  1  0  0  0
  8 22  1  0  0  0
  9 10  1  0  0  0
  9 27  2  0  0  0
 10 11  2  0  0  0
 10 15  1  0  0  0
 11 12  1  0  0  0
 11 90  1  0  0  0
 12 13  2  0  0  0
 12 91  1  0  0  0
 13 14  1  0  0  0
 13 31  1  0  0  0
 14 15  2  0  0  0
 14 92  1  0  0  0
 15 93  1  0  0  0
 16 17  2  0  0  0
 16 21  1  0  0  0
 16 31  1  0  0  0
 17 18  1  0  0  0
 17 94  1  0  0  0
 18 19  2  0  0  0
 18 95  1  0  0  0
 19 20  1  0  0  0
 19 24  1  0  0  0
 20 21  2  0  0  0
 20 96  1  0  0  0
 21 23  1  0  0  0
 22 28  1  0  0  0
 22 32  2  0  0  0
 26 27  1  0  0  0
 28 97  1  0  0  0
 28 98  1  0  0  0
 29 99  1  0  0  0
 29100  1  0  0  0
 33 34  1  0  0  0
 33 66  1  0  0  0
 33 70  2  0  0  0
 34 36  1  0  0  0
 34 59  1  0  0  0
 34101  1  0  0  0
 35 44  2  0  0  0
 35 45  1  0  0  0
 35 68  1  0  0  0
 36 56  1  0  0  0
 36102  1  0  0  0
 37 39  1  0  0  0
 37 47  1  0  0  0
 37 66  1  0  0  0
 37103  1  0  0  0
 38 43  2  0  0  0
 38 46  1  0  0  0
 38 47  1  0  0  0
 39 64  1  0  0  0
 39 67  2  0  0  0
 40 52  1  0  0  0
 40 53  2  0  0  0
 40 58  1  0  0  0
 41104  1  0  0  0
 41105  1  0  0  0
 41106  1  0  0  0
 41 48  1  0  0  0
 42 43  1  0  0  0
 42 66  1  0  0  0
 42107  1  0  0  0
 42108  1  0  0  0
 43 44  1  0  0  0
 44109  1  0  0  0
 45 46  2  0  0  0
 45110  1  0  0  0
 46111  1  0  0  0
 47112  1  0  0  0
 47113  1  0  0  0
 48 56  1  0  0  0
 48 65  1  0  0  0
 48114  1  0  0  0
 49 50  1  0  0  0
 49 53  1  0  0  0
 49 64  1  0  0  0
 49115  1  0  0  0
 50 51  1  0  0  0
 50116  1  0  0  0
 50117  1  0  0  0
 51 52  1  0  0  0
 51118  1  0  0  0
 51119  1  0  0  0
 52120  1  0  0  0
 52121  1  0  0  0
 53 54  1  0  0  0
 54 55  2  0  0  0
 54122  1  0  0  0
 55 57  1  0  0  0
 55123  1  0  0  0
 56 69  2  0  0  0
 57 58  2  0  0  0
 57124  1  0  0  0
 58125  1  0  0  0
 59 60  1  0  0  0
 59 61  1  0  0  0
 59 62  1  0  0  0
 60126  1  0  0  0
 60127  1  0  0  0
 60128  1  0  0  0
 61129  1  0  0  0
 61130  1  0  0  0
 61131  1  0  0  0
 62132  1  0  0  0
 62133  1  0  0  0
 62134  1  0  0  0
 63 65  1  0  0  0
 63135  1  0  0  0
 63136  1  0  0  0
 63137  1  0  0  0
 64138  1  0  0  0
 65139  1  0  0  0
 68 77  1  0  0  0
 71 72  2  0  0  0
 71 74  1  0  0  0
 71140  1  0  0  0
 72 75  1  0  0  0
 72141  1  0  0  0
 73 75  2  0  0  0
 73 76  1  0  0  0
 73 77  1  0  0  0
 74 76  2  0  0  0
 74 78  1  0  0  0
 75 79  1  0  0  0
 76 80  1  0  0  0
 77142  1  0  0  0
 77143  1  0  0  0
 78144  1  0  0  0
M  ISO  4   1 100  68 101  77 101  78 100
M  END
> <chiral flag>
0

> <version>
0

> <s_m_source_file>
/data/baiqing/PycharmProjects/Reinvent-master-3.2/result/LINK_invent/BTK/process_docking_weight1_custom_product_contain_oxygen_bond_distance_aromatic_linkinvent_7_9_3/rearranged_h_0019.sdf

> <i_m_source_file_index>
45

> <r_mmod_Potential_Energy-OPLS-2005>
2786.2080078125

> <r_mmod_Stretch_Energy-OPLS-2005>
1262.23059082031

> <r_mmod_Bend_Energy-OPLS-2005>
640.262512207031

> <r_mmod_Torsional_Energy-OPLS-2005>
222.775299072266

> <r_mmod_Improper_Torsional_Energy-OPLS-2005>
4.03981971740723

> <r_mmod_Van_der_Waal_Energy-OPLS-2005>
124.985801696777

> <r_mmod_Electrostatic_Energy-OPLS-2005>
-383.477569580078

> <r_mmod_Solvation_Energy-OPLS-2005>
-210.230331420898

> <b_mmod_Minimization_Converged-OPLS-2005>
0

> <r_mmod_RMS_Derivative-OPLS-2005>
0.145995900034904

$$$$
45
                    3D
 Structure written by MMmdl.
164172  0  0  1  0            999 V2000
  -30.6953  -14.6305   20.5950 C   0  0  0  0  0  0
  -30.4171  -12.4155   19.4438 C   0  0  0  0  0  0
  -29.4989  -12.5359   18.2085 C   0  0  0  0  0  0
  -28.0189  -12.3889   18.6082 C   0  0  0  0  0  0
  -27.6493  -13.2344   19.8568 C   0  0  2  0  0  0
  -28.6924  -13.0924   20.9867 C   0  0  0  0  0  0
  -25.2528  -13.8189   20.5681 C   0  0  0  0  0  0
  -24.1810  -13.0407   20.9169 C   0  0  0  0  0  0
  -24.6401  -11.6906   20.8685 C   0  0  0  0  0  0
  -23.9050  -10.4289   21.0356 C   0  0  0  0  0  0
  -24.3603   -9.4235   21.9160 C   0  0  0  0  0  0
  -23.6289   -8.2263   22.0751 C   0  0  0  0  0  0
  -22.4274   -8.0280   21.3536 C   0  0  0  0  0  0
  -21.9880   -9.0242   20.4648 C   0  0  0  0  0  0
  -22.7194  -10.2132   20.3037 C   0  0  0  0  0  0
  -21.6864   -6.0731   22.5254 C   0  0  0  0  0  0
  -21.4034   -6.5639   23.8187 C   0  0  0  0  0  0
  -21.3664   -5.6794   24.9146 C   0  0  0  0  0  0
  -21.6051   -4.3056   24.7210 C   0  0  0  0  0  0
  -21.8824   -3.8146   23.4330 C   0  0  0  0  0  0
  -21.9201   -4.6958   22.3379 C   0  0  0  0  0  0
  -22.7848  -13.5200   21.1852 C   0  0  0  0  0  0
  -22.1669   -4.2137   21.0956 F   0  0  0  0  0  0
  -21.5621   -3.4545   25.7721 F   0  0  0  0  0  0
  -30.0123  -13.4408   20.4366 N   0  0  0  0  0  0
  -26.2973  -12.9416   20.3255 N   0  0  0  0  0  0
  -25.9330  -11.6541   20.5633 N   0  0  0  0  0  0
  -22.0502  -12.8200   22.0447 N   0  0  0  0  0  0
  -25.4086  -15.1913   20.4188 N   0  0  0  0  0  0
  -31.7947  -14.7898   20.0548 O   0  0  0  0  0  0
  -21.6657   -6.8866   21.4211 O   0  0  0  0  0  0
  -22.3510  -14.5474   20.6677 O   0  0  0  0  0  0
  -24.6249  -31.8593   23.2039 C   0  0  0  0  0  0
  -25.9084  -32.4781   23.8384 C   0  0  1  0  0  0
  -27.2372  -27.3226   20.1374 C   0  0  0  0  0  0
  -25.5895  -33.8584   24.2306 N   0  0  0  0  0  0
  -23.4211  -30.4781   21.5472 C   0  0  2  0  0  0
  -24.8729  -28.9290   20.1166 C   0  0  0  0  0  0
  -22.7477  -29.4583   22.4966 C   0  0  0  0  0  0
  -18.0270  -28.1361   22.8469 C   0  0  0  0  0  0
  -24.1462  -36.7309   23.2642 C   0  0  0  0  0  0
  -25.9592  -30.7950   21.3699 C   0  0  0  0  0  0
  -26.0401  -29.4196   20.7170 C   0  0  0  0  0  0
  -27.2285  -28.6318   20.7083 C   0  0  0  0  0  0
  -26.0503  -26.8743   19.5225 C   0  0  0  0  0  0
  -24.8811  -27.6621   19.5074 C   0  0  0  0  0  0
  -23.6392  -29.8093   20.1637 C   0  0  0  0  0  0
  -25.4085  -36.3098   24.0344 C   0  0  1  0  0  0
  -20.5874  -28.3649   23.1280 C   0  0  2  0  0  0
  -20.6746  -26.9369   22.5411 C   0  0  0  0  0  0
  -19.5730  -26.6361   21.5192 C   0  0  0  0  0  0
  -18.1907  -26.7899   22.1600 C   0  0  0  0  0  0
  -19.1532  -28.8824   23.2859 C   0  0  0  0  0  0
  -18.9463  -30.1432   23.8865 C   0  0  0  0  0  0
  -17.6467  -30.6559   24.0560 C   0  0  0  0  0  0
  -25.9030  -34.9456   23.5131 C   0  0  0  0  0  0
  -16.5360  -29.9063   23.6330 C   0  0  0  0  0  0
  -16.7262  -28.6492   23.0330 C   0  0  0  0  0  0
  -26.4484  -31.6593   25.0759 C   0  0  0  0  0  0
  -25.3716  -31.3739   26.1502 C   0  0  0  0  0  0
  -27.0360  -30.3025   24.6227 C   0  0  0  0  0  0
  -27.6072  -32.4326   25.7494 C   0  0  0  0  0  0
  -27.5570  -37.1796   24.8455 C   0  0  0  0  0  0
  -21.4197  -29.3009   22.3705 N   0  0  0  0  0  0
  -26.4261  -37.3797   23.9431 N   0  0  0  0  0  0
  -24.6880  -31.0596   22.0990 N   0  0  0  0  0  0
  -23.4193  -28.8111   23.3040 O   0  0  0  0  0  0
  -28.3674  -26.4948   20.1353 O   0  0  0  0  0  0
  -26.5616  -34.8923   22.4708 O   0  0  0  0  0  0
  -23.5410  -32.1392   23.7352 O   0  0  0  0  0  0
  -29.6604  -19.4648   21.8515 C   0  0  0  0  0  0
  -29.9837  -18.0887   22.0339 C   0  0  0  0  0  0
  -29.1405  -19.0043   19.5760 C   0  0  0  0  0  0
  -29.4899  -17.6166   19.7375 C   0  0  0  0  0  0
  -29.1930  -19.9715   20.6198 C   0  0  0  0  0  0
  -29.8985  -17.0831   21.0121 C   0  0  0  0  0  0
  -29.3528  -16.7689   18.4809 C   0  0  0  0  0  0
  -27.0987  -21.8442   22.3721 C   0  0  0  0  0  0
  -30.3071  -15.3606   22.8079 C   0  0  0  0  0  0
  -28.9231  -23.9056   19.8861 C   0  0  0  0  0  0
  -27.2521  -21.3561   20.9183 C   0  0  0  0  0  0
  -29.4344  -22.5684   20.6239 C   0  0  0  0  0  0
  -28.2546  -25.1195   20.6842 C   0  0  0  0  0  0
  -30.1462  -15.6426   21.3673 N   0  0  0  0  0  0
  -28.6442  -21.3021   20.4641 N   0  0  0  0  0  0
  -31.4620  -12.5086   19.1449 H   0  0  0  0  0  0
  -30.3238  -11.4161   19.8696 H   0  0  0  0  0  0
  -29.7576  -11.7782   17.4657 H   0  0  0  0  0  0
  -29.6523  -13.5000   17.7222 H   0  0  0  0  0  0
  -27.8250  -11.3318   18.7913 H   0  0  0  0  0  0
  -27.3802  -12.6697   17.7689 H   0  0  0  0  0  0
  -27.6625  -14.2737   19.5299 H   0  0  0  0  0  0
  -28.7093  -12.0714   21.3701 H   0  0  0  0  0  0
  -28.4111  -13.7213   21.8299 H   0  0  0  0  0  0
  -25.2733   -9.5754   22.4740 H   0  0  0  0  0  0
  -24.0002   -7.4682   22.7498 H   0  0  0  0  0  0
  -21.0791   -8.8741   19.8989 H   0  0  0  0  0  0
  -22.3587  -10.9668   19.6168 H   0  0  0  0  0  0
  -21.2031   -7.6152   23.9667 H   0  0  0  0  0  0
  -21.1487   -6.0541   25.9042 H   0  0  0  0  0  0
  -22.0598   -2.7607   23.2815 H   0  0  0  0  0  0
  -22.4106  -11.9866   22.4850 H   0  0  0  0  0  0
  -21.1125  -13.1263   22.2629 H   0  0  0  0  0  0
  -24.6211  -15.8190   20.5417 H   0  0  0  0  0  0
  -26.2606  -15.6682   20.1538 H   0  0  0  0  0  0
  -26.7157  -32.5469   23.1149 H   0  0  0  0  0  0
  -25.0000  -33.9732   25.0425 H   0  0  0  0  0  0
  -22.7131  -31.2967   21.4012 H   0  0  0  0  0  0
  -23.3730  -35.9628   23.3288 H   0  0  0  0  0  0
  -24.3562  -36.8973   22.2061 H   0  0  0  0  0  0
  -23.7203  -37.6507   23.6679 H   0  0  0  0  0  0
  -26.0762  -31.5552   20.5961 H   0  0  0  0  0  0
  -26.8418  -30.8569   21.9956 H   0  0  0  0  0  0
  -28.1311  -29.0115   21.1667 H   0  0  0  0  0  0
  -26.0276  -25.8988   19.0581 H   0  0  0  0  0  0
  -23.9881  -27.2802   19.0333 H   0  0  0  0  0  0
  -23.7591  -30.5866   19.4074 H   0  0  0  0  0  0
  -22.7604  -29.2402   19.8579 H   0  0  0  0  0  0
  -25.1249  -36.1977   25.0837 H   0  0  0  0  0  0
  -20.9940  -28.3208   24.1410 H   0  0  0  0  0  0
  -20.5615  -26.2252   23.3613 H   0  0  0  0  0  0
  -21.6614  -26.7374   22.1230 H   0  0  0  0  0  0
  -19.6895  -25.6278   21.1209 H   0  0  0  0  0  0
  -19.6667  -27.3183   20.6735 H   0  0  0  0  0  0
  -17.4181  -26.6647   21.4003 H   0  0  0  0  0  0
  -18.0308  -26.0030   22.8989 H   0  0  0  0  0  0
  -19.7949  -30.7257   24.2206 H   0  0  0  0  0  0
  -17.5032  -31.6234   24.5172 H   0  0  0  0  0  0
  -15.5370  -30.2965   23.7670 H   0  0  0  0  0  0
  -15.8658  -28.0838   22.7021 H   0  0  0  0  0  0
  -24.5853  -30.7135   25.7841 H   0  0  0  0  0  0
  -24.8920  -32.2893   26.4969 H   0  0  0  0  0  0
  -25.8017  -30.8884   27.0267 H   0  0  0  0  0  0
  -26.2965  -29.6745   24.1248 H   0  0  0  0  0  0
  -27.4089  -29.7327   25.4754 H   0  0  0  0  0  0
  -27.8793  -30.4351   23.9443 H   0  0  0  0  0  0
  -27.2737  -33.3658   26.2043 H   0  0  0  0  0  0
  -28.3860  -32.6845   25.0280 H   0  0  0  0  0  0
  -28.0750  -31.8461   26.5418 H   0  0  0  0  0  0
  -28.2567  -38.0111   24.7555 H   0  0  0  0  0  0
  -28.1096  -36.2666   24.6207 H   0  0  0  0  0  0
  -27.2320  -37.1373   25.8863 H   0  0  0  0  0  0
  -20.9391  -29.8801   21.6971 H   0  0  0  0  0  0
  -26.0163  -38.2872   24.1483 H   0  0  0  0  0  0
  -29.7179  -20.1239   22.7056 H   0  0  0  0  0  0
  -30.2810  -17.8382   23.0388 H   0  0  0  0  0  0
  -28.7887  -19.3361   18.6080 H   0  0  0  0  0  0
  -29.7816  -17.3026   17.6330 H   0  0  0  0  0  0
  -28.3038  -16.5756   18.2572 H   0  0  0  0  0  0
  -29.8706  -15.8209   18.5114 H   0  0  0  0  0  0
  -26.0945  -21.6408   22.7467 H   0  0  0  0  0  0
  -27.2599  -22.9192   22.4500 H   0  0  0  0  0  0
  -27.7955  -21.3567   23.0528 H   0  0  0  0  0  0
  -31.1567  -15.9099   23.2175 H   0  0  0  0  0  0
  -30.5025  -14.3159   23.0576 H   0  0  0  0  0  0
  -29.4037  -15.6498   23.3468 H   0  0  0  0  0  0
  -28.2983  -23.6428   19.0333 H   0  0  0  0  0  0
  -29.8178  -24.3368   19.4374 H   0  0  0  0  0  0
  -26.6790  -22.0061   20.2554 H   0  0  0  0  0  0
  -26.7967  -20.3667   20.8279 H   0  0  0  0  0  0
  -29.6157  -22.7786   21.6784 H   0  0  0  0  0  0
  -30.4232  -22.3449   20.2210 H   0  0  0  0  0  0
  -28.7246  -25.1660   21.6671 H   0  0  0  0  0  0
  -27.2128  -24.8694   20.8847 H   0  0  0  0  0  0
  1 25  1  0  0  0
  1 30  2  0  0  0
  1 84  1  0  0  0
  2  3  1  0  0  0
  2 25  1  0  0  0
  2 86  1  0  0  0
  2 87  1  0  0  0
  3  4  1  0  0  0
  3 88  1  0  0  0
  3 89  1  0  0  0
  4  5  1  0  0  0
  4 90  1  0  0  0
  4 91  1  0  0  0
  5  6  1  0  0  0
  5 26  1  0  0  0
  5 92  1  0  0  0
  6 25  1  0  0  0
  6 93  1  0  0  0
  6 94  1  0  0  0
  7  8  2  0  0  0
  7 26  1  0  0  0
  7 29  1  0  0  0
  8  9  1  0  0  0
  8 22  1  0  0  0
  9 10  1  0  0  0
  9 27  2  0  0  0
 10 11  2  0  0  0
 10 15  1  0  0  0
 11 12  1  0  0  0
 11 95  1  0  0  0
 12 13  2  0  0  0
 12 96  1  0  0  0
 13 14  1  0  0  0
 13 31  1  0  0  0
 14 15  2  0  0  0
 14 97  1  0  0  0
 15 98  1  0  0  0
 16 17  2  0  0  0
 16 21  1  0  0  0
 16 31  1  0  0  0
 17 18  1  0  0  0
 17 99  1  0  0  0
 18 19  2  0  0  0
 18100  1  0  0  0
 19 20  1  0  0  0
 19 24  1  0  0  0
 20 21  2  0  0  0
 20101  1  0  0  0
 21 23  1  0  0  0
 22 28  1  0  0  0
 22 32  2  0  0  0
 26 27  1  0  0  0
 28102  1  0  0  0
 28103  1  0  0  0
 29104  1  0  0  0
 29105  1  0  0  0
 33 34  1  0  0  0
 33 66  1  0  0  0
 33 70  2  0  0  0
 34 36  1  0  0  0
 34 59  1  0  0  0
 34106  1  0  0  0
 35 44  2  0  0  0
 35 45  1  0  0  0
 35 68  1  0  0  0
 36 56  1  0  0  0
 36107  1  0  0  0
 37 39  1  0  0  0
 37 47  1  0  0  0
 37 66  1  0  0  0
 37108  1  0  0  0
 38 43  2  0  0  0
 38 46  1  0  0  0
 38 47  1  0  0  0
 39 64  1  0  0  0
 39 67  2  0  0  0
 40 52  1  0  0  0
 40 53  2  0  0  0
 40 58  1  0  0  0
 41109  1  0  0  0
 41110  1  0  0  0
 41111  1  0  0  0
 41 48  1  0  0  0
 42 43  1  0  0  0
 42 66  1  0  0  0
 42112  1  0  0  0
 42113  1  0  0  0
 43 44  1  0  0  0
 44114  1  0  0  0
 45 46  2  0  0  0
 45115  1  0  0  0
 46116  1  0  0  0
 47117  1  0  0  0
 47118  1  0  0  0
 48 56  1  0  0  0
 48 65  1  0  0  0
 48119  1  0  0  0
 49 50  1  0  0  0
 49 53  1  0  0  0
 49 64  1  0  0  0
 49120  1  0  0  0
 50 51  1  0  0  0
 50121  1  0  0  0
 50122  1  0  0  0
 51 52  1  0  0  0
 51123  1  0  0  0
 51124  1  0  0  0
 52125  1  0  0  0
 52126  1  0  0  0
 53 54  1  0  0  0
 54 55  2  0  0  0
 54127  1  0  0  0
 55 57  1  0  0  0
 55128  1  0  0  0
 56 69  2  0  0  0
 57 58  2  0  0  0
 57129  1  0  0  0
 58130  1  0  0  0
 59 60  1  0  0  0
 59 61  1  0  0  0
 59 62  1  0  0  0
 60131  1  0  0  0
 60132  1  0  0  0
 60133  1  0  0  0
 61134  1  0  0  0
 61135  1  0  0  0
 61136  1  0  0  0
 62137  1  0  0  0
 62138  1  0  0  0
 62139  1  0  0  0
 63 65  1  0  0  0
 63140  1  0  0  0
 63141  1  0  0  0
 63142  1  0  0  0
 64143  1  0  0  0
 65144  1  0  0  0
 68 83  1  0  0  0
 71 72  2  0  0  0
 71 75  1  0  0  0
 71145  1  0  0  0
 72 76  1  0  0  0
 72146  1  0  0  0
 73 74  1  0  0  0
 73 75  2  0  0  0
 73147  1  0  0  0
 74 76  2  0  0  0
 74 77  1  0  0  0
 75 85  1  0  0  0
 76 84  1  0  0  0
 77148  1  0  0  0
 77149  1  0  0  0
 77150  1  0  0  0
 78 81  1  0  0  0
 78151  1  0  0  0
 78152  1  0  0  0
 78153  1  0  0  0
 79 84  1  0  0  0
 79154  1  0  0  0
 79155  1  0  0  0
 79156  1  0  0  0
 80 82  1  0  0  0
 80 83  1  0  0  0
 80157  1  0  0  0
 80158  1  0  0  0
 81 85  1  0  0  0
 81159  1  0  0  0
 81160  1  0  0  0
 82 85  1  0  0  0
 82161  1  0  0  0
 82162  1  0  0  0
 83163  1  0  0  0
 83164  1  0  0  0
M  ISO  4   1 100  68 101  83 101  84 100
M  END
> <chiral flag>
0

> <version>
0

> <s_m_source_file>
/data/baiqing/PycharmProjects/Reinvent-master-3.2/result/LINK_invent/BTK/process_docking_weight1_custom_product_contain_oxygen_bond_distance_aromatic_linkinvent_7_9_3/rearranged_h_0019.sdf

> <i_m_source_file_index>
46

> <r_mmod_Potential_Energy-OPLS-2005>
295.736968994141

> <r_mmod_Stretch_Energy-OPLS-2005>
104.652954101562

> <r_mmod_Bend_Energy-OPLS-2005>
177.61604309082

> <r_mmod_Torsional_Energy-OPLS-2005>
340.416381835938

> <r_mmod_Improper_Torsional_Energy-OPLS-2005>
6.489661693573

> <r_mmod_Van_der_Waal_Energy-OPLS-2005>
146.054656982422

> <r_mmod_Electrostatic_Energy-OPLS-2005>
-324.853240966797

> <r_mmod_Solvation_Energy-OPLS-2005>
-197.654907226562

> <b_mmod_Minimization_Converged-OPLS-2005>
0

> <r_mmod_RMS_Derivative-OPLS-2005>
3.8733241558075

$$$$
46
                    3D
 Structure written by MMmdl.
156164  0  0  1  0            999 V2000
  -30.6137  -14.7270   20.4727 C   0  0  0  0  0  0
  -30.4315  -12.4446   19.4673 C   0  0  0  0  0  0
  -29.5077  -12.5032   18.2311 C   0  0  0  0  0  0
  -28.0332  -12.3301   18.6453 C   0  0  0  0  0  0
  -27.6416  -13.2276   19.8499 C   0  0  2  0  0  0
  -28.6863  -13.1526   20.9849 C   0  0  0  0  0  0
  -25.2511  -13.8188   20.5694 C   0  0  0  0  0  0
  -24.1798  -13.0439   20.9214 C   0  0  0  0  0  0
  -24.6385  -11.6913   20.8751 C   0  0  0  0  0  0
  -23.9062  -10.4292   21.0409 C   0  0  0  0  0  0
  -24.3618   -9.4207   21.9184 C   0  0  0  0  0  0
  -23.6294   -8.2243   22.0753 C   0  0  0  0  0  0
  -22.4275   -8.0284   21.3545 C   0  0  0  0  0  0
  -21.9911   -9.0254   20.4644 C   0  0  0  0  0  0
  -22.7238  -10.2132   20.3054 C   0  0  0  0  0  0
  -21.6855   -6.0736   22.5282 C   0  0  0  0  0  0
  -21.4014   -6.5638   23.8216 C   0  0  0  0  0  0
  -21.3656   -5.6790   24.9176 C   0  0  0  0  0  0
  -21.6044   -4.3054   24.7225 C   0  0  0  0  0  0
  -21.8819   -3.8146   23.4346 C   0  0  0  0  0  0
  -21.9193   -4.6963   22.3403 C   0  0  0  0  0  0
  -22.7824  -13.5224   21.1868 C   0  0  0  0  0  0
  -22.1664   -4.2149   21.0982 F   0  0  0  0  0  0
  -21.5624   -3.4537   25.7737 F   0  0  0  0  0  0
  -29.9873  -13.5036   20.4019 N   0  0  0  0  0  0
  -26.2932  -12.9388   20.3276 N   0  0  0  0  0  0
  -25.9312  -11.6533   20.5749 N   0  0  0  0  0  0
  -22.0468  -12.8215   22.0422 N   0  0  0  0  0  0
  -25.4197  -15.1916   20.4104 N   0  0  0  0  0  0
  -31.7959  -14.8203   20.1314 O   0  0  0  0  0  0
  -21.6641   -6.8880   21.4243 O   0  0  0  0  0  0
  -22.3513  -14.5530   20.6713 O   0  0  0  0  0  0
  -24.6309  -31.8549   23.1978 C   0  0  0  0  0  0
  -25.9136  -32.4750   23.8324 C   0  0  1  0  0  0
  -27.2204  -27.2699   20.1164 C   0  0  0  0  0  0
  -25.5935  -33.8553   24.2252 N   0  0  0  0  0  0
  -23.4265  -30.4778   21.5409 C   0  0  2  0  0  0
  -24.8704  -28.9236   20.1086 C   0  0  0  0  0  0
  -22.7500  -29.4595   22.4904 C   0  0  0  0  0  0
  -18.0294  -28.1386   22.8486 C   0  0  0  0  0  0
  -24.1491  -36.7280   23.2643 C   0  0  0  0  0  0
  -25.9713  -30.7701   21.3750 C   0  0  0  0  0  0
  -26.0410  -29.3936   20.7154 C   0  0  0  0  0  0
  -27.2147  -28.5777   20.7088 C   0  0  0  0  0  0
  -26.0197  -26.8556   19.4974 C   0  0  0  0  0  0
  -24.8639  -27.6627   19.4921 C   0  0  0  0  0  0
  -23.6430  -29.8120   20.1560 C   0  0  0  0  0  0
  -25.4115  -36.3066   24.0328 C   0  0  1  0  0  0
  -20.5898  -28.3693   23.1269 C   0  0  2  0  0  0
  -20.6784  -26.9412   22.5409 C   0  0  0  0  0  0
  -19.5761  -26.6383   21.5212 C   0  0  0  0  0  0
  -18.1939  -26.7928   22.1622 C   0  0  0  0  0  0
  -19.1549  -28.8853   23.2875 C   0  0  0  0  0  0
  -18.9474  -30.1454   23.8891 C   0  0  0  0  0  0
  -17.6475  -30.6586   24.0558 C   0  0  0  0  0  0
  -25.9057  -34.9440   23.5092 C   0  0  0  0  0  0
  -16.5362  -29.9087   23.6330 C   0  0  0  0  0  0
  -16.7282  -28.6506   23.0349 C   0  0  0  0  0  0
  -26.4502  -31.6580   25.0720 C   0  0  0  0  0  0
  -25.3724  -31.3737   26.1440 C   0  0  0  0  0  0
  -27.0349  -30.2999   24.6204 C   0  0  0  0  0  0
  -27.6052  -32.4327   25.7493 C   0  0  0  0  0  0
  -27.5575  -37.1796   24.8466 C   0  0  0  0  0  0
  -21.4209  -29.3036   22.3653 N   0  0  0  0  0  0
  -26.4289  -37.3767   23.9409 N   0  0  0  0  0  0
  -24.6953  -31.0523   22.0946 N   0  0  0  0  0  0
  -23.4209  -28.8134   23.2995 O   0  0  0  0  0  0
  -28.3506  -26.4272   20.1907 O   0  0  0  0  0  0
  -26.5627  -34.8917   22.4660 O   0  0  0  0  0  0
  -23.5459  -32.1365   23.7280 O   0  0  0  0  0  0
  -30.8406  -20.0178   21.5043 C   0  0  0  0  0  0
  -31.6956  -18.9525   21.8455 C   0  0  0  0  0  0
  -29.3140  -18.4084   20.5158 C   0  0  0  0  0  0
  -29.6246  -19.8018   20.8223 C   0  0  0  0  0  0
  -30.1748  -17.2823   20.8693 C   0  0  0  0  0  0
  -31.3698  -17.6132   21.5577 C   0  0  0  0  0  0
  -30.4272  -22.4607   19.5162 C   0  0  0  0  0  0
  -28.6366  -21.0530   20.6462 C   0  0  0  0  0  0
  -28.4879  -23.7087   20.5367 C   0  0  0  0  0  0
  -28.4403  -25.0435   19.6136 C   0  0  0  0  0  0
  -29.8216  -15.8526   20.6640 N   0  0  0  0  0  0
  -29.0068  -22.3762   19.9317 N   0  3  1  0  0  0
  -32.1955  -16.6497   22.0292 F   0  0  0  0  0  0
  -31.4726  -12.5674   19.1642 H   0  0  0  0  0  0
  -30.3747  -11.4661   19.9467 H   0  0  0  0  0  0
  -29.7880  -11.7311   17.5132 H   0  0  0  0  0  0
  -29.6370  -13.4581   17.7196 H   0  0  0  0  0  0
  -27.8868  -11.2810   18.9044 H   0  0  0  0  0  0
  -27.3759  -12.5265   17.7974 H   0  0  0  0  0  0
  -27.6381  -14.2498   19.4720 H   0  0  0  0  0  0
  -28.7192  -12.1513   21.4175 H   0  0  0  0  0  0
  -28.4228  -13.8287   21.8004 H   0  0  0  0  0  0
  -25.2763   -9.5683   22.4760 H   0  0  0  0  0  0
  -24.0002   -7.4631   22.7472 H   0  0  0  0  0  0
  -21.0844   -8.8768   19.8952 H   0  0  0  0  0  0
  -22.3697  -10.9669   19.6161 H   0  0  0  0  0  0
  -21.2010   -7.6146   23.9721 H   0  0  0  0  0  0
  -21.1478   -6.0519   25.9080 H   0  0  0  0  0  0
  -22.0602   -2.7608   23.2847 H   0  0  0  0  0  0
  -22.4084  -11.9875   22.4809 H   0  0  0  0  0  0
  -21.1081  -13.1232   22.2621 H   0  0  0  0  0  0
  -24.6468  -15.8400   20.5176 H   0  0  0  0  0  0
  -26.2542  -15.6322   20.0465 H   0  0  0  0  0  0
  -26.7199  -32.5393   23.1062 H   0  0  0  0  0  0
  -25.0089  -33.9688   25.0403 H   0  0  0  0  0  0
  -22.7234  -31.3006   21.3953 H   0  0  0  0  0  0
  -23.3755  -35.9611   23.3302 H   0  0  0  0  0  0
  -24.3584  -36.8904   22.2059 H   0  0  0  0  0  0
  -23.7249  -37.6485   23.6663 H   0  0  0  0  0  0
  -26.1115  -31.5318   20.6064 H   0  0  0  0  0  0
  -26.8489  -30.8165   22.0082 H   0  0  0  0  0  0
  -28.1139  -28.9346   21.1918 H   0  0  0  0  0  0
  -25.9248  -25.8868   19.0333 H   0  0  0  0  0  0
  -23.9629  -27.2942   19.0208 H   0  0  0  0  0  0
  -23.7696  -30.5885   19.4005 H   0  0  0  0  0  0
  -22.7607  -29.2477   19.8497 H   0  0  0  0  0  0
  -25.1302  -36.1912   25.0823 H   0  0  0  0  0  0
  -20.9996  -28.3273   24.1387 H   0  0  0  0  0  0
  -20.5687  -26.2304   23.3613 H   0  0  0  0  0  0
  -21.6654  -26.7439   22.1198 H   0  0  0  0  0  0
  -19.6925  -25.6293   21.1243 H   0  0  0  0  0  0
  -19.6697  -27.3193   20.6740 H   0  0  0  0  0  0
  -17.4212  -26.6673   21.4022 H   0  0  0  0  0  0
  -18.0332  -26.0071   22.9017 H   0  0  0  0  0  0
  -19.7952  -30.7267   24.2262 H   0  0  0  0  0  0
  -17.5034  -31.6268   24.5161 H   0  0  0  0  0  0
  -15.5365  -30.2988   23.7658 H   0  0  0  0  0  0
  -15.8682  -28.0824   22.7062 H   0  0  0  0  0  0
  -24.5905  -30.7075   25.7776 H   0  0  0  0  0  0
  -24.8904  -32.2908   26.4841 H   0  0  0  0  0  0
  -25.8040  -30.8938   27.0233 H   0  0  0  0  0  0
  -26.2932  -29.6750   24.1214 H   0  0  0  0  0  0
  -27.4022  -29.7256   25.4722 H   0  0  0  0  0  0
  -27.8815  -30.4281   23.9454 H   0  0  0  0  0  0
  -27.2652  -33.3632   26.2055 H   0  0  0  0  0  0
  -28.3868  -32.6887   25.0325 H   0  0  0  0  0  0
  -28.0717  -31.8468   26.5425 H   0  0  0  0  0  0
  -28.2590  -38.0095   24.7507 H   0  0  0  0  0  0
  -28.1074  -36.2624   24.6297 H   0  0  0  0  0  0
  -27.2288  -37.1455   25.8868 H   0  0  0  0  0  0
  -20.9393  -29.8773   21.6866 H   0  0  0  0  0  0
  -26.0165  -38.2840   24.1413 H   0  0  0  0  0  0
  -31.1167  -21.0117   21.8240 H   0  0  0  0  0  0
  -32.6045  -19.1597   22.3914 H   0  0  0  0  0  0
  -28.3685  -18.1945   20.0386 H   0  0  0  0  0  0
  -30.7683  -21.5290   19.0651 H   0  0  0  0  0  0
  -31.0758  -22.6971   20.3592 H   0  0  0  0  0  0
  -30.5734  -23.2321   18.7623 H   0  0  0  0  0  0
  -28.3269  -21.3177   21.6574 H   0  0  0  0  0  0
  -27.7267  -20.6875   20.1689 H   0  0  0  0  0  0
  -27.4788  -23.5400   20.9128 H   0  0  0  0  0  0
  -29.0942  -23.9241   21.4169 H   0  0  0  0  0  0
  -29.3912  -25.0869   19.0859 H   0  0  0  0  0  0
  -27.7252  -24.8926   18.8081 H   0  0  0  0  0  0
  -28.8352  -15.6521   20.6995 H   0  0  0  0  0  0
  -28.5112  -22.2778   19.0573 H   0  0  0  0  0  0
  1 25  1  0  0  0
  1 30  2  0  0  0
  1 81  1  0  0  0
  2  3  1  0  0  0
  2 25  1  0  0  0
  2 84  1  0  0  0
  2 85  1  0  0  0
  3  4  1  0  0  0
  3 86  1  0  0  0
  3 87  1  0  0  0
  4  5  1  0  0  0
  4 88  1  0  0  0
  4 89  1  0  0  0
  5  6  1  0  0  0
  5 26  1  0  0  0
  5 90  1  0  0  0
  6 25  1  0  0  0
  6 91  1  0  0  0
  6 92  1  0  0  0
  7  8  2  0  0  0
  7 26  1  0  0  0
  7 29  1  0  0  0
  8  9  1  0  0  0
  8 22  1  0  0  0
  9 10  1  0  0  0
  9 27  2  0  0  0
 10 11  2  0  0  0
 10 15  1  0  0  0
 11 12  1  0  0  0
 11 93  1  0  0  0
 12 13  2  0  0  0
 12 94  1  0  0  0
 13 14  1  0  0  0
 13 31  1  0  0  0
 14 15  2  0  0  0
 14 95  1  0  0  0
 15 96  1  0  0  0
 16 17  2  0  0  0
 16 21  1  0  0  0
 16 31  1  0  0  0
 17 18  1  0  0  0
 17 97  1  0  0  0
 18 19  2  0  0  0
 18 98  1  0  0  0
 19 20  1  0  0  0
 19 24  1  0  0  0
 20 21  2  0  0  0
 20 99  1  0  0  0
 21 23  1  0  0  0
 22 28  1  0  0  0
 22 32  2  0  0  0
 26 27  1  0  0  0
 28100  1  0  0  0
 28101  1  0  0  0
 29102  1  0  0  0
 29103  1  0  0  0
 33 34  1  0  0  0
 33 66  1  0  0  0
 33 70  2  0  0  0
 34 36  1  0  0  0
 34 59  1  0  0  0
 34104  1  0  0  0
 35 44  2  0  0  0
 35 45  1  0  0  0
 35 68  1  0  0  0
 36 56  1  0  0  0
 36105  1  0  0  0
 37 39  1  0  0  0
 37 47  1  0  0  0
 37 66  1  0  0  0
 37106  1  0  0  0
 38 43  2  0  0  0
 38 46  1  0  0  0
 38 47  1  0  0  0
 39 64  1  0  0  0
 39 67  2  0  0  0
 40 52  1  0  0  0
 40 53  2  0  0  0
 40 58  1  0  0  0
 41107  1  0  0  0
 41108  1  0  0  0
 41109  1  0  0  0
 41 48  1  0  0  0
 42 43  1  0  0  0
 42 66  1  0  0  0
 42110  1  0  0  0
 42111  1  0  0  0
 43 44  1  0  0  0
 44112  1  0  0  0
 45 46  2  0  0  0
 45113  1  0  0  0
 46114  1  0  0  0
 47115  1  0  0  0
 47116  1  0  0  0
 48 56  1  0  0  0
 48 65  1  0  0  0
 48117  1  0  0  0
 49 50  1  0  0  0
 49 53  1  0  0  0
 49 64  1  0  0  0
 49118  1  0  0  0
 50 51  1  0  0  0
 50119  1  0  0  0
 50120  1  0  0  0
 51 52  1  0  0  0
 51121  1  0  0  0
 51122  1  0  0  0
 52123  1  0  0  0
 52124  1  0  0  0
 53 54  1  0  0  0
 54 55  2  0  0  0
 54125  1  0  0  0
 55 57  1  0  0  0
 55126  1  0  0  0
 56 69  2  0  0  0
 57 58  2  0  0  0
 57127  1  0  0  0
 58128  1  0  0  0
 59 60  1  0  0  0
 59 61  1  0  0  0
 59 62  1  0  0  0
 60129  1  0  0  0
 60130  1  0  0  0
 60131  1  0  0  0
 61132  1  0  0  0
 61133  1  0  0  0
 61134  1  0  0  0
 62135  1  0  0  0
 62136  1  0  0  0
 62137  1  0  0  0
 63 65  1  0  0  0
 63138  1  0  0  0
 63139  1  0  0  0
 63140  1  0  0  0
 64141  1  0  0  0
 65142  1  0  0  0
 68 80  1  0  0  0
 71 72  2  0  0  0
 71 74  1  0  0  0
 71143  1  0  0  0
 72 76  1  0  0  0
 72144  1  0  0  0
 73 74  2  0  0  0
 73 75  1  0  0  0
 73145  1  0  0  0
 74 78  1  0  0  0
 75 76  2  0  0  0
 75 81  1  0  0  0
 76 83  1  0  0  0
 77146  1  0  0  0
 77147  1  0  0  0
 77148  1  0  0  0
 77 82  1  0  0  0
 78 82  1  0  0  0
 78149  1  0  0  0
 78150  1  0  0  0
 79 80  1  0  0  0
 79 82  1  0  0  0
 79151  1  0  0  0
 79152  1  0  0  0
 80153  1  0  0  0
 80154  1  0  0  0
 81155  1  0  0  0
 82156  1  0  0  0
M  CHG  1  82   1
M  ISO  4   1 100  68 101  80 101  81 100
M  END
> <chiral flag>
0

> <version>
0

> <s_m_source_file>
/data/baiqing/PycharmProjects/Reinvent-master-3.2/result/LINK_invent/BTK/process_docking_weight1_custom_product_contain_oxygen_bond_distance_aromatic_linkinvent_7_9_3/rearranged_h_0019.sdf

> <i_m_source_file_index>
47

> <r_mmod_Potential_Energy-OPLS-2005>
39.6773147583008

> <r_mmod_Stretch_Energy-OPLS-2005>
126.203804016113

> <r_mmod_Bend_Energy-OPLS-2005>
181.389770507812

> <r_mmod_Torsional_Energy-OPLS-2005>
220.370712280273

> <r_mmod_Improper_Torsional_Energy-OPLS-2005>
7.90513563156128

> <r_mmod_Van_der_Waal_Energy-OPLS-2005>
145.479476928711

> <r_mmod_Electrostatic_Energy-OPLS-2005>
-250.979354858398

> <r_mmod_Solvation_Energy-OPLS-2005>
-466.325744628906

> <b_mmod_Minimization_Converged-OPLS-2005>
0

> <r_mmod_RMS_Derivative-OPLS-2005>
0.904192805290222

$$$$
47
                    3D
 Structure written by MMmdl.
175184  0  0  1  0            999 V2000
  -30.7798  -14.4456   20.5653 C   0  0  0  0  0  0
  -30.4014  -12.2996   19.4030 C   0  0  0  0  0  0
  -29.4823  -12.5122   18.1856 C   0  0  0  0  0  0
  -28.0007  -12.3779   18.5871 C   0  0  0  0  0  0
  -27.6455  -13.1960   19.8569 C   0  0  2  0  0  0
  -28.7054  -13.0328   20.9774 C   0  0  0  0  0  0
  -25.2586  -13.8117   20.5713 C   0  0  0  0  0  0
  -24.1814  -13.0414   20.9183 C   0  0  0  0  0  0
  -24.6339  -11.6886   20.8710 C   0  0  0  0  0  0
  -23.8972  -10.4298   21.0363 C   0  0  0  0  0  0
  -24.3575   -9.4267   21.9153 C   0  0  0  0  0  0
  -23.6307   -8.2279   22.0730 C   0  0  0  0  0  0
  -22.4293   -8.0278   21.3523 C   0  0  0  0  0  0
  -21.9872   -9.0214   20.4611 C   0  0  0  0  0  0
  -22.7145  -10.2125   20.3008 C   0  0  0  0  0  0
  -21.6886   -6.0745   22.5268 C   0  0  0  0  0  0
  -21.4045   -6.5644   23.8210 C   0  0  0  0  0  0
  -21.3656   -5.6770   24.9154 C   0  0  0  0  0  0
  -21.6026   -4.3033   24.7197 C   0  0  0  0  0  0
  -21.8834   -3.8146   23.4318 C   0  0  0  0  0  0
  -21.9228   -4.6973   22.3381 C   0  0  0  0  0  0
  -22.7856  -13.5246   21.1820 C   0  0  0  0  0  0
  -22.1695   -4.2171   21.0950 F   0  0  0  0  0  0
  -21.5623   -3.4501   25.7709 F   0  0  0  0  0  0
  -30.0374  -13.3093   20.4123 N   0  0  0  0  0  0
  -26.2962  -12.9230   20.3322 N   0  0  0  0  0  0
  -25.9264  -11.6415   20.5722 N   0  0  0  0  0  0
  -22.0481  -12.8252   22.0386 N   0  0  0  0  0  0
  -25.4296  -15.1831   20.4163 N   0  0  0  0  0  0
  -31.9123  -14.5648   20.0877 O   0  0  0  0  0  0
  -21.6675   -6.8873   21.4225 O   0  0  0  0  0  0
  -22.3567  -14.5532   20.6632 O   0  0  0  0  0  0
  -24.6135  -31.8709   23.2107 C   0  0  0  0  0  0
  -25.9035  -32.4847   23.8373 C   0  0  1  0  0  0
  -27.2239  -27.4312   20.1096 C   0  0  0  0  0  0
  -25.5873  -33.8644   24.2302 N   0  0  0  0  0  0
  -23.4011  -30.4966   21.5505 C   0  0  2  0  0  0
  -24.8472  -28.9704   20.1051 C   0  0  0  0  0  0
  -22.7406  -29.4699   22.4968 C   0  0  0  0  0  0
  -18.0301  -28.1452   22.8470 C   0  0  0  0  0  0
  -24.1493  -36.7325   23.2647 C   0  0  0  0  0  0
  -25.9299  -30.8378   21.3641 C   0  0  0  0  0  0
  -26.0072  -29.4757   20.7058 C   0  0  0  0  0  0
  -27.2001  -28.7120   20.7027 C   0  0  0  0  0  0
  -26.0500  -26.9499   19.4823 C   0  0  0  0  0  0
  -24.8654  -27.7089   19.4846 C   0  0  0  0  0  0
  -23.6084  -29.8377   20.1605 C   0  0  0  0  0  0
  -25.4117  -36.3126   24.0332 C   0  0  1  0  0  0
  -20.5881  -28.3709   23.1325 C   0  0  2  0  0  0
  -20.6795  -26.9439   22.5449 C   0  0  0  0  0  0
  -19.5788  -26.6426   21.5253 C   0  0  0  0  0  0
  -18.1944  -26.7999   22.1619 C   0  0  0  0  0  0
  -19.1542  -28.8894   23.2901 C   0  0  0  0  0  0
  -18.9473  -30.1493   23.8912 C   0  0  0  0  0  0
  -17.6472  -30.6626   24.0572 C   0  0  0  0  0  0
  -25.9035  -34.9500   23.5128 C   0  0  0  0  0  0
  -16.5347  -29.9136   23.6367 C   0  0  0  0  0  0
  -16.7277  -28.6575   23.0336 C   0  0  0  0  0  0
  -26.4432  -31.6626   25.0698 C   0  0  0  0  0  0
  -25.3689  -31.3783   26.1432 C   0  0  0  0  0  0
  -27.0250  -30.3060   24.6098 C   0  0  0  0  0  0
  -27.5988  -32.4361   25.7463 C   0  0  0  0  0  0
  -27.5604  -37.1810   24.8446 C   0  0  0  0  0  0
  -21.4131  -29.3063   22.3679 N   0  0  0  0  0  0
  -26.4302  -37.3811   23.9403 N   0  0  0  0  0  0
  -24.6655  -31.0805   22.1015 N   0  0  0  0  0  0
  -23.4158  -28.8257   23.3029 O   0  0  0  0  0  0
  -28.3536  -26.6397   20.1921 O   0  0  0  0  0  0
  -26.5622  -34.8926   22.4705 O   0  0  0  0  0  0
  -23.5318  -32.1444   23.7517 O   0  0  0  0  0  0
  -29.2363  -17.7559   23.2419 C   0  0  0  0  0  0
  -28.8468  -19.0714   23.5647 C   0  0  0  0  0  0
  -31.4694  -18.5526   22.6930 C   0  0  0  0  0  0
  -30.5388  -17.4921   22.7730 C   0  0  0  0  0  0
  -29.7624  -20.1442   23.4410 C   0  0  0  0  0  0
  -31.0826  -19.8700   23.0168 C   0  0  0  0  0  0
  -31.2053  -24.7909   22.9465 C   0  0  0  0  0  0
  -30.0404  -25.5457   22.2974 C   0  0  0  0  0  0
  -30.6954  -23.5972   23.7720 C   0  0  0  0  0  0
  -28.7881  -23.3403   22.1793 C   0  0  0  0  0  0
  -29.2695  -24.5913   21.3722 C   0  0  1  0  0  0
  -29.2559  -17.9059   18.3150 C   0  0  0  0  0  0
  -30.9414  -16.0852   22.3356 C   0  0  0  0  0  0
  -29.3292  -21.5539   23.8433 C   0  0  0  0  0  0
  -28.0837  -25.2983   20.6578 C   0  0  0  0  0  0
  -30.1156  -17.4444   19.5016 C   0  0  0  0  0  0
  -29.3670  -16.3935   20.3535 C   0  0  0  0  0  0
  -30.2082  -15.5010   21.1865 N   0  0  0  0  0  0
  -29.8568  -22.6562   22.9772 N   0  3  2  0  0  0
  -31.9823  -20.8755   22.8960 F   0  0  0  0  0  0
  -31.4481  -12.3579   19.0933 H   0  0  0  0  0  0
  -30.2719  -11.2950   19.8084 H   0  0  0  0  0  0
  -29.7141  -11.7944   17.3984 H   0  0  0  0  0  0
  -29.6654  -13.5011   17.7628 H   0  0  0  0  0  0
  -27.7754  -11.3200   18.7338 H   0  0  0  0  0  0
  -27.3715  -12.7049   17.7566 H   0  0  0  0  0  0
  -27.6210  -14.2216   19.5258 H   0  0  0  0  0  0
  -28.6833  -12.0093   21.3569 H   0  0  0  0  0  0
  -28.4759  -13.6840   21.8238 H   0  0  0  0  0  0
  -25.2731   -9.5838   22.4691 H   0  0  0  0  0  0
  -24.0065   -7.4704   22.7451 H   0  0  0  0  0  0
  -21.0813   -8.8657   19.8921 H   0  0  0  0  0  0
  -22.3544  -10.9638   19.6113 H   0  0  0  0  0  0
  -21.2038   -7.6162   23.9708 H   0  0  0  0  0  0
  -21.1464   -6.0505   25.9049 H   0  0  0  0  0  0
  -22.0624   -2.7614   23.2788 H   0  0  0  0  0  0
  -22.4105  -11.9997   22.4918 H   0  0  0  0  0  0
  -21.1068  -13.1245   22.2442 H   0  0  0  0  0  0
  -24.6646  -15.8385   20.5321 H   0  0  0  0  0  0
  -26.2824  -15.6285   20.1019 H   0  0  0  0  0  0
  -26.7091  -32.5540   23.1116 H   0  0  0  0  0  0
  -24.9889  -33.9791   25.0343 H   0  0  0  0  0  0
  -22.6891  -31.3156   21.4163 H   0  0  0  0  0  0
  -23.3761  -35.9659   23.3314 H   0  0  0  0  0  0
  -24.3559  -36.8968   22.2062 H   0  0  0  0  0  0
  -23.7251  -37.6527   23.6665 H   0  0  0  0  0  0
  -26.0429  -31.6093   20.6008 H   0  0  0  0  0  0
  -26.8173  -30.8896   21.9847 H   0  0  0  0  0  0
  -28.0879  -29.0889   21.1891 H   0  0  0  0  0  0
  -26.0367  -25.9790   19.0069 H   0  0  0  0  0  0
  -23.9696  -27.3184   19.0192 H   0  0  0  0  0  0
  -23.7109  -30.6202   19.4072 H   0  0  0  0  0  0
  -22.7310  -29.2660   19.8590 H   0  0  0  0  0  0
  -25.1322  -36.1968   25.0829 H   0  0  0  0  0  0
  -20.9964  -28.3308   24.1460 H   0  0  0  0  0  0
  -20.5793  -26.2290   23.3621 H   0  0  0  0  0  0
  -21.6645  -26.7552   22.1184 H   0  0  0  0  0  0
  -19.6933  -25.6368   21.1262 H   0  0  0  0  0  0
  -19.6773  -27.3243   20.6798 H   0  0  0  0  0  0
  -17.4232  -26.6777   21.3991 H   0  0  0  0  0  0
  -18.0293  -26.0171   22.9039 H   0  0  0  0  0  0
  -19.7943  -30.7327   24.2247 H   0  0  0  0  0  0
  -17.5039  -31.6306   24.5209 H   0  0  0  0  0  0
  -15.5366  -30.3033   23.7752 H   0  0  0  0  0  0
  -15.8664  -28.0928   22.7024 H   0  0  0  0  0  0
  -24.5798  -30.7219   25.7747 H   0  0  0  0  0  0
  -24.8933  -32.2983   26.4860 H   0  0  0  0  0  0
  -25.7987  -30.8908   27.0196 H   0  0  0  0  0  0
  -26.2797  -29.6846   24.1118 H   0  0  0  0  0  0
  -27.3972  -29.7274   25.4568 H   0  0  0  0  0  0
  -27.8658  -30.4363   23.9279 H   0  0  0  0  0  0
  -27.2562  -33.3637   26.2060 H   0  0  0  0  0  0
  -28.3765  -32.7002   25.0288 H   0  0  0  0  0  0
  -28.0681  -31.8487   26.5363 H   0  0  0  0  0  0
  -28.2583  -38.0142   24.7511 H   0  0  0  0  0  0
  -28.1142  -36.2667   24.6249 H   0  0  0  0  0  0
  -27.2290  -37.1422   25.8838 H   0  0  0  0  0  0
  -20.9291  -29.8667   21.6790 H   0  0  0  0  0  0
  -26.0201  -38.2888   24.1439 H   0  0  0  0  0  0
  -28.5196  -16.9504   23.3255 H   0  0  0  0  0  0
  -27.8372  -19.2422   23.9179 H   0  0  0  0  0  0
  -32.4816  -18.3732   22.3598 H   0  0  0  0  0  0
  -31.7700  -25.4609   23.5962 H   0  0  0  0  0  0
  -31.9044  -24.4575   22.1768 H   0  0  0  0  0  0
  -30.4250  -26.3975   21.7341 H   0  0  0  0  0  0
  -29.3794  -25.9539   23.0647 H   0  0  0  0  0  0
  -30.1210  -23.9716   24.6200 H   0  0  0  0  0  0
  -31.5517  -23.0601   24.1888 H   0  0  0  0  0  0
  -28.3400  -22.6119   21.4973 H   0  0  0  0  0  0
  -27.9889  -23.6426   22.8586 H   0  0  0  0  0  0
  -29.9585  -24.2544   20.5986 H   0  0  0  0  0  0
  -29.7268  -18.7245   17.7692 H   0  0  0  0  0  0
  -28.2679  -18.2438   18.6274 H   0  0  0  0  0  0
  -29.1127  -17.0894   17.6059 H   0  0  0  0  0  0
  -30.8308  -15.4114   23.1877 H   0  0  0  0  0  0
  -32.0142  -16.0981   22.1274 H   0  0  0  0  0  0
  -29.6365  -21.6908   24.8809 H   0  0  0  0  0  0
  -28.2406  -21.5883   23.8660 H   0  0  0  0  0  0
  -27.2371  -25.3213   21.3467 H   0  0  0  0  0  0
  -27.7658  -24.6833   19.8146 H   0  0  0  0  0  0
  -30.3790  -18.3166   20.0997 H   0  0  0  0  0  0
  -31.0532  -17.0402   19.1194 H   0  0  0  0  0  0
  -28.8503  -15.7819   19.6284 H   0  0  0  0  0  0
  -28.5646  -16.8435   20.9348 H   0  0  0  0  0  0
  -30.4887  -22.2062   22.3306 H   0  0  0  0  0  0
  1 25  1  0  0  0
  1 30  2  0  0  0
  1 88  1  0  0  0
  2  3  1  0  0  0
  2 25  1  0  0  0
  2 91  1  0  0  0
  2 92  1  0  0  0
  3  4  1  0  0  0
  3 93  1  0  0  0
  3 94  1  0  0  0
  4  5  1  0  0  0
  4 95  1  0  0  0
  4 96  1  0  0  0
  5  6  1  0  0  0
  5 26  1  0  0  0
  5 97  1  0  0  0
  6 25  1  0  0  0
  6 98  1  0  0  0
  6 99  1  0  0  0
  7  8  2  0  0  0
  7 26  1  0  0  0
  7 29  1  0  0  0
  8  9  1  0  0  0
  8 22  1  0  0  0
  9 10  1  0  0  0
  9 27  2  0  0  0
 10 11  2  0  0  0
 10 15  1  0  0  0
 11 12  1  0  0  0
 11100  1  0  0  0
 12 13  2  0  0  0
 12101  1  0  0  0
 13 14  1  0  0  0
 13 31  1  0  0  0
 14 15  2  0  0  0
 14102  1  0  0  0
 15103  1  0  0  0
 16 17  2  0  0  0
 16 21  1  0  0  0
 16 31  1  0  0  0
 17 18  1  0  0  0
 17104  1  0  0  0
 18 19  2  0  0  0
 18105  1  0  0  0
 19 20  1  0  0  0
 19 24  1  0  0  0
 20 21  2  0  0  0
 20106  1  0  0  0
 21 23  1  0  0  0
 22 28  1  0  0  0
 22 32  2  0  0  0
 26 27  1  0  0  0
 28107  1  0  0  0
 28108  1  0  0  0
 29109  1  0  0  0
 29110  1  0  0  0
 33 34  1  0  0  0
 33 66  1  0  0  0
 33 70  2  0  0  0
 34 36  1  0  0  0
 34 59  1  0  0  0
 34111  1  0  0  0
 35 44  2  0  0  0
 35 45  1  0  0  0
 35 68  1  0  0  0
 36 56  1  0  0  0
 36112  1  0  0  0
 37 39  1  0  0  0
 37 47  1  0  0  0
 37 66  1  0  0  0
 37113  1  0  0  0
 38 43  2  0  0  0
 38 46  1  0  0  0
 38 47  1  0  0  0
 39 64  1  0  0  0
 39 67  2  0  0  0
 40 52  1  0  0  0
 40 53  2  0  0  0
 40 58  1  0  0  0
 41114  1  0  0  0
 41115  1  0  0  0
 41116  1  0  0  0
 41 48  1  0  0  0
 42 43  1  0  0  0
 42 66  1  0  0  0
 42117  1  0  0  0
 42118  1  0  0  0
 43 44  1  0  0  0
 44119  1  0  0  0
 45 46  2  0  0  0
 45120  1  0  0  0
 46121  1  0  0  0
 47122  1  0  0  0
 47123  1  0  0  0
 48 56  1  0  0  0
 48 65  1  0  0  0
 48124  1  0  0  0
 49 50  1  0  0  0
 49 53  1  0  0  0
 49 64  1  0  0  0
 49125  1  0  0  0
 50 51  1  0  0  0
 50126  1  0  0  0
 50127  1  0  0  0
 51 52  1  0  0  0
 51128  1  0  0  0
 51129  1  0  0  0
 52130  1  0  0  0
 52131  1  0  0  0
 53 54  1  0  0  0
 54 55  2  0  0  0
 54132  1  0  0  0
 55 57  1  0  0  0
 55133  1  0  0  0
 56 69  2  0  0  0
 57 58  2  0  0  0
 57134  1  0  0  0
 58135  1  0  0  0
 59 60  1  0  0  0
 59 61  1  0  0  0
 59 62  1  0  0  0
 60136  1  0  0  0
 60137  1  0  0  0
 60138  1  0  0  0
 61139  1  0  0  0
 61140  1  0  0  0
 61141  1  0  0  0
 62142  1  0  0  0
 62143  1  0  0  0
 62144  1  0  0  0
 63 65  1  0  0  0
 63145  1  0  0  0
 63146  1  0  0  0
 63147  1  0  0  0
 64148  1  0  0  0
 65149  1  0  0  0
 68 85  1  0  0  0
 71 72  2  0  0  0
 71 74  1  0  0  0
 71150  1  0  0  0
 72 75  1  0  0  0
 72151  1  0  0  0
 73 74  2  0  0  0
 73 76  1  0  0  0
 73152  1  0  0  0
 74 83  1  0  0  0
 75 76  2  0  0  0
 75 84  1  0  0  0
 76 90  1  0  0  0
 77 78  1  0  0  0
 77 79  1  0  0  0
 77153  1  0  0  0
 77154  1  0  0  0
 78 81  1  0  0  0
 78155  1  0  0  0
 78156  1  0  0  0
 79 89  1  0  0  0
 79157  1  0  0  0
 79158  1  0  0  0
 80 81  1  0  0  0
 80 89  1  0  0  0
 80159  1  0  0  0
 80160  1  0  0  0
 81 85  1  0  0  0
 81161  1  0  0  0
 82 86  1  0  0  0
 82162  1  0  0  0
 82163  1  0  0  0
 82164  1  0  0  0
 83 88  1  0  0  0
 83165  1  0  0  0
 83166  1  0  0  0
 84167  1  0  0  0
 84168  1  0  0  0
 84 89  1  0  0  0
 85169  1  0  0  0
 85170  1  0  0  0
 86 87  1  0  0  0
 86171  1  0  0  0
 86172  1  0  0  0
 87 88  1  0  0  0
 87173  1  0  0  0
 87174  1  0  0  0
 89175  1  0  0  0
M  CHG  1  89   1
M  ISO  4   1 100  68 101  85 101  88 100
M  END
> <chiral flag>
0

> <version>
0

> <s_m_source_file>
/data/baiqing/PycharmProjects/Reinvent-master-3.2/result/LINK_invent/BTK/process_docking_weight1_custom_product_contain_oxygen_bond_distance_aromatic_linkinvent_7_9_3/rearranged_h_0019.sdf

> <i_m_source_file_index>
48

> <r_mmod_Potential_Energy-OPLS-2005>
60.5888366699219

> <r_mmod_Stretch_Energy-OPLS-2005>
43.9133682250977

> <r_mmod_Bend_Energy-OPLS-2005>
109.432884216309

> <r_mmod_Torsional_Energy-OPLS-2005>
347.966827392578

> <r_mmod_Improper_Torsional_Energy-OPLS-2005>
4.54150867462158

> <r_mmod_Van_der_Waal_Energy-OPLS-2005>
165.567153930664

> <r_mmod_Electrostatic_Energy-OPLS-2005>
-228.327056884766

> <r_mmod_Solvation_Energy-OPLS-2005>
-401.716857910156

> <b_mmod_Minimization_Converged-OPLS-2005>
0

> <r_mmod_RMS_Derivative-OPLS-2005>
5.27700042724609

$$$$
48
                    3D
 Structure written by MMmdl.
144152  0  0  1  0            999 V2000
  -30.3016  -15.5936   20.3330 C   0  0  0  0  0  0
  -30.4322  -13.0478   19.5381 C   0  0  0  0  0  0
  -29.5516  -12.6463   18.3199 C   0  0  0  0  0  0
  -28.1208  -12.2989   18.7605 C   0  0  0  0  0  0
  -27.5993  -13.3022   19.8143 C   0  0  2  0  0  0
  -28.6188  -13.6099   20.9357 C   0  0  0  0  0  0
  -25.2336  -13.8274   20.5781 C   0  0  0  0  0  0
  -24.1721  -13.0430   20.9286 C   0  0  0  0  0  0
  -24.6416  -11.6940   20.8765 C   0  0  0  0  0  0
  -23.9116  -10.4290   21.0399 C   0  0  0  0  0  0
  -24.3651   -9.4203   21.9181 C   0  0  0  0  0  0
  -23.6312   -8.2245   22.0754 C   0  0  0  0  0  0
  -22.4293   -8.0286   21.3544 C   0  0  0  0  0  0
  -21.9939   -9.0262   20.4644 C   0  0  0  0  0  0
  -22.7282  -10.2133   20.3051 C   0  0  0  0  0  0
  -21.6858   -6.0741   22.5279 C   0  0  0  0  0  0
  -21.4018   -6.5643   23.8213 C   0  0  0  0  0  0
  -21.3660   -5.6794   24.9174 C   0  0  0  0  0  0
  -21.6044   -4.3057   24.7224 C   0  0  0  0  0  0
  -21.8818   -3.8150   23.4345 C   0  0  0  0  0  0
  -21.9194   -4.6967   22.3401 C   0  0  0  0  0  0
  -22.7733  -13.5164   21.1921 C   0  0  0  0  0  0
  -22.1662   -4.2153   21.0979 F   0  0  0  0  0  0
  -21.5627   -3.4540   25.7736 F   0  0  0  0  0  0
  -29.8004  -14.2228   20.2866 N   0  0  0  0  0  0
  -26.2783  -12.9596   20.3225 N   0  0  0  0  0  0
  -25.9361  -11.6673   20.5701 N   0  0  0  0  0  0
  -22.0398  -12.8141   22.0473 N   0  0  0  0  0  0
  -25.3917  -15.2015   20.4210 N   0  0  0  0  0  0
  -31.5362  -15.5649   20.1660 O   0  0  0  0  0  0
  -21.6648   -6.8888   21.4243 O   0  0  0  0  0  0
  -22.3408  -14.5463   20.6757 O   0  0  0  0  0  0
  -24.6832  -31.8009   23.1526 C   0  0  0  0  0  0
  -25.9416  -32.4473   23.8069 C   0  0  1  0  0  0
  -27.2273  -26.7145   20.2123 C   0  0  0  0  0  0
  -25.5997  -33.8297   24.1956 N   0  0  0  0  0  0
  -23.5090  -30.4034   21.5063 C   0  0  2  0  0  0
  -24.9669  -28.7474   20.1184 C   0  0  0  0  0  0
  -22.7765  -29.4320   22.4714 C   0  0  0  0  0  0
  -18.0339  -28.1421   22.8455 C   0  0  0  0  0  0
  -24.1495  -36.7156   23.2652 C   0  0  0  0  0  0
  -26.0896  -30.5379   21.4156 C   0  0  0  0  0  0
  -26.1563  -29.1041   20.7652 C   0  0  0  0  0  0
  -27.2729  -28.1157   20.7794 C   0  0  0  0  0  0
  -26.0047  -26.5656   19.5093 C   0  0  0  0  0  0
  -24.9295  -27.5032   19.4668 C   0  0  0  0  0  0
  -23.7627  -29.7013   20.1415 C   0  0  0  0  0  0
  -25.4145  -36.2898   24.0282 C   0  0  1  0  0  0
  -20.5975  -28.3780   23.1142 C   0  0  2  0  0  0
  -20.6805  -26.9440   22.5402 C   0  0  0  0  0  0
  -19.5781  -26.6371   21.5216 C   0  0  0  0  0  0
  -18.1964  -26.7949   22.1619 C   0  0  0  0  0  0
  -19.1605  -28.8925   23.2780 C   0  0  0  0  0  0
  -18.9510  -30.1509   23.8825 C   0  0  0  0  0  0
  -17.6500  -30.6603   24.0550 C   0  0  0  0  0  0
  -25.9124  -34.9288   23.4955 C   0  0  0  0  0  0
  -16.5390  -29.9085   23.6350 C   0  0  0  0  0  0
  -16.7319  -28.6507   23.0367 C   0  0  0  0  0  0
  -26.4596  -31.6504   25.0688 C   0  0  0  0  0  0
  -25.3663  -31.3819   26.1303 C   0  0  0  0  0  0
  -27.0528  -30.2843   24.6583 C   0  0  0  0  0  0
  -27.6043  -32.4365   25.7507 C   0  0  0  0  0  0
  -27.5564  -37.1735   24.8466 C   0  0  0  0  0  0
  -21.4413  -29.3029   22.3463 N   0  0  0  0  0  0
  -26.4271  -37.3658   23.9408 N   0  0  0  0  0  0
  -24.7840  -30.9466   22.0774 N   0  0  0  0  0  0
  -23.4212  -28.7920   23.3055 O   0  0  0  0  0  0
  -28.1830  -25.4928   20.2817 O   0  0  0  0  0  0
  -26.5764  -34.8864   22.4571 O   0  0  0  0  0  0
  -23.5853  -32.1078   23.6485 O   0  0  0  0  0  0
  -29.1864  -21.2038   21.2961 C   0  0  0  0  0  0
  -29.5251  -19.7038   21.3322 C   0  0  0  0  0  0
  -28.8232  -19.5007   19.2400 C   0  0  0  0  0  0
  -28.6201  -22.0687   20.2158 C   0  0  0  0  0  0
  -29.3947  -18.6266   20.3023 C   0  0  0  0  0  0
  -28.4875  -20.9923   19.1905 C   0  0  0  0  0  0
  -27.8600  -23.7779   20.1605 C   0  0  0  0  0  0
  -29.4723  -16.9061   20.3788 N   0  0  0  0  0  0
  -27.9202  -21.3953   18.0282 F   0  0  0  0  0  0
  -31.4267  -13.3114   19.1763 H   0  0  0  0  0  0
  -30.5873  -12.1958   20.2021 H   0  0  0  0  0  0
  -29.9968  -11.8060   17.7856 H   0  0  0  0  0  0
  -29.5201  -13.4772   17.6136 H   0  0  0  0  0  0
  -28.1388  -11.2969   19.1910 H   0  0  0  0  0  0
  -27.4515  -12.2539   17.9005 H   0  0  0  0  0  0
  -27.4695  -14.2305   19.2563 H   0  0  0  0  0  0
  -28.8684  -12.7182   21.5127 H   0  0  0  0  0  0
  -28.1944  -14.3244   21.6427 H   0  0  0  0  0  0
  -25.2790   -9.5677   22.4766 H   0  0  0  0  0  0
  -24.0012   -7.4637   22.7479 H   0  0  0  0  0  0
  -21.0868   -8.8790   19.8951 H   0  0  0  0  0  0
  -22.3741  -10.9675   19.6163 H   0  0  0  0  0  0
  -21.2013   -7.6151   23.9718 H   0  0  0  0  0  0
  -21.1482   -6.0524   25.9077 H   0  0  0  0  0  0
  -22.0596   -2.7612   23.2844 H   0  0  0  0  0  0
  -22.4039  -11.9816   22.4867 H   0  0  0  0  0  0
  -21.1004  -13.1136   22.2673 H   0  0  0  0  0  0
  -24.6150  -15.8449   20.5294 H   0  0  0  0  0  0
  -26.2212  -15.6436   20.0494 H   0  0  0  0  0  0
  -26.7498  -32.4949   23.0783 H   0  0  0  0  0  0
  -25.0057  -33.9338   25.0050 H   0  0  0  0  0  0
  -22.8338  -31.2406   21.3171 H   0  0  0  0  0  0
  -23.3775  -35.9466   23.3264 H   0  0  0  0  0  0
  -24.3563  -36.8867   22.2077 H   0  0  0  0  0  0
  -23.7237  -37.6314   23.6761 H   0  0  0  0  0  0
  -26.2919  -31.2640   20.6272 H   0  0  0  0  0  0
  -26.9406  -30.6049   22.0810 H   0  0  0  0  0  0
  -28.1677  -28.3947   21.3177 H   0  0  0  0  0  0
  -25.8373  -25.6241   19.0064 H   0  0  0  0  0  0
  -24.0320  -27.2211   18.9336 H   0  0  0  0  0  0
  -23.9373  -30.4617   19.3795 H   0  0  0  0  0  0
  -22.8679  -29.1672   19.8173 H   0  0  0  0  0  0
  -25.1354  -36.1662   25.0772 H   0  0  0  0  0  0
  -21.0057  -28.3405   24.1268 H   0  0  0  0  0  0
  -20.5668  -26.2405   23.3664 H   0  0  0  0  0  0
  -21.6666  -26.7382   22.1221 H   0  0  0  0  0  0
  -19.6937  -25.6262   21.1293 H   0  0  0  0  0  0
  -19.6724  -27.3141   20.6714 H   0  0  0  0  0  0
  -17.4233  -26.6691   21.4023 H   0  0  0  0  0  0
  -18.0353  -26.0108   22.9032 H   0  0  0  0  0  0
  -19.7985  -30.7344   24.2163 H   0  0  0  0  0  0
  -17.5050  -31.6276   24.5167 H   0  0  0  0  0  0
  -15.5387  -30.2963   23.7715 H   0  0  0  0  0  0
  -15.8720  -28.0801   22.7123 H   0  0  0  0  0  0
  -24.5873  -30.7141   25.7603 H   0  0  0  0  0  0
  -24.8823  -32.3039   26.4532 H   0  0  0  0  0  0
  -25.7841  -30.9111   27.0211 H   0  0  0  0  0  0
  -26.3245  -29.6457   24.1575 H   0  0  0  0  0  0
  -27.3957  -29.7289   25.5323 H   0  0  0  0  0  0
  -27.9224  -30.3970   24.0107 H   0  0  0  0  0  0
  -27.2582  -33.3736   26.1880 H   0  0  0  0  0  0
  -28.3959  -32.6815   25.0413 H   0  0  0  0  0  0
  -28.0596  -31.8632   26.5593 H   0  0  0  0  0  0
  -28.2549  -38.0060   24.7515 H   0  0  0  0  0  0
  -28.1092  -36.2582   24.6293 H   0  0  0  0  0  0
  -27.2278  -37.1370   25.8868 H   0  0  0  0  0  0
  -20.9716  -29.8687   21.6532 H   0  0  0  0  0  0
  -26.0099  -38.2706   24.1421 H   0  0  0  0  0  0
  -29.3322  -21.7147   22.2371 H   0  0  0  0  0  0
  -29.8713  -19.3546   22.2951 H   0  0  0  0  0  0
  -28.5530  -18.9719   18.3380 H   0  0  0  0  0  0
  -27.0570  -23.6664   20.8890 H   0  0  0  0  0  0
  -27.3400  -23.7344   19.2039 H   0  0  0  0  0  0
  -28.5227  -16.5674   20.4289 H   0  0  0  0  0  0
  1 25  1  0  0  0
  1 30  2  0  0  0
  1 78  1  0  0  0
  2  3  1  0  0  0
  2 25  1  0  0  0
  2 80  1  0  0  0
  2 81  1  0  0  0
  3  4  1  0  0  0
  3 82  1  0  0  0
  3 83  1  0  0  0
  4  5  1  0  0  0
  4 84  1  0  0  0
  4 85  1  0  0  0
  5  6  1  0  0  0
  5 26  1  0  0  0
  5 86  1  0  0  0
  6 25  1  0  0  0
  6 87  1  0  0  0
  6 88  1  0  0  0
  7  8  2  0  0  0
  7 26  1  0  0  0
  7 29  1  0  0  0
  8  9  1  0  0  0
  8 22  1  0  0  0
  9 10  1  0  0  0
  9 27  2  0  0  0
 10 11  2  0  0  0
 10 15  1  0  0  0
 11 12  1  0  0  0
 11 89  1  0  0  0
 12 13  2  0  0  0
 12 90  1  0  0  0
 13 14  1  0  0  0
 13 31  1  0  0  0
 14 15  2  0  0  0
 14 91  1  0  0  0
 15 92  1  0  0  0
 16 17  2  0  0  0
 16 21  1  0  0  0
 16 31  1  0  0  0
 17 18  1  0  0  0
 17 93  1  0  0  0
 18 19  2  0  0  0
 18 94  1  0  0  0
 19 20  1  0  0  0
 19 24  1  0  0  0
 20 21  2  0  0  0
 20 95  1  0  0  0
 21 23  1  0  0  0
 22 28  1  0  0  0
 22 32  2  0  0  0
 26 27  1  0  0  0
 28 96  1  0  0  0
 28 97  1  0  0  0
 29 98  1  0  0  0
 29 99  1  0  0  0
 33 34  1  0  0  0
 33 66  1  0  0  0
 33 70  2  0  0  0
 34 36  1  0  0  0
 34 59  1  0  0  0
 34100  1  0  0  0
 35 44  2  0  0  0
 35 45  1  0  0  0
 35 68  1  0  0  0
 36 56  1  0  0  0
 36101  1  0  0  0
 37 39  1  0  0  0
 37 47  1  0  0  0
 37 66  1  0  0  0
 37102  1  0  0  0
 38 43  2  0  0  0
 38 46  1  0  0  0
 38 47  1  0  0  0
 39 64  1  0  0  0
 39 67  2  0  0  0
 40 52  1  0  0  0
 40 53  2  0  0  0
 40 58  1  0  0  0
 41103  1  0  0  0
 41104  1  0  0  0
 41105  1  0  0  0
 41 48  1  0  0  0
 42 43  1  0  0  0
 42 66  1  0  0  0
 42106  1  0  0  0
 42107  1  0  0  0
 43 44  1  0  0  0
 44108  1  0  0  0
 45 46  2  0  0  0
 45109  1  0  0  0
 46110  1  0  0  0
 47111  1  0  0  0
 47112  1  0  0  0
 48 56  1  0  0  0
 48 65  1  0  0  0
 48113  1  0  0  0
 49 50  1  0  0  0
 49 53  1  0  0  0
 49 64  1  0  0  0
 49114  1  0  0  0
 50 51  1  0  0  0
 50115  1  0  0  0
 50116  1  0  0  0
 51 52  1  0  0  0
 51117  1  0  0  0
 51118  1  0  0  0
 52119  1  0  0  0
 52120  1  0  0  0
 53 54  1  0  0  0
 54 55  2  0  0  0
 54121  1  0  0  0
 55 57  1  0  0  0
 55122  1  0  0  0
 56 69  2  0  0  0
 57 58  2  0  0  0
 57123  1  0  0  0
 58124  1  0  0  0
 59 60  1  0  0  0
 59 61  1  0  0  0
 59 62  1  0  0  0
 60125  1  0  0  0
 60126  1  0  0  0
 60127  1  0  0  0
 61128  1  0  0  0
 61129  1  0  0  0
 61130  1  0  0  0
 62131  1  0  0  0
 62132  1  0  0  0
 62133  1  0  0  0
 63 65  1  0  0  0
 63134  1  0  0  0
 63135  1  0  0  0
 63136  1  0  0  0
 64137  1  0  0  0
 65138  1  0  0  0
 68 77  1  0  0  0
 71 72  2  0  0  0
 71 74  1  0  0  0
 71139  1  0  0  0
 72 75  1  0  0  0
 72140  1  0  0  0
 73 75  2  0  0  0
 73 76  1  0  0  0
 73141  1  0  0  0
 74 76  2  0  0  0
 74 77  1  0  0  0
 75 78  1  0  0  0
 76 79  1  0  0  0
 77142  1  0  0  0
 77143  1  0  0  0
 78144  1  0  0  0
M  ISO  4   1 100  68 101  77 101  78 100
M  END
> <chiral flag>
0

> <version>
0

> <s_m_source_file>
/data/baiqing/PycharmProjects/Reinvent-master-3.2/result/LINK_invent/BTK/process_docking_weight1_custom_product_contain_oxygen_bond_distance_aromatic_linkinvent_7_9_3/rearranged_h_0019.sdf

> <i_m_source_file_index>
49

> <r_mmod_Potential_Energy-OPLS-2005>
2286.2490234375

> <r_mmod_Stretch_Energy-OPLS-2005>
913.313842773438

> <r_mmod_Bend_Energy-OPLS-2005>
656.142639160156

> <r_mmod_Torsional_Energy-OPLS-2005>
260.506713867188

> <r_mmod_Improper_Torsional_Energy-OPLS-2005>
10.7463884353638

> <r_mmod_Van_der_Waal_Energy-OPLS-2005>
131.789093017578

> <r_mmod_Electrostatic_Energy-OPLS-2005>
-333.589508056641

> <r_mmod_Solvation_Energy-OPLS-2005>
-213.130996704102

> <b_mmod_Minimization_Converged-OPLS-2005>
1

> <r_mmod_RMS_Derivative-OPLS-2005>
0.0413532331585884

$$$$
49
                    3D
 Structure written by MMmdl.
147155  0  0  1  0            999 V2000
  -30.4081  -15.3282   20.3541 C   0  0  0  0  0  0
  -30.4363  -12.8469   19.5458 C   0  0  0  0  0  0
  -29.5416  -12.5920   18.3042 C   0  0  0  0  0  0
  -28.0916  -12.3045   18.7279 C   0  0  0  0  0  0
  -27.6107  -13.2827   19.8277 C   0  0  2  0  0  0
  -28.6380  -13.4782   20.9651 C   0  0  0  0  0  0
  -25.2375  -13.8264   20.5754 C   0  0  0  0  0  0
  -24.1735  -13.0443   20.9262 C   0  0  0  0  0  0
  -24.6400  -11.6943   20.8768 C   0  0  0  0  0  0
  -23.9100  -10.4297   21.0408 C   0  0  0  0  0  0
  -24.3641   -9.4210   21.9186 C   0  0  0  0  0  0
  -23.6306   -8.2248   22.0756 C   0  0  0  0  0  0
  -22.4288   -8.0288   21.3546 C   0  0  0  0  0  0
  -21.9934   -9.0264   20.4648 C   0  0  0  0  0  0
  -22.7271  -10.2138   20.3056 C   0  0  0  0  0  0
  -21.6856   -6.0741   22.5278 C   0  0  0  0  0  0
  -21.4017   -6.5644   23.8212 C   0  0  0  0  0  0
  -21.3658   -5.6794   24.9174 C   0  0  0  0  0  0
  -21.6041   -4.3057   24.7223 C   0  0  0  0  0  0
  -21.8819   -3.8151   23.4344 C   0  0  0  0  0  0
  -21.9194   -4.6968   22.3402 C   0  0  0  0  0  0
  -22.7750  -13.5185   21.1905 C   0  0  0  0  0  0
  -22.1662   -4.2154   21.0978 F   0  0  0  0  0  0
  -21.5628   -3.4539   25.7735 F   0  0  0  0  0  0
  -29.8669  -14.0021   20.3447 N   0  0  0  0  0  0
  -26.2809  -12.9550   20.3237 N   0  0  0  0  0  0
  -25.9340  -11.6649   20.5733 N   0  0  0  0  0  0
  -22.0412  -12.8162   22.0460 N   0  0  0  0  0  0
  -25.4000  -15.1997   20.4171 N   0  0  0  0  0  0
  -31.6180  -15.3282   20.0799 O   0  0  0  0  0  0
  -21.6646   -6.8886   21.4241 O   0  0  0  0  0  0
  -22.3429  -14.5486   20.6746 O   0  0  0  0  0  0
  -24.6665  -31.8183   23.1664 C   0  0  0  0  0  0
  -25.9327  -32.4563   23.8144 C   0  0  1  0  0  0
  -27.2197  -26.8822   20.1874 C   0  0  0  0  0  0
  -25.5980  -33.8381   24.2046 N   0  0  0  0  0  0
  -23.4841  -30.4286   21.5151 C   0  0  2  0  0  0
  -24.9400  -28.8087   20.1075 C   0  0  0  0  0  0
  -22.7689  -29.4411   22.4751 C   0  0  0  0  0  0
  -18.0325  -28.1419   22.8464 C   0  0  0  0  0  0
  -24.1486  -36.7190   23.2651 C   0  0  0  0  0  0
  -26.0558  -30.6089   21.4054 C   0  0  0  0  0  0
  -26.1218  -29.1947   20.7504 C   0  0  0  0  0  0
  -27.2509  -28.2509   20.7704 C   0  0  0  0  0  0
  -26.0147  -26.6679   19.4784 C   0  0  0  0  0  0
  -24.9151  -27.5678   19.4502 C   0  0  0  0  0  0
  -23.7275  -29.7417   20.1420 C   0  0  0  0  0  0
  -25.4130  -36.2955   24.0299 C   0  0  1  0  0  0
  -20.5955  -28.3764   23.1177 C   0  0  2  0  0  0
  -20.6799  -26.9440   22.5406 C   0  0  0  0  0  0
  -19.5773  -26.6382   21.5219 C   0  0  0  0  0  0
  -18.1953  -26.7952   22.1623 C   0  0  0  0  0  0
  -19.1590  -28.8912   23.2808 C   0  0  0  0  0  0
  -18.9503  -30.1499   23.8851 C   0  0  0  0  0  0
  -17.6498  -30.6608   24.0556 C   0  0  0  0  0  0
  -25.9105  -34.9339   23.4998 C   0  0  0  0  0  0
  -16.5385  -29.9098   23.6347 C   0  0  0  0  0  0
  -16.7308  -28.6516   23.0367 C   0  0  0  0  0  0
  -26.4566  -31.6529   25.0694 C   0  0  0  0  0  0
  -25.3675  -31.3798   26.1338 C   0  0  0  0  0  0
  -27.0473  -30.2888   24.6468 C   0  0  0  0  0  0
  -27.6051  -32.4349   25.7495 C   0  0  0  0  0  0
  -27.5560  -37.1754   24.8471 C   0  0  0  0  0  0
  -21.4353  -29.3044   22.3513 N   0  0  0  0  0  0
  -26.4270  -37.3698   23.9414 N   0  0  0  0  0  0
  -24.7571  -30.9806   22.0820 N   0  0  0  0  0  0
  -23.4215  -28.7989   23.3015 O   0  0  0  0  0  0
  -28.1960  -25.7427   20.3195 O   0  0  0  0  0  0
  -26.5725  -34.8885   22.4600 O   0  0  0  0  0  0
  -23.5724  -32.1174   23.6729 O   0  0  0  0  0  0
  -28.6781  -22.4843   21.9232 C   0  0  0  0  0  0
  -28.9662  -21.2675   22.6050 C   0  0  0  0  0  0
  -28.6098  -22.5877   20.5181 C   0  0  0  0  0  0
  -29.2409  -19.8292   20.5865 C   0  0  0  0  0  0
  -29.2302  -20.0119   21.9872 C   0  0  0  0  0  0
  -28.9092  -21.1889   19.8970 C   0  0  0  0  0  0
  -29.7402  -18.2337   19.9920 C   0  0  0  0  0  0
  -28.0498  -24.1389   19.8694 C   0  0  0  0  0  0
  -29.6356  -16.6076   20.4705 N   0  0  0  0  0  0
  -29.5068  -18.9520   22.7841 F   0  0  0  0  0  0
  -28.8707  -21.1454   18.5436 F   0  0  0  0  0  0
  -31.4554  -13.0513   19.2152 H   0  0  0  0  0  0
  -30.5092  -11.9482   20.1606 H   0  0  0  0  0  0
  -29.9332  -11.7619   17.7145 H   0  0  0  0  0  0
  -29.5649  -13.4687   17.6555 H   0  0  0  0  0  0
  -28.0546  -11.2824   19.1068 H   0  0  0  0  0  0
  -27.4251  -12.3357   17.8651 H   0  0  0  0  0  0
  -27.5208  -14.2446   19.3216 H   0  0  0  0  0  0
  -28.8154  -12.5494   21.5095 H   0  0  0  0  0  0
  -28.2639  -14.1986   21.6942 H   0  0  0  0  0  0
  -25.2781   -9.5684   22.4770 H   0  0  0  0  0  0
  -24.0011   -7.4639   22.7479 H   0  0  0  0  0  0
  -21.0864   -8.8789   19.8951 H   0  0  0  0  0  0
  -22.3730  -10.9680   19.6170 H   0  0  0  0  0  0
  -21.2011   -7.6152   23.9717 H   0  0  0  0  0  0
  -21.1478   -6.0525   25.9076 H   0  0  0  0  0  0
  -22.0599   -2.7613   23.2843 H   0  0  0  0  0  0
  -22.4044  -11.9828   22.4842 H   0  0  0  0  0  0
  -21.1025  -13.1172   22.2672 H   0  0  0  0  0  0
  -24.6262  -15.8473   20.5220 H   0  0  0  0  0  0
  -26.2349  -15.6387   20.0516 H   0  0  0  0  0  0
  -26.7390  -32.5084   23.0851 H   0  0  0  0  0  0
  -25.0079  -33.9451   25.0166 H   0  0  0  0  0  0
  -22.8000  -31.2618   21.3402 H   0  0  0  0  0  0
  -23.3767  -35.9502   23.3289 H   0  0  0  0  0  0
  -24.3558  -36.8860   22.2069 H   0  0  0  0  0  0
  -23.7223  -37.6364   23.6722 H   0  0  0  0  0  0
  -26.2432  -31.3466   20.6241 H   0  0  0  0  0  0
  -26.9135  -30.6664   22.0634 H   0  0  0  0  0  0
  -28.1376  -28.5402   21.3169 H   0  0  0  0  0  0
  -25.8780  -25.7249   18.9711 H   0  0  0  0  0  0
  -24.0197  -27.2688   18.9227 H   0  0  0  0  0  0
  -23.8870  -30.5097   19.3840 H   0  0  0  0  0  0
  -22.8362  -29.1994   19.8213 H   0  0  0  0  0  0
  -25.1329  -36.1746   25.0790 H   0  0  0  0  0  0
  -21.0042  -28.3382   24.1301 H   0  0  0  0  0  0
  -20.5673  -26.2389   23.3654 H   0  0  0  0  0  0
  -21.6661  -26.7408   22.1215 H   0  0  0  0  0  0
  -19.6932  -25.6281   21.1282 H   0  0  0  0  0  0
  -19.6714  -27.3166   20.6727 H   0  0  0  0  0  0
  -17.4223  -26.6698   21.4025 H   0  0  0  0  0  0
  -18.0337  -26.0111   22.9033 H   0  0  0  0  0  0
  -19.7980  -30.7322   24.2202 H   0  0  0  0  0  0
  -17.5055  -31.6284   24.5168 H   0  0  0  0  0  0
  -15.5385  -30.2990   23.7702 H   0  0  0  0  0  0
  -15.8705  -28.0821   22.7116 H   0  0  0  0  0  0
  -24.5896  -30.7102   25.7650 H   0  0  0  0  0  0
  -24.8825  -32.3005   26.4591 H   0  0  0  0  0  0
  -25.7898  -30.9090   27.0224 H   0  0  0  0  0  0
  -26.3157  -29.6549   24.1449 H   0  0  0  0  0  0
  -27.3958  -29.7273   25.5146 H   0  0  0  0  0  0
  -27.9112  -30.4058   23.9924 H   0  0  0  0  0  0
  -27.2625  -33.3719   26.1896 H   0  0  0  0  0  0
  -28.3953  -32.6791   25.0383 H   0  0  0  0  0  0
  -28.0612  -31.8588   26.5556 H   0  0  0  0  0  0
  -28.2567  -38.0058   24.7517 H   0  0  0  0  0  0
  -28.1065  -36.2587   24.6303 H   0  0  0  0  0  0
  -27.2279  -37.1401   25.8874 H   0  0  0  0  0  0
  -20.9615  -29.8731   21.6634 H   0  0  0  0  0  0
  -26.0114  -38.2754   24.1431 H   0  0  0  0  0  0
  -28.4713  -23.3662   22.5124 H   0  0  0  0  0  0
  -28.9834  -21.2968   23.6850 H   0  0  0  0  0  0
  -30.8088  -18.3679   19.8222 H   0  0  0  0  0  0
  -29.3235  -18.2158   18.9848 H   0  0  0  0  0  0
  -26.9740  -23.9787   19.8134 H   0  0  0  0  0  0
  -28.3735  -24.1246   18.8286 H   0  0  0  0  0  0
  -28.6972  -16.3982   20.7779 H   0  0  0  0  0  0
  1 25  1  0  0  0
  1 30  2  0  0  0
  1 79  1  0  0  0
  2  3  1  0  0  0
  2 25  1  0  0  0
  2 82  1  0  0  0
  2 83  1  0  0  0
  3  4  1  0  0  0
  3 84  1  0  0  0
  3 85  1  0  0  0
  4  5  1  0  0  0
  4 86  1  0  0  0
  4 87  1  0  0  0
  5  6  1  0  0  0
  5 26  1  0  0  0
  5 88  1  0  0  0
  6 25  1  0  0  0
  6 89  1  0  0  0
  6 90  1  0  0  0
  7  8  2  0  0  0
  7 26  1  0  0  0
  7 29  1  0  0  0
  8  9  1  0  0  0
  8 22  1  0  0  0
  9 10  1  0  0  0
  9 27  2  0  0  0
 10 11  2  0  0  0
 10 15  1  0  0  0
 11 12  1  0  0  0
 11 91  1  0  0  0
 12 13  2  0  0  0
 12 92  1  0  0  0
 13 14  1  0  0  0
 13 31  1  0  0  0
 14 15  2  0  0  0
 14 93  1  0  0  0
 15 94  1  0  0  0
 16 17  2  0  0  0
 16 21  1  0  0  0
 16 31  1  0  0  0
 17 18  1  0  0  0
 17 95  1  0  0  0
 18 19  2  0  0  0
 18 96  1  0  0  0
 19 20  1  0  0  0
 19 24  1  0  0  0
 20 21  2  0  0  0
 20 97  1  0  0  0
 21 23  1  0  0  0
 22 28  1  0  0  0
 22 32  2  0  0  0
 26 27  1  0  0  0
 28 98  1  0  0  0
 28 99  1  0  0  0
 29100  1  0  0  0
 29101  1  0  0  0
 33 34  1  0  0  0
 33 66  1  0  0  0
 33 70  2  0  0  0
 34 36  1  0  0  0
 34 59  1  0  0  0
 34102  1  0  0  0
 35 44  2  0  0  0
 35 45  1  0  0  0
 35 68  1  0  0  0
 36 56  1  0  0  0
 36103  1  0  0  0
 37 39  1  0  0  0
 37 47  1  0  0  0
 37 66  1  0  0  0
 37104  1  0  0  0
 38 43  2  0  0  0
 38 46  1  0  0  0
 38 47  1  0  0  0
 39 64  1  0  0  0
 39 67  2  0  0  0
 40 52  1  0  0  0
 40 53  2  0  0  0
 40 58  1  0  0  0
 41105  1  0  0  0
 41106  1  0  0  0
 41107  1  0  0  0
 41 48  1  0  0  0
 42 43  1  0  0  0
 42 66  1  0  0  0
 42108  1  0  0  0
 42109  1  0  0  0
 43 44  1  0  0  0
 44110  1  0  0  0
 45 46  2  0  0  0
 45111  1  0  0  0
 46112  1  0  0  0
 47113  1  0  0  0
 47114  1  0  0  0
 48 56  1  0  0  0
 48 65  1  0  0  0
 48115  1  0  0  0
 49 50  1  0  0  0
 49 53  1  0  0  0
 49 64  1  0  0  0
 49116  1  0  0  0
 50 51  1  0  0  0
 50117  1  0  0  0
 50118  1  0  0  0
 51 52  1  0  0  0
 51119  1  0  0  0
 51120  1  0  0  0
 52121  1  0  0  0
 52122  1  0  0  0
 53 54  1  0  0  0
 54 55  2  0  0  0
 54123  1  0  0  0
 55 57  1  0  0  0
 55124  1  0  0  0
 56 69  2  0  0  0
 57 58  2  0  0  0
 57125  1  0  0  0
 58126  1  0  0  0
 59 60  1  0  0  0
 59 61  1  0  0  0
 59 62  1  0  0  0
 60127  1  0  0  0
 60128  1  0  0  0
 60129  1  0  0  0
 61130  1  0  0  0
 61131  1  0  0  0
 61132  1  0  0  0
 62133  1  0  0  0
 62134  1  0  0  0
 62135  1  0  0  0
 63 65  1  0  0  0
 63136  1  0  0  0
 63137  1  0  0  0
 63138  1  0  0  0
 64139  1  0  0  0
 65140  1  0  0  0
 68 78  1  0  0  0
 71 72  2  0  0  0
 71 73  1  0  0  0
 71141  1  0  0  0
 72 75  1  0  0  0
 72142  1  0  0  0
 73 76  2  0  0  0
 73 78  1  0  0  0
 74 75  2  0  0  0
 74 76  1  0  0  0
 74 77  1  0  0  0
 75 80  1  0  0  0
 76 81  1  0  0  0
 77 79  1  0  0  0
 77143  1  0  0  0
 77144  1  0  0  0
 78145  1  0  0  0
 78146  1  0  0  0
 79147  1  0  0  0
M  ISO  4   1 100  68 101  78 101  79 100
M  END
> <chiral flag>
0

> <version>
0

> <s_m_source_file>
/data/baiqing/PycharmProjects/Reinvent-master-3.2/result/LINK_invent/BTK/process_docking_weight1_custom_product_contain_oxygen_bond_distance_aromatic_linkinvent_7_9_3/rearranged_h_0019.sdf

> <i_m_source_file_index>
50

> <r_mmod_Potential_Energy-OPLS-2005>
1401.51330566406

> <r_mmod_Stretch_Energy-OPLS-2005>
649.015258789062

> <r_mmod_Bend_Energy-OPLS-2005>
440.964416503906

> <r_mmod_Torsional_Energy-OPLS-2005>
217.407699584961

> <r_mmod_Improper_Torsional_Energy-OPLS-2005>
5.88884592056274

> <r_mmod_Van_der_Waal_Energy-OPLS-2005>
123.330589294434

> <r_mmod_Electrostatic_Energy-OPLS-2005>
-360.081634521484

> <r_mmod_Solvation_Energy-OPLS-2005>
-207.515106201172

> <b_mmod_Minimization_Converged-OPLS-2005>
0

> <r_mmod_RMS_Derivative-OPLS-2005>
0.659002602100372

$$$$
50
                    3D
 Structure written by MMmdl.
165173  0  0  1  0            999 V2000
  -30.7407  -14.4534   20.6055 C   0  0  0  0  0  0
  -30.4146  -12.3131   19.4150 C   0  0  0  0  0  0
  -29.4847  -12.5061   18.2011 C   0  0  0  0  0  0
  -28.0083  -12.3635   18.6166 C   0  0  0  0  0  0
  -27.6559  -13.2068   19.8699 C   0  0  2  0  0  0
  -28.7003  -13.0055   20.9910 C   0  0  0  0  0  0
  -25.2558  -13.8152   20.5685 C   0  0  0  0  0  0
  -24.1817  -13.0429   20.9199 C   0  0  0  0  0  0
  -24.6378  -11.6898   20.8753 C   0  0  0  0  0  0
  -23.9049  -10.4287   21.0409 C   0  0  0  0  0  0
  -24.3614   -9.4204   21.9183 C   0  0  0  0  0  0
  -23.6298   -8.2234   22.0751 C   0  0  0  0  0  0
  -22.4277   -8.0274   21.3547 C   0  0  0  0  0  0
  -21.9912   -9.0238   20.4645 C   0  0  0  0  0  0
  -22.7226  -10.2125   20.3055 C   0  0  0  0  0  0
  -21.6852   -6.0737   22.5287 C   0  0  0  0  0  0
  -21.4007   -6.5641   23.8221 C   0  0  0  0  0  0
  -21.3659   -5.6795   24.9182 C   0  0  0  0  0  0
  -21.6040   -4.3057   24.7231 C   0  0  0  0  0  0
  -21.8815   -3.8150   23.4356 C   0  0  0  0  0  0
  -21.9192   -4.6966   22.3413 C   0  0  0  0  0  0
  -22.7836  -13.5222   21.1853 C   0  0  0  0  0  0
  -22.1655   -4.2155   21.0991 F   0  0  0  0  0  0
  -21.5637   -3.4538   25.7741 F   0  0  0  0  0  0
  -30.0317  -13.3018   20.4354 N   0  0  0  0  0  0
  -26.2994  -12.9331   20.3359 N   0  0  0  0  0  0
  -25.9307  -11.6490   20.5781 N   0  0  0  0  0  0
  -22.0482  -12.8218   22.0417 N   0  0  0  0  0  0
  -25.4226  -15.1875   20.4052 N   0  0  0  0  0  0
  -31.8622  -14.6172   20.1178 O   0  0  0  0  0  0
  -21.6642   -6.8874   21.4245 O   0  0  0  0  0  0
  -22.3511  -14.5519   20.6699 O   0  0  0  0  0  0
  -24.6152  -31.8688   23.2110 C   0  0  0  0  0  0
  -25.9046  -32.4827   23.8392 C   0  0  1  0  0  0
  -27.2295  -27.4327   20.0895 C   0  0  0  0  0  0
  -25.5911  -33.8624   24.2330 N   0  0  0  0  0  0
  -23.4016  -30.4949   21.5522 C   0  0  2  0  0  0
  -24.8446  -28.9640   20.1145 C   0  0  0  0  0  0
  -22.7406  -29.4671   22.4988 C   0  0  0  0  0  0
  -18.0276  -28.1378   22.8494 C   0  0  0  0  0  0
  -24.1491  -36.7314   23.2634 C   0  0  0  0  0  0
  -25.9309  -30.8345   21.3619 C   0  0  0  0  0  0
  -26.0063  -29.4691   20.7088 C   0  0  0  0  0  0
  -27.2007  -28.7120   20.6925 C   0  0  0  0  0  0
  -26.0430  -26.9470   19.4853 C   0  0  0  0  0  0
  -24.8574  -27.7015   19.5010 C   0  0  0  0  0  0
  -23.6082  -29.8316   20.1659 C   0  0  0  0  0  0
  -25.4108  -36.3113   24.0339 C   0  0  1  0  0  0
  -20.5867  -28.3665   23.1316 C   0  0  2  0  0  0
  -20.6776  -26.9406   22.5415 C   0  0  0  0  0  0
  -19.5752  -26.6387   21.5215 C   0  0  0  0  0  0
  -18.1922  -26.7926   22.1620 C   0  0  0  0  0  0
  -19.1526  -28.8836   23.2909 C   0  0  0  0  0  0
  -18.9453  -30.1446   23.8918 C   0  0  0  0  0  0
  -17.6459  -30.6585   24.0569 C   0  0  0  0  0  0
  -25.9034  -34.9480   23.5123 C   0  0  0  0  0  0
  -16.5350  -29.9087   23.6331 C   0  0  0  0  0  0
  -16.7267  -28.6509   23.0347 C   0  0  0  0  0  0
  -26.4479  -31.6601   25.0712 C   0  0  0  0  0  0
  -25.3759  -31.3700   26.1471 C   0  0  0  0  0  0
  -27.0298  -30.3048   24.6057 C   0  0  0  0  0  0
  -27.6059  -32.4319   25.7472 C   0  0  0  0  0  0
  -27.5589  -37.1804   24.8463 C   0  0  0  0  0  0
  -21.4137  -29.3040   22.3731 N   0  0  0  0  0  0
  -26.4295  -37.3801   23.9420 N   0  0  0  0  0  0
  -24.6678  -31.0794   22.1005 N   0  0  0  0  0  0
  -23.4185  -28.8198   23.3014 O   0  0  0  0  0  0
  -28.4041  -26.7019   20.1153 O   0  0  0  0  0  0
  -26.5590  -34.8932   22.4680 O   0  0  0  0  0  0
  -23.5347  -32.1434   23.7514 O   0  0  0  0  0  0
  -28.9117  -20.1305   21.5766 C   0  0  0  0  0  0
  -28.7076  -18.7385   21.4746 C   0  0  0  0  0  0
  -30.9297  -19.9211   20.2449 C   0  0  0  0  0  0
  -30.0215  -20.7374   20.9530 C   0  0  0  0  0  0
  -29.6007  -17.9170   20.7480 C   0  0  0  0  0  0
  -30.7261  -18.5263   20.1297 C   0  0  0  0  0  0
  -31.7337  -17.7206   19.3299 C   0  0  0  0  0  0
  -30.7924  -15.9354   22.5292 C   0  0  0  0  0  0
  -29.8431  -22.7118   18.6663 C   0  0  0  0  0  0
  -29.2759  -16.4154   20.6098 C   0  0  0  0  0  0
  -30.2544  -22.2490   21.0656 C   0  0  0  0  0  0
  -29.5724  -24.5329   20.3248 C   0  0  0  0  0  0
  -28.3102  -25.2920   19.8566 C   0  0  0  0  0  0
  -30.1439  -15.4432   21.3112 N   0  0  0  0  0  0
  -29.4955  -23.0590   20.0682 N   0  3  1  0  0  0
  -31.4569  -12.4065   19.1071 H   0  0  0  0  0  0
  -30.3133  -11.3041   19.8174 H   0  0  0  0  0  0
  -29.7243  -11.7787   17.4247 H   0  0  0  0  0  0
  -29.6476  -13.4902   17.7584 H   0  0  0  0  0  0
  -27.8216  -11.3081   18.8159 H   0  0  0  0  0  0
  -27.3558  -12.6323   17.7847 H   0  0  0  0  0  0
  -27.6911  -14.2497   19.5609 H   0  0  0  0  0  0
  -28.6773  -11.9765   21.3510 H   0  0  0  0  0  0
  -28.4580  -13.6239   21.8561 H   0  0  0  0  0  0
  -25.2760   -9.5689   22.4761 H   0  0  0  0  0  0
  -24.0014   -7.4625   22.7469 H   0  0  0  0  0  0
  -21.0849   -8.8742   19.8953 H   0  0  0  0  0  0
  -22.3669  -10.9666   19.6167 H   0  0  0  0  0  0
  -21.1994   -7.6147   23.9727 H   0  0  0  0  0  0
  -21.1484   -6.0526   25.9086 H   0  0  0  0  0  0
  -22.0601   -2.7614   23.2857 H   0  0  0  0  0  0
  -22.4089  -11.9892   22.4830 H   0  0  0  0  0  0
  -21.1087  -13.1230   22.2602 H   0  0  0  0  0  0
  -24.6483  -15.8349   20.5088 H   0  0  0  0  0  0
  -26.2623  -15.6292   20.0558 H   0  0  0  0  0  0
  -26.7109  -32.5537   23.1150 H   0  0  0  0  0  0
  -25.0110  -33.9793   25.0507 H   0  0  0  0  0  0
  -22.6906  -31.3128   21.4158 H   0  0  0  0  0  0
  -23.3761  -35.9638   23.3286 H   0  0  0  0  0  0
  -24.3597  -36.8933   22.2052 H   0  0  0  0  0  0
  -23.7231  -37.6510   23.6652 H   0  0  0  0  0  0
  -26.0403  -31.5992   20.5925 H   0  0  0  0  0  0
  -26.8215  -30.8892   21.9767 H   0  0  0  0  0  0
  -28.0973  -29.1015   21.1539 H   0  0  0  0  0  0
  -26.0029  -25.9879   18.9903 H   0  0  0  0  0  0
  -23.9628  -27.3074   19.0383 H   0  0  0  0  0  0
  -23.7187  -30.6092   19.4094 H   0  0  0  0  0  0
  -22.7308  -29.2550   19.8668 H   0  0  0  0  0  0
  -25.1281  -36.1974   25.0831 H   0  0  0  0  0  0
  -20.9963  -28.3229   24.1439 H   0  0  0  0  0  0
  -20.5693  -26.2267   23.3601 H   0  0  0  0  0  0
  -21.6638  -26.7462   22.1192 H   0  0  0  0  0  0
  -19.6914  -25.6301   21.1239 H   0  0  0  0  0  0
  -19.6694  -27.3213   20.6759 H   0  0  0  0  0  0
  -17.4199  -26.6691   21.4018 H   0  0  0  0  0  0
  -18.0321  -26.0061   22.9008 H   0  0  0  0  0  0
  -19.7927  -30.7268   24.2288 H   0  0  0  0  0  0
  -17.5009  -31.6270   24.5161 H   0  0  0  0  0  0
  -15.5354  -30.3001   23.7642 H   0  0  0  0  0  0
  -15.8659  -28.0844   22.7040 H   0  0  0  0  0  0
  -24.5928  -30.7046   25.7818 H   0  0  0  0  0  0
  -24.8959  -32.2855   26.4939 H   0  0  0  0  0  0
  -25.8126  -30.8861   27.0213 H   0  0  0  0  0  0
  -26.2814  -29.6814   24.1147 H   0  0  0  0  0  0
  -27.4127  -29.7277   25.4481 H   0  0  0  0  0  0
  -27.8627  -30.4383   23.9151 H   0  0  0  0  0  0
  -27.2679  -33.3612   26.2069 H   0  0  0  0  0  0
  -28.3857  -32.6885   25.0291 H   0  0  0  0  0  0
  -28.0736  -31.8429   26.5373 H   0  0  0  0  0  0
  -28.2587  -38.0124   24.7547 H   0  0  0  0  0  0
  -28.1106  -36.2656   24.6236 H   0  0  0  0  0  0
  -27.2315  -37.1382   25.8868 H   0  0  0  0  0  0
  -20.9288  -29.8771   21.6967 H   0  0  0  0  0  0
  -26.0180  -38.2872   24.1450 H   0  0  0  0  0  0
  -28.2070  -20.7289   22.1398 H   0  0  0  0  0  0
  -27.8418  -18.3055   21.9563 H   0  0  0  0  0  0
  -31.7932  -20.3745   19.7757 H   0  0  0  0  0  0
  -32.3441  -18.3655   18.6974 H   0  0  0  0  0  0
  -31.2465  -16.9956   18.6783 H   0  0  0  0  0  0
  -32.4066  -17.1908   20.0029 H   0  0  0  0  0  0
  -30.1015  -16.5277   23.1290 H   0  0  0  0  0  0
  -31.6565  -16.5565   22.2879 H   0  0  0  0  0  0
  -31.1365  -15.1088   23.1530 H   0  0  0  0  0  0
  -29.5892  -21.6756   18.4383 H   0  0  0  0  0  0
  -30.9112  -22.8418   18.4841 H   0  0  0  0  0  0
  -29.3051  -23.3297   17.9491 H   0  0  0  0  0  0
  -29.2337  -16.1906   19.5421 H   0  0  0  0  0  0
  -28.2608  -16.2437   20.9695 H   0  0  0  0  0  0
  -31.3205  -22.4646   20.9762 H   0  0  0  0  0  0
  -29.9715  -22.5533   22.0745 H   0  0  0  0  0  0
  -29.6847  -24.7172   21.3940 H   0  0  0  0  0  0
  -30.4627  -24.9491   19.8525 H   0  0  0  0  0  0
  -27.4522  -24.8717   20.3852 H   0  0  0  0  0  0
  -28.1480  -25.1422   18.7887 H   0  0  0  0  0  0
  -28.5319  -22.7897   20.2002 H   0  0  0  0  0  0
  1 25  1  0  0  0
  1 30  2  0  0  0
  1 84  1  0  0  0
  2  3  1  0  0  0
  2 25  1  0  0  0
  2 86  1  0  0  0
  2 87  1  0  0  0
  3  4  1  0  0  0
  3 88  1  0  0  0
  3 89  1  0  0  0
  4  5  1  0  0  0
  4 90  1  0  0  0
  4 91  1  0  0  0
  5  6  1  0  0  0
  5 26  1  0  0  0
  5 92  1  0  0  0
  6 25  1  0  0  0
  6 93  1  0  0  0
  6 94  1  0  0  0
  7  8  2  0  0  0
  7 26  1  0  0  0
  7 29  1  0  0  0
  8  9  1  0  0  0
  8 22  1  0  0  0
  9 10  1  0  0  0
  9 27  2  0  0  0
 10 11  2  0  0  0
 10 15  1  0  0  0
 11 12  1  0  0  0
 11 95  1  0  0  0
 12 13  2  0  0  0
 12 96  1  0  0  0
 13 14  1  0  0  0
 13 31  1  0  0  0
 14 15  2  0  0  0
 14 97  1  0  0  0
 15 98  1  0  0  0
 16 17  2  0  0  0
 16 21  1  0  0  0
 16 31  1  0  0  0
 17 18  1  0  0  0
 17 99  1  0  0  0
 18 19  2  0  0  0
 18100  1  0  0  0
 19 20  1  0  0  0
 19 24  1  0  0  0
 20 21  2  0  0  0
 20101  1  0  0  0
 21 23  1  0  0  0
 22 28  1  0  0  0
 22 32  2  0  0  0
 26 27  1  0  0  0
 28102  1  0  0  0
 28103  1  0  0  0
 29104  1  0  0  0
 29105  1  0  0  0
 33 34  1  0  0  0
 33 66  1  0  0  0
 33 70  2  0  0  0
 34 36  1  0  0  0
 34 59  1  0  0  0
 34106  1  0  0  0
 35 44  2  0  0  0
 35 45  1  0  0  0
 35 68  1  0  0  0
 36 56  1  0  0  0
 36107  1  0  0  0
 37 39  1  0  0  0
 37 47  1  0  0  0
 37 66  1  0  0  0
 37108  1  0  0  0
 38 43  2  0  0  0
 38 46  1  0  0  0
 38 47  1  0  0  0
 39 64  1  0  0  0
 39 67  2  0  0  0
 40 52  1  0  0  0
 40 53  2  0  0  0
 40 58  1  0  0  0
 41109  1  0  0  0
 41110  1  0  0  0
 41111  1  0  0  0
 41 48  1  0  0  0
 42 43  1  0  0  0
 42 66  1  0  0  0
 42112  1  0  0  0
 42113  1  0  0  0
 43 44  1  0  0  0
 44114  1  0  0  0
 45 46  2  0  0  0
 45115  1  0  0  0
 46116  1  0  0  0
 47117  1  0  0  0
 47118  1  0  0  0
 48 56  1  0  0  0
 48 65  1  0  0  0
 48119  1  0  0  0
 49 50  1  0  0  0
 49 53  1  0  0  0
 49 64  1  0  0  0
 49120  1  0  0  0
 50 51  1  0  0  0
 50121  1  0  0  0
 50122  1  0  0  0
 51 52  1  0  0  0
 51123  1  0  0  0
 51124  1  0  0  0
 52125  1  0  0  0
 52126  1  0  0  0
 53 54  1  0  0  0
 54 55  2  0  0  0
 54127  1  0  0  0
 55 57  1  0  0  0
 55128  1  0  0  0
 56 69  2  0  0  0
 57 58  2  0  0  0
 57129  1  0  0  0
 58130  1  0  0  0
 59 60  1  0  0  0
 59 61  1  0  0  0
 59 62  1  0  0  0
 60131  1  0  0  0
 60132  1  0  0  0
 60133  1  0  0  0
 61134  1  0  0  0
 61135  1  0  0  0
 61136  1  0  0  0
 62137  1  0  0  0
 62138  1  0  0  0
 62139  1  0  0  0
 63 65  1  0  0  0
 63140  1  0  0  0
 63141  1  0  0  0
 63142  1  0  0  0
 64143  1  0  0  0
 65144  1  0  0  0
 68 83  1  0  0  0
 71 72  2  0  0  0
 71 74  1  0  0  0
 71145  1  0  0  0
 72 75  1  0  0  0
 72146  1  0  0  0
 73 74  2  0  0  0
 73 76  1  0  0  0
 73147  1  0  0  0
 74 81  1  0  0  0
 75 76  2  0  0  0
 75 80  1  0  0  0
 76 77  1  0  0  0
 77148  1  0  0  0
 77149  1  0  0  0
 77150  1  0  0  0
 78 84  1  0  0  0
 78151  1  0  0  0
 78152  1  0  0  0
 78153  1  0  0  0
 79154  1  0  0  0
 79155  1  0  0  0
 79156  1  0  0  0
 79 85  1  0  0  0
 80 84  1  0  0  0
 80157  1  0  0  0
 80158  1  0  0  0
 81 85  1  0  0  0
 81159  1  0  0  0
 81160  1  0  0  0
 82 83  1  0  0  0
 82 85  1  0  0  0
 82161  1  0  0  0
 82162  1  0  0  0
 83163  1  0  0  0
 83164  1  0  0  0
 85165  1  0  0  0
M  CHG  1  85   1
M  ISO  4   1 100  68 101  83 101  84 100
M  END
> <chiral flag>
0

> <version>
0

> <s_m_source_file>
/data/baiqing/PycharmProjects/Reinvent-master-3.2/result/LINK_invent/BTK/process_docking_weight1_custom_product_contain_oxygen_bond_distance_aromatic_linkinvent_7_9_3/rearranged_h_0019.sdf

> <i_m_source_file_index>
51

> <r_mmod_Potential_Energy-OPLS-2005>
-49.471809387207

> <r_mmod_Stretch_Energy-OPLS-2005>
40.4556007385254

> <r_mmod_Bend_Energy-OPLS-2005>
97.8776016235352

> <r_mmod_Torsional_Energy-OPLS-2005>
268.535522460938

> <r_mmod_Improper_Torsional_Energy-OPLS-2005>
3.82213497161865

> <r_mmod_Van_der_Waal_Energy-OPLS-2005>
151.840179443359

> <r_mmod_Electrostatic_Energy-OPLS-2005>
-214.523727416992

> <r_mmod_Solvation_Energy-OPLS-2005>
-410.512542724609

> <b_mmod_Minimization_Converged-OPLS-2005>
0

> <r_mmod_RMS_Derivative-OPLS-2005>
1.5289466381073

$$$$
51
                    3D
 Structure written by MMmdl.
150158  0  0  1  0            999 V2000
  -30.4061  -15.3594   20.3209 C   0  0  0  0  0  0
  -30.4376  -12.8779   19.4959 C   0  0  0  0  0  0
  -29.5266  -12.5700   18.2806 C   0  0  0  0  0  0
  -28.0919  -12.2494   18.7394 C   0  0  0  0  0  0
  -27.5958  -13.2494   19.8073 C   0  0  2  0  0  0
  -28.6365  -13.5167   20.9187 C   0  0  0  0  0  0
  -25.2329  -13.8129   20.5835 C   0  0  0  0  0  0
  -24.1678  -13.0340   20.9317 C   0  0  0  0  0  0
  -24.6340  -11.6845   20.8808 C   0  0  0  0  0  0
  -23.9066  -10.4223   21.0429 C   0  0  0  0  0  0
  -24.3628   -9.4142   21.9203 C   0  0  0  0  0  0
  -23.6285   -8.2193   22.0769 C   0  0  0  0  0  0
  -22.4265   -8.0257   21.3555 C   0  0  0  0  0  0
  -21.9895   -9.0234   20.4661 C   0  0  0  0  0  0
  -22.7243  -10.2097   20.3064 C   0  0  0  0  0  0
  -21.6833   -6.0731   22.5286 C   0  0  0  0  0  0
  -21.4016   -6.5643   23.8222 C   0  0  0  0  0  0
  -21.3654   -5.6797   24.9188 C   0  0  0  0  0  0
  -21.6037   -4.3059   24.7234 C   0  0  0  0  0  0
  -21.8811   -3.8148   23.4356 C   0  0  0  0  0  0
  -21.9181   -4.6961   22.3411 C   0  0  0  0  0  0
  -22.7694  -13.5125   21.1931 C   0  0  0  0  0  0
  -22.1634   -4.2144   21.0983 F   0  0  0  0  0  0
  -21.5622   -3.4549   25.7750 F   0  0  0  0  0  0
  -29.8464  -14.0417   20.2550 N   0  0  0  0  0  0
  -26.2747  -12.9371   20.3273 N   0  0  0  0  0  0
  -25.9268  -11.6503   20.5794 N   0  0  0  0  0  0
  -22.0325  -12.8144   22.0487 N   0  0  0  0  0  0
  -25.3857  -15.1871   20.4359 N   0  0  0  0  0  0
  -31.6463  -15.3265   20.3031 O   0  0  0  0  0  0
  -21.6612   -6.8873   21.4252 O   0  0  0  0  0  0
  -22.3396  -14.5429   20.6760 O   0  0  0  0  0  0
  -24.6652  -31.8221   23.1680 C   0  0  0  0  0  0
  -25.9317  -32.4587   23.8167 C   0  0  1  0  0  0
  -27.2180  -26.9039   20.1877 C   0  0  0  0  0  0
  -25.5980  -33.8403   24.2077 N   0  0  0  0  0  0
  -23.4815  -30.4330   21.5186 C   0  0  2  0  0  0
  -24.9342  -28.8113   20.1213 C   0  0  0  0  0  0
  -22.7681  -29.4422   22.4766 C   0  0  0  0  0  0
  -18.0324  -28.1405   22.8464 C   0  0  0  0  0  0
  -24.1491  -36.7211   23.2645 C   0  0  0  0  0  0
  -26.0534  -30.6207   21.4017 C   0  0  0  0  0  0
  -26.1218  -29.2057   20.7509 C   0  0  0  0  0  0
  -27.2608  -28.2757   20.7540 C   0  0  0  0  0  0
  -25.9978  -26.6652   19.5178 C   0  0  0  0  0  0
  -24.8977  -27.5606   19.4846 C   0  0  0  0  0  0
  -23.7261  -29.7478   20.1473 C   0  0  0  0  0  0
  -25.4131  -36.2967   24.0298 C   0  0  1  0  0  0
  -20.5951  -28.3750   23.1179 C   0  0  2  0  0  0
  -20.6803  -26.9432   22.5392 C   0  0  0  0  0  0
  -19.5774  -26.6370   21.5209 C   0  0  0  0  0  0
  -18.1958  -26.7935   22.1624 C   0  0  0  0  0  0
  -19.1587  -28.8896   23.2811 C   0  0  0  0  0  0
  -18.9497  -30.1483   23.8853 C   0  0  0  0  0  0
  -17.6492  -30.6592   24.0550 C   0  0  0  0  0  0
  -25.9100  -34.9347   23.5009 C   0  0  0  0  0  0
  -16.5381  -29.9084   23.6335 C   0  0  0  0  0  0
  -16.7307  -28.6502   23.0358 C   0  0  0  0  0  0
  -26.4562  -31.6539   25.0700 C   0  0  0  0  0  0
  -25.3676  -31.3804   26.1351 C   0  0  0  0  0  0
  -27.0467  -30.2904   24.6445 C   0  0  0  0  0  0
  -27.6046  -32.4350   25.7513 C   0  0  0  0  0  0
  -27.5567  -37.1764   24.8467 C   0  0  0  0  0  0
  -21.4345  -29.3046   22.3525 N   0  0  0  0  0  0
  -26.4277  -37.3700   23.9408 N   0  0  0  0  0  0
  -24.7552  -30.9860   22.0834 N   0  0  0  0  0  0
  -23.4220  -28.7975   23.3005 O   0  0  0  0  0  0
  -28.2258  -25.7952   20.1748 O   0  0  0  0  0  0
  -26.5705  -34.8880   22.4606 O   0  0  0  0  0  0
  -23.5716  -32.1196   23.6758 O   0  0  0  0  0  0
  -29.0991  -21.3424   17.9060 C   0  0  0  0  0  0
  -29.3403  -20.1029   18.5594 C   0  0  0  0  0  0
  -28.7752  -22.5602   18.5619 C   0  0  0  0  0  0
  -28.9132  -21.2825   20.6094 C   0  0  0  0  0  0
  -29.3035  -19.9193   19.9673 C   0  0  0  0  0  0
  -28.6311  -22.6660   19.9590 C   0  0  0  0  0  0
  -28.5427  -16.5351   19.2127 C   0  0  0  0  0  0
  -29.7527  -18.3088   20.5819 C   0  0  0  0  0  0
  -27.9780  -24.1955   20.5335 C   0  0  0  0  0  0
  -29.6346  -16.6560   20.1889 N   0  0  0  0  0  0
  -31.4417  -13.1152   19.1406 H   0  0  0  0  0  0
  -30.5480  -12.0041   20.1394 H   0  0  0  0  0  0
  -29.9304  -11.7391   17.7015 H   0  0  0  0  0  0
  -29.5154  -13.4307   17.6096 H   0  0  0  0  0  0
  -28.0976  -11.2449   19.1666 H   0  0  0  0  0  0
  -27.4117  -12.2153   17.8874 H   0  0  0  0  0  0
  -27.4594  -14.1619   19.2394 H   0  0  0  0  0  0
  -28.8423  -12.6218   21.5064 H   0  0  0  0  0  0
  -28.2564  -14.2690   21.6130 H   0  0  0  0  0  0
  -25.2761   -9.5605   22.4802 H   0  0  0  0  0  0
  -23.9967   -7.4573   22.7481 H   0  0  0  0  0  0
  -21.0814   -8.8780   19.8980 H   0  0  0  0  0  0
  -22.3707  -10.9661   19.6190 H   0  0  0  0  0  0
  -21.2027   -7.6152   23.9743 H   0  0  0  0  0  0
  -21.1475   -6.0518   25.9096 H   0  0  0  0  0  0
  -22.0595   -2.7609   23.2864 H   0  0  0  0  0  0
  -22.3922  -11.9821   22.4918 H   0  0  0  0  0  0
  -21.0959  -13.1204   22.2712 H   0  0  0  0  0  0
  -24.6162  -15.8324   20.5822 H   0  0  0  0  0  0
  -26.2392  -15.6484   20.1537 H   0  0  0  0  0  0
  -26.7384  -32.5125   23.0885 H   0  0  0  0  0  0
  -25.0096  -33.9492   25.0205 H   0  0  0  0  0  0
  -22.7950  -31.2645   21.3445 H   0  0  0  0  0  0
  -23.3761  -35.9535   23.3278 H   0  0  0  0  0  0
  -24.3565  -36.8889   22.2064 H   0  0  0  0  0  0
  -23.7243  -37.6388   23.6723 H   0  0  0  0  0  0
  -26.2341  -31.3561   20.6164 H   0  0  0  0  0  0
  -26.9132  -30.6830   22.0573 H   0  0  0  0  0  0
  -28.1649  -28.5830   21.2601 H   0  0  0  0  0  0
  -25.8700  -25.7142   19.0201 H   0  0  0  0  0  0
  -23.9960  -27.2523   18.9730 H   0  0  0  0  0  0
  -23.8958  -30.5159   19.3919 H   0  0  0  0  0  0
  -22.8334  -29.2118   19.8191 H   0  0  0  0  0  0
  -25.1328  -36.1768   25.0787 H   0  0  0  0  0  0
  -21.0042  -28.3359   24.1299 H   0  0  0  0  0  0
  -20.5684  -26.2371   23.3634 H   0  0  0  0  0  0
  -21.6667  -26.7408   22.1195 H   0  0  0  0  0  0
  -19.6937  -25.6262   21.1277 H   0  0  0  0  0  0
  -19.6708  -27.3145   20.6706 H   0  0  0  0  0  0
  -17.4219  -26.6658   21.4034 H   0  0  0  0  0  0
  -18.0366  -26.0095   22.9042 H   0  0  0  0  0  0
  -19.7969  -30.7308   24.2212 H   0  0  0  0  0  0
  -17.5041  -31.6268   24.5161 H   0  0  0  0  0  0
  -15.5378  -30.2979   23.7674 H   0  0  0  0  0  0
  -15.8704  -28.0803   22.7111 H   0  0  0  0  0  0
  -24.5852  -30.7169   25.7651 H   0  0  0  0  0  0
  -24.8875  -32.3014   26.4659 H   0  0  0  0  0  0
  -25.7885  -30.9033   27.0209 H   0  0  0  0  0  0
  -26.3135  -29.6561   24.1448 H   0  0  0  0  0  0
  -27.3996  -29.7290   25.5107 H   0  0  0  0  0  0
  -27.9076  -30.4089   23.9864 H   0  0  0  0  0  0
  -27.2607  -33.3691   26.1972 H   0  0  0  0  0  0
  -28.3924  -32.6850   25.0393 H   0  0  0  0  0  0
  -28.0641  -31.8558   26.5535 H   0  0  0  0  0  0
  -28.2566  -38.0073   24.7501 H   0  0  0  0  0  0
  -28.1080  -36.2599   24.6313 H   0  0  0  0  0  0
  -27.2284  -37.1426   25.8868 H   0  0  0  0  0  0
  -20.9595  -29.8769   21.6684 H   0  0  0  0  0  0
  -26.0127  -38.2760   24.1413 H   0  0  0  0  0  0
  -29.1603  -21.3593   16.8262 H   0  0  0  0  0  0
  -29.5855  -19.2613   17.9252 H   0  0  0  0  0  0
  -28.5853  -23.4371   17.9588 H   0  0  0  0  0  0
  -28.8028  -21.2637   21.6838 H   0  0  0  0  0  0
  -27.6351  -16.2598   19.7372 H   0  0  0  0  0  0
  -28.7547  -15.8043   18.4313 H   0  0  0  0  0  0
  -28.3249  -17.4667   18.6925 H   0  0  0  0  0  0
  -28.6778  -18.2659   20.7505 H   0  0  0  0  0  0
  -30.3563  -18.2723   19.6780 H   0  0  0  0  0  0
  -28.0957  -24.1405   21.6162 H   0  0  0  0  0  0
  -26.9055  -24.0627   20.3866 H   0  0  0  0  0  0
  1 25  1  0  0  0
  1 30  2  0  0  0
  1 80  1  0  0  0
  2  3  1  0  0  0
  2 25  1  0  0  0
  2 81  1  0  0  0
  2 82  1  0  0  0
  3  4  1  0  0  0
  3 83  1  0  0  0
  3 84  1  0  0  0
  4  5  1  0  0  0
  4 85  1  0  0  0
  4 86  1  0  0  0
  5  6  1  0  0  0
  5 26  1  0  0  0
  5 87  1  0  0  0
  6 25  1  0  0  0
  6 88  1  0  0  0
  6 89  1  0  0  0
  7  8  2  0  0  0
  7 26  1  0  0  0
  7 29  1  0  0  0
  8  9  1  0  0  0
  8 22  1  0  0  0
  9 10  1  0  0  0
  9 27  2  0  0  0
 10 11  2  0  0  0
 10 15  1  0  0  0
 11 12  1  0  0  0
 11 90  1  0  0  0
 12 13  2  0  0  0
 12 91  1  0  0  0
 13 14  1  0  0  0
 13 31  1  0  0  0
 14 15  2  0  0  0
 14 92  1  0  0  0
 15 93  1  0  0  0
 16 17  2  0  0  0
 16 21  1  0  0  0
 16 31  1  0  0  0
 17 18  1  0  0  0
 17 94  1  0  0  0
 18 19  2  0  0  0
 18 95  1  0  0  0
 19 20  1  0  0  0
 19 24  1  0  0  0
 20 21  2  0  0  0
 20 96  1  0  0  0
 21 23  1  0  0  0
 22 28  1  0  0  0
 22 32  2  0  0  0
 26 27  1  0  0  0
 28 97  1  0  0  0
 28 98  1  0  0  0
 29 99  1  0  0  0
 29100  1  0  0  0
 33 34  1  0  0  0
 33 66  1  0  0  0
 33 70  2  0  0  0
 34 36  1  0  0  0
 34 59  1  0  0  0
 34101  1  0  0  0
 35 44  2  0  0  0
 35 45  1  0  0  0
 35 68  1  0  0  0
 36 56  1  0  0  0
 36102  1  0  0  0
 37 39  1  0  0  0
 37 47  1  0  0  0
 37 66  1  0  0  0
 37103  1  0  0  0
 38 43  2  0  0  0
 38 46  1  0  0  0
 38 47  1  0  0  0
 39 64  1  0  0  0
 39 67  2  0  0  0
 40 52  1  0  0  0
 40 53  2  0  0  0
 40 58  1  0  0  0
 41104  1  0  0  0
 41105  1  0  0  0
 41106  1  0  0  0
 41 48  1  0  0  0
 42 43  1  0  0  0
 42 66  1  0  0  0
 42107  1  0  0  0
 42108  1  0  0  0
 43 44  1  0  0  0
 44109  1  0  0  0
 45 46  2  0  0  0
 45110  1  0  0  0
 46111  1  0  0  0
 47112  1  0  0  0
 47113  1  0  0  0
 48 56  1  0  0  0
 48 65  1  0  0  0
 48114  1  0  0  0
 49 50  1  0  0  0
 49 53  1  0  0  0
 49 64  1  0  0  0
 49115  1  0  0  0
 50 51  1  0  0  0
 50116  1  0  0  0
 50117  1  0  0  0
 51 52  1  0  0  0
 51118  1  0  0  0
 51119  1  0  0  0
 52120  1  0  0  0
 52121  1  0  0  0
 53 54  1  0  0  0
 54 55  2  0  0  0
 54122  1  0  0  0
 55 57  1  0  0  0
 55123  1  0  0  0
 56 69  2  0  0  0
 57 58  2  0  0  0
 57124  1  0  0  0
 58125  1  0  0  0
 59 60  1  0  0  0
 59 61  1  0  0  0
 59 62  1  0  0  0
 60126  1  0  0  0
 60127  1  0  0  0
 60128  1  0  0  0
 61129  1  0  0  0
 61130  1  0  0  0
 61131  1  0  0  0
 62132  1  0  0  0
 62133  1  0  0  0
 62134  1  0  0  0
 63 65  1  0  0  0
 63135  1  0  0  0
 63136  1  0  0  0
 63137  1  0  0  0
 64138  1  0  0  0
 65139  1  0  0  0
 68 79  1  0  0  0
 71 72  2  0  0  0
 71 73  1  0  0  0
 71140  1  0  0  0
 72 75  1  0  0  0
 72141  1  0  0  0
 73 76  2  0  0  0
 73142  1  0  0  0
 74 75  2  0  0  0
 74 76  1  0  0  0
 74143  1  0  0  0
 75 78  1  0  0  0
 76 79  1  0  0  0
 77 80  1  0  0  0
 77144  1  0  0  0
 77145  1  0  0  0
 77146  1  0  0  0
 78 80  1  0  0  0
 78147  1  0  0  0
 78148  1  0  0  0
 79149  1  0  0  0
 79150  1  0  0  0
M  ISO  4   1 100  68 101  79 101  80 100
M  END
> <chiral flag>
0

> <version>
0

> <s_m_source_file>
/data/baiqing/PycharmProjects/Reinvent-master-3.2/result/LINK_invent/BTK/process_docking_weight1_custom_product_contain_oxygen_bond_distance_aromatic_linkinvent_7_9_3/rearranged_h_0019.sdf

> <i_m_source_file_index>
52

> <r_mmod_Potential_Energy-OPLS-2005>
1735.912109375

> <r_mmod_Stretch_Energy-OPLS-2005>
637.946166992188

> <r_mmod_Bend_Energy-OPLS-2005>
611.77294921875

> <r_mmod_Torsional_Energy-OPLS-2005>
292.478118896484

> <r_mmod_Improper_Torsional_Energy-OPLS-2005>
6.31598949432373

> <r_mmod_Van_der_Waal_Energy-OPLS-2005>
139.847381591797

> <r_mmod_Electrostatic_Energy-OPLS-2005>
-285.295562744141

> <r_mmod_Solvation_Energy-OPLS-2005>
-206.257659912109

> <b_mmod_Minimization_Converged-OPLS-2005>
0

> <r_mmod_RMS_Derivative-OPLS-2005>
2.4235053062439

$$$$
52
                    3D
 Structure written by MMmdl.
162170  0  0  1  0            999 V2000
  -30.7089  -14.4283   20.5895 C   0  0  0  0  0  0
  -30.4177  -12.2743   19.4268 C   0  0  0  0  0  0
  -29.5032  -12.5223   18.2101 C   0  0  0  0  0  0
  -28.0177  -12.3937   18.6077 C   0  0  0  0  0  0
  -27.6670  -13.2096   19.8808 C   0  0  2  0  0  0
  -28.7036  -12.9514   20.9988 C   0  0  0  0  0  0
  -25.2598  -13.8185   20.5644 C   0  0  0  0  0  0
  -24.1842  -13.0447   20.9133 C   0  0  0  0  0  0
  -24.6399  -11.6916   20.8681 C   0  0  0  0  0  0
  -23.9037  -10.4306   21.0360 C   0  0  0  0  0  0
  -24.3594   -9.4235   21.9154 C   0  0  0  0  0  0
  -23.6286   -8.2263   22.0745 C   0  0  0  0  0  0
  -22.4273   -8.0285   21.3539 C   0  0  0  0  0  0
  -21.9888   -9.0241   20.4642 C   0  0  0  0  0  0
  -22.7195  -10.2132   20.3026 C   0  0  0  0  0  0
  -21.6851   -6.0731   22.5266 C   0  0  0  0  0  0
  -21.4024   -6.5634   23.8204 C   0  0  0  0  0  0
  -21.3670   -5.6790   24.9171 C   0  0  0  0  0  0
  -21.6041   -4.3051   24.7223 C   0  0  0  0  0  0
  -21.8823   -3.8133   23.4346 C   0  0  0  0  0  0
  -21.9199   -4.6950   22.3400 C   0  0  0  0  0  0
  -22.7871  -13.5241   21.1816 C   0  0  0  0  0  0
  -22.1662   -4.2139   21.0973 F   0  0  0  0  0  0
  -21.5638   -3.4535   25.7735 F   0  0  0  0  0  0
  -30.0468  -13.2469   20.4643 N   0  0  0  0  0  0
  -26.3042  -12.9354   20.3341 N   0  0  0  0  0  0
  -25.9330  -11.6504   20.5718 N   0  0  0  0  0  0
  -22.0523  -12.8248   22.0400 N   0  0  0  0  0  0
  -25.4279  -15.1906   20.4070 N   0  0  0  0  0  0
  -31.8127  -14.6347   20.0798 O   0  0  0  0  0  0
  -21.6647   -6.8873   21.4233 O   0  0  0  0  0  0
  -22.3531  -14.5525   20.6652 O   0  0  0  0  0  0
  -24.6168  -31.8670   23.2100 C   0  0  0  0  0  0
  -25.9053  -32.4824   23.8393 C   0  0  1  0  0  0
  -27.2380  -27.4368   20.1034 C   0  0  0  0  0  0
  -25.5913  -33.8631   24.2334 N   0  0  0  0  0  0
  -23.4052  -30.4902   21.5487 C   0  0  2  0  0  0
  -24.8526  -28.9557   20.1163 C   0  0  0  0  0  0
  -22.7420  -29.4661   22.4993 C   0  0  0  0  0  0
  -18.0273  -28.1391   22.8476 C   0  0  0  0  0  0
  -24.1479  -36.7315   23.2627 C   0  0  0  0  0  0
  -25.9328  -30.8367   21.3598 C   0  0  0  0  0  0
  -26.0119  -29.4701   20.7096 C   0  0  0  0  0  0
  -27.2091  -28.7198   20.6955 C   0  0  0  0  0  0
  -26.0634  -26.9387   19.4952 C   0  0  0  0  0  0
  -24.8733  -27.6910   19.5025 C   0  0  0  0  0  0
  -23.6142  -29.8205   20.1637 C   0  0  0  0  0  0
  -25.4102  -36.3129   24.0327 C   0  0  1  0  0  0
  -20.5865  -28.3689   23.1325 C   0  0  2  0  0  0
  -20.6799  -26.9452   22.5372 C   0  0  0  0  0  0
  -19.5769  -26.6486   21.5154 C   0  0  0  0  0  0
  -18.1949  -26.7948   22.1588 C   0  0  0  0  0  0
  -19.1522  -28.8842   23.2901 C   0  0  0  0  0  0
  -18.9457  -30.1452   23.8930 C   0  0  0  0  0  0
  -17.6458  -30.6589   24.0582 C   0  0  0  0  0  0
  -25.9036  -34.9485   23.5126 C   0  0  0  0  0  0
  -16.5345  -29.9105   23.6319 C   0  0  0  0  0  0
  -16.7264  -28.6526   23.0333 C   0  0  0  0  0  0
  -26.4496  -31.6596   25.0706 C   0  0  0  0  0  0
  -25.3763  -31.3682   26.1446 C   0  0  0  0  0  0
  -27.0327  -30.3043   24.6059 C   0  0  0  0  0  0
  -27.6083  -32.4302   25.7455 C   0  0  0  0  0  0
  -27.5577  -37.1807   24.8465 C   0  0  0  0  0  0
  -21.4140  -29.3079   22.3765 N   0  0  0  0  0  0
  -26.4294  -37.3802   23.9407 N   0  0  0  0  0  0
  -24.6699  -31.0777   22.0985 N   0  0  0  0  0  0
  -23.4187  -28.8167   23.3011 O   0  0  0  0  0  0
  -28.4020  -26.6962   20.1173 O   0  0  0  0  0  0
  -26.5586  -34.8933   22.4682 O   0  0  0  0  0  0
  -23.5361  -32.1427   23.7488 O   0  0  0  0  0  0
  -28.1588  -18.5661   21.3930 C   0  0  0  0  0  0
  -29.6942  -18.6759   19.5183 C   0  0  0  0  0  0
  -28.6494  -19.2565   20.2649 C   0  0  0  0  0  0
  -28.6658  -17.2935   21.7409 C   0  0  0  0  0  0
  -29.6838  -16.6827   20.9613 C   0  0  0  0  0  0
  -30.2095  -17.4063   19.8535 C   0  0  0  0  0  0
  -28.0635  -16.5751   22.9385 C   0  0  0  0  0  0
  -28.6712  -22.0511   21.6349 C   0  0  0  0  0  0
  -27.9800  -20.5509   19.7912 C   0  0  0  0  0  0
  -28.8572  -24.3316   19.5056 C   0  0  0  0  0  0
  -28.1082  -22.9724   19.3925 C   0  0  0  0  0  0
  -28.2767  -25.3252   20.5395 C   0  0  0  0  0  0
  -30.0651  -15.3490   21.3241 N   0  0  0  0  0  0
  -28.6645  -21.8222   20.1708 N   0  3  1  0  0  0
  -31.1829  -16.9039   19.0622 F   0  0  0  0  0  0
  -31.4697  -12.3437   19.1434 H   0  0  0  0  0  0
  -30.2807  -11.2602   19.8037 H   0  0  0  0  0  0
  -29.7414  -11.8226   17.4081 H   0  0  0  0  0  0
  -29.6897  -13.5198   17.8073 H   0  0  0  0  0  0
  -27.8086  -11.3368   18.7753 H   0  0  0  0  0  0
  -27.3795  -12.7000   17.7783 H   0  0  0  0  0  0
  -27.7210  -14.2653   19.6109 H   0  0  0  0  0  0
  -28.6664  -11.9072   21.3122 H   0  0  0  0  0  0
  -28.4602  -13.5197   21.8969 H   0  0  0  0  0  0
  -25.2739   -9.5745   22.4723 H   0  0  0  0  0  0
  -24.0008   -7.4671   22.7476 H   0  0  0  0  0  0
  -21.0815   -8.8717   19.8975 H   0  0  0  0  0  0
  -22.3598  -10.9648   19.6129 H   0  0  0  0  0  0
  -21.2006   -7.6139   23.9698 H   0  0  0  0  0  0
  -21.1494   -6.0526   25.9075 H   0  0  0  0  0  0
  -22.0594   -2.7594   23.2833 H   0  0  0  0  0  0
  -22.4116  -11.9896   22.4774 H   0  0  0  0  0  0
  -21.1132  -13.1263   22.2580 H   0  0  0  0  0  0
  -24.6577  -15.8407   20.5214 H   0  0  0  0  0  0
  -26.2838  -15.6373   20.1006 H   0  0  0  0  0  0
  -26.7128  -32.5545   23.1168 H   0  0  0  0  0  0
  -25.0120  -33.9795   25.0518 H   0  0  0  0  0  0
  -22.6944  -31.3076   21.4092 H   0  0  0  0  0  0
  -23.3755  -35.9638   23.3311 H   0  0  0  0  0  0
  -24.3575  -36.8911   22.2042 H   0  0  0  0  0  0
  -23.7222  -37.6520   23.6628 H   0  0  0  0  0  0
  -26.0362  -31.6015   20.5896 H   0  0  0  0  0  0
  -26.8244  -30.8968   21.9716 H   0  0  0  0  0  0
  -28.1065  -29.1126   21.1541 H   0  0  0  0  0  0
  -26.0640  -25.9719   19.0134 H   0  0  0  0  0  0
  -23.9843  -27.2934   19.0329 H   0  0  0  0  0  0
  -23.7236  -30.5954   19.4042 H   0  0  0  0  0  0
  -22.7395  -29.2394   19.8675 H   0  0  0  0  0  0
  -25.1286  -36.1990   25.0817 H   0  0  0  0  0  0
  -20.9931  -28.3237   24.1458 H   0  0  0  0  0  0
  -20.5713  -26.2290   23.3519 H   0  0  0  0  0  0
  -21.6671  -26.7510   22.1141 H   0  0  0  0  0  0
  -19.6955  -25.6444   21.1083 H   0  0  0  0  0  0
  -19.6697  -27.3384   20.6743 H   0  0  0  0  0  0
  -17.4210  -26.6676   21.3999 H   0  0  0  0  0  0
  -18.0367  -26.0074   22.8971 H   0  0  0  0  0  0
  -19.7936  -30.7242   24.2321 H   0  0  0  0  0  0
  -17.5017  -31.6251   24.5228 H   0  0  0  0  0  0
  -15.5352  -30.3020   23.7672 H   0  0  0  0  0  0
  -15.8644  -28.0882   22.7038 H   0  0  0  0  0  0
  -24.5947  -30.7023   25.7772 H   0  0  0  0  0  0
  -24.8944  -32.2830   26.4894 H   0  0  0  0  0  0
  -25.8114  -30.8844   27.0197 H   0  0  0  0  0  0
  -26.2865  -29.6785   24.1150 H   0  0  0  0  0  0
  -27.4171  -29.7280   25.4489 H   0  0  0  0  0  0
  -27.8661  -30.4392   23.9160 H   0  0  0  0  0  0
  -27.2729  -33.3598   26.2063 H   0  0  0  0  0  0
  -28.3867  -32.6864   25.0255 H   0  0  0  0  0  0
  -28.0788  -31.8406   26.5335 H   0  0  0  0  0  0
  -28.2612  -38.0090   24.7527 H   0  0  0  0  0  0
  -28.1064  -36.2629   24.6297 H   0  0  0  0  0  0
  -27.2292  -37.1457   25.8866 H   0  0  0  0  0  0
  -20.9293  -29.8903   21.7078 H   0  0  0  0  0  0
  -26.0193  -38.2874   24.1440 H   0  0  0  0  0  0
  -27.3533  -18.9971   21.9746 H   0  0  0  0  0  0
  -30.0872  -19.1795   18.6469 H   0  0  0  0  0  0
  -27.5315  -15.6803   22.6158 H   0  0  0  0  0  0
  -27.3500  -17.2085   23.4675 H   0  0  0  0  0  0
  -28.8374  -16.2850   23.6501 H   0  0  0  0  0  0
  -29.0835  -21.1926   22.1659 H   0  0  0  0  0  0
  -27.6645  -22.2270   22.0175 H   0  0  0  0  0  0
  -29.2894  -22.9083   21.9019 H   0  0  0  0  0  0
  -26.9481  -20.5731   20.1443 H   0  0  0  0  0  0
  -27.9092  -20.4866   18.7051 H   0  0  0  0  0  0
  -28.7786  -24.8123   18.5295 H   0  0  0  0  0  0
  -29.9263  -24.1840   19.6646 H   0  0  0  0  0  0
  -28.1439  -22.6859   18.3407 H   0  0  0  0  0  0
  -27.0474  -23.1032   19.6106 H   0  0  0  0  0  0
  -28.8181  -25.2215   21.4795 H   0  0  0  0  0  0
  -27.2494  -25.0594   20.7879 H   0  0  0  0  0  0
  -29.4265  -14.9239   21.9749 H   0  0  0  0  0  0
  -29.6255  -21.7064   19.8883 H   0  0  0  0  0  0
  1 25  1  0  0  0
  1 30  2  0  0  0
  1 83  1  0  0  0
  2  3  1  0  0  0
  2 25  1  0  0  0
  2 86  1  0  0  0
  2 87  1  0  0  0
  3  4  1  0  0  0
  3 88  1  0  0  0
  3 89  1  0  0  0
  4  5  1  0  0  0
  4 90  1  0  0  0
  4 91  1  0  0  0
  5  6  1  0  0  0
  5 26  1  0  0  0
  5 92  1  0  0  0
  6 25  1  0  0  0
  6 93  1  0  0  0
  6 94  1  0  0  0
  7  8  2  0  0  0
  7 26  1  0  0  0
  7 29  1  0  0  0
  8  9  1  0  0  0
  8 22  1  0  0  0
  9 10  1  0  0  0
  9 27  2  0  0  0
 10 11  2  0  0  0
 10 15  1  0  0  0
 11 12  1  0  0  0
 11 95  1  0  0  0
 12 13  2  0  0  0
 12 96  1  0  0  0
 13 14  1  0  0  0
 13 31  1  0  0  0
 14 15  2  0  0  0
 14 97  1  0  0  0
 15 98  1  0  0  0
 16 17  2  0  0  0
 16 21  1  0  0  0
 16 31  1  0  0  0
 17 18  1  0  0  0
 17 99  1  0  0  0
 18 19  2  0  0  0
 18100  1  0  0  0
 19 20  1  0  0  0
 19 24  1  0  0  0
 20 21  2  0  0  0
 20101  1  0  0  0
 21 23  1  0  0  0
 22 28  1  0  0  0
 22 32  2  0  0  0
 26 27  1  0  0  0
 28102  1  0  0  0
 28103  1  0  0  0
 29104  1  0  0  0
 29105  1  0  0  0
 33 34  1  0  0  0
 33 66  1  0  0  0
 33 70  2  0  0  0
 34 36  1  0  0  0
 34 59  1  0  0  0
 34106  1  0  0  0
 35 44  2  0  0  0
 35 45  1  0  0  0
 35 68  1  0  0  0
 36 56  1  0  0  0
 36107  1  0  0  0
 37 39  1  0  0  0
 37 47  1  0  0  0
 37 66  1  0  0  0
 37108  1  0  0  0
 38 43  2  0  0  0
 38 46  1  0  0  0
 38 47  1  0  0  0
 39 64  1  0  0  0
 39 67  2  0  0  0
 40 52  1  0  0  0
 40 53  2  0  0  0
 40 58  1  0  0  0
 41109  1  0  0  0
 41110  1  0  0  0
 41111  1  0  0  0
 41 48  1  0  0  0
 42 43  1  0  0  0
 42 66  1  0  0  0
 42112  1  0  0  0
 42113  1  0  0  0
 43 44  1  0  0  0
 44114  1  0  0  0
 45 46  2  0  0  0
 45115  1  0  0  0
 46116  1  0  0  0
 47117  1  0  0  0
 47118  1  0  0  0
 48 56  1  0  0  0
 48 65  1  0  0  0
 48119  1  0  0  0
 49 50  1  0  0  0
 49 53  1  0  0  0
 49 64  1  0  0  0
 49120  1  0  0  0
 50 51  1  0  0  0
 50121  1  0  0  0
 50122  1  0  0  0
 51 52  1  0  0  0
 51123  1  0  0  0
 51124  1  0  0  0
 52125  1  0  0  0
 52126  1  0  0  0
 53 54  1  0  0  0
 54 55  2  0  0  0
 54127  1  0  0  0
 55 57  1  0  0  0
 55128  1  0  0  0
 56 69  2  0  0  0
 57 58  2  0  0  0
 57129  1  0  0  0
 58130  1  0  0  0
 59 60  1  0  0  0
 59 61  1  0  0  0
 59 62  1  0  0  0
 60131  1  0  0  0
 60132  1  0  0  0
 60133  1  0  0  0
 61134  1  0  0  0
 61135  1  0  0  0
 61136  1  0  0  0
 62137  1  0  0  0
 62138  1  0  0  0
 62139  1  0  0  0
 63 65  1  0  0  0
 63140  1  0  0  0
 63141  1  0  0  0
 63142  1  0  0  0
 64143  1  0  0  0
 65144  1  0  0  0
 68 82  1  0  0  0
 71 73  2  0  0  0
 71 74  1  0  0  0
 71145  1  0  0  0
 72 73  1  0  0  0
 72 76  2  0  0  0
 72146  1  0  0  0
 73 79  1  0  0  0
 74 75  2  0  0  0
 74 77  1  0  0  0
 75 76  1  0  0  0
 75 83  1  0  0  0
 76 85  1  0  0  0
 77147  1  0  0  0
 77148  1  0  0  0
 77149  1  0  0  0
 78150  1  0  0  0
 78151  1  0  0  0
 78152  1  0  0  0
 78 84  1  0  0  0
 79 84  1  0  0  0
 79153  1  0  0  0
 79154  1  0  0  0
 80 81  1  0  0  0
 80 82  1  0  0  0
 80155  1  0  0  0
 80156  1  0  0  0
 81 84  1  0  0  0
 81157  1  0  0  0
 81158  1  0  0  0
 82159  1  0  0  0
 82160  1  0  0  0
 83161  1  0  0  0
 84162  1  0  0  0
M  CHG  1  84   1
M  ISO  4   1 100  68 101  82 101  83 100
M  END
> <chiral flag>
0

> <version>
0

> <s_m_source_file>
/data/baiqing/PycharmProjects/Reinvent-master-3.2/result/LINK_invent/BTK/process_docking_weight1_custom_product_contain_oxygen_bond_distance_aromatic_linkinvent_7_9_3/rearranged_h_0019.sdf

> <i_m_source_file_index>
53

> <r_mmod_Potential_Energy-OPLS-2005>
-195.747039794922

> <r_mmod_Stretch_Energy-OPLS-2005>
39.4428825378418

> <r_mmod_Bend_Energy-OPLS-2005>
107.911117553711

> <r_mmod_Torsional_Energy-OPLS-2005>
250.665863037109

> <r_mmod_Improper_Torsional_Energy-OPLS-2005>
4.78967046737671

> <r_mmod_Van_der_Waal_Energy-OPLS-2005>
154.404922485352

> <r_mmod_Electrostatic_Energy-OPLS-2005>
-294.908294677734

> <r_mmod_Solvation_Energy-OPLS-2005>
-468.278991699219

> <b_mmod_Minimization_Converged-OPLS-2005>
0

> <r_mmod_RMS_Derivative-OPLS-2005>
2.81635165214539

$$$$
53
                    3D
 Structure written by MMmdl.
171179  0  0  1  0            999 V2000
  -30.7358  -14.4427   20.5549 C   0  0  0  0  0  0
  -30.4092  -12.2900   19.4132 C   0  0  0  0  0  0
  -29.4849  -12.4997   18.1976 C   0  0  0  0  0  0
  -28.0052  -12.3706   18.6098 C   0  0  0  0  0  0
  -27.6572  -13.1981   19.8770 C   0  0  2  0  0  0
  -28.7020  -12.9808   20.9887 C   0  0  0  0  0  0
  -25.2592  -13.8136   20.5702 C   0  0  0  0  0  0
  -24.1833  -13.0429   20.9183 C   0  0  0  0  0  0
  -24.6379  -11.6891   20.8754 C   0  0  0  0  0  0
  -23.9040  -10.4289   21.0419 C   0  0  0  0  0  0
  -24.3602   -9.4208   21.9197 C   0  0  0  0  0  0
  -23.6288   -8.2241   22.0758 C   0  0  0  0  0  0
  -22.4268   -8.0280   21.3543 C   0  0  0  0  0  0
  -21.9900   -9.0256   20.4651 C   0  0  0  0  0  0
  -22.7219  -10.2140   20.3066 C   0  0  0  0  0  0
  -21.6851   -6.0742   22.5281 C   0  0  0  0  0  0
  -21.4010   -6.5646   23.8215 C   0  0  0  0  0  0
  -21.3658   -5.6797   24.9177 C   0  0  0  0  0  0
  -21.6041   -4.3058   24.7223 C   0  0  0  0  0  0
  -21.8818   -3.8153   23.4342 C   0  0  0  0  0  0
  -21.9189   -4.6972   22.3403 C   0  0  0  0  0  0
  -22.7862  -13.5241   21.1839 C   0  0  0  0  0  0
  -22.1657   -4.2158   21.0972 F   0  0  0  0  0  0
  -21.5635   -3.4539   25.7730 F   0  0  0  0  0  0
  -30.0267  -13.2867   20.4256 N   0  0  0  0  0  0
  -26.3009  -12.9281   20.3407 N   0  0  0  0  0  0
  -25.9301  -11.6448   20.5796 N   0  0  0  0  0  0
  -22.0497  -12.8244   22.0394 N   0  0  0  0  0  0
  -25.4338  -15.1850   20.4114 N   0  0  0  0  0  0
  -31.8963  -14.5360   20.1387 O   0  0  0  0  0  0
  -21.6634   -6.8881   21.4240 O   0  0  0  0  0  0
  -22.3552  -14.5551   20.6688 O   0  0  0  0  0  0
  -24.6118  -31.8704   23.2136 C   0  0  0  0  0  0
  -25.9030  -32.4827   23.8423 C   0  0  1  0  0  0
  -27.2359  -27.4684   20.0993 C   0  0  0  0  0  0
  -25.5898  -33.8626   24.2355 N   0  0  0  0  0  0
  -23.3991  -30.4939   21.5524 C   0  0  2  0  0  0
  -24.8481  -28.9632   20.1161 C   0  0  0  0  0  0
  -22.7400  -29.4673   22.5014 C   0  0  0  0  0  0
  -18.0270  -28.1377   22.8502 C   0  0  0  0  0  0
  -24.1492  -36.7323   23.2641 C   0  0  0  0  0  0
  -25.9237  -30.8456   21.3637 C   0  0  0  0  0  0
  -26.0026  -29.4800   20.7188 C   0  0  0  0  0  0
  -27.2008  -28.7363   20.7175 C   0  0  0  0  0  0
  -26.0774  -26.9642   19.4777 C   0  0  0  0  0  0
  -24.8774  -27.7004   19.4962 C   0  0  0  0  0  0
  -23.6069  -29.8248   20.1667 C   0  0  0  0  0  0
  -25.4105  -36.3116   24.0346 C   0  0  1  0  0  0
  -20.5862  -28.3656   23.1335 C   0  0  2  0  0  0
  -20.6762  -26.9396   22.5430 C   0  0  0  0  0  0
  -19.5738  -26.6388   21.5226 C   0  0  0  0  0  0
  -18.1915  -26.7928   22.1630 C   0  0  0  0  0  0
  -19.1523  -28.8834   23.2912 C   0  0  0  0  0  0
  -18.9452  -30.1445   23.8912 C   0  0  0  0  0  0
  -17.6452  -30.6582   24.0572 C   0  0  0  0  0  0
  -25.9033  -34.9477   23.5147 C   0  0  0  0  0  0
  -16.5341  -29.9089   23.6329 C   0  0  0  0  0  0
  -16.7261  -28.6510   23.0346 C   0  0  0  0  0  0
  -26.4475  -31.6588   25.0733 C   0  0  0  0  0  0
  -25.3753  -31.3675   26.1491 C   0  0  0  0  0  0
  -27.0303  -30.3036   24.6077 C   0  0  0  0  0  0
  -27.6074  -32.4299   25.7473 C   0  0  0  0  0  0
  -27.5580  -37.1806   24.8464 C   0  0  0  0  0  0
  -21.4135  -29.3026   22.3749 N   0  0  0  0  0  0
  -26.4291  -37.3797   23.9414 N   0  0  0  0  0  0
  -24.6623  -31.0848   22.1014 N   0  0  0  0  0  0
  -23.4183  -28.8211   23.3044 O   0  0  0  0  0  0
  -28.3752  -26.7089   20.0705 O   0  0  0  0  0  0
  -26.5597  -34.8917   22.4709 O   0  0  0  0  0  0
  -23.5317  -32.1438   23.7552 O   0  0  0  0  0  0
  -30.0471  -20.5436   20.8055 C   0  0  0  0  0  0
  -27.8461  -19.5459   21.1023 C   0  0  0  0  0  0
  -30.5779  -19.2797   20.4974 C   0  0  0  0  0  0
  -28.3780  -18.2781   20.7851 C   0  0  0  0  0  0
  -28.6779  -20.6871   21.1046 C   0  0  0  0  0  0
  -29.7507  -18.1354   20.4771 C   0  0  0  0  0  0
  -28.7850  -23.9876   22.6340 C   0  0  0  0  0  0
  -29.5893  -24.5728   23.7798 C   0  0  0  0  0  0
  -28.8116  -16.6812   17.9289 C   0  0  0  0  0  0
  -26.7196  -25.4446   22.6606 C   0  0  0  0  0  0
  -29.6826  -15.8012   22.2354 C   0  0  0  0  0  0
  -28.1127  -22.0739   21.3654 C   0  0  0  0  0  0
  -30.2398  -16.6350   18.4940 C   0  0  0  0  0  0
  -28.8112  -26.2085   21.3368 C   0  0  0  0  0  0
  -30.3696  -16.8016   20.0397 C   0  0  2  0  0  0
  -27.9508  -25.0123   21.8373 C   0  0  1  0  0  0
  -28.8516  -22.7267   22.4357 N   0  0  0  0  0  0
  -30.0251  -15.5719   20.8212 N   0  0  0  0  0  0
  -31.4541  -12.3687   19.1074 H   0  0  0  0  0  0
  -30.2938  -11.2820   19.8146 H   0  0  0  0  0  0
  -29.7190  -11.7749   17.4167 H   0  0  0  0  0  0
  -29.6607  -13.4841   17.7621 H   0  0  0  0  0  0
  -27.8059  -11.3136   18.7909 H   0  0  0  0  0  0
  -27.3566  -12.6637   17.7832 H   0  0  0  0  0  0
  -27.6989  -14.2468   19.6006 H   0  0  0  0  0  0
  -28.6816  -11.9459   21.3326 H   0  0  0  0  0  0
  -28.4588  -13.5783   21.8636 H   0  0  0  0  0  0
  -25.2748   -9.5692   22.4768 H   0  0  0  0  0  0
  -24.0007   -7.4627   22.7469 H   0  0  0  0  0  0
  -21.0835   -8.8766   19.8952 H   0  0  0  0  0  0
  -22.3675  -10.9682   19.6181 H   0  0  0  0  0  0
  -21.1998   -7.6153   23.9717 H   0  0  0  0  0  0
  -21.1482   -6.0529   25.9078 H   0  0  0  0  0  0
  -22.0598   -2.7615   23.2836 H   0  0  0  0  0  0
  -22.4106  -11.9903   22.4787 H   0  0  0  0  0  0
  -21.1121  -13.1289   22.2601 H   0  0  0  0  0  0
  -24.6735  -15.8448   20.5301 H   0  0  0  0  0  0
  -26.2933  -15.6196   20.1041 H   0  0  0  0  0  0
  -26.7106  -32.5565   23.1202 H   0  0  0  0  0  0
  -25.0059  -33.9792   25.0504 H   0  0  0  0  0  0
  -22.6862  -31.3095   21.4140 H   0  0  0  0  0  0
  -23.3745  -35.9665   23.3321 H   0  0  0  0  0  0
  -24.3588  -36.8926   22.2052 H   0  0  0  0  0  0
  -23.7253  -37.6537   23.6646 H   0  0  0  0  0  0
  -26.0299  -31.6071   20.5897 H   0  0  0  0  0  0
  -26.8151  -30.9046   21.9763 H   0  0  0  0  0  0
  -28.0939  -29.1344   21.1789 H   0  0  0  0  0  0
  -26.1037  -25.9938   19.0017 H   0  0  0  0  0  0
  -23.9911  -27.2964   19.0273 H   0  0  0  0  0  0
  -23.7090  -30.5990   19.4054 H   0  0  0  0  0  0
  -22.7329  -29.2402   19.8732 H   0  0  0  0  0  0
  -25.1270  -36.1993   25.0837 H   0  0  0  0  0  0
  -20.9950  -28.3216   24.1453 H   0  0  0  0  0  0
  -20.5687  -26.2250   23.3608 H   0  0  0  0  0  0
  -21.6626  -26.7450   22.1200 H   0  0  0  0  0  0
  -19.6901  -25.6309   21.1230 H   0  0  0  0  0  0
  -19.6683  -27.3222   20.6779 H   0  0  0  0  0  0
  -17.4190  -26.6702   21.4025 H   0  0  0  0  0  0
  -18.0299  -26.0061   22.9013 H   0  0  0  0  0  0
  -19.7925  -30.7269   24.2277 H   0  0  0  0  0  0
  -17.5002  -31.6258   24.5179 H   0  0  0  0  0  0
  -15.5343  -30.2989   23.7646 H   0  0  0  0  0  0
  -15.8665  -28.0836   22.7038 H   0  0  0  0  0  0
  -24.5928  -30.7022   25.7828 H   0  0  0  0  0  0
  -24.8933  -32.2815   26.4964 H   0  0  0  0  0  0
  -25.8106  -30.8824   27.0236 H   0  0  0  0  0  0
  -26.2827  -29.6789   24.1171 H   0  0  0  0  0  0
  -27.4141  -29.7271   25.4507 H   0  0  0  0  0  0
  -27.8635  -30.4381   23.9173 H   0  0  0  0  0  0
  -27.2724  -33.3596   26.2081 H   0  0  0  0  0  0
  -28.3851  -32.6864   25.0268 H   0  0  0  0  0  0
  -28.0782  -31.8403   26.5350 H   0  0  0  0  0  0
  -28.2598  -38.0101   24.7502 H   0  0  0  0  0  0
  -28.1067  -36.2629   24.6288 H   0  0  0  0  0  0
  -27.2295  -37.1461   25.8865 H   0  0  0  0  0  0
  -20.9303  -29.8735   21.6959 H   0  0  0  0  0  0
  -26.0188  -38.2882   24.1404 H   0  0  0  0  0  0
  -30.6907  -21.4128   20.7975 H   0  0  0  0  0  0
  -26.7906  -19.6413   21.3194 H   0  0  0  0  0  0
  -31.6280  -19.2018   20.2510 H   0  0  0  0  0  0
  -27.7225  -17.4198   20.7484 H   0  0  0  0  0  0
  -29.1622  -25.5098   24.1352 H   0  0  0  0  0  0
  -30.6144  -24.7607   23.4609 H   0  0  0  0  0  0
  -29.6158  -23.8802   24.6214 H   0  0  0  0  0  0
  -28.8159  -16.4835   16.8567 H   0  0  0  0  0  0
  -28.3576  -17.6631   18.0688 H   0  0  0  0  0  0
  -28.1635  -15.9439   18.3927 H   0  0  0  0  0  0
  -26.1824  -24.5781   23.0489 H   0  0  0  0  0  0
  -26.0098  -26.0114   22.0618 H   0  0  0  0  0  0
  -26.9951  -26.0710   23.5091 H   0  0  0  0  0  0
  -28.6088  -15.9510   22.3442 H   0  0  0  0  0  0
  -30.1945  -16.6749   22.6389 H   0  0  0  0  0  0
  -29.9567  -14.9661   22.8834 H   0  0  0  0  0  0
  -27.0520  -22.0065   21.6150 H   0  0  0  0  0  0
  -28.1962  -22.6074   20.4171 H   0  0  0  0  0  0
  -30.8051  -17.4367   18.0161 H   0  0  0  0  0  0
  -30.7227  -15.7221   18.1475 H   0  0  0  0  0  0
  -29.8393  -25.8808   21.1762 H   0  0  0  0  0  0
  -28.8690  -26.9967   22.0890 H   0  0  0  0  0  0
  -31.4371  -16.9454   20.2226 H   0  0  0  0  0  0
  -27.5619  -24.5392   20.9397 H   0  0  0  0  0  0
  1 25  1  0  0  0
  1 30  2  0  0  0
  1 88  1  0  0  0
  2  3  1  0  0  0
  2 25  1  0  0  0
  2 89  1  0  0  0
  2 90  1  0  0  0
  3  4  1  0  0  0
  3 91  1  0  0  0
  3 92  1  0  0  0
  4  5  1  0  0  0
  4 93  1  0  0  0
  4 94  1  0  0  0
  5  6  1  0  0  0
  5 26  1  0  0  0
  5 95  1  0  0  0
  6 25  1  0  0  0
  6 96  1  0  0  0
  6 97  1  0  0  0
  7  8  2  0  0  0
  7 26  1  0  0  0
  7 29  1  0  0  0
  8  9  1  0  0  0
  8 22  1  0  0  0
  9 10  1  0  0  0
  9 27  2  0  0  0
 10 11  2  0  0  0
 10 15  1  0  0  0
 11 12  1  0  0  0
 11 98  1  0  0  0
 12 13  2  0  0  0
 12 99  1  0  0  0
 13 14  1  0  0  0
 13 31  1  0  0  0
 14 15  2  0  0  0
 14100  1  0  0  0
 15101  1  0  0  0
 16 17  2  0  0  0
 16 21  1  0  0  0
 16 31  1  0  0  0
 17 18  1  0  0  0
 17102  1  0  0  0
 18 19  2  0  0  0
 18103  1  0  0  0
 19 20  1  0  0  0
 19 24  1  0  0  0
 20 21  2  0  0  0
 20104  1  0  0  0
 21 23  1  0  0  0
 22 28  1  0  0  0
 22 32  2  0  0  0
 26 27  1  0  0  0
 28105  1  0  0  0
 28106  1  0  0  0
 29107  1  0  0  0
 29108  1  0  0  0
 33 34  1  0  0  0
 33 66  1  0  0  0
 33 70  2  0  0  0
 34 36  1  0  0  0
 34 59  1  0  0  0
 34109  1  0  0  0
 35 44  2  0  0  0
 35 45  1  0  0  0
 35 68  1  0  0  0
 36 56  1  0  0  0
 36110  1  0  0  0
 37 39  1  0  0  0
 37 47  1  0  0  0
 37 66  1  0  0  0
 37111  1  0  0  0
 38 43  2  0  0  0
 38 46  1  0  0  0
 38 47  1  0  0  0
 39 64  1  0  0  0
 39 67  2  0  0  0
 40 52  1  0  0  0
 40 53  2  0  0  0
 40 58  1  0  0  0
 41112  1  0  0  0
 41113  1  0  0  0
 41114  1  0  0  0
 41 48  1  0  0  0
 42 43  1  0  0  0
 42 66  1  0  0  0
 42115  1  0  0  0
 42116  1  0  0  0
 43 44  1  0  0  0
 44117  1  0  0  0
 45 46  2  0  0  0
 45118  1  0  0  0
 46119  1  0  0  0
 47120  1  0  0  0
 47121  1  0  0  0
 48 56  1  0  0  0
 48 65  1  0  0  0
 48122  1  0  0  0
 49 50  1  0  0  0
 49 53  1  0  0  0
 49 64  1  0  0  0
 49123  1  0  0  0
 50 51  1  0  0  0
 50124  1  0  0  0
 50125  1  0  0  0
 51 52  1  0  0  0
 51126  1  0  0  0
 51127  1  0  0  0
 52128  1  0  0  0
 52129  1  0  0  0
 53 54  1  0  0  0
 54 55  2  0  0  0
 54130  1  0  0  0
 55 57  1  0  0  0
 55131  1  0  0  0
 56 69  2  0  0  0
 57 58  2  0  0  0
 57132  1  0  0  0
 58133  1  0  0  0
 59 60  1  0  0  0
 59 61  1  0  0  0
 59 62  1  0  0  0
 60134  1  0  0  0
 60135  1  0  0  0
 60136  1  0  0  0
 61137  1  0  0  0
 61138  1  0  0  0
 61139  1  0  0  0
 62140  1  0  0  0
 62141  1  0  0  0
 62142  1  0  0  0
 63 65  1  0  0  0
 63143  1  0  0  0
 63144  1  0  0  0
 63145  1  0  0  0
 64146  1  0  0  0
 65147  1  0  0  0
 68 84  1  0  0  0
 71 73  2  0  0  0
 71 75  1  0  0  0
 71148  1  0  0  0
 72 74  1  0  0  0
 72 75  2  0  0  0
 72149  1  0  0  0
 73 76  1  0  0  0
 73150  1  0  0  0
 74 76  2  0  0  0
 74151  1  0  0  0
 75 82  1  0  0  0
 76 85  1  0  0  0
 77 78  1  0  0  0
 77 86  1  0  0  0
 77 87  2  0  0  0
 78152  1  0  0  0
 78153  1  0  0  0
 78154  1  0  0  0
 79 83  1  0  0  0
 79155  1  0  0  0
 79156  1  0  0  0
 79157  1  0  0  0
 80158  1  0  0  0
 80159  1  0  0  0
 80160  1  0  0  0
 80 86  1  0  0  0
 81 88  1  0  0  0
 81161  1  0  0  0
 81162  1  0  0  0
 81163  1  0  0  0
 82 87  1  0  0  0
 82164  1  0  0  0
 82165  1  0  0  0
 83166  1  0  0  0
 83167  1  0  0  0
 83 85  1  0  0  0
 84 86  1  0  0  0
 84168  1  0  0  0
 84169  1  0  0  0
 85 88  1  0  0  0
 85170  1  0  0  0
 86171  1  0  0  0
M  ISO  4   1 100  68 101  84 101  88 100
M  END
> <chiral flag>
0

> <version>
0

> <s_m_source_file>
/data/baiqing/PycharmProjects/Reinvent-master-3.2/result/LINK_invent/BTK/process_docking_weight1_custom_product_contain_oxygen_bond_distance_aromatic_linkinvent_7_9_3/rearranged_h_0019.sdf

> <i_m_source_file_index>
54

> <r_mmod_Potential_Energy-OPLS-2005>
124.033966064453

> <r_mmod_Stretch_Energy-OPLS-2005>
41.3989639282227

> <r_mmod_Bend_Energy-OPLS-2005>
117.785751342773

> <r_mmod_Torsional_Energy-OPLS-2005>
295.872528076172

> <r_mmod_Improper_Torsional_Energy-OPLS-2005>
12.4116916656494

> <r_mmod_Van_der_Waal_Energy-OPLS-2005>
162.874954223633

> <r_mmod_Electrostatic_Energy-OPLS-2005>
-329.751861572266

> <r_mmod_Solvation_Energy-OPLS-2005>
-189.870635986328

> <b_mmod_Minimization_Converged-OPLS-2005>
0

> <r_mmod_RMS_Derivative-OPLS-2005>
1.33370566368103

$$$$
54
                    3D
 Structure written by MMmdl.
155164  0  0  1  0            999 V2000
  -30.6217  -14.6357   20.5067 C   0  0  0  0  0  0
  -30.4415  -12.3908   19.4512 C   0  0  0  0  0  0
  -29.5084  -12.5091   18.2249 C   0  0  0  0  0  0
  -28.0307  -12.3492   18.6365 C   0  0  0  0  0  0
  -27.6559  -13.2158   19.8686 C   0  0  2  0  0  0
  -28.7018  -13.0600   20.9960 C   0  0  0  0  0  0
  -25.2561  -13.8160   20.5686 C   0  0  0  0  0  0
  -24.1822  -13.0424   20.9161 C   0  0  0  0  0  0
  -24.6399  -11.6899   20.8727 C   0  0  0  0  0  0
  -23.9067  -10.4284   21.0398 C   0  0  0  0  0  0
  -24.3617   -9.4204   21.9180 C   0  0  0  0  0  0
  -23.6290   -8.2241   22.0754 C   0  0  0  0  0  0
  -22.4271   -8.0279   21.3544 C   0  0  0  0  0  0
  -21.9907   -9.0251   20.4644 C   0  0  0  0  0  0
  -22.7237  -10.2129   20.3050 C   0  0  0  0  0  0
  -21.6853   -6.0735   22.5279 C   0  0  0  0  0  0
  -21.4013   -6.5639   23.8212 C   0  0  0  0  0  0
  -21.3660   -5.6791   24.9174 C   0  0  0  0  0  0
  -21.6045   -4.3056   24.7223 C   0  0  0  0  0  0
  -21.8819   -3.8147   23.4345 C   0  0  0  0  0  0
  -21.9192   -4.6963   22.3401 C   0  0  0  0  0  0
  -22.7847  -13.5221   21.1838 C   0  0  0  0  0  0
  -22.1661   -4.2150   21.0979 F   0  0  0  0  0  0
  -21.5629   -3.4539   25.7738 F   0  0  0  0  0  0
  -30.0185  -13.4066   20.4354 N   0  0  0  0  0  0
  -26.3008  -12.9348   20.3358 N   0  0  0  0  0  0
  -25.9334  -11.6502   20.5770 N   0  0  0  0  0  0
  -22.0500  -12.8212   22.0404 N   0  0  0  0  0  0
  -25.4251  -15.1882   20.4153 N   0  0  0  0  0  0
  -31.7772  -14.8078   20.1072 O   0  0  0  0  0  0
  -21.6637   -6.8876   21.4241 O   0  0  0  0  0  0
  -22.3524  -14.5532   20.6700 O   0  0  0  0  0  0
  -24.6263  -31.8607   23.2038 C   0  0  0  0  0  0
  -25.9116  -32.4784   23.8361 C   0  0  1  0  0  0
  -27.2217  -27.3211   20.1123 C   0  0  0  0  0  0
  -25.5934  -33.8584   24.2287 N   0  0  0  0  0  0
  -23.4193  -30.4857   21.5467 C   0  0  2  0  0  0
  -24.8653  -28.9452   20.1101 C   0  0  0  0  0  0
  -22.7476  -29.4628   22.4938 C   0  0  0  0  0  0
  -18.0286  -28.1382   22.8485 C   0  0  0  0  0  0
  -24.1489  -36.7289   23.2636 C   0  0  0  0  0  0
  -25.9616  -30.7919   21.3760 C   0  0  0  0  0  0
  -26.0355  -29.4211   20.7147 C   0  0  0  0  0  0
  -27.2171  -28.6211   20.7063 C   0  0  0  0  0  0
  -26.0264  -26.9025   19.4804 C   0  0  0  0  0  0
  -24.8627  -27.6910   19.4845 C   0  0  0  0  0  0
  -23.6336  -29.8244   20.1608 C   0  0  0  0  0  0
  -25.4112  -36.3083   24.0331 C   0  0  1  0  0  0
  -20.5887  -28.3682   23.1285 C   0  0  2  0  0  0
  -20.6776  -26.9406   22.5407 C   0  0  0  0  0  0
  -19.5750  -26.6377   21.5212 C   0  0  0  0  0  0
  -18.1928  -26.7924   22.1623 C   0  0  0  0  0  0
  -19.1540  -28.8848   23.2881 C   0  0  0  0  0  0
  -18.9465  -30.1454   23.8894 C   0  0  0  0  0  0
  -17.6465  -30.6585   24.0561 C   0  0  0  0  0  0
  -25.9051  -34.9454   23.5106 C   0  0  0  0  0  0
  -16.5355  -29.9083   23.6334 C   0  0  0  0  0  0
  -16.7273  -28.6501   23.0352 C   0  0  0  0  0  0
  -26.4501  -31.6593   25.0731 C   0  0  0  0  0  0
  -25.3736  -31.3737   26.1460 C   0  0  0  0  0  0
  -27.0343  -30.3017   24.6182 C   0  0  0  0  0  0
  -27.6057  -32.4331   25.7503 C   0  0  0  0  0  0
  -27.5584  -37.1790   24.8459 C   0  0  0  0  0  0
  -21.4188  -29.3045   22.3689 N   0  0  0  0  0  0
  -26.4286  -37.3781   23.9419 N   0  0  0  0  0  0
  -24.6878  -31.0622   22.0989 N   0  0  0  0  0  0
  -23.4205  -28.8158   23.3006 O   0  0  0  0  0  0
  -28.3337  -26.4621   20.1688 O   0  0  0  0  0  0
  -26.5613  -34.8920   22.4668 O   0  0  0  0  0  0
  -23.5428  -32.1405   23.7367 O   0  0  0  0  0  0
  -30.8689  -19.3004   20.1105 C   0  0  0  0  0  0
  -30.9509  -17.8793   20.2404 C   0  0  0  0  0  0
  -28.6241  -19.2723   20.9562 C   0  0  0  0  0  0
  -29.7055  -20.0541   20.4602 C   0  0  0  0  0  0
  -29.8606  -17.1165   20.7329 C   0  0  0  0  0  0
  -28.7021  -17.8547   21.0867 C   0  0  0  0  0  0
  -28.7349  -22.4505   20.7052 C   0  0  0  0  0  0
  -30.3180  -23.7205   19.4802 C   0  0  0  0  0  0
  -30.7749  -22.2567   19.6782 C   0  0  0  0  0  0
  -29.1790  -23.9370   20.4782 C   0  0  1  0  0  0
  -28.0756  -25.0049   20.0534 C   0  0  0  0  0  0
  -29.6669  -21.5279   20.3030 N   0  0  0  0  0  0
  -29.8136  -15.6649   20.9029 N   0  0  0  0  0  0
  -27.6432  -22.1860   21.2170 O   0  0  0  0  0  0
  -27.6274  -17.1778   21.5588 F   0  0  0  0  0  0
  -31.4821  -12.5193   19.1480 H   0  0  0  0  0  0
  -30.3796  -11.3930   19.8881 H   0  0  0  0  0  0
  -29.7704  -11.7577   17.4789 H   0  0  0  0  0  0
  -29.6514  -13.4787   17.7453 H   0  0  0  0  0  0
  -27.8646  -11.2952   18.8626 H   0  0  0  0  0  0
  -27.3764  -12.5852   17.7965 H   0  0  0  0  0  0
  -27.6759  -14.2532   19.5343 H   0  0  0  0  0  0
  -28.7128  -12.0345   21.3679 H   0  0  0  0  0  0
  -28.4469  -13.6814   21.8558 H   0  0  0  0  0  0
  -25.2765   -9.5682   22.4749 H   0  0  0  0  0  0
  -24.0001   -7.4635   22.7476 H   0  0  0  0  0  0
  -21.0838   -8.8769   19.8950 H   0  0  0  0  0  0
  -22.3697  -10.9666   19.6158 H   0  0  0  0  0  0
  -21.2004   -7.6146   23.9716 H   0  0  0  0  0  0
  -21.1481   -6.0521   25.9077 H   0  0  0  0  0  0
  -22.0598   -2.7608   23.2845 H   0  0  0  0  0  0
  -22.4120  -11.9869   22.4781 H   0  0  0  0  0  0
  -21.1124  -13.1240   22.2628 H   0  0  0  0  0  0
  -24.6667  -15.8429   20.5697 H   0  0  0  0  0  0
  -26.3018  -15.6484   20.2060 H   0  0  0  0  0  0
  -26.7183  -32.5456   23.1106 H   0  0  0  0  0  0
  -25.0107  -33.9735   25.0450 H   0  0  0  0  0  0
  -22.7125  -31.3061   21.4052 H   0  0  0  0  0  0
  -23.3761  -35.9611   23.3285 H   0  0  0  0  0  0
  -24.3584  -36.8920   22.2053 H   0  0  0  0  0  0
  -23.7226  -37.6480   23.6665 H   0  0  0  0  0  0
  -26.0953  -31.5582   20.6109 H   0  0  0  0  0  0
  -26.8414  -30.8368   22.0063 H   0  0  0  0  0  0
  -28.1133  -28.9802   21.1924 H   0  0  0  0  0  0
  -25.9554  -25.9470   18.9836 H   0  0  0  0  0  0
  -23.9664  -27.3210   19.0059 H   0  0  0  0  0  0
  -23.7523  -30.6032   19.4063 H   0  0  0  0  0  0
  -22.7540  -29.2543   19.8569 H   0  0  0  0  0  0
  -25.1288  -36.1930   25.0822 H   0  0  0  0  0  0
  -20.9977  -28.3251   24.1407 H   0  0  0  0  0  0
  -20.5678  -26.2291   23.3604 H   0  0  0  0  0  0
  -21.6644  -26.7434   22.1197 H   0  0  0  0  0  0
  -19.6912  -25.6288   21.1241 H   0  0  0  0  0  0
  -19.6691  -27.3190   20.6745 H   0  0  0  0  0  0
  -17.4198  -26.6677   21.4024 H   0  0  0  0  0  0
  -18.0325  -26.0064   22.9016 H   0  0  0  0  0  0
  -19.7945  -30.7271   24.2256 H   0  0  0  0  0  0
  -17.5022  -31.6267   24.5157 H   0  0  0  0  0  0
  -15.5356  -30.2985   23.7661 H   0  0  0  0  0  0
  -15.8672  -28.0819   22.7071 H   0  0  0  0  0  0
  -24.5905  -30.7092   25.7794 H   0  0  0  0  0  0
  -24.8939  -32.2911   26.4886 H   0  0  0  0  0  0
  -25.8061  -30.8913   27.0234 H   0  0  0  0  0  0
  -26.2917  -29.6770   24.1204 H   0  0  0  0  0  0
  -27.4046  -29.7269   25.4680 H   0  0  0  0  0  0
  -27.8785  -30.4308   23.9403 H   0  0  0  0  0  0
  -27.2661  -33.3633   26.2072 H   0  0  0  0  0  0
  -28.3875  -32.6888   25.0338 H   0  0  0  0  0  0
  -28.0717  -31.8463   26.5428 H   0  0  0  0  0  0
  -28.2572  -38.0119   24.7551 H   0  0  0  0  0  0
  -28.1111  -36.2650   24.6225 H   0  0  0  0  0  0
  -27.2311  -37.1365   25.8863 H   0  0  0  0  0  0
  -20.9360  -29.8783   21.6917 H   0  0  0  0  0  0
  -26.0166  -38.2849   24.1451 H   0  0  0  0  0  0
  -31.7437  -19.8081   19.7308 H   0  0  0  0  0  0
  -31.8686  -17.3862   19.9543 H   0  0  0  0  0  0
  -27.6969  -19.7412   21.2452 H   0  0  0  0  0  0
  -29.9529  -23.8565   18.4611 H   0  0  0  0  0  0
  -31.1358  -24.4260   19.6295 H   0  0  0  0  0  0
  -31.6416  -22.2151   20.3399 H   0  0  0  0  0  0
  -31.0581  -21.8091   18.7246 H   0  0  0  0  0  0
  -29.5995  -24.2533   21.4329 H   0  0  0  0  0  0
  -27.1913  -24.7877   20.6552 H   0  0  0  0  0  0
  -27.7990  -24.7894   19.0209 H   0  0  0  0  0  0
  -28.9243  -15.3455   21.2569 H   0  0  0  0  0  0
  1 25  1  0  0  0
  1 30  2  0  0  0
  1 83  1  0  0  0
  2  3  1  0  0  0
  2 25  1  0  0  0
  2 86  1  0  0  0
  2 87  1  0  0  0
  3  4  1  0  0  0
  3 88  1  0  0  0
  3 89  1  0  0  0
  4  5  1  0  0  0
  4 90  1  0  0  0
  4 91  1  0  0  0
  5  6  1  0  0  0
  5 26  1  0  0  0
  5 92  1  0  0  0
  6 25  1  0  0  0
  6 93  1  0  0  0
  6 94  1  0  0  0
  7  8  2  0  0  0
  7 26  1  0  0  0
  7 29  1  0  0  0
  8  9  1  0  0  0
  8 22  1  0  0  0
  9 10  1  0  0  0
  9 27  2  0  0  0
 10 11  2  0  0  0
 10 15  1  0  0  0
 11 12  1  0  0  0
 11 95  1  0  0  0
 12 13  2  0  0  0
 12 96  1  0  0  0
 13 14  1  0  0  0
 13 31  1  0  0  0
 14 15  2  0  0  0
 14 97  1  0  0  0
 15 98  1  0  0  0
 16 17  2  0  0  0
 16 21  1  0  0  0
 16 31  1  0  0  0
 17 18  1  0  0  0
 17 99  1  0  0  0
 18 19  2  0  0  0
 18100  1  0  0  0
 19 20  1  0  0  0
 19 24  1  0  0  0
 20 21  2  0  0  0
 20101  1  0  0  0
 21 23  1  0  0  0
 22 28  1  0  0  0
 22 32  2  0  0  0
 26 27  1  0  0  0
 28102  1  0  0  0
 28103  1  0  0  0
 29104  1  0  0  0
 29105  1  0  0  0
 33 34  1  0  0  0
 33 66  1  0  0  0
 33 70  2  0  0  0
 34 36  1  0  0  0
 34 59  1  0  0  0
 34106  1  0  0  0
 35 44  2  0  0  0
 35 45  1  0  0  0
 35 68  1  0  0  0
 36 56  1  0  0  0
 36107  1  0  0  0
 37 39  1  0  0  0
 37 47  1  0  0  0
 37 66  1  0  0  0
 37108  1  0  0  0
 38 43  2  0  0  0
 38 46  1  0  0  0
 38 47  1  0  0  0
 39 64  1  0  0  0
 39 67  2  0  0  0
 40 52  1  0  0  0
 40 53  2  0  0  0
 40 58  1  0  0  0
 41109  1  0  0  0
 41110  1  0  0  0
 41111  1  0  0  0
 41 48  1  0  0  0
 42 43  1  0  0  0
 42 66  1  0  0  0
 42112  1  0  0  0
 42113  1  0  0  0
 43 44  1  0  0  0
 44114  1  0  0  0
 45 46  2  0  0  0
 45115  1  0  0  0
 46116  1  0  0  0
 47117  1  0  0  0
 47118  1  0  0  0
 48 56  1  0  0  0
 48 65  1  0  0  0
 48119  1  0  0  0
 49 50  1  0  0  0
 49 53  1  0  0  0
 49 64  1  0  0  0
 49120  1  0  0  0
 50 51  1  0  0  0
 50121  1  0  0  0
 50122  1  0  0  0
 51 52  1  0  0  0
 51123  1  0  0  0
 51124  1  0  0  0
 52125  1  0  0  0
 52126  1  0  0  0
 53 54  1  0  0  0
 54 55  2  0  0  0
 54127  1  0  0  0
 55 57  1  0  0  0
 55128  1  0  0  0
 56 69  2  0  0  0
 57 58  2  0  0  0
 57129  1  0  0  0
 58130  1  0  0  0
 59 60  1  0  0  0
 59 61  1  0  0  0
 59 62  1  0  0  0
 60131  1  0  0  0
 60132  1  0  0  0
 60133  1  0  0  0
 61134  1  0  0  0
 61135  1  0  0  0
 61136  1  0  0  0
 62137  1  0  0  0
 62138  1  0  0  0
 62139  1  0  0  0
 63 65  1  0  0  0
 63140  1  0  0  0
 63141  1  0  0  0
 63142  1  0  0  0
 64143  1  0  0  0
 65144  1  0  0  0
 68 81  1  0  0  0
 71 72  2  0  0  0
 71 74  1  0  0  0
 71145  1  0  0  0
 72 75  1  0  0  0
 72146  1  0  0  0
 73 74  2  0  0  0
 73 76  1  0  0  0
 73147  1  0  0  0
 74 82  1  0  0  0
 75 76  2  0  0  0
 75 83  1  0  0  0
 76 85  1  0  0  0
 77 80  1  0  0  0
 77 82  1  0  0  0
 77 84  2  0  0  0
 78 79  1  0  0  0
 78 80  1  0  0  0
 78148  1  0  0  0
 78149  1  0  0  0
 79 82  1  0  0  0
 79150  1  0  0  0
 79151  1  0  0  0
 80 81  1  0  0  0
 80152  1  0  0  0
 81153  1  0  0  0
 81154  1  0  0  0
 83155  1  0  0  0
M  ISO  4   1 100  68 101  81 101  83 100
M  END
> <chiral flag>
0

> <version>
0

> <s_m_source_file>
/data/baiqing/PycharmProjects/Reinvent-master-3.2/result/LINK_invent/BTK/process_docking_weight1_custom_product_contain_oxygen_bond_distance_aromatic_linkinvent_7_9_3/rearranged_h_0019.sdf

> <i_m_source_file_index>
55

> <r_mmod_Potential_Energy-OPLS-2005>
104.43994140625

> <r_mmod_Stretch_Energy-OPLS-2005>
79.9662475585938

> <r_mmod_Bend_Energy-OPLS-2005>
168.272598266602

> <r_mmod_Torsional_Energy-OPLS-2005>
253.14094543457

> <r_mmod_Improper_Torsional_Energy-OPLS-2005>
3.68619656562805

> <r_mmod_Van_der_Waal_Energy-OPLS-2005>
148.356887817383

> <r_mmod_Electrostatic_Energy-OPLS-2005>
-388.333709716797

> <r_mmod_Solvation_Energy-OPLS-2005>
-208.69873046875

> <b_mmod_Minimization_Converged-OPLS-2005>
0

> <r_mmod_RMS_Derivative-OPLS-2005>
0.457433491945267

$$$$
55
                    3D
 Structure written by MMmdl.
163171  0  0  1  0            999 V2000
  -30.7689  -14.4291   20.5879 C   0  0  0  0  0  0
  -30.4072  -12.2954   19.4066 C   0  0  0  0  0  0
  -29.4799  -12.4985   18.1942 C   0  0  0  0  0  0
  -28.0060  -12.3474   18.6141 C   0  0  0  0  0  0
  -27.6536  -13.1956   19.8631 C   0  0  2  0  0  0
  -28.7023  -13.0161   20.9850 C   0  0  0  0  0  0
  -25.2582  -13.8125   20.5673 C   0  0  0  0  0  0
  -24.1821  -13.0424   20.9177 C   0  0  0  0  0  0
  -24.6363  -11.6887   20.8742 C   0  0  0  0  0  0
  -23.9027  -10.4286   21.0415 C   0  0  0  0  0  0
  -24.3590   -9.4208   21.9189 C   0  0  0  0  0  0
  -23.6280   -8.2236   22.0751 C   0  0  0  0  0  0
  -22.4256   -8.0274   21.3549 C   0  0  0  0  0  0
  -21.9884   -9.0241   20.4640 C   0  0  0  0  0  0
  -22.7207  -10.2130   20.3058 C   0  0  0  0  0  0
  -21.6848   -6.0730   22.5281 C   0  0  0  0  0  0
  -21.4008   -6.5634   23.8216 C   0  0  0  0  0  0
  -21.3655   -5.6787   24.9175 C   0  0  0  0  0  0
  -21.6040   -4.3054   24.7231 C   0  0  0  0  0  0
  -21.8822   -3.8150   23.4348 C   0  0  0  0  0  0
  -21.9188   -4.6958   22.3401 C   0  0  0  0  0  0
  -22.7850  -13.5243   21.1849 C   0  0  0  0  0  0
  -22.1662   -4.2147   21.0980 F   0  0  0  0  0  0
  -21.5628   -3.4539   25.7741 F   0  0  0  0  0  0
  -30.0366  -13.2919   20.4231 N   0  0  0  0  0  0
  -26.2990  -12.9264   20.3338 N   0  0  0  0  0  0
  -25.9288  -11.6441   20.5766 N   0  0  0  0  0  0
  -22.0477  -12.8234   22.0397 N   0  0  0  0  0  0
  -25.4327  -15.1844   20.4089 N   0  0  0  0  0  0
  -31.8937  -14.5717   20.1019 O   0  0  0  0  0  0
  -21.6631   -6.8875   21.4240 O   0  0  0  0  0  0
  -22.3541  -14.5556   20.6708 O   0  0  0  0  0  0
  -24.6133  -31.8707   23.2109 C   0  0  0  0  0  0
  -25.9030  -32.4839   23.8406 C   0  0  1  0  0  0
  -27.2407  -27.4688   20.0855 C   0  0  0  0  0  0
  -25.5894  -33.8638   24.2334 N   0  0  0  0  0  0
  -23.3993  -30.4926   21.5517 C   0  0  2  0  0  0
  -24.8468  -28.9593   20.1166 C   0  0  0  0  0  0
  -22.7388  -29.4682   22.5013 C   0  0  0  0  0  0
  -18.0257  -28.1366   22.8491 C   0  0  0  0  0  0
  -24.1486  -36.7311   23.2634 C   0  0  0  0  0  0
  -25.9249  -30.8458   21.3585 C   0  0  0  0  0  0
  -26.0055  -29.4827   20.7048 C   0  0  0  0  0  0
  -27.2086  -28.7453   20.6832 C   0  0  0  0  0  0
  -26.0688  -26.9474   19.4984 C   0  0  0  0  0  0
  -24.8713  -27.6888   19.5134 C   0  0  0  0  0  0
  -23.6056  -29.8213   20.1682 C   0  0  0  0  0  0
  -25.4111  -36.3124   24.0334 C   0  0  1  0  0  0
  -20.5853  -28.3667   23.1317 C   0  0  2  0  0  0
  -20.6762  -26.9406   22.5419 C   0  0  0  0  0  0
  -19.5745  -26.6382   21.5205 C   0  0  0  0  0  0
  -18.1909  -26.7915   22.1602 C   0  0  0  0  0  0
  -19.1506  -28.8831   23.2902 C   0  0  0  0  0  0
  -18.9448  -30.1423   23.8938 C   0  0  0  0  0  0
  -17.6457  -30.6581   24.0564 C   0  0  0  0  0  0
  -25.9054  -34.9490   23.5130 C   0  0  0  0  0  0
  -16.5347  -29.9093   23.6321 C   0  0  0  0  0  0
  -16.7251  -28.6494   23.0365 C   0  0  0  0  0  0
  -26.4467  -31.6615   25.0733 C   0  0  0  0  0  0
  -25.3723  -31.3701   26.1476 C   0  0  0  0  0  0
  -27.0293  -30.3068   24.6082 C   0  0  0  0  0  0
  -27.6080  -32.4322   25.7468 C   0  0  0  0  0  0
  -27.5592  -37.1789   24.8446 C   0  0  0  0  0  0
  -21.4120  -29.3039   22.3726 N   0  0  0  0  0  0
  -26.4283  -37.3820   23.9426 N   0  0  0  0  0  0
  -24.6636  -31.0832   22.0994 N   0  0  0  0  0  0
  -23.4159  -28.8227   23.3054 O   0  0  0  0  0  0
  -28.4058  -26.7422   20.0789 O   0  0  0  0  0  0
  -26.5612  -34.8933   22.4699 O   0  0  0  0  0  0
  -23.5333  -32.1448   23.7521 O   0  0  0  0  0  0
  -29.6343  -18.9503   20.4668 C   0  0  0  0  0  0
  -31.1546  -19.9726   18.8619 C   0  0  0  0  0  0
  -31.0375  -17.5452   19.0626 C   0  0  0  0  0  0
  -30.1823  -20.1128   19.8774 C   0  0  0  0  0  0
  -30.0461  -17.6610   20.0615 C   0  0  0  0  0  0
  -31.5919  -18.6945   18.4694 C   0  0  0  0  0  0
  -30.1233  -23.9081   19.9385 C   0  0  0  0  0  0
  -31.9500  -22.4396   20.6014 C   0  0  0  0  0  0
  -30.9586  -15.9759   22.4350 C   0  0  0  0  0  0
  -29.6398  -21.4805   20.2987 C   0  0  0  0  0  0
  -29.3517  -16.4206   20.6301 C   0  0  0  0  0  0
  -28.6262  -24.2695   20.0296 C   0  0  0  0  0  0
  -28.3501  -25.5429   20.8557 C   0  0  0  0  0  0
  -30.5437  -22.6483   20.2260 N   0  0  0  0  0  0
  -30.2084  -15.4265   21.3037 N   0  0  0  0  0  0
  -30.9257  -24.8073   19.6670 O   0  0  0  0  0  0
  -32.5293  -18.5709   17.4992 F   0  0  0  0  0  0
  -31.4508  -12.3702   19.0964 H   0  0  0  0  0  0
  -30.2915  -11.2882   19.8109 H   0  0  0  0  0  0
  -29.7188  -11.7784   17.4093 H   0  0  0  0  0  0
  -29.6407  -13.4862   17.7608 H   0  0  0  0  0  0
  -27.8229  -11.2913   18.8170 H   0  0  0  0  0  0
  -27.3504  -12.6118   17.7840 H   0  0  0  0  0  0
  -27.6716  -14.2284   19.5335 H   0  0  0  0  0  0
  -28.6749  -11.9953   21.3688 H   0  0  0  0  0  0
  -28.4644  -13.6560   21.8356 H   0  0  0  0  0  0
  -25.2733   -9.5683   22.4767 H   0  0  0  0  0  0
  -23.9989   -7.4619   22.7465 H   0  0  0  0  0  0
  -21.0814   -8.8752   19.8944 H   0  0  0  0  0  0
  -22.3659  -10.9667   19.6169 H   0  0  0  0  0  0
  -21.2003   -7.6148   23.9713 H   0  0  0  0  0  0
  -21.1471   -6.0521   25.9071 H   0  0  0  0  0  0
  -22.0606   -2.7607   23.2849 H   0  0  0  0  0  0
  -22.4080  -11.9901   22.4807 H   0  0  0  0  0  0
  -21.1097  -13.1279   22.2602 H   0  0  0  0  0  0
  -24.6677  -15.8413   20.5145 H   0  0  0  0  0  0
  -26.2873  -15.6217   20.0903 H   0  0  0  0  0  0
  -26.7111  -32.5565   23.1183 H   0  0  0  0  0  0
  -25.0050  -33.9811   25.0483 H   0  0  0  0  0  0
  -22.6885  -31.3092   21.4114 H   0  0  0  0  0  0
  -23.3762  -35.9621   23.3275 H   0  0  0  0  0  0
  -24.3582  -36.8966   22.2049 H   0  0  0  0  0  0
  -23.7221  -37.6498   23.6672 H   0  0  0  0  0  0
  -26.0315  -31.6115   20.5892 H   0  0  0  0  0  0
  -26.8142  -30.9008   21.9739 H   0  0  0  0  0  0
  -28.1060  -29.1465   21.1338 H   0  0  0  0  0  0
  -26.0810  -25.9729   19.0322 H   0  0  0  0  0  0
  -23.9788  -27.2796   19.0610 H   0  0  0  0  0  0
  -23.7066  -30.5948   19.4062 H   0  0  0  0  0  0
  -22.7301  -29.2378   19.8784 H   0  0  0  0  0  0
  -25.1282  -36.1982   25.0825 H   0  0  0  0  0  0
  -20.9936  -28.3239   24.1440 H   0  0  0  0  0  0
  -20.5657  -26.2287   23.3611 H   0  0  0  0  0  0
  -21.6642  -26.7442   22.1231 H   0  0  0  0  0  0
  -19.6930  -25.6297   21.1234 H   0  0  0  0  0  0
  -19.6695  -27.3194   20.6739 H   0  0  0  0  0  0
  -17.4197  -26.6674   21.3988 H   0  0  0  0  0  0
  -18.0299  -26.0021   22.8972 H   0  0  0  0  0  0
  -19.7928  -30.7200   24.2359 H   0  0  0  0  0  0
  -17.5026  -31.6275   24.5137 H   0  0  0  0  0  0
  -15.5357  -30.3022   23.7625 H   0  0  0  0  0  0
  -15.8643  -28.0822   22.7113 H   0  0  0  0  0  0
  -24.5946  -30.6993   25.7805 H   0  0  0  0  0  0
  -24.8832  -32.2828   26.4892 H   0  0  0  0  0  0
  -25.8076  -30.8912   27.0256 H   0  0  0  0  0  0
  -26.2823  -29.6823   24.1176 H   0  0  0  0  0  0
  -27.4118  -29.7327   25.4533 H   0  0  0  0  0  0
  -27.8626  -30.4396   23.9181 H   0  0  0  0  0  0
  -27.2759  -33.3646   26.2039 H   0  0  0  0  0  0
  -28.3874  -32.6849   25.0265 H   0  0  0  0  0  0
  -28.0749  -31.8435   26.5369 H   0  0  0  0  0  0
  -28.2577  -38.0123   24.7598 H   0  0  0  0  0  0
  -28.1132  -36.2678   24.6149 H   0  0  0  0  0  0
  -27.2323  -37.1294   25.8844 H   0  0  0  0  0  0
  -20.9281  -29.8750   21.6942 H   0  0  0  0  0  0
  -26.0172  -38.2883   24.1488 H   0  0  0  0  0  0
  -28.8618  -19.0525   21.2165 H   0  0  0  0  0  0
  -31.5665  -20.8376   18.3652 H   0  0  0  0  0  0
  -31.3609  -16.5782   18.7114 H   0  0  0  0  0  0
  -32.3099  -23.2361   21.2549 H   0  0  0  0  0  0
  -32.5881  -22.4278   19.7179 H   0  0  0  0  0  0
  -32.0966  -21.5060   21.1437 H   0  0  0  0  0  0
  -30.3284  -16.6237   23.0442 H   0  0  0  0  0  0
  -31.8138  -16.5603   22.0920 H   0  0  0  0  0  0
  -31.3307  -15.1786   23.0807 H   0  0  0  0  0  0
  -29.2488  -21.4194   21.3154 H   0  0  0  0  0  0
  -28.7828  -21.6331   19.6418 H   0  0  0  0  0  0
  -28.8364  -15.9677   19.7855 H   0  0  0  0  0  0
  -28.5643  -16.7218   21.3225 H   0  0  0  0  0  0
  -28.0730  -23.4760   20.5270 H   0  0  0  0  0  0
  -28.2023  -24.3566   19.0299 H   0  0  0  0  0  0
  -29.0776  -25.6356   21.6639 H   0  0  0  0  0  0
  -27.3881  -25.4313   21.3618 H   0  0  0  0  0  0
  1 25  1  0  0  0
  1 30  2  0  0  0
  1 85  1  0  0  0
  2  3  1  0  0  0
  2 25  1  0  0  0
  2 88  1  0  0  0
  2 89  1  0  0  0
  3  4  1  0  0  0
  3 90  1  0  0  0
  3 91  1  0  0  0
  4  5  1  0  0  0
  4 92  1  0  0  0
  4 93  1  0  0  0
  5  6  1  0  0  0
  5 26  1  0  0  0
  5 94  1  0  0  0
  6 25  1  0  0  0
  6 95  1  0  0  0
  6 96  1  0  0  0
  7  8  2  0  0  0
  7 26  1  0  0  0
  7 29  1  0  0  0
  8  9  1  0  0  0
  8 22  1  0  0  0
  9 10  1  0  0  0
  9 27  2  0  0  0
 10 11  2  0  0  0
 10 15  1  0  0  0
 11 12  1  0  0  0
 11 97  1  0  0  0
 12 13  2  0  0  0
 12 98  1  0  0  0
 13 14  1  0  0  0
 13 31  1  0  0  0
 14 15  2  0  0  0
 14 99  1  0  0  0
 15100  1  0  0  0
 16 17  2  0  0  0
 16 21  1  0  0  0
 16 31  1  0  0  0
 17 18  1  0  0  0
 17101  1  0  0  0
 18 19  2  0  0  0
 18102  1  0  0  0
 19 20  1  0  0  0
 19 24  1  0  0  0
 20 21  2  0  0  0
 20103  1  0  0  0
 21 23  1  0  0  0
 22 28  1  0  0  0
 22 32  2  0  0  0
 26 27  1  0  0  0
 28104  1  0  0  0
 28105  1  0  0  0
 29106  1  0  0  0
 29107  1  0  0  0
 33 34  1  0  0  0
 33 66  1  0  0  0
 33 70  2  0  0  0
 34 36  1  0  0  0
 34 59  1  0  0  0
 34108  1  0  0  0
 35 44  2  0  0  0
 35 45  1  0  0  0
 35 68  1  0  0  0
 36 56  1  0  0  0
 36109  1  0  0  0
 37 39  1  0  0  0
 37 47  1  0  0  0
 37 66  1  0  0  0
 37110  1  0  0  0
 38 43  2  0  0  0
 38 46  1  0  0  0
 38 47  1  0  0  0
 39 64  1  0  0  0
 39 67  2  0  0  0
 40 52  1  0  0  0
 40 53  2  0  0  0
 40 58  1  0  0  0
 41111  1  0  0  0
 41112  1  0  0  0
 41113  1  0  0  0
 41 48  1  0  0  0
 42 43  1  0  0  0
 42 66  1  0  0  0
 42114  1  0  0  0
 42115  1  0  0  0
 43 44  1  0  0  0
 44116  1  0  0  0
 45 46  2  0  0  0
 45117  1  0  0  0
 46118  1  0  0  0
 47119  1  0  0  0
 47120  1  0  0  0
 48 56  1  0  0  0
 48 65  1  0  0  0
 48121  1  0  0  0
 49 50  1  0  0  0
 49 53  1  0  0  0
 49 64  1  0  0  0
 49122  1  0  0  0
 50 51  1  0  0  0
 50123  1  0  0  0
 50124  1  0  0  0
 51 52  1  0  0  0
 51125  1  0  0  0
 51126  1  0  0  0
 52127  1  0  0  0
 52128  1  0  0  0
 53 54  1  0  0  0
 54 55  2  0  0  0
 54129  1  0  0  0
 55 57  1  0  0  0
 55130  1  0  0  0
 56 69  2  0  0  0
 57 58  2  0  0  0
 57131  1  0  0  0
 58132  1  0  0  0
 59 60  1  0  0  0
 59 61  1  0  0  0
 59 62  1  0  0  0
 60133  1  0  0  0
 60134  1  0  0  0
 60135  1  0  0  0
 61136  1  0  0  0
 61137  1  0  0  0
 61138  1  0  0  0
 62139  1  0  0  0
 62140  1  0  0  0
 62141  1  0  0  0
 63 65  1  0  0  0
 63142  1  0  0  0
 63143  1  0  0  0
 63144  1  0  0  0
 64145  1  0  0  0
 65146  1  0  0  0
 68 83  1  0  0  0
 71 74  2  0  0  0
 71 75  1  0  0  0
 71147  1  0  0  0
 72 74  1  0  0  0
 72 76  2  0  0  0
 72148  1  0  0  0
 73 75  2  0  0  0
 73 76  1  0  0  0
 73149  1  0  0  0
 74 80  1  0  0  0
 75 81  1  0  0  0
 76 87  1  0  0  0
 77 82  1  0  0  0
 77 84  1  0  0  0
 77 86  2  0  0  0
 78 84  1  0  0  0
 78150  1  0  0  0
 78151  1  0  0  0
 78152  1  0  0  0
 79 85  1  0  0  0
 79153  1  0  0  0
 79154  1  0  0  0
 79155  1  0  0  0
 80 84  1  0  0  0
 80156  1  0  0  0
 80157  1  0  0  0
 81 85  1  0  0  0
 81158  1  0  0  0
 81159  1  0  0  0
 82 83  1  0  0  0
 82160  1  0  0  0
 82161  1  0  0  0
 83162  1  0  0  0
 83163  1  0  0  0
M  ISO  4   1 100  68 101  83 101  85 100
M  END
> <chiral flag>
0

> <version>
0

> <s_m_source_file>
/data/baiqing/PycharmProjects/Reinvent-master-3.2/result/LINK_invent/BTK/process_docking_weight1_custom_product_contain_oxygen_bond_distance_aromatic_linkinvent_7_9_3/rearranged_h_0019.sdf

> <i_m_source_file_index>
56

> <r_mmod_Potential_Energy-OPLS-2005>
76.3617630004883

> <r_mmod_Stretch_Energy-OPLS-2005>
37.5439300537109

> <r_mmod_Bend_Energy-OPLS-2005>
99.8882904052734

> <r_mmod_Torsional_Energy-OPLS-2005>
303.910186767578

> <r_mmod_Improper_Torsional_Energy-OPLS-2005>
5.09625339508057

> <r_mmod_Van_der_Waal_Energy-OPLS-2005>
163.919952392578

> <r_mmod_Electrostatic_Energy-OPLS-2005>
-318.828125

> <r_mmod_Solvation_Energy-OPLS-2005>
-227.223846435547

> <b_mmod_Minimization_Converged-OPLS-2005>
0

> <r_mmod_RMS_Derivative-OPLS-2005>
1.99142456054688

$$$$
56
                    3D
 Structure written by MMmdl.
164172  0  0  1  0            999 V2000
  -30.3118  -14.8518   19.8886 C   0  0  0  0  0  0
  -30.8704  -12.5230   19.2717 C   0  0  0  0  0  0
  -29.8501  -12.1780   18.1732 C   0  0  0  0  0  0
  -28.5916  -11.7787   18.9330 C   0  0  0  0  0  0
  -28.2994  -12.9031   20.0305 C   0  0  2  0  0  0
  -29.3329  -12.9708   21.0707 C   0  0  0  0  0  0
  -25.1762  -13.9804   20.5750 C   0  0  0  0  0  0
  -23.9004  -13.3798   21.1427 C   0  0  0  0  0  0
  -23.9948  -12.2654   20.4580 C   0  0  0  0  0  0
  -23.6950  -10.7610   20.8765 C   0  0  0  0  0  0
  -24.1504   -9.8415   21.9041 C   0  0  0  0  0  0
  -23.5916   -8.5285   22.0862 C   0  0  0  0  0  0
  -22.4551   -8.1245   21.3472 C   0  0  0  0  0  0
  -21.9956   -9.0124   20.3665 C   0  0  0  0  0  0
  -22.6135  -10.2570   20.1323 C   0  0  0  0  0  0
  -21.7506   -6.1114   22.5410 C   0  0  0  0  0  0
  -21.4421   -6.5874   23.8355 C   0  0  0  0  0  0
  -21.3732   -5.6909   24.9221 C   0  0  0  0  0  0
  -21.5978   -4.3158   24.7222 C   0  0  0  0  0  0
  -21.8722   -3.8348   23.4310 C   0  0  0  0  0  0
  -21.9391   -4.7242   22.3456 C   0  0  0  0  0  0
  -22.4963  -13.8428   21.3686 C   0  0  0  0  0  0
  -22.1732   -4.2357   21.1026 F   0  0  0  0  0  0
  -21.5521   -3.4591   25.7698 F   0  0  0  0  0  0
  -30.2754  -13.5239   20.1839 N   0  0  0  0  0  0
  -26.7362  -13.8714   20.6782 N   0  0  0  0  0  0
  -24.8742  -13.4559   20.5020 N   0  0  0  0  0  0
  -21.7764  -13.0477   22.1569 N   0  0  0  0  0  0
  -26.9394  -14.3403   20.9083 N   0  0  0  0  0  0
  -31.4677  -15.2696   20.0666 O   0  0  0  0  0  0
  -21.7713   -6.9264   21.4321 O   0  0  0  0  0  0
  -22.0775  -14.8435   20.8128 O   0  0  0  0  0  0
  -24.6861  -31.7955   23.1577 C   0  0  0  0  0  0
  -25.9478  -32.4400   23.8014 C   0  0  1  0  0  0
  -26.8341  -26.4883   20.2880 C   0  0  0  0  0  0
  -25.6069  -33.8239   24.1862 N   0  0  0  0  0  0
  -23.4962  -30.4230   21.5175 C   0  0  2  0  0  0
  -24.8838  -28.7575   20.1022 C   0  0  0  0  0  0
  -22.7710  -29.4325   22.4689 C   0  0  0  0  0  0
  -18.0377  -28.1430   22.8483 C   0  0  0  0  0  0
  -24.1532  -36.7108   23.2632 C   0  0  0  0  0  0
  -26.0793  -30.4474   21.4555 C   0  0  0  0  0  0
  -26.0703  -29.0049   20.7980 C   0  0  0  0  0  0
  -27.0661  -27.8865   20.8571 C   0  0  0  0  0  0
  -25.7114  -26.5235   19.4604 C   0  0  0  0  0  0
  -24.7592  -27.5585   19.3960 C   0  0  0  0  0  0
  -23.7386  -29.7648   20.1335 C   0  0  0  0  0  0
  -25.4186  -36.2813   24.0224 C   0  0  1  0  0  0
  -20.5996  -28.3765   23.1150 C   0  0  2  0  0  0
  -20.6824  -26.9420   22.5407 C   0  0  0  0  0  0
  -19.5768  -26.6361   21.5253 C   0  0  0  0  0  0
  -18.1967  -26.7966   22.1658 C   0  0  0  0  0  0
  -19.1639  -28.8931   23.2811 C   0  0  0  0  0  0
  -18.9516  -30.1530   23.8826 C   0  0  0  0  0  0
  -17.6488  -30.6593   24.0557 C   0  0  0  0  0  0
  -25.9186  -34.9228   23.4872 C   0  0  0  0  0  0
  -16.5392  -29.9046   23.6362 C   0  0  0  0  0  0
  -16.7350  -28.6492   23.0352 C   0  0  0  0  0  0
  -26.4640  -31.6475   25.0665 C   0  0  0  0  0  0
  -25.3629  -31.3828   26.1208 C   0  0  0  0  0  0
  -27.0569  -30.2763   24.6716 C   0  0  0  0  0  0
  -27.6114  -32.4337   25.7449 C   0  0  0  0  0  0
  -27.5579  -37.1707   24.8448 C   0  0  0  0  0  0
  -21.4374  -29.3005   22.3442 N   0  0  0  0  0  0
  -26.4286  -37.3589   23.9390 N   0  0  0  0  0  0
  -24.7817  -30.9295   22.0907 N   0  0  0  0  0  0
  -23.4179  -28.7889   23.2992 O   0  0  0  0  0  0
  -27.4564  -25.0572   20.3702 O   0  0  0  0  0  0
  -26.5834  -34.8810   22.4493 O   0  0  0  0  0  0
  -23.5912  -32.1154   23.6539 O   0  0  0  0  0  0
  -25.5734  -15.1032   22.5065 C   0  0  0  0  0  0
  -25.9563  -12.9225   22.5685 C   0  0  0  0  0  0
  -26.2293  -12.9219   18.7440 C   0  0  0  0  0  0
  -26.2013  -15.1020   18.8330 C   0  0  0  0  0  0
  -25.7438  -16.2464   20.6239 C   0  0  0  0  0  0
  -26.3298  -11.7284   20.7235 C   0  0  0  0  0  0
  -24.0377  -17.8407   18.6249 C   0  0  0  0  0  0
  -29.9868  -16.6222   18.2968 C   0  0  0  0  0  0
  -27.7573  -15.5781   18.3870 C   0  0  0  0  0  0
  -26.5930  -21.4223   20.2133 C   0  0  0  0  0  0
  -24.3265  -18.1027   20.1110 C   0  0  0  0  0  0
  -26.3530  -19.5419   20.9211 C   0  0  0  0  0  0
  -26.8301  -23.3676   20.7395 C   0  0  0  0  0  0
  -25.7390  -17.9177   20.4503 N   0  0  0  0  0  0
  -29.2871  -15.5676   19.0745 N   0  0  0  0  0  0
  -26.8277  -10.0605   20.7477 Cl  0  0  0  0  0  0
  -31.7951  -12.8993   18.8304 H   0  0  0  0  0  0
  -31.1693  -11.6255   19.8111 H   0  0  0  0  0  0
  -30.2073  -11.3313   17.5833 H   0  0  0  0  0  0
  -29.6804  -13.0098   17.4829 H   0  0  0  0  0  0
  -28.8834  -10.8871   19.4840 H   0  0  0  0  0  0
  -27.8677  -11.3503   18.2493 H   0  0  0  0  0  0
  -28.3904  -13.5101   19.1656 H   0  0  0  0  0  0
  -29.6045  -11.9891   21.4652 H   0  0  0  0  0  0
  -29.1314  -13.6532   21.8981 H   0  0  0  0  0  0
  -24.9329  -10.1523   22.5818 H   0  0  0  0  0  0
  -24.0113   -7.8676   22.8272 H   0  0  0  0  0  0
  -21.1528   -8.7297   19.7524 H   0  0  0  0  0  0
  -22.1948  -10.8808   19.3558 H   0  0  0  0  0  0
  -21.2530   -7.6378   23.9998 H   0  0  0  0  0  0
  -21.1539   -6.0565   25.9154 H   0  0  0  0  0  0
  -22.0312   -2.7796   23.2773 H   0  0  0  0  0  0
  -22.1832  -12.2009   22.5276 H   0  0  0  0  0  0
  -20.8436  -13.3340   22.4349 H   0  0  0  0  0  0
  -26.8603  -14.6990   21.8524 H   0  0  0  0  0  0
  -27.1560  -15.1312   20.3214 H   0  0  0  0  0  0
  -26.7471  -32.4743   23.0633 H   0  0  0  0  0  0
  -25.0063  -33.9265   24.9904 H   0  0  0  0  0  0
  -22.8254  -31.2693   21.3518 H   0  0  0  0  0  0
  -23.3804  -35.9429   23.3229 H   0  0  0  0  0  0
  -24.3583  -36.8876   22.2062 H   0  0  0  0  0  0
  -23.7326  -37.6258   23.6806 H   0  0  0  0  0  0
  -26.3434  -31.1635   20.6775 H   0  0  0  0  0  0
  -26.9149  -30.4733   22.1399 H   0  0  0  0  0  0
  -27.9560  -28.0402   21.4532 H   0  0  0  0  0  0
  -25.4770  -25.6230   18.9136 H   0  0  0  0  0  0
  -23.8611  -27.3717   18.8234 H   0  0  0  0  0  0
  -23.9732  -30.5388   19.4017 H   0  0  0  0  0  0
  -22.8221  -29.2885   19.7811 H   0  0  0  0  0  0
  -25.1432  -36.1516   25.0709 H   0  0  0  0  0  0
  -21.0134  -28.3418   24.1257 H   0  0  0  0  0  0
  -20.5739  -26.2371   23.3666 H   0  0  0  0  0  0
  -21.6665  -26.7362   22.1182 H   0  0  0  0  0  0
  -19.6853  -25.6259   21.1297 H   0  0  0  0  0  0
  -19.6707  -27.3168   20.6786 H   0  0  0  0  0  0
  -17.4237  -26.6798   21.4047 H   0  0  0  0  0  0
  -18.0291  -26.0148   22.9082 H   0  0  0  0  0  0
  -19.7974  -30.7417   24.2105 H   0  0  0  0  0  0
  -17.5003  -31.6251   24.5184 H   0  0  0  0  0  0
  -15.5369  -30.2867   23.7710 H   0  0  0  0  0  0
  -15.8800  -28.0754   22.7028 H   0  0  0  0  0  0
  -24.5878  -30.7163   25.7409 H   0  0  0  0  0  0
  -24.8746  -32.3057   26.4338 H   0  0  0  0  0  0
  -25.7690  -30.9106   27.0157 H   0  0  0  0  0  0
  -26.3261  -29.6339   24.1799 H   0  0  0  0  0  0
  -27.3980  -29.7251   25.5490 H   0  0  0  0  0  0
  -27.9310  -30.3810   24.0287 H   0  0  0  0  0  0
  -27.2713  -33.3748   26.1786 H   0  0  0  0  0  0
  -28.4042  -32.6727   25.0337 H   0  0  0  0  0  0
  -28.0667  -31.8602   26.5541 H   0  0  0  0  0  0
  -28.2519  -38.0067   24.7515 H   0  0  0  0  0  0
  -28.1154  -36.2587   24.6280 H   0  0  0  0  0  0
  -27.2275  -37.1329   25.8836 H   0  0  0  0  0  0
  -20.9638  -29.8694   21.6572 H   0  0  0  0  0  0
  -26.0085  -38.2614   24.1415 H   0  0  0  0  0  0
  -25.4071  -15.6175   23.4401 H   0  0  0  0  0  0
  -25.9563  -12.4285   23.5291 H   0  0  0  0  0  0
  -26.3462  -12.4882   17.7654 H   0  0  0  0  0  0
  -23.0100  -18.1149   18.3796 H   0  0  0  0  0  0
  -24.1616  -16.7898   18.3615 H   0  0  0  0  0  0
  -24.7044  -18.4088   17.9774 H   0  0  0  0  0  0
  -30.1846  -17.4974   18.9141 H   0  0  0  0  0  0
  -29.4627  -16.9635   17.4027 H   0  0  0  0  0  0
  -30.9396  -16.2713   17.8918 H   0  0  0  0  0  0
  -27.5449  -16.6176   18.1263 H   0  0  0  0  0  0
  -27.8868  -15.0772   17.4243 H   0  0  0  0  0  0
  -25.8028  -21.4872   19.4635 H   0  0  0  0  0  0
  -27.4728  -21.2705   19.5857 H   0  0  0  0  0  0
  -23.6960  -17.4442   20.7202 H   0  0  0  0  0  0
  -23.9961  -19.1084   20.3734 H   0  0  0  0  0  0
  -25.7839  -19.7379   21.8309 H   0  0  0  0  0  0
  -27.3410  -19.3067   21.3183 H   0  0  0  0  0  0
  -27.4397  -23.2113   21.6309 H   0  0  0  0  0  0
  -25.8554  -23.6078   21.1659 H   0  0  0  0  0  0
  1 25  1  0  0  0
  1 30  2  0  0  0
  1 85  1  0  0  0
  2  3  1  0  0  0
  2 25  1  0  0  0
  2 87  1  0  0  0
  2 88  1  0  0  0
  3  4  1  0  0  0
  3 89  1  0  0  0
  3 90  1  0  0  0
  4  5  1  0  0  0
  4 91  1  0  0  0
  4 92  1  0  0  0
  5  6  1  0  0  0
  5 26  1  0  0  0
  5 93  1  0  0  0
  6 25  1  0  0  0
  6 94  1  0  0  0
  6 95  1  0  0  0
  7  8  2  0  0  0
  7 26  1  0  0  0
  7 29  1  0  0  0
  8  9  1  0  0  0
  8 22  1  0  0  0
  9 10  1  0  0  0
  9 27  2  0  0  0
 10 11  2  0  0  0
 10 15  1  0  0  0
 11 12  1  0  0  0
 11 96  1  0  0  0
 12 13  2  0  0  0
 12 97  1  0  0  0
 13 14  1  0  0  0
 13 31  1  0  0  0
 14 15  2  0  0  0
 14 98  1  0  0  0
 15 99  1  0  0  0
 16 17  2  0  0  0
 16 21  1  0  0  0
 16 31  1  0  0  0
 17 18  1  0  0  0
 17100  1  0  0  0
 18 19  2  0  0  0
 18101  1  0  0  0
 19 20  1  0  0  0
 19 24  1  0  0  0
 20 21  2  0  0  0
 20102  1  0  0  0
 21 23  1  0  0  0
 22 28  1  0  0  0
 22 32  2  0  0  0
 26 27  1  0  0  0
 28103  1  0  0  0
 28104  1  0  0  0
 29105  1  0  0  0
 29106  1  0  0  0
 33 34  1  0  0  0
 33 66  1  0  0  0
 33 70  2  0  0  0
 34 36  1  0  0  0
 34 59  1  0  0  0
 34107  1  0  0  0
 35 44  2  0  0  0
 35 45  1  0  0  0
 35 68  1  0  0  0
 36 56  1  0  0  0
 36108  1  0  0  0
 37 39  1  0  0  0
 37 47  1  0  0  0
 37 66  1  0  0  0
 37109  1  0  0  0
 38 43  2  0  0  0
 38 46  1  0  0  0
 38 47  1  0  0  0
 39 64  1  0  0  0
 39 67  2  0  0  0
 40 52  1  0  0  0
 40 53  2  0  0  0
 40 58  1  0  0  0
 41110  1  0  0  0
 41111  1  0  0  0
 41112  1  0  0  0
 41 48  1  0  0  0
 42 43  1  0  0  0
 42 66  1  0  0  0
 42113  1  0  0  0
 42114  1  0  0  0
 43 44  1  0  0  0
 44115  1  0  0  0
 45 46  2  0  0  0
 45116  1  0  0  0
 46117  1  0  0  0
 47118  1  0  0  0
 47119  1  0  0  0
 48 56  1  0  0  0
 48 65  1  0  0  0
 48120  1  0  0  0
 49 50  1  0  0  0
 49 53  1  0  0  0
 49 64  1  0  0  0
 49121  1  0  0  0
 50 51  1  0  0  0
 50122  1  0  0  0
 50123  1  0  0  0
 51 52  1  0  0  0
 51124  1  0  0  0
 51125  1  0  0  0
 52126  1  0  0  0
 52127  1  0  0  0
 53 54  1  0  0  0
 54 55  2  0  0  0
 54128  1  0  0  0
 55 57  1  0  0  0
 55129  1  0  0  0
 56 69  2  0  0  0
 57 58  2  0  0  0
 57130  1  0  0  0
 58131  1  0  0  0
 59 60  1  0  0  0
 59 61  1  0  0  0
 59 62  1  0  0  0
 60132  1  0  0  0
 60133  1  0  0  0
 60134  1  0  0  0
 61135  1  0  0  0
 61136  1  0  0  0
 61137  1  0  0  0
 62138  1  0  0  0
 62139  1  0  0  0
 62140  1  0  0  0
 63 65  1  0  0  0
 63141  1  0  0  0
 63142  1  0  0  0
 63143  1  0  0  0
 64144  1  0  0  0
 65145  1  0  0  0
 68 83  1  0  0  0
 71 72  2  0  0  0
 71 75  1  0  0  0
 71146  1  0  0  0
 72 76  1  0  0  0
 72147  1  0  0  0
 73 74  1  0  0  0
 73 76  2  0  0  0
 73148  1  0  0  0
 74 75  2  0  0  0
 74 79  1  0  0  0
 75 84  1  0  0  0
 76 86  1  0  0  0
 77 81  1  0  0  0
 77149  1  0  0  0
 77150  1  0  0  0
 77151  1  0  0  0
 78 85  1  0  0  0
 78152  1  0  0  0
 78153  1  0  0  0
 78154  1  0  0  0
 79 85  1  0  0  0
 79155  1  0  0  0
 79156  1  0  0  0
 80 82  1  0  0  0
 80 83  1  0  0  0
 80157  1  0  0  0
 80158  1  0  0  0
 81 84  1  0  0  0
 81159  1  0  0  0
 81160  1  0  0  0
 82 84  1  0  0  0
 82161  1  0  0  0
 82162  1  0  0  0
 83163  1  0  0  0
 83164  1  0  0  0
M  ISO  4   1 100  68 101  83 101  85 100
M  END
> <chiral flag>
0

> <version>
0

> <s_m_source_file>
/data/baiqing/PycharmProjects/Reinvent-master-3.2/result/LINK_invent/BTK/process_docking_weight1_custom_product_contain_oxygen_bond_distance_aromatic_linkinvent_7_9_3/rearranged_h_0019.sdf

> <i_m_source_file_index>
57

> <r_mmod_Potential_Energy-OPLS-2005>
21475.677734375

> <r_mmod_Stretch_Energy-OPLS-2005>
10906.9267578125

> <r_mmod_Bend_Energy-OPLS-2005>
3499.94384765625

> <r_mmod_Torsional_Energy-OPLS-2005>
720.629028320312

> <r_mmod_Improper_Torsional_Energy-OPLS-2005>
138.022842407227

> <r_mmod_Van_der_Waal_Energy-OPLS-2005>
4511.37939453125

> <r_mmod_Electrostatic_Energy-OPLS-2005>
-326.826507568359

> <r_mmod_Solvation_Energy-OPLS-2005>
-197.588043212891

> <b_mmod_Minimization_Converged-OPLS-2005>
0

> <r_mmod_RMS_Derivative-OPLS-2005>
11.4707136154175

$$$$
57
                    3D
 Structure written by MMmdl.
160168  0  0  1  0            999 V2000
  -30.7067  -14.5140   20.5030 C   0  0  0  0  0  0
  -30.4223  -12.3162   19.4370 C   0  0  0  0  0  0
  -29.4900  -12.4517   18.2159 C   0  0  0  0  0  0
  -28.0129  -12.3267   18.6381 C   0  0  0  0  0  0
  -27.6528  -13.2052   19.8671 C   0  0  2  0  0  0
  -28.7029  -13.0495   20.9899 C   0  0  0  0  0  0
  -25.2571  -13.8131   20.5708 C   0  0  0  0  0  0
  -24.1819  -13.0412   20.9157 C   0  0  0  0  0  0
  -24.6356  -11.6876   20.8711 C   0  0  0  0  0  0
  -23.9006  -10.4275   21.0371 C   0  0  0  0  0  0
  -24.3583   -9.4203   21.9156 C   0  0  0  0  0  0
  -23.6258   -8.2247   22.0743 C   0  0  0  0  0  0
  -22.4256   -8.0270   21.3521 C   0  0  0  0  0  0
  -21.9859   -9.0227   20.4628 C   0  0  0  0  0  0
  -22.7168  -10.2113   20.3023 C   0  0  0  0  0  0
  -21.6859   -6.0723   22.5254 C   0  0  0  0  0  0
  -21.4029   -6.5633   23.8185 C   0  0  0  0  0  0
  -21.3636   -5.6795   24.9149 C   0  0  0  0  0  0
  -21.6029   -4.3055   24.7204 C   0  0  0  0  0  0
  -21.8825   -3.8136   23.4329 C   0  0  0  0  0  0
  -21.9187   -4.6948   22.3381 C   0  0  0  0  0  0
  -22.7857  -13.5232   21.1806 C   0  0  0  0  0  0
  -22.1673   -4.2132   21.0963 F   0  0  0  0  0  0
  -21.5590   -3.4531   25.7716 F   0  0  0  0  0  0
  -30.0171  -13.3421   20.4104 N   0  0  0  0  0  0
  -26.2983  -12.9291   20.3387 N   0  0  0  0  0  0
  -25.9287  -11.6451   20.5785 N   0  0  0  0  0  0
  -22.0522  -12.8237   22.0382 N   0  0  0  0  0  0
  -25.4362  -15.1831   20.4146 N   0  0  0  0  0  0
  -31.9090  -14.5725   20.2364 O   0  0  0  0  0  0
  -21.6630   -6.8866   21.4219 O   0  0  0  0  0  0
  -22.3542  -14.5539   20.6651 O   0  0  0  0  0  0
  -24.6125  -31.8674   23.2132 C   0  0  0  0  0  0
  -25.9029  -32.4817   23.8404 C   0  0  1  0  0  0
  -27.2345  -27.4483   20.1054 C   0  0  0  0  0  0
  -25.5892  -33.8607   24.2361 N   0  0  0  0  0  0
  -23.3995  -30.4881   21.5542 C   0  0  2  0  0  0
  -24.8485  -28.9552   20.1221 C   0  0  0  0  0  0
  -22.7399  -29.4619   22.5015 C   0  0  0  0  0  0
  -18.0252  -28.1380   22.8490 C   0  0  0  0  0  0
  -24.1492  -36.7318   23.2648 C   0  0  0  0  0  0
  -25.9259  -30.8389   21.3639 C   0  0  0  0  0  0
  -26.0056  -29.4736   20.7141 C   0  0  0  0  0  0
  -27.2051  -28.7276   20.7020 C   0  0  0  0  0  0
  -26.0615  -26.9328   19.5199 C   0  0  0  0  0  0
  -24.8677  -27.6811   19.5259 C   0  0  0  0  0  0
  -23.6091  -29.8217   20.1691 C   0  0  0  0  0  0
  -25.4104  -36.3112   24.0358 C   0  0  1  0  0  0
  -20.5843  -28.3645   23.1361 C   0  0  2  0  0  0
  -20.6764  -26.9382   22.5458 C   0  0  0  0  0  0
  -19.5751  -26.6389   21.5239 C   0  0  0  0  0  0
  -18.1909  -26.7920   22.1628 C   0  0  0  0  0  0
  -19.1497  -28.8825   23.2908 C   0  0  0  0  0  0
  -18.9442  -30.1448   23.8902 C   0  0  0  0  0  0
  -17.6450  -30.6581   24.0568 C   0  0  0  0  0  0
  -25.9023  -34.9468   23.5163 C   0  0  0  0  0  0
  -16.5335  -29.9092   23.6335 C   0  0  0  0  0  0
  -16.7242  -28.6518   23.0318 C   0  0  0  0  0  0
  -26.4479  -31.6573   25.0703 C   0  0  0  0  0  0
  -25.3775  -31.3650   26.1476 C   0  0  0  0  0  0
  -27.0323  -30.3021   24.6056 C   0  0  0  0  0  0
  -27.6056  -32.4281   25.7466 C   0  0  0  0  0  0
  -27.5575  -37.1819   24.8464 C   0  0  0  0  0  0
  -21.4120  -29.2998   22.3757 N   0  0  0  0  0  0
  -26.4295  -37.3798   23.9411 N   0  0  0  0  0  0
  -24.6641  -31.0786   22.1028 N   0  0  0  0  0  0
  -23.4171  -28.8158   23.3040 O   0  0  0  0  0  0
  -28.4122  -26.7431   20.0489 O   0  0  0  0  0  0
  -26.5578  -34.8923   22.4715 O   0  0  0  0  0  0
  -23.5328  -32.1407   23.7544 O   0  0  0  0  0  0
  -29.7157  -18.9069   21.7813 C   0  0  0  0  0  0
  -29.3928  -20.2623   21.5208 C   0  0  0  0  0  0
  -27.8399  -18.1951   20.4203 C   0  0  0  0  0  0
  -28.9603  -17.8554   21.2079 C   0  0  0  0  0  0
  -28.3147  -20.5915   20.6601 C   0  0  0  0  0  0
  -27.5387  -19.5400   20.1291 C   0  0  0  0  0  0
  -31.2547  -17.2688   18.8572 C   0  0  0  0  0  0
  -29.3320  -16.3775   21.4394 C   0  0  0  0  0  0
  -28.0806  -24.2829   20.1851 C   0  0  0  0  0  0
  -30.0595  -16.3015   18.9952 C   0  0  0  0  0  0
  -28.5072  -25.5891   20.8895 C   0  0  0  0  0  0
  -28.6525  -22.9982   20.8233 C   0  0  0  0  0  0
  -29.9498  -15.6306   20.3103 N   0  0  0  0  0  0
  -27.9624  -21.8743   20.2779 O   0  0  0  0  0  0
  -26.4944  -19.8237   19.3144 F   0  0  0  0  0  0
  -31.4635  -12.4192   19.1246 H   0  0  0  0  0  0
  -30.3416  -11.3238   19.8847 H   0  0  0  0  0  0
  -29.7271  -11.6848   17.4785 H   0  0  0  0  0  0
  -29.6545  -13.4058   17.7177 H   0  0  0  0  0  0
  -27.8369  -11.2761   18.8768 H   0  0  0  0  0  0
  -27.3548  -12.5605   17.8003 H   0  0  0  0  0  0
  -27.6740  -14.2391   19.5251 H   0  0  0  0  0  0
  -28.6940  -12.0313   21.3798 H   0  0  0  0  0  0
  -28.4816  -13.6959   21.8384 H   0  0  0  0  0  0
  -25.2725   -9.5688   22.4736 H   0  0  0  0  0  0
  -23.9929   -7.4652   22.7497 H   0  0  0  0  0  0
  -21.0767   -8.8728   19.8967 H   0  0  0  0  0  0
  -22.3584  -10.9649   19.6145 H   0  0  0  0  0  0
  -21.2090   -7.6154   23.9672 H   0  0  0  0  0  0
  -21.1433   -6.0537   25.9045 H   0  0  0  0  0  0
  -22.0633   -2.7597   23.2826 H   0  0  0  0  0  0
  -22.4155  -11.9877   22.4725 H   0  0  0  0  0  0
  -21.1152  -13.1264   22.2636 H   0  0  0  0  0  0
  -24.6840  -15.8526   20.5335 H   0  0  0  0  0  0
  -26.2975  -15.6006   20.0892 H   0  0  0  0  0  0
  -26.7071  -32.5566   23.1157 H   0  0  0  0  0  0
  -25.0052  -33.9751   25.0512 H   0  0  0  0  0  0
  -22.6864  -31.3027   21.4152 H   0  0  0  0  0  0
  -23.3742  -35.9664   23.3315 H   0  0  0  0  0  0
  -24.3597  -36.8911   22.2062 H   0  0  0  0  0  0
  -23.7246  -37.6537   23.6629 H   0  0  0  0  0  0
  -26.0329  -31.6055   20.5940 H   0  0  0  0  0  0
  -26.8155  -30.8960   21.9783 H   0  0  0  0  0  0
  -28.1035  -29.1253   21.1530 H   0  0  0  0  0  0
  -26.0700  -25.9621   19.0474 H   0  0  0  0  0  0
  -23.9787  -27.2727   19.0667 H   0  0  0  0  0  0
  -23.7206  -30.5990   19.4135 H   0  0  0  0  0  0
  -22.7361  -29.2404   19.8688 H   0  0  0  0  0  0
  -25.1275  -36.1998   25.0850 H   0  0  0  0  0  0
  -20.9909  -28.3208   24.1493 H   0  0  0  0  0  0
  -20.5733  -26.2211   23.3613 H   0  0  0  0  0  0
  -21.6625  -26.7478   22.1201 H   0  0  0  0  0  0
  -19.6930  -25.6312   21.1219 H   0  0  0  0  0  0
  -19.6711  -27.3238   20.6793 H   0  0  0  0  0  0
  -17.4190  -26.6646   21.4016 H   0  0  0  0  0  0
  -18.0312  -26.0064   22.9028 H   0  0  0  0  0  0
  -19.7915  -30.7257   24.2259 H   0  0  0  0  0  0
  -17.4998  -31.6263   24.5176 H   0  0  0  0  0  0
  -15.5332  -30.2992   23.7681 H   0  0  0  0  0  0
  -15.8630  -28.0885   22.6994 H   0  0  0  0  0  0
  -24.5955  -30.6972   25.7830 H   0  0  0  0  0  0
  -24.8973  -32.2810   26.4930 H   0  0  0  0  0  0
  -25.8187  -30.8828   27.0217 H   0  0  0  0  0  0
  -26.2880  -29.6751   24.1145 H   0  0  0  0  0  0
  -27.4135  -29.7253   25.4492 H   0  0  0  0  0  0
  -27.8670  -30.4319   23.9164 H   0  0  0  0  0  0
  -27.2670  -33.3563   26.2077 H   0  0  0  0  0  0
  -28.3868  -32.6881   25.0305 H   0  0  0  0  0  0
  -28.0733  -31.8400   26.5371 H   0  0  0  0  0  0
  -28.2615  -38.0094   24.7495 H   0  0  0  0  0  0
  -28.1048  -36.2635   24.6308 H   0  0  0  0  0  0
  -27.2295  -37.1493   25.8867 H   0  0  0  0  0  0
  -20.9265  -29.8665   21.6946 H   0  0  0  0  0  0
  -26.0188  -38.2886   24.1398 H   0  0  0  0  0  0
  -30.5594  -18.6738   22.4157 H   0  0  0  0  0  0
  -29.9965  -21.0351   21.9764 H   0  0  0  0  0  0
  -27.2221  -17.4208   19.9912 H   0  0  0  0  0  0
  -31.2635  -18.0405   19.6255 H   0  0  0  0  0  0
  -32.2084  -16.7413   18.9097 H   0  0  0  0  0  0
  -31.2229  -17.7697   17.8885 H   0  0  0  0  0  0
  -28.4180  -15.8670   21.7352 H   0  0  0  0  0  0
  -29.9895  -16.3225   22.3094 H   0  0  0  0  0  0
  -28.3784  -24.3206   19.1364 H   0  0  0  0  0  0
  -26.9935  -24.2247   20.1978 H   0  0  0  0  0  0
  -30.1637  -15.5395   18.2226 H   0  0  0  0  0  0
  -29.1304  -16.7992   18.7336 H   0  0  0  0  0  0
  -29.5537  -25.5163   21.1870 H   0  0  0  0  0  0
  -27.9421  -25.7228   21.8139 H   0  0  0  0  0  0
  -28.5126  -23.0293   21.9043 H   0  0  0  0  0  0
  -29.7225  -22.9237   20.6187 H   0  0  0  0  0  0
  1 25  1  0  0  0
  1 30  2  0  0  0
  1 83  1  0  0  0
  2  3  1  0  0  0
  2 25  1  0  0  0
  2 86  1  0  0  0
  2 87  1  0  0  0
  3  4  1  0  0  0
  3 88  1  0  0  0
  3 89  1  0  0  0
  4  5  1  0  0  0
  4 90  1  0  0  0
  4 91  1  0  0  0
  5  6  1  0  0  0
  5 26  1  0  0  0
  5 92  1  0  0  0
  6 25  1  0  0  0
  6 93  1  0  0  0
  6 94  1  0  0  0
  7  8  2  0  0  0
  7 26  1  0  0  0
  7 29  1  0  0  0
  8  9  1  0  0  0
  8 22  1  0  0  0
  9 10  1  0  0  0
  9 27  2  0  0  0
 10 11  2  0  0  0
 10 15  1  0  0  0
 11 12  1  0  0  0
 11 95  1  0  0  0
 12 13  2  0  0  0
 12 96  1  0  0  0
 13 14  1  0  0  0
 13 31  1  0  0  0
 14 15  2  0  0  0
 14 97  1  0  0  0
 15 98  1  0  0  0
 16 17  2  0  0  0
 16 21  1  0  0  0
 16 31  1  0  0  0
 17 18  1  0  0  0
 17 99  1  0  0  0
 18 19  2  0  0  0
 18100  1  0  0  0
 19 20  1  0  0  0
 19 24  1  0  0  0
 20 21  2  0  0  0
 20101  1  0  0  0
 21 23  1  0  0  0
 22 28  1  0  0  0
 22 32  2  0  0  0
 26 27  1  0  0  0
 28102  1  0  0  0
 28103  1  0  0  0
 29104  1  0  0  0
 29105  1  0  0  0
 33 34  1  0  0  0
 33 66  1  0  0  0
 33 70  2  0  0  0
 34 36  1  0  0  0
 34 59  1  0  0  0
 34106  1  0  0  0
 35 44  2  0  0  0
 35 45  1  0  0  0
 35 68  1  0  0  0
 36 56  1  0  0  0
 36107  1  0  0  0
 37 39  1  0  0  0
 37 47  1  0  0  0
 37 66  1  0  0  0
 37108  1  0  0  0
 38 43  2  0  0  0
 38 46  1  0  0  0
 38 47  1  0  0  0
 39 64  1  0  0  0
 39 67  2  0  0  0
 40 52  1  0  0  0
 40 53  2  0  0  0
 40 58  1  0  0  0
 41109  1  0  0  0
 41110  1  0  0  0
 41111  1  0  0  0
 41 48  1  0  0  0
 42 43  1  0  0  0
 42 66  1  0  0  0
 42112  1  0  0  0
 42113  1  0  0  0
 43 44  1  0  0  0
 44114  1  0  0  0
 45 46  2  0  0  0
 45115  1  0  0  0
 46116  1  0  0  0
 47117  1  0  0  0
 47118  1  0  0  0
 48 56  1  0  0  0
 48 65  1  0  0  0
 48119  1  0  0  0
 49 50  1  0  0  0
 49 53  1  0  0  0
 49 64  1  0  0  0
 49120  1  0  0  0
 50 51  1  0  0  0
 50121  1  0  0  0
 50122  1  0  0  0
 51 52  1  0  0  0
 51123  1  0  0  0
 51124  1  0  0  0
 52125  1  0  0  0
 52126  1  0  0  0
 53 54  1  0  0  0
 54 55  2  0  0  0
 54127  1  0  0  0
 55 57  1  0  0  0
 55128  1  0  0  0
 56 69  2  0  0  0
 57 58  2  0  0  0
 57129  1  0  0  0
 58130  1  0  0  0
 59 60  1  0  0  0
 59 61  1  0  0  0
 59 62  1  0  0  0
 60131  1  0  0  0
 60132  1  0  0  0
 60133  1  0  0  0
 61134  1  0  0  0
 61135  1  0  0  0
 61136  1  0  0  0
 62137  1  0  0  0
 62138  1  0  0  0
 62139  1  0  0  0
 63 65  1  0  0  0
 63140  1  0  0  0
 63141  1  0  0  0
 63142  1  0  0  0
 64143  1  0  0  0
 65144  1  0  0  0
 68 81  1  0  0  0
 71 72  2  0  0  0
 71 74  1  0  0  0
 71145  1  0  0  0
 72 75  1  0  0  0
 72146  1  0  0  0
 73 74  2  0  0  0
 73 76  1  0  0  0
 73147  1  0  0  0
 74 78  1  0  0  0
 75 76  2  0  0  0
 75 84  1  0  0  0
 76 85  1  0  0  0
 77 80  1  0  0  0
 77148  1  0  0  0
 77149  1  0  0  0
 77150  1  0  0  0
 78 83  1  0  0  0
 78151  1  0  0  0
 78152  1  0  0  0
 79 81  1  0  0  0
 79 82  1  0  0  0
 79153  1  0  0  0
 79154  1  0  0  0
 80 83  1  0  0  0
 80155  1  0  0  0
 80156  1  0  0  0
 81157  1  0  0  0
 81158  1  0  0  0
 82 84  1  0  0  0
 82159  1  0  0  0
 82160  1  0  0  0
M  ISO  4   1 100  68 101  81 101  83 100
M  END
> <chiral flag>
0

> <version>
0

> <s_m_source_file>
/data/baiqing/PycharmProjects/Reinvent-master-3.2/result/LINK_invent/BTK/process_docking_weight1_custom_product_contain_oxygen_bond_distance_aromatic_linkinvent_7_9_3/rearranged_h_0019.sdf

> <i_m_source_file_index>
58

> <r_mmod_Potential_Energy-OPLS-2005>
191.256866455078

> <r_mmod_Stretch_Energy-OPLS-2005>
39.8049049377441

> <r_mmod_Bend_Energy-OPLS-2005>
105.04093170166

> <r_mmod_Torsional_Energy-OPLS-2005>
317.756774902344

> <r_mmod_Improper_Torsional_Energy-OPLS-2005>
20.5363540649414

> <r_mmod_Van_der_Waal_Energy-OPLS-2005>
147.546737670898

> <r_mmod_Electrostatic_Energy-OPLS-2005>
-268.433532714844

> <r_mmod_Solvation_Energy-OPLS-2005>
-193.735458374023

> <b_mmod_Minimization_Converged-OPLS-2005>
0

> <r_mmod_RMS_Derivative-OPLS-2005>
3.74326729774475

$$$$
58
                    3D
 Structure written by MMmdl.
176185  0  0  1  0            999 V2000
  -30.6660  -14.5844   20.4794 C   0  0  0  0  0  0
  -30.4198  -12.3518   19.4423 C   0  0  0  0  0  0
  -29.4991  -12.4888   18.2110 C   0  0  0  0  0  0
  -28.0202  -12.3513   18.6241 C   0  0  0  0  0  0
  -27.6522  -13.2187   19.8581 C   0  0  2  0  0  0
  -28.6989  -13.0781   20.9869 C   0  0  0  0  0  0
  -25.2578  -13.8180   20.5682 C   0  0  0  0  0  0
  -24.1843  -13.0440   20.9197 C   0  0  0  0  0  0
  -24.6416  -11.6925   20.8738 C   0  0  0  0  0  0
  -23.9083  -10.4305   21.0406 C   0  0  0  0  0  0
  -24.3633   -9.4217   21.9187 C   0  0  0  0  0  0
  -23.6308   -8.2248   22.0761 C   0  0  0  0  0  0
  -22.4293   -8.0284   21.3545 C   0  0  0  0  0  0
  -21.9928   -9.0260   20.4645 C   0  0  0  0  0  0
  -22.7255  -10.2148   20.3049 C   0  0  0  0  0  0
  -21.6845   -6.0751   22.5294 C   0  0  0  0  0  0
  -21.4016   -6.5658   23.8232 C   0  0  0  0  0  0
  -21.3657   -5.6806   24.9192 C   0  0  0  0  0  0
  -21.6035   -4.3068   24.7236 C   0  0  0  0  0  0
  -21.8816   -3.8165   23.4358 C   0  0  0  0  0  0
  -21.9205   -4.6983   22.3418 C   0  0  0  0  0  0
  -22.7867  -13.5235   21.1864 C   0  0  0  0  0  0
  -22.1664   -4.2173   21.0988 F   0  0  0  0  0  0
  -21.5630   -3.4549   25.7747 F   0  0  0  0  0  0
  -30.0149  -13.3848   20.4138 N   0  0  0  0  0  0
  -26.2995  -12.9370   20.3282 N   0  0  0  0  0  0
  -25.9338  -11.6529   20.5738 N   0  0  0  0  0  0
  -22.0498  -12.8210   22.0410 N   0  0  0  0  0  0
  -25.4265  -15.1894   20.4126 N   0  0  0  0  0  0
  -31.8414  -14.6965   20.1273 O   0  0  0  0  0  0
  -21.6644   -6.8891   21.4252 O   0  0  0  0  0  0
  -22.3557  -14.5554   20.6739 O   0  0  0  0  0  0
  -24.6233  -31.8648   23.2075 C   0  0  0  0  0  0
  -25.9109  -32.4796   23.8371 C   0  0  1  0  0  0
  -27.2188  -27.3537   20.1150 C   0  0  0  0  0  0
  -25.5934  -33.8594   24.2292 N   0  0  0  0  0  0
  -23.4115  -30.4895   21.5531 C   0  0  2  0  0  0
  -24.8555  -28.9522   20.1136 C   0  0  0  0  0  0
  -22.7445  -29.4632   22.4999 C   0  0  0  0  0  0
  -18.0265  -28.1352   22.8465 C   0  0  0  0  0  0
  -24.1514  -36.7302   23.2641 C   0  0  0  0  0  0
  -25.9501  -30.8037   21.3763 C   0  0  0  0  0  0
  -26.0234  -29.4345   20.7197 C   0  0  0  0  0  0
  -27.2068  -28.6443   20.7167 C   0  0  0  0  0  0
  -26.0339  -26.9230   19.4729 C   0  0  0  0  0  0
  -24.8617  -27.6984   19.4851 C   0  0  0  0  0  0
  -23.6217  -29.8258   20.1660 C   0  0  0  0  0  0
  -25.4136  -36.3104   24.0325 C   0  0  1  0  0  0
  -20.5861  -28.3654   23.1294 C   0  0  2  0  0  0
  -20.6782  -26.9384   22.5411 C   0  0  0  0  0  0
  -19.5767  -26.6358   21.5209 C   0  0  0  0  0  0
  -18.1926  -26.7887   22.1603 C   0  0  0  0  0  0
  -19.1519  -28.8820   23.2858 C   0  0  0  0  0  0
  -18.9465  -30.1428   23.8863 C   0  0  0  0  0  0
  -17.6469  -30.6564   24.0540 C   0  0  0  0  0  0
  -25.9063  -34.9459   23.5100 C   0  0  0  0  0  0
  -16.5353  -29.9050   23.6332 C   0  0  0  0  0  0
  -16.7258  -28.6478   23.0331 C   0  0  0  0  0  0
  -26.4485  -31.6590   25.0730 C   0  0  0  0  0  0
  -25.3696  -31.3732   26.1440 C   0  0  0  0  0  0
  -27.0334  -30.3010   24.6191 C   0  0  0  0  0  0
  -27.6062  -32.4316   25.7485 C   0  0  0  0  0  0
  -27.5600  -37.1799   24.8458 C   0  0  0  0  0  0
  -21.4173  -29.3015   22.3700 N   0  0  0  0  0  0
  -26.4316  -37.3790   23.9391 N   0  0  0  0  0  0
  -24.6797  -31.0689   22.1020 N   0  0  0  0  0  0
  -23.4191  -28.8168   23.3056 O   0  0  0  0  0  0
  -28.3399  -26.5223   20.1489 O   0  0  0  0  0  0
  -26.5644  -34.8918   22.4679 O   0  0  0  0  0  0
  -23.5409  -32.1434   23.7425 O   0  0  0  0  0  0
  -28.3742  -19.7579   18.2249 C   0  0  0  0  0  0
  -27.9363  -18.9601   17.1535 C   0  0  0  0  0  0
  -28.9005  -17.0029   18.2204 C   0  0  0  0  0  0
  -29.3593  -17.7902   19.3013 C   0  0  0  0  0  0
  -29.0926  -19.1997   19.3052 C   0  0  0  0  0  0
  -28.1996  -17.5744   17.1412 C   0  0  0  0  0  0
  -30.4689  -18.0458   21.5997 C   0  0  0  0  0  0
  -29.5991  -19.3329   21.6587 C   0  0  0  0  0  0
  -30.2387  -17.1161   20.3736 C   0  0  1  0  0  0
  -29.3376  -17.6864   14.3507 C   0  0  0  0  0  0
  -25.3016  -16.7505   16.2771 C   0  0  0  0  0  0
  -28.8222  -22.5567   20.5872 C   0  0  0  0  0  0
  -29.2239  -24.0628   20.3037 C   0  0  0  0  0  0
  -29.8729  -21.4649   20.1666 C   0  0  0  0  0  0
  -27.9052  -17.2746   14.7175 C   0  0  0  0  0  0
  -26.6052  -15.9480   16.4008 C   0  0  0  0  0  0
  -28.0909  -25.1270   20.5396 C   0  0  0  0  0  0
  -29.5011  -20.0331   20.3738 N   0  0  0  0  0  0
  -29.8975  -15.6881   20.7065 N   0  0  0  0  0  0
  -27.7879  -16.7471   16.0800 N   0  0  0  0  0  0
  -31.4678  -12.4392   19.1487 H   0  0  0  0  0  0
  -30.3176  -11.3590   19.8823 H   0  0  0  0  0  0
  -29.7470  -11.7264   17.4710 H   0  0  0  0  0  0
  -29.6653  -13.4513   17.7239 H   0  0  0  0  0  0
  -27.8402  -11.2991   18.8452 H   0  0  0  0  0  0
  -27.3718  -12.5964   17.7814 H   0  0  0  0  0  0
  -27.6701  -14.2534   19.5172 H   0  0  0  0  0  0
  -28.6954  -12.0659   21.3943 H   0  0  0  0  0  0
  -28.4644  -13.7389   21.8224 H   0  0  0  0  0  0
  -25.2771   -9.5715   22.4773 H   0  0  0  0  0  0
  -24.0035   -7.4641   22.7479 H   0  0  0  0  0  0
  -21.0864   -8.8771   19.8933 H   0  0  0  0  0  0
  -22.3699  -10.9697   19.6170 H   0  0  0  0  0  0
  -21.1984   -7.6164   23.9747 H   0  0  0  0  0  0
  -21.1477   -6.0531   25.9098 H   0  0  0  0  0  0
  -22.0590   -2.7629   23.2854 H   0  0  0  0  0  0
  -22.4108  -11.9860   22.4782 H   0  0  0  0  0  0
  -21.1107  -13.1227   22.2599 H   0  0  0  0  0  0
  -24.6553  -15.8361   20.5335 H   0  0  0  0  0  0
  -26.2728  -15.6408   20.0927 H   0  0  0  0  0  0
  -26.7176  -32.5480   23.1125 H   0  0  0  0  0  0
  -25.0019  -33.9721   25.0395 H   0  0  0  0  0  0
  -22.7056  -31.3103   21.4154 H   0  0  0  0  0  0
  -23.3773  -35.9642   23.3300 H   0  0  0  0  0  0
  -24.3605  -36.8940   22.2061 H   0  0  0  0  0  0
  -23.7260  -37.6500   23.6664 H   0  0  0  0  0  0
  -26.0802  -31.5686   20.6095 H   0  0  0  0  0  0
  -26.8289  -30.8498   22.0067 H   0  0  0  0  0  0
  -28.0978  -29.0009   21.2143 H   0  0  0  0  0  0
  -25.9912  -25.9778   18.9524 H   0  0  0  0  0  0
  -23.9668  -27.3277   19.0031 H   0  0  0  0  0  0
  -23.7295  -30.6023   19.4071 H   0  0  0  0  0  0
  -22.7451  -29.2463   19.8700 H   0  0  0  0  0  0
  -25.1311  -36.1981   25.0817 H   0  0  0  0  0  0
  -20.9924  -28.3256   24.1427 H   0  0  0  0  0  0
  -20.5740  -26.2250   23.3602 H   0  0  0  0  0  0
  -21.6642  -26.7455   22.1183 H   0  0  0  0  0  0
  -19.6942  -25.6282   21.1217 H   0  0  0  0  0  0
  -19.6720  -27.3191   20.6770 H   0  0  0  0  0  0
  -17.4207  -26.6624   21.3989 H   0  0  0  0  0  0
  -18.0310  -26.0026   22.9004 H   0  0  0  0  0  0
  -19.7959  -30.7209   24.2231 H   0  0  0  0  0  0
  -17.5041  -31.6258   24.5136 H   0  0  0  0  0  0
  -15.5349  -30.2935   23.7709 H   0  0  0  0  0  0
  -15.8649  -28.0799   22.7048 H   0  0  0  0  0  0
  -24.5928  -30.7010   25.7767 H   0  0  0  0  0  0
  -24.8782  -32.2882   26.4761 H   0  0  0  0  0  0
  -25.7986  -30.9003   27.0280 H   0  0  0  0  0  0
  -26.2913  -29.6744   24.1223 H   0  0  0  0  0  0
  -27.4040  -29.7298   25.4717 H   0  0  0  0  0  0
  -27.8785  -30.4288   23.9414 H   0  0  0  0  0  0
  -27.2705  -33.3667   26.1973 H   0  0  0  0  0  0
  -28.3888  -32.6770   25.0291 H   0  0  0  0  0  0
  -28.0677  -31.8464   26.5448 H   0  0  0  0  0  0
  -28.2599  -38.0124   24.7515 H   0  0  0  0  0  0
  -28.1096  -36.2626   24.6256 H   0  0  0  0  0  0
  -27.2277  -37.1418   25.8856 H   0  0  0  0  0  0
  -20.9373  -29.8709   21.6871 H   0  0  0  0  0  0
  -26.0212  -38.2876   24.1388 H   0  0  0  0  0  0
  -28.1269  -20.8089   18.2079 H   0  0  0  0  0  0
  -27.3888  -19.4280   16.3478 H   0  0  0  0  0  0
  -29.1289  -15.9486   18.1931 H   0  0  0  0  0  0
  -30.3737  -17.4833   22.5300 H   0  0  0  0  0  0
  -31.5101  -18.3713   21.5746 H   0  0  0  0  0  0
  -29.9911  -20.0088   22.4211 H   0  0  0  0  0  0
  -28.5891  -19.0703   21.9751 H   0  0  0  0  0  0
  -31.2055  -17.0852   19.8699 H   0  0  0  0  0  0
  -29.3692  -18.0764   13.3325 H   0  0  0  0  0  0
  -30.0237  -16.8395   14.4015 H   0  0  0  0  0  0
  -29.7195  -18.4691   15.0057 H   0  0  0  0  0  0
  -24.4385  -16.1237   16.5072 H   0  0  0  0  0  0
  -25.1589  -17.1361   15.2678 H   0  0  0  0  0  0
  -25.2866  -17.5957   16.9646 H   0  0  0  0  0  0
  -27.8873  -22.3490   20.0686 H   0  0  0  0  0  0
  -28.5948  -22.4435   21.6481 H   0  0  0  0  0  0
  -29.5521  -24.1448   19.2678 H   0  0  0  0  0  0
  -30.0928  -24.3275   20.9079 H   0  0  0  0  0  0
  -30.7984  -21.6480   20.7121 H   0  0  0  0  0  0
  -30.1348  -21.6146   19.1168 H   0  0  0  0  0  0
  -27.5757  -16.5095   14.0128 H   0  0  0  0  0  0
  -27.2281  -18.1189   14.5734 H   0  0  0  0  0  0
  -26.5708  -15.0823   15.7365 H   0  0  0  0  0  0
  -26.6835  -15.5432   17.4116 H   0  0  0  0  0  0
  -27.8325  -25.1315   21.5988 H   0  0  0  0  0  0
  -27.2174  -24.7212   20.0368 H   0  0  0  0  0  0
  -28.9421  -15.5100   20.9747 H   0  0  0  0  0  0
  1 25  1  0  0  0
  1 30  2  0  0  0
  1 89  1  0  0  0
  2  3  1  0  0  0
  2 25  1  0  0  0
  2 91  1  0  0  0
  2 92  1  0  0  0
  3  4  1  0  0  0
  3 93  1  0  0  0
  3 94  1  0  0  0
  4  5  1  0  0  0
  4 95  1  0  0  0
  4 96  1  0  0  0
  5  6  1  0  0  0
  5 26  1  0  0  0
  5 97  1  0  0  0
  6 25  1  0  0  0
  6 98  1  0  0  0
  6 99  1  0  0  0
  7  8  2  0  0  0
  7 26  1  0  0  0
  7 29  1  0  0  0
  8  9  1  0  0  0
  8 22  1  0  0  0
  9 10  1  0  0  0
  9 27  2  0  0  0
 10 11  2  0  0  0
 10 15  1  0  0  0
 11 12  1  0  0  0
 11100  1  0  0  0
 12 13  2  0  0  0
 12101  1  0  0  0
 13 14  1  0  0  0
 13 31  1  0  0  0
 14 15  2  0  0  0
 14102  1  0  0  0
 15103  1  0  0  0
 16 17  2  0  0  0
 16 21  1  0  0  0
 16 31  1  0  0  0
 17 18  1  0  0  0
 17104  1  0  0  0
 18 19  2  0  0  0
 18105  1  0  0  0
 19 20  1  0  0  0
 19 24  1  0  0  0
 20 21  2  0  0  0
 20106  1  0  0  0
 21 23  1  0  0  0
 22 28  1  0  0  0
 22 32  2  0  0  0
 26 27  1  0  0  0
 28107  1  0  0  0
 28108  1  0  0  0
 29109  1  0  0  0
 29110  1  0  0  0
 33 34  1  0  0  0
 33 66  1  0  0  0
 33 70  2  0  0  0
 34 36  1  0  0  0
 34 59  1  0  0  0
 34111  1  0  0  0
 35 44  2  0  0  0
 35 45  1  0  0  0
 35 68  1  0  0  0
 36 56  1  0  0  0
 36112  1  0  0  0
 37 39  1  0  0  0
 37 47  1  0  0  0
 37 66  1  0  0  0
 37113  1  0  0  0
 38 43  2  0  0  0
 38 46  1  0  0  0
 38 47  1  0  0  0
 39 64  1  0  0  0
 39 67  2  0  0  0
 40 52  1  0  0  0
 40 53  2  0  0  0
 40 58  1  0  0  0
 41114  1  0  0  0
 41115  1  0  0  0
 41116  1  0  0  0
 41 48  1  0  0  0
 42 43  1  0  0  0
 42 66  1  0  0  0
 42117  1  0  0  0
 42118  1  0  0  0
 43 44  1  0  0  0
 44119  1  0  0  0
 45 46  2  0  0  0
 45120  1  0  0  0
 46121  1  0  0  0
 47122  1  0  0  0
 47123  1  0  0  0
 48 56  1  0  0  0
 48 65  1  0  0  0
 48124  1  0  0  0
 49 50  1  0  0  0
 49 53  1  0  0  0
 49 64  1  0  0  0
 49125  1  0  0  0
 50 51  1  0  0  0
 50126  1  0  0  0
 50127  1  0  0  0
 51 52  1  0  0  0
 51128  1  0  0  0
 51129  1  0  0  0
 52130  1  0  0  0
 52131  1  0  0  0
 53 54  1  0  0  0
 54 55  2  0  0  0
 54132  1  0  0  0
 55 57  1  0  0  0
 55133  1  0  0  0
 56 69  2  0  0  0
 57 58  2  0  0  0
 57134  1  0  0  0
 58135  1  0  0  0
 59 60  1  0  0  0
 59 61  1  0  0  0
 59 62  1  0  0  0
 60136  1  0  0  0
 60137  1  0  0  0
 60138  1  0  0  0
 61139  1  0  0  0
 61140  1  0  0  0
 61141  1  0  0  0
 62142  1  0  0  0
 62143  1  0  0  0
 62144  1  0  0  0
 63 65  1  0  0  0
 63145  1  0  0  0
 63146  1  0  0  0
 63147  1  0  0  0
 64148  1  0  0  0
 65149  1  0  0  0
 68 87  1  0  0  0
 71 72  2  0  0  0
 71 75  1  0  0  0
 71150  1  0  0  0
 72 76  1  0  0  0
 72151  1  0  0  0
 73 74  1  0  0  0
 73 76  2  0  0  0
 73152  1  0  0  0
 74 75  2  0  0  0
 74 79  1  0  0  0
 75 88  1  0  0  0
 76 90  1  0  0  0
 77 78  1  0  0  0
 77 79  1  0  0  0
 77153  1  0  0  0
 77154  1  0  0  0
 78 88  1  0  0  0
 78155  1  0  0  0
 78156  1  0  0  0
 79 89  1  0  0  0
 79157  1  0  0  0
 80 85  1  0  0  0
 80158  1  0  0  0
 80159  1  0  0  0
 80160  1  0  0  0
 81 86  1  0  0  0
 81161  1  0  0  0
 81162  1  0  0  0
 81163  1  0  0  0
 82 83  1  0  0  0
 82 84  1  0  0  0
 82164  1  0  0  0
 82165  1  0  0  0
 83 87  1  0  0  0
 83166  1  0  0  0
 83167  1  0  0  0
 84 88  1  0  0  0
 84168  1  0  0  0
 84169  1  0  0  0
 85 90  1  0  0  0
 85170  1  0  0  0
 85171  1  0  0  0
 86 90  1  0  0  0
 86172  1  0  0  0
 86173  1  0  0  0
 87174  1  0  0  0
 87175  1  0  0  0
 89176  1  0  0  0
M  ISO  4   1 100  68 101  87 101  89 100
M  END
> <chiral flag>
0

> <version>
0

> <s_m_source_file>
/data/baiqing/PycharmProjects/Reinvent-master-3.2/result/LINK_invent/BTK/process_docking_weight1_custom_product_contain_oxygen_bond_distance_aromatic_linkinvent_7_9_3/rearranged_h_0019.sdf

> <i_m_source_file_index>
59

> <r_mmod_Potential_Energy-OPLS-2005>
-65.3232269287109

> <r_mmod_Stretch_Energy-OPLS-2005>
65.0536575317383

> <r_mmod_Bend_Energy-OPLS-2005>
137.236862182617

> <r_mmod_Torsional_Energy-OPLS-2005>
238.324340820312

> <r_mmod_Improper_Torsional_Energy-OPLS-2005>
9.43349361419678

> <r_mmod_Van_der_Waal_Energy-OPLS-2005>
147.483184814453

> <r_mmod_Electrostatic_Energy-OPLS-2005>
-476.913696289062

> <r_mmod_Solvation_Energy-OPLS-2005>
-222.030471801758

> <b_mmod_Minimization_Converged-OPLS-2005>
0

> <r_mmod_RMS_Derivative-OPLS-2005>
3.23315978050232

$$$$
59
                    3D
 Structure written by MMmdl.
147155  0  0  1  0            999 V2000
  -30.2915  -15.5967   20.3338 C   0  0  0  0  0  0
  -30.4315  -13.0470   19.5523 C   0  0  0  0  0  0
  -29.5531  -12.6510   18.3300 C   0  0  0  0  0  0
  -28.1242  -12.2970   18.7705 C   0  0  0  0  0  0
  -27.6009  -13.3018   19.8212 C   0  0  2  0  0  0
  -28.6160  -13.6077   20.9476 C   0  0  0  0  0  0
  -25.2336  -13.8276   20.5781 C   0  0  0  0  0  0
  -24.1719  -13.0434   20.9278 C   0  0  0  0  0  0
  -24.6411  -11.6943   20.8764 C   0  0  0  0  0  0
  -23.9111  -10.4289   21.0398 C   0  0  0  0  0  0
  -24.3648   -9.4202   21.9180 C   0  0  0  0  0  0
  -23.6309   -8.2244   22.0752 C   0  0  0  0  0  0
  -22.4293   -8.0286   21.3543 C   0  0  0  0  0  0
  -21.9935   -9.0263   20.4650 C   0  0  0  0  0  0
  -22.7275  -10.2134   20.3055 C   0  0  0  0  0  0
  -21.6860   -6.0744   22.5277 C   0  0  0  0  0  0
  -21.4020   -6.5644   23.8213 C   0  0  0  0  0  0
  -21.3655   -5.6795   24.9174 C   0  0  0  0  0  0
  -21.6041   -4.3059   24.7221 C   0  0  0  0  0  0
  -21.8817   -3.8157   23.4343 C   0  0  0  0  0  0
  -21.9196   -4.6971   22.3399 C   0  0  0  0  0  0
  -22.7731  -13.5173   21.1918 C   0  0  0  0  0  0
  -22.1663   -4.2154   21.0980 F   0  0  0  0  0  0
  -21.5622   -3.4541   25.7736 F   0  0  0  0  0  0
  -29.8019  -14.2206   20.3086 N   0  0  0  0  0  0
  -26.2785  -12.9599   20.3260 N   0  0  0  0  0  0
  -25.9357  -11.6677   20.5717 N   0  0  0  0  0  0
  -22.0403  -12.8153   22.0476 N   0  0  0  0  0  0
  -25.3924  -15.2013   20.4194 N   0  0  0  0  0  0
  -31.5178  -15.5784   20.1115 O   0  0  0  0  0  0
  -21.6646   -6.8886   21.4243 O   0  0  0  0  0  0
  -22.3408  -14.5465   20.6745 O   0  0  0  0  0  0
  -24.6845  -31.8011   23.1518 C   0  0  0  0  0  0
  -25.9430  -32.4474   23.8054 C   0  0  1  0  0  0
  -27.2226  -26.7111   20.2113 C   0  0  0  0  0  0
  -25.6013  -33.8293   24.1965 N   0  0  0  0  0  0
  -23.5101  -30.4048   21.5043 C   0  0  2  0  0  0
  -24.9664  -28.7481   20.1128 C   0  0  0  0  0  0
  -22.7769  -29.4341   22.4698 C   0  0  0  0  0  0
  -18.0349  -28.1442   22.8465 C   0  0  0  0  0  0
  -24.1483  -36.7133   23.2652 C   0  0  0  0  0  0
  -26.0900  -30.5353   21.4153 C   0  0  0  0  0  0
  -26.1541  -29.1021   20.7639 C   0  0  0  0  0  0
  -27.2671  -28.1098   20.7839 C   0  0  0  0  0  0
  -26.0059  -26.5668   19.4981 C   0  0  0  0  0  0
  -24.9310  -27.5064   19.4551 C   0  0  0  0  0  0
  -23.7625  -29.7034   20.1382 C   0  0  0  0  0  0
  -25.4136  -36.2889   24.0287 C   0  0  1  0  0  0
  -20.5988  -28.3796   23.1150 C   0  0  2  0  0  0
  -20.6815  -26.9455   22.5411 C   0  0  0  0  0  0
  -19.5780  -26.6396   21.5228 C   0  0  0  0  0  0
  -18.1969  -26.7966   22.1641 C   0  0  0  0  0  0
  -19.1619  -28.8942   23.2790 C   0  0  0  0  0  0
  -18.9519  -30.1532   23.8828 C   0  0  0  0  0  0
  -17.6508  -30.6620   24.0564 C   0  0  0  0  0  0
  -25.9124  -34.9287   23.4963 C   0  0  0  0  0  0
  -16.5396  -29.9104   23.6367 C   0  0  0  0  0  0
  -16.7331  -28.6531   23.0375 C   0  0  0  0  0  0
  -26.4604  -31.6498   25.0673 C   0  0  0  0  0  0
  -25.3669  -31.3828   26.1292 C   0  0  0  0  0  0
  -27.0533  -30.2831   24.6578 C   0  0  0  0  0  0
  -27.6060  -32.4350   25.7480 C   0  0  0  0  0  0
  -27.5560  -37.1722   24.8470 C   0  0  0  0  0  0
  -21.4418  -29.3040   22.3446 N   0  0  0  0  0  0
  -26.4250  -37.3663   23.9426 N   0  0  0  0  0  0
  -24.7845  -30.9473   22.0757 N   0  0  0  0  0  0
  -23.4217  -28.7952   23.3045 O   0  0  0  0  0  0
  -28.1675  -25.4835   20.3108 O   0  0  0  0  0  0
  -26.5752  -34.8870   22.4575 O   0  0  0  0  0  0
  -23.5869  -32.1077   23.6491 O   0  0  0  0  0  0
  -29.6251  -21.2426   19.6029 C   0  0  0  0  0  0
  -29.9646  -19.7434   19.6551 C   0  0  0  0  0  0
  -28.5730  -22.0554   20.2910 C   0  0  0  0  0  0
  -27.9472  -20.9246   21.0418 C   0  0  0  0  0  0
  -29.3237  -18.6178   20.3970 C   0  0  0  0  0  0
  -28.2758  -19.4256   21.0793 C   0  0  0  0  0  0
  -26.7401  -21.3382   21.8706 C   0  0  0  0  0  0
  -27.8884  -23.7814   20.0277 C   0  0  0  0  0  0
  -29.4621  -16.9006   20.4696 N   0  0  0  0  0  0
  -27.4537  -18.6699   21.8482 F   0  0  0  0  0  0
  -31.4280  -13.3068   19.1958 H   0  0  0  0  0  0
  -30.5829  -12.1924   20.2136 H   0  0  0  0  0  0
  -29.9998  -11.8149   17.7903 H   0  0  0  0  0  0
  -29.5189  -13.4874   17.6300 H   0  0  0  0  0  0
  -28.1477  -11.2978   19.2077 H   0  0  0  0  0  0
  -27.4545  -12.2413   17.9115 H   0  0  0  0  0  0
  -27.4731  -14.2304   19.2630 H   0  0  0  0  0  0
  -28.8637  -12.7160   21.5248 H   0  0  0  0  0  0
  -28.1888  -14.3199   21.6550 H   0  0  0  0  0  0
  -25.2782   -9.5683   22.4769 H   0  0  0  0  0  0
  -24.0011   -7.4639   22.7479 H   0  0  0  0  0  0
  -21.0860   -8.8797   19.8958 H   0  0  0  0  0  0
  -22.3728  -10.9684   19.6177 H   0  0  0  0  0  0
  -21.2014   -7.6155   23.9717 H   0  0  0  0  0  0
  -21.1478   -6.0525   25.9072 H   0  0  0  0  0  0
  -22.0598   -2.7618   23.2842 H   0  0  0  0  0  0
  -22.4033  -11.9821   22.4863 H   0  0  0  0  0  0
  -21.1016  -13.1174   22.2694 H   0  0  0  0  0  0
  -24.6152  -15.8449   20.5197 H   0  0  0  0  0  0
  -26.2297  -15.6471   20.0707 H   0  0  0  0  0  0
  -26.7517  -32.4947   23.0768 H   0  0  0  0  0  0
  -25.0091  -33.9316   25.0072 H   0  0  0  0  0  0
  -22.8367  -31.2438   21.3173 H   0  0  0  0  0  0
  -23.3778  -35.9428   23.3250 H   0  0  0  0  0  0
  -24.3557  -36.8847   22.2081 H   0  0  0  0  0  0
  -23.7202  -37.6283   23.6750 H   0  0  0  0  0  0
  -26.2990  -31.2627   20.6294 H   0  0  0  0  0  0
  -26.9379  -30.5971   22.0844 H   0  0  0  0  0  0
  -28.1567  -28.3823   21.3340 H   0  0  0  0  0  0
  -25.8393  -25.6245   18.9961 H   0  0  0  0  0  0
  -24.0357  -27.2286   18.9153 H   0  0  0  0  0  0
  -23.9365  -30.4638   19.3764 H   0  0  0  0  0  0
  -22.8658  -29.1717   19.8160 H   0  0  0  0  0  0
  -25.1345  -36.1633   25.0773 H   0  0  0  0  0  0
  -21.0093  -28.3418   24.1267 H   0  0  0  0  0  0
  -20.5703  -26.2416   23.3679 H   0  0  0  0  0  0
  -21.6673  -26.7417   22.1209 H   0  0  0  0  0  0
  -19.6928  -25.6289   21.1302 H   0  0  0  0  0  0
  -19.6716  -27.3169   20.6723 H   0  0  0  0  0  0
  -17.4243  -26.6733   21.4036 H   0  0  0  0  0  0
  -18.0345  -26.0136   22.9067 H   0  0  0  0  0  0
  -19.7988  -30.7383   24.2159 H   0  0  0  0  0  0
  -17.5056  -31.6289   24.5184 H   0  0  0  0  0  0
  -15.5395  -30.2991   23.7723 H   0  0  0  0  0  0
  -15.8734  -28.0833   22.7122 H   0  0  0  0  0  0
  -24.5846  -30.7187   25.7595 H   0  0  0  0  0  0
  -24.8872  -32.3062   26.4542 H   0  0  0  0  0  0
  -25.7851  -30.9096   27.0181 H   0  0  0  0  0  0
  -26.3244  -29.6448   24.1572 H   0  0  0  0  0  0
  -27.3952  -29.7282   25.5325 H   0  0  0  0  0  0
  -27.9236  -30.3958   24.0109 H   0  0  0  0  0  0
  -27.2615  -33.3737   26.1826 H   0  0  0  0  0  0
  -28.3985  -32.6770   25.0384 H   0  0  0  0  0  0
  -28.0585  -31.8619   26.5579 H   0  0  0  0  0  0
  -28.2546  -38.0050   24.7560 H   0  0  0  0  0  0
  -28.1093  -36.2587   24.6242 H   0  0  0  0  0  0
  -27.2293  -37.1293   25.8874 H   0  0  0  0  0  0
  -20.9723  -29.8669   21.6488 H   0  0  0  0  0  0
  -26.0076  -38.2699   24.1471 H   0  0  0  0  0  0
  -30.2269  -21.8070   18.9041 H   0  0  0  0  0  0
  -30.7753  -19.4465   19.0054 H   0  0  0  0  0  0
  -26.9114  -22.3005   22.3540 H   0  0  0  0  0  0
  -26.5141  -20.6276   22.6651 H   0  0  0  0  0  0
  -25.8592  -21.4252   21.2348 H   0  0  0  0  0  0
  -26.8730  -23.6776   20.4082 H   0  0  0  0  0  0
  -27.7422  -23.7768   18.9478 H   0  0  0  0  0  0
  -28.5571  -16.5617   20.7618 H   0  0  0  0  0  0
  1 25  1  0  0  0
  1 30  2  0  0  0
  1 79  1  0  0  0
  2  3  1  0  0  0
  2 25  1  0  0  0
  2 81  1  0  0  0
  2 82  1  0  0  0
  3  4  1  0  0  0
  3 83  1  0  0  0
  3 84  1  0  0  0
  4  5  1  0  0  0
  4 85  1  0  0  0
  4 86  1  0  0  0
  5  6  1  0  0  0
  5 26  1  0  0  0
  5 87  1  0  0  0
  6 25  1  0  0  0
  6 88  1  0  0  0
  6 89  1  0  0  0
  7  8  2  0  0  0
  7 26  1  0  0  0
  7 29  1  0  0  0
  8  9  1  0  0  0
  8 22  1  0  0  0
  9 10  1  0  0  0
  9 27  2  0  0  0
 10 11  2  0  0  0
 10 15  1  0  0  0
 11 12  1  0  0  0
 11 90  1  0  0  0
 12 13  2  0  0  0
 12 91  1  0  0  0
 13 14  1  0  0  0
 13 31  1  0  0  0
 14 15  2  0  0  0
 14 92  1  0  0  0
 15 93  1  0  0  0
 16 17  2  0  0  0
 16 21  1  0  0  0
 16 31  1  0  0  0
 17 18  1  0  0  0
 17 94  1  0  0  0
 18 19  2  0  0  0
 18 95  1  0  0  0
 19 20  1  0  0  0
 19 24  1  0  0  0
 20 21  2  0  0  0
 20 96  1  0  0  0
 21 23  1  0  0  0
 22 28  1  0  0  0
 22 32  2  0  0  0
 26 27  1  0  0  0
 28 97  1  0  0  0
 28 98  1  0  0  0
 29 99  1  0  0  0
 29100  1  0  0  0
 33 34  1  0  0  0
 33 66  1  0  0  0
 33 70  2  0  0  0
 34 36  1  0  0  0
 34 59  1  0  0  0
 34101  1  0  0  0
 35 44  2  0  0  0
 35 45  1  0  0  0
 35 68  1  0  0  0
 36 56  1  0  0  0
 36102  1  0  0  0
 37 39  1  0  0  0
 37 47  1  0  0  0
 37 66  1  0  0  0
 37103  1  0  0  0
 38 43  2  0  0  0
 38 46  1  0  0  0
 38 47  1  0  0  0
 39 64  1  0  0  0
 39 67  2  0  0  0
 40 52  1  0  0  0
 40 53  2  0  0  0
 40 58  1  0  0  0
 41104  1  0  0  0
 41105  1  0  0  0
 41106  1  0  0  0
 41 48  1  0  0  0
 42 43  1  0  0  0
 42 66  1  0  0  0
 42107  1  0  0  0
 42108  1  0  0  0
 43 44  1  0  0  0
 44109  1  0  0  0
 45 46  2  0  0  0
 45110  1  0  0  0
 46111  1  0  0  0
 47112  1  0  0  0
 47113  1  0  0  0
 48 56  1  0  0  0
 48 65  1  0  0  0
 48114  1  0  0  0
 49 50  1  0  0  0
 49 53  1  0  0  0
 49 64  1  0  0  0
 49115  1  0  0  0
 50 51  1  0  0  0
 50116  1  0  0  0
 50117  1  0  0  0
 51 52  1  0  0  0
 51118  1  0  0  0
 51119  1  0  0  0
 52120  1  0  0  0
 52121  1  0  0  0
 53 54  1  0  0  0
 54 55  2  0  0  0
 54122  1  0  0  0
 55 57  1  0  0  0
 55123  1  0  0  0
 56 69  2  0  0  0
 57 58  2  0  0  0
 57124  1  0  0  0
 58125  1  0  0  0
 59 60  1  0  0  0
 59 61  1  0  0  0
 59 62  1  0  0  0
 60126  1  0  0  0
 60127  1  0  0  0
 60128  1  0  0  0
 61129  1  0  0  0
 61130  1  0  0  0
 61131  1  0  0  0
 62132  1  0  0  0
 62133  1  0  0  0
 62134  1  0  0  0
 63 65  1  0  0  0
 63135  1  0  0  0
 63136  1  0  0  0
 63137  1  0  0  0
 64138  1  0  0  0
 65139  1  0  0  0
 68 78  1  0  0  0
 71 72  2  0  0  0
 71 73  1  0  0  0
 71140  1  0  0  0
 72 75  1  0  0  0
 72141  1  0  0  0
 73 74  2  0  0  0
 73 78  1  0  0  0
 74 76  1  0  0  0
 74 77  1  0  0  0
 75 76  2  0  0  0
 75 79  1  0  0  0
 76 80  1  0  0  0
 77142  1  0  0  0
 77143  1  0  0  0
 77144  1  0  0  0
 78145  1  0  0  0
 78146  1  0  0  0
 79147  1  0  0  0
M  ISO  4   1 100  68 101  78 101  79 100
M  END
> <chiral flag>
0

> <version>
0

> <s_m_source_file>
/data/baiqing/PycharmProjects/Reinvent-master-3.2/result/LINK_invent/BTK/process_docking_weight1_custom_product_contain_oxygen_bond_distance_aromatic_linkinvent_7_9_3/rearranged_h_0019.sdf

> <i_m_source_file_index>
60

> <r_mmod_Potential_Energy-OPLS-2005>
2239.83447265625

> <r_mmod_Stretch_Energy-OPLS-2005>
917.891906738281

> <r_mmod_Bend_Energy-OPLS-2005>
665.006530761719

> <r_mmod_Torsional_Energy-OPLS-2005>
232.859146118164

> <r_mmod_Improper_Torsional_Energy-OPLS-2005>
6.87996339797974

> <r_mmod_Van_der_Waal_Energy-OPLS-2005>
134.154663085938

> <r_mmod_Electrostatic_Energy-OPLS-2005>
-382.428344726562

> <r_mmod_Solvation_Energy-OPLS-2005>
-204.806625366211

> <b_mmod_Minimization_Converged-OPLS-2005>
0

> <r_mmod_RMS_Derivative-OPLS-2005>
1.49124789237976

$$$$
60
                    3D
 Structure written by MMmdl.
160169  0  0  1  0            999 V2000
  -30.5321  -15.0047   20.3962 C   0  0  0  0  0  0
  -30.4363  -12.6217   19.5107 C   0  0  0  0  0  0
  -29.5246  -12.5318   18.2636 C   0  0  0  0  0  0
  -28.0583  -12.3142   18.6792 C   0  0  0  0  0  0
  -27.6263  -13.2545   19.8335 C   0  0  2  0  0  0
  -28.6640  -13.3122   20.9738 C   0  0  0  0  0  0
  -25.2463  -13.8232   20.5743 C   0  0  0  0  0  0
  -24.1782  -13.0450   20.9257 C   0  0  0  0  0  0
  -24.6411  -11.6941   20.8777 C   0  0  0  0  0  0
  -23.9105  -10.4300   21.0422 C   0  0  0  0  0  0
  -24.3648   -9.4202   21.9198 C   0  0  0  0  0  0
  -23.6313   -8.2241   22.0754 C   0  0  0  0  0  0
  -22.4286   -8.0298   21.3546 C   0  0  0  0  0  0
  -21.9939   -9.0277   20.4647 C   0  0  0  0  0  0
  -22.7281  -10.2152   20.3066 C   0  0  0  0  0  0
  -21.6861   -6.0757   22.5293 C   0  0  0  0  0  0
  -21.4010   -6.5652   23.8231 C   0  0  0  0  0  0
  -21.3647   -5.6794   24.9185 C   0  0  0  0  0  0
  -21.6032   -4.3060   24.7227 C   0  0  0  0  0  0
  -21.8814   -3.8162   23.4345 C   0  0  0  0  0  0
  -21.9193   -4.6981   22.3410 C   0  0  0  0  0  0
  -22.7801  -13.5229   21.1892 C   0  0  0  0  0  0
  -22.1665   -4.2183   21.0985 F   0  0  0  0  0  0
  -21.5616   -3.4533   25.7729 F   0  0  0  0  0  0
  -29.9353  -13.7374   20.3736 N   0  0  0  0  0  0
  -26.2872  -12.9480   20.3221 N   0  0  0  0  0  0
  -25.9340  -11.6598   20.5730 N   0  0  0  0  0  0
  -22.0434  -12.8221   22.0428 N   0  0  0  0  0  0
  -25.4141  -15.1966   20.4195 N   0  0  0  0  0  0
  -31.7388  -15.0275   20.1295 O   0  0  0  0  0  0
  -21.6637   -6.8900   21.4254 O   0  0  0  0  0  0
  -22.3491  -14.5530   20.6716 O   0  0  0  0  0  0
  -24.6481  -31.8404   23.1847 C   0  0  0  0  0  0
  -25.9245  -32.4664   23.8236 C   0  0  1  0  0  0
  -27.2066  -27.0818   20.1782 C   0  0  0  0  0  0
  -25.6005  -33.8473   24.2167 N   0  0  0  0  0  0
  -23.4523  -30.4592   21.5301 C   0  0  2  0  0  0
  -24.9017  -28.8728   20.1124 C   0  0  0  0  0  0
  -22.7576  -29.4533   22.4830 C   0  0  0  0  0  0
  -18.0310  -28.1408   22.8461 C   0  0  0  0  0  0
  -24.1482  -36.7210   23.2636 C   0  0  0  0  0  0
  -26.0105  -30.6980   21.3903 C   0  0  0  0  0  0
  -26.0801  -29.3019   20.7361 C   0  0  0  0  0  0
  -27.2347  -28.4246   20.7483 C   0  0  0  0  0  0
  -26.0077  -26.7710   19.5014 C   0  0  0  0  0  0
  -24.8821  -27.6233   19.4735 C   0  0  0  0  0  0
  -23.6824  -29.7846   20.1505 C   0  0  0  0  0  0
  -25.4116  -36.3009   24.0312 C   0  0  1  0  0  0
  -20.5921  -28.3736   23.1220 C   0  0  2  0  0  0
  -20.6789  -26.9440   22.5397 C   0  0  0  0  0  0
  -19.5762  -26.6393   21.5202 C   0  0  0  0  0  0
  -18.1942  -26.7952   22.1605 C   0  0  0  0  0  0
  -19.1571  -28.8890   23.2825 C   0  0  0  0  0  0
  -18.9486  -30.1486   23.8846 C   0  0  0  0  0  0
  -17.6483  -30.6595   24.0571 C   0  0  0  0  0  0
  -25.9077  -34.9390   23.5036 C   0  0  0  0  0  0
  -16.5367  -29.9084   23.6367 C   0  0  0  0  0  0
  -16.7300  -28.6517   23.0362 C   0  0  0  0  0  0
  -26.4559  -31.6538   25.0681 C   0  0  0  0  0  0
  -25.3763  -31.3767   26.1398 C   0  0  0  0  0  0
  -27.0397  -30.2918   24.6280 C   0  0  0  0  0  0
  -27.6099  -32.4299   25.7449 C   0  0  0  0  0  0
  -27.5566  -37.1762   24.8466 C   0  0  0  0  0  0
  -21.4267  -29.3051   22.3576 N   0  0  0  0  0  0
  -26.4273  -37.3733   23.9412 N   0  0  0  0  0  0
  -24.7234  -31.0222   22.0891 N   0  0  0  0  0  0
  -23.4202  -28.8118   23.3024 O   0  0  0  0  0  0
  -28.2486  -26.0707   20.2288 O   0  0  0  0  0  0
  -26.5638  -34.8901   22.4593 O   0  0  0  0  0  0
  -23.5597  -32.1293   23.7059 O   0  0  0  0  0  0
  -31.4899  -19.3591   19.0944 C   0  0  0  0  0  0
  -31.1758  -18.0402   19.4791 C   0  0  0  0  0  0
  -29.2180  -18.9516   20.5568 C   0  0  0  0  0  0
  -30.7048  -20.4970   19.4132 C   0  0  0  0  0  0
  -29.5031  -20.3877   20.1737 C   0  0  0  0  0  0
  -30.0282  -17.7237   20.2338 C   0  0  0  0  0  0
  -29.2435  -23.2354   18.5470 C   0  0  0  0  0  0
  -31.2412  -21.8317   18.9064 C   0  0  0  0  0  0
  -28.9713  -23.1705   20.0645 C   0  0  1  0  0  0
  -27.7624  -21.4268   21.5708 C   0  0  0  0  0  0
  -30.5614  -22.5276   16.6091 C   0  0  0  0  0  0
  -27.9688  -24.5235   20.4346 C   0  0  0  0  0  0
  -28.7209  -21.6484   20.4928 N   0  0  0  0  0  0
  -30.2980  -22.5558   18.0526 N   0  0  0  0  0  0
  -29.7693  -16.2188   20.5497 N   0  0  0  0  0  0
  -28.4696  -23.8549   17.8076 O   0  0  0  0  0  0
  -31.4702  -12.7759   19.1986 H   0  0  0  0  0  0
  -30.4322  -11.6793   20.0608 H   0  0  0  0  0  0
  -29.8544  -11.7217   17.6112 H   0  0  0  0  0  0
  -29.6091  -13.4510   17.6818 H   0  0  0  0  0  0
  -27.9591  -11.2755   18.9956 H   0  0  0  0  0  0
  -27.3980  -12.4395   17.8202 H   0  0  0  0  0  0
  -27.5831  -14.2504   19.3916 H   0  0  0  0  0  0
  -28.7611  -12.3440   21.4679 H   0  0  0  0  0  0
  -28.3494  -14.0223   21.7393 H   0  0  0  0  0  0
  -25.2796   -9.5671   22.4772 H   0  0  0  0  0  0
  -24.0035   -7.4620   22.7461 H   0  0  0  0  0  0
  -21.0882   -8.8805   19.8941 H   0  0  0  0  0  0
  -22.3759  -10.9694   19.6170 H   0  0  0  0  0  0
  -21.2005   -7.6156   23.9750 H   0  0  0  0  0  0
  -21.1455   -6.0513   25.9092 H   0  0  0  0  0  0
  -22.0589   -2.7625   23.2834 H   0  0  0  0  0  0
  -22.4051  -11.9895   22.4841 H   0  0  0  0  0  0
  -21.1027  -13.1218   22.2580 H   0  0  0  0  0  0
  -24.6477  -15.8485   20.5439 H   0  0  0  0  0  0
  -26.2536  -15.6356   20.0646 H   0  0  0  0  0  0
  -26.7306  -32.5254   23.0952 H   0  0  0  0  0  0
  -25.0280  -33.9581   25.0409 H   0  0  0  0  0  0
  -22.7562  -31.2863   21.3743 H   0  0  0  0  0  0
  -23.3761  -35.9528   23.3309 H   0  0  0  0  0  0
  -24.3576  -36.8816   22.2050 H   0  0  0  0  0  0
  -23.7217  -37.6402   23.6648 H   0  0  0  0  0  0
  -26.1721  -31.4484   20.6154 H   0  0  0  0  0  0
  -26.8774  -30.7493   22.0361 H   0  0  0  0  0  0
  -28.1309  -28.7503   21.2573 H   0  0  0  0  0  0
  -25.9175  -25.8246   18.9897 H   0  0  0  0  0  0
  -23.9879  -27.2937   18.9611 H   0  0  0  0  0  0
  -23.8274  -30.5571   19.3941 H   0  0  0  0  0  0
  -22.7932  -29.2327   19.8393 H   0  0  0  0  0  0
  -25.1312  -36.1826   25.0810 H   0  0  0  0  0  0
  -21.0018  -28.3343   24.1340 H   0  0  0  0  0  0
  -20.5668  -26.2355   23.3618 H   0  0  0  0  0  0
  -21.6664  -26.7438   22.1213 H   0  0  0  0  0  0
  -19.6913  -25.6293   21.1258 H   0  0  0  0  0  0
  -19.6713  -27.3183   20.6714 H   0  0  0  0  0  0
  -17.4225  -26.6714   21.3990 H   0  0  0  0  0  0
  -18.0321  -26.0088   22.8996 H   0  0  0  0  0  0
  -19.7956  -30.7325   24.2160 H   0  0  0  0  0  0
  -17.5040  -31.6268   24.5184 H   0  0  0  0  0  0
  -15.5362  -30.2978   23.7704 H   0  0  0  0  0  0
  -15.8697  -28.0834   22.7082 H   0  0  0  0  0  0
  -24.5973  -30.7053   25.7765 H   0  0  0  0  0  0
  -24.8933  -32.2969   26.4692 H   0  0  0  0  0  0
  -25.8092  -30.9071   27.0242 H   0  0  0  0  0  0
  -26.3006  -29.6641   24.1288 H   0  0  0  0  0  0
  -27.3993  -29.7213   25.4849 H   0  0  0  0  0  0
  -27.8933  -30.4111   23.9605 H   0  0  0  0  0  0
  -27.2718  -33.3646   26.1927 H   0  0  0  0  0  0
  -28.3952  -32.6764   25.0292 H   0  0  0  0  0  0
  -28.0707  -31.8482   26.5440 H   0  0  0  0  0  0
  -28.2592  -38.0056   24.7518 H   0  0  0  0  0  0
  -28.1059  -36.2583   24.6287 H   0  0  0  0  0  0
  -27.2299  -37.1420   25.8880 H   0  0  0  0  0  0
  -20.9469  -29.8745   21.6744 H   0  0  0  0  0  0
  -26.0133  -38.2791   24.1456 H   0  0  0  0  0  0
  -32.3918  -19.4910   18.5129 H   0  0  0  0  0  0
  -31.8501  -17.2641   19.1492 H   0  0  0  0  0  0
  -28.3224  -18.7658   21.1284 H   0  0  0  0  0  0
  -32.1698  -21.6755   18.3563 H   0  0  0  0  0  0
  -31.5638  -22.4327   19.7557 H   0  0  0  0  0  0
  -29.8951  -23.4362   20.5750 H   0  0  0  0  0  0
  -27.1068  -20.5810   21.3605 H   0  0  0  0  0  0
  -27.1070  -22.2823   21.7238 H   0  0  0  0  0  0
  -28.2834  -21.2321   22.5103 H   0  0  0  0  0  0
  -29.6593  -22.2627   16.0550 H   0  0  0  0  0  0
  -31.3254  -21.7999   16.3362 H   0  0  0  0  0  0
  -30.8923  -23.5088   16.2647 H   0  0  0  0  0  0
  -27.7927  -24.4683   21.5084 H   0  0  0  0  0  0
  -26.9917  -24.2961   20.0119 H   0  0  0  0  0  0
  -28.8302  -16.0294   20.8630 H   0  0  0  0  0  0
  1 25  1  0  0  0
  1 30  2  0  0  0
  1 85  1  0  0  0
  2  3  1  0  0  0
  2 25  1  0  0  0
  2 87  1  0  0  0
  2 88  1  0  0  0
  3  4  1  0  0  0
  3 89  1  0  0  0
  3 90  1  0  0  0
  4  5  1  0  0  0
  4 91  1  0  0  0
  4 92  1  0  0  0
  5  6  1  0  0  0
  5 26  1  0  0  0
  5 93  1  0  0  0
  6 25  1  0  0  0
  6 94  1  0  0  0
  6 95  1  0  0  0
  7  8  2  0  0  0
  7 26  1  0  0  0
  7 29  1  0  0  0
  8  9  1  0  0  0
  8 22  1  0  0  0
  9 10  1  0  0  0
  9 27  2  0  0  0
 10 11  2  0  0  0
 10 15  1  0  0  0
 11 12  1  0  0  0
 11 96  1  0  0  0
 12 13  2  0  0  0
 12 97  1  0  0  0
 13 14  1  0  0  0
 13 31  1  0  0  0
 14 15  2  0  0  0
 14 98  1  0  0  0
 15 99  1  0  0  0
 16 17  2  0  0  0
 16 21  1  0  0  0
 16 31  1  0  0  0
 17 18  1  0  0  0
 17100  1  0  0  0
 18 19  2  0  0  0
 18101  1  0  0  0
 19 20  1  0  0  0
 19 24  1  0  0  0
 20 21  2  0  0  0
 20102  1  0  0  0
 21 23  1  0  0  0
 22 28  1  0  0  0
 22 32  2  0  0  0
 26 27  1  0  0  0
 28103  1  0  0  0
 28104  1  0  0  0
 29105  1  0  0  0
 29106  1  0  0  0
 33 34  1  0  0  0
 33 66  1  0  0  0
 33 70  2  0  0  0
 34 36  1  0  0  0
 34 59  1  0  0  0
 34107  1  0  0  0
 35 44  2  0  0  0
 35 45  1  0  0  0
 35 68  1  0  0  0
 36 56  1  0  0  0
 36108  1  0  0  0
 37 39  1  0  0  0
 37 47  1  0  0  0
 37 66  1  0  0  0
 37109  1  0  0  0
 38 43  2  0  0  0
 38 46  1  0  0  0
 38 47  1  0  0  0
 39 64  1  0  0  0
 39 67  2  0  0  0
 40 52  1  0  0  0
 40 53  2  0  0  0
 40 58  1  0  0  0
 41110  1  0  0  0
 41111  1  0  0  0
 41112  1  0  0  0
 41 48  1  0  0  0
 42 43  1  0  0  0
 42 66  1  0  0  0
 42113  1  0  0  0
 42114  1  0  0  0
 43 44  1  0  0  0
 44115  1  0  0  0
 45 46  2  0  0  0
 45116  1  0  0  0
 46117  1  0  0  0
 47118  1  0  0  0
 47119  1  0  0  0
 48 56  1  0  0  0
 48 65  1  0  0  0
 48120  1  0  0  0
 49 50  1  0  0  0
 49 53  1  0  0  0
 49 64  1  0  0  0
 49121  1  0  0  0
 50 51  1  0  0  0
 50122  1  0  0  0
 50123  1  0  0  0
 51 52  1  0  0  0
 51124  1  0  0  0
 51125  1  0  0  0
 52126  1  0  0  0
 52127  1  0  0  0
 53 54  1  0  0  0
 54 55  2  0  0  0
 54128  1  0  0  0
 55 57  1  0  0  0
 55129  1  0  0  0
 56 69  2  0  0  0
 57 58  2  0  0  0
 57130  1  0  0  0
 58131  1  0  0  0
 59 60  1  0  0  0
 59 61  1  0  0  0
 59 62  1  0  0  0
 60132  1  0  0  0
 60133  1  0  0  0
 60134  1  0  0  0
 61135  1  0  0  0
 61136  1  0  0  0
 61137  1  0  0  0
 62138  1  0  0  0
 62139  1  0  0  0
 62140  1  0  0  0
 63 65  1  0  0  0
 63141  1  0  0  0
 63142  1  0  0  0
 63143  1  0  0  0
 64144  1  0  0  0
 65145  1  0  0  0
 68 82  1  0  0  0
 71 72  2  0  0  0
 71 74  1  0  0  0
 71146  1  0  0  0
 72 76  1  0  0  0
 72147  1  0  0  0
 73 75  1  0  0  0
 73 76  2  0  0  0
 73148  1  0  0  0
 74 75  2  0  0  0
 74 78  1  0  0  0
 75 83  1  0  0  0
 76 85  1  0  0  0
 77 79  1  0  0  0
 77 84  1  0  0  0
 77 86  2  0  0  0
 78 84  1  0  0  0
 78149  1  0  0  0
 78150  1  0  0  0
 79 82  1  0  0  0
 79 83  1  0  0  0
 79151  1  0  0  0
 80 83  1  0  0  0
 80152  1  0  0  0
 80153  1  0  0  0
 80154  1  0  0  0
 81 84  1  0  0  0
 81155  1  0  0  0
 81156  1  0  0  0
 81157  1  0  0  0
 82158  1  0  0  0
 82159  1  0  0  0
 85160  1  0  0  0
M  ISO  4   1 100  68 101  82 101  85 100
M  END
> <chiral flag>
0

> <version>
0

> <s_m_source_file>
/data/baiqing/PycharmProjects/Reinvent-master-3.2/result/LINK_invent/BTK/process_docking_weight1_custom_product_contain_oxygen_bond_distance_aromatic_linkinvent_7_9_3/rearranged_h_0019.sdf

> <i_m_source_file_index>
61

> <r_mmod_Potential_Energy-OPLS-2005>
687.270141601562

> <r_mmod_Stretch_Energy-OPLS-2005>
334.785766601562

> <r_mmod_Bend_Energy-OPLS-2005>
286.240783691406

> <r_mmod_Torsional_Energy-OPLS-2005>
228.852462768555

> <r_mmod_Improper_Torsional_Energy-OPLS-2005>
4.16147041320801

> <r_mmod_Van_der_Waal_Energy-OPLS-2005>
154.753295898438

> <r_mmod_Electrostatic_Energy-OPLS-2005>
-304.651306152344

> <r_mmod_Solvation_Energy-OPLS-2005>
-252.735229492188

> <b_mmod_Minimization_Converged-OPLS-2005>
0

> <r_mmod_RMS_Derivative-OPLS-2005>
2.3903374671936

$$$$
61
                    3D
 Structure written by MMmdl.
144152  0  0  1  0            999 V2000
  -30.1180  -16.1601   20.2974 C   0  0  0  0  0  0
  -30.3742  -13.4883   19.5291 C   0  0  0  0  0  0
  -29.5665  -12.8046   18.3708 C   0  0  0  0  0  0
  -28.1854  -12.3338   18.8386 C   0  0  0  0  0  0
  -27.5803  -13.3686   19.8052 C   0  0  2  0  0  0
  -28.5583  -13.9261   20.8840 C   0  0  0  0  0  0
  -25.2250  -13.8370   20.5878 C   0  0  0  0  0  0
  -24.1697  -13.0438   20.9318 C   0  0  0  0  0  0
  -24.6482  -11.6978   20.8745 C   0  0  0  0  0  0
  -23.9184  -10.4301   21.0362 C   0  0  0  0  0  0
  -24.3694   -9.4215   21.9160 C   0  0  0  0  0  0
  -23.6337   -8.2263   22.0746 C   0  0  0  0  0  0
  -22.4313   -8.0304   21.3542 C   0  0  0  0  0  0
  -21.9971   -9.0283   20.4637 C   0  0  0  0  0  0
  -22.7335  -10.2145   20.3029 C   0  0  0  0  0  0
  -21.6869   -6.0757   22.5279 C   0  0  0  0  0  0
  -21.4026   -6.5655   23.8214 C   0  0  0  0  0  0
  -21.3660   -5.6801   24.9176 C   0  0  0  0  0  0
  -21.6042   -4.3062   24.7218 C   0  0  0  0  0  0
  -21.8822   -3.8162   23.4338 C   0  0  0  0  0  0
  -21.9197   -4.6982   22.3398 C   0  0  0  0  0  0
  -22.7693  -13.5123   21.1935 C   0  0  0  0  0  0
  -22.1668   -4.2168   21.0974 F   0  0  0  0  0  0
  -21.5617   -3.4542   25.7728 F   0  0  0  0  0  0
  -29.6379  -14.7119   20.1881 N   0  0  0  0  0  0
  -26.2774  -12.9825   20.3311 N   0  0  0  0  0  0
  -25.9454  -11.6823   20.5654 N   0  0  0  0  0  0
  -22.0377  -12.8082   22.0481 N   0  0  0  0  0  0
  -25.3745  -15.2125   20.4333 N   0  0  0  0  0  0
  -31.3628  -15.9791   20.2324 O   0  0  0  0  0  0
  -21.6657   -6.8910   21.4245 O   0  0  0  0  0  0
  -22.3355  -14.5415   20.6768 O   0  0  0  0  0  0
  -24.7183  -31.7588   23.1209 C   0  0  0  0  0  0
  -25.9597  -32.4260   23.7897 C   0  0  1  0  0  0
  -27.2440  -26.3464   20.2480 C   0  0  0  0  0  0
  -25.6035  -33.8103   24.1757 N   0  0  0  0  0  0
  -23.5593  -30.3435   21.4843 C   0  0  2  0  0  0
  -25.0187  -28.6062   20.1298 C   0  0  0  0  0  0
  -22.7917  -29.4101   22.4624 C   0  0  0  0  0  0
  -18.0359  -28.1442   22.8449 C   0  0  0  0  0  0
  -24.1490  -36.7047   23.2658 C   0  0  0  0  0  0
  -26.1528  -30.3736   21.4365 C   0  0  0  0  0  0
  -26.2139  -28.8974   20.7962 C   0  0  0  0  0  0
  -27.2926  -27.8085   20.8103 C   0  0  0  0  0  0
  -26.0126  -26.3554   19.5147 C   0  0  0  0  0  0
  -24.9787  -27.3648   19.4632 C   0  0  0  0  0  0
  -23.8317  -29.6047   20.1358 C   0  0  0  0  0  0
  -25.4152  -36.2770   24.0261 C   0  0  1  0  0  0
  -20.6014  -28.3813   23.1086 C   0  0  2  0  0  0
  -20.6805  -26.9439   22.5412 C   0  0  0  0  0  0
  -19.5785  -26.6362   21.5222 C   0  0  0  0  0  0
  -18.1971  -26.7965   22.1618 C   0  0  0  0  0  0
  -19.1636  -28.8962   23.2736 C   0  0  0  0  0  0
  -18.9534  -30.1538   23.8793 C   0  0  0  0  0  0
  -17.6522  -30.6618   24.0547 C   0  0  0  0  0  0
  -25.9159  -34.9173   23.4871 C   0  0  0  0  0  0
  -16.5409  -29.9096   23.6359 C   0  0  0  0  0  0
  -16.7337  -28.6519   23.0381 C   0  0  0  0  0  0
  -26.4653  -31.6439   25.0666 C   0  0  0  0  0  0
  -25.3628  -31.3848   26.1217 C   0  0  0  0  0  0
  -27.0628  -30.2742   24.6806 C   0  0  0  0  0  0
  -27.6038  -32.4372   25.7510 C   0  0  0  0  0  0
  -27.5541  -37.1680   24.8473 C   0  0  0  0  0  0
  -21.4533  -29.2992   22.3371 N   0  0  0  0  0  0
  -26.4241  -37.3574   23.9417 N   0  0  0  0  0  0
  -24.8382  -30.8680   22.0659 N   0  0  0  0  0  0
  -23.4194  -28.7769   23.3138 O   0  0  0  0  0  0
  -28.1801  -24.9784   20.3168 O   0  0  0  0  0  0
  -26.5832  -34.8829   22.4510 O   0  0  0  0  0  0
  -23.6127  -32.0824   23.5948 O   0  0  0  0  0  0
  -31.7299  -21.6346   21.0987 C   0  0  0  0  0  0
  -32.0253  -20.2904   21.1043 C   0  0  0  0  0  0
  -30.4517  -22.0750   20.7784 C   0  0  0  0  0  0
  -31.0537  -19.3484   20.7881 C   0  0  0  0  0  0
  -29.2917  -21.3193   20.4202 C   0  0  0  0  0  0
  -29.6870  -19.5447   20.4312 C   0  0  0  0  0  0
  -28.1711  -23.0283   20.2104 C   0  0  0  0  0  0
  -29.4042  -17.6925   20.2808 N   0  0  0  0  0  0
  -31.3172  -13.8268   19.0977 H   0  0  0  0  0  0
  -30.6740  -12.7533   20.2782 H   0  0  0  0  0  0
  -30.1292  -11.9694   17.9520 H   0  0  0  0  0  0
  -29.4428  -13.5265   17.5620 H   0  0  0  0  0  0
  -28.3029  -11.3791   19.3525 H   0  0  0  0  0  0
  -27.5265  -12.1534   17.9878 H   0  0  0  0  0  0
  -27.3691  -14.2160   19.1499 H   0  0  0  0  0  0
  -28.9381  -13.1427   21.5416 H   0  0  0  0  0  0
  -28.0230  -14.6183   21.5355 H   0  0  0  0  0  0
  -25.2828   -9.5688   22.4752 H   0  0  0  0  0  0
  -24.0038   -7.4656   22.7474 H   0  0  0  0  0  0
  -21.0898   -8.8817   19.8939 H   0  0  0  0  0  0
  -22.3791  -10.9686   19.6140 H   0  0  0  0  0  0
  -21.2026   -7.6163   23.9730 H   0  0  0  0  0  0
  -21.1472   -6.0523   25.9079 H   0  0  0  0  0  0
  -22.0595   -2.7621   23.2829 H   0  0  0  0  0  0
  -22.4045  -11.9775   22.4879 H   0  0  0  0  0  0
  -21.0972  -13.1045   22.2664 H   0  0  0  0  0  0
  -24.5990  -15.8555   20.5504 H   0  0  0  0  0  0
  -26.2201  -15.6623   20.1078 H   0  0  0  0  0  0
  -26.7725  -32.4653   23.0639 H   0  0  0  0  0  0
  -25.0081  -33.9071   24.9850 H   0  0  0  0  0  0
  -22.9043  -31.1887   21.2630 H   0  0  0  0  0  0
  -23.3778  -35.9345   23.3253 H   0  0  0  0  0  0
  -24.3548  -36.8789   22.2084 H   0  0  0  0  0  0
  -23.7222  -37.6186   23.6798 H   0  0  0  0  0  0
  -26.3854  -31.0686   20.6284 H   0  0  0  0  0  0
  -26.9942  -30.4605   22.1117 H   0  0  0  0  0  0
  -28.1870  -28.0551   21.3645 H   0  0  0  0  0  0
  -25.7878  -25.4427   18.9805 H   0  0  0  0  0  0
  -24.0887  -27.1259   18.8974 H   0  0  0  0  0  0
  -24.0352  -30.3475   19.3637 H   0  0  0  0  0  0
  -22.9282  -29.0892   19.8053 H   0  0  0  0  0  0
  -25.1372  -36.1475   25.0744 H   0  0  0  0  0  0
  -21.0079  -28.3462   24.1220 H   0  0  0  0  0  0
  -20.5623  -26.2448   23.3706 H   0  0  0  0  0  0
  -21.6666  -26.7318   22.1259 H   0  0  0  0  0  0
  -19.6921  -25.6240   21.1327 H   0  0  0  0  0  0
  -19.6740  -27.3109   20.6705 H   0  0  0  0  0  0
  -17.4239  -26.6712   21.4023 H   0  0  0  0  0  0
  -18.0349  -26.0126   22.9032 H   0  0  0  0  0  0
  -19.8007  -30.7387   24.2112 H   0  0  0  0  0  0
  -17.5069  -31.6286   24.5169 H   0  0  0  0  0  0
  -15.5405  -30.2972   23.7739 H   0  0  0  0  0  0
  -15.8736  -28.0803   22.7161 H   0  0  0  0  0  0
  -24.5882  -30.7118   25.7521 H   0  0  0  0  0  0
  -24.8732  -32.3089   26.4295 H   0  0  0  0  0  0
  -25.7741  -30.9250   27.0216 H   0  0  0  0  0  0
  -26.3404  -29.6271   24.1827 H   0  0  0  0  0  0
  -27.3939  -29.7305   25.5664 H   0  0  0  0  0  0
  -27.9428  -30.3788   24.0462 H   0  0  0  0  0  0
  -27.2542  -33.3787   26.1756 H   0  0  0  0  0  0
  -28.4026  -32.6740   25.0473 H   0  0  0  0  0  0
  -28.0518  -31.8716   26.5687 H   0  0  0  0  0  0
  -28.2512  -38.0017   24.7520 H   0  0  0  0  0  0
  -28.1082  -36.2533   24.6299 H   0  0  0  0  0  0
  -27.2262  -37.1312   25.8877 H   0  0  0  0  0  0
  -20.9921  -29.8578   21.6329 H   0  0  0  0  0  0
  -26.0033  -38.2601   24.1440 H   0  0  0  0  0  0
  -32.5003  -22.3521   21.3491 H   0  0  0  0  0  0
  -33.0243  -19.9663   21.3625 H   0  0  0  0  0  0
  -30.4037  -23.1544   20.8301 H   0  0  0  0  0  0
  -31.4774  -18.3620   20.8593 H   0  0  0  0  0  0
  -28.8471  -23.2617   19.3862 H   0  0  0  0  0  0
  -28.3225  -23.1553   21.2834 H   0  0  0  0  0  0
  -28.4136  -17.5215   20.1718 H   0  0  0  0  0  0
  1 25  1  0  0  0
  1 30  2  0  0  0
  1 78  1  0  0  0
  2  3  1  0  0  0
  2 25  1  0  0  0
  2 79  1  0  0  0
  2 80  1  0  0  0
  3  4  1  0  0  0
  3 81  1  0  0  0
  3 82  1  0  0  0
  4  5  1  0  0  0
  4 83  1  0  0  0
  4 84  1  0  0  0
  5  6  1  0  0  0
  5 26  1  0  0  0
  5 85  1  0  0  0
  6 25  1  0  0  0
  6 86  1  0  0  0
  6 87  1  0  0  0
  7  8  2  0  0  0
  7 26  1  0  0  0
  7 29  1  0  0  0
  8  9  1  0  0  0
  8 22  1  0  0  0
  9 10  1  0  0  0
  9 27  2  0  0  0
 10 11  2  0  0  0
 10 15  1  0  0  0
 11 12  1  0  0  0
 11 88  1  0  0  0
 12 13  2  0  0  0
 12 89  1  0  0  0
 13 14  1  0  0  0
 13 31  1  0  0  0
 14 15  2  0  0  0
 14 90  1  0  0  0
 15 91  1  0  0  0
 16 17  2  0  0  0
 16 21  1  0  0  0
 16 31  1  0  0  0
 17 18  1  0  0  0
 17 92  1  0  0  0
 18 19  2  0  0  0
 18 93  1  0  0  0
 19 20  1  0  0  0
 19 24  1  0  0  0
 20 21  2  0  0  0
 20 94  1  0  0  0
 21 23  1  0  0  0
 22 28  1  0  0  0
 22 32  2  0  0  0
 26 27  1  0  0  0
 28 95  1  0  0  0
 28 96  1  0  0  0
 29 97  1  0  0  0
 29 98  1  0  0  0
 33 34  1  0  0  0
 33 66  1  0  0  0
 33 70  2  0  0  0
 34 36  1  0  0  0
 34 59  1  0  0  0
 34 99  1  0  0  0
 35 44  2  0  0  0
 35 45  1  0  0  0
 35 68  1  0  0  0
 36 56  1  0  0  0
 36100  1  0  0  0
 37 39  1  0  0  0
 37 47  1  0  0  0
 37 66  1  0  0  0
 37101  1  0  0  0
 38 43  2  0  0  0
 38 46  1  0  0  0
 38 47  1  0  0  0
 39 64  1  0  0  0
 39 67  2  0  0  0
 40 52  1  0  0  0
 40 53  2  0  0  0
 40 58  1  0  0  0
 41102  1  0  0  0
 41103  1  0  0  0
 41104  1  0  0  0
 41 48  1  0  0  0
 42 43  1  0  0  0
 42 66  1  0  0  0
 42105  1  0  0  0
 42106  1  0  0  0
 43 44  1  0  0  0
 44107  1  0  0  0
 45 46  2  0  0  0
 45108  1  0  0  0
 46109  1  0  0  0
 47110  1  0  0  0
 47111  1  0  0  0
 48 56  1  0  0  0
 48 65  1  0  0  0
 48112  1  0  0  0
 49 50  1  0  0  0
 49 53  1  0  0  0
 49 64  1  0  0  0
 49113  1  0  0  0
 50 51  1  0  0  0
 50114  1  0  0  0
 50115  1  0  0  0
 51 52  1  0  0  0
 51116  1  0  0  0
 51117  1  0  0  0
 52118  1  0  0  0
 52119  1  0  0  0
 53 54  1  0  0  0
 54 55  2  0  0  0
 54120  1  0  0  0
 55 57  1  0  0  0
 55121  1  0  0  0
 56 69  2  0  0  0
 57 58  2  0  0  0
 57122  1  0  0  0
 58123  1  0  0  0
 59 60  1  0  0  0
 59 61  1  0  0  0
 59 62  1  0  0  0
 60124  1  0  0  0
 60125  1  0  0  0
 60126  1  0  0  0
 61127  1  0  0  0
 61128  1  0  0  0
 61129  1  0  0  0
 62130  1  0  0  0
 62131  1  0  0  0
 62132  1  0  0  0
 63 65  1  0  0  0
 63133  1  0  0  0
 63134  1  0  0  0
 63135  1  0  0  0
 64136  1  0  0  0
 65137  1  0  0  0
 68 77  1  0  0  0
 71 72  2  0  0  0
 71 73  1  0  0  0
 71138  1  0  0  0
 72 74  1  0  0  0
 72139  1  0  0  0
 73 75  2  0  0  0
 73140  1  0  0  0
 74 76  2  0  0  0
 74141  1  0  0  0
 75 76  1  0  0  0
 75 77  1  0  0  0
 76 78  1  0  0  0
 77142  1  0  0  0
 77143  1  0  0  0
 78144  1  0  0  0
M  ISO  4   1 100  68 101  77 101  78 100
M  END
> <chiral flag>
0

> <version>
0

> <s_m_source_file>
/data/baiqing/PycharmProjects/Reinvent-master-3.2/result/LINK_invent/BTK/process_docking_weight1_custom_product_contain_oxygen_bond_distance_aromatic_linkinvent_7_9_3/rearranged_h_0019.sdf

> <i_m_source_file_index>
62

> <r_mmod_Potential_Energy-OPLS-2005>
5065.419921875

> <r_mmod_Stretch_Energy-OPLS-2005>
2161.8056640625

> <r_mmod_Bend_Energy-OPLS-2005>
1240.08117675781

> <r_mmod_Torsional_Energy-OPLS-2005>
229.316177368164

> <r_mmod_Improper_Torsional_Energy-OPLS-2005>
5.04998302459717

> <r_mmod_Van_der_Waal_Energy-OPLS-2005>
148.29963684082

> <r_mmod_Electrostatic_Energy-OPLS-2005>
-342.251678466797

> <r_mmod_Solvation_Energy-OPLS-2005>
-211.945541381836

> <b_mmod_Minimization_Converged-OPLS-2005>
0

> <r_mmod_RMS_Derivative-OPLS-2005>
1.2926459312439

$$$$
62
                    3D
 Structure written by MMmdl.
165173  0  0  1  0            999 V2000
  -30.6637  -14.4908   20.5880 C   0  0  0  0  0  0
  -30.4352  -12.3258   19.4072 C   0  0  0  0  0  0
  -29.4928  -12.5049   18.1968 C   0  0  0  0  0  0
  -28.0148  -12.3563   18.6123 C   0  0  0  0  0  0
  -27.6608  -13.1966   19.8679 C   0  0  2  0  0  0
  -28.7031  -12.9589   20.9838 C   0  0  0  0  0  0
  -25.2604  -13.8147   20.5641 C   0  0  0  0  0  0
  -24.1857  -13.0437   20.9154 C   0  0  0  0  0  0
  -24.6397  -11.6890   20.8725 C   0  0  0  0  0  0
  -23.9073  -10.4289   21.0421 C   0  0  0  0  0  0
  -24.3628   -9.4207   21.9202 C   0  0  0  0  0  0
  -23.6304   -8.2245   22.0772 C   0  0  0  0  0  0
  -22.4293   -8.0285   21.3550 C   0  0  0  0  0  0
  -21.9926   -9.0260   20.4655 C   0  0  0  0  0  0
  -22.7254  -10.2136   20.3065 C   0  0  0  0  0  0
  -21.6849   -6.0761   22.5290 C   0  0  0  0  0  0
  -21.4013   -6.5667   23.8229 C   0  0  0  0  0  0
  -21.3649   -5.6814   24.9184 C   0  0  0  0  0  0
  -21.6031   -4.3077   24.7236 C   0  0  0  0  0  0
  -21.8819   -3.8172   23.4360 C   0  0  0  0  0  0
  -21.9195   -4.6987   22.3410 C   0  0  0  0  0  0
  -22.7877  -13.5235   21.1813 C   0  0  0  0  0  0
  -22.1666   -4.2172   21.0985 F   0  0  0  0  0  0
  -21.5620   -3.4552   25.7757 F   0  0  0  0  0  0
  -30.0325  -13.2945   20.4386 N   0  0  0  0  0  0
  -26.3018  -12.9286   20.3324 N   0  0  0  0  0  0
  -25.9311  -11.6454   20.5742 N   0  0  0  0  0  0
  -22.0521  -12.8234   22.0385 N   0  0  0  0  0  0
  -25.4333  -15.1864   20.4086 N   0  0  0  0  0  0
  -31.7947  -14.7196   20.1434 O   0  0  0  0  0  0
  -21.6637   -6.8897   21.4252 O   0  0  0  0  0  0
  -22.3564  -14.5554   20.6689 O   0  0  0  0  0  0
  -24.6194  -31.8678   23.2088 C   0  0  0  0  0  0
  -25.9085  -32.4808   23.8377 C   0  0  1  0  0  0
  -27.2298  -27.4128   20.1008 C   0  0  0  0  0  0
  -25.5929  -33.8601   24.2310 N   0  0  0  0  0  0
  -23.4044  -30.4925   21.5519 C   0  0  2  0  0  0
  -24.8482  -28.9566   20.1159 C   0  0  0  0  0  0
  -22.7422  -29.4675   22.5003 C   0  0  0  0  0  0
  -18.0256  -28.1368   22.8471 C   0  0  0  0  0  0
  -24.1505  -36.7308   23.2638 C   0  0  0  0  0  0
  -25.9356  -30.8279   21.3636 C   0  0  0  0  0  0
  -26.0116  -29.4610   20.7100 C   0  0  0  0  0  0
  -27.2055  -28.6969   20.6979 C   0  0  0  0  0  0
  -26.0443  -26.9328   19.4916 C   0  0  0  0  0  0
  -24.8608  -27.6936   19.5021 C   0  0  0  0  0  0
  -23.6122  -29.8281   20.1644 C   0  0  0  0  0  0
  -25.4124  -36.3107   24.0345 C   0  0  1  0  0  0
  -20.5850  -28.3676   23.1306 C   0  0  2  0  0  0
  -20.6779  -26.9422   22.5403 C   0  0  0  0  0  0
  -19.5762  -26.6392   21.5202 C   0  0  0  0  0  0
  -18.1919  -26.7905   22.1610 C   0  0  0  0  0  0
  -19.1506  -28.8838   23.2867 C   0  0  0  0  0  0
  -18.9451  -30.1433   23.8894 C   0  0  0  0  0  0
  -17.6459  -30.6583   24.0562 C   0  0  0  0  0  0
  -25.9045  -34.9461   23.5121 C   0  0  0  0  0  0
  -16.5356  -29.9090   23.6330 C   0  0  0  0  0  0
  -16.7245  -28.6512   23.0347 C   0  0  0  0  0  0
  -26.4507  -31.6582   25.0696 C   0  0  0  0  0  0
  -25.3756  -31.3640   26.1409 C   0  0  0  0  0  0
  -27.0355  -30.3035   24.6053 C   0  0  0  0  0  0
  -27.6081  -32.4278   25.7459 C   0  0  0  0  0  0
  -27.5586  -37.1808   24.8468 C   0  0  0  0  0  0
  -21.4158  -29.3016   22.3725 N   0  0  0  0  0  0
  -26.4314  -37.3787   23.9397 N   0  0  0  0  0  0
  -24.6705  -31.0770   22.0993 N   0  0  0  0  0  0
  -23.4190  -28.8215   23.3045 O   0  0  0  0  0  0
  -28.3957  -26.6615   20.1322 O   0  0  0  0  0  0
  -26.5629  -34.8934   22.4691 O   0  0  0  0  0  0
  -23.5386  -32.1456   23.7477 O   0  0  0  0  0  0
  -31.1840  -18.8432   22.1024 C   0  0  0  0  0  0
  -31.1821  -17.4546   21.8246 C   0  0  0  0  0  0
  -28.9846  -19.0640   21.0947 C   0  0  0  0  0  0
  -30.0743  -19.6612   21.7696 C   0  0  0  0  0  0
  -30.0532  -16.8548   21.2214 C   0  0  0  0  0  0
  -28.9676  -17.6735   20.8415 C   0  0  0  0  0  0
  -34.2570  -22.1266   20.9577 C   0  0  0  0  0  0
  -29.9674  -21.1029   22.3066 C   0  0  0  0  0  0
  -32.9052  -22.2519   21.6699 C   0  0  0  0  0  0
  -29.4889  -24.4701   20.5991 C   0  0  0  0  0  0
  -31.6949  -22.0677   20.7288 C   0  0  0  0  0  0
  -29.3314  -22.9164   20.6392 C   0  0  0  0  0  0
  -28.2689  -25.2292   20.0173 C   0  0  0  0  0  0
  -29.8796  -15.4423   21.1294 N   0  0  0  0  0  0
  -30.4041  -22.2509   21.4437 N   0  3  1  0  0  0
  -27.8761  -17.1077   20.2682 F   0  0  0  0  0  0
  -31.4740  -12.4581   19.1002 H   0  0  0  0  0  0
  -30.3667  -11.3104   19.8014 H   0  0  0  0  0  0
  -29.7339  -11.7758   17.4215 H   0  0  0  0  0  0
  -29.6495  -13.4868   17.7483 H   0  0  0  0  0  0
  -27.8305  -11.2998   18.8140 H   0  0  0  0  0  0
  -27.3617  -12.6242   17.7807 H   0  0  0  0  0  0
  -27.7064  -14.2450   19.5691 H   0  0  0  0  0  0
  -28.6863  -11.9142   21.2973 H   0  0  0  0  0  0
  -28.4512  -13.5275   21.8809 H   0  0  0  0  0  0
  -25.2776   -9.5687   22.4781 H   0  0  0  0  0  0
  -24.0017   -7.4639   22.7495 H   0  0  0  0  0  0
  -21.0860   -8.8776   19.8958 H   0  0  0  0  0  0
  -22.3719  -10.9682   19.6173 H   0  0  0  0  0  0
  -21.2012   -7.6175   23.9737 H   0  0  0  0  0  0
  -21.1459   -6.0546   25.9087 H   0  0  0  0  0  0
  -22.0607   -2.7632   23.2854 H   0  0  0  0  0  0
  -22.4133  -11.9873   22.4735 H   0  0  0  0  0  0
  -21.1140  -13.1264   22.2606 H   0  0  0  0  0  0
  -24.6652  -15.8375   20.5237 H   0  0  0  0  0  0
  -26.2971  -15.6435   20.1394 H   0  0  0  0  0  0
  -26.7171  -32.5521   23.1154 H   0  0  0  0  0  0
  -25.0060  -33.9734   25.0443 H   0  0  0  0  0  0
  -22.6916  -31.3085   21.4163 H   0  0  0  0  0  0
  -23.3765  -35.9636   23.3309 H   0  0  0  0  0  0
  -24.3606  -36.8923   22.2052 H   0  0  0  0  0  0
  -23.7246  -37.6510   23.6653 H   0  0  0  0  0  0
  -26.0355  -31.5939   20.5945 H   0  0  0  0  0  0
  -26.8274  -30.8844   21.9749 H   0  0  0  0  0  0
  -28.1015  -29.0752   21.1716 H   0  0  0  0  0  0
  -26.0126  -25.9706   18.9973 H   0  0  0  0  0  0
  -23.9695  -27.2996   19.0327 H   0  0  0  0  0  0
  -23.7187  -30.6066   19.4058 H   0  0  0  0  0  0
  -22.7353  -29.2478   19.8731 H   0  0  0  0  0  0
  -25.1289  -36.1998   25.0848 H   0  0  0  0  0  0
  -20.9869  -28.3276   24.1466 H   0  0  0  0  0  0
  -20.5736  -26.2301   23.3599 H   0  0  0  0  0  0
  -21.6655  -26.7535   22.1175 H   0  0  0  0  0  0
  -19.6969  -25.6315   21.1224 H   0  0  0  0  0  0
  -19.6700  -27.3232   20.6744 H   0  0  0  0  0  0
  -17.4198  -26.6632   21.4000 H   0  0  0  0  0  0
  -18.0316  -26.0039   22.9005 H   0  0  0  0  0  0
  -19.7960  -30.7177   24.2326 H   0  0  0  0  0  0
  -17.5060  -31.6284   24.5133 H   0  0  0  0  0  0
  -15.5368  -30.3003   23.7658 H   0  0  0  0  0  0
  -15.8643  -28.0846   22.7062 H   0  0  0  0  0  0
  -24.5950  -30.6987   25.7677 H   0  0  0  0  0  0
  -24.8915  -32.2782   26.4869 H   0  0  0  0  0  0
  -25.8066  -30.8763   27.0167 H   0  0  0  0  0  0
  -26.2905  -29.6722   24.1187 H   0  0  0  0  0  0
  -27.4235  -29.7307   25.4487 H   0  0  0  0  0  0
  -27.8685  -30.4348   23.9132 H   0  0  0  0  0  0
  -27.2728  -33.3582   26.2037 H   0  0  0  0  0  0
  -28.3877  -32.6822   25.0273 H   0  0  0  0  0  0
  -28.0763  -31.8398   26.5361 H   0  0  0  0  0  0
  -28.2589  -38.0115   24.7527 H   0  0  0  0  0  0
  -28.1097  -36.2647   24.6296 H   0  0  0  0  0  0
  -27.2292  -37.1441   25.8865 H   0  0  0  0  0  0
  -20.9357  -29.8720   21.6917 H   0  0  0  0  0  0
  -26.0222  -38.2870   24.1399 H   0  0  0  0  0  0
  -32.0203  -19.2590   22.6448 H   0  0  0  0  0  0
  -32.0146  -16.8465   22.1505 H   0  0  0  0  0  0
  -28.1147  -19.6507   20.8398 H   0  0  0  0  0  0
  -35.0814  -22.3046   21.6497 H   0  0  0  0  0  0
  -34.3544  -22.8430   20.1405 H   0  0  0  0  0  0
  -34.3882  -21.1264   20.5450 H   0  0  0  0  0  0
  -30.5693  -21.1513   23.2143 H   0  0  0  0  0  0
  -28.9495  -21.2673   22.6648 H   0  0  0  0  0  0
  -32.8536  -23.2299   22.1530 H   0  0  0  0  0  0
  -32.8705  -21.5191   22.4765 H   0  0  0  0  0  0
  -30.3808  -24.7423   20.0326 H   0  0  0  0  0  0
  -29.6577  -24.8358   21.6124 H   0  0  0  0  0  0
  -31.7282  -21.0975   20.2341 H   0  0  0  0  0  0
  -31.7744  -22.8068   19.9297 H   0  0  0  0  0  0
  -29.3083  -22.5009   19.6298 H   0  0  0  0  0  0
  -28.3589  -22.6903   21.0772 H   0  0  0  0  0  0
  -27.3825  -24.8879   20.5555 H   0  0  0  0  0  0
  -28.1320  -24.9663   18.9672 H   0  0  0  0  0  0
  -28.9385  -15.1261   21.3098 H   0  0  0  0  0  0
  -30.6062  -22.9541   22.1370 H   0  0  0  0  0  0
  1 25  1  0  0  0
  1 30  2  0  0  0
  1 84  1  0  0  0
  2  3  1  0  0  0
  2 25  1  0  0  0
  2 87  1  0  0  0
  2 88  1  0  0  0
  3  4  1  0  0  0
  3 89  1  0  0  0
  3 90  1  0  0  0
  4  5  1  0  0  0
  4 91  1  0  0  0
  4 92  1  0  0  0
  5  6  1  0  0  0
  5 26  1  0  0  0
  5 93  1  0  0  0
  6 25  1  0  0  0
  6 94  1  0  0  0
  6 95  1  0  0  0
  7  8  2  0  0  0
  7 26  1  0  0  0
  7 29  1  0  0  0
  8  9  1  0  0  0
  8 22  1  0  0  0
  9 10  1  0  0  0
  9 27  2  0  0  0
 10 11  2  0  0  0
 10 15  1  0  0  0
 11 12  1  0  0  0
 11 96  1  0  0  0
 12 13  2  0  0  0
 12 97  1  0  0  0
 13 14  1  0  0  0
 13 31  1  0  0  0
 14 15  2  0  0  0
 14 98  1  0  0  0
 15 99  1  0  0  0
 16 17  2  0  0  0
 16 21  1  0  0  0
 16 31  1  0  0  0
 17 18  1  0  0  0
 17100  1  0  0  0
 18 19  2  0  0  0
 18101  1  0  0  0
 19 20  1  0  0  0
 19 24  1  0  0  0
 20 21  2  0  0  0
 20102  1  0  0  0
 21 23  1  0  0  0
 22 28  1  0  0  0
 22 32  2  0  0  0
 26 27  1  0  0  0
 28103  1  0  0  0
 28104  1  0  0  0
 29105  1  0  0  0
 29106  1  0  0  0
 33 34  1  0  0  0
 33 66  1  0  0  0
 33 70  2  0  0  0
 34 36  1  0  0  0
 34 59  1  0  0  0
 34107  1  0  0  0
 35 44  2  0  0  0
 35 45  1  0  0  0
 35 68  1  0  0  0
 36 56  1  0  0  0
 36108  1  0  0  0
 37 39  1  0  0  0
 37 47  1  0  0  0
 37 66  1  0  0  0
 37109  1  0  0  0
 38 43  2  0  0  0
 38 46  1  0  0  0
 38 47  1  0  0  0
 39 64  1  0  0  0
 39 67  2  0  0  0
 40 52  1  0  0  0
 40 53  2  0  0  0
 40 58  1  0  0  0
 41110  1  0  0  0
 41111  1  0  0  0
 41112  1  0  0  0
 41 48  1  0  0  0
 42 43  1  0  0  0
 42 66  1  0  0  0
 42113  1  0  0  0
 42114  1  0  0  0
 43 44  1  0  0  0
 44115  1  0  0  0
 45 46  2  0  0  0
 45116  1  0  0  0
 46117  1  0  0  0
 47118  1  0  0  0
 47119  1  0  0  0
 48 56  1  0  0  0
 48 65  1  0  0  0
 48120  1  0  0  0
 49 50  1  0  0  0
 49 53  1  0  0  0
 49 64  1  0  0  0
 49121  1  0  0  0
 50 51  1  0  0  0
 50122  1  0  0  0
 50123  1  0  0  0
 51 52  1  0  0  0
 51124  1  0  0  0
 51125  1  0  0  0
 52126  1  0  0  0
 52127  1  0  0  0
 53 54  1  0  0  0
 54 55  2  0  0  0
 54128  1  0  0  0
 55 57  1  0  0  0
 55129  1  0  0  0
 56 69  2  0  0  0
 57 58  2  0  0  0
 57130  1  0  0  0
 58131  1  0  0  0
 59 60  1  0  0  0
 59 61  1  0  0  0
 59 62  1  0  0  0
 60132  1  0  0  0
 60133  1  0  0  0
 60134  1  0  0  0
 61135  1  0  0  0
 61136  1  0  0  0
 61137  1  0  0  0
 62138  1  0  0  0
 62139  1  0  0  0
 62140  1  0  0  0
 63 65  1  0  0  0
 63141  1  0  0  0
 63142  1  0  0  0
 63143  1  0  0  0
 64144  1  0  0  0
 65145  1  0  0  0
 68 83  1  0  0  0
 71 72  2  0  0  0
 71 74  1  0  0  0
 71146  1  0  0  0
 72 75  1  0  0  0
 72147  1  0  0  0
 73 74  2  0  0  0
 73 76  1  0  0  0
 73148  1  0  0  0
 74 78  1  0  0  0
 75 76  2  0  0  0
 75 84  1  0  0  0
 76 86  1  0  0  0
 77 79  1  0  0  0
 77149  1  0  0  0
 77150  1  0  0  0
 77151  1  0  0  0
 78152  1  0  0  0
 78153  1  0  0  0
 78 85  1  0  0  0
 79 81  1  0  0  0
 79154  1  0  0  0
 79155  1  0  0  0
 80 82  1  0  0  0
 80 83  1  0  0  0
 80156  1  0  0  0
 80157  1  0  0  0
 81 85  1  0  0  0
 81158  1  0  0  0
 81159  1  0  0  0
 82 85  1  0  0  0
 82160  1  0  0  0
 82161  1  0  0  0
 83162  1  0  0  0
 83163  1  0  0  0
 84164  1  0  0  0
 85165  1  0  0  0
M  CHG  1  85   1
M  ISO  4   1 100  68 101  83 101  84 100
M  END
> <chiral flag>
0

> <version>
0

> <s_m_source_file>
/data/baiqing/PycharmProjects/Reinvent-master-3.2/result/LINK_invent/BTK/process_docking_weight1_custom_product_contain_oxygen_bond_distance_aromatic_linkinvent_7_9_3/rearranged_h_0019.sdf

> <i_m_source_file_index>
63

> <r_mmod_Potential_Energy-OPLS-2005>
-172.941482543945

> <r_mmod_Stretch_Energy-OPLS-2005>
42.0643997192383

> <r_mmod_Bend_Energy-OPLS-2005>
114.533020019531

> <r_mmod_Torsional_Energy-OPLS-2005>
233.553649902344

> <r_mmod_Improper_Torsional_Energy-OPLS-2005>
5.59768486022949

> <r_mmod_Van_der_Waal_Energy-OPLS-2005>
146.465850830078

> <r_mmod_Electrostatic_Energy-OPLS-2005>
-286.499359130859

> <r_mmod_Solvation_Energy-OPLS-2005>
-444.725311279297

> <b_mmod_Minimization_Converged-OPLS-2005>
0

> <r_mmod_RMS_Derivative-OPLS-2005>
3.49852395057678

$$$$
63
                    3D
 Structure written by MMmdl.
156165  0  0  1  0            999 V2000
  -30.5245  -14.9062   20.4387 C   0  0  0  0  0  0
  -30.4552  -12.5559   19.4941 C   0  0  0  0  0  0
  -29.5289  -12.5316   18.2540 C   0  0  0  0  0  0
  -28.0574  -12.3263   18.6661 C   0  0  0  0  0  0
  -27.6401  -13.2414   19.8473 C   0  0  2  0  0  0
  -28.6853  -13.2162   20.9840 C   0  0  0  0  0  0
  -25.2482  -13.8176   20.5701 C   0  0  0  0  0  0
  -24.1785  -13.0402   20.9180 C   0  0  0  0  0  0
  -24.6402  -11.6893   20.8713 C   0  0  0  0  0  0
  -23.9084  -10.4270   21.0387 C   0  0  0  0  0  0
  -24.3628   -9.4188   21.9175 C   0  0  0  0  0  0
  -23.6294   -8.2230   22.0751 C   0  0  0  0  0  0
  -22.4276   -8.0274   21.3541 C   0  0  0  0  0  0
  -21.9913   -9.0248   20.4642 C   0  0  0  0  0  0
  -22.7252  -10.2118   20.3040 C   0  0  0  0  0  0
  -21.6853   -6.0723   22.5282 C   0  0  0  0  0  0
  -21.4014   -6.5627   23.8215 C   0  0  0  0  0  0
  -21.3662   -5.6782   24.9176 C   0  0  0  0  0  0
  -21.6054   -4.3046   24.7230 C   0  0  0  0  0  0
  -21.8819   -3.8135   23.4351 C   0  0  0  0  0  0
  -21.9187   -4.6948   22.3404 C   0  0  0  0  0  0
  -22.7807  -13.5185   21.1848 C   0  0  0  0  0  0
  -22.1663   -4.2130   21.0981 F   0  0  0  0  0  0
  -21.5625   -3.4533   25.7746 F   0  0  0  0  0  0
  -29.9723  -13.6292   20.4040 N   0  0  0  0  0  0
  -26.2940  -12.9416   20.3276 N   0  0  0  0  0  0
  -25.9349  -11.6541   20.5732 N   0  0  0  0  0  0
  -22.0457  -12.8192   22.0422 N   0  0  0  0  0  0
  -25.4083  -15.1911   20.4200 N   0  0  0  0  0  0
  -31.7121  -15.0399   20.1223 O   0  0  0  0  0  0
  -21.6637   -6.8871   21.4248 O   0  0  0  0  0  0
  -22.3485  -14.5484   20.6690 O   0  0  0  0  0  0
  -24.6420  -31.8467   23.1889 C   0  0  0  0  0  0
  -25.9201  -32.4711   23.8283 C   0  0  1  0  0  0
  -27.2252  -27.1589   20.1449 C   0  0  0  0  0  0
  -25.5952  -33.8514   24.2206 N   0  0  0  0  0  0
  -23.4443  -30.4657   21.5359 C   0  0  2  0  0  0
  -24.8942  -28.8964   20.1137 C   0  0  0  0  0  0
  -22.7566  -29.4557   22.4877 C   0  0  0  0  0  0
  -18.0302  -28.1402   22.8478 C   0  0  0  0  0  0
  -24.1494  -36.7260   23.2639 C   0  0  0  0  0  0
  -25.9996  -30.7284   21.3837 C   0  0  0  0  0  0
  -26.0727  -29.3411   20.7264 C   0  0  0  0  0  0
  -27.2395  -28.4897   20.7230 C   0  0  0  0  0  0
  -26.0168  -26.8115   19.4986 C   0  0  0  0  0  0
  -24.8787  -27.6437   19.4851 C   0  0  0  0  0  0
  -23.6690  -29.7949   20.1553 C   0  0  0  0  0  0
  -25.4126  -36.3041   24.0316 C   0  0  1  0  0  0
  -20.5919  -28.3723   23.1251 C   0  0  2  0  0  0
  -20.6796  -26.9429   22.5409 C   0  0  0  0  0  0
  -19.5765  -26.6388   21.5222 C   0  0  0  0  0  0
  -18.1944  -26.7938   22.1626 C   0  0  0  0  0  0
  -19.1561  -28.8884   23.2856 C   0  0  0  0  0  0
  -18.9472  -30.1478   23.8880 C   0  0  0  0  0  0
  -17.6469  -30.6599   24.0563 C   0  0  0  0  0  0
  -25.9075  -34.9415   23.5076 C   0  0  0  0  0  0
  -16.5358  -29.9092   23.6334 C   0  0  0  0  0  0
  -16.7286  -28.6512   23.0354 C   0  0  0  0  0  0
  -26.4518  -31.6560   25.0710 C   0  0  0  0  0  0
  -25.3700  -31.3757   26.1403 C   0  0  0  0  0  0
  -27.0366  -30.2953   24.6269 C   0  0  0  0  0  0
  -27.6061  -32.4305   25.7496 C   0  0  0  0  0  0
  -27.5583  -37.1786   24.8466 C   0  0  0  0  0  0
  -21.4258  -29.3048   22.3625 N   0  0  0  0  0  0
  -26.4295  -37.3751   23.9406 N   0  0  0  0  0  0
  -24.7156  -31.0342   22.0914 N   0  0  0  0  0  0
  -23.4212  -28.8108   23.3027 O   0  0  0  0  0  0
  -28.2954  -26.1957   20.1896 O   0  0  0  0  0  0
  -26.5664  -34.8907   22.4652 O   0  0  0  0  0  0
  -23.5548  -32.1335   23.7119 O   0  0  0  0  0  0
  -30.2742  -19.9686   20.2523 C   0  0  0  0  0  0
  -30.5500  -18.5255   20.2521 C   0  0  0  0  0  0
  -28.0535  -19.5295   20.8962 C   0  0  0  0  0  0
  -29.0008  -20.5592   20.5894 C   0  0  0  0  0  0
  -29.5769  -17.5156   20.5900 C   0  0  0  0  0  0
  -28.3167  -18.1119   20.8990 C   0  0  0  0  0  0
  -29.5485  -23.1692   22.6434 C   0  0  0  0  0  0
  -30.1504  -23.7066   21.3417 C   0  0  0  0  0  0
  -28.4173  -22.2227   22.2055 C   0  0  0  0  0  0
  -29.0895  -23.3817   20.2953 C   0  0  2  0  0  0
  -28.0053  -24.6723   20.2267 C   0  0  0  0  0  0
  -28.6015  -21.9869   20.7721 N   0  0  0  0  0  0
  -29.6524  -15.9903   20.6707 N   0  0  0  0  0  0
  -27.3022  -17.2780   21.2291 F   0  0  0  0  0  0
  -31.4890  -12.7201   19.1854 H   0  0  0  0  0  0
  -30.4478  -11.5908   20.0031 H   0  0  0  0  0  0
  -29.8403  -11.7435   17.5673 H   0  0  0  0  0  0
  -29.6291  -13.4693   17.7049 H   0  0  0  0  0  0
  -27.9401  -11.2819   18.9560 H   0  0  0  0  0  0
  -27.3999  -12.4810   17.8106 H   0  0  0  0  0  0
  -27.6166  -14.2549   19.4443 H   0  0  0  0  0  0
  -28.7579  -12.2203   21.4236 H   0  0  0  0  0  0
  -28.3904  -13.8847   21.7943 H   0  0  0  0  0  0
  -25.2768   -9.5666   22.4752 H   0  0  0  0  0  0
  -23.9993   -7.4625   22.7480 H   0  0  0  0  0  0
  -21.0830   -8.8775   19.8958 H   0  0  0  0  0  0
  -22.3714  -10.9654   19.6144 H   0  0  0  0  0  0
  -21.2014   -7.6133   23.9718 H   0  0  0  0  0  0
  -21.1487   -6.0506   25.9079 H   0  0  0  0  0  0
  -22.0594   -2.7593   23.2857 H   0  0  0  0  0  0
  -22.4064  -11.9871   22.4847 H   0  0  0  0  0  0
  -21.1076  -13.1224   22.2614 H   0  0  0  0  0  0
  -24.6438  -15.8343   20.5889 H   0  0  0  0  0  0
  -26.2803  -15.6708   20.2354 H   0  0  0  0  0  0
  -26.7264  -32.5327   23.1012 H   0  0  0  0  0  0
  -25.0049  -33.9632   25.0320 H   0  0  0  0  0  0
  -22.7464  -31.2912   21.3838 H   0  0  0  0  0  0
  -23.3762  -35.9587   23.3291 H   0  0  0  0  0  0
  -24.3576  -36.8898   22.2054 H   0  0  0  0  0  0
  -23.7241  -37.6450   23.6683 H   0  0  0  0  0  0
  -26.1536  -31.4845   20.6122 H   0  0  0  0  0  0
  -26.8705  -30.7785   22.0258 H   0  0  0  0  0  0
  -28.1398  -28.8306   21.2144 H   0  0  0  0  0  0
  -25.9143  -25.8622   18.9973 H   0  0  0  0  0  0
  -23.9805  -27.2990   18.9913 H   0  0  0  0  0  0
  -23.8018  -30.5700   19.3995 H   0  0  0  0  0  0
  -22.7843  -29.2352   19.8463 H   0  0  0  0  0  0
  -25.1315  -36.1873   25.0810 H   0  0  0  0  0  0
  -21.0010  -28.3313   24.1373 H   0  0  0  0  0  0
  -20.5719  -26.2330   23.3620 H   0  0  0  0  0  0
  -21.6657  -26.7457   22.1190 H   0  0  0  0  0  0
  -19.6926  -25.6299   21.1259 H   0  0  0  0  0  0
  -19.6701  -27.3196   20.6751 H   0  0  0  0  0  0
  -17.4215  -26.6682   21.4029 H   0  0  0  0  0  0
  -18.0337  -26.0093   22.9035 H   0  0  0  0  0  0
  -19.7945  -30.7301   24.2238 H   0  0  0  0  0  0
  -17.5019  -31.6275   24.5174 H   0  0  0  0  0  0
  -15.5358  -30.2990   23.7673 H   0  0  0  0  0  0
  -15.8684  -28.0830   22.7078 H   0  0  0  0  0  0
  -24.5878  -30.7111   25.7720 H   0  0  0  0  0  0
  -24.8886  -32.2942   26.4776 H   0  0  0  0  0  0
  -25.7972  -30.8957   27.0216 H   0  0  0  0  0  0
  -26.2974  -29.6688   24.1263 H   0  0  0  0  0  0
  -27.3968  -29.7244   25.4839 H   0  0  0  0  0  0
  -27.8895  -30.4192   23.9590 H   0  0  0  0  0  0
  -27.2670  -33.3622   26.2041 H   0  0  0  0  0  0
  -28.3895  -32.6830   25.0338 H   0  0  0  0  0  0
  -28.0702  -31.8439   26.5436 H   0  0  0  0  0  0
  -28.2593  -38.0092   24.7515 H   0  0  0  0  0  0
  -28.1083  -36.2617   24.6292 H   0  0  0  0  0  0
  -27.2295  -37.1438   25.8867 H   0  0  0  0  0  0
  -20.9476  -29.8738   21.6779 H   0  0  0  0  0  0
  -26.0161  -38.2821   24.1402 H   0  0  0  0  0  0
  -31.0926  -20.6354   20.0184 H   0  0  0  0  0  0
  -31.5490  -18.2015   19.9970 H   0  0  0  0  0  0
  -27.0557  -19.8328   21.1750 H   0  0  0  0  0  0
  -29.1556  -23.9749   23.2655 H   0  0  0  0  0  0
  -30.3084  -22.6459   23.2264 H   0  0  0  0  0  0
  -31.0695  -23.1659   21.1109 H   0  0  0  0  0  0
  -30.3995  -24.7672   21.3882 H   0  0  0  0  0  0
  -27.4426  -22.6858   22.3689 H   0  0  0  0  0  0
  -28.4303  -21.3161   22.8132 H   0  0  0  0  0  0
  -29.5695  -23.2849   19.3201 H   0  0  0  0  0  0
  -27.3272  -24.5614   21.0724 H   0  0  0  0  0  0
  -27.3984  -24.4423   19.3538 H   0  0  0  0  0  0
  -28.7488  -15.6240   20.9289 H   0  0  0  0  0  0
  1 25  1  0  0  0
  1 30  2  0  0  0
  1 83  1  0  0  0
  2  3  1  0  0  0
  2 25  1  0  0  0
  2 85  1  0  0  0
  2 86  1  0  0  0
  3  4  1  0  0  0
  3 87  1  0  0  0
  3 88  1  0  0  0
  4  5  1  0  0  0
  4 89  1  0  0  0
  4 90  1  0  0  0
  5  6  1  0  0  0
  5 26  1  0  0  0
  5 91  1  0  0  0
  6 25  1  0  0  0
  6 92  1  0  0  0
  6 93  1  0  0  0
  7  8  2  0  0  0
  7 26  1  0  0  0
  7 29  1  0  0  0
  8  9  1  0  0  0
  8 22  1  0  0  0
  9 10  1  0  0  0
  9 27  2  0  0  0
 10 11  2  0  0  0
 10 15  1  0  0  0
 11 12  1  0  0  0
 11 94  1  0  0  0
 12 13  2  0  0  0
 12 95  1  0  0  0
 13 14  1  0  0  0
 13 31  1  0  0  0
 14 15  2  0  0  0
 14 96  1  0  0  0
 15 97  1  0  0  0
 16 17  2  0  0  0
 16 21  1  0  0  0
 16 31  1  0  0  0
 17 18  1  0  0  0
 17 98  1  0  0  0
 18 19  2  0  0  0
 18 99  1  0  0  0
 19 20  1  0  0  0
 19 24  1  0  0  0
 20 21  2  0  0  0
 20100  1  0  0  0
 21 23  1  0  0  0
 22 28  1  0  0  0
 22 32  2  0  0  0
 26 27  1  0  0  0
 28101  1  0  0  0
 28102  1  0  0  0
 29103  1  0  0  0
 29104  1  0  0  0
 33 34  1  0  0  0
 33 66  1  0  0  0
 33 70  2  0  0  0
 34 36  1  0  0  0
 34 59  1  0  0  0
 34105  1  0  0  0
 35 44  2  0  0  0
 35 45  1  0  0  0
 35 68  1  0  0  0
 36 56  1  0  0  0
 36106  1  0  0  0
 37 39  1  0  0  0
 37 47  1  0  0  0
 37 66  1  0  0  0
 37107  1  0  0  0
 38 43  2  0  0  0
 38 46  1  0  0  0
 38 47  1  0  0  0
 39 64  1  0  0  0
 39 67  2  0  0  0
 40 52  1  0  0  0
 40 53  2  0  0  0
 40 58  1  0  0  0
 41108  1  0  0  0
 41109  1  0  0  0
 41110  1  0  0  0
 41 48  1  0  0  0
 42 43  1  0  0  0
 42 66  1  0  0  0
 42111  1  0  0  0
 42112  1  0  0  0
 43 44  1  0  0  0
 44113  1  0  0  0
 45 46  2  0  0  0
 45114  1  0  0  0
 46115  1  0  0  0
 47116  1  0  0  0
 47117  1  0  0  0
 48 56  1  0  0  0
 48 65  1  0  0  0
 48118  1  0  0  0
 49 50  1  0  0  0
 49 53  1  0  0  0
 49 64  1  0  0  0
 49119  1  0  0  0
 50 51  1  0  0  0
 50120  1  0  0  0
 50121  1  0  0  0
 51 52  1  0  0  0
 51122  1  0  0  0
 51123  1  0  0  0
 52124  1  0  0  0
 52125  1  0  0  0
 53 54  1  0  0  0
 54 55  2  0  0  0
 54126  1  0  0  0
 55 57  1  0  0  0
 55127  1  0  0  0
 56 69  2  0  0  0
 57 58  2  0  0  0
 57128  1  0  0  0
 58129  1  0  0  0
 59 60  1  0  0  0
 59 61  1  0  0  0
 59 62  1  0  0  0
 60130  1  0  0  0
 60131  1  0  0  0
 60132  1  0  0  0
 61133  1  0  0  0
 61134  1  0  0  0
 61135  1  0  0  0
 62136  1  0  0  0
 62137  1  0  0  0
 62138  1  0  0  0
 63 65  1  0  0  0
 63139  1  0  0  0
 63140  1  0  0  0
 63141  1  0  0  0
 64142  1  0  0  0
 65143  1  0  0  0
 68 81  1  0  0  0
 71 72  2  0  0  0
 71 74  1  0  0  0
 71144  1  0  0  0
 72 75  1  0  0  0
 72145  1  0  0  0
 73 74  2  0  0  0
 73 76  1  0  0  0
 73146  1  0  0  0
 74 82  1  0  0  0
 75 76  2  0  0  0
 75 83  1  0  0  0
 76 84  1  0  0  0
 77 78  1  0  0  0
 77 79  1  0  0  0
 77147  1  0  0  0
 77148  1  0  0  0
 78 80  1  0  0  0
 78149  1  0  0  0
 78150  1  0  0  0
 79 82  1  0  0  0
 79151  1  0  0  0
 79152  1  0  0  0
 80 81  1  0  0  0
 80 82  1  0  0  0
 80153  1  0  0  0
 81154  1  0  0  0
 81155  1  0  0  0
 83156  1  0  0  0
M  ISO  4   1 100  68 101  81 101  83 100
M  END
> <chiral flag>
0

> <version>
0

> <s_m_source_file>
/data/baiqing/PycharmProjects/Reinvent-master-3.2/result/LINK_invent/BTK/process_docking_weight1_custom_product_contain_oxygen_bond_distance_aromatic_linkinvent_7_9_3/rearranged_h_0019.sdf

> <i_m_source_file_index>
64

> <r_mmod_Potential_Energy-OPLS-2005>
509.684173583984

> <r_mmod_Stretch_Energy-OPLS-2005>
211.421813964844

> <r_mmod_Bend_Energy-OPLS-2005>
325.570037841797

> <r_mmod_Torsional_Energy-OPLS-2005>
289.885955810547

> <r_mmod_Improper_Torsional_Energy-OPLS-2005>
8.84271812438965

> <r_mmod_Van_der_Waal_Energy-OPLS-2005>
132.407669067383

> <r_mmod_Electrostatic_Energy-OPLS-2005>
-410.414001464844

> <r_mmod_Solvation_Energy-OPLS-2005>
-213.918563842773

> <b_mmod_Minimization_Converged-OPLS-2005>
0

> <r_mmod_RMS_Derivative-OPLS-2005>
1.52198851108551

$$$$
64
                    3D
 Structure written by MMmdl.
159168  0  0  1  0            999 V2000
  -30.5738  -14.6594   20.5190 C   0  0  0  0  0  0
  -30.4522  -12.4080   19.4500 C   0  0  0  0  0  0
  -29.5135  -12.5126   18.2246 C   0  0  0  0  0  0
  -28.0354  -12.3442   18.6339 C   0  0  0  0  0  0
  -27.6563  -13.2076   19.8659 C   0  0  2  0  0  0
  -28.6994  -13.0338   20.9931 C   0  0  0  0  0  0
  -25.2588  -13.8152   20.5662 C   0  0  0  0  0  0
  -24.1846  -13.0435   20.9187 C   0  0  0  0  0  0
  -24.6397  -11.6899   20.8743 C   0  0  0  0  0  0
  -23.9061  -10.4290   21.0411 C   0  0  0  0  0  0
  -24.3616   -9.4202   21.9188 C   0  0  0  0  0  0
  -23.6285   -8.2237   22.0754 C   0  0  0  0  0  0
  -22.4268   -8.0279   21.3540 C   0  0  0  0  0  0
  -21.9907   -9.0256   20.4648 C   0  0  0  0  0  0
  -22.7235  -10.2136   20.3058 C   0  0  0  0  0  0
  -21.6852   -6.0735   22.5279 C   0  0  0  0  0  0
  -21.4014   -6.5640   23.8214 C   0  0  0  0  0  0
  -21.3658   -5.6793   24.9175 C   0  0  0  0  0  0
  -21.6037   -4.3054   24.7225 C   0  0  0  0  0  0
  -21.8822   -3.8144   23.4348 C   0  0  0  0  0  0
  -21.9190   -4.6960   22.3404 C   0  0  0  0  0  0
  -22.7871  -13.5237   21.1845 C   0  0  0  0  0  0
  -22.1661   -4.2145   21.0984 F   0  0  0  0  0  0
  -21.5623   -3.4539   25.7736 F   0  0  0  0  0  0
  -30.0144  -13.4093   20.4429 N   0  0  0  0  0  0
  -26.2999  -12.9309   20.3303 N   0  0  0  0  0  0
  -25.9325  -11.6477   20.5760 N   0  0  0  0  0  0
  -22.0514  -12.8233   22.0409 N   0  0  0  0  0  0
  -25.4312  -15.1872   20.4049 N   0  0  0  0  0  0
  -31.7150  -14.8857   20.0993 O   0  0  0  0  0  0
  -21.6633   -6.8876   21.4240 O   0  0  0  0  0  0
  -22.3557  -14.5539   20.6686 O   0  0  0  0  0  0
  -24.6253  -31.8588   23.2003 C   0  0  0  0  0  0
  -25.9097  -32.4772   23.8342 C   0  0  1  0  0  0
  -27.2313  -27.3238   20.1293 C   0  0  0  0  0  0
  -25.5914  -33.8571   24.2271 N   0  0  0  0  0  0
  -23.4196  -30.4790   21.5422 C   0  0  2  0  0  0
  -24.8680  -28.9250   20.1170 C   0  0  0  0  0  0
  -22.7470  -29.4614   22.4935 C   0  0  0  0  0  0
  -18.0289  -28.1383   22.8487 C   0  0  0  0  0  0
  -24.1489  -36.7294   23.2642 C   0  0  0  0  0  0
  -25.9576  -30.7929   21.3669 C   0  0  0  0  0  0
  -26.0347  -29.4166   20.7163 C   0  0  0  0  0  0
  -27.2223  -28.6295   20.7066 C   0  0  0  0  0  0
  -26.0436  -26.8695   19.5212 C   0  0  0  0  0  0
  -24.8733  -27.6562   19.5107 C   0  0  0  0  0  0
  -23.6353  -29.8058   20.1600 C   0  0  0  0  0  0
  -25.4115  -36.3078   24.0330 C   0  0  1  0  0  0
  -20.5886  -28.3684   23.1289 C   0  0  2  0  0  0
  -20.6770  -26.9407   22.5413 C   0  0  0  0  0  0
  -19.5747  -26.6384   21.5211 C   0  0  0  0  0  0
  -18.1931  -26.7926   22.1628 C   0  0  0  0  0  0
  -19.1539  -28.8851   23.2885 C   0  0  0  0  0  0
  -18.9461  -30.1452   23.8902 C   0  0  0  0  0  0
  -17.6460  -30.6584   24.0564 C   0  0  0  0  0  0
  -25.9048  -34.9448   23.5102 C   0  0  0  0  0  0
  -16.5353  -29.9084   23.6325 C   0  0  0  0  0  0
  -16.7276  -28.6502   23.0348 C   0  0  0  0  0  0
  -26.4487  -31.6583   25.0711 C   0  0  0  0  0  0
  -25.3728  -31.3721   26.1444 C   0  0  0  0  0  0
  -27.0324  -30.3011   24.6145 C   0  0  0  0  0  0
  -27.6052  -32.4312   25.7476 C   0  0  0  0  0  0
  -27.5575  -37.1808   24.8471 C   0  0  0  0  0  0
  -21.4184  -29.3038   22.3681 N   0  0  0  0  0  0
  -26.4295  -37.3768   23.9402 N   0  0  0  0  0  0
  -24.6864  -31.0606   22.0941 N   0  0  0  0  0  0
  -23.4194  -28.8165   23.3027 O   0  0  0  0  0  0
  -28.3663  -26.5074   20.1154 O   0  0  0  0  0  0
  -26.5617  -34.8916   22.4669 O   0  0  0  0  0  0
  -23.5418  -32.1376   23.7339 O   0  0  0  0  0  0
  -28.3265  -17.6076   21.2964 C   0  0  0  0  0  0
  -30.4631  -18.0382   20.3141 C   0  0  0  0  0  0
  -27.9896  -18.9876   21.2282 C   0  0  0  0  0  0
  -28.8876  -19.9778   20.7090 C   0  0  0  0  0  0
  -29.5557  -17.0779   20.8444 C   0  0  0  0  0  0
  -30.1429  -19.4417   20.2518 C   0  0  0  0  0  0
  -26.6137  -19.3592   21.7637 C   0  0  0  0  0  0
  -26.2077  -20.7901   21.4310 C   0  0  0  0  0  0
  -27.4022  -21.7173   21.6135 C   0  0  0  0  0  0
  -28.5961  -23.8896   19.7087 C   0  0  0  0  0  0
  -29.3137  -22.5527   20.2532 C   0  0  0  0  0  0
  -28.2799  -25.1315   20.6573 C   0  0  0  0  0  0
  -28.4813  -21.3832   20.6834 N   0  0  0  0  0  0
  -29.7233  -15.6266   20.9904 N   0  0  0  0  0  0
  -31.0853  -20.2732   19.7442 F   0  0  0  0  0  0
  -31.4888  -12.5631   19.1465 H   0  0  0  0  0  0
  -30.4138  -11.4076   19.8833 H   0  0  0  0  0  0
  -29.7819  -11.7625   17.4793 H   0  0  0  0  0  0
  -29.6491  -13.4821   17.7428 H   0  0  0  0  0  0
  -27.8741  -11.2897   18.8615 H   0  0  0  0  0  0
  -27.3809  -12.5750   17.7924 H   0  0  0  0  0  0
  -27.6812  -14.2465   19.5365 H   0  0  0  0  0  0
  -28.7206  -11.9987   21.3357 H   0  0  0  0  0  0
  -28.4312  -13.6208   21.8731 H   0  0  0  0  0  0
  -25.2771   -9.5661   22.4756 H   0  0  0  0  0  0
  -23.9985   -7.4629   22.7480 H   0  0  0  0  0  0
  -21.0829   -8.8785   19.8964 H   0  0  0  0  0  0
  -22.3704  -10.9676   19.6161 H   0  0  0  0  0  0
  -21.2024   -7.6150   23.9715 H   0  0  0  0  0  0
  -21.1469   -6.0527   25.9076 H   0  0  0  0  0  0
  -22.0603   -2.7603   23.2855 H   0  0  0  0  0  0
  -22.4120  -11.9886   22.4783 H   0  0  0  0  0  0
  -21.1136  -13.1264   22.2624 H   0  0  0  0  0  0
  -24.6565  -15.8351   20.4971 H   0  0  0  0  0  0
  -26.2610  -15.6142   20.0142 H   0  0  0  0  0  0
  -26.7169  -32.5448   23.1099 H   0  0  0  0  0  0
  -25.0053  -33.9715   25.0410 H   0  0  0  0  0  0
  -22.7135  -31.2989   21.3951 H   0  0  0  0  0  0
  -23.3733  -35.9648   23.3331 H   0  0  0  0  0  0
  -24.3569  -36.8881   22.2049 H   0  0  0  0  0  0
  -23.7269  -37.6519   23.6640 H   0  0  0  0  0  0
  -26.0821  -31.5532   20.5946 H   0  0  0  0  0  0
  -26.8404  -30.8487   21.9919 H   0  0  0  0  0  0
  -28.1234  -29.0073   21.1694 H   0  0  0  0  0  0
  -26.0213  -25.8945   19.0540 H   0  0  0  0  0  0
  -23.9782  -27.2731   19.0404 H   0  0  0  0  0  0
  -23.7556  -30.5786   19.4000 H   0  0  0  0  0  0
  -22.7558  -29.2340   19.8584 H   0  0  0  0  0  0
  -25.1297  -36.1933   25.0823 H   0  0  0  0  0  0
  -20.9984  -28.3256   24.1408 H   0  0  0  0  0  0
  -20.5665  -26.2293   23.3610 H   0  0  0  0  0  0
  -21.6638  -26.7429   22.1207 H   0  0  0  0  0  0
  -19.6906  -25.6297   21.1233 H   0  0  0  0  0  0
  -19.6687  -27.3198   20.6745 H   0  0  0  0  0  0
  -17.4196  -26.6672   21.4036 H   0  0  0  0  0  0
  -18.0340  -26.0070   22.9030 H   0  0  0  0  0  0
  -19.7936  -30.7266   24.2279 H   0  0  0  0  0  0
  -17.5013  -31.6264   24.5169 H   0  0  0  0  0  0
  -15.5352  -30.2989   23.7645 H   0  0  0  0  0  0
  -15.8678  -28.0826   22.7056 H   0  0  0  0  0  0
  -24.5904  -30.7064   25.7779 H   0  0  0  0  0  0
  -24.8920  -32.2889   26.4868 H   0  0  0  0  0  0
  -25.8064  -30.8905   27.0219 H   0  0  0  0  0  0
  -26.2888  -29.6765   24.1180 H   0  0  0  0  0  0
  -27.4044  -29.7260   25.4635 H   0  0  0  0  0  0
  -27.8745  -30.4306   23.9342 H   0  0  0  0  0  0
  -27.2671  -33.3616   26.2051 H   0  0  0  0  0  0
  -28.3864  -32.6864   25.0304 H   0  0  0  0  0  0
  -28.0714  -31.8436   26.5395 H   0  0  0  0  0  0
  -28.2618  -38.0078   24.7464 H   0  0  0  0  0  0
  -28.1041  -36.2604   24.6361 H   0  0  0  0  0  0
  -27.2282  -37.1535   25.8874 H   0  0  0  0  0  0
  -20.9362  -29.8763   21.6892 H   0  0  0  0  0  0
  -26.0176  -38.2849   24.1374 H   0  0  0  0  0  0
  -27.5937  -16.9311   21.7155 H   0  0  0  0  0  0
  -31.4264  -17.7138   19.9506 H   0  0  0  0  0  0
  -26.6362  -19.2325   22.8466 H   0  0  0  0  0  0
  -25.8625  -18.6652   21.3840 H   0  0  0  0  0  0
  -25.3742  -21.0995   22.0628 H   0  0  0  0  0  0
  -25.8552  -20.8483   20.3999 H   0  0  0  0  0  0
  -27.7724  -21.6642   22.6394 H   0  0  0  0  0  0
  -27.0637  -22.7414   21.4674 H   0  0  0  0  0  0
  -27.7079  -23.6298   19.1316 H   0  0  0  0  0  0
  -29.2848  -24.2891   18.9644 H   0  0  0  0  0  0
  -30.0166  -22.8080   21.0480 H   0  0  0  0  0  0
  -29.9275  -22.2034   19.4241 H   0  0  0  0  0  0
  -29.0014  -25.1049   21.4740 H   0  0  0  0  0  0
  -27.3135  -24.9800   21.1398 H   0  0  0  0  0  0
  -28.9097  -15.1843   21.3894 H   0  0  0  0  0  0
  1 25  1  0  0  0
  1 30  2  0  0  0
  1 84  1  0  0  0
  2  3  1  0  0  0
  2 25  1  0  0  0
  2 86  1  0  0  0
  2 87  1  0  0  0
  3  4  1  0  0  0
  3 88  1  0  0  0
  3 89  1  0  0  0
  4  5  1  0  0  0
  4 90  1  0  0  0
  4 91  1  0  0  0
  5  6  1  0  0  0
  5 26  1  0  0  0
  5 92  1  0  0  0
  6 25  1  0  0  0
  6 93  1  0  0  0
  6 94  1  0  0  0
  7  8  2  0  0  0
  7 26  1  0  0  0
  7 29  1  0  0  0
  8  9  1  0  0  0
  8 22  1  0  0  0
  9 10  1  0  0  0
  9 27  2  0  0  0
 10 11  2  0  0  0
 10 15  1  0  0  0
 11 12  1  0  0  0
 11 95  1  0  0  0
 12 13  2  0  0  0
 12 96  1  0  0  0
 13 14  1  0  0  0
 13 31  1  0  0  0
 14 15  2  0  0  0
 14 97  1  0  0  0
 15 98  1  0  0  0
 16 17  2  0  0  0
 16 21  1  0  0  0
 16 31  1  0  0  0
 17 18  1  0  0  0
 17 99  1  0  0  0
 18 19  2  0  0  0
 18100  1  0  0  0
 19 20  1  0  0  0
 19 24  1  0  0  0
 20 21  2  0  0  0
 20101  1  0  0  0
 21 23  1  0  0  0
 22 28  1  0  0  0
 22 32  2  0  0  0
 26 27  1  0  0  0
 28102  1  0  0  0
 28103  1  0  0  0
 29104  1  0  0  0
 29105  1  0  0  0
 33 34  1  0  0  0
 33 66  1  0  0  0
 33 70  2  0  0  0
 34 36  1  0  0  0
 34 59  1  0  0  0
 34106  1  0  0  0
 35 44  2  0  0  0
 35 45  1  0  0  0
 35 68  1  0  0  0
 36 56  1  0  0  0
 36107  1  0  0  0
 37 39  1  0  0  0
 37 47  1  0  0  0
 37 66  1  0  0  0
 37108  1  0  0  0
 38 43  2  0  0  0
 38 46  1  0  0  0
 38 47  1  0  0  0
 39 64  1  0  0  0
 39 67  2  0  0  0
 40 52  1  0  0  0
 40 53  2  0  0  0
 40 58  1  0  0  0
 41109  1  0  0  0
 41110  1  0  0  0
 41111  1  0  0  0
 41 48  1  0  0  0
 42 43  1  0  0  0
 42 66  1  0  0  0
 42112  1  0  0  0
 42113  1  0  0  0
 43 44  1  0  0  0
 44114  1  0  0  0
 45 46  2  0  0  0
 45115  1  0  0  0
 46116  1  0  0  0
 47117  1  0  0  0
 47118  1  0  0  0
 48 56  1  0  0  0
 48 65  1  0  0  0
 48119  1  0  0  0
 49 50  1  0  0  0
 49 53  1  0  0  0
 49 64  1  0  0  0
 49120  1  0  0  0
 50 51  1  0  0  0
 50121  1  0  0  0
 50122  1  0  0  0
 51 52  1  0  0  0
 51123  1  0  0  0
 51124  1  0  0  0
 52125  1  0  0  0
 52126  1  0  0  0
 53 54  1  0  0  0
 54 55  2  0  0  0
 54127  1  0  0  0
 55 57  1  0  0  0
 55128  1  0  0  0
 56 69  2  0  0  0
 57 58  2  0  0  0
 57129  1  0  0  0
 58130  1  0  0  0
 59 60  1  0  0  0
 59 61  1  0  0  0
 59 62  1  0  0  0
 60131  1  0  0  0
 60132  1  0  0  0
 60133  1  0  0  0
 61134  1  0  0  0
 61135  1  0  0  0
 61136  1  0  0  0
 62137  1  0  0  0
 62138  1  0  0  0
 62139  1  0  0  0
 63 65  1  0  0  0
 63140  1  0  0  0
 63141  1  0  0  0
 63142  1  0  0  0
 64143  1  0  0  0
 65144  1  0  0  0
 68 82  1  0  0  0
 71 73  2  0  0  0
 71 75  1  0  0  0
 71145  1  0  0  0
 72 75  2  0  0  0
 72 76  1  0  0  0
 72146  1  0  0  0
 73 74  1  0  0  0
 73 77  1  0  0  0
 74 76  2  0  0  0
 74 83  1  0  0  0
 75 84  1  0  0  0
 76 85  1  0  0  0
 77 78  1  0  0  0
 77147  1  0  0  0
 77148  1  0  0  0
 78 79  1  0  0  0
 78149  1  0  0  0
 78150  1  0  0  0
 79 83  1  0  0  0
 79151  1  0  0  0
 79152  1  0  0  0
 80 81  1  0  0  0
 80 82  1  0  0  0
 80153  1  0  0  0
 80154  1  0  0  0
 81 83  1  0  0  0
 81155  1  0  0  0
 81156  1  0  0  0
 82157  1  0  0  0
 82158  1  0  0  0
 84159  1  0  0  0
M  ISO  4   1 100  68 101  82 101  84 100
M  END
> <chiral flag>
0

> <version>
0

> <s_m_source_file>
/data/baiqing/PycharmProjects/Reinvent-master-3.2/result/LINK_invent/BTK/process_docking_weight1_custom_product_contain_oxygen_bond_distance_aromatic_linkinvent_7_9_3/rearranged_h_0019.sdf

> <i_m_source_file_index>
65

> <r_mmod_Potential_Energy-OPLS-2005>
154.037582397461

> <r_mmod_Stretch_Energy-OPLS-2005>
90.66845703125

> <r_mmod_Bend_Energy-OPLS-2005>
184.595458984375

> <r_mmod_Torsional_Energy-OPLS-2005>
241.818313598633

> <r_mmod_Improper_Torsional_Energy-OPLS-2005>
5.22028160095215

> <r_mmod_Van_der_Waal_Energy-OPLS-2005>
145.453826904297

> <r_mmod_Electrostatic_Energy-OPLS-2005>
-343.052429199219

> <r_mmod_Solvation_Energy-OPLS-2005>
-220.559020996094

> <b_mmod_Minimization_Converged-OPLS-2005>
0

> <r_mmod_RMS_Derivative-OPLS-2005>
1.18613862991333

$$$$
65
                    3D
 Structure written by MMmdl.
169178  0  0  1  0            999 V2000
  -30.7582  -14.3779   20.6959 C   0  0  0  0  0  0
  -30.4207  -12.3053   19.3894 C   0  0  0  0  0  0
  -29.4835  -12.5398   18.1893 C   0  0  0  0  0  0
  -28.0070  -12.3881   18.6035 C   0  0  0  0  0  0
  -27.6686  -13.1917   19.8857 C   0  0  2  0  0  0
  -28.7107  -12.8960   20.9905 C   0  0  0  0  0  0
  -25.2625  -13.8133   20.5670 C   0  0  0  0  0  0
  -24.1857  -13.0431   20.9168 C   0  0  0  0  0  0
  -24.6389  -11.6890   20.8731 C   0  0  0  0  0  0
  -23.9046  -10.4286   21.0402 C   0  0  0  0  0  0
  -24.3602   -9.4207   21.9186 C   0  0  0  0  0  0
  -23.6285   -8.2241   22.0754 C   0  0  0  0  0  0
  -22.4271   -8.0274   21.3541 C   0  0  0  0  0  0
  -21.9903   -9.0242   20.4639 C   0  0  0  0  0  0
  -22.7223  -10.2125   20.3050 C   0  0  0  0  0  0
  -21.6846   -6.0739   22.5280 C   0  0  0  0  0  0
  -21.4010   -6.5642   23.8215 C   0  0  0  0  0  0
  -21.3659   -5.6794   24.9176 C   0  0  0  0  0  0
  -21.6044   -4.3058   24.7228 C   0  0  0  0  0  0
  -21.8818   -3.8151   23.4348 C   0  0  0  0  0  0
  -21.9189   -4.6968   22.3403 C   0  0  0  0  0  0
  -22.7881  -13.5241   21.1832 C   0  0  0  0  0  0
  -22.1657   -4.2154   21.0981 F   0  0  0  0  0  0
  -21.5632   -3.4543   25.7742 F   0  0  0  0  0  0
  -30.0443  -13.2383   20.4654 N   0  0  0  0  0  0
  -26.3056  -12.9274   20.3408 N   0  0  0  0  0  0
  -25.9309  -11.6446   20.5758 N   0  0  0  0  0  0
  -22.0505  -12.8229   22.0376 N   0  0  0  0  0  0
  -25.4363  -15.1851   20.4050 N   0  0  0  0  0  0
  -31.7790  -14.6493   20.0499 O   0  0  0  0  0  0
  -21.6627   -6.8880   21.4242 O   0  0  0  0  0  0
  -22.3574  -14.5553   20.6688 O   0  0  0  0  0  0
  -24.6121  -31.8706   23.2117 C   0  0  0  0  0  0
  -25.9027  -32.4842   23.8404 C   0  0  1  0  0  0
  -27.2427  -27.4711   20.0726 C   0  0  0  0  0  0
  -25.5892  -33.8639   24.2342 N   0  0  0  0  0  0
  -23.3983  -30.4934   21.5516 C   0  0  2  0  0  0
  -24.8447  -28.9591   20.1178 C   0  0  0  0  0  0
  -22.7385  -29.4677   22.5003 C   0  0  0  0  0  0
  -18.0266  -28.1378   22.8505 C   0  0  0  0  0  0
  -24.1482  -36.7324   23.2632 C   0  0  0  0  0  0
  -25.9235  -30.8410   21.3628 C   0  0  0  0  0  0
  -26.0010  -29.4745   20.7171 C   0  0  0  0  0  0
  -27.1991  -28.7292   20.7083 C   0  0  0  0  0  0
  -26.0664  -26.9530   19.4874 C   0  0  0  0  0  0
  -24.8684  -27.6919   19.5090 C   0  0  0  0  0  0
  -23.6052  -29.8230   20.1669 C   0  0  0  0  0  0
  -25.4105  -36.3130   24.0336 C   0  0  1  0  0  0
  -20.5851  -28.3670   23.1324 C   0  0  2  0  0  0
  -20.6761  -26.9410   22.5420 C   0  0  0  0  0  0
  -19.5736  -26.6397   21.5219 C   0  0  0  0  0  0
  -18.1909  -26.7933   22.1627 C   0  0  0  0  0  0
  -19.1515  -28.8840   23.2914 C   0  0  0  0  0  0
  -18.9449  -30.1448   23.8926 C   0  0  0  0  0  0
  -17.6454  -30.6593   24.0569 C   0  0  0  0  0  0
  -25.9035  -34.9490   23.5142 C   0  0  0  0  0  0
  -16.5347  -29.9098   23.6324 C   0  0  0  0  0  0
  -16.7261  -28.6507   23.0364 C   0  0  0  0  0  0
  -26.4462  -31.6598   25.0719 C   0  0  0  0  0  0
  -25.3733  -31.3661   26.1459 C   0  0  0  0  0  0
  -27.0296  -30.3050   24.6061 C   0  0  0  0  0  0
  -27.6038  -32.4299   25.7502 C   0  0  0  0  0  0
  -27.5591  -37.1806   24.8454 C   0  0  0  0  0  0
  -21.4117  -29.3045   22.3738 N   0  0  0  0  0  0
  -26.4290  -37.3817   23.9422 N   0  0  0  0  0  0
  -24.6627  -31.0819   22.1013 N   0  0  0  0  0  0
  -23.4163  -28.8225   23.3048 O   0  0  0  0  0  0
  -28.4247  -26.7718   20.0380 O   0  0  0  0  0  0
  -26.5602  -34.8935   22.4705 O   0  0  0  0  0  0
  -23.5318  -32.1453   23.7524 O   0  0  0  0  0  0
  -29.4879  -17.6985   20.2528 C   0  0  0  0  0  0
  -29.2762  -19.6934   22.2249 C   0  0  0  0  0  0
  -29.5073  -19.0587   19.8818 C   0  0  0  0  0  0
  -29.3945  -20.0663   20.8692 C   0  0  0  0  0  0
  -29.3425  -17.3302   21.6070 C   0  0  0  0  0  0
  -29.2467  -18.3355   22.5940 C   0  0  0  0  0  0
  -29.6493  -19.4405   18.4205 C   0  0  0  0  0  0
  -29.3510  -21.5495   20.4955 C   0  0  0  0  0  0
  -29.1173  -20.8526   18.1454 C   0  0  0  0  0  0
  -31.5656  -15.5694   22.6507 C   0  0  0  0  0  0
  -29.2267  -15.8590   21.9825 C   0  0  0  0  0  0
  -30.2195  -24.2979   19.4751 C   0  0  0  0  0  0
  -30.2238  -25.6933   18.8190 C   0  0  0  0  0  0
  -29.4484  -23.2338   18.6613 C   0  0  0  0  0  0
  -28.8483  -26.3744   18.7369 C   0  0  0  0  0  0
  -30.4625  -15.0724   21.8215 N   0  0  0  0  0  0
  -29.7195  -21.8330   19.0820 N   0  3  1  0  0  0
  -29.1076  -18.0043   23.9000 F   0  0  0  0  0  0
  -31.4617  -12.4163   19.0804 H   0  0  0  0  0  0
  -30.3350  -11.2765   19.7427 H   0  0  0  0  0  0
  -29.7204  -11.8434   17.3838 H   0  0  0  0  0  0
  -29.6491  -13.5404   17.7862 H   0  0  0  0  0  0
  -27.8114  -11.3278   18.7678 H   0  0  0  0  0  0
  -27.3545  -12.6951   17.7850 H   0  0  0  0  0  0
  -27.7321  -14.2461   19.6197 H   0  0  0  0  0  0
  -28.6887  -11.8330   21.2354 H   0  0  0  0  0  0
  -28.4654  -13.3829   21.9321 H   0  0  0  0  0  0
  -25.2745   -9.5686   22.4762 H   0  0  0  0  0  0
  -23.9996   -7.4636   22.7478 H   0  0  0  0  0  0
  -21.0840   -8.8754   19.8943 H   0  0  0  0  0  0
  -22.3686  -10.9661   19.6154 H   0  0  0  0  0  0
  -21.1999   -7.6146   23.9722 H   0  0  0  0  0  0
  -21.1483   -6.0523   25.9081 H   0  0  0  0  0  0
  -22.0599   -2.7616   23.2849 H   0  0  0  0  0  0
  -22.4100  -11.9880   22.4758 H   0  0  0  0  0  0
  -21.1118  -13.1256   22.2566 H   0  0  0  0  0  0
  -24.6687  -15.8398   20.5079 H   0  0  0  0  0  0
  -26.2855  -15.6227   20.0715 H   0  0  0  0  0  0
  -26.7105  -32.5570   23.1178 H   0  0  0  0  0  0
  -25.0035  -33.9807   25.0483 H   0  0  0  0  0  0
  -22.6869  -31.3100   21.4114 H   0  0  0  0  0  0
  -23.3767  -35.9631   23.3264 H   0  0  0  0  0  0
  -24.3586  -36.8977   22.2056 H   0  0  0  0  0  0
  -23.7196  -37.6499   23.6672 H   0  0  0  0  0  0
  -26.0285  -31.6027   20.5888 H   0  0  0  0  0  0
  -26.8147  -30.9016   21.9753 H   0  0  0  0  0  0
  -28.0947  -29.1274   21.1647 H   0  0  0  0  0  0
  -26.0663  -25.9798   19.0184 H   0  0  0  0  0  0
  -23.9771  -27.2839   19.0524 H   0  0  0  0  0  0
  -23.7113  -30.5958   19.4047 H   0  0  0  0  0  0
  -22.7302  -29.2400   19.8736 H   0  0  0  0  0  0
  -25.1274  -36.2002   25.0825 H   0  0  0  0  0  0
  -20.9948  -28.3245   24.1442 H   0  0  0  0  0  0
  -20.5684  -26.2281   23.3610 H   0  0  0  0  0  0
  -21.6634  -26.7462   22.1216 H   0  0  0  0  0  0
  -19.6903  -25.6314   21.1240 H   0  0  0  0  0  0
  -19.6670  -27.3220   20.6757 H   0  0  0  0  0  0
  -17.4190  -26.6711   21.4016 H   0  0  0  0  0  0
  -18.0284  -26.0055   22.8995 H   0  0  0  0  0  0
  -19.7924  -30.7260   24.2309 H   0  0  0  0  0  0
  -17.5007  -31.6275   24.5170 H   0  0  0  0  0  0
  -15.5350  -30.3020   23.7612 H   0  0  0  0  0  0
  -15.8657  -28.0829   22.7077 H   0  0  0  0  0  0
  -24.5926  -30.6996   25.7779 H   0  0  0  0  0  0
  -24.8903  -32.2796   26.4932 H   0  0  0  0  0  0
  -25.8099  -30.8813   27.0200 H   0  0  0  0  0  0
  -26.2830  -29.6824   24.1121 H   0  0  0  0  0  0
  -27.4087  -29.7268   25.4498 H   0  0  0  0  0  0
  -27.8649  -30.4393   23.9187 H   0  0  0  0  0  0
  -27.2663  -33.3589   26.2112 H   0  0  0  0  0  0
  -28.3848  -32.6869   25.0336 H   0  0  0  0  0  0
  -28.0700  -31.8394   26.5400 H   0  0  0  0  0  0
  -28.2562  -38.0150   24.7588 H   0  0  0  0  0  0
  -28.1137  -36.2687   24.6182 H   0  0  0  0  0  0
  -27.2315  -37.1341   25.8853 H   0  0  0  0  0  0
  -20.9271  -29.8785   21.6980 H   0  0  0  0  0  0
  -26.0183  -38.2887   24.1467 H   0  0  0  0  0  0
  -29.5583  -16.9346   19.4907 H   0  0  0  0  0  0
  -29.1824  -20.4492   22.9918 H   0  0  0  0  0  0
  -29.1148  -18.7208   17.7982 H   0  0  0  0  0  0
  -30.7015  -19.3712   18.1422 H   0  0  0  0  0  0
  -30.0195  -22.0951   21.1626 H   0  0  0  0  0  0
  -28.3410  -21.9138   20.6905 H   0  0  0  0  0  0
  -28.0307  -20.8706   18.2479 H   0  0  0  0  0  0
  -29.3382  -21.1192   17.1110 H   0  0  0  0  0  0
  -31.2115  -15.9258   23.6189 H   0  0  0  0  0  0
  -32.0826  -16.3934   22.1561 H   0  0  0  0  0  0
  -32.2958  -14.7813   22.8411 H   0  0  0  0  0  0
  -28.4132  -15.4759   21.3728 H   0  0  0  0  0  0
  -28.8802  -15.7566   23.0117 H   0  0  0  0  0  0
  -29.8152  -24.3766   20.4854 H   0  0  0  0  0  0
  -31.2572  -23.9797   19.5839 H   0  0  0  0  0  0
  -30.6360  -25.6092   17.8125 H   0  0  0  0  0  0
  -30.9093  -26.3460   19.3607 H   0  0  0  0  0  0
  -29.7286  -23.3341   17.6114 H   0  0  0  0  0  0
  -28.3753  -23.4241   18.7109 H   0  0  0  0  0  0
  -28.1305  -25.7128   18.2541 H   0  0  0  0  0  0
  -28.9282  -27.2623   18.1073 H   0  0  0  0  0  0
  -30.7166  -21.6970   19.0165 H   0  0  0  0  0  0
  1 25  1  0  0  0
  1 30  2  0  0  0
  1 86  1  0  0  0
  2  3  1  0  0  0
  2 25  1  0  0  0
  2 89  1  0  0  0
  2 90  1  0  0  0
  3  4  1  0  0  0
  3 91  1  0  0  0
  3 92  1  0  0  0
  4  5  1  0  0  0
  4 93  1  0  0  0
  4 94  1  0  0  0
  5  6  1  0  0  0
  5 26  1  0  0  0
  5 95  1  0  0  0
  6 25  1  0  0  0
  6 96  1  0  0  0
  6 97  1  0  0  0
  7  8  2  0  0  0
  7 26  1  0  0  0
  7 29  1  0  0  0
  8  9  1  0  0  0
  8 22  1  0  0  0
  9 10  1  0  0  0
  9 27  2  0  0  0
 10 11  2  0  0  0
 10 15  1  0  0  0
 11 12  1  0  0  0
 11 98  1  0  0  0
 12 13  2  0  0  0
 12 99  1  0  0  0
 13 14  1  0  0  0
 13 31  1  0  0  0
 14 15  2  0  0  0
 14100  1  0  0  0
 15101  1  0  0  0
 16 17  2  0  0  0
 16 21  1  0  0  0
 16 31  1  0  0  0
 17 18  1  0  0  0
 17102  1  0  0  0
 18 19  2  0  0  0
 18103  1  0  0  0
 19 20  1  0  0  0
 19 24  1  0  0  0
 20 21  2  0  0  0
 20104  1  0  0  0
 21 23  1  0  0  0
 22 28  1  0  0  0
 22 32  2  0  0  0
 26 27  1  0  0  0
 28105  1  0  0  0
 28106  1  0  0  0
 29107  1  0  0  0
 29108  1  0  0  0
 33 34  1  0  0  0
 33 66  1  0  0  0
 33 70  2  0  0  0
 34 36  1  0  0  0
 34 59  1  0  0  0
 34109  1  0  0  0
 35 44  2  0  0  0
 35 45  1  0  0  0
 35 68  1  0  0  0
 36 56  1  0  0  0
 36110  1  0  0  0
 37 39  1  0  0  0
 37 47  1  0  0  0
 37 66  1  0  0  0
 37111  1  0  0  0
 38 43  2  0  0  0
 38 46  1  0  0  0
 38 47  1  0  0  0
 39 64  1  0  0  0
 39 67  2  0  0  0
 40 52  1  0  0  0
 40 53  2  0  0  0
 40 58  1  0  0  0
 41112  1  0  0  0
 41113  1  0  0  0
 41114  1  0  0  0
 41 48  1  0  0  0
 42 43  1  0  0  0
 42 66  1  0  0  0
 42115  1  0  0  0
 42116  1  0  0  0
 43 44  1  0  0  0
 44117  1  0  0  0
 45 46  2  0  0  0
 45118  1  0  0  0
 46119  1  0  0  0
 47120  1  0  0  0
 47121  1  0  0  0
 48 56  1  0  0  0
 48 65  1  0  0  0
 48122  1  0  0  0
 49 50  1  0  0  0
 49 53  1  0  0  0
 49 64  1  0  0  0
 49123  1  0  0  0
 50 51  1  0  0  0
 50124  1  0  0  0
 50125  1  0  0  0
 51 52  1  0  0  0
 51126  1  0  0  0
 51127  1  0  0  0
 52128  1  0  0  0
 52129  1  0  0  0
 53 54  1  0  0  0
 54 55  2  0  0  0
 54130  1  0  0  0
 55 57  1  0  0  0
 55131  1  0  0  0
 56 69  2  0  0  0
 57 58  2  0  0  0
 57132  1  0  0  0
 58133  1  0  0  0
 59 60  1  0  0  0
 59 61  1  0  0  0
 59 62  1  0  0  0
 60134  1  0  0  0
 60135  1  0  0  0
 60136  1  0  0  0
 61137  1  0  0  0
 61138  1  0  0  0
 61139  1  0  0  0
 62140  1  0  0  0
 62141  1  0  0  0
 62142  1  0  0  0
 63 65  1  0  0  0
 63143  1  0  0  0
 63144  1  0  0  0
 63145  1  0  0  0
 64146  1  0  0  0
 65147  1  0  0  0
 68 85  1  0  0  0
 71 73  2  0  0  0
 71 75  1  0  0  0
 71148  1  0  0  0
 72 74  2  0  0  0
 72 76  1  0  0  0
 72149  1  0  0  0
 73 74  1  0  0  0
 73 77  1  0  0  0
 74 78  1  0  0  0
 75 76  2  0  0  0
 75 81  1  0  0  0
 76 88  1  0  0  0
 77 79  1  0  0  0
 77150  1  0  0  0
 77151  1  0  0  0
 78 87  1  0  0  0
 78152  1  0  0  0
 78153  1  0  0  0
 79 87  1  0  0  0
 79154  1  0  0  0
 79155  1  0  0  0
 80 86  1  0  0  0
 80156  1  0  0  0
 80157  1  0  0  0
 80158  1  0  0  0
 81 86  1  0  0  0
 81159  1  0  0  0
 81160  1  0  0  0
 82 83  1  0  0  0
 82 84  1  0  0  0
 82161  1  0  0  0
 82162  1  0  0  0
 83 85  1  0  0  0
 83163  1  0  0  0
 83164  1  0  0  0
 84165  1  0  0  0
 84166  1  0  0  0
 84 87  1  0  0  0
 85167  1  0  0  0
 85168  1  0  0  0
 87169  1  0  0  0
M  CHG  1  87   1
M  ISO  4   1 100  68 101  85 101  86 100
M  END
> <chiral flag>
0

> <version>
0

> <s_m_source_file>
/data/baiqing/PycharmProjects/Reinvent-master-3.2/result/LINK_invent/BTK/process_docking_weight1_custom_product_contain_oxygen_bond_distance_aromatic_linkinvent_7_9_3/rearranged_h_0019.sdf

> <i_m_source_file_index>
66

> <r_mmod_Potential_Energy-OPLS-2005>
-54.8869438171387

> <r_mmod_Stretch_Energy-OPLS-2005>
35.8237609863281

> <r_mmod_Bend_Energy-OPLS-2005>
95.8969345092773

> <r_mmod_Torsional_Energy-OPLS-2005>
292.175079345703

> <r_mmod_Improper_Torsional_Energy-OPLS-2005>
7.55031871795654

> <r_mmod_Van_der_Waal_Energy-OPLS-2005>
160.005828857422

> <r_mmod_Electrostatic_Energy-OPLS-2005>
-220.806701660156

> <r_mmod_Solvation_Energy-OPLS-2005>
-432.864898681641

> <b_mmod_Minimization_Converged-OPLS-2005>
0

> <r_mmod_RMS_Derivative-OPLS-2005>
0.931421160697937

$$$$
66
                    3D
 Structure written by MMmdl.
177186  0  0  1  0            999 V2000
  -30.7313  -14.4016   20.5429 C   0  0  0  0  0  0
  -30.4160  -12.2589   19.4114 C   0  0  0  0  0  0
  -29.4937  -12.5022   18.1997 C   0  0  0  0  0  0
  -28.0109  -12.3831   18.6060 C   0  0  0  0  0  0
  -27.6651  -13.2066   19.8761 C   0  0  2  0  0  0
  -28.7084  -12.9741   20.9953 C   0  0  0  0  0  0
  -25.2600  -13.8167   20.5665 C   0  0  0  0  0  0
  -24.1853  -13.0443   20.9172 C   0  0  0  0  0  0
  -24.6408  -11.6907   20.8731 C   0  0  0  0  0  0
  -23.9074  -10.4295   21.0403 C   0  0  0  0  0  0
  -24.3621   -9.4207   21.9181 C   0  0  0  0  0  0
  -23.6294   -8.2246   22.0758 C   0  0  0  0  0  0
  -22.4276   -8.0287   21.3550 C   0  0  0  0  0  0
  -21.9911   -9.0261   20.4652 C   0  0  0  0  0  0
  -22.7248  -10.2138   20.3057 C   0  0  0  0  0  0
  -21.6852   -6.0737   22.5282 C   0  0  0  0  0  0
  -21.4013   -6.5642   23.8211 C   0  0  0  0  0  0
  -21.3656   -5.6790   24.9180 C   0  0  0  0  0  0
  -21.6042   -4.3054   24.7228 C   0  0  0  0  0  0
  -21.8822   -3.8149   23.4344 C   0  0  0  0  0  0
  -21.9192   -4.6962   22.3404 C   0  0  0  0  0  0
  -22.7870  -13.5241   21.1826 C   0  0  0  0  0  0
  -22.1662   -4.2144   21.0975 F   0  0  0  0  0  0
  -21.5625   -3.4536   25.7742 F   0  0  0  0  0  0
  -30.0462  -13.2375   20.4403 N   0  0  0  0  0  0
  -26.3044  -12.9340   20.3362 N   0  0  0  0  0  0
  -25.9338  -11.6501   20.5762 N   0  0  0  0  0  0
  -22.0497  -12.8241   22.0377 N   0  0  0  0  0  0
  -25.4303  -15.1891   20.4053 N   0  0  0  0  0  0
  -31.8898  -14.5512   20.1468 O   0  0  0  0  0  0
  -21.6641   -6.8883   21.4246 O   0  0  0  0  0  0
  -22.3565  -14.5547   20.6670 O   0  0  0  0  0  0
  -24.6055  -31.8724   23.2122 C   0  0  0  0  0  0
  -25.8966  -32.4845   23.8421 C   0  0  1  0  0  0
  -27.2549  -27.4963   20.1147 C   0  0  0  0  0  0
  -25.5847  -33.8637   24.2364 N   0  0  0  0  0  0
  -23.3934  -30.4930   21.5480 C   0  0  2  0  0  0
  -24.8469  -28.9619   20.1151 C   0  0  0  0  0  0
  -22.7370  -29.4681   22.4993 C   0  0  0  0  0  0
  -18.0267  -28.1391   22.8517 C   0  0  0  0  0  0
  -24.1481  -36.7317   23.2642 C   0  0  0  0  0  0
  -25.9103  -30.8648   21.3489 C   0  0  0  0  0  0
  -25.9960  -29.4995   20.7083 C   0  0  0  0  0  0
  -27.2016  -28.7775   20.7011 C   0  0  0  0  0  0
  -26.1004  -26.9653   19.5046 C   0  0  0  0  0  0
  -24.8923  -27.6926   19.5076 C   0  0  0  0  0  0
  -23.6024  -29.8173   20.1630 C   0  0  0  0  0  0
  -25.4091  -36.3126   24.0362 C   0  0  1  0  0  0
  -20.5860  -28.3659   23.1354 C   0  0  2  0  0  0
  -20.6756  -26.9396   22.5444 C   0  0  0  0  0  0
  -19.5732  -26.6407   21.5233 C   0  0  0  0  0  0
  -18.1906  -26.7945   22.1637 C   0  0  0  0  0  0
  -19.1520  -28.8832   23.2940 C   0  0  0  0  0  0
  -18.9456  -30.1446   23.8942 C   0  0  0  0  0  0
  -17.6466  -30.6598   24.0594 C   0  0  0  0  0  0
  -25.9014  -34.9491   23.5172 C   0  0  0  0  0  0
  -16.5353  -29.9120   23.6328 C   0  0  0  0  0  0
  -16.7263  -28.6538   23.0344 C   0  0  0  0  0  0
  -26.4432  -31.6604   25.0715 C   0  0  0  0  0  0
  -25.3730  -31.3667   26.1489 C   0  0  0  0  0  0
  -27.0298  -30.3089   24.6009 C   0  0  0  0  0  0
  -27.6044  -32.4294   25.7443 C   0  0  0  0  0  0
  -27.5586  -37.1810   24.8463 C   0  0  0  0  0  0
  -21.4102  -29.3043   22.3761 N   0  0  0  0  0  0
  -26.4284  -37.3802   23.9433 N   0  0  0  0  0  0
  -24.6544  -31.0893   22.0979 N   0  0  0  0  0  0
  -23.4163  -28.8234   23.3021 O   0  0  0  0  0  0
  -28.4152  -26.7665   20.1158 O   0  0  0  0  0  0
  -26.5572  -34.8944   22.4728 O   0  0  0  0  0  0
  -23.5261  -32.1433   23.7556 O   0  0  0  0  0  0
  -30.5046  -22.1237   21.8706 C   0  0  0  0  0  0
  -31.0494  -23.4052   21.6527 C   0  0  0  0  0  0
  -29.4894  -23.7536   19.8163 C   0  0  0  0  0  0
  -29.4427  -21.6588   21.0652 C   0  0  0  0  0  0
  -30.5528  -24.2276   20.6179 C   0  0  0  0  0  0
  -28.9265  -22.4886   20.0501 C   0  0  0  0  0  0
  -30.6025  -18.3651   18.4173 C   0  0  0  0  0  0
  -30.2864  -16.9356   18.8564 C   0  0  0  0  0  0
  -29.6458  -19.3604   19.0863 C   0  0  0  0  0  0
  -29.3594  -17.8608   21.0278 C   0  0  0  0  0  0
  -30.3163  -16.8257   20.4006 C   0  0  1  0  0  0
  -33.7789  -25.3143   18.9573 C   0  0  0  0  0  0
  -28.8741  -20.2643   21.2714 C   0  0  0  0  0  0
  -32.3816  -25.1606   18.3389 C   0  0  0  0  0  0
  -31.3072  -25.9799   19.0773 C   0  0  0  0  0  0
  -30.5107  -26.4922   21.3918 C   0  0  0  0  0  0
  -28.9675  -26.5369   21.4179 C   0  0  0  0  0  0
  -29.9734  -15.4667   20.8245 N   0  0  0  0  0  0
  -31.0817  -25.5212   20.4511 N   0  0  0  0  0  0
  -29.6847  -19.2370   20.5717 N   0  3  2  0  0  0
  -27.8991  -22.0606   19.2777 F   0  0  0  0  0  0
  -31.4621  -12.3393   19.1088 H   0  0  0  0  0  0
  -30.2937  -11.2446   19.7940 H   0  0  0  0  0  0
  -29.7221  -11.7950   17.4017 H   0  0  0  0  0  0
  -29.6829  -13.4957   17.7884 H   0  0  0  0  0  0
  -27.7949  -11.3278   18.7748 H   0  0  0  0  0  0
  -27.3732  -12.6943   17.7779 H   0  0  0  0  0  0
  -27.7115  -14.2567   19.5878 H   0  0  0  0  0  0
  -28.6618  -11.9439   21.3511 H   0  0  0  0  0  0
  -28.4968  -13.5976   21.8653 H   0  0  0  0  0  0
  -25.2770   -9.5675   22.4746 H   0  0  0  0  0  0
  -23.9998   -7.4637   22.7482 H   0  0  0  0  0  0
  -21.0835   -8.8789   19.8961 H   0  0  0  0  0  0
  -22.3714  -10.9672   19.6157 H   0  0  0  0  0  0
  -21.2011   -7.6151   23.9716 H   0  0  0  0  0  0
  -21.1472   -6.0522   25.9076 H   0  0  0  0  0  0
  -22.0603   -2.7607   23.2848 H   0  0  0  0  0  0
  -22.4086  -11.9892   22.4763 H   0  0  0  0  0  0
  -21.1116  -13.1289   22.2570 H   0  0  0  0  0  0
  -24.6551  -15.8365   20.4982 H   0  0  0  0  0  0
  -26.2681  -15.6240   20.0419 H   0  0  0  0  0  0
  -26.7045  -32.5598   23.1214 H   0  0  0  0  0  0
  -25.0021  -33.9809   25.0524 H   0  0  0  0  0  0
  -22.6805  -31.3074   21.4055 H   0  0  0  0  0  0
  -23.3753  -35.9636   23.3292 H   0  0  0  0  0  0
  -24.3595  -36.8927   22.2061 H   0  0  0  0  0  0
  -23.7225  -37.6522   23.6646 H   0  0  0  0  0  0
  -26.0015  -31.6257   20.5722 H   0  0  0  0  0  0
  -26.8053  -30.9335   21.9557 H   0  0  0  0  0  0
  -28.0892  -29.2106   21.1408 H   0  0  0  0  0  0
  -26.1399  -25.9886   19.0426 H   0  0  0  0  0  0
  -24.0103  -27.2753   19.0408 H   0  0  0  0  0  0
  -23.7027  -30.5870   19.3970 H   0  0  0  0  0  0
  -22.7323  -29.2251   19.8742 H   0  0  0  0  0  0
  -25.1270  -36.1990   25.0854 H   0  0  0  0  0  0
  -20.9957  -28.3229   24.1474 H   0  0  0  0  0  0
  -20.5658  -26.2266   23.3632 H   0  0  0  0  0  0
  -21.6626  -26.7451   22.1229 H   0  0  0  0  0  0
  -19.6877  -25.6325   21.1252 H   0  0  0  0  0  0
  -19.6680  -27.3235   20.6778 H   0  0  0  0  0  0
  -17.4187  -26.6724   21.4024 H   0  0  0  0  0  0
  -18.0282  -26.0085   22.9026 H   0  0  0  0  0  0
  -19.7938  -30.7258   24.2313 H   0  0  0  0  0  0
  -17.5035  -31.6274   24.5218 H   0  0  0  0  0  0
  -15.5358  -30.3052   23.7633 H   0  0  0  0  0  0
  -15.8664  -28.0901   22.7004 H   0  0  0  0  0  0
  -24.5874  -30.7046   25.7831 H   0  0  0  0  0  0
  -24.8945  -32.2806   26.5024 H   0  0  0  0  0  0
  -25.8112  -30.8777   27.0196 H   0  0  0  0  0  0
  -26.2835  -29.6799   24.1139 H   0  0  0  0  0  0
  -27.4249  -29.7364   25.4411 H   0  0  0  0  0  0
  -27.8566  -30.4515   23.9041 H   0  0  0  0  0  0
  -27.2715  -33.3590   26.2064 H   0  0  0  0  0  0
  -28.3807  -32.6829   25.0215 H   0  0  0  0  0  0
  -28.0744  -31.8366   26.5305 H   0  0  0  0  0  0
  -28.2582  -38.0130   24.7544 H   0  0  0  0  0  0
  -28.1113  -36.2671   24.6228 H   0  0  0  0  0  0
  -27.2329  -37.1372   25.8871 H   0  0  0  0  0  0
  -20.9238  -29.8797   21.7034 H   0  0  0  0  0  0
  -26.0184  -38.2883   24.1441 H   0  0  0  0  0  0
  -30.9072  -21.5028   22.6595 H   0  0  0  0  0  0
  -31.8581  -23.7504   22.2825 H   0  0  0  0  0  0
  -29.0627  -24.3625   19.0349 H   0  0  0  0  0  0
  -30.5272  -18.4471   17.3318 H   0  0  0  0  0  0
  -31.6341  -18.6133   18.6711 H   0  0  0  0  0  0
  -31.0123  -16.2651   18.3949 H   0  0  0  0  0  0
  -29.3091  -16.6380   18.4735 H   0  0  0  0  0  0
  -28.6275  -19.2027   18.7258 H   0  0  0  0  0  0
  -29.9364  -20.3606   18.7658 H   0  0  0  0  0  0
  -29.4355  -17.8094   22.1157 H   0  0  0  0  0  0
  -28.3233  -17.6309   20.7723 H   0  0  0  0  0  0
  -31.3281  -17.0437   20.7521 H   0  0  0  0  0  0
  -34.5329  -24.8050   18.3560 H   0  0  0  0  0  0
  -33.8147  -24.8938   19.9632 H   0  0  0  0  0  0
  -34.0636  -26.3652   19.0262 H   0  0  0  0  0  0
  -27.8374  -20.2207   20.9330 H   0  0  0  0  0  0
  -28.8518  -20.0615   22.3429 H   0  0  0  0  0  0
  -32.1066  -24.1060   18.2912 H   0  0  0  0  0  0
  -32.4236  -25.5011   17.3029 H   0  0  0  0  0  0
  -30.3759  -25.9617   18.5100 H   0  0  0  0  0  0
  -31.6106  -27.0280   19.0922 H   0  0  0  0  0  0
  -30.8776  -26.2717   22.3962 H   0  0  0  0  0  0
  -30.8880  -27.4893   21.1588 H   0  0  0  0  0  0
  -28.6755  -27.2865   22.1536 H   0  0  0  0  0  0
  -28.5567  -25.6034   21.8030 H   0  0  0  0  0  0
  -29.0318  -15.2845   21.1393 H   0  0  0  0  0  0
  -30.6386  -19.4065   20.8522 H   0  0  0  0  0  0
  1 25  1  0  0  0
  1 30  2  0  0  0
  1 88  1  0  0  0
  2  3  1  0  0  0
  2 25  1  0  0  0
  2 92  1  0  0  0
  2 93  1  0  0  0
  3  4  1  0  0  0
  3 94  1  0  0  0
  3 95  1  0  0  0
  4  5  1  0  0  0
  4 96  1  0  0  0
  4 97  1  0  0  0
  5  6  1  0  0  0
  5 26  1  0  0  0
  5 98  1  0  0  0
  6 25  1  0  0  0
  6 99  1  0  0  0
  6100  1  0  0  0
  7  8  2  0  0  0
  7 26  1  0  0  0
  7 29  1  0  0  0
  8  9  1  0  0  0
  8 22  1  0  0  0
  9 10  1  0  0  0
  9 27  2  0  0  0
 10 11  2  0  0  0
 10 15  1  0  0  0
 11 12  1  0  0  0
 11101  1  0  0  0
 12 13  2  0  0  0
 12102  1  0  0  0
 13 14  1  0  0  0
 13 31  1  0  0  0
 14 15  2  0  0  0
 14103  1  0  0  0
 15104  1  0  0  0
 16 17  2  0  0  0
 16 21  1  0  0  0
 16 31  1  0  0  0
 17 18  1  0  0  0
 17105  1  0  0  0
 18 19  2  0  0  0
 18106  1  0  0  0
 19 20  1  0  0  0
 19 24  1  0  0  0
 20 21  2  0  0  0
 20107  1  0  0  0
 21 23  1  0  0  0
 22 28  1  0  0  0
 22 32  2  0  0  0
 26 27  1  0  0  0
 28108  1  0  0  0
 28109  1  0  0  0
 29110  1  0  0  0
 29111  1  0  0  0
 33 34  1  0  0  0
 33 66  1  0  0  0
 33 70  2  0  0  0
 34 36  1  0  0  0
 34 59  1  0  0  0
 34112  1  0  0  0
 35 44  2  0  0  0
 35 45  1  0  0  0
 35 68  1  0  0  0
 36 56  1  0  0  0
 36113  1  0  0  0
 37 39  1  0  0  0
 37 47  1  0  0  0
 37 66  1  0  0  0
 37114  1  0  0  0
 38 43  2  0  0  0
 38 46  1  0  0  0
 38 47  1  0  0  0
 39 64  1  0  0  0
 39 67  2  0  0  0
 40 52  1  0  0  0
 40 53  2  0  0  0
 40 58  1  0  0  0
 41115  1  0  0  0
 41116  1  0  0  0
 41117  1  0  0  0
 41 48  1  0  0  0
 42 43  1  0  0  0
 42 66  1  0  0  0
 42118  1  0  0  0
 42119  1  0  0  0
 43 44  1  0  0  0
 44120  1  0  0  0
 45 46  2  0  0  0
 45121  1  0  0  0
 46122  1  0  0  0
 47123  1  0  0  0
 47124  1  0  0  0
 48 56  1  0  0  0
 48 65  1  0  0  0
 48125  1  0  0  0
 49 50  1  0  0  0
 49 53  1  0  0  0
 49 64  1  0  0  0
 49126  1  0  0  0
 50 51  1  0  0  0
 50127  1  0  0  0
 50128  1  0  0  0
 51 52  1  0  0  0
 51129  1  0  0  0
 51130  1  0  0  0
 52131  1  0  0  0
 52132  1  0  0  0
 53 54  1  0  0  0
 54 55  2  0  0  0
 54133  1  0  0  0
 55 57  1  0  0  0
 55134  1  0  0  0
 56 69  2  0  0  0
 57 58  2  0  0  0
 57135  1  0  0  0
 58136  1  0  0  0
 59 60  1  0  0  0
 59 61  1  0  0  0
 59 62  1  0  0  0
 60137  1  0  0  0
 60138  1  0  0  0
 60139  1  0  0  0
 61140  1  0  0  0
 61141  1  0  0  0
 61142  1  0  0  0
 62143  1  0  0  0
 62144  1  0  0  0
 62145  1  0  0  0
 63 65  1  0  0  0
 63146  1  0  0  0
 63147  1  0  0  0
 63148  1  0  0  0
 64149  1  0  0  0
 65150  1  0  0  0
 68 87  1  0  0  0
 71 72  2  0  0  0
 71 74  1  0  0  0
 71151  1  0  0  0
 72 75  1  0  0  0
 72152  1  0  0  0
 73 75  2  0  0  0
 73 76  1  0  0  0
 73153  1  0  0  0
 74 76  2  0  0  0
 74 83  1  0  0  0
 75 89  1  0  0  0
 76 91  1  0  0  0
 77 78  1  0  0  0
 77 79  1  0  0  0
 77154  1  0  0  0
 77155  1  0  0  0
 78 81  1  0  0  0
 78156  1  0  0  0
 78157  1  0  0  0
 79 90  1  0  0  0
 79158  1  0  0  0
 79159  1  0  0  0
 80 81  1  0  0  0
 80 90  1  0  0  0
 80160  1  0  0  0
 80161  1  0  0  0
 81 88  1  0  0  0
 81162  1  0  0  0
 82 84  1  0  0  0
 82163  1  0  0  0
 82164  1  0  0  0
 82165  1  0  0  0
 83166  1  0  0  0
 83167  1  0  0  0
 83 90  1  0  0  0
 84 85  1  0  0  0
 84168  1  0  0  0
 84169  1  0  0  0
 85 89  1  0  0  0
 85170  1  0  0  0
 85171  1  0  0  0
 86 87  1  0  0  0
 86 89  1  0  0  0
 86172  1  0  0  0
 86173  1  0  0  0
 87174  1  0  0  0
 87175  1  0  0  0
 88176  1  0  0  0
 90177  1  0  0  0
M  CHG  1  90   1
M  ISO  4   1 100  68 101  87 101  88 100
M  END
> <chiral flag>
0

> <version>
0

> <s_m_source_file>
/data/baiqing/PycharmProjects/Reinvent-master-3.2/result/LINK_invent/BTK/process_docking_weight1_custom_product_contain_oxygen_bond_distance_aromatic_linkinvent_7_9_3/rearranged_h_0019.sdf

> <i_m_source_file_index>
67

> <r_mmod_Potential_Energy-OPLS-2005>
-174.083389282227

> <r_mmod_Stretch_Energy-OPLS-2005>
34.033504486084

> <r_mmod_Bend_Energy-OPLS-2005>
92.3282012939453

> <r_mmod_Torsional_Energy-OPLS-2005>
278.035064697266

> <r_mmod_Improper_Torsional_Energy-OPLS-2005>
11.5598201751709

> <r_mmod_Van_der_Waal_Energy-OPLS-2005>
162.924102783203

> <r_mmod_Electrostatic_Energy-OPLS-2005>
-312.654937744141

> <r_mmod_Solvation_Energy-OPLS-2005>
-452.045349121094

> <b_mmod_Minimization_Converged-OPLS-2005>
0

> <r_mmod_RMS_Derivative-OPLS-2005>
1.88713562488556

$$$$
67
                    3D
 Structure written by MMmdl.
161169  0  0  1  0            999 V2000
  -30.7328  -14.4944   20.5791 C   0  0  0  0  0  0
  -30.4121  -12.3290   19.4233 C   0  0  0  0  0  0
  -29.4837  -12.4971   18.2050 C   0  0  0  0  0  0
  -28.0095  -12.3431   18.6245 C   0  0  0  0  0  0
  -27.6493  -13.1979   19.8670 C   0  0  2  0  0  0
  -28.6990  -13.0318   20.9913 C   0  0  0  0  0  0
  -25.2551  -13.8121   20.5696 C   0  0  0  0  0  0
  -24.1807  -13.0405   20.9215 C   0  0  0  0  0  0
  -24.6354  -11.6879   20.8763 C   0  0  0  0  0  0
  -23.9015  -10.4273   21.0419 C   0  0  0  0  0  0
  -24.3575   -9.4197   21.9200 C   0  0  0  0  0  0
  -23.6261   -8.2226   22.0764 C   0  0  0  0  0  0
  -22.4248   -8.0259   21.3548 C   0  0  0  0  0  0
  -21.9880   -9.0230   20.4649 C   0  0  0  0  0  0
  -22.7192  -10.2118   20.3060 C   0  0  0  0  0  0
  -21.6842   -6.0716   22.5280 C   0  0  0  0  0  0
  -21.4006   -6.5630   23.8213 C   0  0  0  0  0  0
  -21.3662   -5.6788   24.9181 C   0  0  0  0  0  0
  -21.6049   -4.3051   24.7236 C   0  0  0  0  0  0
  -21.8822   -3.8136   23.4360 C   0  0  0  0  0  0
  -21.9190   -4.6945   22.3412 C   0  0  0  0  0  0
  -22.7842  -13.5218   21.1872 C   0  0  0  0  0  0
  -22.1659   -4.2126   21.0989 F   0  0  0  0  0  0
  -21.5636   -3.4541   25.7752 F   0  0  0  0  0  0
  -30.0242  -13.3362   20.4270 N   0  0  0  0  0  0
  -26.2959  -12.9266   20.3366 N   0  0  0  0  0  0
  -25.9274  -11.6442   20.5791 N   0  0  0  0  0  0
  -22.0481  -12.8203   22.0422 N   0  0  0  0  0  0
  -25.4239  -15.1835   20.4061 N   0  0  0  0  0  0
  -31.8644  -14.6335   20.1037 O   0  0  0  0  0  0
  -21.6624   -6.8850   21.4235 O   0  0  0  0  0  0
  -22.3545  -14.5534   20.6732 O   0  0  0  0  0  0
  -24.6149  -31.8679   23.2098 C   0  0  0  0  0  0
  -25.9040  -32.4818   23.8401 C   0  0  1  0  0  0
  -27.2360  -27.4238   20.0891 C   0  0  0  0  0  0
  -25.5893  -33.8616   24.2333 N   0  0  0  0  0  0
  -23.4027  -30.4913   21.5507 C   0  0  2  0  0  0
  -24.8462  -28.9531   20.1175 C   0  0  0  0  0  0
  -22.7405  -29.4661   22.4994 C   0  0  0  0  0  0
  -18.0273  -28.1381   22.8484 C   0  0  0  0  0  0
  -24.1480  -36.7308   23.2649 C   0  0  0  0  0  0
  -25.9325  -30.8283   21.3650 C   0  0  0  0  0  0
  -26.0069  -29.4610   20.7129 C   0  0  0  0  0  0
  -27.2005  -28.7026   20.6959 C   0  0  0  0  0  0
  -26.0484  -26.9257   19.5031 C   0  0  0  0  0  0
  -24.8616  -27.6839   19.5143 C   0  0  0  0  0  0
  -23.6110  -29.8244   20.1649 C   0  0  0  0  0  0
  -25.4105  -36.3105   24.0342 C   0  0  1  0  0  0
  -20.5865  -28.3664   23.1309 C   0  0  2  0  0  0
  -20.6769  -26.9407   22.5407 C   0  0  0  0  0  0
  -19.5745  -26.6391   21.5196 C   0  0  0  0  0  0
  -18.1920  -26.7928   22.1616 C   0  0  0  0  0  0
  -19.1524  -28.8835   23.2894 C   0  0  0  0  0  0
  -18.9454  -30.1440   23.8905 C   0  0  0  0  0  0
  -17.6462  -30.6588   24.0560 C   0  0  0  0  0  0
  -25.9036  -34.9469   23.5139 C   0  0  0  0  0  0
  -16.5347  -29.9096   23.6323 C   0  0  0  0  0  0
  -16.7265  -28.6512   23.0341 C   0  0  0  0  0  0
  -26.4482  -31.6600   25.0726 C   0  0  0  0  0  0
  -25.3752  -31.3645   26.1468 C   0  0  0  0  0  0
  -27.0369  -30.3073   24.6095 C   0  0  0  0  0  0
  -27.6056  -32.4341   25.7482 C   0  0  0  0  0  0
  -27.5577  -37.1803   24.8480 C   0  0  0  0  0  0
  -21.4138  -29.3028   22.3709 N   0  0  0  0  0  0
  -26.4294  -37.3792   23.9419 N   0  0  0  0  0  0
  -24.6685  -31.0773   22.0998 N   0  0  0  0  0  0
  -23.4164  -28.8228   23.3062 O   0  0  0  0  0  0
  -28.4334  -26.7290   20.0924 O   0  0  0  0  0  0
  -26.5607  -34.8921   22.4707 O   0  0  0  0  0  0
  -23.5336  -32.1454   23.7473 O   0  0  0  0  0  0
  -28.6219  -18.6799   21.6382 C   0  0  0  0  0  0
  -28.6994  -20.0880   21.5258 C   0  0  0  0  0  0
  -29.9466  -18.4476   19.6228 C   0  0  0  0  0  0
  -29.2393  -17.8411   20.6848 C   0  0  0  0  0  0
  -29.4020  -20.7058   20.4653 C   0  0  0  0  0  0
  -30.0274  -19.8559   19.5083 C   0  0  0  0  0  0
  -30.7266  -22.7105   19.9639 C   0  0  0  0  0  0
  -30.9986  -16.1860   22.3041 C   0  0  0  0  0  0
  -29.0650  -16.3121   20.7539 C   0  0  0  0  0  0
  -28.1228  -24.2983   20.5862 C   0  0  0  0  0  0
  -28.2138  -22.8277   20.0777 C   0  0  0  0  0  0
  -28.5264  -25.3933   19.5628 C   0  0  0  0  0  0
  -29.4644  -22.1266   20.4126 N   0  0  0  0  0  0
  -30.1735  -15.4982   21.3062 N   0  0  0  0  0  0
  -30.6938  -20.3766   18.4482 F   0  0  0  0  0  0
  -31.4553  -12.4192   19.1148 H   0  0  0  0  0  0
  -30.3125  -11.3273   19.8446 H   0  0  0  0  0  0
  -29.7303  -11.7605   17.4396 H   0  0  0  0  0  0
  -29.6387  -13.4772   17.7503 H   0  0  0  0  0  0
  -27.8343  -11.2876   18.8360 H   0  0  0  0  0  0
  -27.3521  -12.5985   17.7924 H   0  0  0  0  0  0
  -27.6607  -14.2280   19.5273 H   0  0  0  0  0  0
  -28.6910  -12.0103   21.3741 H   0  0  0  0  0  0
  -28.4560  -13.6659   21.8448 H   0  0  0  0  0  0
  -25.2715   -9.5696   22.4780 H   0  0  0  0  0  0
  -23.9982   -7.4627   22.7487 H   0  0  0  0  0  0
  -21.0817   -8.8727   19.8953 H   0  0  0  0  0  0
  -22.3631  -10.9654   19.6173 H   0  0  0  0  0  0
  -21.1986   -7.6141   23.9700 H   0  0  0  0  0  0
  -21.1487   -6.0528   25.9079 H   0  0  0  0  0  0
  -22.0597   -2.7593   23.2869 H   0  0  0  0  0  0
  -22.4087  -11.9844   22.4779 H   0  0  0  0  0  0
  -21.1108  -13.1239   22.2644 H   0  0  0  0  0  0
  -24.6496  -15.8313   20.5059 H   0  0  0  0  0  0
  -26.2603  -15.6222   20.0453 H   0  0  0  0  0  0
  -26.7112  -32.5522   23.1168 H   0  0  0  0  0  0
  -25.0018  -33.9779   25.0459 H   0  0  0  0  0  0
  -22.6906  -31.3078   21.4124 H   0  0  0  0  0  0
  -23.3746  -35.9640   23.3317 H   0  0  0  0  0  0
  -24.3568  -36.8931   22.2070 H   0  0  0  0  0  0
  -23.7225  -37.6503   23.6677 H   0  0  0  0  0  0
  -26.0483  -31.5924   20.5951 H   0  0  0  0  0  0
  -26.8198  -30.8817   21.9836 H   0  0  0  0  0  0
  -28.0998  -29.0954   21.1510 H   0  0  0  0  0  0
  -26.0098  -25.9556   19.0329 H   0  0  0  0  0  0
  -23.9673  -27.2819   19.0580 H   0  0  0  0  0  0
  -23.7258  -30.6011   19.4075 H   0  0  0  0  0  0
  -22.7338  -29.2486   19.8668 H   0  0  0  0  0  0
  -25.1274  -36.1977   25.0837 H   0  0  0  0  0  0
  -20.9944  -28.3246   24.1439 H   0  0  0  0  0  0
  -20.5698  -26.2268   23.3587 H   0  0  0  0  0  0
  -21.6641  -26.7474   22.1185 H   0  0  0  0  0  0
  -19.6903  -25.6303   21.1225 H   0  0  0  0  0  0
  -19.6678  -27.3197   20.6729 H   0  0  0  0  0  0
  -17.4187  -26.6661   21.4023 H   0  0  0  0  0  0
  -18.0335  -26.0072   22.9019 H   0  0  0  0  0  0
  -19.7931  -30.7238   24.2288 H   0  0  0  0  0  0
  -17.5028  -31.6272   24.5161 H   0  0  0  0  0  0
  -15.5350  -30.3008   23.7641 H   0  0  0  0  0  0
  -15.8665  -28.0840   22.7049 H   0  0  0  0  0  0
  -24.5915  -30.7031   25.7757 H   0  0  0  0  0  0
  -24.8942  -32.2766   26.5008 H   0  0  0  0  0  0
  -25.8109  -30.8722   27.0170 H   0  0  0  0  0  0
  -26.2914  -29.6753   24.1252 H   0  0  0  0  0  0
  -27.4299  -29.7388   25.4534 H   0  0  0  0  0  0
  -27.8676  -30.4448   23.9165 H   0  0  0  0  0  0
  -27.2683  -33.3646   26.2063 H   0  0  0  0  0  0
  -28.3845  -32.6892   25.0282 H   0  0  0  0  0  0
  -28.0756  -31.8462   26.5376 H   0  0  0  0  0  0
  -28.2596  -38.0101   24.7539 H   0  0  0  0  0  0
  -28.1065  -36.2623   24.6307 H   0  0  0  0  0  0
  -27.2279  -37.1462   25.8878 H   0  0  0  0  0  0
  -20.9304  -29.8737   21.6919 H   0  0  0  0  0  0
  -26.0178  -38.2871   24.1413 H   0  0  0  0  0  0
  -28.0693  -18.2445   22.4594 H   0  0  0  0  0  0
  -28.2175  -20.6982   22.2759 H   0  0  0  0  0  0
  -30.4151  -17.8359   18.8664 H   0  0  0  0  0  0
  -31.5798  -22.0794   20.2181 H   0  0  0  0  0  0
  -30.8903  -23.6756   20.4447 H   0  0  0  0  0  0
  -30.7251  -22.8673   18.8839 H   0  0  0  0  0  0
  -30.3736  -16.6737   23.0525 H   0  0  0  0  0  0
  -31.6283  -16.9434   21.8342 H   0  0  0  0  0  0
  -31.6508  -15.4870   22.8299 H   0  0  0  0  0  0
  -28.8514  -15.9968   19.7327 H   0  0  0  0  0  0
  -28.1698  -16.0878   21.3345 H   0  0  0  0  0  0
  -28.6940  -24.4173   21.5075 H   0  0  0  0  0  0
  -27.0859  -24.4851   20.8665 H   0  0  0  0  0  0
  -28.0503  -22.7966   18.9995 H   0  0  0  0  0  0
  -27.3823  -22.2728   20.5161 H   0  0  0  0  0  0
  -27.9872  -25.2872   18.6222 H   0  0  0  0  0  0
  -29.5725  -25.2476   19.2946 H   0  0  0  0  0  0
  1 25  1  0  0  0
  1 30  2  0  0  0
  1 84  1  0  0  0
  2  3  1  0  0  0
  2 25  1  0  0  0
  2 86  1  0  0  0
  2 87  1  0  0  0
  3  4  1  0  0  0
  3 88  1  0  0  0
  3 89  1  0  0  0
  4  5  1  0  0  0
  4 90  1  0  0  0
  4 91  1  0  0  0
  5  6  1  0  0  0
  5 26  1  0  0  0
  5 92  1  0  0  0
  6 25  1  0  0  0
  6 93  1  0  0  0
  6 94  1  0  0  0
  7  8  2  0  0  0
  7 26  1  0  0  0
  7 29  1  0  0  0
  8  9  1  0  0  0
  8 22  1  0  0  0
  9 10  1  0  0  0
  9 27  2  0  0  0
 10 11  2  0  0  0
 10 15  1  0  0  0
 11 12  1  0  0  0
 11 95  1  0  0  0
 12 13  2  0  0  0
 12 96  1  0  0  0
 13 14  1  0  0  0
 13 31  1  0  0  0
 14 15  2  0  0  0
 14 97  1  0  0  0
 15 98  1  0  0  0
 16 17  2  0  0  0
 16 21  1  0  0  0
 16 31  1  0  0  0
 17 18  1  0  0  0
 17 99  1  0  0  0
 18 19  2  0  0  0
 18100  1  0  0  0
 19 20  1  0  0  0
 19 24  1  0  0  0
 20 21  2  0  0  0
 20101  1  0  0  0
 21 23  1  0  0  0
 22 28  1  0  0  0
 22 32  2  0  0  0
 26 27  1  0  0  0
 28102  1  0  0  0
 28103  1  0  0  0
 29104  1  0  0  0
 29105  1  0  0  0
 33 34  1  0  0  0
 33 66  1  0  0  0
 33 70  2  0  0  0
 34 36  1  0  0  0
 34 59  1  0  0  0
 34106  1  0  0  0
 35 44  2  0  0  0
 35 45  1  0  0  0
 35 68  1  0  0  0
 36 56  1  0  0  0
 36107  1  0  0  0
 37 39  1  0  0  0
 37 47  1  0  0  0
 37 66  1  0  0  0
 37108  1  0  0  0
 38 43  2  0  0  0
 38 46  1  0  0  0
 38 47  1  0  0  0
 39 64  1  0  0  0
 39 67  2  0  0  0
 40 52  1  0  0  0
 40 53  2  0  0  0
 40 58  1  0  0  0
 41109  1  0  0  0
 41110  1  0  0  0
 41111  1  0  0  0
 41 48  1  0  0  0
 42 43  1  0  0  0
 42 66  1  0  0  0
 42112  1  0  0  0
 42113  1  0  0  0
 43 44  1  0  0  0
 44114  1  0  0  0
 45 46  2  0  0  0
 45115  1  0  0  0
 46116  1  0  0  0
 47117  1  0  0  0
 47118  1  0  0  0
 48 56  1  0  0  0
 48 65  1  0  0  0
 48119  1  0  0  0
 49 50  1  0  0  0
 49 53  1  0  0  0
 49 64  1  0  0  0
 49120  1  0  0  0
 50 51  1  0  0  0
 50121  1  0  0  0
 50122  1  0  0  0
 51 52  1  0  0  0
 51123  1  0  0  0
 51124  1  0  0  0
 52125  1  0  0  0
 52126  1  0  0  0
 53 54  1  0  0  0
 54 55  2  0  0  0
 54127  1  0  0  0
 55 57  1  0  0  0
 55128  1  0  0  0
 56 69  2  0  0  0
 57 58  2  0  0  0
 57129  1  0  0  0
 58130  1  0  0  0
 59 60  1  0  0  0
 59 61  1  0  0  0
 59 62  1  0  0  0
 60131  1  0  0  0
 60132  1  0  0  0
 60133  1  0  0  0
 61134  1  0  0  0
 61135  1  0  0  0
 61136  1  0  0  0
 62137  1  0  0  0
 62138  1  0  0  0
 62139  1  0  0  0
 63 65  1  0  0  0
 63140  1  0  0  0
 63141  1  0  0  0
 63142  1  0  0  0
 64143  1  0  0  0
 65144  1  0  0  0
 68 82  1  0  0  0
 71 72  2  0  0  0
 71 74  1  0  0  0
 71145  1  0  0  0
 72 75  1  0  0  0
 72146  1  0  0  0
 73 74  2  0  0  0
 73 76  1  0  0  0
 73147  1  0  0  0
 74 79  1  0  0  0
 75 76  2  0  0  0
 75 83  1  0  0  0
 76 85  1  0  0  0
 77 83  1  0  0  0
 77148  1  0  0  0
 77149  1  0  0  0
 77150  1  0  0  0
 78 84  1  0  0  0
 78151  1  0  0  0
 78152  1  0  0  0
 78153  1  0  0  0
 79 84  1  0  0  0
 79154  1  0  0  0
 79155  1  0  0  0
 80 81  1  0  0  0
 80 82  1  0  0  0
 80156  1  0  0  0
 80157  1  0  0  0
 81 83  1  0  0  0
 81158  1  0  0  0
 81159  1  0  0  0
 82160  1  0  0  0
 82161  1  0  0  0
M  ISO  4   1 100  68 101  82 101  84 100
M  END
> <chiral flag>
0

> <version>
0

> <s_m_source_file>
/data/baiqing/PycharmProjects/Reinvent-master-3.2/result/LINK_invent/BTK/process_docking_weight1_custom_product_contain_oxygen_bond_distance_aromatic_linkinvent_7_9_3/rearranged_h_0019.sdf

> <i_m_source_file_index>
68

> <r_mmod_Potential_Energy-OPLS-2005>
149.001327514648

> <r_mmod_Stretch_Energy-OPLS-2005>
44.1051406860352

> <r_mmod_Bend_Energy-OPLS-2005>
115.683898925781

> <r_mmod_Torsional_Energy-OPLS-2005>
281.501556396484

> <r_mmod_Improper_Torsional_Energy-OPLS-2005>
6.35699892044067

> <r_mmod_Van_der_Waal_Energy-OPLS-2005>
154.160858154297

> <r_mmod_Electrostatic_Energy-OPLS-2005>
-262.1337890625

> <r_mmod_Solvation_Energy-OPLS-2005>
-206.490859985352

> <b_mmod_Minimization_Converged-OPLS-2005>
0

> <r_mmod_RMS_Derivative-OPLS-2005>
1.6886088848114

$$$$
68
                    3D
 Structure written by MMmdl.
159167  0  0  1  0            999 V2000
  -30.6017  -14.5446   20.5910 C   0  0  0  0  0  0
  -30.4562  -12.3622   19.4066 C   0  0  0  0  0  0
  -29.5050  -12.5210   18.1984 C   0  0  0  0  0  0
  -28.0259  -12.3602   18.6109 C   0  0  0  0  0  0
  -27.6645  -13.1877   19.8714 C   0  0  2  0  0  0
  -28.7055  -12.9339   20.9831 C   0  0  0  0  0  0
  -25.2637  -13.8111   20.5671 C   0  0  0  0  0  0
  -24.1850  -13.0425   20.9150 C   0  0  0  0  0  0
  -24.6356  -11.6874   20.8690 C   0  0  0  0  0  0
  -23.9017  -10.4281   21.0382 C   0  0  0  0  0  0
  -24.3583   -9.4216   21.9169 C   0  0  0  0  0  0
  -23.6273   -8.2247   22.0749 C   0  0  0  0  0  0
  -22.4256   -8.0273   21.3536 C   0  0  0  0  0  0
  -21.9863   -9.0248   20.4647 C   0  0  0  0  0  0
  -22.7182  -10.2133   20.3048 C   0  0  0  0  0  0
  -21.6861   -6.0726   22.5268 C   0  0  0  0  0  0
  -21.4021   -6.5621   23.8204 C   0  0  0  0  0  0
  -21.3653   -5.6772   24.9161 C   0  0  0  0  0  0
  -21.6050   -4.3040   24.7220 C   0  0  0  0  0  0
  -21.8820   -3.8137   23.4339 C   0  0  0  0  0  0
  -21.9200   -4.6954   22.3392 C   0  0  0  0  0  0
  -22.7889  -13.5275   21.1826 C   0  0  0  0  0  0
  -22.1674   -4.2137   21.0976 F   0  0  0  0  0  0
  -21.5619   -3.4518   25.7738 F   0  0  0  0  0  0
  -30.0270  -13.3137   20.4441 N   0  0  0  0  0  0
  -26.3029  -12.9219   20.3309 N   0  0  0  0  0  0
  -25.9268  -11.6402   20.5673 N   0  0  0  0  0  0
  -22.0494  -12.8310   22.0395 N   0  0  0  0  0  0
  -25.4421  -15.1835   20.4110 N   0  0  0  0  0  0
  -31.7240  -14.8182   20.1515 O   0  0  0  0  0  0
  -21.6629   -6.8873   21.4235 O   0  0  0  0  0  0
  -22.3601  -14.5590   20.6672 O   0  0  0  0  0  0
  -24.6200  -31.8623   23.2047 C   0  0  0  0  0  0
  -25.9042  -32.4812   23.8391 C   0  0  1  0  0  0
  -27.2468  -27.3757   20.1193 C   0  0  0  0  0  0
  -25.5854  -33.8614   24.2295 N   0  0  0  0  0  0
  -23.4170  -30.4817   21.5444 C   0  0  2  0  0  0
  -24.8691  -28.9320   20.1229 C   0  0  0  0  0  0
  -22.7455  -29.4620   22.4945 C   0  0  0  0  0  0
  -18.0266  -28.1381   22.8489 C   0  0  0  0  0  0
  -24.1481  -36.7309   23.2643 C   0  0  0  0  0  0
  -25.9528  -30.8065   21.3724 C   0  0  0  0  0  0
  -26.0320  -29.4364   20.7182 C   0  0  0  0  0  0
  -27.2270  -28.6700   20.7027 C   0  0  0  0  0  0
  -26.0652  -26.8959   19.5168 C   0  0  0  0  0  0
  -24.8823  -27.6626   19.5178 C   0  0  0  0  0  0
  -23.6349  -29.8077   20.1636 C   0  0  0  0  0  0
  -25.4099  -36.3110   24.0343 C   0  0  1  0  0  0
  -20.5876  -28.3660   23.1281 C   0  0  2  0  0  0
  -20.6752  -26.9382   22.5406 C   0  0  0  0  0  0
  -19.5740  -26.6373   21.5200 C   0  0  0  0  0  0
  -18.1918  -26.7931   22.1617 C   0  0  0  0  0  0
  -19.1529  -28.8837   23.2893 C   0  0  0  0  0  0
  -18.9450  -30.1438   23.8914 C   0  0  0  0  0  0
  -17.6456  -30.6588   24.0558 C   0  0  0  0  0  0
  -25.9021  -34.9472   23.5132 C   0  0  0  0  0  0
  -16.5342  -29.9091   23.6331 C   0  0  0  0  0  0
  -16.7260  -28.6507   23.0359 C   0  0  0  0  0  0
  -26.4447  -31.6646   25.0768 C   0  0  0  0  0  0
  -25.3694  -31.3800   26.1521 C   0  0  0  0  0  0
  -27.0286  -30.3075   24.6219 C   0  0  0  0  0  0
  -27.6029  -32.4396   25.7489 C   0  0  0  0  0  0
  -27.5590  -37.1791   24.8452 C   0  0  0  0  0  0
  -21.4163  -29.3038   22.3693 N   0  0  0  0  0  0
  -26.4286  -37.3796   23.9427 N   0  0  0  0  0  0
  -24.6815  -31.0665   22.0982 N   0  0  0  0  0  0
  -23.4184  -28.8151   23.3011 O   0  0  0  0  0  0
  -28.3989  -26.5979   20.1049 O   0  0  0  0  0  0
  -26.5612  -34.8923   22.4705 O   0  0  0  0  0  0
  -23.5364  -32.1389   23.7385 O   0  0  0  0  0  0
  -29.2992  -18.4513   23.2753 C   0  0  0  0  0  0
  -29.5757  -19.5192   22.4013 C   0  0  0  0  0  0
  -29.4169  -17.1216   22.8332 C   0  0  0  0  0  0
  -29.9727  -19.2757   21.0681 C   0  0  0  0  0  0
  -29.8376  -16.8266   21.5187 C   0  0  0  0  0  0
  -30.1071  -17.9144   20.6296 C   0  0  0  0  0  0
  -29.3218  -21.6744   18.2778 C   0  0  0  0  0  0
  -30.3545  -20.4869   20.1778 C   0  0  0  0  0  0
  -28.8460  -24.0821   19.8466 C   0  0  0  0  0  0
  -29.0499  -22.6881   20.5854 C   0  0  0  0  0  0
  -28.3335  -25.2788   20.7240 C   0  0  0  0  0  0
  -29.7559  -15.4411   21.1525 N   0  0  0  0  0  0
  -29.2568  -21.4350   19.7442 N   0  3  1  0  0  0
  -30.4563  -17.6507   19.3479 F   0  0  0  0  0  0
  -31.4887  -12.5353   19.0978 H   0  0  0  0  0  0
  -30.4271  -11.3422   19.7916 H   0  0  0  0  0  0
  -29.7536  -11.7906   17.4275 H   0  0  0  0  0  0
  -29.6551  -13.5029   17.7463 H   0  0  0  0  0  0
  -27.8475  -11.3021   18.8040 H   0  0  0  0  0  0
  -27.3716  -12.6285   17.7811 H   0  0  0  0  0  0
  -27.7152  -14.2380   19.5844 H   0  0  0  0  0  0
  -28.7088  -11.8779   21.2619 H   0  0  0  0  0  0
  -28.4392  -13.4636   21.8996 H   0  0  0  0  0  0
  -25.2727   -9.5706   22.4736 H   0  0  0  0  0  0
  -23.9983   -7.4647   22.7458 H   0  0  0  0  0  0
  -21.0790   -8.8755   19.8976 H   0  0  0  0  0  0
  -22.3618  -10.9665   19.6162 H   0  0  0  0  0  0
  -21.2012   -7.6129   23.9703 H   0  0  0  0  0  0
  -21.1472   -6.0499   25.9064 H   0  0  0  0  0  0
  -22.0609   -2.7602   23.2832 H   0  0  0  0  0  0
  -22.4083  -12.0006   22.4858 H   0  0  0  0  0  0
  -21.1116  -13.1387   22.2557 H   0  0  0  0  0  0
  -24.6754  -15.8376   20.5166 H   0  0  0  0  0  0
  -26.2939  -15.6226   20.0848 H   0  0  0  0  0  0
  -26.7108  -32.5496   23.1151 H   0  0  0  0  0  0
  -24.9989  -33.9777   25.0427 H   0  0  0  0  0  0
  -22.7077  -31.2984   21.3952 H   0  0  0  0  0  0
  -23.3756  -35.9629   23.3291 H   0  0  0  0  0  0
  -24.3590  -36.8943   22.2062 H   0  0  0  0  0  0
  -23.7204  -37.6495   23.6669 H   0  0  0  0  0  0
  -26.0834  -31.5695   20.6038 H   0  0  0  0  0  0
  -26.8326  -30.8544   22.0031 H   0  0  0  0  0  0
  -28.1288  -29.0590   21.1565 H   0  0  0  0  0  0
  -26.0603  -25.9249   19.0435 H   0  0  0  0  0  0
  -23.9893  -27.2637   19.0577 H   0  0  0  0  0  0
  -23.7580  -30.5787   19.4025 H   0  0  0  0  0  0
  -22.7576  -29.2331   19.8634 H   0  0  0  0  0  0
  -25.1276  -36.1990   25.0837 H   0  0  0  0  0  0
  -20.9969  -28.3240   24.1404 H   0  0  0  0  0  0
  -20.5605  -26.2278   23.3605 H   0  0  0  0  0  0
  -21.6624  -26.7397   22.1229 H   0  0  0  0  0  0
  -19.6886  -25.6281   21.1239 H   0  0  0  0  0  0
  -19.6692  -27.3167   20.6719 H   0  0  0  0  0  0
  -17.4179  -26.6661   21.4029 H   0  0  0  0  0  0
  -18.0330  -26.0078   22.9018 H   0  0  0  0  0  0
  -19.7926  -30.7240   24.2314 H   0  0  0  0  0  0
  -17.5013  -31.6280   24.5139 H   0  0  0  0  0  0
  -15.5349  -30.2995   23.7647 H   0  0  0  0  0  0
  -15.8656  -28.0818   22.7084 H   0  0  0  0  0  0
  -24.5798  -30.7231   25.7859 H   0  0  0  0  0  0
  -24.8958  -32.2979   26.5023 H   0  0  0  0  0  0
  -25.8016  -30.8914   27.0261 H   0  0  0  0  0  0
  -26.2861  -29.6849   24.1213 H   0  0  0  0  0  0
  -27.3940  -29.7341   25.4746 H   0  0  0  0  0  0
  -27.8754  -30.4383   23.9478 H   0  0  0  0  0  0
  -27.2643  -33.3660   26.2148 H   0  0  0  0  0  0
  -28.3758  -32.7041   25.0258 H   0  0  0  0  0  0
  -28.0799  -31.8498   26.5328 H   0  0  0  0  0  0
  -28.2585  -38.0112   24.7561 H   0  0  0  0  0  0
  -28.1116  -36.2655   24.6205 H   0  0  0  0  0  0
  -27.2336  -37.1362   25.8859 H   0  0  0  0  0  0
  -20.9306  -29.8806   21.6950 H   0  0  0  0  0  0
  -26.0188  -38.2876   24.1459 H   0  0  0  0  0  0
  -28.9857  -18.6476   24.2914 H   0  0  0  0  0  0
  -29.4900  -20.5300   22.7743 H   0  0  0  0  0  0
  -29.1679  -16.3213   23.5167 H   0  0  0  0  0  0
  -29.3408  -20.7319   17.7308 H   0  0  0  0  0  0
  -30.2185  -22.2350   18.0071 H   0  0  0  0  0  0
  -28.4484  -22.2043   17.9013 H   0  0  0  0  0  0
  -30.8415  -20.0734   19.2924 H   0  0  0  0  0  0
  -31.1488  -21.0443   20.6726 H   0  0  0  0  0  0
  -28.1183  -23.9834   19.0449 H   0  0  0  0  0  0
  -29.7877  -24.3717   19.3777 H   0  0  0  0  0  0
  -28.1692  -22.4971   21.1987 H   0  0  0  0  0  0
  -29.8695  -22.7921   21.2979 H   0  0  0  0  0  0
  -28.9336  -25.3327   21.6339 H   0  0  0  0  0  0
  -27.3219  -25.0530   21.0647 H   0  0  0  0  0  0
  -28.9235  -14.9840   21.4897 H   0  0  0  0  0  0
  -28.4071  -20.9024   19.8563 H   0  0  0  0  0  0
  1 25  1  0  0  0
  1 30  2  0  0  0
  1 82  1  0  0  0
  2  3  1  0  0  0
  2 25  1  0  0  0
  2 85  1  0  0  0
  2 86  1  0  0  0
  3  4  1  0  0  0
  3 87  1  0  0  0
  3 88  1  0  0  0
  4  5  1  0  0  0
  4 89  1  0  0  0
  4 90  1  0  0  0
  5  6  1  0  0  0
  5 26  1  0  0  0
  5 91  1  0  0  0
  6 25  1  0  0  0
  6 92  1  0  0  0
  6 93  1  0  0  0
  7  8  2  0  0  0
  7 26  1  0  0  0
  7 29  1  0  0  0
  8  9  1  0  0  0
  8 22  1  0  0  0
  9 10  1  0  0  0
  9 27  2  0  0  0
 10 11  2  0  0  0
 10 15  1  0  0  0
 11 12  1  0  0  0
 11 94  1  0  0  0
 12 13  2  0  0  0
 12 95  1  0  0  0
 13 14  1  0  0  0
 13 31  1  0  0  0
 14 15  2  0  0  0
 14 96  1  0  0  0
 15 97  1  0  0  0
 16 17  2  0  0  0
 16 21  1  0  0  0
 16 31  1  0  0  0
 17 18  1  0  0  0
 17 98  1  0  0  0
 18 19  2  0  0  0
 18 99  1  0  0  0
 19 20  1  0  0  0
 19 24  1  0  0  0
 20 21  2  0  0  0
 20100  1  0  0  0
 21 23  1  0  0  0
 22 28  1  0  0  0
 22 32  2  0  0  0
 26 27  1  0  0  0
 28101  1  0  0  0
 28102  1  0  0  0
 29103  1  0  0  0
 29104  1  0  0  0
 33 34  1  0  0  0
 33 66  1  0  0  0
 33 70  2  0  0  0
 34 36  1  0  0  0
 34 59  1  0  0  0
 34105  1  0  0  0
 35 44  2  0  0  0
 35 45  1  0  0  0
 35 68  1  0  0  0
 36 56  1  0  0  0
 36106  1  0  0  0
 37 39  1  0  0  0
 37 47  1  0  0  0
 37 66  1  0  0  0
 37107  1  0  0  0
 38 43  2  0  0  0
 38 46  1  0  0  0
 38 47  1  0  0  0
 39 64  1  0  0  0
 39 67  2  0  0  0
 40 52  1  0  0  0
 40 53  2  0  0  0
 40 58  1  0  0  0
 41108  1  0  0  0
 41109  1  0  0  0
 41110  1  0  0  0
 41 48  1  0  0  0
 42 43  1  0  0  0
 42 66  1  0  0  0
 42111  1  0  0  0
 42112  1  0  0  0
 43 44  1  0  0  0
 44113  1  0  0  0
 45 46  2  0  0  0
 45114  1  0  0  0
 46115  1  0  0  0
 47116  1  0  0  0
 47117  1  0  0  0
 48 56  1  0  0  0
 48 65  1  0  0  0
 48118  1  0  0  0
 49 50  1  0  0  0
 49 53  1  0  0  0
 49 64  1  0  0  0
 49119  1  0  0  0
 50 51  1  0  0  0
 50120  1  0  0  0
 50121  1  0  0  0
 51 52  1  0  0  0
 51122  1  0  0  0
 51123  1  0  0  0
 52124  1  0  0  0
 52125  1  0  0  0
 53 54  1  0  0  0
 54 55  2  0  0  0
 54126  1  0  0  0
 55 57  1  0  0  0
 55127  1  0  0  0
 56 69  2  0  0  0
 57 58  2  0  0  0
 57128  1  0  0  0
 58129  1  0  0  0
 59 60  1  0  0  0
 59 61  1  0  0  0
 59 62  1  0  0  0
 60130  1  0  0  0
 60131  1  0  0  0
 60132  1  0  0  0
 61133  1  0  0  0
 61134  1  0  0  0
 61135  1  0  0  0
 62136  1  0  0  0
 62137  1  0  0  0
 62138  1  0  0  0
 63 65  1  0  0  0
 63139  1  0  0  0
 63140  1  0  0  0
 63141  1  0  0  0
 64142  1  0  0  0
 65143  1  0  0  0
 68 81  1  0  0  0
 71 72  2  0  0  0
 71 73  1  0  0  0
 71144  1  0  0  0
 72 74  1  0  0  0
 72145  1  0  0  0
 73 75  2  0  0  0
 73146  1  0  0  0
 74 76  2  0  0  0
 74 78  1  0  0  0
 75 76  1  0  0  0
 75 82  1  0  0  0
 76 84  1  0  0  0
 77147  1  0  0  0
 77148  1  0  0  0
 77149  1  0  0  0
 77 83  1  0  0  0
 78 83  1  0  0  0
 78150  1  0  0  0
 78151  1  0  0  0
 79 80  1  0  0  0
 79 81  1  0  0  0
 79152  1  0  0  0
 79153  1  0  0  0
 80 83  1  0  0  0
 80154  1  0  0  0
 80155  1  0  0  0
 81156  1  0  0  0
 81157  1  0  0  0
 82158  1  0  0  0
 83159  1  0  0  0
M  CHG  1  83   1
M  ISO  4   1 100  68 101  81 101  82 100
M  END
> <chiral flag>
0

> <version>
0

> <s_m_source_file>
/data/baiqing/PycharmProjects/Reinvent-master-3.2/result/LINK_invent/BTK/process_docking_weight1_custom_product_contain_oxygen_bond_distance_aromatic_linkinvent_7_9_3/rearranged_h_0019.sdf

> <i_m_source_file_index>
69

> <r_mmod_Potential_Energy-OPLS-2005>
-137.985549926758

> <r_mmod_Stretch_Energy-OPLS-2005>
59.5867004394531

> <r_mmod_Bend_Energy-OPLS-2005>
135.163833618164

> <r_mmod_Torsional_Energy-OPLS-2005>
255.728485107422

> <r_mmod_Improper_Torsional_Energy-OPLS-2005>
4.49856662750244

> <r_mmod_Van_der_Waal_Energy-OPLS-2005>
147.46696472168

> <r_mmod_Electrostatic_Energy-OPLS-2005>
-310.861846923828

> <r_mmod_Solvation_Energy-OPLS-2005>
-456.508087158203

> <b_mmod_Minimization_Converged-OPLS-2005>
0

> <r_mmod_RMS_Derivative-OPLS-2005>
3.18656396865845

$$$$
69
                    3D
 Structure written by MMmdl.
165173  0  0  1  0            999 V2000
  -30.7599  -14.3687   20.6808 C   0  0  0  0  0  0
  -30.3972  -12.2817   19.4051 C   0  0  0  0  0  0
  -29.4903  -12.5187   18.1858 C   0  0  0  0  0  0
  -28.0114  -12.3745   18.5878 C   0  0  0  0  0  0
  -27.6498  -13.2055   19.8452 C   0  0  2  0  0  0
  -28.6687  -12.9739   20.9740 C   0  0  0  0  0  0
  -25.2468  -13.8053   20.5471 C   0  0  0  0  0  0
  -24.1813  -13.0357   20.9158 C   0  0  0  0  0  0
  -24.6398  -11.6833   20.8727 C   0  0  0  0  0  0
  -23.9071  -10.4243   21.0420 C   0  0  0  0  0  0
  -24.3657   -9.4182   21.9198 C   0  0  0  0  0  0
  -23.6349   -8.2215   22.0772 C   0  0  0  0  0  0
  -22.4312   -8.0274   21.3564 C   0  0  0  0  0  0
  -21.9914   -9.0228   20.4653 C   0  0  0  0  0  0
  -22.7236  -10.2100   20.3064 C   0  0  0  0  0  0
  -21.6864   -6.0740   22.5317 C   0  0  0  0  0  0
  -21.4003   -6.5637   23.8247 C   0  0  0  0  0  0
  -21.3652   -5.6791   24.9192 C   0  0  0  0  0  0
  -21.6075   -4.3063   24.7245 C   0  0  0  0  0  0
  -21.8829   -3.8159   23.4353 C   0  0  0  0  0  0
  -21.9200   -4.6979   22.3418 C   0  0  0  0  0  0
  -22.7830  -13.5146   21.1843 C   0  0  0  0  0  0
  -22.1655   -4.2176   21.0985 F   0  0  0  0  0  0
  -21.5644   -3.4519   25.7731 F   0  0  0  0  0  0
  -30.0254  -13.2453   20.4586 N   0  0  0  0  0  0
  -26.2939  -12.9268   20.3109 N   0  0  0  0  0  0
  -25.9327  -11.6440   20.5678 N   0  0  0  0  0  0
  -22.0486  -12.8198   22.0419 N   0  0  0  0  0  0
  -25.4053  -15.1730   20.3655 N   0  0  0  0  0  0
  -31.8118  -14.5962   20.0637 O   0  0  0  0  0  0
  -21.6679   -6.8887   21.4263 O   0  0  0  0  0  0
  -22.3505  -14.5440   20.6682 O   0  0  0  0  0  0
  -24.6295  -31.8688   23.2173 C   0  0  0  0  0  0
  -25.9134  -32.4847   23.8500 C   0  0  1  0  0  0
  -27.1981  -27.3916   20.0151 C   0  0  0  0  0  0
  -25.5967  -33.8659   24.2420 N   0  0  0  0  0  0
  -23.4172  -30.5069   21.5605 C   0  0  2  0  0  0
  -24.8417  -28.9743   20.1315 C   0  0  0  0  0  0
  -22.7487  -29.4703   22.4970 C   0  0  0  0  0  0
  -18.0286  -28.1393   22.8492 C   0  0  0  0  0  0
  -24.1480  -36.7323   23.2633 C   0  0  0  0  0  0
  -25.9628  -30.8153   21.3789 C   0  0  0  0  0  0
  -26.0265  -29.4545   20.7037 C   0  0  0  0  0  0
  -27.2139  -28.6708   20.6390 C   0  0  0  0  0  0
  -25.9576  -26.9216   19.5178 C   0  0  0  0  0  0
  -24.7983  -27.7012   19.5605 C   0  0  0  0  0  0
  -23.6274  -29.8697   20.1702 C   0  0  0  0  0  0
  -25.4098  -36.3150   24.0360 C   0  0  1  0  0  0
  -20.5891  -28.3713   23.1263 C   0  0  2  0  0  0
  -20.6787  -26.9442   22.5383 C   0  0  0  0  0  0
  -19.5740  -26.6409   21.5208 C   0  0  0  0  0  0
  -18.1920  -26.7945   22.1626 C   0  0  0  0  0  0
  -19.1539  -28.8864   23.2889 C   0  0  0  0  0  0
  -18.9454  -30.1460   23.8925 C   0  0  0  0  0  0
  -17.6451  -30.6589   24.0577 C   0  0  0  0  0  0
  -25.9038  -34.9489   23.5175 C   0  0  0  0  0  0
  -16.5344  -29.9096   23.6316 C   0  0  0  0  0  0
  -16.7276  -28.6508   23.0351 C   0  0  0  0  0  0
  -26.4502  -31.6636   25.0848 C   0  0  0  0  0  0
  -25.3771  -31.3761   26.1616 C   0  0  0  0  0  0
  -27.0301  -30.3052   24.6275 C   0  0  0  0  0  0
  -27.6097  -32.4345   25.7582 C   0  0  0  0  0  0
  -27.5601  -37.1816   24.8454 C   0  0  0  0  0  0
  -21.4202  -29.3121   22.3714 N   0  0  0  0  0  0
  -26.4293  -37.3827   23.9430 N   0  0  0  0  0  0
  -24.6901  -31.0758   22.1105 N   0  0  0  0  0  0
  -23.4219  -28.8169   23.2987 O   0  0  0  0  0  0
  -28.3501  -26.6193   19.8877 O   0  0  0  0  0  0
  -26.5544  -34.8929   22.4709 O   0  0  0  0  0  0
  -23.5454  -32.1443   23.7506 O   0  0  0  0  0  0
  -27.9317  -17.2196   20.9773 C   0  0  0  0  0  0
  -26.8964  -18.1540   20.7565 C   0  0  0  0  0  0
  -29.5293  -19.0526   21.0238 C   0  0  0  0  0  0
  -29.2642  -17.6684   21.0820 C   0  0  0  0  0  0
  -28.4942  -20.0032   20.8584 C   0  0  0  0  0  0
  -27.1700  -19.5353   20.6844 C   0  0  0  0  0  0
  -30.1485  -14.9964   22.9492 C   0  0  0  0  0  0
  -29.4403  -21.5580   18.5094 C   0  0  0  0  0  0
  -30.4589  -16.7237   21.2126 C   0  0  0  0  0  0
  -28.8156  -21.5047   20.9542 C   0  0  0  0  0  0
  -29.5456  -24.6598   18.7861 C   0  0  0  0  0  0
  -29.6286  -23.5934   19.9126 C   0  0  0  0  0  0
  -28.3083  -25.5753   18.8729 C   0  0  0  0  0  0
  -30.2198  -15.2964   21.5072 N   0  0  0  0  0  0
  -28.9037  -22.2966   19.6837 N   0  3  1  0  0  0
  -25.8728  -20.6358   20.3862 Cl  0  0  0  0  0  0
  -31.4496  -12.3533   19.1082 H   0  0  0  0  0  0
  -30.2598  -11.2616   19.7726 H   0  0  0  0  0  0
  -29.7374  -11.8114   17.3854 H   0  0  0  0  0  0
  -29.6706  -13.5136   17.7814 H   0  0  0  0  0  0
  -27.8212  -11.3172   18.7635 H   0  0  0  0  0  0
  -27.3696  -12.6600   17.7557 H   0  0  0  0  0  0
  -27.6920  -14.2553   19.5620 H   0  0  0  0  0  0
  -28.6098  -11.9467   21.3392 H   0  0  0  0  0  0
  -28.3677  -13.5956   21.8169 H   0  0  0  0  0  0
  -25.2821   -9.5682   22.4754 H   0  0  0  0  0  0
  -24.0077   -7.4604   22.7478 H   0  0  0  0  0  0
  -21.0845   -8.8751   19.8970 H   0  0  0  0  0  0
  -22.3718  -10.9649   19.6197 H   0  0  0  0  0  0
  -21.1970   -7.6144   23.9728 H   0  0  0  0  0  0
  -21.1471   -6.0525   25.9089 H   0  0  0  0  0  0
  -22.0619   -2.7629   23.2856 H   0  0  0  0  0  0
  -22.4077  -11.9887   22.4894 H   0  0  0  0  0  0
  -21.1133  -13.1350   22.2602 H   0  0  0  0  0  0
  -24.6375  -15.8240   20.4891 H   0  0  0  0  0  0
  -26.2312  -15.5936   19.9670 H   0  0  0  0  0  0
  -26.7215  -32.5493   23.1271 H   0  0  0  0  0  0
  -25.0240  -33.9840   25.0648 H   0  0  0  0  0  0
  -22.7144  -31.3314   21.4322 H   0  0  0  0  0  0
  -23.3779  -35.9619   23.3250 H   0  0  0  0  0  0
  -24.3604  -36.8967   22.2062 H   0  0  0  0  0  0
  -23.7166  -37.6498   23.6645 H   0  0  0  0  0  0
  -26.0962  -31.5931   20.6241 H   0  0  0  0  0  0
  -26.8457  -30.8503   22.0067 H   0  0  0  0  0  0
  -28.1429  -29.0489   21.0417 H   0  0  0  0  0  0
  -25.8068  -25.9452   19.0914 H   0  0  0  0  0  0
  -23.8700  -27.3075   19.1695 H   0  0  0  0  0  0
  -23.7850  -30.6656   19.4408 H   0  0  0  0  0  0
  -22.7390  -29.3325   19.8346 H   0  0  0  0  0  0
  -25.1256  -36.2047   25.0852 H   0  0  0  0  0  0
  -20.9983  -28.3268   24.1380 H   0  0  0  0  0  0
  -20.5707  -26.2325   23.3590 H   0  0  0  0  0  0
  -21.6638  -26.7492   22.1133 H   0  0  0  0  0  0
  -19.6893  -25.6316   21.1242 H   0  0  0  0  0  0
  -19.6662  -27.3221   20.6735 H   0  0  0  0  0  0
  -17.4197  -26.6713   21.4026 H   0  0  0  0  0  0
  -18.0318  -26.0077   22.9005 H   0  0  0  0  0  0
  -19.7926  -30.7271   24.2315 H   0  0  0  0  0  0
  -17.4996  -31.6259   24.5190 H   0  0  0  0  0  0
  -15.5337  -30.3002   23.7621 H   0  0  0  0  0  0
  -15.8678  -28.0832   22.7056 H   0  0  0  0  0  0
  -24.5964  -30.7057   25.7998 H   0  0  0  0  0  0
  -24.8940  -32.2911   26.5059 H   0  0  0  0  0  0
  -25.8160  -30.8985   27.0389 H   0  0  0  0  0  0
  -26.2854  -29.6862   24.1257 H   0  0  0  0  0  0
  -27.3928  -29.7266   25.4776 H   0  0  0  0  0  0
  -27.8770  -30.4328   23.9533 H   0  0  0  0  0  0
  -27.2759  -33.3671   26.2153 H   0  0  0  0  0  0
  -28.3905  -32.6866   25.0391 H   0  0  0  0  0  0
  -28.0769  -31.8476   26.5506 H   0  0  0  0  0  0
  -28.2568  -38.0161   24.7575 H   0  0  0  0  0  0
  -28.1144  -36.2698   24.6165 H   0  0  0  0  0  0
  -27.2340  -37.1333   25.8857 H   0  0  0  0  0  0
  -20.9362  -29.8937   21.7015 H   0  0  0  0  0  0
  -26.0192  -38.2907   24.1470 H   0  0  0  0  0  0
  -27.7093  -16.1651   21.0572 H   0  0  0  0  0  0
  -25.8746  -17.8191   20.6558 H   0  0  0  0  0  0
  -30.5502  -19.3905   21.1243 H   0  0  0  0  0  0
  -30.9528  -15.4819   23.5029 H   0  0  0  0  0  0
  -30.2391  -13.9274   23.1618 H   0  0  0  0  0  0
  -29.1975  -15.3250   23.3721 H   0  0  0  0  0  0
  -29.1500  -20.5082   18.4770 H   0  0  0  0  0  0
  -30.5279  -21.6014   18.4669 H   0  0  0  0  0  0
  -29.0522  -22.0002   17.5918 H   0  0  0  0  0  0
  -31.1419  -17.1237   21.9557 H   0  0  0  0  0  0
  -30.9644  -16.8289   20.2486 H   0  0  0  0  0  0
  -29.7464  -21.6013   21.5113 H   0  0  0  0  0  0
  -28.0482  -21.9658   21.5819 H   0  0  0  0  0  0
  -29.5587  -24.1761   17.8086 H   0  0  0  0  0  0
  -30.4404  -25.2811   18.8000 H   0  0  0  0  0  0
  -29.3033  -24.0556   20.8479 H   0  0  0  0  0  0
  -30.6808  -23.3488   20.0599 H   0  0  0  0  0  0
  -27.4885  -24.8740   19.0257 H   0  0  0  0  0  0
  -28.1517  -26.0432   17.8952 H   0  0  0  0  0  0
  -27.9405  -22.4989   19.4574 H   0  0  0  0  0  0
  1 25  1  0  0  0
  1 30  2  0  0  0
  1 84  1  0  0  0
  2  3  1  0  0  0
  2 25  1  0  0  0
  2 87  1  0  0  0
  2 88  1  0  0  0
  3  4  1  0  0  0
  3 89  1  0  0  0
  3 90  1  0  0  0
  4  5  1  0  0  0
  4 91  1  0  0  0
  4 92  1  0  0  0
  5  6  1  0  0  0
  5 26  1  0  0  0
  5 93  1  0  0  0
  6 25  1  0  0  0
  6 94  1  0  0  0
  6 95  1  0  0  0
  7  8  2  0  0  0
  7 26  1  0  0  0
  7 29  1  0  0  0
  8  9  1  0  0  0
  8 22  1  0  0  0
  9 10  1  0  0  0
  9 27  2  0  0  0
 10 11  2  0  0  0
 10 15  1  0  0  0
 11 12  1  0  0  0
 11 96  1  0  0  0
 12 13  2  0  0  0
 12 97  1  0  0  0
 13 14  1  0  0  0
 13 31  1  0  0  0
 14 15  2  0  0  0
 14 98  1  0  0  0
 15 99  1  0  0  0
 16 17  2  0  0  0
 16 21  1  0  0  0
 16 31  1  0  0  0
 17 18  1  0  0  0
 17100  1  0  0  0
 18 19  2  0  0  0
 18101  1  0  0  0
 19 20  1  0  0  0
 19 24  1  0  0  0
 20 21  2  0  0  0
 20102  1  0  0  0
 21 23  1  0  0  0
 22 28  1  0  0  0
 22 32  2  0  0  0
 26 27  1  0  0  0
 28103  1  0  0  0
 28104  1  0  0  0
 29105  1  0  0  0
 29106  1  0  0  0
 33 34  1  0  0  0
 33 66  1  0  0  0
 33 70  2  0  0  0
 34 36  1  0  0  0
 34 59  1  0  0  0
 34107  1  0  0  0
 35 44  2  0  0  0
 35 45  1  0  0  0
 35 68  1  0  0  0
 36 56  1  0  0  0
 36108  1  0  0  0
 37 39  1  0  0  0
 37 47  1  0  0  0
 37 66  1  0  0  0
 37109  1  0  0  0
 38 43  2  0  0  0
 38 46  1  0  0  0
 38 47  1  0  0  0
 39 64  1  0  0  0
 39 67  2  0  0  0
 40 52  1  0  0  0
 40 53  2  0  0  0
 40 58  1  0  0  0
 41110  1  0  0  0
 41111  1  0  0  0
 41112  1  0  0  0
 41 48  1  0  0  0
 42 43  1  0  0  0
 42 66  1  0  0  0
 42113  1  0  0  0
 42114  1  0  0  0
 43 44  1  0  0  0
 44115  1  0  0  0
 45 46  2  0  0  0
 45116  1  0  0  0
 46117  1  0  0  0
 47118  1  0  0  0
 47119  1  0  0  0
 48 56  1  0  0  0
 48 65  1  0  0  0
 48120  1  0  0  0
 49 50  1  0  0  0
 49 53  1  0  0  0
 49 64  1  0  0  0
 49121  1  0  0  0
 50 51  1  0  0  0
 50122  1  0  0  0
 50123  1  0  0  0
 51 52  1  0  0  0
 51124  1  0  0  0
 51125  1  0  0  0
 52126  1  0  0  0
 52127  1  0  0  0
 53 54  1  0  0  0
 54 55  2  0  0  0
 54128  1  0  0  0
 55 57  1  0  0  0
 55129  1  0  0  0
 56 69  2  0  0  0
 57 58  2  0  0  0
 57130  1  0  0  0
 58131  1  0  0  0
 59 60  1  0  0  0
 59 61  1  0  0  0
 59 62  1  0  0  0
 60132  1  0  0  0
 60133  1  0  0  0
 60134  1  0  0  0
 61135  1  0  0  0
 61136  1  0  0  0
 61137  1  0  0  0
 62138  1  0  0  0
 62139  1  0  0  0
 62140  1  0  0  0
 63 65  1  0  0  0
 63141  1  0  0  0
 63142  1  0  0  0
 63143  1  0  0  0
 64144  1  0  0  0
 65145  1  0  0  0
 68 83  1  0  0  0
 71 72  2  0  0  0
 71 74  1  0  0  0
 71146  1  0  0  0
 72 76  1  0  0  0
 72147  1  0  0  0
 73 74  2  0  0  0
 73 75  1  0  0  0
 73148  1  0  0  0
 74 79  1  0  0  0
 75 76  2  0  0  0
 75 80  1  0  0  0
 76 86  1  0  0  0
 77 84  1  0  0  0
 77149  1  0  0  0
 77150  1  0  0  0
 77151  1  0  0  0
 78152  1  0  0  0
 78153  1  0  0  0
 78154  1  0  0  0
 78 85  1  0  0  0
 79 84  1  0  0  0
 79155  1  0  0  0
 79156  1  0  0  0
 80 85  1  0  0  0
 80157  1  0  0  0
 80158  1  0  0  0
 81 82  1  0  0  0
 81 83  1  0  0  0
 81159  1  0  0  0
 81160  1  0  0  0
 82 85  1  0  0  0
 82161  1  0  0  0
 82162  1  0  0  0
 83163  1  0  0  0
 83164  1  0  0  0
 85165  1  0  0  0
M  CHG  1  85   1
M  ISO  4   1 100  68 101  83 101  84 100
M  END
> <chiral flag>
0

> <version>
0

> <s_m_source_file>
/data/baiqing/PycharmProjects/Reinvent-master-3.2/result/LINK_invent/BTK/process_docking_weight1_custom_product_contain_oxygen_bond_distance_aromatic_linkinvent_7_9_3/rearranged_h_0019.sdf

> <i_m_source_file_index>
70

> <r_mmod_Potential_Energy-OPLS-2005>
-33.8792572021484

> <r_mmod_Stretch_Energy-OPLS-2005>
46.6491889953613

> <r_mmod_Bend_Energy-OPLS-2005>
120.555511474609

> <r_mmod_Torsional_Energy-OPLS-2005>
261.710662841797

> <r_mmod_Improper_Torsional_Energy-OPLS-2005>
6.16794633865356

> <r_mmod_Van_der_Waal_Energy-OPLS-2005>
172.862213134766

> <r_mmod_Electrostatic_Energy-OPLS-2005>
-245.30046081543

> <r_mmod_Solvation_Energy-OPLS-2005>
-416.846801757812

> <b_mmod_Minimization_Converged-OPLS-2005>
0

> <r_mmod_RMS_Derivative-OPLS-2005>
6.98397827148438

$$$$
70
                    3D
 Structure written by MMmdl.
172181  0  0  1  0            999 V2000
  -30.7951  -14.4324   20.6223 C   0  0  0  0  0  0
  -30.3865  -12.2806   19.4684 C   0  0  0  0  0  0
  -29.5102  -12.5010   18.2179 C   0  0  0  0  0  0
  -28.0175  -12.3800   18.5934 C   0  0  0  0  0  0
  -27.6546  -13.2117   19.8608 C   0  0  2  0  0  0
  -28.6779  -12.9671   20.9877 C   0  0  0  0  0  0
  -25.2514  -13.8167   20.5613 C   0  0  0  0  0  0
  -24.1769  -13.0430   20.9175 C   0  0  0  0  0  0
  -24.6336  -11.6917   20.8670 C   0  0  0  0  0  0
  -23.8977  -10.4335   21.0349 C   0  0  0  0  0  0
  -24.3555   -9.4293   21.9129 C   0  0  0  0  0  0
  -23.6283   -8.2303   22.0734 C   0  0  0  0  0  0
  -22.4251   -8.0322   21.3548 C   0  0  0  0  0  0
  -21.9844   -9.0262   20.4621 C   0  0  0  0  0  0
  -22.7144  -10.2166   20.3001 C   0  0  0  0  0  0
  -21.6854   -6.0770   22.5307 C   0  0  0  0  0  0
  -21.3990   -6.5648   23.8248 C   0  0  0  0  0  0
  -21.3679   -5.6785   24.9204 C   0  0  0  0  0  0
  -21.6054   -4.3052   24.7223 C   0  0  0  0  0  0
  -21.8811   -3.8163   23.4342 C   0  0  0  0  0  0
  -21.9190   -4.6998   22.3410 C   0  0  0  0  0  0
  -22.7812  -13.5248   21.1902 C   0  0  0  0  0  0
  -22.1643   -4.2193   21.0982 F   0  0  0  0  0  0
  -21.5658   -3.4519   25.7724 F   0  0  0  0  0  0
  -30.0152  -13.3072   20.4727 N   0  0  0  0  0  0
  -26.2925  -12.9348   20.3177 N   0  0  0  0  0  0
  -25.9236  -11.6502   20.5610 N   0  0  0  0  0  0
  -22.0418  -12.8224   22.0465 N   0  0  0  0  0  0
  -25.4186  -15.1872   20.4086 N   0  0  0  0  0  0
  -31.8915  -14.4624   20.0639 O   0  0  0  0  0  0
  -21.6652   -6.8902   21.4261 O   0  0  0  0  0  0
  -22.3523  -14.5592   20.6842 O   0  0  0  0  0  0
  -24.6167  -31.8635   23.2039 C   0  0  0  0  0  0
  -25.9050  -32.4784   23.8361 C   0  0  1  0  0  0
  -27.2545  -27.3994   20.1177 C   0  0  0  0  0  0
  -25.5889  -33.8576   24.2283 N   0  0  0  0  0  0
  -23.4105  -30.4850   21.5378 C   0  0  2  0  0  0
  -24.8656  -28.9444   20.1194 C   0  0  0  0  0  0
  -22.7417  -29.4647   22.4891 C   0  0  0  0  0  0
  -18.0284  -28.1371   22.8511 C   0  0  0  0  0  0
  -24.1493  -36.7293   23.2648 C   0  0  0  0  0  0
  -25.9435  -30.8222   21.3697 C   0  0  0  0  0  0
  -26.0233  -29.4521   20.7198 C   0  0  0  0  0  0
  -27.2145  -28.6865   20.7184 C   0  0  0  0  0  0
  -26.0679  -26.9133   19.5195 C   0  0  0  0  0  0
  -24.8844  -27.6758   19.5184 C   0  0  0  0  0  0
  -23.6281  -29.8078   20.1562 C   0  0  0  0  0  0
  -25.4102  -36.3064   24.0346 C   0  0  1  0  0  0
  -20.5884  -28.3663   23.1291 C   0  0  2  0  0  0
  -20.6757  -26.9387   22.5409 C   0  0  0  0  0  0
  -19.5717  -26.6373   21.5220 C   0  0  0  0  0  0
  -18.1907  -26.7914   22.1649 C   0  0  0  0  0  0
  -19.1544  -28.8820   23.2912 C   0  0  0  0  0  0
  -18.9473  -30.1429   23.8918 C   0  0  0  0  0  0
  -17.6478  -30.6578   24.0570 C   0  0  0  0  0  0
  -25.9036  -34.9441   23.5114 C   0  0  0  0  0  0
  -16.5362  -29.9091   23.6332 C   0  0  0  0  0  0
  -16.7277  -28.6507   23.0355 C   0  0  0  0  0  0
  -26.4478  -31.6587   25.0697 C   0  0  0  0  0  0
  -25.3739  -31.3782   26.1453 C   0  0  0  0  0  0
  -27.0339  -30.3004   24.6161 C   0  0  0  0  0  0
  -27.6011  -32.4346   25.7482 C   0  0  0  0  0  0
  -27.5575  -37.1796   24.8459 C   0  0  0  0  0  0
  -21.4131  -29.3051   22.3672 N   0  0  0  0  0  0
  -26.4283  -37.3751   23.9415 N   0  0  0  0  0  0
  -24.6727  -31.0736   22.0933 N   0  0  0  0  0  0
  -23.4184  -28.8177   23.2933 O   0  0  0  0  0  0
  -28.4515  -26.6928   20.1301 O   0  0  0  0  0  0
  -26.5582  -34.8912   22.4674 O   0  0  0  0  0  0
  -23.5362  -32.1371   23.7425 O   0  0  0  0  0  0
  -30.8160  -19.0218   20.9713 C   0  0  0  0  0  0
  -32.2021  -18.8798   18.5753 C   0  0  0  0  0  0
  -30.9300  -20.1997   20.1804 C   0  0  0  0  0  0
  -31.4268  -17.7990   20.6186 C   0  0  0  0  0  0
  -31.6805  -20.1492   18.9533 C   0  0  0  0  0  0
  -32.1296  -17.7478   19.4024 C   0  0  0  0  0  0
  -30.2974  -21.4330   20.7911 C   0  0  0  0  0  0
  -33.6690  -22.6341   17.0270 C   0  0  0  0  0  0
  -32.3945  -23.4266   17.2516 C   0  0  0  0  0  0
  -33.2732  -21.1872   17.3478 C   0  0  0  0  0  0
  -31.7418  -22.6526   18.3831 C   0  0  0  0  0  0
  -29.1409  -15.8611   21.9718 C   0  0  0  0  0  0
  -31.4237  -16.6166   21.6004 C   0  0  0  0  0  0
  -28.5256  -24.3333   20.9926 C   0  0  0  0  0  0
  -28.2308  -22.8324   20.7013 C   0  0  0  0  0  0
  -28.5298  -25.2890   19.7728 C   0  0  0  0  0  0
  -32.0083  -21.2451   18.0937 N   0  0  0  0  0  0
  -29.3098  -22.0350   20.1051 N   0  0  0  0  0  0
  -30.4313  -15.5346   21.3582 N   0  0  0  0  0  0
  -30.6058  -21.7752   21.9331 O   0  0  0  0  0  0
  -32.8086  -16.6393   19.0334 F   0  0  0  0  0  0
  -31.4451  -12.2769   19.2109 H   0  0  0  0  0  0
  -30.2191  -11.2785   19.8658 H   0  0  0  0  0  0
  -29.7707  -11.7634   17.4576 H   0  0  0  0  0  0
  -29.7171  -13.4760   17.7706 H   0  0  0  0  0  0
  -27.7981  -11.3210   18.7531 H   0  0  0  0  0  0
  -27.3955  -12.6849   17.7515 H   0  0  0  0  0  0
  -27.7144  -14.2652   19.5847 H   0  0  0  0  0  0
  -28.6446  -11.9084   21.2481 H   0  0  0  0  0  0
  -28.4067  -13.4673   21.9082 H   0  0  0  0  0  0
  -25.2729   -9.5850   22.4639 H   0  0  0  0  0  0
  -24.0083   -7.4699   22.7398 H   0  0  0  0  0  0
  -21.0808   -8.8722   19.8870 H   0  0  0  0  0  0
  -22.3584  -10.9672   19.6071 H   0  0  0  0  0  0
  -21.1930   -7.6145   23.9765 H   0  0  0  0  0  0
  -21.1494   -6.0509   25.9128 H   0  0  0  0  0  0
  -22.0547   -2.7620   23.2824 H   0  0  0  0  0  0
  -22.3995  -11.9918   22.4917 H   0  0  0  0  0  0
  -21.0988  -13.1212   22.2517 H   0  0  0  0  0  0
  -24.6400  -15.8256   20.5258 H   0  0  0  0  0  0
  -26.2745  -15.6508   20.1305 H   0  0  0  0  0  0
  -26.7119  -32.5505   23.1134 H   0  0  0  0  0  0
  -25.0058  -33.9713   25.0445 H   0  0  0  0  0  0
  -22.7033  -31.3027   21.3808 H   0  0  0  0  0  0
  -23.3734  -35.9647   23.3301 H   0  0  0  0  0  0
  -24.3608  -36.8907   22.2069 H   0  0  0  0  0  0
  -23.7271  -37.6509   23.6663 H   0  0  0  0  0  0
  -26.0727  -31.5888   20.6057 H   0  0  0  0  0  0
  -26.8252  -30.8701   21.9975 H   0  0  0  0  0  0
  -28.1053  -29.0724   21.1953 H   0  0  0  0  0  0
  -26.0094  -25.9469   19.0468 H   0  0  0  0  0  0
  -23.9972  -27.2694   19.0544 H   0  0  0  0  0  0
  -23.7409  -30.5700   19.3840 H   0  0  0  0  0  0
  -22.7611  -29.2146   19.8585 H   0  0  0  0  0  0
  -25.1304  -36.1920   25.0837 H   0  0  0  0  0  0
  -21.0030  -28.3236   24.1391 H   0  0  0  0  0  0
  -20.5650  -26.2274   23.3618 H   0  0  0  0  0  0
  -21.6622  -26.7390   22.1205 H   0  0  0  0  0  0
  -19.6869  -25.6291   21.1233 H   0  0  0  0  0  0
  -19.6648  -27.3207   20.6774 H   0  0  0  0  0  0
  -17.4180  -26.6686   21.4053 H   0  0  0  0  0  0
  -18.0294  -26.0043   22.9031 H   0  0  0  0  0  0
  -19.7948  -30.7228   24.2302 H   0  0  0  0  0  0
  -17.5038  -31.6264   24.5159 H   0  0  0  0  0  0
  -15.5371  -30.3007   23.7616 H   0  0  0  0  0  0
  -15.8678  -28.0830   22.7063 H   0  0  0  0  0  0
  -24.5836  -30.7211   25.7813 H   0  0  0  0  0  0
  -24.9048  -32.3009   26.4875 H   0  0  0  0  0  0
  -25.8075  -30.8944   27.0212 H   0  0  0  0  0  0
  -26.2930  -29.6729   24.1184 H   0  0  0  0  0  0
  -27.4043  -29.7285   25.4682 H   0  0  0  0  0  0
  -27.8789  -30.4287   23.9385 H   0  0  0  0  0  0
  -27.2547  -33.3618   26.2066 H   0  0  0  0  0  0
  -28.3819  -32.6958   25.0322 H   0  0  0  0  0  0
  -28.0669  -31.8476   26.5408 H   0  0  0  0  0  0
  -28.2572  -38.0106   24.7489 H   0  0  0  0  0  0
  -28.1088  -36.2635   24.6295 H   0  0  0  0  0  0
  -27.2303  -37.1459   25.8862 H   0  0  0  0  0  0
  -20.9262  -29.8818   21.6951 H   0  0  0  0  0  0
  -26.0166  -38.2832   24.1377 H   0  0  0  0  0  0
  -30.2879  -19.0760   21.9113 H   0  0  0  0  0  0
  -32.7388  -18.7453   17.6501 H   0  0  0  0  0  0
  -34.4212  -22.9759   17.7383 H   0  0  0  0  0  0
  -34.0751  -22.7631   16.0233 H   0  0  0  0  0  0
  -31.7642  -23.3921   16.3610 H   0  0  0  0  0  0
  -32.5732  -24.4727   17.5003 H   0  0  0  0  0  0
  -34.0654  -20.7068   17.9270 H   0  0  0  0  0  0
  -33.1488  -20.6217   16.4218 H   0  0  0  0  0  0
  -30.6884  -22.9213   18.3950 H   0  0  0  0  0  0
  -32.1981  -22.9271   19.3372 H   0  0  0  0  0  0
  -28.9641  -15.2366   22.8449 H   0  0  0  0  0  0
  -28.3304  -15.7670   21.2537 H   0  0  0  0  0  0
  -29.0994  -16.8882   22.3434 H   0  0  0  0  0  0
  -32.4380  -16.2167   21.6617 H   0  0  0  0  0  0
  -31.2737  -17.0246   22.6011 H   0  0  0  0  0  0
  -29.4589  -24.4345   21.5469 H   0  0  0  0  0  0
  -27.7471  -24.6752   21.6758 H   0  0  0  0  0  0
  -27.3481  -22.7402   20.0670 H   0  0  0  0  0  0
  -27.9542  -22.3400   21.6353 H   0  0  0  0  0  0
  -27.7837  -24.9788   19.0493 H   0  0  0  0  0  0
  -29.4766  -25.1496   19.2517 H   0  0  0  0  0  0
  -29.1851  -21.7361   19.1474 H   0  0  0  0  0  0
  1 25  1  0  0  0
  1 30  2  0  0  0
  1 89  1  0  0  0
  2  3  1  0  0  0
  2 25  1  0  0  0
  2 92  1  0  0  0
  2 93  1  0  0  0
  3  4  1  0  0  0
  3 94  1  0  0  0
  3 95  1  0  0  0
  4  5  1  0  0  0
  4 96  1  0  0  0
  4 97  1  0  0  0
  5  6  1  0  0  0
  5 26  1  0  0  0
  5 98  1  0  0  0
  6 25  1  0  0  0
  6 99  1  0  0  0
  6100  1  0  0  0
  7  8  2  0  0  0
  7 26  1  0  0  0
  7 29  1  0  0  0
  8  9  1  0  0  0
  8 22  1  0  0  0
  9 10  1  0  0  0
  9 27  2  0  0  0
 10 11  2  0  0  0
 10 15  1  0  0  0
 11 12  1  0  0  0
 11101  1  0  0  0
 12 13  2  0  0  0
 12102  1  0  0  0
 13 14  1  0  0  0
 13 31  1  0  0  0
 14 15  2  0  0  0
 14103  1  0  0  0
 15104  1  0  0  0
 16 17  2  0  0  0
 16 21  1  0  0  0
 16 31  1  0  0  0
 17 18  1  0  0  0
 17105  1  0  0  0
 18 19  2  0  0  0
 18106  1  0  0  0
 19 20  1  0  0  0
 19 24  1  0  0  0
 20 21  2  0  0  0
 20107  1  0  0  0
 21 23  1  0  0  0
 22 28  1  0  0  0
 22 32  2  0  0  0
 26 27  1  0  0  0
 28108  1  0  0  0
 28109  1  0  0  0
 29110  1  0  0  0
 29111  1  0  0  0
 33 34  1  0  0  0
 33 66  1  0  0  0
 33 70  2  0  0  0
 34 36  1  0  0  0
 34 59  1  0  0  0
 34112  1  0  0  0
 35 44  2  0  0  0
 35 45  1  0  0  0
 35 68  1  0  0  0
 36 56  1  0  0  0
 36113  1  0  0  0
 37 39  1  0  0  0
 37 47  1  0  0  0
 37 66  1  0  0  0
 37114  1  0  0  0
 38 43  2  0  0  0
 38 46  1  0  0  0
 38 47  1  0  0  0
 39 64  1  0  0  0
 39 67  2  0  0  0
 40 52  1  0  0  0
 40 53  2  0  0  0
 40 58  1  0  0  0
 41115  1  0  0  0
 41116  1  0  0  0
 41117  1  0  0  0
 41 48  1  0  0  0
 42 43  1  0  0  0
 42 66  1  0  0  0
 42118  1  0  0  0
 42119  1  0  0  0
 43 44  1  0  0  0
 44120  1  0  0  0
 45 46  2  0  0  0
 45121  1  0  0  0
 46122  1  0  0  0
 47123  1  0  0  0
 47124  1  0  0  0
 48 56  1  0  0  0
 48 65  1  0  0  0
 48125  1  0  0  0
 49 50  1  0  0  0
 49 53  1  0  0  0
 49 64  1  0  0  0
 49126  1  0  0  0
 50 51  1  0  0  0
 50127  1  0  0  0
 50128  1  0  0  0
 51 52  1  0  0  0
 51129  1  0  0  0
 51130  1  0  0  0
 52131  1  0  0  0
 52132  1  0  0  0
 53 54  1  0  0  0
 54 55  2  0  0  0
 54133  1  0  0  0
 55 57  1  0  0  0
 55134  1  0  0  0
 56 69  2  0  0  0
 57 58  2  0  0  0
 57135  1  0  0  0
 58136  1  0  0  0
 59 60  1  0  0  0
 59 61  1  0  0  0
 59 62  1  0  0  0
 60137  1  0  0  0
 60138  1  0  0  0
 60139  1  0  0  0
 61140  1  0  0  0
 61141  1  0  0  0
 61142  1  0  0  0
 62143  1  0  0  0
 62144  1  0  0  0
 62145  1  0  0  0
 63 65  1  0  0  0
 63146  1  0  0  0
 63147  1  0  0  0
 63148  1  0  0  0
 64149  1  0  0  0
 65150  1  0  0  0
 68 86  1  0  0  0
 71 73  2  0  0  0
 71 74  1  0  0  0
 71151  1  0  0  0
 72 75  2  0  0  0
 72 76  1  0  0  0
 72152  1  0  0  0
 73 75  1  0  0  0
 73 77  1  0  0  0
 74 76  2  0  0  0
 74 83  1  0  0  0
 75 87  1  0  0  0
 76 91  1  0  0  0
 77 88  1  0  0  0
 77 90  2  0  0  0
 78 79  1  0  0  0
 78 80  1  0  0  0
 78153  1  0  0  0
 78154  1  0  0  0
 79 81  1  0  0  0
 79155  1  0  0  0
 79156  1  0  0  0
 80 87  1  0  0  0
 80157  1  0  0  0
 80158  1  0  0  0
 81 87  1  0  0  0
 81159  1  0  0  0
 81160  1  0  0  0
 82 89  1  0  0  0
 82161  1  0  0  0
 82162  1  0  0  0
 82163  1  0  0  0
 83 89  1  0  0  0
 83164  1  0  0  0
 83165  1  0  0  0
 84 85  1  0  0  0
 84 86  1  0  0  0
 84166  1  0  0  0
 84167  1  0  0  0
 85 88  1  0  0  0
 85168  1  0  0  0
 85169  1  0  0  0
 86170  1  0  0  0
 86171  1  0  0  0
 88172  1  0  0  0
M  ISO  4   1 100  68 101  86 101  89 100
M  END
> <chiral flag>
0

> <version>
0

> <s_m_source_file>
/data/baiqing/PycharmProjects/Reinvent-master-3.2/result/LINK_invent/BTK/process_docking_weight1_custom_product_contain_oxygen_bond_distance_aromatic_linkinvent_7_9_3/rearranged_h_0019.sdf

> <i_m_source_file_index>
71

> <r_mmod_Potential_Energy-OPLS-2005>
286.564361572266

> <r_mmod_Stretch_Energy-OPLS-2005>
56.8935966491699

> <r_mmod_Bend_Energy-OPLS-2005>
216.609268188477

> <r_mmod_Torsional_Energy-OPLS-2005>
317.383880615234

> <r_mmod_Improper_Torsional_Energy-OPLS-2005>
7.29583549499512

> <r_mmod_Van_der_Waal_Energy-OPLS-2005>
183.441619873047

> <r_mmod_Electrostatic_Energy-OPLS-2005>
-270.656097412109

> <r_mmod_Solvation_Energy-OPLS-2005>
-244.222778320312

> <b_mmod_Minimization_Converged-OPLS-2005>
0

> <r_mmod_RMS_Derivative-OPLS-2005>
6.23007678985596

$$$$
71
                    3D
 Structure written by MMmdl.
161169  0  0  1  0            999 V2000
  -30.7332  -14.4927   20.5807 C   0  0  0  0  0  0
  -30.4128  -12.3285   19.4217 C   0  0  0  0  0  0
  -29.4850  -12.4981   18.2034 C   0  0  0  0  0  0
  -28.0107  -12.3429   18.6229 C   0  0  0  0  0  0
  -27.6501  -13.1971   19.8659 C   0  0  2  0  0  0
  -28.6994  -13.0300   20.9904 C   0  0  0  0  0  0
  -25.2556  -13.8116   20.5686 C   0  0  0  0  0  0
  -24.1818  -13.0403   20.9208 C   0  0  0  0  0  0
  -24.6363  -11.6873   20.8763 C   0  0  0  0  0  0
  -23.9026  -10.4270   21.0423 C   0  0  0  0  0  0
  -24.3584   -9.4188   21.9202 C   0  0  0  0  0  0
  -23.6265   -8.2221   22.0765 C   0  0  0  0  0  0
  -22.4251   -8.0259   21.3549 C   0  0  0  0  0  0
  -21.9887   -9.0232   20.4651 C   0  0  0  0  0  0
  -22.7204  -10.2116   20.3063 C   0  0  0  0  0  0
  -21.6843   -6.0717   22.5279 C   0  0  0  0  0  0
  -21.4006   -6.5630   23.8212 C   0  0  0  0  0  0
  -21.3660   -5.6787   24.9179 C   0  0  0  0  0  0
  -21.6049   -4.3051   24.7233 C   0  0  0  0  0  0
  -21.8822   -3.8134   23.4359 C   0  0  0  0  0  0
  -21.9191   -4.6946   22.3409 C   0  0  0  0  0  0
  -22.7848  -13.5219   21.1865 C   0  0  0  0  0  0
  -22.1659   -4.2129   21.0987 F   0  0  0  0  0  0
  -21.5634   -3.4539   25.7750 F   0  0  0  0  0  0
  -30.0250  -13.3346   20.4272 N   0  0  0  0  0  0
  -26.2969  -12.9259   20.3356 N   0  0  0  0  0  0
  -25.9283  -11.6437   20.5789 N   0  0  0  0  0  0
  -22.0486  -12.8208   22.0416 N   0  0  0  0  0  0
  -25.4251  -15.1829   20.4045 N   0  0  0  0  0  0
  -31.8621  -14.6356   20.1014 O   0  0  0  0  0  0
  -21.6624   -6.8853   21.4236 O   0  0  0  0  0  0
  -22.3554  -14.5535   20.6725 O   0  0  0  0  0  0
  -24.6150  -31.8672   23.2090 C   0  0  0  0  0  0
  -25.9042  -32.4814   23.8391 C   0  0  1  0  0  0
  -27.2380  -27.4239   20.0877 C   0  0  0  0  0  0
  -25.5898  -33.8613   24.2323 N   0  0  0  0  0  0
  -23.4030  -30.4905   21.5497 C   0  0  2  0  0  0
  -24.8470  -28.9518   20.1166 C   0  0  0  0  0  0
  -22.7405  -29.4660   22.4988 C   0  0  0  0  0  0
  -18.0271  -28.1379   22.8485 C   0  0  0  0  0  0
  -24.1482  -36.7306   23.2647 C   0  0  0  0  0  0
  -25.9325  -30.8275   21.3642 C   0  0  0  0  0  0
  -26.0076  -29.4602   20.7123 C   0  0  0  0  0  0
  -27.2014  -28.7027   20.6952 C   0  0  0  0  0  0
  -26.0510  -26.9259   19.5007 C   0  0  0  0  0  0
  -24.8639  -27.6832   19.5122 C   0  0  0  0  0  0
  -23.6116  -29.8227   20.1643 C   0  0  0  0  0  0
  -25.4107  -36.3102   24.0338 C   0  0  1  0  0  0
  -20.5864  -28.3664   23.1309 C   0  0  2  0  0  0
  -20.6770  -26.9405   22.5405 C   0  0  0  0  0  0
  -19.5741  -26.6391   21.5199 C   0  0  0  0  0  0
  -18.1918  -26.7928   22.1616 C   0  0  0  0  0  0
  -19.1522  -28.8835   23.2895 C   0  0  0  0  0  0
  -18.9455  -30.1439   23.8906 C   0  0  0  0  0  0
  -17.6464  -30.6589   24.0561 C   0  0  0  0  0  0
  -25.9038  -34.9469   23.5131 C   0  0  0  0  0  0
  -16.5349  -29.9097   23.6324 C   0  0  0  0  0  0
  -16.7265  -28.6513   23.0342 C   0  0  0  0  0  0
  -26.4481  -31.6598   25.0718 C   0  0  0  0  0  0
  -25.3756  -31.3654   26.1464 C   0  0  0  0  0  0
  -27.0357  -30.3067   24.6085 C   0  0  0  0  0  0
  -27.6048  -32.4340   25.7480 C   0  0  0  0  0  0
  -27.5578  -37.1801   24.8478 C   0  0  0  0  0  0
  -21.4136  -29.3030   22.3711 N   0  0  0  0  0  0
  -26.4294  -37.3790   23.9419 N   0  0  0  0  0  0
  -24.6685  -31.0769   22.0992 N   0  0  0  0  0  0
  -23.4166  -28.8218   23.3051 O   0  0  0  0  0  0
  -28.4361  -26.7301   20.0924 O   0  0  0  0  0  0
  -26.5607  -34.8922   22.4699 O   0  0  0  0  0  0
  -23.5338  -32.1444   23.7471 O   0  0  0  0  0  0
  -30.0309  -18.4314   19.7030 C   0  0  0  0  0  0
  -28.6313  -20.0970   21.4713 C   0  0  0  0  0  0
  -29.2376  -17.8386   20.7096 C   0  0  0  0  0  0
  -29.4180  -20.7028   20.4632 C   0  0  0  0  0  0
  -30.1224  -19.8374   19.5763 C   0  0  0  0  0  0
  -28.5443  -18.6920   21.5988 C   0  0  0  0  0  0
  -30.7553  -22.7140   19.9787 C   0  0  0  0  0  0
  -31.0005  -16.1732   22.3182 C   0  0  0  0  0  0
  -29.0617  -16.3084   20.7784 C   0  0  0  0  0  0
  -28.1343  -24.2931   20.5647 C   0  0  0  0  0  0
  -28.2380  -22.8298   20.0393 C   0  0  0  0  0  0
  -28.5344  -25.3990   19.5523 C   0  0  0  0  0  0
  -29.4829  -22.1245   20.3911 N   0  0  0  0  0  0
  -30.1758  -15.4916   21.3162 N   0  0  0  0  0  0
  -30.8777  -20.3400   18.5689 F   0  0  0  0  0  0
  -27.7790  -18.1638   22.5830 F   0  0  0  0  0  0
  -31.4564  -12.4174   19.1143 H   0  0  0  0  0  0
  -30.3116  -11.3257   19.8405 H   0  0  0  0  0  0
  -29.7316  -11.7624   17.4370 H   0  0  0  0  0  0
  -29.6407  -13.4784   17.7494 H   0  0  0  0  0  0
  -27.8363  -11.2869   18.8337 H   0  0  0  0  0  0
  -27.3538  -12.5980   17.7906 H   0  0  0  0  0  0
  -27.6619  -14.2274   19.5266 H   0  0  0  0  0  0
  -28.6907  -12.0081   21.3724 H   0  0  0  0  0  0
  -28.4556  -13.6623   21.8448 H   0  0  0  0  0  0
  -25.2727   -9.5679   22.4781 H   0  0  0  0  0  0
  -23.9982   -7.4617   22.7486 H   0  0  0  0  0  0
  -21.0823   -8.8738   19.8953 H   0  0  0  0  0  0
  -22.3654  -10.9655   19.6175 H   0  0  0  0  0  0
  -21.1989   -7.6140   23.9702 H   0  0  0  0  0  0
  -21.1484   -6.0524   25.9078 H   0  0  0  0  0  0
  -22.0600   -2.7594   23.2864 H   0  0  0  0  0  0
  -22.4091  -11.9852   22.4780 H   0  0  0  0  0  0
  -21.1114  -13.1248   22.2635 H   0  0  0  0  0  0
  -24.6528  -15.8319   20.5113 H   0  0  0  0  0  0
  -26.2639  -15.6232   20.0522 H   0  0  0  0  0  0
  -26.7113  -32.5518   23.1155 H   0  0  0  0  0  0
  -25.0034  -33.9772   25.0459 H   0  0  0  0  0  0
  -22.6912  -31.3072   21.4106 H   0  0  0  0  0  0
  -23.3747  -35.9638   23.3315 H   0  0  0  0  0  0
  -24.3571  -36.8928   22.2067 H   0  0  0  0  0  0
  -23.7228  -37.6502   23.6674 H   0  0  0  0  0  0
  -26.0488  -31.5914   20.5939 H   0  0  0  0  0  0
  -26.8201  -30.8807   21.9830 H   0  0  0  0  0  0
  -28.1006  -29.0961   21.1500 H   0  0  0  0  0  0
  -26.0135  -25.9565   19.0287 H   0  0  0  0  0  0
  -23.9705  -27.2814   19.0542 H   0  0  0  0  0  0
  -23.7256  -30.5986   19.4059 H   0  0  0  0  0  0
  -22.7343  -29.2463   19.8663 H   0  0  0  0  0  0
  -25.1278  -36.1969   25.0835 H   0  0  0  0  0  0
  -20.9945  -28.3244   24.1437 H   0  0  0  0  0  0
  -20.5688  -26.2270   23.3587 H   0  0  0  0  0  0
  -21.6638  -26.7462   22.1191 H   0  0  0  0  0  0
  -19.6899  -25.6302   21.1227 H   0  0  0  0  0  0
  -19.6676  -27.3198   20.6729 H   0  0  0  0  0  0
  -17.4184  -26.6660   21.4026 H   0  0  0  0  0  0
  -18.0330  -26.0070   22.9017 H   0  0  0  0  0  0
  -19.7934  -30.7239   24.2287 H   0  0  0  0  0  0
  -17.5029  -31.6272   24.5160 H   0  0  0  0  0  0
  -15.5350  -30.3010   23.7641 H   0  0  0  0  0  0
  -15.8664  -28.0842   22.7048 H   0  0  0  0  0  0
  -24.5917  -30.7034   25.7769 H   0  0  0  0  0  0
  -24.8952  -32.2782   26.4995 H   0  0  0  0  0  0
  -25.8121  -30.8746   27.0171 H   0  0  0  0  0  0
  -26.2895  -29.6760   24.1234 H   0  0  0  0  0  0
  -27.4272  -29.7367   25.4521 H   0  0  0  0  0  0
  -27.8665  -30.4431   23.9156 H   0  0  0  0  0  0
  -27.2660  -33.3640   26.2063 H   0  0  0  0  0  0
  -28.3842  -32.6905   25.0290 H   0  0  0  0  0  0
  -28.0740  -31.8465   26.5380 H   0  0  0  0  0  0
  -28.2593  -38.0103   24.7542 H   0  0  0  0  0  0
  -28.1070  -36.2627   24.6297 H   0  0  0  0  0  0
  -27.2283  -37.1452   25.8877 H   0  0  0  0  0  0
  -20.9300  -29.8750   21.6931 H   0  0  0  0  0  0
  -26.0176  -38.2868   24.1421 H   0  0  0  0  0  0
  -30.5614  -17.8082   18.9983 H   0  0  0  0  0  0
  -28.0899  -20.7125   22.1730 H   0  0  0  0  0  0
  -31.6047  -22.0963   20.2746 H   0  0  0  0  0  0
  -30.8943  -23.6888   20.4472 H   0  0  0  0  0  0
  -30.7921  -22.8521   18.8970 H   0  0  0  0  0  0
  -30.3749  -16.6687   23.0615 H   0  0  0  0  0  0
  -31.6414  -16.9234   21.8521 H   0  0  0  0  0  0
  -31.6418  -15.4686   22.8497 H   0  0  0  0  0  0
  -28.8445  -16.0015   19.7555 H   0  0  0  0  0  0
  -28.1692  -16.0731   21.3585 H   0  0  0  0  0  0
  -28.7004  -24.4063   21.4900 H   0  0  0  0  0  0
  -27.0947  -24.4695   20.8416 H   0  0  0  0  0  0
  -28.1008  -22.8143   18.9569 H   0  0  0  0  0  0
  -27.3939  -22.2706   20.4472 H   0  0  0  0  0  0
  -27.9947  -25.2983   18.6114 H   0  0  0  0  0  0
  -29.5809  -25.2579   19.2827 H   0  0  0  0  0  0
  1 25  1  0  0  0
  1 30  2  0  0  0
  1 84  1  0  0  0
  2  3  1  0  0  0
  2 25  1  0  0  0
  2 87  1  0  0  0
  2 88  1  0  0  0
  3  4  1  0  0  0
  3 89  1  0  0  0
  3 90  1  0  0  0
  4  5  1  0  0  0
  4 91  1  0  0  0
  4 92  1  0  0  0
  5  6  1  0  0  0
  5 26  1  0  0  0
  5 93  1  0  0  0
  6 25  1  0  0  0
  6 94  1  0  0  0
  6 95  1  0  0  0
  7  8  2  0  0  0
  7 26  1  0  0  0
  7 29  1  0  0  0
  8  9  1  0  0  0
  8 22  1  0  0  0
  9 10  1  0  0  0
  9 27  2  0  0  0
 10 11  2  0  0  0
 10 15  1  0  0  0
 11 12  1  0  0  0
 11 96  1  0  0  0
 12 13  2  0  0  0
 12 97  1  0  0  0
 13 14  1  0  0  0
 13 31  1  0  0  0
 14 15  2  0  0  0
 14 98  1  0  0  0
 15 99  1  0  0  0
 16 17  2  0  0  0
 16 21  1  0  0  0
 16 31  1  0  0  0
 17 18  1  0  0  0
 17100  1  0  0  0
 18 19  2  0  0  0
 18101  1  0  0  0
 19 20  1  0  0  0
 19 24  1  0  0  0
 20 21  2  0  0  0
 20102  1  0  0  0
 21 23  1  0  0  0
 22 28  1  0  0  0
 22 32  2  0  0  0
 26 27  1  0  0  0
 28103  1  0  0  0
 28104  1  0  0  0
 29105  1  0  0  0
 29106  1  0  0  0
 33 34  1  0  0  0
 33 66  1  0  0  0
 33 70  2  0  0  0
 34 36  1  0  0  0
 34 59  1  0  0  0
 34107  1  0  0  0
 35 44  2  0  0  0
 35 45  1  0  0  0
 35 68  1  0  0  0
 36 56  1  0  0  0
 36108  1  0  0  0
 37 39  1  0  0  0
 37 47  1  0  0  0
 37 66  1  0  0  0
 37109  1  0  0  0
 38 43  2  0  0  0
 38 46  1  0  0  0
 38 47  1  0  0  0
 39 64  1  0  0  0
 39 67  2  0  0  0
 40 52  1  0  0  0
 40 53  2  0  0  0
 40 58  1  0  0  0
 41110  1  0  0  0
 41111  1  0  0  0
 41112  1  0  0  0
 41 48  1  0  0  0
 42 43  1  0  0  0
 42 66  1  0  0  0
 42113  1  0  0  0
 42114  1  0  0  0
 43 44  1  0  0  0
 44115  1  0  0  0
 45 46  2  0  0  0
 45116  1  0  0  0
 46117  1  0  0  0
 47118  1  0  0  0
 47119  1  0  0  0
 48 56  1  0  0  0
 48 65  1  0  0  0
 48120  1  0  0  0
 49 50  1  0  0  0
 49 53  1  0  0  0
 49 64  1  0  0  0
 49121  1  0  0  0
 50 51  1  0  0  0
 50122  1  0  0  0
 50123  1  0  0  0
 51 52  1  0  0  0
 51124  1  0  0  0
 51125  1  0  0  0
 52126  1  0  0  0
 52127  1  0  0  0
 53 54  1  0  0  0
 54 55  2  0  0  0
 54128  1  0  0  0
 55 57  1  0  0  0
 55129  1  0  0  0
 56 69  2  0  0  0
 57 58  2  0  0  0
 57130  1  0  0  0
 58131  1  0  0  0
 59 60  1  0  0  0
 59 61  1  0  0  0
 59 62  1  0  0  0
 60132  1  0  0  0
 60133  1  0  0  0
 60134  1  0  0  0
 61135  1  0  0  0
 61136  1  0  0  0
 61137  1  0  0  0
 62138  1  0  0  0
 62139  1  0  0  0
 62140  1  0  0  0
 63 65  1  0  0  0
 63141  1  0  0  0
 63142  1  0  0  0
 63143  1  0  0  0
 64144  1  0  0  0
 65145  1  0  0  0
 68 82  1  0  0  0
 71 73  2  0  0  0
 71 75  1  0  0  0
 71146  1  0  0  0
 72 74  1  0  0  0
 72 76  2  0  0  0
 72147  1  0  0  0
 73 76  1  0  0  0
 73 79  1  0  0  0
 74 75  2  0  0  0
 74 83  1  0  0  0
 75 85  1  0  0  0
 76 86  1  0  0  0
 77 83  1  0  0  0
 77148  1  0  0  0
 77149  1  0  0  0
 77150  1  0  0  0
 78 84  1  0  0  0
 78151  1  0  0  0
 78152  1  0  0  0
 78153  1  0  0  0
 79 84  1  0  0  0
 79154  1  0  0  0
 79155  1  0  0  0
 80 81  1  0  0  0
 80 82  1  0  0  0
 80156  1  0  0  0
 80157  1  0  0  0
 81 83  1  0  0  0
 81158  1  0  0  0
 81159  1  0  0  0
 82160  1  0  0  0
 82161  1  0  0  0
M  ISO  4   1 100  68 101  82 101  84 100
M  END
> <chiral flag>
0

> <version>
0

> <s_m_source_file>
/data/baiqing/PycharmProjects/Reinvent-master-3.2/result/LINK_invent/BTK/process_docking_weight1_custom_product_contain_oxygen_bond_distance_aromatic_linkinvent_7_9_3/rearranged_h_0019.sdf

> <i_m_source_file_index>
72

> <r_mmod_Potential_Energy-OPLS-2005>
150.318923950195

> <r_mmod_Stretch_Energy-OPLS-2005>
44.6312522888184

> <r_mmod_Bend_Energy-OPLS-2005>
116.942512512207

> <r_mmod_Torsional_Energy-OPLS-2005>
279.392028808594

> <r_mmod_Improper_Torsional_Energy-OPLS-2005>
6.06057357788086

> <r_mmod_Van_der_Waal_Energy-OPLS-2005>
154.647445678711

> <r_mmod_Electrostatic_Energy-OPLS-2005>
-265.560791015625

> <r_mmod_Solvation_Energy-OPLS-2005>
-201.361373901367

> <b_mmod_Minimization_Converged-OPLS-2005>
0

> <r_mmod_RMS_Derivative-OPLS-2005>
1.45445871353149

$$$$
72
                    3D
 Structure written by MMmdl.
159167  0  0  1  0            999 V2000
  -30.6191  -14.6329   20.5159 C   0  0  0  0  0  0
  -30.4440  -12.3920   19.4518 C   0  0  0  0  0  0
  -29.5124  -12.5113   18.2247 C   0  0  0  0  0  0
  -28.0350  -12.3436   18.6346 C   0  0  0  0  0  0
  -27.6562  -13.2124   19.8639 C   0  0  2  0  0  0
  -28.6989  -13.0550   20.9934 C   0  0  0  0  0  0
  -25.2580  -13.8166   20.5681 C   0  0  0  0  0  0
  -24.1836  -13.0438   20.9179 C   0  0  0  0  0  0
  -24.6394  -11.6909   20.8714 C   0  0  0  0  0  0
  -23.9051  -10.4297   21.0384 C   0  0  0  0  0  0
  -24.3609   -9.4213   21.9164 C   0  0  0  0  0  0
  -23.6291   -8.2246   22.0741 C   0  0  0  0  0  0
  -22.4273   -8.0279   21.3537 C   0  0  0  0  0  0
  -21.9899   -9.0245   20.4637 C   0  0  0  0  0  0
  -22.7218  -10.2129   20.3040 C   0  0  0  0  0  0
  -21.6857   -6.0731   22.5279 C   0  0  0  0  0  0
  -21.4015   -6.5632   23.8211 C   0  0  0  0  0  0
  -21.3660   -5.6784   24.9171 C   0  0  0  0  0  0
  -21.6043   -4.3047   24.7222 C   0  0  0  0  0  0
  -21.8821   -3.8140   23.4341 C   0  0  0  0  0  0
  -21.9194   -4.6957   22.3400 C   0  0  0  0  0  0
  -22.7859  -13.5232   21.1841 C   0  0  0  0  0  0
  -22.1665   -4.2141   21.0976 F   0  0  0  0  0  0
  -21.5626   -3.4533   25.7735 F   0  0  0  0  0  0
  -30.0173  -13.4037   20.4381 N   0  0  0  0  0  0
  -26.3003  -12.9336   20.3302 N   0  0  0  0  0  0
  -25.9317  -11.6495   20.5722 N   0  0  0  0  0  0
  -22.0493  -12.8241   22.0404 N   0  0  0  0  0  0
  -25.4304  -15.1891   20.4129 N   0  0  0  0  0  0
  -31.7706  -14.8121   20.1091 O   0  0  0  0  0  0
  -21.6641   -6.8874   21.4244 O   0  0  0  0  0  0
  -22.3545  -14.5532   20.6675 O   0  0  0  0  0  0
  -24.6250  -31.8604   23.2039 C   0  0  0  0  0  0
  -25.9102  -32.4783   23.8359 C   0  0  1  0  0  0
  -27.2247  -27.3239   20.1021 C   0  0  0  0  0  0
  -25.5914  -33.8584   24.2276 N   0  0  0  0  0  0
  -23.4176  -30.4869   21.5459 C   0  0  2  0  0  0
  -24.8626  -28.9461   20.1098 C   0  0  0  0  0  0
  -22.7458  -29.4635   22.4921 C   0  0  0  0  0  0
  -18.0285  -28.1383   22.8482 C   0  0  0  0  0  0
  -24.1487  -36.7302   23.2638 C   0  0  0  0  0  0
  -25.9599  -30.7909   21.3772 C   0  0  0  0  0  0
  -26.0317  -29.4196   20.7175 C   0  0  0  0  0  0
  -27.2108  -28.6178   20.7106 C   0  0  0  0  0  0
  -26.0280  -26.9103   19.4647 C   0  0  0  0  0  0
  -24.8632  -27.6961   19.4778 C   0  0  0  0  0  0
  -23.6320  -29.8263   20.1596 C   0  0  0  0  0  0
  -25.4111  -36.3085   24.0326 C   0  0  1  0  0  0
  -20.5883  -28.3689   23.1275 C   0  0  2  0  0  0
  -20.6768  -26.9411   22.5403 C   0  0  0  0  0  0
  -19.5750  -26.6384   21.5199 C   0  0  0  0  0  0
  -18.1933  -26.7926   22.1619 C   0  0  0  0  0  0
  -19.1538  -28.8849   23.2880 C   0  0  0  0  0  0
  -18.9464  -30.1449   23.8902 C   0  0  0  0  0  0
  -17.6466  -30.6590   24.0562 C   0  0  0  0  0  0
  -25.9046  -34.9454   23.5100 C   0  0  0  0  0  0
  -16.5355  -29.9095   23.6324 C   0  0  0  0  0  0
  -16.7273  -28.6508   23.0349 C   0  0  0  0  0  0
  -26.4487  -31.6598   25.0732 C   0  0  0  0  0  0
  -25.3725  -31.3749   26.1466 C   0  0  0  0  0  0
  -27.0322  -30.3012   24.6204 C   0  0  0  0  0  0
  -27.6044  -32.4338   25.7499 C   0  0  0  0  0  0
  -27.5578  -37.1802   24.8461 C   0  0  0  0  0  0
  -21.4172  -29.3050   22.3667 N   0  0  0  0  0  0
  -26.4288  -37.3779   23.9405 N   0  0  0  0  0  0
  -24.6862  -31.0622   22.0990 N   0  0  0  0  0  0
  -23.4186  -28.8163   23.2987 O   0  0  0  0  0  0
  -28.3577  -26.4903   20.1678 O   0  0  0  0  0  0
  -26.5619  -34.8917   22.4670 O   0  0  0  0  0  0
  -23.5417  -32.1403   23.7371 O   0  0  0  0  0  0
  -28.8070  -19.3001   21.3995 C   0  0  0  0  0  0
  -28.8284  -17.8751   21.4218 C   0  0  0  0  0  0
  -30.8980  -17.8673   20.1974 C   0  0  0  0  0  0
  -29.8359  -20.0533   20.7801 C   0  0  0  0  0  0
  -29.8781  -17.1142   20.8404 C   0  0  0  0  0  0
  -30.8758  -19.2967   20.1677 C   0  0  0  0  0  0
  -28.7092  -25.3580   18.1226 C   0  0  0  0  0  0
  -28.9373  -22.1101   18.6834 C   0  0  0  0  0  0
  -29.9172  -21.6241   20.9072 C   0  0  0  0  0  0
  -29.2883  -24.0366   20.2977 C   0  0  0  0  0  0
  -28.3386  -25.1201   19.6016 C   0  0  1  0  0  0
  -29.8091  -15.6544   20.9351 N   0  0  0  0  0  0
  -29.0077  -22.5365   20.1018 N   0  3  1  0  0  0
  -31.8961  -19.9505   19.5621 F   0  0  0  0  0  0
  -31.4854  -12.5227   19.1522 H   0  0  0  0  0  0
  -30.3815  -11.3933   19.8868 H   0  0  0  0  0  0
  -29.7814  -11.7653   17.4756 H   0  0  0  0  0  0
  -29.6522  -13.4841   17.7502 H   0  0  0  0  0  0
  -27.8771  -11.2900   18.8673 H   0  0  0  0  0  0
  -27.3799  -12.5698   17.7926 H   0  0  0  0  0  0
  -27.6777  -14.2495   19.5287 H   0  0  0  0  0  0
  -28.7095  -12.0280   21.3617 H   0  0  0  0  0  0
  -28.4384  -13.6715   21.8547 H   0  0  0  0  0  0
  -25.2755   -9.5697   22.4733 H   0  0  0  0  0  0
  -24.0005   -7.4638   22.7463 H   0  0  0  0  0  0
  -21.0825   -8.8749   19.8957 H   0  0  0  0  0  0
  -22.3660  -10.9655   19.6150 H   0  0  0  0  0  0
  -21.2012   -7.6141   23.9713 H   0  0  0  0  0  0
  -21.1482   -6.0511   25.9072 H   0  0  0  0  0  0
  -22.0602   -2.7605   23.2841 H   0  0  0  0  0  0
  -22.4106  -11.9921   22.4828 H   0  0  0  0  0  0
  -21.1096  -13.1258   22.2575 H   0  0  0  0  0  0
  -24.6624  -15.8423   20.5229 H   0  0  0  0  0  0
  -26.2751  -15.6281   20.0697 H   0  0  0  0  0  0
  -26.7165  -32.5448   23.1105 H   0  0  0  0  0  0
  -25.0028  -33.9730   25.0396 H   0  0  0  0  0  0
  -22.7126  -31.3084   21.4052 H   0  0  0  0  0  0
  -23.3744  -35.9640   23.3298 H   0  0  0  0  0  0
  -24.3578  -36.8927   22.2053 H   0  0  0  0  0  0
  -23.7247  -37.6505   23.6666 H   0  0  0  0  0  0
  -26.0940  -31.5570   20.6118 H   0  0  0  0  0  0
  -26.8393  -30.8348   22.0083 H   0  0  0  0  0  0
  -28.1061  -28.9781   21.1983 H   0  0  0  0  0  0
  -25.9421  -25.9709   18.9430 H   0  0  0  0  0  0
  -23.9689  -27.3304   18.9922 H   0  0  0  0  0  0
  -23.7516  -30.6048   19.4056 H   0  0  0  0  0  0
  -22.7517  -29.2575   19.8548 H   0  0  0  0  0  0
  -25.1293  -36.1932   25.0819 H   0  0  0  0  0  0
  -20.9987  -28.3263   24.1389 H   0  0  0  0  0  0
  -20.5645  -26.2301   23.3601 H   0  0  0  0  0  0
  -21.6641  -26.7427   22.1212 H   0  0  0  0  0  0
  -19.6910  -25.6292   21.1234 H   0  0  0  0  0  0
  -19.6690  -27.3184   20.6720 H   0  0  0  0  0  0
  -17.4194  -26.6658   21.4032 H   0  0  0  0  0  0
  -18.0354  -26.0070   22.9021 H   0  0  0  0  0  0
  -19.7943  -30.7256   24.2278 H   0  0  0  0  0  0
  -17.5028  -31.6270   24.5161 H   0  0  0  0  0  0
  -15.5358  -30.3004   23.7642 H   0  0  0  0  0  0
  -15.8669  -28.0830   22.7066 H   0  0  0  0  0  0
  -24.5886  -30.7111   25.7802 H   0  0  0  0  0  0
  -24.8941  -32.2926   26.4897 H   0  0  0  0  0  0
  -25.8056  -30.8922   27.0236 H   0  0  0  0  0  0
  -26.2898  -29.6770   24.1221 H   0  0  0  0  0  0
  -27.3983  -29.7267   25.4722 H   0  0  0  0  0  0
  -27.8786  -30.4273   23.9450 H   0  0  0  0  0  0
  -27.2637  -33.3619   26.2102 H   0  0  0  0  0  0
  -28.3841  -32.6935   25.0326 H   0  0  0  0  0  0
  -28.0732  -31.8457   26.5400 H   0  0  0  0  0  0
  -28.2594  -38.0100   24.7505 H   0  0  0  0  0  0
  -28.1074  -36.2632   24.6288 H   0  0  0  0  0  0
  -27.2298  -37.1453   25.8864 H   0  0  0  0  0  0
  -20.9330  -29.8798   21.6914 H   0  0  0  0  0  0
  -26.0169  -38.2849   24.1423 H   0  0  0  0  0  0
  -27.9982  -19.8153   21.8994 H   0  0  0  0  0  0
  -28.0164  -17.3646   21.9222 H   0  0  0  0  0  0
  -31.7266  -17.3610   19.7254 H   0  0  0  0  0  0
  -28.6245  -24.4740   17.5002 H   0  0  0  0  0  0
  -29.7334  -25.7203   18.0368 H   0  0  0  0  0  0
  -28.0654  -26.1097   17.6680 H   0  0  0  0  0  0
  -28.8226  -21.0313   18.5854 H   0  0  0  0  0  0
  -29.8341  -22.3997   18.1348 H   0  0  0  0  0  0
  -28.0629  -22.5344   18.1939 H   0  0  0  0  0  0
  -30.9458  -21.9191   20.6971 H   0  0  0  0  0  0
  -29.7689  -21.8640   21.9607 H   0  0  0  0  0  0
  -29.2371  -24.2199   21.3717 H   0  0  0  0  0  0
  -30.3226  -24.2441   20.0206 H   0  0  0  0  0  0
  -27.3429  -24.6920   19.6890 H   0  0  0  0  0  0
  -28.9370  -15.3072   21.3028 H   0  0  0  0  0  0
  -28.0840  -22.3685   20.4736 H   0  0  0  0  0  0
  1 25  1  0  0  0
  1 30  2  0  0  0
  1 82  1  0  0  0
  2  3  1  0  0  0
  2 25  1  0  0  0
  2 85  1  0  0  0
  2 86  1  0  0  0
  3  4  1  0  0  0
  3 87  1  0  0  0
  3 88  1  0  0  0
  4  5  1  0  0  0
  4 89  1  0  0  0
  4 90  1  0  0  0
  5  6  1  0  0  0
  5 26  1  0  0  0
  5 91  1  0  0  0
  6 25  1  0  0  0
  6 92  1  0  0  0
  6 93  1  0  0  0
  7  8  2  0  0  0
  7 26  1  0  0  0
  7 29  1  0  0  0
  8  9  1  0  0  0
  8 22  1  0  0  0
  9 10  1  0  0  0
  9 27  2  0  0  0
 10 11  2  0  0  0
 10 15  1  0  0  0
 11 12  1  0  0  0
 11 94  1  0  0  0
 12 13  2  0  0  0
 12 95  1  0  0  0
 13 14  1  0  0  0
 13 31  1  0  0  0
 14 15  2  0  0  0
 14 96  1  0  0  0
 15 97  1  0  0  0
 16 17  2  0  0  0
 16 21  1  0  0  0
 16 31  1  0  0  0
 17 18  1  0  0  0
 17 98  1  0  0  0
 18 19  2  0  0  0
 18 99  1  0  0  0
 19 20  1  0  0  0
 19 24  1  0  0  0
 20 21  2  0  0  0
 20100  1  0  0  0
 21 23  1  0  0  0
 22 28  1  0  0  0
 22 32  2  0  0  0
 26 27  1  0  0  0
 28101  1  0  0  0
 28102  1  0  0  0
 29103  1  0  0  0
 29104  1  0  0  0
 33 34  1  0  0  0
 33 66  1  0  0  0
 33 70  2  0  0  0
 34 36  1  0  0  0
 34 59  1  0  0  0
 34105  1  0  0  0
 35 44  2  0  0  0
 35 45  1  0  0  0
 35 68  1  0  0  0
 36 56  1  0  0  0
 36106  1  0  0  0
 37 39  1  0  0  0
 37 47  1  0  0  0
 37 66  1  0  0  0
 37107  1  0  0  0
 38 43  2  0  0  0
 38 46  1  0  0  0
 38 47  1  0  0  0
 39 64  1  0  0  0
 39 67  2  0  0  0
 40 52  1  0  0  0
 40 53  2  0  0  0
 40 58  1  0  0  0
 41108  1  0  0  0
 41109  1  0  0  0
 41110  1  0  0  0
 41 48  1  0  0  0
 42 43  1  0  0  0
 42 66  1  0  0  0
 42111  1  0  0  0
 42112  1  0  0  0
 43 44  1  0  0  0
 44113  1  0  0  0
 45 46  2  0  0  0
 45114  1  0  0  0
 46115  1  0  0  0
 47116  1  0  0  0
 47117  1  0  0  0
 48 56  1  0  0  0
 48 65  1  0  0  0
 48118  1  0  0  0
 49 50  1  0  0  0
 49 53  1  0  0  0
 49 64  1  0  0  0
 49119  1  0  0  0
 50 51  1  0  0  0
 50120  1  0  0  0
 50121  1  0  0  0
 51 52  1  0  0  0
 51122  1  0  0  0
 51123  1  0  0  0
 52124  1  0  0  0
 52125  1  0  0  0
 53 54  1  0  0  0
 54 55  2  0  0  0
 54126  1  0  0  0
 55 57  1  0  0  0
 55127  1  0  0  0
 56 69  2  0  0  0
 57 58  2  0  0  0
 57128  1  0  0  0
 58129  1  0  0  0
 59 60  1  0  0  0
 59 61  1  0  0  0
 59 62  1  0  0  0
 60130  1  0  0  0
 60131  1  0  0  0
 60132  1  0  0  0
 61133  1  0  0  0
 61134  1  0  0  0
 61135  1  0  0  0
 62136  1  0  0  0
 62137  1  0  0  0
 62138  1  0  0  0
 63 65  1  0  0  0
 63139  1  0  0  0
 63140  1  0  0  0
 63141  1  0  0  0
 64142  1  0  0  0
 65143  1  0  0  0
 68 81  1  0  0  0
 71 72  2  0  0  0
 71 74  1  0  0  0
 71144  1  0  0  0
 72 75  1  0  0  0
 72145  1  0  0  0
 73 75  2  0  0  0
 73 76  1  0  0  0
 73146  1  0  0  0
 74 76  2  0  0  0
 74 79  1  0  0  0
 75 82  1  0  0  0
 76 84  1  0  0  0
 77147  1  0  0  0
 77148  1  0  0  0
 77149  1  0  0  0
 77 81  1  0  0  0
 78150  1  0  0  0
 78151  1  0  0  0
 78152  1  0  0  0
 78 83  1  0  0  0
 79 83  1  0  0  0
 79153  1  0  0  0
 79154  1  0  0  0
 80 81  1  0  0  0
 80 83  1  0  0  0
 80155  1  0  0  0
 80156  1  0  0  0
 81157  1  0  0  0
 82158  1  0  0  0
 83159  1  0  0  0
M  CHG  1  83   1
M  ISO  4   1 100  68 101  81 101  82 100
M  END
> <chiral flag>
0

> <version>
0

> <s_m_source_file>
/data/baiqing/PycharmProjects/Reinvent-master-3.2/result/LINK_invent/BTK/process_docking_weight1_custom_product_contain_oxygen_bond_distance_aromatic_linkinvent_7_9_3/rearranged_h_0019.sdf

> <i_m_source_file_index>
73

> <r_mmod_Potential_Energy-OPLS-2005>
-57.7689323425293

> <r_mmod_Stretch_Energy-OPLS-2005>
82.4724807739258

> <r_mmod_Bend_Energy-OPLS-2005>
151.15055847168

> <r_mmod_Torsional_Energy-OPLS-2005>
205.988510131836

> <r_mmod_Improper_Torsional_Energy-OPLS-2005>
4.10814237594604

> <r_mmod_Van_der_Waal_Energy-OPLS-2005>
149.989471435547

> <r_mmod_Electrostatic_Energy-OPLS-2005>
-264.117553710938

> <r_mmod_Solvation_Energy-OPLS-2005>
-433.382476806641

> <b_mmod_Minimization_Converged-OPLS-2005>
0

> <r_mmod_RMS_Derivative-OPLS-2005>
1.1059045791626

$$$$
73
                    3D
 Structure written by MMmdl.
144152  0  0  1  0            999 V2000
  -30.3021  -15.5932   20.3329 C   0  0  0  0  0  0
  -30.4326  -13.0479   19.5373 C   0  0  0  0  0  0
  -29.5520  -12.6461   18.3194 C   0  0  0  0  0  0
  -28.1210  -12.2991   18.7600 C   0  0  0  0  0  0
  -27.5995  -13.3023   19.8140 C   0  0  2  0  0  0
  -28.6192  -13.6098   20.9351 C   0  0  0  0  0  0
  -25.2337  -13.8274   20.5781 C   0  0  0  0  0  0
  -24.1722  -13.0430   20.9285 C   0  0  0  0  0  0
  -24.6417  -11.6940   20.8764 C   0  0  0  0  0  0
  -23.9117  -10.4290   21.0399 C   0  0  0  0  0  0
  -24.3652   -9.4203   21.9181 C   0  0  0  0  0  0
  -23.6312   -8.2246   22.0754 C   0  0  0  0  0  0
  -22.4292   -8.0288   21.3546 C   0  0  0  0  0  0
  -21.9939   -9.0264   20.4645 C   0  0  0  0  0  0
  -22.7284  -10.2134   20.3051 C   0  0  0  0  0  0
  -21.6858   -6.0741   22.5279 C   0  0  0  0  0  0
  -21.4018   -6.5643   23.8213 C   0  0  0  0  0  0
  -21.3661   -5.6794   24.9174 C   0  0  0  0  0  0
  -21.6044   -4.3056   24.7224 C   0  0  0  0  0  0
  -21.8818   -3.8150   23.4344 C   0  0  0  0  0  0
  -21.9194   -4.6968   22.3402 C   0  0  0  0  0  0
  -22.7734  -13.5165   21.1921 C   0  0  0  0  0  0
  -22.1661   -4.2153   21.0979 F   0  0  0  0  0  0
  -21.5627   -3.4539   25.7736 F   0  0  0  0  0  0
  -29.8007  -14.2227   20.2856 N   0  0  0  0  0  0
  -26.2785  -12.9597   20.3223 N   0  0  0  0  0  0
  -25.9362  -11.6674   20.5699 N   0  0  0  0  0  0
  -22.0396  -12.8143   22.0473 N   0  0  0  0  0  0
  -25.3915  -15.2015   20.4212 N   0  0  0  0  0  0
  -31.5371  -15.5643   20.1684 O   0  0  0  0  0  0
  -21.6647   -6.8889   21.4243 O   0  0  0  0  0  0
  -22.3409  -14.5464   20.6757 O   0  0  0  0  0  0
  -24.6831  -31.8011   23.1526 C   0  0  0  0  0  0
  -25.9415  -32.4474   23.8070 C   0  0  1  0  0  0
  -27.2274  -26.7157   20.2118 C   0  0  0  0  0  0
  -25.5996  -33.8299   24.1956 N   0  0  0  0  0  0
  -23.5088  -30.4037   21.5064 C   0  0  2  0  0  0
  -24.9668  -28.7480   20.1182 C   0  0  0  0  0  0
  -22.7764  -29.4322   22.4715 C   0  0  0  0  0  0
  -18.0338  -28.1421   22.8455 C   0  0  0  0  0  0
  -24.1496  -36.7158   23.2652 C   0  0  0  0  0  0
  -26.0894  -30.5386   21.4154 C   0  0  0  0  0  0
  -26.1562  -29.1049   20.7648 C   0  0  0  0  0  0
  -27.2730  -28.1167   20.7789 C   0  0  0  0  0  0
  -26.0047  -26.5663   19.5091 C   0  0  0  0  0  0
  -24.9293  -27.5037   19.4667 C   0  0  0  0  0  0
  -23.7624  -29.7017   20.1415 C   0  0  0  0  0  0
  -25.4146  -36.2900   24.0282 C   0  0  1  0  0  0
  -20.5974  -28.3781   23.1142 C   0  0  2  0  0  0
  -20.6805  -26.9441   22.5403 C   0  0  0  0  0  0
  -19.5781  -26.6371   21.5216 C   0  0  0  0  0  0
  -18.1964  -26.7949   22.1619 C   0  0  0  0  0  0
  -19.1605  -28.8925   23.2779 C   0  0  0  0  0  0
  -18.9510  -30.1509   23.8825 C   0  0  0  0  0  0
  -17.6500  -30.6604   24.0550 C   0  0  0  0  0  0
  -25.9124  -34.9289   23.4955 C   0  0  0  0  0  0
  -16.5389  -29.9086   23.6350 C   0  0  0  0  0  0
  -16.7318  -28.6508   23.0366 C   0  0  0  0  0  0
  -26.4594  -31.6505   25.0689 C   0  0  0  0  0  0
  -25.3661  -31.3820   26.1304 C   0  0  0  0  0  0
  -27.0525  -30.2844   24.6583 C   0  0  0  0  0  0
  -27.6042  -32.4365   25.7508 C   0  0  0  0  0  0
  -27.5564  -37.1737   24.8466 C   0  0  0  0  0  0
  -21.4412  -29.3030   22.3464 N   0  0  0  0  0  0
  -26.4273  -37.3659   23.9406 N   0  0  0  0  0  0
  -24.7838  -30.9469   22.0774 N   0  0  0  0  0  0
  -23.4211  -28.7922   23.3056 O   0  0  0  0  0  0
  -28.1833  -25.4944   20.2808 O   0  0  0  0  0  0
  -26.5764  -34.8864   22.4572 O   0  0  0  0  0  0
  -23.5852  -32.1079   23.6486 O   0  0  0  0  0  0
  -29.2152  -21.2102   21.2850 C   0  0  0  0  0  0
  -28.4680  -20.9815   19.2114 C   0  0  0  0  0  0
  -29.5547  -19.7084   21.3189 C   0  0  0  0  0  0
  -28.7956  -19.4896   19.2463 C   0  0  0  0  0  0
  -28.6202  -22.0723   20.2165 C   0  0  0  0  0  0
  -29.3952  -18.6241   20.2984 C   0  0  0  0  0  0
  -27.8596  -23.7811   20.1605 C   0  0  0  0  0  0
  -29.4728  -16.9054   20.3744 N   0  0  0  0  0  0
  -31.4270  -13.3120   19.1754 H   0  0  0  0  0  0
  -30.5883  -12.1960   20.2015 H   0  0  0  0  0  0
  -29.9972  -11.8055   17.7855 H   0  0  0  0  0  0
  -29.5208  -13.4766   17.6126 H   0  0  0  0  0  0
  -28.1388  -11.2971   19.1903 H   0  0  0  0  0  0
  -27.4518  -12.2545   17.8999 H   0  0  0  0  0  0
  -27.4696  -14.2308   19.2564 H   0  0  0  0  0  0
  -28.8689  -12.7178   21.5116 H   0  0  0  0  0  0
  -28.1952  -14.3242   21.6424 H   0  0  0  0  0  0
  -25.2792   -9.5675   22.4765 H   0  0  0  0  0  0
  -24.0012   -7.4637   22.7479 H   0  0  0  0  0  0
  -21.0869   -8.8793   19.8951 H   0  0  0  0  0  0
  -22.3745  -10.9677   19.6162 H   0  0  0  0  0  0
  -21.2013   -7.6151   23.9718 H   0  0  0  0  0  0
  -21.1483   -6.0523   25.9077 H   0  0  0  0  0  0
  -22.0595   -2.7612   23.2843 H   0  0  0  0  0  0
  -22.4036  -11.9820   22.4872 H   0  0  0  0  0  0
  -21.1003  -13.1140   22.2670 H   0  0  0  0  0  0
  -24.6148  -15.8447   20.5307 H   0  0  0  0  0  0
  -26.2216  -15.6451   20.0524 H   0  0  0  0  0  0
  -26.7498  -32.4951   23.0785 H   0  0  0  0  0  0
  -25.0053  -33.9339   25.0048 H   0  0  0  0  0  0
  -22.8336  -31.2408   21.3174 H   0  0  0  0  0  0
  -23.3775  -35.9470   23.3267 H   0  0  0  0  0  0
  -24.3564  -36.8867   22.2076 H   0  0  0  0  0  0
  -23.7240  -37.6318   23.6760 H   0  0  0  0  0  0
  -26.2912  -31.2650   20.6272 H   0  0  0  0  0  0
  -26.9406  -30.6057   22.0807 H   0  0  0  0  0  0
  -28.1680  -28.3958   21.3169 H   0  0  0  0  0  0
  -25.8372  -25.6248   19.0063 H   0  0  0  0  0  0
  -24.0317  -27.2214   18.9338 H   0  0  0  0  0  0
  -23.9365  -30.4623   19.3796 H   0  0  0  0  0  0
  -22.8675  -29.1676   19.8174 H   0  0  0  0  0  0
  -25.1355  -36.1664   25.0772 H   0  0  0  0  0  0
  -21.0055  -28.3406   24.1269 H   0  0  0  0  0  0
  -20.5670  -26.2405   23.3665 H   0  0  0  0  0  0
  -21.6667  -26.7385   22.1221 H   0  0  0  0  0  0
  -19.6938  -25.6262   21.1294 H   0  0  0  0  0  0
  -19.6725  -27.3140   20.6714 H   0  0  0  0  0  0
  -17.4233  -26.6689   21.4023 H   0  0  0  0  0  0
  -18.0354  -26.0109   22.9033 H   0  0  0  0  0  0
  -19.7985  -30.7344   24.2163 H   0  0  0  0  0  0
  -17.5050  -31.6276   24.5167 H   0  0  0  0  0  0
  -15.5386  -30.2965   23.7716 H   0  0  0  0  0  0
  -15.8719  -28.0803   22.7123 H   0  0  0  0  0  0
  -24.5869  -30.7145   25.7603 H   0  0  0  0  0  0
  -24.8823  -32.3041   26.4534 H   0  0  0  0  0  0
  -25.7838  -30.9110   27.0211 H   0  0  0  0  0  0
  -26.3240  -29.6459   24.1575 H   0  0  0  0  0  0
  -27.3954  -29.7289   25.5322 H   0  0  0  0  0  0
  -27.9220  -30.3970   24.0106 H   0  0  0  0  0  0
  -27.2581  -33.3734   26.1884 H   0  0  0  0  0  0
  -28.3957  -32.6817   25.0414 H   0  0  0  0  0  0
  -28.0596  -31.8630   26.5592 H   0  0  0  0  0  0
  -28.2551  -38.0060   24.7511 H   0  0  0  0  0  0
  -28.1090  -36.2582   24.6297 H   0  0  0  0  0  0
  -27.2278  -37.1377   25.8867 H   0  0  0  0  0  0
  -20.9716  -29.8686   21.6531 H   0  0  0  0  0  0
  -26.0101  -38.2707   24.1416 H   0  0  0  0  0  0
  -29.3875  -21.7246   22.2200 H   0  0  0  0  0  0
  -27.9811  -21.2980   18.2995 H   0  0  0  0  0  0
  -29.9269  -19.3646   22.2737 H   0  0  0  0  0  0
  -28.4989  -18.9566   18.3538 H   0  0  0  0  0  0
  -27.0553  -23.6708   20.8879 H   0  0  0  0  0  0
  -27.3414  -23.7369   19.2027 H   0  0  0  0  0  0
  -28.5226  -16.5669   20.4124 H   0  0  0  0  0  0
  1 25  1  0  0  0
  1 30  2  0  0  0
  1 78  1  0  0  0
  2  3  1  0  0  0
  2 25  1  0  0  0
  2 79  1  0  0  0
  2 80  1  0  0  0
  3  4  1  0  0  0
  3 81  1  0  0  0
  3 82  1  0  0  0
  4  5  1  0  0  0
  4 83  1  0  0  0
  4 84  1  0  0  0
  5  6  1  0  0  0
  5 26  1  0  0  0
  5 85  1  0  0  0
  6 25  1  0  0  0
  6 86  1  0  0  0
  6 87  1  0  0  0
  7  8  2  0  0  0
  7 26  1  0  0  0
  7 29  1  0  0  0
  8  9  1  0  0  0
  8 22  1  0  0  0
  9 10  1  0  0  0
  9 27  2  0  0  0
 10 11  2  0  0  0
 10 15  1  0  0  0
 11 12  1  0  0  0
 11 88  1  0  0  0
 12 13  2  0  0  0
 12 89  1  0  0  0
 13 14  1  0  0  0
 13 31  1  0  0  0
 14 15  2  0  0  0
 14 90  1  0  0  0
 15 91  1  0  0  0
 16 17  2  0  0  0
 16 21  1  0  0  0
 16 31  1  0  0  0
 17 18  1  0  0  0
 17 92  1  0  0  0
 18 19  2  0  0  0
 18 93  1  0  0  0
 19 20  1  0  0  0
 19 24  1  0  0  0
 20 21  2  0  0  0
 20 94  1  0  0  0
 21 23  1  0  0  0
 22 28  1  0  0  0
 22 32  2  0  0  0
 26 27  1  0  0  0
 28 95  1  0  0  0
 28 96  1  0  0  0
 29 97  1  0  0  0
 29 98  1  0  0  0
 33 34  1  0  0  0
 33 66  1  0  0  0
 33 70  2  0  0  0
 34 36  1  0  0  0
 34 59  1  0  0  0
 34 99  1  0  0  0
 35 44  2  0  0  0
 35 45  1  0  0  0
 35 68  1  0  0  0
 36 56  1  0  0  0
 36100  1  0  0  0
 37 39  1  0  0  0
 37 47  1  0  0  0
 37 66  1  0  0  0
 37101  1  0  0  0
 38 43  2  0  0  0
 38 46  1  0  0  0
 38 47  1  0  0  0
 39 64  1  0  0  0
 39 67  2  0  0  0
 40 52  1  0  0  0
 40 53  2  0  0  0
 40 58  1  0  0  0
 41102  1  0  0  0
 41103  1  0  0  0
 41104  1  0  0  0
 41 48  1  0  0  0
 42 43  1  0  0  0
 42 66  1  0  0  0
 42105  1  0  0  0
 42106  1  0  0  0
 43 44  1  0  0  0
 44107  1  0  0  0
 45 46  2  0  0  0
 45108  1  0  0  0
 46109  1  0  0  0
 47110  1  0  0  0
 47111  1  0  0  0
 48 56  1  0  0  0
 48 65  1  0  0  0
 48112  1  0  0  0
 49 50  1  0  0  0
 49 53  1  0  0  0
 49 64  1  0  0  0
 49113  1  0  0  0
 50 51  1  0  0  0
 50114  1  0  0  0
 50115  1  0  0  0
 51 52  1  0  0  0
 51116  1  0  0  0
 51117  1  0  0  0
 52118  1  0  0  0
 52119  1  0  0  0
 53 54  1  0  0  0
 54 55  2  0  0  0
 54120  1  0  0  0
 55 57  1  0  0  0
 55121  1  0  0  0
 56 69  2  0  0  0
 57 58  2  0  0  0
 57122  1  0  0  0
 58123  1  0  0  0
 59 60  1  0  0  0
 59 61  1  0  0  0
 59 62  1  0  0  0
 60124  1  0  0  0
 60125  1  0  0  0
 60126  1  0  0  0
 61127  1  0  0  0
 61128  1  0  0  0
 61129  1  0  0  0
 62130  1  0  0  0
 62131  1  0  0  0
 62132  1  0  0  0
 63 65  1  0  0  0
 63133  1  0  0  0
 63134  1  0  0  0
 63135  1  0  0  0
 64136  1  0  0  0
 65137  1  0  0  0
 68 77  1  0  0  0
 71 73  2  0  0  0
 71 75  1  0  0  0
 71138  1  0  0  0
 72 74  1  0  0  0
 72 75  2  0  0  0
 72139  1  0  0  0
 73 76  1  0  0  0
 73140  1  0  0  0
 74 76  2  0  0  0
 74141  1  0  0  0
 75 77  1  0  0  0
 76 78  1  0  0  0
 77142  1  0  0  0
 77143  1  0  0  0
 78144  1  0  0  0
M  ISO  4   1 100  68 101  77 101  78 100
M  END
> <chiral flag>
0

> <version>
0

> <s_m_source_file>
/data/baiqing/PycharmProjects/Reinvent-master-3.2/result/LINK_invent/BTK/process_docking_weight1_custom_product_contain_oxygen_bond_distance_aromatic_linkinvent_7_9_3/rearranged_h_0019.sdf

> <i_m_source_file_index>
74

> <r_mmod_Potential_Energy-OPLS-2005>
2267.25439453125

> <r_mmod_Stretch_Energy-OPLS-2005>
909.600280761719

> <r_mmod_Bend_Energy-OPLS-2005>
657.110290527344

> <r_mmod_Torsional_Energy-OPLS-2005>
259.846252441406

> <r_mmod_Improper_Torsional_Energy-OPLS-2005>
10.6979417800903

> <r_mmod_Van_der_Waal_Energy-OPLS-2005>
132.425323486328

> <r_mmod_Electrostatic_Energy-OPLS-2005>
-345.95654296875

> <r_mmod_Solvation_Energy-OPLS-2005>
-215.57307434082

> <b_mmod_Minimization_Converged-OPLS-2005>
0

> <r_mmod_RMS_Derivative-OPLS-2005>
0.113339096307755

$$$$
74
                    3D
 Structure written by MMmdl.
165173  0  0  1  0            999 V2000
  -30.7523  -14.4635   20.6259 C   0  0  0  0  0  0
  -30.4115  -12.3190   19.4427 C   0  0  0  0  0  0
  -29.4951  -12.5094   18.2173 C   0  0  0  0  0  0
  -28.0180  -12.3635   18.6230 C   0  0  0  0  0  0
  -27.6585  -13.2136   19.8695 C   0  0  2  0  0  0
  -28.6917  -13.0187   20.9998 C   0  0  0  0  0  0
  -25.2591  -13.8192   20.5682 C   0  0  0  0  0  0
  -24.1849  -13.0455   20.9188 C   0  0  0  0  0  0
  -24.6402  -11.6920   20.8738 C   0  0  0  0  0  0
  -23.9075  -10.4302   21.0418 C   0  0  0  0  0  0
  -24.3628   -9.4211   21.9190 C   0  0  0  0  0  0
  -23.6302   -8.2247   22.0752 C   0  0  0  0  0  0
  -22.4281   -8.0296   21.3551 C   0  0  0  0  0  0
  -21.9926   -9.0268   20.4644 C   0  0  0  0  0  0
  -22.7256  -10.2144   20.3055 C   0  0  0  0  0  0
  -21.6852   -6.0748   22.5285 C   0  0  0  0  0  0
  -21.4014   -6.5646   23.8224 C   0  0  0  0  0  0
  -21.3655   -5.6795   24.9182 C   0  0  0  0  0  0
  -21.6035   -4.3057   24.7228 C   0  0  0  0  0  0
  -21.8824   -3.8154   23.4351 C   0  0  0  0  0  0
  -21.9195   -4.6975   22.3405 C   0  0  0  0  0  0
  -22.7876  -13.5255   21.1857 C   0  0  0  0  0  0
  -22.1669   -4.2162   21.0987 F   0  0  0  0  0  0
  -21.5621   -3.4538   25.7744 F   0  0  0  0  0  0
  -30.0303  -13.3142   20.4647 N   0  0  0  0  0  0
  -26.3010  -12.9356   20.3323 N   0  0  0  0  0  0
  -25.9318  -11.6512   20.5737 N   0  0  0  0  0  0
  -22.0506  -12.8226   22.0398 N   0  0  0  0  0  0
  -25.4339  -15.1897   20.4094 N   0  0  0  0  0  0
  -31.8196  -14.6343   20.0259 O   0  0  0  0  0  0
  -21.6640   -6.8893   21.4252 O   0  0  0  0  0  0
  -22.3556  -14.5563   20.6716 O   0  0  0  0  0  0
  -24.6184  -31.8699   23.2083 C   0  0  0  0  0  0
  -25.9064  -32.4837   23.8387 C   0  0  1  0  0  0
  -27.2160  -27.4011   20.0966 C   0  0  0  0  0  0
  -25.5899  -33.8634   24.2304 N   0  0  0  0  0  0
  -23.4055  -30.4964   21.5509 C   0  0  2  0  0  0
  -24.8453  -28.9672   20.1105 C   0  0  0  0  0  0
  -22.7425  -29.4687   22.4975 C   0  0  0  0  0  0
  -18.0270  -28.1378   22.8495 C   0  0  0  0  0  0
  -24.1484  -36.7337   23.2641 C   0  0  0  0  0  0
  -25.9380  -30.8274   21.3640 C   0  0  0  0  0  0
  -26.0129  -29.4617   20.7060 C   0  0  0  0  0  0
  -27.2029  -28.6878   20.6949 C   0  0  0  0  0  0
  -26.0252  -26.9441   19.4784 C   0  0  0  0  0  0
  -24.8473  -27.7073   19.4941 C   0  0  0  0  0  0
  -23.6113  -29.8381   20.1644 C   0  0  0  0  0  0
  -25.4100  -36.3129   24.0331 C   0  0  1  0  0  0
  -20.5861  -28.3687   23.1286 C   0  0  2  0  0  0
  -20.6774  -26.9419   22.5395 C   0  0  0  0  0  0
  -19.5747  -26.6391   21.5194 C   0  0  0  0  0  0
  -18.1917  -26.7932   22.1614 C   0  0  0  0  0  0
  -19.1524  -28.8845   23.2890 C   0  0  0  0  0  0
  -18.9460  -30.1447   23.8904 C   0  0  0  0  0  0
  -17.6470  -30.6595   24.0565 C   0  0  0  0  0  0
  -25.9024  -34.9492   23.5111 C   0  0  0  0  0  0
  -16.5348  -29.9099   23.6335 C   0  0  0  0  0  0
  -16.7266  -28.6513   23.0353 C   0  0  0  0  0  0
  -26.4463  -31.6631   25.0744 C   0  0  0  0  0  0
  -25.3702  -31.3740   26.1481 C   0  0  0  0  0  0
  -27.0301  -30.3078   24.6116 C   0  0  0  0  0  0
  -27.6026  -32.4361   25.7526 C   0  0  0  0  0  0
  -27.5579  -37.1809   24.8457 C   0  0  0  0  0  0
  -21.4153  -29.3065   22.3720 N   0  0  0  0  0  0
  -26.4296  -37.3803   23.9398 N   0  0  0  0  0  0
  -24.6733  -31.0771   22.1008 N   0  0  0  0  0  0
  -23.4195  -28.8217   23.3022 O   0  0  0  0  0  0
  -28.3585  -26.6103   20.1462 O   0  0  0  0  0  0
  -26.5609  -34.8958   22.4684 O   0  0  0  0  0  0
  -23.5368  -32.1463   23.7474 O   0  0  0  0  0  0
  -29.9739  -19.3632   20.9923 C   0  0  0  0  0  0
  -28.2250  -17.8321   21.7235 C   0  0  0  0  0  0
  -27.9358  -20.2472   21.9852 C   0  0  0  0  0  0
  -29.5074  -18.0315   21.1677 C   0  0  0  0  0  0
  -29.2003  -20.4819   21.4021 C   0  0  0  0  0  0
  -27.4492  -18.9332   22.1347 C   0  0  0  0  0  0
  -31.5799  -15.0021   23.4129 C   0  0  0  0  0  0
  -29.0920  -22.3138   18.9332 C   0  0  0  0  0  0
  -30.3944  -16.8538   20.7251 C   0  0  0  0  0  0
  -29.7393  -21.9217   21.2862 C   0  0  0  0  0  0
  -30.2491  -15.4939   22.8093 C   0  0  0  0  0  0
  -29.3083  -24.2684   20.4621 C   0  0  0  0  0  0
  -28.1545  -25.1858   19.9717 C   0  0  0  0  0  0
  -30.2047  -15.5002   21.3259 N   0  0  0  0  0  0
  -28.9897  -22.8006   20.3332 N   0  3  1  0  0  0
  -26.2299  -18.7261   22.6840 F   0  0  0  0  0  0
  -31.4583  -12.3977   19.1432 H   0  0  0  0  0  0
  -30.3062  -11.3113   19.8472 H   0  0  0  0  0  0
  -29.7424  -11.7799   17.4445 H   0  0  0  0  0  0
  -29.6642  -13.4924   17.7768 H   0  0  0  0  0  0
  -27.8337  -11.3079   18.8282 H   0  0  0  0  0  0
  -27.3708  -12.6267   17.7860 H   0  0  0  0  0  0
  -27.7001  -14.2594   19.5634 H   0  0  0  0  0  0
  -28.6622  -11.9931   21.3721 H   0  0  0  0  0  0
  -28.4161  -13.6457   21.8430 H   0  0  0  0  0  0
  -25.2771   -9.5680   22.4766 H   0  0  0  0  0  0
  -24.0011   -7.4634   22.7457 H   0  0  0  0  0  0
  -21.0865   -8.8788   19.8943 H   0  0  0  0  0  0
  -22.3730  -10.9684   19.6158 H   0  0  0  0  0  0
  -21.2007   -7.6155   23.9734 H   0  0  0  0  0  0
  -21.1467   -6.0523   25.9089 H   0  0  0  0  0  0
  -22.0601   -2.7620   23.2848 H   0  0  0  0  0  0
  -22.4121  -11.9872   22.4762 H   0  0  0  0  0  0
  -21.1116  -13.1237   22.2590 H   0  0  0  0  0  0
  -24.6751  -15.8518   20.5277 H   0  0  0  0  0  0
  -26.2905  -15.6219   20.0883 H   0  0  0  0  0  0
  -26.7159  -32.5522   23.1169 H   0  0  0  0  0  0
  -25.0034  -33.9792   25.0448 H   0  0  0  0  0  0
  -22.6934  -31.3135   21.4145 H   0  0  0  0  0  0
  -23.3745  -35.9675   23.3322 H   0  0  0  0  0  0
  -24.3592  -36.8955   22.2059 H   0  0  0  0  0  0
  -23.7247  -37.6545   23.6656 H   0  0  0  0  0  0
  -26.0407  -31.5956   20.5953 H   0  0  0  0  0  0
  -26.8286  -30.8837   21.9767 H   0  0  0  0  0  0
  -28.1021  -29.0613   21.1660 H   0  0  0  0  0  0
  -25.9656  -25.9883   18.9789 H   0  0  0  0  0  0
  -23.9478  -27.3188   19.0339 H   0  0  0  0  0  0
  -23.7222  -30.6169   19.4095 H   0  0  0  0  0  0
  -22.7319  -29.2640   19.8685 H   0  0  0  0  0  0
  -25.1262  -36.2019   25.0823 H   0  0  0  0  0  0
  -20.9914  -28.3273   24.1417 H   0  0  0  0  0  0
  -20.5679  -26.2289   23.3600 H   0  0  0  0  0  0
  -21.6642  -26.7478   22.1170 H   0  0  0  0  0  0
  -19.6919  -25.6292   21.1251 H   0  0  0  0  0  0
  -19.6701  -27.3196   20.6723 H   0  0  0  0  0  0
  -17.4185  -26.6693   21.4022 H   0  0  0  0  0  0
  -18.0313  -26.0062   22.8988 H   0  0  0  0  0  0
  -19.7945  -30.7228   24.2305 H   0  0  0  0  0  0
  -17.5047  -31.6292   24.5149 H   0  0  0  0  0  0
  -15.5359  -30.3009   23.7671 H   0  0  0  0  0  0
  -15.8656  -28.0846   22.7057 H   0  0  0  0  0  0
  -24.5881  -30.7080   25.7831 H   0  0  0  0  0  0
  -24.8864  -32.2883   26.4916 H   0  0  0  0  0  0
  -25.8038  -30.8939   27.0260 H   0  0  0  0  0  0
  -26.2859  -29.6848   24.1134 H   0  0  0  0  0  0
  -27.4044  -29.7309   25.4579 H   0  0  0  0  0  0
  -27.8701  -30.4417   23.9298 H   0  0  0  0  0  0
  -27.2641  -33.3672   26.2080 H   0  0  0  0  0  0
  -28.3850  -32.6905   25.0367 H   0  0  0  0  0  0
  -28.0659  -31.8491   26.5459 H   0  0  0  0  0  0
  -28.2571  -38.0135   24.7500 H   0  0  0  0  0  0
  -28.1096  -36.2645   24.6276 H   0  0  0  0  0  0
  -27.2281  -37.1445   25.8862 H   0  0  0  0  0  0
  -20.9312  -29.8875   21.7015 H   0  0  0  0  0  0
  -26.0205  -38.2884   24.1420 H   0  0  0  0  0  0
  -30.9504  -19.5258   20.5572 H   0  0  0  0  0  0
  -27.8296  -16.8351   21.8559 H   0  0  0  0  0  0
  -27.3290  -21.0706   22.3331 H   0  0  0  0  0  0
  -31.5948  -15.1669   24.4915 H   0  0  0  0  0  0
  -32.4349  -15.5330   22.9928 H   0  0  0  0  0  0
  -31.7326  -13.9351   23.2491 H   0  0  0  0  0  0
  -28.7626  -21.2787   18.8492 H   0  0  0  0  0  0
  -30.1194  -22.3653   18.5712 H   0  0  0  0  0  0
  -28.4679  -22.8911   18.2506 H   0  0  0  0  0  0
  -31.4366  -17.1427   20.8806 H   0  0  0  0  0  0
  -30.2614  -16.7825   19.6424 H   0  0  0  0  0  0
  -30.7933  -21.8986   21.0057 H   0  0  0  0  0  0
  -29.7065  -22.3541   22.2879 H   0  0  0  0  0  0
  -30.0837  -16.4964   23.2006 H   0  0  0  0  0  0
  -29.4330  -14.9027   23.2187 H   0  0  0  0  0  0
  -29.5030  -24.5165   21.5061 H   0  0  0  0  0  0
  -30.2268  -24.5022   19.9220 H   0  0  0  0  0  0
  -27.2630  -24.8797   20.5242 H   0  0  0  0  0  0
  -27.9569  -24.9924   18.9167 H   0  0  0  0  0  0
  -28.0202  -22.6941   20.5944 H   0  0  0  0  0  0
  1 25  1  0  0  0
  1 30  2  0  0  0
  1 84  1  0  0  0
  2  3  1  0  0  0
  2 25  1  0  0  0
  2 87  1  0  0  0
  2 88  1  0  0  0
  3  4  1  0  0  0
  3 89  1  0  0  0
  3 90  1  0  0  0
  4  5  1  0  0  0
  4 91  1  0  0  0
  4 92  1  0  0  0
  5  6  1  0  0  0
  5 26  1  0  0  0
  5 93  1  0  0  0
  6 25  1  0  0  0
  6 94  1  0  0  0
  6 95  1  0  0  0
  7  8  2  0  0  0
  7 26  1  0  0  0
  7 29  1  0  0  0
  8  9  1  0  0  0
  8 22  1  0  0  0
  9 10  1  0  0  0
  9 27  2  0  0  0
 10 11  2  0  0  0
 10 15  1  0  0  0
 11 12  1  0  0  0
 11 96  1  0  0  0
 12 13  2  0  0  0
 12 97  1  0  0  0
 13 14  1  0  0  0
 13 31  1  0  0  0
 14 15  2  0  0  0
 14 98  1  0  0  0
 15 99  1  0  0  0
 16 17  2  0  0  0
 16 21  1  0  0  0
 16 31  1  0  0  0
 17 18  1  0  0  0
 17100  1  0  0  0
 18 19  2  0  0  0
 18101  1  0  0  0
 19 20  1  0  0  0
 19 24  1  0  0  0
 20 21  2  0  0  0
 20102  1  0  0  0
 21 23  1  0  0  0
 22 28  1  0  0  0
 22 32  2  0  0  0
 26 27  1  0  0  0
 28103  1  0  0  0
 28104  1  0  0  0
 29105  1  0  0  0
 29106  1  0  0  0
 33 34  1  0  0  0
 33 66  1  0  0  0
 33 70  2  0  0  0
 34 36  1  0  0  0
 34 59  1  0  0  0
 34107  1  0  0  0
 35 44  2  0  0  0
 35 45  1  0  0  0
 35 68  1  0  0  0
 36 56  1  0  0  0
 36108  1  0  0  0
 37 39  1  0  0  0
 37 47  1  0  0  0
 37 66  1  0  0  0
 37109  1  0  0  0
 38 43  2  0  0  0
 38 46  1  0  0  0
 38 47  1  0  0  0
 39 64  1  0  0  0
 39 67  2  0  0  0
 40 52  1  0  0  0
 40 53  2  0  0  0
 40 58  1  0  0  0
 41110  1  0  0  0
 41111  1  0  0  0
 41112  1  0  0  0
 41 48  1  0  0  0
 42 43  1  0  0  0
 42 66  1  0  0  0
 42113  1  0  0  0
 42114  1  0  0  0
 43 44  1  0  0  0
 44115  1  0  0  0
 45 46  2  0  0  0
 45116  1  0  0  0
 46117  1  0  0  0
 47118  1  0  0  0
 47119  1  0  0  0
 48 56  1  0  0  0
 48 65  1  0  0  0
 48120  1  0  0  0
 49 50  1  0  0  0
 49 53  1  0  0  0
 49 64  1  0  0  0
 49121  1  0  0  0
 50 51  1  0  0  0
 50122  1  0  0  0
 50123  1  0  0  0
 51 52  1  0  0  0
 51124  1  0  0  0
 51125  1  0  0  0
 52126  1  0  0  0
 52127  1  0  0  0
 53 54  1  0  0  0
 54 55  2  0  0  0
 54128  1  0  0  0
 55 57  1  0  0  0
 55129  1  0  0  0
 56 69  2  0  0  0
 57 58  2  0  0  0
 57130  1  0  0  0
 58131  1  0  0  0
 59 60  1  0  0  0
 59 61  1  0  0  0
 59 62  1  0  0  0
 60132  1  0  0  0
 60133  1  0  0  0
 60134  1  0  0  0
 61135  1  0  0  0
 61136  1  0  0  0
 61137  1  0  0  0
 62138  1  0  0  0
 62139  1  0  0  0
 62140  1  0  0  0
 63 65  1  0  0  0
 63141  1  0  0  0
 63142  1  0  0  0
 63143  1  0  0  0
 64144  1  0  0  0
 65145  1  0  0  0
 68 83  1  0  0  0
 71 74  2  0  0  0
 71 75  1  0  0  0
 71146  1  0  0  0
 72 74  1  0  0  0
 72 76  2  0  0  0
 72147  1  0  0  0
 73 75  2  0  0  0
 73 76  1  0  0  0
 73148  1  0  0  0
 74 79  1  0  0  0
 75 80  1  0  0  0
 76 86  1  0  0  0
 77 81  1  0  0  0
 77149  1  0  0  0
 77150  1  0  0  0
 77151  1  0  0  0
 78152  1  0  0  0
 78153  1  0  0  0
 78154  1  0  0  0
 78 85  1  0  0  0
 79 84  1  0  0  0
 79155  1  0  0  0
 79156  1  0  0  0
 80 85  1  0  0  0
 80157  1  0  0  0
 80158  1  0  0  0
 81 84  1  0  0  0
 81159  1  0  0  0
 81160  1  0  0  0
 82 83  1  0  0  0
 82 85  1  0  0  0
 82161  1  0  0  0
 82162  1  0  0  0
 83163  1  0  0  0
 83164  1  0  0  0
 85165  1  0  0  0
M  CHG  1  85   1
M  ISO  4   1 100  68 101  83 101  84 100
M  END
> <chiral flag>
0

> <version>
0

> <s_m_source_file>
/data/baiqing/PycharmProjects/Reinvent-master-3.2/result/LINK_invent/BTK/process_docking_weight1_custom_product_contain_oxygen_bond_distance_aromatic_linkinvent_7_9_3/rearranged_h_0019.sdf

> <i_m_source_file_index>
75

> <r_mmod_Potential_Energy-OPLS-2005>
19.3232173919678

> <r_mmod_Stretch_Energy-OPLS-2005>
50.2252769470215

> <r_mmod_Bend_Energy-OPLS-2005>
113.483604431152

> <r_mmod_Torsional_Energy-OPLS-2005>
256.769561767578

> <r_mmod_Improper_Torsional_Energy-OPLS-2005>
6.73211669921875

> <r_mmod_Van_der_Waal_Energy-OPLS-2005>
160.768432617188

> <r_mmod_Electrostatic_Energy-OPLS-2005>
-172.406982421875

> <r_mmod_Solvation_Energy-OPLS-2005>
-413.140380859375

> <b_mmod_Minimization_Converged-OPLS-2005>
0

> <r_mmod_RMS_Derivative-OPLS-2005>
2.7046902179718

$$$$
75
                    3D
 Structure written by MMmdl.
168176  0  0  1  0            999 V2000
  -30.7038  -14.4391   20.5915 C   0  0  0  0  0  0
  -30.4255  -12.2898   19.4173 C   0  0  0  0  0  0
  -29.4964  -12.5097   18.2054 C   0  0  0  0  0  0
  -28.0160  -12.3734   18.6155 C   0  0  0  0  0  0
  -27.6670  -13.2022   19.8804 C   0  0  2  0  0  0
  -28.7054  -12.9520   20.9974 C   0  0  0  0  0  0
  -25.2611  -13.8154   20.5676 C   0  0  0  0  0  0
  -24.1852  -13.0441   20.9170 C   0  0  0  0  0  0
  -24.6395  -11.6904   20.8727 C   0  0  0  0  0  0
  -23.9058  -10.4292   21.0398 C   0  0  0  0  0  0
  -24.3609   -9.4210   21.9179 C   0  0  0  0  0  0
  -23.6287   -8.2247   22.0752 C   0  0  0  0  0  0
  -22.4270   -8.0283   21.3544 C   0  0  0  0  0  0
  -21.9908   -9.0255   20.4643 C   0  0  0  0  0  0
  -22.7234  -10.2134   20.3045 C   0  0  0  0  0  0
  -21.6851   -6.0737   22.5283 C   0  0  0  0  0  0
  -21.4013   -6.5637   23.8219 C   0  0  0  0  0  0
  -21.3657   -5.6787   24.9177 C   0  0  0  0  0  0
  -21.6042   -4.3050   24.7224 C   0  0  0  0  0  0
  -21.8818   -3.8147   23.4345 C   0  0  0  0  0  0
  -21.9192   -4.6966   22.3405 C   0  0  0  0  0  0
  -22.7875  -13.5247   21.1837 C   0  0  0  0  0  0
  -22.1661   -4.2154   21.0982 F   0  0  0  0  0  0
  -21.5627   -3.4533   25.7735 F   0  0  0  0  0  0
  -30.0442  -13.2570   20.4575 N   0  0  0  0  0  0
  -26.3048  -12.9317   20.3377 N   0  0  0  0  0  0
  -25.9322  -11.6479   20.5758 N   0  0  0  0  0  0
  -22.0504  -12.8237   22.0383 N   0  0  0  0  0  0
  -25.4342  -15.1867   20.4074 N   0  0  0  0  0  0
  -31.8081  -14.6488   20.0809 O   0  0  0  0  0  0
  -21.6635   -6.8882   21.4244 O   0  0  0  0  0  0
  -22.3566  -14.5561   20.6694 O   0  0  0  0  0  0
  -24.6109  -31.8706   23.2129 C   0  0  0  0  0  0
  -25.9017  -32.4837   23.8416 C   0  0  1  0  0  0
  -27.2487  -27.4618   20.0973 C   0  0  0  0  0  0
  -25.5890  -33.8636   24.2350 N   0  0  0  0  0  0
  -23.3990  -30.4929   21.5518 C   0  0  2  0  0  0
  -24.8501  -28.9603   20.1186 C   0  0  0  0  0  0
  -22.7392  -29.4671   22.5008 C   0  0  0  0  0  0
  -18.0268  -28.1376   22.8493 C   0  0  0  0  0  0
  -24.1486  -36.7315   23.2641 C   0  0  0  0  0  0
  -25.9235  -30.8433   21.3642 C   0  0  0  0  0  0
  -26.0047  -29.4759   20.7210 C   0  0  0  0  0  0
  -27.2048  -28.7323   20.7210 C   0  0  0  0  0  0
  -26.0809  -26.9619   19.4875 C   0  0  0  0  0  0
  -24.8804  -27.6972   19.5024 C   0  0  0  0  0  0
  -23.6086  -29.8224   20.1667 C   0  0  0  0  0  0
  -25.4104  -36.3122   24.0346 C   0  0  1  0  0  0
  -20.5855  -28.3660   23.1328 C   0  0  2  0  0  0
  -20.6754  -26.9400   22.5420 C   0  0  0  0  0  0
  -19.5738  -26.6393   21.5210 C   0  0  0  0  0  0
  -18.1914  -26.7929   22.1616 C   0  0  0  0  0  0
  -19.1516  -28.8833   23.2908 C   0  0  0  0  0  0
  -18.9447  -30.1440   23.8918 C   0  0  0  0  0  0
  -17.6451  -30.6585   24.0565 C   0  0  0  0  0  0
  -25.9028  -34.9485   23.5144 C   0  0  0  0  0  0
  -16.5342  -29.9090   23.6324 C   0  0  0  0  0  0
  -16.7258  -28.6504   23.0349 C   0  0  0  0  0  0
  -26.4461  -31.6602   25.0726 C   0  0  0  0  0  0
  -25.3742  -31.3687   26.1484 C   0  0  0  0  0  0
  -27.0295  -30.3058   24.6066 C   0  0  0  0  0  0
  -27.6043  -32.4317   25.7481 C   0  0  0  0  0  0
  -27.5582  -37.1812   24.8464 C   0  0  0  0  0  0
  -21.4125  -29.3033   22.3740 N   0  0  0  0  0  0
  -26.4292  -37.3802   23.9413 N   0  0  0  0  0  0
  -24.6622  -31.0828   22.1020 N   0  0  0  0  0  0
  -23.4174  -28.8216   23.3044 O   0  0  0  0  0  0
  -28.3725  -26.6691   20.0168 O   0  0  0  0  0  0
  -26.5584  -34.8932   22.4701 O   0  0  0  0  0  0
  -23.5306  -32.1446   23.7538 O   0  0  0  0  0  0
  -30.7905  -18.9105   20.1395 C   0  0  0  0  0  0
  -30.8799  -17.5085   20.2620 C   0  0  0  0  0  0
  -29.0117  -18.9427   21.7930 C   0  0  0  0  0  0
  -29.8543  -19.6403   20.9016 C   0  0  0  0  0  0
  -29.0943  -17.5372   21.9201 C   0  0  0  0  0  0
  -30.0306  -16.8007   21.1499 C   0  0  0  0  0  0
  -28.1535  -16.8301   22.8833 C   0  0  0  0  0  0
  -31.8091  -23.1841   19.5704 C   0  0  0  0  0  0
  -30.6562  -21.8228   22.9513 C   0  0  0  0  0  0
  -29.7436  -21.1588   20.7442 C   0  0  0  0  0  0
  -30.4576  -25.7368   20.7940 C   0  0  0  0  0  0
  -29.9980  -24.2778   21.0418 C   0  0  0  0  0  0
  -29.3761  -26.8128   21.0124 C   0  0  0  0  0  0
  -31.1639  -23.2476   20.9709 C   0  0  1  0  0  0
  -30.0287  -15.3763   21.2824 N   0  0  0  0  0  0
  -30.8199  -21.8797   21.4770 N   0  3  1  0  0  0
  -31.4707  -12.3857   19.1183 H   0  0  0  0  0  0
  -30.3207  -11.2730   19.7994 H   0  0  0  0  0  0
  -29.7324  -11.7944   17.4163 H   0  0  0  0  0  0
  -29.6713  -13.5000   17.7823 H   0  0  0  0  0  0
  -27.8201  -11.3166   18.8016 H   0  0  0  0  0  0
  -27.3679  -12.6601   17.7864 H   0  0  0  0  0  0
  -27.7218  -14.2548   19.6007 H   0  0  0  0  0  0
  -28.6734  -11.9075   21.3117 H   0  0  0  0  0  0
  -28.4601  -13.5235   21.8932 H   0  0  0  0  0  0
  -25.2756   -9.5687   22.4752 H   0  0  0  0  0  0
  -23.9998   -7.4636   22.7466 H   0  0  0  0  0  0
  -21.0846   -8.8765   19.8945 H   0  0  0  0  0  0
  -22.3694  -10.9665   19.6145 H   0  0  0  0  0  0
  -21.2005   -7.6141   23.9722 H   0  0  0  0  0  0
  -21.1478   -6.0514   25.9081 H   0  0  0  0  0  0
  -22.0596   -2.7610   23.2841 H   0  0  0  0  0  0
  -22.4095  -11.9879   22.4755 H   0  0  0  0  0  0
  -21.1121  -13.1268   22.2577 H   0  0  0  0  0  0
  -24.6685  -15.8432   20.5123 H   0  0  0  0  0  0
  -26.2885  -15.6225   20.0835 H   0  0  0  0  0  0
  -26.7094  -32.5576   23.1193 H   0  0  0  0  0  0
  -25.0059  -33.9802   25.0507 H   0  0  0  0  0  0
  -22.6863  -31.3082   21.4120 H   0  0  0  0  0  0
  -23.3751  -35.9645   23.3310 H   0  0  0  0  0  0
  -24.3585  -36.8915   22.2054 H   0  0  0  0  0  0
  -23.7229  -37.6525   23.6635 H   0  0  0  0  0  0
  -26.0297  -31.6065   20.5916 H   0  0  0  0  0  0
  -26.8131  -30.9039   21.9787 H   0  0  0  0  0  0
  -28.0851  -29.1520   21.1852 H   0  0  0  0  0  0
  -26.1034  -25.9953   19.0038 H   0  0  0  0  0  0
  -23.9945  -27.2919   19.0332 H   0  0  0  0  0  0
  -23.7130  -30.5957   19.4046 H   0  0  0  0  0  0
  -22.7347  -29.2378   19.8739 H   0  0  0  0  0  0
  -25.1276  -36.1996   25.0840 H   0  0  0  0  0  0
  -20.9945  -28.3218   24.1448 H   0  0  0  0  0  0
  -20.5657  -26.2266   23.3601 H   0  0  0  0  0  0
  -21.6627  -26.7450   22.1215 H   0  0  0  0  0  0
  -19.6900  -25.6310   21.1225 H   0  0  0  0  0  0
  -19.6680  -27.3217   20.6749 H   0  0  0  0  0  0
  -17.4190  -26.6694   21.4010 H   0  0  0  0  0  0
  -18.0308  -26.0060   22.9000 H   0  0  0  0  0  0
  -19.7924  -30.7244   24.2307 H   0  0  0  0  0  0
  -17.5010  -31.6267   24.5164 H   0  0  0  0  0  0
  -15.5343  -30.2997   23.7639 H   0  0  0  0  0  0
  -15.8658  -28.0825   22.7059 H   0  0  0  0  0  0
  -24.5914  -30.7034   25.7821 H   0  0  0  0  0  0
  -24.8932  -32.2835   26.4958 H   0  0  0  0  0  0
  -25.8116  -30.8842   27.0222 H   0  0  0  0  0  0
  -26.2830  -29.6823   24.1132 H   0  0  0  0  0  0
  -27.4105  -29.7282   25.4499 H   0  0  0  0  0  0
  -27.8644  -30.4404   23.9185 H   0  0  0  0  0  0
  -27.2668  -33.3610   26.2081 H   0  0  0  0  0  0
  -28.3833  -32.6889   25.0292 H   0  0  0  0  0  0
  -28.0731  -31.8430   26.5375 H   0  0  0  0  0  0
  -28.2600  -38.0109   24.7519 H   0  0  0  0  0  0
  -28.1076  -36.2642   24.6273 H   0  0  0  0  0  0
  -27.2304  -37.1452   25.8868 H   0  0  0  0  0  0
  -20.9282  -29.8758   21.6968 H   0  0  0  0  0  0
  -26.0187  -38.2885   24.1405 H   0  0  0  0  0  0
  -31.4419  -19.4201   19.4425 H   0  0  0  0  0  0
  -31.6041  -17.0010   19.6428 H   0  0  0  0  0  0
  -28.2858  -19.4914   22.3780 H   0  0  0  0  0  0
  -27.5241  -17.5389   23.4215 H   0  0  0  0  0  0
  -28.7179  -16.2616   23.6231 H   0  0  0  0  0  0
  -27.4960  -16.1452   22.3473 H   0  0  0  0  0  0
  -32.2964  -24.1257   19.3187 H   0  0  0  0  0  0
  -31.0793  -22.9838   18.7867 H   0  0  0  0  0  0
  -32.5793  -22.4141   19.5181 H   0  0  0  0  0  0
  -30.6219  -20.7922   23.3043 H   0  0  0  0  0  0
  -29.7382  -22.3128   23.2745 H   0  0  0  0  0  0
  -31.4922  -22.3021   23.4610 H   0  0  0  0  0  0
  -28.7652  -21.5072   21.0787 H   0  0  0  0  0  0
  -29.7857  -21.3768   19.6779 H   0  0  0  0  0  0
  -30.8464  -25.8417   19.7810 H   0  0  0  0  0  0
  -31.2925  -25.9606   21.4598 H   0  0  0  0  0  0
  -29.2182  -24.0146   20.3263 H   0  0  0  0  0  0
  -29.5296  -24.2387   22.0247 H   0  0  0  0  0  0
  -29.8393  -27.7972   20.9347 H   0  0  0  0  0  0
  -28.9440  -26.7272   22.0110 H   0  0  0  0  0  0
  -31.9514  -23.6124   21.6332 H   0  0  0  0  0  0
  -29.2408  -15.0044   21.7880 H   0  0  0  0  0  0
  -31.6494  -21.3334   21.3004 H   0  0  0  0  0  0
  1 25  1  0  0  0
  1 30  2  0  0  0
  1 85  1  0  0  0
  2  3  1  0  0  0
  2 25  1  0  0  0
  2 87  1  0  0  0
  2 88  1  0  0  0
  3  4  1  0  0  0
  3 89  1  0  0  0
  3 90  1  0  0  0
  4  5  1  0  0  0
  4 91  1  0  0  0
  4 92  1  0  0  0
  5  6  1  0  0  0
  5 26  1  0  0  0
  5 93  1  0  0  0
  6 25  1  0  0  0
  6 94  1  0  0  0
  6 95  1  0  0  0
  7  8  2  0  0  0
  7 26  1  0  0  0
  7 29  1  0  0  0
  8  9  1  0  0  0
  8 22  1  0  0  0
  9 10  1  0  0  0
  9 27  2  0  0  0
 10 11  2  0  0  0
 10 15  1  0  0  0
 11 12  1  0  0  0
 11 96  1  0  0  0
 12 13  2  0  0  0
 12 97  1  0  0  0
 13 14  1  0  0  0
 13 31  1  0  0  0
 14 15  2  0  0  0
 14 98  1  0  0  0
 15 99  1  0  0  0
 16 17  2  0  0  0
 16 21  1  0  0  0
 16 31  1  0  0  0
 17 18  1  0  0  0
 17100  1  0  0  0
 18 19  2  0  0  0
 18101  1  0  0  0
 19 20  1  0  0  0
 19 24  1  0  0  0
 20 21  2  0  0  0
 20102  1  0  0  0
 21 23  1  0  0  0
 22 28  1  0  0  0
 22 32  2  0  0  0
 26 27  1  0  0  0
 28103  1  0  0  0
 28104  1  0  0  0
 29105  1  0  0  0
 29106  1  0  0  0
 33 34  1  0  0  0
 33 66  1  0  0  0
 33 70  2  0  0  0
 34 36  1  0  0  0
 34 59  1  0  0  0
 34107  1  0  0  0
 35 44  2  0  0  0
 35 45  1  0  0  0
 35 68  1  0  0  0
 36 56  1  0  0  0
 36108  1  0  0  0
 37 39  1  0  0  0
 37 47  1  0  0  0
 37 66  1  0  0  0
 37109  1  0  0  0
 38 43  2  0  0  0
 38 46  1  0  0  0
 38 47  1  0  0  0
 39 64  1  0  0  0
 39 67  2  0  0  0
 40 52  1  0  0  0
 40 53  2  0  0  0
 40 58  1  0  0  0
 41110  1  0  0  0
 41111  1  0  0  0
 41112  1  0  0  0
 41 48  1  0  0  0
 42 43  1  0  0  0
 42 66  1  0  0  0
 42113  1  0  0  0
 42114  1  0  0  0
 43 44  1  0  0  0
 44115  1  0  0  0
 45 46  2  0  0  0
 45116  1  0  0  0
 46117  1  0  0  0
 47118  1  0  0  0
 47119  1  0  0  0
 48 56  1  0  0  0
 48 65  1  0  0  0
 48120  1  0  0  0
 49 50  1  0  0  0
 49 53  1  0  0  0
 49 64  1  0  0  0
 49121  1  0  0  0
 50 51  1  0  0  0
 50122  1  0  0  0
 50123  1  0  0  0
 51 52  1  0  0  0
 51124  1  0  0  0
 51125  1  0  0  0
 52126  1  0  0  0
 52127  1  0  0  0
 53 54  1  0  0  0
 54 55  2  0  0  0
 54128  1  0  0  0
 55 57  1  0  0  0
 55129  1  0  0  0
 56 69  2  0  0  0
 57 58  2  0  0  0
 57130  1  0  0  0
 58131  1  0  0  0
 59 60  1  0  0  0
 59 61  1  0  0  0
 59 62  1  0  0  0
 60132  1  0  0  0
 60133  1  0  0  0
 60134  1  0  0  0
 61135  1  0  0  0
 61136  1  0  0  0
 61137  1  0  0  0
 62138  1  0  0  0
 62139  1  0  0  0
 62140  1  0  0  0
 63 65  1  0  0  0
 63141  1  0  0  0
 63142  1  0  0  0
 63143  1  0  0  0
 64144  1  0  0  0
 65145  1  0  0  0
 68 83  1  0  0  0
 71 72  2  0  0  0
 71 74  1  0  0  0
 71146  1  0  0  0
 72 76  1  0  0  0
 72147  1  0  0  0
 73 74  2  0  0  0
 73 75  1  0  0  0
 73148  1  0  0  0
 74 80  1  0  0  0
 75 76  2  0  0  0
 75 77  1  0  0  0
 76 85  1  0  0  0
 77149  1  0  0  0
 77150  1  0  0  0
 77151  1  0  0  0
 78152  1  0  0  0
 78153  1  0  0  0
 78154  1  0  0  0
 78 84  1  0  0  0
 79155  1  0  0  0
 79156  1  0  0  0
 79157  1  0  0  0
 79 86  1  0  0  0
 80 86  1  0  0  0
 80158  1  0  0  0
 80159  1  0  0  0
 81 82  1  0  0  0
 81 83  1  0  0  0
 81160  1  0  0  0
 81161  1  0  0  0
 82 84  1  0  0  0
 82162  1  0  0  0
 82163  1  0  0  0
 83164  1  0  0  0
 83165  1  0  0  0
 84 86  1  0  0  0
 84166  1  0  0  0
 85167  1  0  0  0
 86168  1  0  0  0
M  CHG  1  86   1
M  ISO  4   1 100  68 101  83 101  85 100
M  END
> <chiral flag>
0

> <version>
0

> <s_m_source_file>
/data/baiqing/PycharmProjects/Reinvent-master-3.2/result/LINK_invent/BTK/process_docking_weight1_custom_product_contain_oxygen_bond_distance_aromatic_linkinvent_7_9_3/rearranged_h_0019.sdf

> <i_m_source_file_index>
76

> <r_mmod_Potential_Energy-OPLS-2005>
-199.888259887695

> <r_mmod_Stretch_Energy-OPLS-2005>
37.4037551879883

> <r_mmod_Bend_Energy-OPLS-2005>
108.157989501953

> <r_mmod_Torsional_Energy-OPLS-2005>
216.811141967773

> <r_mmod_Improper_Torsional_Energy-OPLS-2005>
3.09184408187866

> <r_mmod_Van_der_Waal_Energy-OPLS-2005>
154.536697387695

> <r_mmod_Electrostatic_Energy-OPLS-2005>
-304.527801513672

> <r_mmod_Solvation_Energy-OPLS-2005>
-423.893218994141

> <b_mmod_Minimization_Converged-OPLS-2005>
0

> <r_mmod_RMS_Derivative-OPLS-2005>
0.692630052566528

$$$$
76
                    3D
 Structure written by MMmdl.
164172  0  0  1  0            999 V2000
  -30.7460  -14.4585   20.6148 C   0  0  0  0  0  0
  -30.4176  -12.3205   19.4141 C   0  0  0  0  0  0
  -29.4854  -12.5097   18.2018 C   0  0  0  0  0  0
  -28.0114  -12.3552   18.6214 C   0  0  0  0  0  0
  -27.6572  -13.2027   19.8708 C   0  0  2  0  0  0
  -28.7026  -13.0067   20.9927 C   0  0  0  0  0  0
  -25.2580  -13.8152   20.5686 C   0  0  0  0  0  0
  -24.1829  -13.0436   20.9184 C   0  0  0  0  0  0
  -24.6380  -11.6900   20.8751 C   0  0  0  0  0  0
  -23.9043  -10.4290   21.0419 C   0  0  0  0  0  0
  -24.3600   -9.4207   21.9197 C   0  0  0  0  0  0
  -23.6282   -8.2240   22.0762 C   0  0  0  0  0  0
  -22.4267   -8.0274   21.3547 C   0  0  0  0  0  0
  -21.9898   -9.0248   20.4649 C   0  0  0  0  0  0
  -22.7222  -10.2128   20.3064 C   0  0  0  0  0  0
  -21.6847   -6.0733   22.5280 C   0  0  0  0  0  0
  -21.4011   -6.5639   23.8213 C   0  0  0  0  0  0
  -21.3657   -5.6792   24.9176 C   0  0  0  0  0  0
  -21.6043   -4.3056   24.7224 C   0  0  0  0  0  0
  -21.8818   -3.8148   23.4346 C   0  0  0  0  0  0
  -21.9190   -4.6962   22.3404 C   0  0  0  0  0  0
  -22.7855  -13.5245   21.1844 C   0  0  0  0  0  0
  -22.1659   -4.2151   21.0980 F   0  0  0  0  0  0
  -21.5627   -3.4539   25.7736 F   0  0  0  0  0  0
  -30.0347  -13.3071   20.4383 N   0  0  0  0  0  0
  -26.3007  -12.9309   20.3368 N   0  0  0  0  0  0
  -25.9303  -11.6477   20.5782 N   0  0  0  0  0  0
  -22.0484  -12.8240   22.0393 N   0  0  0  0  0  0
  -25.4307  -15.1868   20.4081 N   0  0  0  0  0  0
  -31.8433  -14.6471   20.0797 O   0  0  0  0  0  0
  -21.6633   -6.8872   21.4242 O   0  0  0  0  0  0
  -22.3554  -14.5560   20.6700 O   0  0  0  0  0  0
  -24.6171  -31.8672   23.2103 C   0  0  0  0  0  0
  -25.9056  -32.4822   23.8403 C   0  0  1  0  0  0
  -27.2284  -27.4179   20.0875 C   0  0  0  0  0  0
  -25.5897  -33.8620   24.2327 N   0  0  0  0  0  0
  -23.4040  -30.4935   21.5523 C   0  0  2  0  0  0
  -24.8475  -28.9621   20.1130 C   0  0  0  0  0  0
  -22.7419  -29.4657   22.4988 C   0  0  0  0  0  0
  -18.0267  -28.1368   22.8477 C   0  0  0  0  0  0
  -24.1488  -36.7315   23.2637 C   0  0  0  0  0  0
  -25.9366  -30.8274   21.3658 C   0  0  0  0  0  0
  -26.0117  -29.4626   20.7086 C   0  0  0  0  0  0
  -27.2049  -28.6995   20.6908 C   0  0  0  0  0  0
  -26.0404  -26.9428   19.4813 C   0  0  0  0  0  0
  -24.8576  -27.7016   19.4970 C   0  0  0  0  0  0
  -23.6111  -29.8304   20.1656 C   0  0  0  0  0  0
  -25.4110  -36.3114   24.0338 C   0  0  1  0  0  0
  -20.5863  -28.3658   23.1310 C   0  0  2  0  0  0
  -20.6762  -26.9390   22.5411 C   0  0  0  0  0  0
  -19.5745  -26.6373   21.5206 C   0  0  0  0  0  0
  -18.1920  -26.7912   22.1606 C   0  0  0  0  0  0
  -19.1520  -28.8826   23.2887 C   0  0  0  0  0  0
  -18.9455  -30.1432   23.8906 C   0  0  0  0  0  0
  -17.6460  -30.6575   24.0565 C   0  0  0  0  0  0
  -25.9035  -34.9477   23.5129 C   0  0  0  0  0  0
  -16.5347  -29.9081   23.6330 C   0  0  0  0  0  0
  -16.7259  -28.6500   23.0340 C   0  0  0  0  0  0
  -26.4468  -31.6602   25.0738 C   0  0  0  0  0  0
  -25.3717  -31.3698   26.1475 C   0  0  0  0  0  0
  -27.0312  -30.3051   24.6109 C   0  0  0  0  0  0
  -27.6049  -32.4312   25.7495 C   0  0  0  0  0  0
  -27.5582  -37.1812   24.8461 C   0  0  0  0  0  0
  -21.4144  -29.3034   22.3731 N   0  0  0  0  0  0
  -26.4293  -37.3800   23.9408 N   0  0  0  0  0  0
  -24.6714  -31.0766   22.1012 N   0  0  0  0  0  0
  -23.4192  -28.8190   23.3023 O   0  0  0  0  0  0
  -28.3904  -26.6606   20.1108 O   0  0  0  0  0  0
  -26.5607  -34.8927   22.4699 O   0  0  0  0  0  0
  -23.5358  -32.1423   23.7490 O   0  0  0  0  0  0
  -30.0155  -18.4479   19.8158 C   0  0  0  0  0  0
  -30.2544  -19.8407   19.7801 C   0  0  0  0  0  0
  -29.3653  -18.6299   22.1423 C   0  0  0  0  0  0
  -29.5611  -17.8267   20.9987 C   0  0  0  0  0  0
  -29.6070  -20.0256   22.1189 C   0  0  0  0  0  0
  -30.0579  -20.6522   20.9209 C   0  0  0  0  0  0
  -29.3587  -20.8062   23.4014 C   0  0  0  0  0  0
  -31.3484  -22.5314   21.7482 C   0  0  0  0  0  0
  -31.0618  -15.8144   22.5961 C   0  0  0  0  0  0
  -29.1998  -16.3314   21.0192 C   0  0  0  0  0  0
  -29.4711  -24.4125   20.3994 C   0  0  0  0  0  0
  -29.1750  -22.8848   20.4904 C   0  0  0  0  0  0
  -28.2326  -25.2329   19.9699 C   0  0  0  0  0  0
  -30.3342  -22.0378   20.8177 N   0  0  0  0  0  0
  -30.2347  -15.3744   21.4709 N   0  0  0  0  0  0
  -31.4601  -12.4155   19.1060 H   0  0  0  0  0  0
  -30.3212  -11.3111   19.8177 H   0  0  0  0  0  0
  -29.7287  -11.7856   17.4230 H   0  0  0  0  0  0
  -29.6426  -13.4968   17.7633 H   0  0  0  0  0  0
  -27.8336  -11.2991   18.8290 H   0  0  0  0  0  0
  -27.3537  -12.6166   17.7913 H   0  0  0  0  0  0
  -27.6872  -14.2424   19.5525 H   0  0  0  0  0  0
  -28.6843  -11.9775   21.3549 H   0  0  0  0  0  0
  -28.4550  -13.6223   21.8578 H   0  0  0  0  0  0
  -25.2743   -9.5684   22.4772 H   0  0  0  0  0  0
  -23.9988   -7.4635   22.7489 H   0  0  0  0  0  0
  -21.0827   -8.8766   19.8957 H   0  0  0  0  0  0
  -22.3686  -10.9668   19.6170 H   0  0  0  0  0  0
  -21.2007   -7.6146   23.9715 H   0  0  0  0  0  0
  -21.1477   -6.0524   25.9076 H   0  0  0  0  0  0
  -22.0599   -2.7609   23.2847 H   0  0  0  0  0  0
  -22.4074  -11.9875   22.4755 H   0  0  0  0  0  0
  -21.1117  -13.1297   22.2619 H   0  0  0  0  0  0
  -24.6626  -15.8405   20.5126 H   0  0  0  0  0  0
  -26.2785  -15.6256   20.0748 H   0  0  0  0  0  0
  -26.7130  -32.5520   23.1166 H   0  0  0  0  0  0
  -25.0060  -33.9791   25.0481 H   0  0  0  0  0  0
  -22.6930  -31.3110   21.4160 H   0  0  0  0  0  0
  -23.3752  -35.9644   23.3306 H   0  0  0  0  0  0
  -24.3582  -36.8923   22.2049 H   0  0  0  0  0  0
  -23.7237  -37.6520   23.6651 H   0  0  0  0  0  0
  -26.0525  -31.5942   20.5984 H   0  0  0  0  0  0
  -26.8244  -30.8775   21.9850 H   0  0  0  0  0  0
  -28.1027  -29.0815   21.1567 H   0  0  0  0  0  0
  -25.9999  -25.9831   18.9879 H   0  0  0  0  0  0
  -23.9639  -27.3119   19.0299 H   0  0  0  0  0  0
  -23.7189  -30.6083   19.4087 H   0  0  0  0  0  0
  -22.7334  -29.2528   19.8686 H   0  0  0  0  0  0
  -25.1288  -36.1983   25.0830 H   0  0  0  0  0  0
  -20.9945  -28.3215   24.1429 H   0  0  0  0  0  0
  -20.5649  -26.2266   23.3597 H   0  0  0  0  0  0
  -21.6639  -26.7420   22.1217 H   0  0  0  0  0  0
  -19.6922  -25.6289   21.1217 H   0  0  0  0  0  0
  -19.6697  -27.3198   20.6747 H   0  0  0  0  0  0
  -17.4195  -26.6654   21.3999 H   0  0  0  0  0  0
  -18.0320  -26.0038   22.8986 H   0  0  0  0  0  0
  -19.7935  -30.7236   24.2273 H   0  0  0  0  0  0
  -17.5021  -31.6254   24.5164 H   0  0  0  0  0  0
  -15.5351  -30.2994   23.7646 H   0  0  0  0  0  0
  -15.8649  -28.0833   22.7048 H   0  0  0  0  0  0
  -24.5926  -30.7005   25.7810 H   0  0  0  0  0  0
  -24.8863  -32.2844   26.4897 H   0  0  0  0  0  0
  -25.8058  -30.8897   27.0254 H   0  0  0  0  0  0
  -26.2871  -29.6810   24.1146 H   0  0  0  0  0  0
  -27.4087  -29.7286   25.4565 H   0  0  0  0  0  0
  -27.8696  -30.4399   23.9270 H   0  0  0  0  0  0
  -27.2698  -33.3622   26.2082 H   0  0  0  0  0  0
  -28.3856  -32.6848   25.0311 H   0  0  0  0  0  0
  -28.0720  -31.8422   26.5398 H   0  0  0  0  0  0
  -28.2598  -38.0111   24.7523 H   0  0  0  0  0  0
  -28.1078  -36.2645   24.6269 H   0  0  0  0  0  0
  -27.2301  -37.1446   25.8862 H   0  0  0  0  0  0
  -20.9303  -29.8781   21.6977 H   0  0  0  0  0  0
  -26.0181  -38.2878   24.1412 H   0  0  0  0  0  0
  -30.1639  -17.8630   18.9184 H   0  0  0  0  0  0
  -30.5974  -20.2890   18.8582 H   0  0  0  0  0  0
  -29.0086  -18.1679   23.0522 H   0  0  0  0  0  0
  -28.7560  -20.2331   24.1055 H   0  0  0  0  0  0
  -28.8295  -21.7380   23.2060 H   0  0  0  0  0  0
  -30.3036  -21.0392   23.8918 H   0  0  0  0  0  0
  -32.0029  -21.7325   22.1014 H   0  0  0  0  0  0
  -30.8925  -23.0065   22.6179 H   0  0  0  0  0  0
  -31.9786  -23.2745   21.2578 H   0  0  0  0  0  0
  -30.4452  -16.2300   23.3928 H   0  0  0  0  0  0
  -31.7805  -16.5715   22.2796 H   0  0  0  0  0  0
  -31.6195  -14.9794   23.0251 H   0  0  0  0  0  0
  -28.8635  -16.0723   20.0142 H   0  0  0  0  0  0
  -28.3255  -16.1965   21.6578 H   0  0  0  0  0  0
  -30.2867  -24.6006   19.7006 H   0  0  0  0  0  0
  -29.8007  -24.7782   21.3721 H   0  0  0  0  0  0
  -28.7792  -22.5499   19.5301 H   0  0  0  0  0  0
  -28.3790  -22.7105   21.2152 H   0  0  0  0  0  0
  -27.3902  -24.9013   20.5798 H   0  0  0  0  0  0
  -27.9961  -24.9918   18.9329 H   0  0  0  0  0  0
  1 25  1  0  0  0
  1 30  2  0  0  0
  1 85  1  0  0  0
  2  3  1  0  0  0
  2 25  1  0  0  0
  2 86  1  0  0  0
  2 87  1  0  0  0
  3  4  1  0  0  0
  3 88  1  0  0  0
  3 89  1  0  0  0
  4  5  1  0  0  0
  4 90  1  0  0  0
  4 91  1  0  0  0
  5  6  1  0  0  0
  5 26  1  0  0  0
  5 92  1  0  0  0
  6 25  1  0  0  0
  6 93  1  0  0  0
  6 94  1  0  0  0
  7  8  2  0  0  0
  7 26  1  0  0  0
  7 29  1  0  0  0
  8  9  1  0  0  0
  8 22  1  0  0  0
  9 10  1  0  0  0
  9 27  2  0  0  0
 10 11  2  0  0  0
 10 15  1  0  0  0
 11 12  1  0  0  0
 11 95  1  0  0  0
 12 13  2  0  0  0
 12 96  1  0  0  0
 13 14  1  0  0  0
 13 31  1  0  0  0
 14 15  2  0  0  0
 14 97  1  0  0  0
 15 98  1  0  0  0
 16 17  2  0  0  0
 16 21  1  0  0  0
 16 31  1  0  0  0
 17 18  1  0  0  0
 17 99  1  0  0  0
 18 19  2  0  0  0
 18100  1  0  0  0
 19 20  1  0  0  0
 19 24  1  0  0  0
 20 21  2  0  0  0
 20101  1  0  0  0
 21 23  1  0  0  0
 22 28  1  0  0  0
 22 32  2  0  0  0
 26 27  1  0  0  0
 28102  1  0  0  0
 28103  1  0  0  0
 29104  1  0  0  0
 29105  1  0  0  0
 33 34  1  0  0  0
 33 66  1  0  0  0
 33 70  2  0  0  0
 34 36  1  0  0  0
 34 59  1  0  0  0
 34106  1  0  0  0
 35 44  2  0  0  0
 35 45  1  0  0  0
 35 68  1  0  0  0
 36 56  1  0  0  0
 36107  1  0  0  0
 37 39  1  0  0  0
 37 47  1  0  0  0
 37 66  1  0  0  0
 37108  1  0  0  0
 38 43  2  0  0  0
 38 46  1  0  0  0
 38 47  1  0  0  0
 39 64  1  0  0  0
 39 67  2  0  0  0
 40 52  1  0  0  0
 40 53  2  0  0  0
 40 58  1  0  0  0
 41109  1  0  0  0
 41110  1  0  0  0
 41111  1  0  0  0
 41 48  1  0  0  0
 42 43  1  0  0  0
 42 66  1  0  0  0
 42112  1  0  0  0
 42113  1  0  0  0
 43 44  1  0  0  0
 44114  1  0  0  0
 45 46  2  0  0  0
 45115  1  0  0  0
 46116  1  0  0  0
 47117  1  0  0  0
 47118  1  0  0  0
 48 56  1  0  0  0
 48 65  1  0  0  0
 48119  1  0  0  0
 49 50  1  0  0  0
 49 53  1  0  0  0
 49 64  1  0  0  0
 49120  1  0  0  0
 50 51  1  0  0  0
 50121  1  0  0  0
 50122  1  0  0  0
 51 52  1  0  0  0
 51123  1  0  0  0
 51124  1  0  0  0
 52125  1  0  0  0
 52126  1  0  0  0
 53 54  1  0  0  0
 54 55  2  0  0  0
 54127  1  0  0  0
 55 57  1  0  0  0
 55128  1  0  0  0
 56 69  2  0  0  0
 57 58  2  0  0  0
 57129  1  0  0  0
 58130  1  0  0  0
 59 60  1  0  0  0
 59 61  1  0  0  0
 59 62  1  0  0  0
 60131  1  0  0  0
 60132  1  0  0  0
 60133  1  0  0  0
 61134  1  0  0  0
 61135  1  0  0  0
 61136  1  0  0  0
 62137  1  0  0  0
 62138  1  0  0  0
 62139  1  0  0  0
 63 65  1  0  0  0
 63140  1  0  0  0
 63141  1  0  0  0
 63142  1  0  0  0
 64143  1  0  0  0
 65144  1  0  0  0
 68 83  1  0  0  0
 71 72  2  0  0  0
 71 74  1  0  0  0
 71145  1  0  0  0
 72 76  1  0  0  0
 72146  1  0  0  0
 73 74  2  0  0  0
 73 75  1  0  0  0
 73147  1  0  0  0
 74 80  1  0  0  0
 75 76  2  0  0  0
 75 77  1  0  0  0
 76 84  1  0  0  0
 77148  1  0  0  0
 77149  1  0  0  0
 77150  1  0  0  0
 78 84  1  0  0  0
 78151  1  0  0  0
 78152  1  0  0  0
 78153  1  0  0  0
 79 85  1  0  0  0
 79154  1  0  0  0
 79155  1  0  0  0
 79156  1  0  0  0
 80 85  1  0  0  0
 80157  1  0  0  0
 80158  1  0  0  0
 81 82  1  0  0  0
 81 83  1  0  0  0
 81159  1  0  0  0
 81160  1  0  0  0
 82 84  1  0  0  0
 82161  1  0  0  0
 82162  1  0  0  0
 83163  1  0  0  0
 83164  1  0  0  0
M  ISO  4   1 100  68 101  83 101  85 100
M  END
> <chiral flag>
0

> <version>
0

> <s_m_source_file>
/data/baiqing/PycharmProjects/Reinvent-master-3.2/result/LINK_invent/BTK/process_docking_weight1_custom_product_contain_oxygen_bond_distance_aromatic_linkinvent_7_9_3/rearranged_h_0019.sdf

> <i_m_source_file_index>
77

> <r_mmod_Potential_Energy-OPLS-2005>
73.5698623657227

> <r_mmod_Stretch_Energy-OPLS-2005>
43.0171127319336

> <r_mmod_Bend_Energy-OPLS-2005>
101.42253112793

> <r_mmod_Torsional_Energy-OPLS-2005>
294.487213134766

> <r_mmod_Improper_Torsional_Energy-OPLS-2005>
6.62862205505371

> <r_mmod_Van_der_Waal_Energy-OPLS-2005>
156.981826782227

> <r_mmod_Electrostatic_Energy-OPLS-2005>
-332.183929443359

> <r_mmod_Solvation_Energy-OPLS-2005>
-210.311737060547

> <b_mmod_Minimization_Converged-OPLS-2005>
0

> <r_mmod_RMS_Derivative-OPLS-2005>
1.05309820175171

$$$$
77
                    3D
 Structure written by MMmdl.
166174  0  0  1  0            999 V2000
  -30.7511  -14.5856   20.4066 C   0  0  0  0  0  0
  -30.3975  -12.3369   19.4484 C   0  0  0  0  0  0
  -29.4750  -12.4344   18.2193 C   0  0  0  0  0  0
  -28.0021  -12.3136   18.6568 C   0  0  0  0  0  0
  -27.6325  -13.2108   19.8705 C   0  0  2  0  0  0
  -28.7068  -13.1673   20.9809 C   0  0  0  0  0  0
  -25.2459  -13.8112   20.5880 C   0  0  0  0  0  0
  -24.1716  -13.0378   20.9252 C   0  0  0  0  0  0
  -24.6286  -11.6838   20.8826 C   0  0  0  0  0  0
  -23.8972  -10.4221   21.0406 C   0  0  0  0  0  0
  -24.3555   -9.4134   21.9193 C   0  0  0  0  0  0
  -23.6258   -8.2157   22.0765 C   0  0  0  0  0  0
  -22.4253   -8.0204   21.3528 C   0  0  0  0  0  0
  -21.9856   -9.0163   20.4640 C   0  0  0  0  0  0
  -22.7147  -10.2061   20.3062 C   0  0  0  0  0  0
  -21.6820   -6.0697   22.5262 C   0  0  0  0  0  0
  -21.4020   -6.5631   23.8186 C   0  0  0  0  0  0
  -21.3640   -5.6806   24.9158 C   0  0  0  0  0  0
  -21.6033   -4.3068   24.7226 C   0  0  0  0  0  0
  -21.8812   -3.8135   23.4364 C   0  0  0  0  0  0
  -21.9201   -4.6930   22.3403 C   0  0  0  0  0  0
  -22.7728  -13.5164   21.1850 C   0  0  0  0  0  0
  -22.1683   -4.2112   21.0987 F   0  0  0  0  0  0
  -21.5594   -3.4569   25.7741 F   0  0  0  0  0  0
  -30.0169  -13.4285   20.3644 N   0  0  0  0  0  0
  -26.2892  -12.9279   20.3596 N   0  0  0  0  0  0
  -25.9251  -11.6424   20.5984 N   0  0  0  0  0  0
  -22.0412  -12.8187   22.0437 N   0  0  0  0  0  0
  -25.4086  -15.1881   20.4354 N   0  0  0  0  0  0
  -31.9571  -14.5597   20.1517 O   0  0  0  0  0  0
  -21.6604   -6.8821   21.4221 O   0  0  0  0  0  0
  -22.3387  -14.5461   20.6655 O   0  0  0  0  0  0
  -24.6111  -31.8695   23.2019 C   0  0  0  0  0  0
  -25.9017  -32.4841   23.8353 C   0  0  1  0  0  0
  -27.2387  -27.4178   20.1223 C   0  0  0  0  0  0
  -25.5879  -33.8629   24.2283 N   0  0  0  0  0  0
  -23.4089  -30.4872   21.5468 C   0  0  2  0  0  0
  -24.8583  -28.9463   20.1136 C   0  0  0  0  0  0
  -22.7430  -29.4663   22.4963 C   0  0  0  0  0  0
  -18.0255  -28.1454   22.8480 C   0  0  0  0  0  0
  -24.1498  -36.7293   23.2645 C   0  0  0  0  0  0
  -25.9413  -30.8250   21.3654 C   0  0  0  0  0  0
  -26.0175  -29.4572   20.7152 C   0  0  0  0  0  0
  -27.2152  -28.7036   20.7061 C   0  0  0  0  0  0
  -26.0671  -26.9178   19.5176 C   0  0  0  0  0  0
  -24.8774  -27.6735   19.5110 C   0  0  0  0  0  0
  -23.6218  -29.8167   20.1636 C   0  0  0  0  0  0
  -25.4118  -36.3115   24.0343 C   0  0  1  0  0  0
  -20.5852  -28.3731   23.1294 C   0  0  2  0  0  0
  -20.6739  -26.9435   22.5427 C   0  0  0  0  0  0
  -19.5699  -26.6434   21.5257 C   0  0  0  0  0  0
  -18.1898  -26.7990   22.1679 C   0  0  0  0  0  0
  -19.1515  -28.8910   23.2888 C   0  0  0  0  0  0
  -18.9443  -30.1506   23.8899 C   0  0  0  0  0  0
  -17.6450  -30.6614   24.0582 C   0  0  0  0  0  0
  -25.9040  -34.9497   23.5118 C   0  0  0  0  0  0
  -16.5337  -29.9145   23.6299 C   0  0  0  0  0  0
  -16.7241  -28.6570   23.0292 C   0  0  0  0  0  0
  -26.4420  -31.6601   25.0668 C   0  0  0  0  0  0
  -25.3625  -31.3730   26.1372 C   0  0  0  0  0  0
  -27.0311  -30.3055   24.6092 C   0  0  0  0  0  0
  -27.6018  -32.4329   25.7387 C   0  0  0  0  0  0
  -27.5611  -37.1769   24.8470 C   0  0  0  0  0  0
  -21.4134  -29.3092   22.3717 N   0  0  0  0  0  0
  -26.4319  -37.3779   23.9406 N   0  0  0  0  0  0
  -24.6719  -31.0767   22.0962 N   0  0  0  0  0  0
  -23.4191  -28.8178   23.2982 O   0  0  0  0  0  0
  -28.3888  -26.6546   20.1082 O   0  0  0  0  0  0
  -26.5638  -34.8967   22.4690 O   0  0  0  0  0  0
  -23.5275  -32.1518   23.7329 O   0  0  0  0  0  0
  -32.2645  -18.6363   21.5585 C   0  0  0  0  0  0
  -31.3153  -19.6649   21.6863 C   0  0  0  0  0  0
  -31.8593  -17.3346   21.2022 C   0  0  0  0  0  0
  -29.5524  -18.0873   21.0851 C   0  0  0  0  0  0
  -29.9481  -19.4041   21.4626 C   0  0  0  0  0  0
  -30.5004  -17.0341   20.9063 C   0  0  0  0  0  0
  -26.7228  -20.7906   19.4465 C   0  0  0  0  0  0
  -29.6349  -16.0513   18.8850 C   0  0  0  0  0  0
  -28.9353  -20.5382   21.7155 C   0  0  0  0  0  0
  -28.2404  -21.0785   19.3860 C   0  0  0  0  0  0
  -28.2753  -22.8978   21.1520 C   0  0  0  0  0  0
  -28.3929  -25.5066   20.9853 C   0  0  0  0  0  0
  -28.5678  -24.1443   20.2470 C   0  0  1  0  0  0
  -30.0899  -15.7853   20.2673 N   0  0  0  0  0  0
  -28.8323  -21.5923   20.6546 N   0  3  1  0  0  0
  -29.9306  -24.0809   19.8470 O   0  0  0  0  0  0
  -31.4440  -12.3837   19.1447 H   0  0  0  0  0  0
  -30.2753  -11.3689   19.9349 H   0  0  0  0  0  0
  -29.7085  -11.6405   17.5079 H   0  0  0  0  0  0
  -29.6406  -13.3662   17.6852 H   0  0  0  0  0  0
  -27.8419  -11.2713   18.9278 H   0  0  0  0  0  0
  -27.3360  -12.5075   17.8148 H   0  0  0  0  0  0
  -27.5829  -14.2217   19.4957 H   0  0  0  0  0  0
  -28.7117  -12.2045   21.4862 H   0  0  0  0  0  0
  -28.4925  -13.9168   21.7414 H   0  0  0  0  0  0
  -25.2705   -9.5637   22.4740 H   0  0  0  0  0  0
  -23.9946   -7.4606   22.7551 H   0  0  0  0  0  0
  -21.0749   -8.8669   19.9020 H   0  0  0  0  0  0
  -22.3593  -10.9587   19.6154 H   0  0  0  0  0  0
  -21.2032   -7.6138   23.9685 H   0  0  0  0  0  0
  -21.1468   -6.0536   25.9047 H   0  0  0  0  0  0
  -22.0628   -2.7594   23.2882 H   0  0  0  0  0  0
  -22.4142  -11.9865   22.4787 H   0  0  0  0  0  0
  -21.1013  -13.1158   22.2691 H   0  0  0  0  0  0
  -24.6285  -15.8251   20.5494 H   0  0  0  0  0  0
  -26.2561  -15.6572   20.1435 H   0  0  0  0  0  0
  -26.7078  -32.5557   23.1103 H   0  0  0  0  0  0
  -24.9896  -33.9751   25.0361 H   0  0  0  0  0  0
  -22.6980  -31.2997   21.3986 H   0  0  0  0  0  0
  -23.3778  -35.9605   23.3284 H   0  0  0  0  0  0
  -24.3568  -36.8921   22.2063 H   0  0  0  0  0  0
  -23.7274  -37.6494   23.6663 H   0  0  0  0  0  0
  -26.0652  -31.5888   20.5963 H   0  0  0  0  0  0
  -26.8266  -30.8749   21.9913 H   0  0  0  0  0  0
  -28.1123  -29.0993   21.1670 H   0  0  0  0  0  0
  -26.0795  -25.9408   19.0594 H   0  0  0  0  0  0
  -23.9921  -27.2640   19.0483 H   0  0  0  0  0  0
  -23.7364  -30.5939   19.4090 H   0  0  0  0  0  0
  -22.7451  -29.2418   19.8644 H   0  0  0  0  0  0
  -25.1304  -36.1944   25.0839 H   0  0  0  0  0  0
  -20.9959  -28.3318   24.1408 H   0  0  0  0  0  0
  -20.5695  -26.2324   23.3637 H   0  0  0  0  0  0
  -21.6585  -26.7479   22.1154 H   0  0  0  0  0  0
  -19.6831  -25.6332   21.1301 H   0  0  0  0  0  0
  -19.6684  -27.3241   20.6781 H   0  0  0  0  0  0
  -17.4184  -26.6707   21.4065 H   0  0  0  0  0  0
  -18.0342  -26.0181   22.9128 H   0  0  0  0  0  0
  -19.7921  -30.7300   24.2326 H   0  0  0  0  0  0
  -17.5017  -31.6237   24.5311 H   0  0  0  0  0  0
  -15.5343  -30.3055   23.7717 H   0  0  0  0  0  0
  -15.8626  -28.0912   22.6992 H   0  0  0  0  0  0
  -24.5736  -30.7201   25.7610 H   0  0  0  0  0  0
  -24.8863  -32.2900   26.4861 H   0  0  0  0  0  0
  -25.7878  -30.8775   27.0119 H   0  0  0  0  0  0
  -26.2926  -29.6711   24.1192 H   0  0  0  0  0  0
  -27.4164  -29.7367   25.4564 H   0  0  0  0  0  0
  -27.8667  -30.4392   23.9233 H   0  0  0  0  0  0
  -27.2702  -33.3636   26.2016 H   0  0  0  0  0  0
  -28.3761  -32.6912   25.0143 H   0  0  0  0  0  0
  -28.0809  -31.8459   26.5243 H   0  0  0  0  0  0
  -28.2600  -38.0097   24.7551 H   0  0  0  0  0  0
  -28.1171  -36.2633   24.6273 H   0  0  0  0  0  0
  -27.2312  -37.1356   25.8871 H   0  0  0  0  0  0
  -20.9300  -29.8898   21.6995 H   0  0  0  0  0  0
  -26.0214  -38.2860   24.1379 H   0  0  0  0  0  0
  -33.3133  -18.8595   21.7238 H   0  0  0  0  0  0
  -31.6485  -20.6541   21.9746 H   0  0  0  0  0  0
  -32.6441  -16.5985   21.1038 H   0  0  0  0  0  0
  -28.5054  -17.8770   20.9135 H   0  0  0  0  0  0
  -26.1301  -21.7036   19.5241 H   0  0  0  0  0  0
  -26.4422  -20.1231   20.2640 H   0  0  0  0  0  0
  -26.4081  -20.3003   18.5242 H   0  0  0  0  0  0
  -29.1321  -17.0099   18.7764 H   0  0  0  0  0  0
  -28.9430  -15.3234   18.4832 H   0  0  0  0  0  0
  -30.4935  -16.0670   18.2083 H   0  0  0  0  0  0
  -29.2422  -21.0076   22.6510 H   0  0  0  0  0  0
  -27.9551  -20.1165   21.9212 H   0  0  0  0  0  0
  -28.4410  -21.7740   18.5695 H   0  0  0  0  0  0
  -28.7696  -20.1686   19.1029 H   0  0  0  0  0  0
  -27.2032  -22.8135   21.3371 H   0  0  0  0  0  0
  -28.7215  -23.0854   22.1304 H   0  0  0  0  0  0
  -29.2111  -25.6384   21.6968 H   0  0  0  0  0  0
  -27.4894  -25.4758   21.5963 H   0  0  0  0  0  0
  -27.9092  -24.1307   19.3730 H   0  0  0  0  0  0
  -29.7844  -21.8507   20.4316 H   0  0  0  0  0  0
  -30.1460  -24.9391   19.4821 H   0  0  0  0  0  0
  1 25  1  0  0  0
  1 30  2  0  0  0
  1 84  1  0  0  0
  2  3  1  0  0  0
  2 25  1  0  0  0
  2 87  1  0  0  0
  2 88  1  0  0  0
  3  4  1  0  0  0
  3 89  1  0  0  0
  3 90  1  0  0  0
  4  5  1  0  0  0
  4 91  1  0  0  0
  4 92  1  0  0  0
  5  6  1  0  0  0
  5 26  1  0  0  0
  5 93  1  0  0  0
  6 25  1  0  0  0
  6 94  1  0  0  0
  6 95  1  0  0  0
  7  8  2  0  0  0
  7 26  1  0  0  0
  7 29  1  0  0  0
  8  9  1  0  0  0
  8 22  1  0  0  0
  9 10  1  0  0  0
  9 27  2  0  0  0
 10 11  2  0  0  0
 10 15  1  0  0  0
 11 12  1  0  0  0
 11 96  1  0  0  0
 12 13  2  0  0  0
 12 97  1  0  0  0
 13 14  1  0  0  0
 13 31  1  0  0  0
 14 15  2  0  0  0
 14 98  1  0  0  0
 15 99  1  0  0  0
 16 17  2  0  0  0
 16 21  1  0  0  0
 16 31  1  0  0  0
 17 18  1  0  0  0
 17100  1  0  0  0
 18 19  2  0  0  0
 18101  1  0  0  0
 19 20  1  0  0  0
 19 24  1  0  0  0
 20 21  2  0  0  0
 20102  1  0  0  0
 21 23  1  0  0  0
 22 28  1  0  0  0
 22 32  2  0  0  0
 26 27  1  0  0  0
 28103  1  0  0  0
 28104  1  0  0  0
 29105  1  0  0  0
 29106  1  0  0  0
 33 34  1  0  0  0
 33 66  1  0  0  0
 33 70  2  0  0  0
 34 36  1  0  0  0
 34 59  1  0  0  0
 34107  1  0  0  0
 35 44  2  0  0  0
 35 45  1  0  0  0
 35 68  1  0  0  0
 36 56  1  0  0  0
 36108  1  0  0  0
 37 39  1  0  0  0
 37 47  1  0  0  0
 37 66  1  0  0  0
 37109  1  0  0  0
 38 43  2  0  0  0
 38 46  1  0  0  0
 38 47  1  0  0  0
 39 64  1  0  0  0
 39 67  2  0  0  0
 40 52  1  0  0  0
 40 53  2  0  0  0
 40 58  1  0  0  0
 41110  1  0  0  0
 41111  1  0  0  0
 41112  1  0  0  0
 41 48  1  0  0  0
 42 43  1  0  0  0
 42 66  1  0  0  0
 42113  1  0  0  0
 42114  1  0  0  0
 43 44  1  0  0  0
 44115  1  0  0  0
 45 46  2  0  0  0
 45116  1  0  0  0
 46117  1  0  0  0
 47118  1  0  0  0
 47119  1  0  0  0
 48 56  1  0  0  0
 48 65  1  0  0  0
 48120  1  0  0  0
 49 50  1  0  0  0
 49 53  1  0  0  0
 49 64  1  0  0  0
 49121  1  0  0  0
 50 51  1  0  0  0
 50122  1  0  0  0
 50123  1  0  0  0
 51 52  1  0  0  0
 51124  1  0  0  0
 51125  1  0  0  0
 52126  1  0  0  0
 52127  1  0  0  0
 53 54  1  0  0  0
 54 55  2  0  0  0
 54128  1  0  0  0
 55 57  1  0  0  0
 55129  1  0  0  0
 56 69  2  0  0  0
 57 58  2  0  0  0
 57130  1  0  0  0
 58131  1  0  0  0
 59 60  1  0  0  0
 59 61  1  0  0  0
 59 62  1  0  0  0
 60132  1  0  0  0
 60133  1  0  0  0
 60134  1  0  0  0
 61135  1  0  0  0
 61136  1  0  0  0
 61137  1  0  0  0
 62138  1  0  0  0
 62139  1  0  0  0
 62140  1  0  0  0
 63 65  1  0  0  0
 63141  1  0  0  0
 63142  1  0  0  0
 63143  1  0  0  0
 64144  1  0  0  0
 65145  1  0  0  0
 68 82  1  0  0  0
 71 72  2  0  0  0
 71 73  1  0  0  0
 71146  1  0  0  0
 72 75  1  0  0  0
 72147  1  0  0  0
 73 76  2  0  0  0
 73148  1  0  0  0
 74 75  2  0  0  0
 74 76  1  0  0  0
 74149  1  0  0  0
 75 79  1  0  0  0
 76 84  1  0  0  0
 77 80  1  0  0  0
 77150  1  0  0  0
 77151  1  0  0  0
 77152  1  0  0  0
 78 84  1  0  0  0
 78153  1  0  0  0
 78154  1  0  0  0
 78155  1  0  0  0
 79156  1  0  0  0
 79157  1  0  0  0
 79 85  1  0  0  0
 80 85  1  0  0  0
 80158  1  0  0  0
 80159  1  0  0  0
 81 83  1  0  0  0
 81 85  1  0  0  0
 81160  1  0  0  0
 81161  1  0  0  0
 82 83  1  0  0  0
 82162  1  0  0  0
 82163  1  0  0  0
 83 86  1  0  0  0
 83164  1  0  0  0
 85165  1  0  0  0
 86166  1  0  0  0
M  CHG  1  85   1
M  ISO  4   1 100  68 101  82 101  84 100
M  END
> <chiral flag>
0

> <version>
0

> <s_m_source_file>
/data/baiqing/PycharmProjects/Reinvent-master-3.2/result/LINK_invent/BTK/process_docking_weight1_custom_product_contain_oxygen_bond_distance_aromatic_linkinvent_7_9_3/rearranged_h_0019.sdf

> <i_m_source_file_index>
78

> <r_mmod_Potential_Energy-OPLS-2005>
77.9101104736328

> <r_mmod_Stretch_Energy-OPLS-2005>
55.7081184387207

> <r_mmod_Bend_Energy-OPLS-2005>
129.01286315918

> <r_mmod_Torsional_Energy-OPLS-2005>
353.770233154297

> <r_mmod_Improper_Torsional_Energy-OPLS-2005>
18.4485607147217

> <r_mmod_Van_der_Waal_Energy-OPLS-2005>
155.212905883789

> <r_mmod_Electrostatic_Energy-OPLS-2005>
-254.606643676758

> <r_mmod_Solvation_Energy-OPLS-2005>
-420.633331298828

> <b_mmod_Minimization_Converged-OPLS-2005>
0

> <r_mmod_RMS_Derivative-OPLS-2005>
6.46522808074951

$$$$
78
                    3D
 Structure written by MMmdl.
165174  0  0  1  0            999 V2000
  -30.7400  -14.4720   20.5980 C   0  0  0  0  0  0
  -30.4150  -12.3235   19.4179 C   0  0  0  0  0  0
  -29.4842  -12.5029   18.2032 C   0  0  0  0  0  0
  -28.0109  -12.3482   18.6238 C   0  0  0  0  0  0
  -27.6539  -13.2022   19.8676 C   0  0  2  0  0  0
  -28.7002  -13.0178   20.9909 C   0  0  0  0  0  0
  -25.2568  -13.8155   20.5695 C   0  0  0  0  0  0
  -24.1821  -13.0433   20.9208 C   0  0  0  0  0  0
  -24.6369  -11.6901   20.8760 C   0  0  0  0  0  0
  -23.9037  -10.4291   21.0421 C   0  0  0  0  0  0
  -24.3600   -9.4211   21.9193 C   0  0  0  0  0  0
  -23.6285   -8.2241   22.0756 C   0  0  0  0  0  0
  -22.4268   -8.0275   21.3544 C   0  0  0  0  0  0
  -21.9904   -9.0249   20.4642 C   0  0  0  0  0  0
  -22.7220  -10.2134   20.3060 C   0  0  0  0  0  0
  -21.6849   -6.0734   22.5283 C   0  0  0  0  0  0
  -21.4008   -6.5639   23.8217 C   0  0  0  0  0  0
  -21.3659   -5.6792   24.9179 C   0  0  0  0  0  0
  -21.6047   -4.3055   24.7230 C   0  0  0  0  0  0
  -21.8820   -3.8148   23.4351 C   0  0  0  0  0  0
  -21.9190   -4.6963   22.3406 C   0  0  0  0  0  0
  -22.7847  -13.5242   21.1861 C   0  0  0  0  0  0
  -22.1660   -4.2150   21.0982 F   0  0  0  0  0  0
  -21.5633   -3.4539   25.7741 F   0  0  0  0  0  0
  -30.0298  -13.3181   20.4335 N   0  0  0  0  0  0
  -26.2983  -12.9304   20.3358 N   0  0  0  0  0  0
  -25.9292  -11.6472   20.5785 N   0  0  0  0  0  0
  -22.0481  -12.8238   22.0414 N   0  0  0  0  0  0
  -25.4277  -15.1870   20.4081 N   0  0  0  0  0  0
  -31.8515  -14.6389   20.0869 O   0  0  0  0  0  0
  -21.6632   -6.8874   21.4241 O   0  0  0  0  0  0
  -22.3540  -14.5551   20.6710 O   0  0  0  0  0  0
  -24.6172  -31.8668   23.2118 C   0  0  0  0  0  0
  -25.9061  -32.4809   23.8415 C   0  0  1  0  0  0
  -27.2248  -27.4078   20.0891 C   0  0  0  0  0  0
  -25.5908  -33.8611   24.2328 N   0  0  0  0  0  0
  -23.4051  -30.4945   21.5532 C   0  0  2  0  0  0
  -24.8482  -28.9644   20.1129 C   0  0  0  0  0  0
  -22.7418  -29.4661   22.4980 C   0  0  0  0  0  0
  -18.0270  -28.1384   22.8508 C   0  0  0  0  0  0
  -24.1484  -36.7316   23.2646 C   0  0  0  0  0  0
  -25.9397  -30.8225   21.3726 C   0  0  0  0  0  0
  -26.0132  -29.4591   20.7113 C   0  0  0  0  0  0
  -27.2038  -28.6895   20.6958 C   0  0  0  0  0  0
  -26.0349  -26.9448   19.4745 C   0  0  0  0  0  0
  -24.8556  -27.7073   19.4916 C   0  0  0  0  0  0
  -23.6132  -29.8340   20.1666 C   0  0  0  0  0  0
  -25.4109  -36.3101   24.0335 C   0  0  1  0  0  0
  -20.5860  -28.3678   23.1309 C   0  0  2  0  0  0
  -20.6753  -26.9411   22.5420 C   0  0  0  0  0  0
  -19.5731  -26.6391   21.5219 C   0  0  0  0  0  0
  -18.1909  -26.7936   22.1630 C   0  0  0  0  0  0
  -19.1520  -28.8847   23.2907 C   0  0  0  0  0  0
  -18.9450  -30.1455   23.8919 C   0  0  0  0  0  0
  -17.6451  -30.6596   24.0569 C   0  0  0  0  0  0
  -25.9042  -34.9467   23.5127 C   0  0  0  0  0  0
  -16.5341  -29.9094   23.6335 C   0  0  0  0  0  0
  -16.7258  -28.6504   23.0370 C   0  0  0  0  0  0
  -26.4487  -31.6607   25.0760 C   0  0  0  0  0  0
  -25.3748  -31.3688   26.1497 C   0  0  0  0  0  0
  -27.0362  -30.3053   24.6186 C   0  0  0  0  0  0
  -27.6042  -32.4357   25.7527 C   0  0  0  0  0  0
  -27.5582  -37.1803   24.8464 C   0  0  0  0  0  0
  -21.4143  -29.3044   22.3715 N   0  0  0  0  0  0
  -26.4290  -37.3792   23.9417 N   0  0  0  0  0  0
  -24.6723  -31.0755   22.1032 N   0  0  0  0  0  0
  -23.4182  -28.8194   23.3020 O   0  0  0  0  0  0
  -28.3813  -26.6379   20.1222 O   0  0  0  0  0  0
  -26.5606  -34.8918   22.4692 O   0  0  0  0  0  0
  -23.5358  -32.1439   23.7487 O   0  0  0  0  0  0
  -30.3429  -18.3846   19.8951 C   0  0  0  0  0  0
  -29.0318  -20.1280   21.6582 C   0  0  0  0  0  0
  -30.5773  -19.7799   19.8147 C   0  0  0  0  0  0
  -29.4535  -17.8466   20.8510 C   0  0  0  0  0  0
  -29.9207  -20.6749   20.7020 C   0  0  0  0  0  0
  -28.8027  -18.7360   21.7363 C   0  0  0  0  0  0
  -29.5774  -24.1232   21.7393 C   0  0  0  0  0  0
  -30.3809  -22.8188   21.8688 C   0  0  0  0  0  0
  -29.3132  -22.8654   19.7469 C   0  0  0  0  0  0
  -29.4305  -24.3302   20.2296 C   0  0  1  0  0  0
  -31.5532  -20.2940   18.7694 C   0  0  0  0  0  0
  -31.0443  -15.9996   22.4525 C   0  0  0  0  0  0
  -29.1514  -16.3363   20.8819 C   0  0  0  0  0  0
  -28.2433  -25.2330   19.8063 C   0  0  0  0  0  0
  -30.1672  -22.0692   20.6303 N   0  0  0  0  0  0
  -30.2060  -15.4307   21.3942 N   0  0  0  0  0  0
  -27.9431  -18.2574   22.6680 F   0  0  0  0  0  0
  -31.4574  -12.4183   19.1079 H   0  0  0  0  0  0
  -30.3208  -11.3174   19.8298 H   0  0  0  0  0  0
  -29.7286  -11.7715   17.4314 H   0  0  0  0  0  0
  -29.6406  -13.4860   17.7551 H   0  0  0  0  0  0
  -27.8386  -11.2930   18.8396 H   0  0  0  0  0  0
  -27.3512  -12.5993   17.7923 H   0  0  0  0  0  0
  -27.6795  -14.2393   19.5420 H   0  0  0  0  0  0
  -28.6844  -11.9915   21.3609 H   0  0  0  0  0  0
  -28.4537  -13.6411   21.8513 H   0  0  0  0  0  0
  -25.2740   -9.5696   22.4772 H   0  0  0  0  0  0
  -23.9999   -7.4635   22.7477 H   0  0  0  0  0  0
  -21.0837   -8.8760   19.8944 H   0  0  0  0  0  0
  -22.3674  -10.9674   19.6172 H   0  0  0  0  0  0
  -21.1995   -7.6146   23.9718 H   0  0  0  0  0  0
  -21.1483   -6.0521   25.9080 H   0  0  0  0  0  0
  -22.0600   -2.7611   23.2848 H   0  0  0  0  0  0
  -22.4080  -11.9887   22.4795 H   0  0  0  0  0  0
  -21.1104  -13.1276   22.2623 H   0  0  0  0  0  0
  -24.6627  -15.8423   20.5263 H   0  0  0  0  0  0
  -26.2765  -15.6274   20.0803 H   0  0  0  0  0  0
  -26.7124  -32.5514   23.1169 H   0  0  0  0  0  0
  -25.0033  -33.9777   25.0457 H   0  0  0  0  0  0
  -22.6950  -31.3129   21.4173 H   0  0  0  0  0  0
  -23.3749  -35.9645   23.3294 H   0  0  0  0  0  0
  -24.3574  -36.8972   22.2066 H   0  0  0  0  0  0
  -23.7230  -37.6507   23.6691 H   0  0  0  0  0  0
  -26.0645  -31.5929   20.6106 H   0  0  0  0  0  0
  -26.8222  -30.8640   21.9997 H   0  0  0  0  0  0
  -28.1011  -29.0666   21.1674 H   0  0  0  0  0  0
  -25.9837  -25.9903   18.9722 H   0  0  0  0  0  0
  -23.9608  -27.3227   19.0215 H   0  0  0  0  0  0
  -23.7218  -30.6121   19.4101 H   0  0  0  0  0  0
  -22.7348  -29.2580   19.8700 H   0  0  0  0  0  0
  -25.1277  -36.1963   25.0827 H   0  0  0  0  0  0
  -20.9950  -28.3254   24.1430 H   0  0  0  0  0  0
  -20.5667  -26.2288   23.3607 H   0  0  0  0  0  0
  -21.6622  -26.7452   22.1212 H   0  0  0  0  0  0
  -19.6888  -25.6306   21.1245 H   0  0  0  0  0  0
  -19.6661  -27.3196   20.6745 H   0  0  0  0  0  0
  -17.4178  -26.6712   21.4025 H   0  0  0  0  0  0
  -18.0282  -26.0070   22.9010 H   0  0  0  0  0  0
  -19.7923  -30.7268   24.2294 H   0  0  0  0  0  0
  -17.5009  -31.6273   24.5173 H   0  0  0  0  0  0
  -15.5340  -30.3003   23.7658 H   0  0  0  0  0  0
  -15.8656  -28.0823   22.7092 H   0  0  0  0  0  0
  -24.5919  -30.7045   25.7817 H   0  0  0  0  0  0
  -24.8931  -32.2823   26.4985 H   0  0  0  0  0  0
  -25.8101  -30.8824   27.0236 H   0  0  0  0  0  0
  -26.2935  -29.6758   24.1268 H   0  0  0  0  0  0
  -27.4154  -29.7343   25.4677 H   0  0  0  0  0  0
  -27.8755  -30.4374   23.9353 H   0  0  0  0  0  0
  -27.2651  -33.3663   26.2092 H   0  0  0  0  0  0
  -28.3852  -32.6920   25.0355 H   0  0  0  0  0  0
  -28.0716  -31.8507   26.5459 H   0  0  0  0  0  0
  -28.2568  -38.0130   24.7549 H   0  0  0  0  0  0
  -28.1112  -36.2659   24.6248 H   0  0  0  0  0  0
  -27.2303  -37.1401   25.8867 H   0  0  0  0  0  0
  -20.9297  -29.8789   21.6960 H   0  0  0  0  0  0
  -26.0178  -38.2869   24.1439 H   0  0  0  0  0  0
  -30.8437  -17.7157   19.2085 H   0  0  0  0  0  0
  -28.5036  -20.7717   22.3448 H   0  0  0  0  0  0
  -30.0585  -24.9646   22.2388 H   0  0  0  0  0  0
  -28.5956  -23.9904   22.1963 H   0  0  0  0  0  0
  -30.1112  -22.2723   22.7739 H   0  0  0  0  0  0
  -31.4455  -23.0474   21.9437 H   0  0  0  0  0  0
  -29.6213  -22.7679   18.7047 H   0  0  0  0  0  0
  -28.2812  -22.5160   19.8191 H   0  0  0  0  0  0
  -30.3579  -24.7495   19.8354 H   0  0  0  0  0  0
  -32.1357  -19.4823   18.3339 H   0  0  0  0  0  0
  -32.2548  -21.0019   19.2119 H   0  0  0  0  0  0
  -31.0176  -20.7959   17.9641 H   0  0  0  0  0  0
  -30.4399  -16.5315   23.1879 H   0  0  0  0  0  0
  -31.7748  -16.6957   22.0375 H   0  0  0  0  0  0
  -31.5908  -15.2186   22.9833 H   0  0  0  0  0  0
  -28.8962  -16.0646   19.8565 H   0  0  0  0  0  0
  -28.2460  -16.1558   21.4627 H   0  0  0  0  0  0
  -27.3493  -24.8251   20.2820 H   0  0  0  0  0  0
  -28.1048  -25.1388   18.7283 H   0  0  0  0  0  0
  1 25  1  0  0  0
  1 30  2  0  0  0
  1 86  1  0  0  0
  2  3  1  0  0  0
  2 25  1  0  0  0
  2 88  1  0  0  0
  2 89  1  0  0  0
  3  4  1  0  0  0
  3 90  1  0  0  0
  3 91  1  0  0  0
  4  5  1  0  0  0
  4 92  1  0  0  0
  4 93  1  0  0  0
  5  6  1  0  0  0
  5 26  1  0  0  0
  5 94  1  0  0  0
  6 25  1  0  0  0
  6 95  1  0  0  0
  6 96  1  0  0  0
  7  8  2  0  0  0
  7 26  1  0  0  0
  7 29  1  0  0  0
  8  9  1  0  0  0
  8 22  1  0  0  0
  9 10  1  0  0  0
  9 27  2  0  0  0
 10 11  2  0  0  0
 10 15  1  0  0  0
 11 12  1  0  0  0
 11 97  1  0  0  0
 12 13  2  0  0  0
 12 98  1  0  0  0
 13 14  1  0  0  0
 13 31  1  0  0  0
 14 15  2  0  0  0
 14 99  1  0  0  0
 15100  1  0  0  0
 16 17  2  0  0  0
 16 21  1  0  0  0
 16 31  1  0  0  0
 17 18  1  0  0  0
 17101  1  0  0  0
 18 19  2  0  0  0
 18102  1  0  0  0
 19 20  1  0  0  0
 19 24  1  0  0  0
 20 21  2  0  0  0
 20103  1  0  0  0
 21 23  1  0  0  0
 22 28  1  0  0  0
 22 32  2  0  0  0
 26 27  1  0  0  0
 28104  1  0  0  0
 28105  1  0  0  0
 29106  1  0  0  0
 29107  1  0  0  0
 33 34  1  0  0  0
 33 66  1  0  0  0
 33 70  2  0  0  0
 34 36  1  0  0  0
 34 59  1  0  0  0
 34108  1  0  0  0
 35 44  2  0  0  0
 35 45  1  0  0  0
 35 68  1  0  0  0
 36 56  1  0  0  0
 36109  1  0  0  0
 37 39  1  0  0  0
 37 47  1  0  0  0
 37 66  1  0  0  0
 37110  1  0  0  0
 38 43  2  0  0  0
 38 46  1  0  0  0
 38 47  1  0  0  0
 39 64  1  0  0  0
 39 67  2  0  0  0
 40 52  1  0  0  0
 40 53  2  0  0  0
 40 58  1  0  0  0
 41111  1  0  0  0
 41112  1  0  0  0
 41113  1  0  0  0
 41 48  1  0  0  0
 42 43  1  0  0  0
 42 66  1  0  0  0
 42114  1  0  0  0
 42115  1  0  0  0
 43 44  1  0  0  0
 44116  1  0  0  0
 45 46  2  0  0  0
 45117  1  0  0  0
 46118  1  0  0  0
 47119  1  0  0  0
 47120  1  0  0  0
 48 56  1  0  0  0
 48 65  1  0  0  0
 48121  1  0  0  0
 49 50  1  0  0  0
 49 53  1  0  0  0
 49 64  1  0  0  0
 49122  1  0  0  0
 50 51  1  0  0  0
 50123  1  0  0  0
 50124  1  0  0  0
 51 52  1  0  0  0
 51125  1  0  0  0
 51126  1  0  0  0
 52127  1  0  0  0
 52128  1  0  0  0
 53 54  1  0  0  0
 54 55  2  0  0  0
 54129  1  0  0  0
 55 57  1  0  0  0
 55130  1  0  0  0
 56 69  2  0  0  0
 57 58  2  0  0  0
 57131  1  0  0  0
 58132  1  0  0  0
 59 60  1  0  0  0
 59 61  1  0  0  0
 59 62  1  0  0  0
 60133  1  0  0  0
 60134  1  0  0  0
 60135  1  0  0  0
 61136  1  0  0  0
 61137  1  0  0  0
 61138  1  0  0  0
 62139  1  0  0  0
 62140  1  0  0  0
 62141  1  0  0  0
 63 65  1  0  0  0
 63142  1  0  0  0
 63143  1  0  0  0
 63144  1  0  0  0
 64145  1  0  0  0
 65146  1  0  0  0
 68 84  1  0  0  0
 71 73  2  0  0  0
 71 74  1  0  0  0
 71147  1  0  0  0
 72 75  2  0  0  0
 72 76  1  0  0  0
 72148  1  0  0  0
 73 75  1  0  0  0
 73 81  1  0  0  0
 74 76  2  0  0  0
 74 83  1  0  0  0
 75 85  1  0  0  0
 76 87  1  0  0  0
 77 78  1  0  0  0
 77 80  1  0  0  0
 77149  1  0  0  0
 77150  1  0  0  0
 78 85  1  0  0  0
 78151  1  0  0  0
 78152  1  0  0  0
 79 80  1  0  0  0
 79 85  1  0  0  0
 79153  1  0  0  0
 79154  1  0  0  0
 80 84  1  0  0  0
 80155  1  0  0  0
 81156  1  0  0  0
 81157  1  0  0  0
 81158  1  0  0  0
 82 86  1  0  0  0
 82159  1  0  0  0
 82160  1  0  0  0
 82161  1  0  0  0
 83 86  1  0  0  0
 83162  1  0  0  0
 83163  1  0  0  0
 84164  1  0  0  0
 84165  1  0  0  0
M  ISO  4   1 100  68 101  84 101  86 100
M  END
> <chiral flag>
0

> <version>
0

> <s_m_source_file>
/data/baiqing/PycharmProjects/Reinvent-master-3.2/result/LINK_invent/BTK/process_docking_weight1_custom_product_contain_oxygen_bond_distance_aromatic_linkinvent_7_9_3/rearranged_h_0019.sdf

> <i_m_source_file_index>
79

> <r_mmod_Potential_Energy-OPLS-2005>
171.791915893555

> <r_mmod_Stretch_Energy-OPLS-2005>
43.0930366516113

> <r_mmod_Bend_Energy-OPLS-2005>
131.241638183594

> <r_mmod_Torsional_Energy-OPLS-2005>
340.446899414062

> <r_mmod_Improper_Torsional_Energy-OPLS-2005>
8.14885139465332

> <r_mmod_Van_der_Waal_Energy-OPLS-2005>
152.662124633789

> <r_mmod_Electrostatic_Energy-OPLS-2005>
-320.635223388672

> <r_mmod_Solvation_Energy-OPLS-2005>
-199.340896606445

> <b_mmod_Minimization_Converged-OPLS-2005>
0

> <r_mmod_RMS_Derivative-OPLS-2005>
1.14183843135834

$$$$
79
                    3D
 Structure written by MMmdl.
172181  0  0  1  0            999 V2000
  -30.6484  -14.5388   20.5213 C   0  0  0  0  0  0
  -30.4309  -12.3387   19.4202 C   0  0  0  0  0  0
  -29.4988  -12.5172   18.2021 C   0  0  0  0  0  0
  -28.0166  -12.3732   18.6109 C   0  0  0  0  0  0
  -27.6537  -13.2082   19.8679 C   0  0  2  0  0  0
  -28.7007  -13.0139   20.9871 C   0  0  0  0  0  0
  -25.2584  -13.8076   20.5803 C   0  0  0  0  0  0
  -24.1809  -13.0349   20.9161 C   0  0  0  0  0  0
  -24.6395  -11.6844   20.8687 C   0  0  0  0  0  0
  -23.9070  -10.4247   21.0379 C   0  0  0  0  0  0
  -24.3621   -9.4175   21.9176 C   0  0  0  0  0  0
  -23.6295   -8.2211   22.0761 C   0  0  0  0  0  0
  -22.4280   -8.0256   21.3540 C   0  0  0  0  0  0
  -21.9904   -9.0230   20.4650 C   0  0  0  0  0  0
  -22.7240  -10.2102   20.3045 C   0  0  0  0  0  0
  -21.6849   -6.0735   22.5290 C   0  0  0  0  0  0
  -21.3996   -6.5644   23.8218 C   0  0  0  0  0  0
  -21.3663   -5.6802   24.9188 C   0  0  0  0  0  0
  -21.6047   -4.3065   24.7242 C   0  0  0  0  0  0
  -21.8824   -3.8148   23.4361 C   0  0  0  0  0  0
  -21.9186   -4.6960   22.3412 C   0  0  0  0  0  0
  -22.7858  -13.5188   21.1842 C   0  0  0  0  0  0
  -22.1658   -4.2160   21.0985 F   0  0  0  0  0  0
  -21.5647   -3.4542   25.7745 F   0  0  0  0  0  0
  -30.0227  -13.3322   20.4240 N   0  0  0  0  0  0
  -26.2998  -12.9273   20.3357 N   0  0  0  0  0  0
  -25.9320  -11.6435   20.5693 N   0  0  0  0  0  0
  -22.0491  -12.8172   22.0394 N   0  0  0  0  0  0
  -25.4340  -15.1781   20.4590 N   0  0  0  0  0  0
  -31.8145  -14.7205   20.1603 O   0  0  0  0  0  0
  -21.6621   -6.8872   21.4254 O   0  0  0  0  0  0
  -22.3556  -14.5521   20.6744 O   0  0  0  0  0  0
  -24.6149  -31.8654   23.2107 C   0  0  0  0  0  0
  -25.9058  -32.4796   23.8380 C   0  0  1  0  0  0
  -27.2377  -27.4268   20.0838 C   0  0  0  0  0  0
  -25.5910  -33.8602   24.2282 N   0  0  0  0  0  0
  -23.3995  -30.4890   21.5540 C   0  0  2  0  0  0
  -24.8442  -28.9512   20.1160 C   0  0  0  0  0  0
  -22.7381  -29.4646   22.5030 C   0  0  0  0  0  0
  -18.0262  -28.1347   22.8514 C   0  0  0  0  0  0
  -24.1499  -36.7316   23.2635 C   0  0  0  0  0  0
  -25.9296  -30.8252   21.3658 C   0  0  0  0  0  0
  -26.0037  -29.4594   20.7122 C   0  0  0  0  0  0
  -27.1979  -28.7008   20.6981 C   0  0  0  0  0  0
  -26.0482  -26.9228   19.5048 C   0  0  0  0  0  0
  -24.8621  -27.6804   19.5142 C   0  0  0  0  0  0
  -23.6021  -29.8149   20.1703 C   0  0  0  0  0  0
  -25.4129  -36.3121   24.0313 C   0  0  1  0  0  0
  -20.5849  -28.3646   23.1335 C   0  0  2  0  0  0
  -20.6774  -26.9395   22.5422 C   0  0  0  0  0  0
  -19.5754  -26.6380   21.5221 C   0  0  0  0  0  0
  -18.1924  -26.7892   22.1627 C   0  0  0  0  0  0
  -19.1504  -28.8812   23.2909 C   0  0  0  0  0  0
  -18.9441  -30.1424   23.8896 C   0  0  0  0  0  0
  -17.6445  -30.6557   24.0571 C   0  0  0  0  0  0
  -25.9042  -34.9467   23.5092 C   0  0  0  0  0  0
  -16.5338  -29.9059   23.6343 C   0  0  0  0  0  0
  -16.7254  -28.6475   23.0370 C   0  0  0  0  0  0
  -26.4470  -31.6601   25.0718 C   0  0  0  0  0  0
  -25.3702  -31.3727   26.1442 C   0  0  0  0  0  0
  -27.0319  -30.3044   24.6128 C   0  0  0  0  0  0
  -27.6036  -32.4322   25.7481 C   0  0  0  0  0  0
  -27.5580  -37.1820   24.8448 C   0  0  0  0  0  0
  -21.4112  -29.3012   22.3733 N   0  0  0  0  0  0
  -26.4314  -37.3809   23.9369 N   0  0  0  0  0  0
  -24.6663  -31.0734   22.1018 N   0  0  0  0  0  0
  -23.4144  -28.8198   23.3084 O   0  0  0  0  0  0
  -28.4349  -26.7325   20.0916 O   0  0  0  0  0  0
  -26.5612  -34.8925   22.4654 O   0  0  0  0  0  0
  -23.5336  -32.1442   23.7491 O   0  0  0  0  0  0
  -30.5931  -17.2629   22.3250 C   0  0  0  0  0  0
  -30.8642  -18.5908   22.6898 C   0  0  0  0  0  0
  -29.9099  -18.0131   20.0821 C   0  0  0  0  0  0
  -30.1357  -19.3779   20.4825 C   0  0  0  0  0  0
  -30.1311  -16.9517   21.0290 C   0  0  0  0  0  0
  -30.6400  -19.6335   21.7787 C   0  0  0  0  0  0
  -25.8042  -17.8106   18.3346 C   0  0  0  0  0  0
  -26.2454  -16.9317   17.1674 C   0  0  0  0  0  0
  -27.0843  -17.9623   19.1575 C   0  0  0  0  0  0
  -27.7250  -17.2826   16.9528 C   0  0  0  0  0  0
  -29.5488  -17.6629   18.6245 C   0  0  0  0  0  0
  -29.9266  -20.6096   19.5673 C   0  0  0  0  0  0
  -28.5628  -24.2322   20.1696 C   0  0  0  0  0  0
  -29.1352  -22.9996   19.4078 C   0  0  0  0  0  0
  -28.6161  -25.5310   19.3208 C   0  0  0  0  0  0
  -29.8116  -15.5751   20.7745 N   0  0  0  0  0  0
  -28.1764  -18.0185   18.1623 N   0  3  0  0  0  0
  -29.2175  -21.7507   20.2203 N   0  3  0  0  0  0
  -30.9105  -20.9073   22.1560 F   0  0  0  0  0  0
  -31.4750  -12.4606   19.1222 H   0  0  0  0  0  0
  -30.3444  -11.3298   19.8269 H   0  0  0  0  0  0
  -29.7462  -11.7925   17.4248 H   0  0  0  0  0  0
  -29.6610  -13.5023   17.7591 H   0  0  0  0  0  0
  -27.8239  -11.3160   18.7942 H   0  0  0  0  0  0
  -27.3731  -12.6584   17.7772 H   0  0  0  0  0  0
  -27.6775  -14.2515   19.5543 H   0  0  0  0  0  0
  -28.6907  -11.9834   21.3464 H   0  0  0  0  0  0
  -28.4661  -13.6301   21.8563 H   0  0  0  0  0  0
  -25.2792   -9.5647   22.4728 H   0  0  0  0  0  0
  -24.0021   -7.4610   22.7476 H   0  0  0  0  0  0
  -21.0841   -8.8744   19.8950 H   0  0  0  0  0  0
  -22.3729  -10.9628   19.6133 H   0  0  0  0  0  0
  -21.1958   -7.6152   23.9724 H   0  0  0  0  0  0
  -21.1493   -6.0529   25.9092 H   0  0  0  0  0  0
  -22.0594   -2.7609   23.2856 H   0  0  0  0  0  0
  -22.4091  -11.9816   22.4749 H   0  0  0  0  0  0
  -21.1110  -13.1203   22.2595 H   0  0  0  0  0  0
  -24.6824  -15.8289   20.6616 H   0  0  0  0  0  0
  -26.3346  -15.6176   20.3586 H   0  0  0  0  0  0
  -26.7108  -32.5494   23.1129 H   0  0  0  0  0  0
  -25.0142  -33.9818   25.0471 H   0  0  0  0  0  0
  -22.6907  -31.3067   21.4157 H   0  0  0  0  0  0
  -23.3768  -35.9641   23.3317 H   0  0  0  0  0  0
  -24.3598  -36.8944   22.2055 H   0  0  0  0  0  0
  -23.7259  -37.6522   23.6636 H   0  0  0  0  0  0
  -26.0401  -31.5946   20.6001 H   0  0  0  0  0  0
  -26.8179  -30.8740   21.9855 H   0  0  0  0  0  0
  -28.0926  -29.0947   21.1611 H   0  0  0  0  0  0
  -26.0060  -25.9432   19.0517 H   0  0  0  0  0  0
  -23.9674  -27.2719   19.0627 H   0  0  0  0  0  0
  -23.6974  -30.5876   19.4067 H   0  0  0  0  0  0
  -22.7269  -29.2278   19.8839 H   0  0  0  0  0  0
  -25.1320  -36.2009   25.0810 H   0  0  0  0  0  0
  -20.9916  -28.3244   24.1471 H   0  0  0  0  0  0
  -20.5764  -26.2250   23.3609 H   0  0  0  0  0  0
  -21.6640  -26.7523   22.1160 H   0  0  0  0  0  0
  -19.6949  -25.6308   21.1220 H   0  0  0  0  0  0
  -19.6681  -27.3235   20.6780 H   0  0  0  0  0  0
  -17.4215  -26.6686   21.4008 H   0  0  0  0  0  0
  -18.0304  -25.9999   22.8978 H   0  0  0  0  0  0
  -19.7923  -30.7238   24.2260 H   0  0  0  0  0  0
  -17.5010  -31.6248   24.5161 H   0  0  0  0  0  0
  -15.5342  -30.2959   23.7648 H   0  0  0  0  0  0
  -15.8665  -28.0783   22.7084 H   0  0  0  0  0  0
  -24.5863  -30.7110   25.7753 H   0  0  0  0  0  0
  -24.8906  -32.2901   26.4857 H   0  0  0  0  0  0
  -25.8029  -30.8898   27.0212 H   0  0  0  0  0  0
  -26.2918  -29.6798   24.1136 H   0  0  0  0  0  0
  -27.4043  -29.7288   25.4607 H   0  0  0  0  0  0
  -27.8732  -30.4359   23.9329 H   0  0  0  0  0  0
  -27.2656  -33.3608   26.2076 H   0  0  0  0  0  0
  -28.3836  -32.6920   25.0311 H   0  0  0  0  0  0
  -28.0693  -31.8437   26.5402 H   0  0  0  0  0  0
  -28.2602  -38.0119   24.7514 H   0  0  0  0  0  0
  -28.1086  -36.2650   24.6269 H   0  0  0  0  0  0
  -27.2261  -37.1458   25.8844 H   0  0  0  0  0  0
  -20.9274  -29.8733   21.6945 H   0  0  0  0  0  0
  -26.0207  -38.2882   24.1388 H   0  0  0  0  0  0
  -30.7530  -16.4801   23.0518 H   0  0  0  0  0  0
  -31.2465  -18.8178   23.6759 H   0  0  0  0  0  0
  -24.9794  -17.3790   18.9012 H   0  0  0  0  0  0
  -25.4761  -18.7837   17.9684 H   0  0  0  0  0  0
  -25.6444  -17.0823   16.2705 H   0  0  0  0  0  0
  -26.1566  -15.8813   17.4490 H   0  0  0  0  0  0
  -27.2228  -17.0970   19.8031 H   0  0  0  0  0  0
  -27.0602  -18.8467   19.7952 H   0  0  0  0  0  0
  -27.8590  -17.9185   16.0765 H   0  0  0  0  0  0
  -28.2976  -16.3720   16.7705 H   0  0  0  0  0  0
  -29.7096  -16.5976   18.4672 H   0  0  0  0  0  0
  -30.2701  -18.1408   17.9611 H   0  0  0  0  0  0
  -29.3666  -20.3459   18.6740 H   0  0  0  0  0  0
  -30.9082  -20.9461   19.2270 H   0  0  0  0  0  0
  -29.1450  -24.3918   21.0784 H   0  0  0  0  0  0
  -27.5385  -24.0352   20.4908 H   0  0  0  0  0  0
  -30.1336  -23.2427   19.0385 H   0  0  0  0  0  0
  -28.5272  -22.8065   18.5233 H   0  0  0  0  0  0
  -29.6200  -25.6107   18.9051 H   0  0  0  0  0  0
  -27.9687  -25.4698   18.4463 H   0  0  0  0  0  0
  -28.8638  -15.2934   20.9758 H   0  0  0  0  0  0
  -28.2094  -18.9785   17.8548 H   0  0  0  0  0  0
  -29.7316  -21.9436   21.0696 H   0  0  0  0  0  0
  -28.2879  -21.4631   20.4829 H   0  0  0  0  0  0
  1 25  1  0  0  0
  1 30  2  0  0  0
  1 86  1  0  0  0
  2  3  1  0  0  0
  2 25  1  0  0  0
  2 90  1  0  0  0
  2 91  1  0  0  0
  3  4  1  0  0  0
  3 92  1  0  0  0
  3 93  1  0  0  0
  4  5  1  0  0  0
  4 94  1  0  0  0
  4 95  1  0  0  0
  5  6  1  0  0  0
  5 26  1  0  0  0
  5 96  1  0  0  0
  6 25  1  0  0  0
  6 97  1  0  0  0
  6 98  1  0  0  0
  7  8  2  0  0  0
  7 26  1  0  0  0
  7 29  1  0  0  0
  8  9  1  0  0  0
  8 22  1  0  0  0
  9 10  1  0  0  0
  9 27  2  0  0  0
 10 11  2  0  0  0
 10 15  1  0  0  0
 11 12  1  0  0  0
 11 99  1  0  0  0
 12 13  2  0  0  0
 12100  1  0  0  0
 13 14  1  0  0  0
 13 31  1  0  0  0
 14 15  2  0  0  0
 14101  1  0  0  0
 15102  1  0  0  0
 16 17  2  0  0  0
 16 21  1  0  0  0
 16 31  1  0  0  0
 17 18  1  0  0  0
 17103  1  0  0  0
 18 19  2  0  0  0
 18104  1  0  0  0
 19 20  1  0  0  0
 19 24  1  0  0  0
 20 21  2  0  0  0
 20105  1  0  0  0
 21 23  1  0  0  0
 22 28  1  0  0  0
 22 32  2  0  0  0
 26 27  1  0  0  0
 28106  1  0  0  0
 28107  1  0  0  0
 29108  1  0  0  0
 29109  1  0  0  0
 33 34  1  0  0  0
 33 66  1  0  0  0
 33 70  2  0  0  0
 34 36  1  0  0  0
 34 59  1  0  0  0
 34110  1  0  0  0
 35 44  2  0  0  0
 35 45  1  0  0  0
 35 68  1  0  0  0
 36 56  1  0  0  0
 36111  1  0  0  0
 37 39  1  0  0  0
 37 47  1  0  0  0
 37 66  1  0  0  0
 37112  1  0  0  0
 38 43  2  0  0  0
 38 46  1  0  0  0
 38 47  1  0  0  0
 39 64  1  0  0  0
 39 67  2  0  0  0
 40 52  1  0  0  0
 40 53  2  0  0  0
 40 58  1  0  0  0
 41113  1  0  0  0
 41114  1  0  0  0
 41115  1  0  0  0
 41 48  1  0  0  0
 42 43  1  0  0  0
 42 66  1  0  0  0
 42116  1  0  0  0
 42117  1  0  0  0
 43 44  1  0  0  0
 44118  1  0  0  0
 45 46  2  0  0  0
 45119  1  0  0  0
 46120  1  0  0  0
 47121  1  0  0  0
 47122  1  0  0  0
 48 56  1  0  0  0
 48 65  1  0  0  0
 48123  1  0  0  0
 49 50  1  0  0  0
 49 53  1  0  0  0
 49 64  1  0  0  0
 49124  1  0  0  0
 50 51  1  0  0  0
 50125  1  0  0  0
 50126  1  0  0  0
 51 52  1  0  0  0
 51127  1  0  0  0
 51128  1  0  0  0
 52129  1  0  0  0
 52130  1  0  0  0
 53 54  1  0  0  0
 54 55  2  0  0  0
 54131  1  0  0  0
 55 57  1  0  0  0
 55132  1  0  0  0
 56 69  2  0  0  0
 57 58  2  0  0  0
 57133  1  0  0  0
 58134  1  0  0  0
 59 60  1  0  0  0
 59 61  1  0  0  0
 59 62  1  0  0  0
 60135  1  0  0  0
 60136  1  0  0  0
 60137  1  0  0  0
 61138  1  0  0  0
 61139  1  0  0  0
 61140  1  0  0  0
 62141  1  0  0  0
 62142  1  0  0  0
 62143  1  0  0  0
 63 65  1  0  0  0
 63144  1  0  0  0
 63145  1  0  0  0
 63146  1  0  0  0
 64147  1  0  0  0
 65148  1  0  0  0
 68 85  1  0  0  0
 71 72  2  0  0  0
 71 75  1  0  0  0
 71149  1  0  0  0
 72 76  1  0  0  0
 72150  1  0  0  0
 73 74  1  0  0  0
 73 75  2  0  0  0
 73 81  1  0  0  0
 74 76  2  0  0  0
 74 82  1  0  0  0
 75 86  1  0  0  0
 76 89  1  0  0  0
 77 78  1  0  0  0
 77 79  1  0  0  0
 77151  1  0  0  0
 77152  1  0  0  0
 78 80  1  0  0  0
 78153  1  0  0  0
 78154  1  0  0  0
 79 87  1  0  0  0
 79155  1  0  0  0
 79156  1  0  0  0
 80 87  1  0  0  0
 80157  1  0  0  0
 80158  1  0  0  0
 81159  1  0  0  0
 81160  1  0  0  0
 81 87  1  0  0  0
 82 88  1  0  0  0
 82161  1  0  0  0
 82162  1  0  0  0
 83 84  1  0  0  0
 83 85  1  0  0  0
 83163  1  0  0  0
 83164  1  0  0  0
 84 88  1  0  0  0
 84165  1  0  0  0
 84166  1  0  0  0
 85167  1  0  0  0
 85168  1  0  0  0
 86169  1  0  0  0
 87170  1  0  0  0
 88171  1  0  0  0
 88172  1  0  0  0
M  CHG  2  87   1  88   1
M  ISO  4   1 100  68 101  85 101  86 100
M  END
> <chiral flag>
0

> <version>
0

> <s_m_source_file>
/data/baiqing/PycharmProjects/Reinvent-master-3.2/result/LINK_invent/BTK/process_docking_weight1_custom_product_contain_oxygen_bond_distance_aromatic_linkinvent_7_9_3/rearranged_h_0019.sdf

> <i_m_source_file_index>
80

> <r_mmod_Potential_Energy-OPLS-2005>
-272.413330078125

> <r_mmod_Stretch_Energy-OPLS-2005>
47.9379234313965

> <r_mmod_Bend_Energy-OPLS-2005>
138.868667602539

> <r_mmod_Torsional_Energy-OPLS-2005>
290.369445800781

> <r_mmod_Improper_Torsional_Energy-OPLS-2005>
7.74916362762451

> <r_mmod_Van_der_Waal_Energy-OPLS-2005>
137.222702026367

> <r_mmod_Electrostatic_Energy-OPLS-2005>
84.8782806396484

> <r_mmod_Solvation_Energy-OPLS-2005>
-999.332763671875

> <b_mmod_Minimization_Converged-OPLS-2005>
0

> <r_mmod_RMS_Derivative-OPLS-2005>
3.50025987625122

$$$$
80
                    3D
 Structure written by MMmdl.
162171  0  0  1  0            999 V2000
  -30.6654  -14.6456   20.5209 C   0  0  0  0  0  0
  -30.4245  -12.3998   19.4660 C   0  0  0  0  0  0
  -29.5031  -12.4982   18.2296 C   0  0  0  0  0  0
  -28.0286  -12.3303   18.6419 C   0  0  0  0  0  0
  -27.6483  -13.2155   19.8580 C   0  0  2  0  0  0
  -28.6906  -13.0839   20.9896 C   0  0  0  0  0  0
  -25.2538  -13.8173   20.5670 C   0  0  0  0  0  0
  -24.1816  -13.0434   20.9180 C   0  0  0  0  0  0
  -24.6385  -11.6900   20.8733 C   0  0  0  0  0  0
  -23.9050  -10.4280   21.0392 C   0  0  0  0  0  0
  -24.3609   -9.4198   21.9173 C   0  0  0  0  0  0
  -23.6288   -8.2237   22.0754 C   0  0  0  0  0  0
  -22.4275   -8.0268   21.3539 C   0  0  0  0  0  0
  -21.9903   -9.0237   20.4638 C   0  0  0  0  0  0
  -22.7225  -10.2115   20.3041 C   0  0  0  0  0  0
  -21.6852   -6.0712   22.5264 C   0  0  0  0  0  0
  -21.4014   -6.5625   23.8196 C   0  0  0  0  0  0
  -21.3661   -5.6779   24.9164 C   0  0  0  0  0  0
  -21.6054   -4.3040   24.7218 C   0  0  0  0  0  0
  -21.8826   -3.8130   23.4343 C   0  0  0  0  0  0
  -21.9196   -4.6939   22.3398 C   0  0  0  0  0  0
  -22.7836  -13.5223   21.1827 C   0  0  0  0  0  0
  -22.1666   -4.2119   21.0972 F   0  0  0  0  0  0
  -21.5634   -3.4529   25.7738 F   0  0  0  0  0  0
  -30.0013  -13.4414   20.4284 N   0  0  0  0  0  0
  -26.2962  -12.9352   20.3302 N   0  0  0  0  0  0
  -25.9310  -11.6497   20.5761 N   0  0  0  0  0  0
  -22.0481  -12.8211   22.0377 N   0  0  0  0  0  0
  -25.4238  -15.1891   20.4086 N   0  0  0  0  0  0
  -31.8159  -14.7376   20.0814 O   0  0  0  0  0  0
  -21.6653   -6.8858   21.4230 O   0  0  0  0  0  0
  -22.3507  -14.5508   20.6634 O   0  0  0  0  0  0
  -24.6240  -31.8627   23.2036 C   0  0  0  0  0  0
  -25.9095  -32.4786   23.8353 C   0  0  1  0  0  0
  -27.2130  -27.3329   20.1340 C   0  0  0  0  0  0
  -25.5925  -33.8593   24.2271 N   0  0  0  0  0  0
  -23.4140  -30.4858   21.5452 C   0  0  2  0  0  0
  -24.8596  -28.9380   20.1093 C   0  0  0  0  0  0
  -22.7461  -29.4634   22.4947 C   0  0  0  0  0  0
  -18.0283  -28.1406   22.8509 C   0  0  0  0  0  0
  -24.1467  -36.7261   23.2634 C   0  0  0  0  0  0
  -25.9528  -30.7994   21.3684 C   0  0  0  0  0  0
  -26.0272  -29.4268   20.7111 C   0  0  0  0  0  0
  -27.2138  -28.6376   20.7084 C   0  0  0  0  0  0
  -26.0283  -26.8800   19.5233 C   0  0  0  0  0  0
  -24.8607  -27.6689   19.5060 C   0  0  0  0  0  0
  -23.6283  -29.8198   20.1581 C   0  0  0  0  0  0
  -25.4098  -36.3070   24.0329 C   0  0  1  0  0  0
  -20.5890  -28.3689   23.1294 C   0  0  2  0  0  0
  -20.6777  -26.9415   22.5426 C   0  0  0  0  0  0
  -19.5757  -26.6390   21.5234 C   0  0  0  0  0  0
  -18.1919  -26.7954   22.1619 C   0  0  0  0  0  0
  -19.1542  -28.8852   23.2896 C   0  0  0  0  0  0
  -18.9465  -30.1466   23.8906 C   0  0  0  0  0  0
  -17.6483  -30.6611   24.0585 C   0  0  0  0  0  0
  -25.9062  -34.9460   23.5091 C   0  0  0  0  0  0
  -16.5363  -29.9117   23.6349 C   0  0  0  0  0  0
  -16.7271  -28.6539   23.0370 C   0  0  0  0  0  0
  -26.4508  -31.6612   25.0722 C   0  0  0  0  0  0
  -25.3753  -31.3803   26.1463 C   0  0  0  0  0  0
  -27.0338  -30.3035   24.6162 C   0  0  0  0  0  0
  -27.6034  -32.4376   25.7509 C   0  0  0  0  0  0
  -27.5577  -37.1770   24.8454 C   0  0  0  0  0  0
  -21.4172  -29.3032   22.3685 N   0  0  0  0  0  0
  -26.4258  -37.3781   23.9445 N   0  0  0  0  0  0
  -24.6819  -31.0642   22.0964 N   0  0  0  0  0  0
  -23.4205  -28.8200   23.3026 O   0  0  0  0  0  0
  -28.3296  -26.4966   20.1366 O   0  0  0  0  0  0
  -26.5608  -34.8926   22.4656 O   0  0  0  0  0  0
  -23.5401  -32.1426   23.7367 O   0  0  0  0  0  0
  -30.6061  -19.3131   21.0576 C   0  0  0  0  0  0
  -28.5552  -19.1673   19.8180 C   0  0  0  0  0  0
  -30.4064  -20.7121   21.1951 C   0  0  0  0  0  0
  -28.3593  -20.5824   19.9524 C   0  0  0  0  0  0
  -29.7062  -18.5004   20.3282 C   0  0  0  0  0  0
  -29.3176  -21.4095   20.5990 C   0  0  0  0  0  0
  -30.1305  -23.8351   18.6001 C   0  0  0  0  0  0
  -28.6040  -23.9427   18.6386 C   0  0  0  0  0  0
  -30.5354  -23.3812   20.0089 C   0  0  0  0  0  0
  -28.2608  -23.7884   20.1210 C   0  0  2  0  0  0
  -29.3789  -16.0324   22.1163 C   0  0  0  0  0  0
  -30.0957  -17.0304   19.9109 C   0  0  0  0  0  0
  -28.2203  -25.2152   20.8629 C   0  0  0  0  0  0
  -29.3170  -22.8549   20.6253 N   0  0  0  0  0  0
  -29.9418  -15.7994   20.7815 N   0  0  0  0  0  0
  -31.4676  -12.5013   19.1626 H   0  0  0  0  0  0
  -30.3489  -11.4110   19.9226 H   0  0  0  0  0  0
  -29.7731  -11.7373   17.4952 H   0  0  0  0  0  0
  -29.6408  -13.4625   17.7373 H   0  0  0  0  0  0
  -27.8786  -11.2794   18.8935 H   0  0  0  0  0  0
  -27.3689  -12.5353   17.7987 H   0  0  0  0  0  0
  -27.6632  -14.2485   19.5079 H   0  0  0  0  0  0
  -28.7144  -12.0644   21.3768 H   0  0  0  0  0  0
  -28.4117  -13.6975   21.8398 H   0  0  0  0  0  0
  -25.2760   -9.5672   22.4733 H   0  0  0  0  0  0
  -23.9991   -7.4629   22.7473 H   0  0  0  0  0  0
  -21.0839   -8.8743   19.8943 H   0  0  0  0  0  0
  -22.3687  -10.9642   19.6135 H   0  0  0  0  0  0
  -21.2007   -7.6131   23.9684 H   0  0  0  0  0  0
  -21.1479   -6.0514   25.9057 H   0  0  0  0  0  0
  -22.0609   -2.7589   23.2850 H   0  0  0  0  0  0
  -22.4141  -11.9905   22.4788 H   0  0  0  0  0  0
  -21.1065  -13.1178   22.2519 H   0  0  0  0  0  0
  -24.6557  -15.8416   20.5214 H   0  0  0  0  0  0
  -26.2801  -15.6324   20.1007 H   0  0  0  0  0  0
  -26.7161  -32.5446   23.1104 H   0  0  0  0  0  0
  -25.0136  -33.9771   25.0453 H   0  0  0  0  0  0
  -22.7074  -31.3074   21.4041 H   0  0  0  0  0  0
  -23.3747  -35.9566   23.3289 H   0  0  0  0  0  0
  -24.3584  -36.8898   22.2049 H   0  0  0  0  0  0
  -23.7194  -37.6445   23.6677 H   0  0  0  0  0  0
  -26.0826  -31.5669   20.6033 H   0  0  0  0  0  0
  -26.8322  -30.8453   21.9978 H   0  0  0  0  0  0
  -28.1158  -29.0126   21.1721 H   0  0  0  0  0  0
  -26.0047  -25.8998   19.0684 H   0  0  0  0  0  0
  -23.9624  -27.2867   19.0401 H   0  0  0  0  0  0
  -23.7447  -30.6006   19.4046 H   0  0  0  0  0  0
  -22.7457  -29.2512   19.8566 H   0  0  0  0  0  0
  -25.1285  -36.1898   25.0818 H   0  0  0  0  0  0
  -20.9987  -28.3232   24.1415 H   0  0  0  0  0  0
  -20.5675  -26.2297   23.3623 H   0  0  0  0  0  0
  -21.6640  -26.7469   22.1206 H   0  0  0  0  0  0
  -19.6933  -25.6300   21.1246 H   0  0  0  0  0  0
  -19.6693  -27.3205   20.6770 H   0  0  0  0  0  0
  -17.4212  -26.6736   21.3984 H   0  0  0  0  0  0
  -18.0280  -26.0098   22.9007 H   0  0  0  0  0  0
  -19.7961  -30.7288   24.2233 H   0  0  0  0  0  0
  -17.5056  -31.6298   24.5204 H   0  0  0  0  0  0
  -15.5364  -30.3050   23.7690 H   0  0  0  0  0  0
  -15.8669  -28.0889   22.7062 H   0  0  0  0  0  0
  -24.5878  -30.7212   25.7822 H   0  0  0  0  0  0
  -24.9008  -32.3000   26.4871 H   0  0  0  0  0  0
  -25.8065  -30.8992   27.0249 H   0  0  0  0  0  0
  -26.2913  -29.6795   24.1163 H   0  0  0  0  0  0
  -27.4042  -29.7277   25.4654 H   0  0  0  0  0  0
  -27.8787  -30.4339   23.9397 H   0  0  0  0  0  0
  -27.2605  -33.3674   26.2059 H   0  0  0  0  0  0
  -28.3852  -32.6953   25.0358 H   0  0  0  0  0  0
  -28.0696  -31.8541   26.5454 H   0  0  0  0  0  0
  -28.2526  -38.0129   24.7579 H   0  0  0  0  0  0
  -28.1121  -36.2663   24.6144 H   0  0  0  0  0  0
  -27.2334  -37.1268   25.8861 H   0  0  0  0  0  0
  -20.9319  -29.8768   21.6922 H   0  0  0  0  0  0
  -26.0118  -38.2825   24.1524 H   0  0  0  0  0  0
  -31.5158  -18.8825   21.4566 H   0  0  0  0  0  0
  -27.8335  -18.6020   19.2443 H   0  0  0  0  0  0
  -31.1609  -21.2750   21.7255 H   0  0  0  0  0  0
  -27.4911  -21.0272   19.4881 H   0  0  0  0  0  0
  -30.5984  -24.7878   18.3513 H   0  0  0  0  0  0
  -30.4417  -23.1028   17.8514 H   0  0  0  0  0  0
  -28.1670  -23.1213   18.0702 H   0  0  0  0  0  0
  -28.2240  -24.8667   18.2018 H   0  0  0  0  0  0
  -30.8961  -24.2227   20.5994 H   0  0  0  0  0  0
  -31.3648  -22.6753   19.9502 H   0  0  0  0  0  0
  -27.2734  -23.3298   20.2110 H   0  0  0  0  0  0
  -28.2946  -15.9231   22.0905 H   0  0  0  0  0  0
  -29.6047  -17.0282   22.4961 H   0  0  0  0  0  0
  -29.7768  -15.3302   22.8526 H   0  0  0  0  0  0
  -31.1439  -17.1002   19.6123 H   0  0  0  0  0  0
  -29.5670  -16.8138   18.9817 H   0  0  0  0  0  0
  -29.0359  -25.2458   21.5865 H   0  0  0  0  0  0
  -27.3285  -25.2396   21.4911 H   0  0  0  0  0  0
  1 25  1  0  0  0
  1 30  2  0  0  0
  1 85  1  0  0  0
  2  3  1  0  0  0
  2 25  1  0  0  0
  2 86  1  0  0  0
  2 87  1  0  0  0
  3  4  1  0  0  0
  3 88  1  0  0  0
  3 89  1  0  0  0
  4  5  1  0  0  0
  4 90  1  0  0  0
  4 91  1  0  0  0
  5  6  1  0  0  0
  5 26  1  0  0  0
  5 92  1  0  0  0
  6 25  1  0  0  0
  6 93  1  0  0  0
  6 94  1  0  0  0
  7  8  2  0  0  0
  7 26  1  0  0  0
  7 29  1  0  0  0
  8  9  1  0  0  0
  8 22  1  0  0  0
  9 10  1  0  0  0
  9 27  2  0  0  0
 10 11  2  0  0  0
 10 15  1  0  0  0
 11 12  1  0  0  0
 11 95  1  0  0  0
 12 13  2  0  0  0
 12 96  1  0  0  0
 13 14  1  0  0  0
 13 31  1  0  0  0
 14 15  2  0  0  0
 14 97  1  0  0  0
 15 98  1  0  0  0
 16 17  2  0  0  0
 16 21  1  0  0  0
 16 31  1  0  0  0
 17 18  1  0  0  0
 17 99  1  0  0  0
 18 19  2  0  0  0
 18100  1  0  0  0
 19 20  1  0  0  0
 19 24  1  0  0  0
 20 21  2  0  0  0
 20101  1  0  0  0
 21 23  1  0  0  0
 22 28  1  0  0  0
 22 32  2  0  0  0
 26 27  1  0  0  0
 28102  1  0  0  0
 28103  1  0  0  0
 29104  1  0  0  0
 29105  1  0  0  0
 33 34  1  0  0  0
 33 66  1  0  0  0
 33 70  2  0  0  0
 34 36  1  0  0  0
 34 59  1  0  0  0
 34106  1  0  0  0
 35 44  2  0  0  0
 35 45  1  0  0  0
 35 68  1  0  0  0
 36 56  1  0  0  0
 36107  1  0  0  0
 37 39  1  0  0  0
 37 47  1  0  0  0
 37 66  1  0  0  0
 37108  1  0  0  0
 38 43  2  0  0  0
 38 46  1  0  0  0
 38 47  1  0  0  0
 39 64  1  0  0  0
 39 67  2  0  0  0
 40 52  1  0  0  0
 40 53  2  0  0  0
 40 58  1  0  0  0
 41109  1  0  0  0
 41110  1  0  0  0
 41111  1  0  0  0
 41 48  1  0  0  0
 42 43  1  0  0  0
 42 66  1  0  0  0
 42112  1  0  0  0
 42113  1  0  0  0
 43 44  1  0  0  0
 44114  1  0  0  0
 45 46  2  0  0  0
 45115  1  0  0  0
 46116  1  0  0  0
 47117  1  0  0  0
 47118  1  0  0  0
 48 56  1  0  0  0
 48 65  1  0  0  0
 48119  1  0  0  0
 49 50  1  0  0  0
 49 53  1  0  0  0
 49 64  1  0  0  0
 49120  1  0  0  0
 50 51  1  0  0  0
 50121  1  0  0  0
 50122  1  0  0  0
 51 52  1  0  0  0
 51123  1  0  0  0
 51124  1  0  0  0
 52125  1  0  0  0
 52126  1  0  0  0
 53 54  1  0  0  0
 54 55  2  0  0  0
 54127  1  0  0  0
 55 57  1  0  0  0
 55128  1  0  0  0
 56 69  2  0  0  0
 57 58  2  0  0  0
 57129  1  0  0  0
 58130  1  0  0  0
 59 60  1  0  0  0
 59 61  1  0  0  0
 59 62  1  0  0  0
 60131  1  0  0  0
 60132  1  0  0  0
 60133  1  0  0  0
 61134  1  0  0  0
 61135  1  0  0  0
 61136  1  0  0  0
 62137  1  0  0  0
 62138  1  0  0  0
 62139  1  0  0  0
 63 65  1  0  0  0
 63140  1  0  0  0
 63141  1  0  0  0
 63142  1  0  0  0
 64143  1  0  0  0
 65144  1  0  0  0
 68 83  1  0  0  0
 71 73  2  0  0  0
 71 75  1  0  0  0
 71145  1  0  0  0
 72 74  1  0  0  0
 72 75  2  0  0  0
 72146  1  0  0  0
 73 76  1  0  0  0
 73147  1  0  0  0
 74 76  2  0  0  0
 74148  1  0  0  0
 75 82  1  0  0  0
 76 84  1  0  0  0
 77 78  1  0  0  0
 77 79  1  0  0  0
 77149  1  0  0  0
 77150  1  0  0  0
 78 80  1  0  0  0
 78151  1  0  0  0
 78152  1  0  0  0
 79 84  1  0  0  0
 79153  1  0  0  0
 79154  1  0  0  0
 80 83  1  0  0  0
 80 84  1  0  0  0
 80155  1  0  0  0
 81 85  1  0  0  0
 81156  1  0  0  0
 81157  1  0  0  0
 81158  1  0  0  0
 82 85  1  0  0  0
 82159  1  0  0  0
 82160  1  0  0  0
 83161  1  0  0  0
 83162  1  0  0  0
M  ISO  4   1 100  68 101  83 101  85 100
M  END
> <chiral flag>
0

> <version>
0

> <s_m_source_file>
/data/baiqing/PycharmProjects/Reinvent-master-3.2/result/LINK_invent/BTK/process_docking_weight1_custom_product_contain_oxygen_bond_distance_aromatic_linkinvent_7_9_3/rearranged_h_0019.sdf

> <i_m_source_file_index>
81

> <r_mmod_Potential_Energy-OPLS-2005>
337.538726806641

> <r_mmod_Stretch_Energy-OPLS-2005>
84.6465835571289

> <r_mmod_Bend_Energy-OPLS-2005>
192.555419921875

> <r_mmod_Torsional_Energy-OPLS-2005>
378.084869384766

> <r_mmod_Improper_Torsional_Energy-OPLS-2005>
16.5678024291992

> <r_mmod_Van_der_Waal_Energy-OPLS-2005>
146.355377197266

> <r_mmod_Electrostatic_Energy-OPLS-2005>
-317.490356445312

> <r_mmod_Solvation_Energy-OPLS-2005>
-208.270156860352

> <b_mmod_Minimization_Converged-OPLS-2005>
0

> <r_mmod_RMS_Derivative-OPLS-2005>
3.93715333938599

$$$$
81
                    3D
 Structure written by MMmdl.
165173  0  0  1  0            999 V2000
  -30.6673  -14.4887   20.5795 C   0  0  0  0  0  0
  -30.4377  -12.3215   19.4073 C   0  0  0  0  0  0
  -29.4950  -12.5040   18.1972 C   0  0  0  0  0  0
  -28.0164  -12.3593   18.6118 C   0  0  0  0  0  0
  -27.6633  -13.1954   19.8706 C   0  0  2  0  0  0
  -28.7069  -12.9579   20.9866 C   0  0  0  0  0  0
  -25.2617  -13.8136   20.5648 C   0  0  0  0  0  0
  -24.1866  -13.0429   20.9181 C   0  0  0  0  0  0
  -24.6405  -11.6891   20.8735 C   0  0  0  0  0  0
  -23.9075  -10.4289   21.0423 C   0  0  0  0  0  0
  -24.3623   -9.4208   21.9206 C   0  0  0  0  0  0
  -23.6300   -8.2243   22.0774 C   0  0  0  0  0  0
  -22.4288   -8.0289   21.3551 C   0  0  0  0  0  0
  -21.9922   -9.0264   20.4656 C   0  0  0  0  0  0
  -22.7250  -10.2141   20.3069 C   0  0  0  0  0  0
  -21.6852   -6.0759   22.5292 C   0  0  0  0  0  0
  -21.4008   -6.5662   23.8225 C   0  0  0  0  0  0
  -21.3650   -5.6810   24.9183 C   0  0  0  0  0  0
  -21.6030   -4.3073   24.7236 C   0  0  0  0  0  0
  -21.8820   -3.8171   23.4356 C   0  0  0  0  0  0
  -21.9191   -4.6986   22.3409 C   0  0  0  0  0  0
  -22.7887  -13.5237   21.1832 C   0  0  0  0  0  0
  -22.1666   -4.2168   21.0984 F   0  0  0  0  0  0
  -21.5624   -3.4551   25.7756 F   0  0  0  0  0  0
  -30.0361  -13.2894   20.4384 N   0  0  0  0  0  0
  -26.3034  -12.9270   20.3336 N   0  0  0  0  0  0
  -25.9318  -11.6444   20.5745 N   0  0  0  0  0  0
  -22.0518  -12.8243   22.0385 N   0  0  0  0  0  0
  -25.4353  -15.1841   20.4033 N   0  0  0  0  0  0
  -31.7988  -14.7117   20.1396 O   0  0  0  0  0  0
  -21.6635   -6.8897   21.4252 O   0  0  0  0  0  0
  -22.3588  -14.5563   20.6704 O   0  0  0  0  0  0
  -24.6184  -31.8686   23.2079 C   0  0  0  0  0  0
  -25.9081  -32.4813   23.8375 C   0  0  1  0  0  0
  -27.2340  -27.4174   20.1000 C   0  0  0  0  0  0
  -25.5923  -33.8601   24.2314 N   0  0  0  0  0  0
  -23.4034  -30.4921   21.5514 C   0  0  2  0  0  0
  -24.8480  -28.9564   20.1161 C   0  0  0  0  0  0
  -22.7423  -29.4669   22.4998 C   0  0  0  0  0  0
  -18.0264  -28.1368   22.8482 C   0  0  0  0  0  0
  -24.1501  -36.7312   23.2638 C   0  0  0  0  0  0
  -25.9338  -30.8294   21.3628 C   0  0  0  0  0  0
  -26.0123  -29.4621   20.7111 C   0  0  0  0  0  0
  -27.2060  -28.7017   20.6985 C   0  0  0  0  0  0
  -26.0476  -26.9345   19.4944 C   0  0  0  0  0  0
  -24.8627  -27.6932   19.5036 C   0  0  0  0  0  0
  -23.6127  -29.8272   20.1640 C   0  0  0  0  0  0
  -25.4118  -36.3107   24.0346 C   0  0  1  0  0  0
  -20.5849  -28.3671   23.1309 C   0  0  2  0  0  0
  -20.6775  -26.9416   22.5406 C   0  0  0  0  0  0
  -19.5758  -26.6395   21.5200 C   0  0  0  0  0  0
  -18.1917  -26.7902   22.1608 C   0  0  0  0  0  0
  -19.1512  -28.8833   23.2874 C   0  0  0  0  0  0
  -18.9450  -30.1436   23.8900 C   0  0  0  0  0  0
  -17.6462  -30.6583   24.0561 C   0  0  0  0  0  0
  -25.9043  -34.9464   23.5118 C   0  0  0  0  0  0
  -16.5358  -29.9089   23.6328 C   0  0  0  0  0  0
  -16.7250  -28.6507   23.0349 C   0  0  0  0  0  0
  -26.4498  -31.6580   25.0695 C   0  0  0  0  0  0
  -25.3748  -31.3651   26.1411 C   0  0  0  0  0  0
  -27.0344  -30.3037   24.6043 C   0  0  0  0  0  0
  -27.6079  -32.4276   25.7461 C   0  0  0  0  0  0
  -27.5581  -37.1805   24.8464 C   0  0  0  0  0  0
  -21.4155  -29.3019   22.3732 N   0  0  0  0  0  0
  -26.4305  -37.3784   23.9398 N   0  0  0  0  0  0
  -24.6696  -31.0768   22.0991 N   0  0  0  0  0  0
  -23.4197  -28.8208   23.3028 O   0  0  0  0  0  0
  -28.4028  -26.6719   20.1272 O   0  0  0  0  0  0
  -26.5629  -34.8938   22.4691 O   0  0  0  0  0  0
  -23.5384  -32.1468   23.7466 O   0  0  0  0  0  0
  -29.0392  -19.0997   21.0727 C   0  0  0  0  0  0
  -28.9833  -17.7090   20.8311 C   0  0  0  0  0  0
  -31.2249  -17.4462   21.7329 C   0  0  0  0  0  0
  -30.1732  -19.6776   21.6878 C   0  0  0  0  0  0
  -30.0628  -16.8643   21.1791 C   0  0  0  0  0  0
  -31.2739  -18.8368   21.9905 C   0  0  0  0  0  0
  -34.2455  -22.3402   20.3164 C   0  0  0  0  0  0
  -30.1374  -21.1323   22.1936 C   0  0  0  0  0  0
  -32.9766  -22.4662   21.1669 C   0  0  0  0  0  0
  -29.5214  -24.4768   20.5145 C   0  0  0  0  0  0
  -31.6947  -22.0536   20.4167 C   0  0  0  0  0  0
  -29.3458  -22.9260   20.5664 C   0  0  0  0  0  0
  -28.2789  -25.2404   19.9962 C   0  0  0  0  0  0
  -29.8729  -15.4511   21.0907 N   0  0  0  0  0  0
  -30.4878  -22.2539   21.2610 N   0  3  1  0  0  0
  -32.3673  -19.3557   22.5945 F   0  0  0  0  0  0
  -31.4766  -12.4552   19.0980 H   0  0  0  0  0  0
  -30.3719  -11.3055   19.8005 H   0  0  0  0  0  0
  -29.7340  -11.7760   17.4211 H   0  0  0  0  0  0
  -29.6545  -13.4865   17.7509 H   0  0  0  0  0  0
  -27.8263  -11.3031   18.8063 H   0  0  0  0  0  0
  -27.3662  -12.6366   17.7810 H   0  0  0  0  0  0
  -27.7095  -14.2437   19.5752 H   0  0  0  0  0  0
  -28.6898  -11.9144   21.3028 H   0  0  0  0  0  0
  -28.4602  -13.5296   21.8830 H   0  0  0  0  0  0
  -25.2769   -9.5688   22.4794 H   0  0  0  0  0  0
  -24.0009   -7.4635   22.7496 H   0  0  0  0  0  0
  -21.0855   -8.8776   19.8962 H   0  0  0  0  0  0
  -22.3703  -10.9690   19.6182 H   0  0  0  0  0  0
  -21.2004   -7.6170   23.9733 H   0  0  0  0  0  0
  -21.1463   -6.0545   25.9086 H   0  0  0  0  0  0
  -22.0605   -2.7627   23.2851 H   0  0  0  0  0  0
  -22.4112  -11.9871   22.4734 H   0  0  0  0  0  0
  -21.1136  -13.1283   22.2599 H   0  0  0  0  0  0
  -24.6647  -15.8369   20.5031 H   0  0  0  0  0  0
  -26.2752  -15.6147   20.0419 H   0  0  0  0  0  0
  -26.7172  -32.5528   23.1162 H   0  0  0  0  0  0
  -25.0045  -33.9742   25.0433 H   0  0  0  0  0  0
  -22.6912  -31.3080   21.4161 H   0  0  0  0  0  0
  -23.3763  -35.9640   23.3308 H   0  0  0  0  0  0
  -24.3608  -36.8927   22.2053 H   0  0  0  0  0  0
  -23.7244  -37.6511   23.6654 H   0  0  0  0  0  0
  -26.0305  -31.5936   20.5920 H   0  0  0  0  0  0
  -26.8262  -30.8892   21.9724 H   0  0  0  0  0  0
  -28.1021  -29.0820   21.1725 H   0  0  0  0  0  0
  -26.0165  -25.9713   19.0021 H   0  0  0  0  0  0
  -23.9719  -27.2980   19.0346 H   0  0  0  0  0  0
  -23.7189  -30.6059   19.4054 H   0  0  0  0  0  0
  -22.7355  -29.2455   19.8717 H   0  0  0  0  0  0
  -25.1283  -36.1997   25.0848 H   0  0  0  0  0  0
  -20.9873  -28.3265   24.1461 H   0  0  0  0  0  0
  -20.5721  -26.2294   23.3602 H   0  0  0  0  0  0
  -21.6653  -26.7523   22.1177 H   0  0  0  0  0  0
  -19.6962  -25.6315   21.1226 H   0  0  0  0  0  0
  -19.6691  -27.3233   20.6747 H   0  0  0  0  0  0
  -17.4193  -26.6644   21.4007 H   0  0  0  0  0  0
  -18.0314  -26.0036   22.9005 H   0  0  0  0  0  0
  -19.7964  -30.7180   24.2326 H   0  0  0  0  0  0
  -17.5064  -31.6283   24.5137 H   0  0  0  0  0  0
  -15.5371  -30.3004   23.7656 H   0  0  0  0  0  0
  -15.8648  -28.0847   22.7055 H   0  0  0  0  0  0
  -24.5947  -30.6988   25.7687 H   0  0  0  0  0  0
  -24.8907  -32.2796   26.4855 H   0  0  0  0  0  0
  -25.8066  -30.8791   27.0173 H   0  0  0  0  0  0
  -26.2887  -29.6738   24.1168 H   0  0  0  0  0  0
  -27.4220  -29.7297   25.4467 H   0  0  0  0  0  0
  -27.8670  -30.4359   23.9122 H   0  0  0  0  0  0
  -27.2726  -33.3583   26.2032 H   0  0  0  0  0  0
  -28.3882  -32.6805   25.0276 H   0  0  0  0  0  0
  -28.0747  -31.8391   26.5367 H   0  0  0  0  0  0
  -28.2579  -38.0120   24.7530 H   0  0  0  0  0  0
  -28.1106  -36.2649   24.6283 H   0  0  0  0  0  0
  -27.2297  -37.1423   25.8866 H   0  0  0  0  0  0
  -20.9344  -29.8739   21.6938 H   0  0  0  0  0  0
  -26.0219  -38.2869   24.1412 H   0  0  0  0  0  0
  -28.1741  -19.7071   20.8465 H   0  0  0  0  0  0
  -28.0825  -17.2888   20.4045 H   0  0  0  0  0  0
  -32.0589  -16.8266   22.0317 H   0  0  0  0  0  0
  -35.1211  -22.6861   20.8666 H   0  0  0  0  0  0
  -34.1787  -22.9299   19.4007 H   0  0  0  0  0  0
  -34.4231  -21.3027   20.0347 H   0  0  0  0  0  0
  -30.8318  -21.2033   23.0315 H   0  0  0  0  0  0
  -29.1654  -21.3136   22.6541 H   0  0  0  0  0  0
  -32.8870  -23.4986   21.5091 H   0  0  0  0  0  0
  -33.0969  -21.8606   22.0655 H   0  0  0  0  0  0
  -30.3837  -24.7377   19.8987 H   0  0  0  0  0  0
  -29.7502  -24.8412   21.5166 H   0  0  0  0  0  0
  -31.7628  -21.0249   20.0632 H   0  0  0  0  0  0
  -31.6168  -22.6640   19.5160 H   0  0  0  0  0  0
  -29.2232  -22.5141   19.5632 H   0  0  0  0  0  0
  -28.4162  -22.7081   21.0930 H   0  0  0  0  0  0
  -27.4149  -24.8906   20.5627 H   0  0  0  0  0  0
  -28.1052  -24.9917   18.9486 H   0  0  0  0  0  0
  -28.9431  -15.1241   21.3075 H   0  0  0  0  0  0
  -30.7708  -22.9656   21.9153 H   0  0  0  0  0  0
  1 25  1  0  0  0
  1 30  2  0  0  0
  1 84  1  0  0  0
  2  3  1  0  0  0
  2 25  1  0  0  0
  2 87  1  0  0  0
  2 88  1  0  0  0
  3  4  1  0  0  0
  3 89  1  0  0  0
  3 90  1  0  0  0
  4  5  1  0  0  0
  4 91  1  0  0  0
  4 92  1  0  0  0
  5  6  1  0  0  0
  5 26  1  0  0  0
  5 93  1  0  0  0
  6 25  1  0  0  0
  6 94  1  0  0  0
  6 95  1  0  0  0
  7  8  2  0  0  0
  7 26  1  0  0  0
  7 29  1  0  0  0
  8  9  1  0  0  0
  8 22  1  0  0  0
  9 10  1  0  0  0
  9 27  2  0  0  0
 10 11  2  0  0  0
 10 15  1  0  0  0
 11 12  1  0  0  0
 11 96  1  0  0  0
 12 13  2  0  0  0
 12 97  1  0  0  0
 13 14  1  0  0  0
 13 31  1  0  0  0
 14 15  2  0  0  0
 14 98  1  0  0  0
 15 99  1  0  0  0
 16 17  2  0  0  0
 16 21  1  0  0  0
 16 31  1  0  0  0
 17 18  1  0  0  0
 17100  1  0  0  0
 18 19  2  0  0  0
 18101  1  0  0  0
 19 20  1  0  0  0
 19 24  1  0  0  0
 20 21  2  0  0  0
 20102  1  0  0  0
 21 23  1  0  0  0
 22 28  1  0  0  0
 22 32  2  0  0  0
 26 27  1  0  0  0
 28103  1  0  0  0
 28104  1  0  0  0
 29105  1  0  0  0
 29106  1  0  0  0
 33 34  1  0  0  0
 33 66  1  0  0  0
 33 70  2  0  0  0
 34 36  1  0  0  0
 34 59  1  0  0  0
 34107  1  0  0  0
 35 44  2  0  0  0
 35 45  1  0  0  0
 35 68  1  0  0  0
 36 56  1  0  0  0
 36108  1  0  0  0
 37 39  1  0  0  0
 37 47  1  0  0  0
 37 66  1  0  0  0
 37109  1  0  0  0
 38 43  2  0  0  0
 38 46  1  0  0  0
 38 47  1  0  0  0
 39 64  1  0  0  0
 39 67  2  0  0  0
 40 52  1  0  0  0
 40 53  2  0  0  0
 40 58  1  0  0  0
 41110  1  0  0  0
 41111  1  0  0  0
 41112  1  0  0  0
 41 48  1  0  0  0
 42 43  1  0  0  0
 42 66  1  0  0  0
 42113  1  0  0  0
 42114  1  0  0  0
 43 44  1  0  0  0
 44115  1  0  0  0
 45 46  2  0  0  0
 45116  1  0  0  0
 46117  1  0  0  0
 47118  1  0  0  0
 47119  1  0  0  0
 48 56  1  0  0  0
 48 65  1  0  0  0
 48120  1  0  0  0
 49 50  1  0  0  0
 49 53  1  0  0  0
 49 64  1  0  0  0
 49121  1  0  0  0
 50 51  1  0  0  0
 50122  1  0  0  0
 50123  1  0  0  0
 51 52  1  0  0  0
 51124  1  0  0  0
 51125  1  0  0  0
 52126  1  0  0  0
 52127  1  0  0  0
 53 54  1  0  0  0
 54 55  2  0  0  0
 54128  1  0  0  0
 55 57  1  0  0  0
 55129  1  0  0  0
 56 69  2  0  0  0
 57 58  2  0  0  0
 57130  1  0  0  0
 58131  1  0  0  0
 59 60  1  0  0  0
 59 61  1  0  0  0
 59 62  1  0  0  0
 60132  1  0  0  0
 60133  1  0  0  0
 60134  1  0  0  0
 61135  1  0  0  0
 61136  1  0  0  0
 61137  1  0  0  0
 62138  1  0  0  0
 62139  1  0  0  0
 62140  1  0  0  0
 63 65  1  0  0  0
 63141  1  0  0  0
 63142  1  0  0  0
 63143  1  0  0  0
 64144  1  0  0  0
 65145  1  0  0  0
 68 83  1  0  0  0
 71 72  2  0  0  0
 71 74  1  0  0  0
 71146  1  0  0  0
 72 75  1  0  0  0
 72147  1  0  0  0
 73 75  2  0  0  0
 73 76  1  0  0  0
 73148  1  0  0  0
 74 76  2  0  0  0
 74 78  1  0  0  0
 75 84  1  0  0  0
 76 86  1  0  0  0
 77 79  1  0  0  0
 77149  1  0  0  0
 77150  1  0  0  0
 77151  1  0  0  0
 78152  1  0  0  0
 78153  1  0  0  0
 78 85  1  0  0  0
 79 81  1  0  0  0
 79154  1  0  0  0
 79155  1  0  0  0
 80 82  1  0  0  0
 80 83  1  0  0  0
 80156  1  0  0  0
 80157  1  0  0  0
 81 85  1  0  0  0
 81158  1  0  0  0
 81159  1  0  0  0
 82 85  1  0  0  0
 82160  1  0  0  0
 82161  1  0  0  0
 83162  1  0  0  0
 83163  1  0  0  0
 84164  1  0  0  0
 85165  1  0  0  0
M  CHG  1  85   1
M  ISO  4   1 100  68 101  83 101  84 100
M  END
> <chiral flag>
0

> <version>
0

> <s_m_source_file>
/data/baiqing/PycharmProjects/Reinvent-master-3.2/result/LINK_invent/BTK/process_docking_weight1_custom_product_contain_oxygen_bond_distance_aromatic_linkinvent_7_9_3/rearranged_h_0019.sdf

> <i_m_source_file_index>
82

> <r_mmod_Potential_Energy-OPLS-2005>
-136.004486083984

> <r_mmod_Stretch_Energy-OPLS-2005>
41.7541885375977

> <r_mmod_Bend_Energy-OPLS-2005>
113.597793579102

> <r_mmod_Torsional_Energy-OPLS-2005>
233.371002197266

> <r_mmod_Improper_Torsional_Energy-OPLS-2005>
5.67471218109131

> <r_mmod_Van_der_Waal_Energy-OPLS-2005>
147.847808837891

> <r_mmod_Electrostatic_Energy-OPLS-2005>
-253.272033691406

> <r_mmod_Solvation_Energy-OPLS-2005>
-440.211578369141

> <b_mmod_Minimization_Converged-OPLS-2005>
0

> <r_mmod_RMS_Derivative-OPLS-2005>
3.52312088012695

$$$$
82
                    3D
 Structure written by MMmdl.
144152  0  0  1  0            999 V2000
  -30.3059  -15.6103   20.3226 C   0  0  0  0  0  0
  -30.4390  -13.0647   19.5267 C   0  0  0  0  0  0
  -29.5582  -12.6447   18.3150 C   0  0  0  0  0  0
  -28.1252  -12.3034   18.7575 C   0  0  0  0  0  0
  -27.6013  -13.3092   19.8100 C   0  0  2  0  0  0
  -28.6248  -13.6229   20.9242 C   0  0  0  0  0  0
  -25.2348  -13.8289   20.5787 C   0  0  0  0  0  0
  -24.1742  -13.0434   20.9293 C   0  0  0  0  0  0
  -24.6450  -11.6952   20.8778 C   0  0  0  0  0  0
  -23.9150  -10.4299   21.0402 C   0  0  0  0  0  0
  -24.3679   -9.4209   21.9188 C   0  0  0  0  0  0
  -23.6316   -8.2263   22.0770 C   0  0  0  0  0  0
  -22.4289   -8.0316   21.3568 C   0  0  0  0  0  0
  -21.9950   -9.0302   20.4670 C   0  0  0  0  0  0
  -22.7317  -10.2156   20.3060 C   0  0  0  0  0  0
  -21.6861   -6.0759   22.5284 C   0  0  0  0  0  0
  -21.4027   -6.5648   23.8228 C   0  0  0  0  0  0
  -21.3668   -5.6795   24.9182 C   0  0  0  0  0  0
  -21.6033   -4.3057   24.7225 C   0  0  0  0  0  0
  -21.8814   -3.8159   23.4342 C   0  0  0  0  0  0
  -21.9189   -4.6983   22.3404 C   0  0  0  0  0  0
  -22.7746  -13.5169   21.1931 C   0  0  0  0  0  0
  -22.1653   -4.2173   21.0983 F   0  0  0  0  0  0
  -21.5620   -3.4532   25.7732 F   0  0  0  0  0  0
  -29.7995  -14.2417   20.2655 N   0  0  0  0  0  0
  -26.2810  -12.9635   20.3219 N   0  0  0  0  0  0
  -25.9390  -11.6705   20.5685 N   0  0  0  0  0  0
  -22.0380  -12.8172   22.0484 N   0  0  0  0  0  0
  -25.3844  -15.2044   20.4235 N   0  0  0  0  0  0
  -31.5434  -15.5761   20.1947 O   0  0  0  0  0  0
  -21.6637   -6.8912   21.4256 O   0  0  0  0  0  0
  -22.3417  -14.5466   20.6757 O   0  0  0  0  0  0
  -24.6823  -31.8032   23.1525 C   0  0  0  0  0  0
  -25.9405  -32.4492   23.8079 C   0  0  1  0  0  0
  -27.2340  -26.7255   20.2019 C   0  0  0  0  0  0
  -25.5981  -33.8314   24.1955 N   0  0  0  0  0  0
  -23.5087  -30.4051   21.5058 C   0  0  2  0  0  0
  -24.9683  -28.7519   20.1144 C   0  0  0  0  0  0
  -22.7769  -29.4337   22.4709 C   0  0  0  0  0  0
  -18.0334  -28.1427   22.8443 C   0  0  0  0  0  0
  -24.1509  -36.7198   23.2655 C   0  0  0  0  0  0
  -26.0888  -30.5442   21.4128 C   0  0  0  0  0  0
  -26.1578  -29.1110   20.7605 C   0  0  0  0  0  0
  -27.2770  -28.1247   20.7723 C   0  0  0  0  0  0
  -26.0106  -26.5735   19.5012 C   0  0  0  0  0  0
  -24.9325  -27.5077   19.4624 C   0  0  0  0  0  0
  -23.7613  -29.7031   20.1403 C   0  0  0  0  0  0
  -25.4157  -36.2918   24.0276 C   0  0  1  0  0  0
  -20.5976  -28.3791   23.1136 C   0  0  2  0  0  0
  -20.6809  -26.9447   22.5408 C   0  0  0  0  0  0
  -19.5785  -26.6366   21.5223 C   0  0  0  0  0  0
  -18.1967  -26.7950   22.1622 C   0  0  0  0  0  0
  -19.1602  -28.8930   23.2767 C   0  0  0  0  0  0
  -18.9509  -30.1512   23.8820 C   0  0  0  0  0  0
  -17.6498  -30.6607   24.0550 C   0  0  0  0  0  0
  -25.9118  -34.9297   23.4950 C   0  0  0  0  0  0
  -16.5386  -29.9092   23.6340 C   0  0  0  0  0  0
  -16.7313  -28.6513   23.0354 C   0  0  0  0  0  0
  -26.4554  -31.6523   25.0706 C   0  0  0  0  0  0
  -25.3607  -31.3863   26.1317 C   0  0  0  0  0  0
  -27.0463  -30.2851   24.6604 C   0  0  0  0  0  0
  -27.6003  -32.4378   25.7534 C   0  0  0  0  0  0
  -27.5568  -37.1775   24.8460 C   0  0  0  0  0  0
  -21.4419  -29.3041   22.3465 N   0  0  0  0  0  0
  -26.4299  -37.3662   23.9370 N   0  0  0  0  0  0
  -24.7834  -30.9496   22.0770 N   0  0  0  0  0  0
  -23.4210  -28.7941   23.3060 O   0  0  0  0  0  0
  -28.1916  -25.5066   20.2741 O   0  0  0  0  0  0
  -26.5769  -34.8865   22.4574 O   0  0  0  0  0  0
  -23.5846  -32.1097   23.6487 O   0  0  0  0  0  0
  -29.5116  -21.2897   21.0686 C   0  0  0  0  0  0
  -29.8535  -19.7859   21.0988 C   0  0  0  0  0  0
  -28.1785  -20.9281   19.3248 C   0  0  0  0  0  0
  -28.6141  -22.0803   20.1641 C   0  0  0  0  0  0
  -29.3790  -18.6437   20.2464 C   0  0  0  0  0  0
  -28.4925  -19.4377   19.3536 C   0  0  0  0  0  0
  -27.8767  -23.7989   20.0925 C   0  0  0  0  0  0
  -29.4763  -16.9244   20.3044 N   0  0  0  0  0  0
  -27.8323  -18.7045   18.4215 F   0  0  0  0  0  0
  -31.4292  -13.3390   19.1588 H   0  0  0  0  0  0
  -30.6087  -12.2215   20.1977 H   0  0  0  0  0  0
  -30.0065  -11.7945   17.7959 H   0  0  0  0  0  0
  -29.5329  -13.4624   17.5943 H   0  0  0  0  0  0
  -28.1412  -11.3035   19.1898 H   0  0  0  0  0  0
  -27.4589  -12.2609   17.8955 H   0  0  0  0  0  0
  -27.4670  -14.2386   19.2542 H   0  0  0  0  0  0
  -28.8822  -12.7307   21.4975 H   0  0  0  0  0  0
  -28.2048  -14.3361   21.6346 H   0  0  0  0  0  0
  -25.2830   -9.5646   22.4763 H   0  0  0  0  0  0
  -24.0008   -7.4639   22.7480 H   0  0  0  0  0  0
  -21.0881   -8.8873   19.8966 H   0  0  0  0  0  0
  -22.3822  -10.9713   19.6169 H   0  0  0  0  0  0
  -21.2035   -7.6159   23.9742 H   0  0  0  0  0  0
  -21.1484   -6.0516   25.9089 H   0  0  0  0  0  0
  -22.0576   -2.7617   23.2836 H   0  0  0  0  0  0
  -22.3998  -11.9878   22.4952 H   0  0  0  0  0  0
  -21.0998  -13.1215   22.2662 H   0  0  0  0  0  0
  -24.5958  -15.8319   20.5358 H   0  0  0  0  0  0
  -26.2063  -15.6680   20.0600 H   0  0  0  0  0  0
  -26.7504  -32.4966   23.0811 H   0  0  0  0  0  0
  -24.9979  -33.9353   25.0007 H   0  0  0  0  0  0
  -22.8321  -31.2419   21.3180 H   0  0  0  0  0  0
  -23.3749  -35.9554   23.3315 H   0  0  0  0  0  0
  -24.3568  -36.8867   22.2069 H   0  0  0  0  0  0
  -23.7310  -37.6397   23.6738 H   0  0  0  0  0  0
  -26.2851  -31.2740   20.6255 H   0  0  0  0  0  0
  -26.9415  -30.6136   22.0767 H   0  0  0  0  0  0
  -28.1732  -28.4058   21.3078 H   0  0  0  0  0  0
  -25.8437  -25.6333   18.9959 H   0  0  0  0  0  0
  -24.0349  -27.2241   18.9296 H   0  0  0  0  0  0
  -23.9318  -30.4654   19.3797 H   0  0  0  0  0  0
  -22.8658  -29.1697   19.8165 H   0  0  0  0  0  0
  -25.1373  -36.1697   25.0773 H   0  0  0  0  0  0
  -21.0033  -28.3418   24.1271 H   0  0  0  0  0  0
  -20.5684  -26.2409   23.3672 H   0  0  0  0  0  0
  -21.6675  -26.7406   22.1227 H   0  0  0  0  0  0
  -19.6954  -25.6254   21.1313 H   0  0  0  0  0  0
  -19.6734  -27.3118   20.6705 H   0  0  0  0  0  0
  -17.4236  -26.6657   21.4031 H   0  0  0  0  0  0
  -18.0376  -26.0123   22.9051 H   0  0  0  0  0  0
  -19.7981  -30.7357   24.2156 H   0  0  0  0  0  0
  -17.5042  -31.6272   24.5178 H   0  0  0  0  0  0
  -15.5380  -30.2974   23.7718 H   0  0  0  0  0  0
  -15.8707  -28.0819   22.7108 H   0  0  0  0  0  0
  -24.5767  -30.7253   25.7601 H   0  0  0  0  0  0
  -24.8825  -32.3105   26.4577 H   0  0  0  0  0  0
  -25.7750  -30.9107   27.0212 H   0  0  0  0  0  0
  -26.3149  -29.6482   24.1617 H   0  0  0  0  0  0
  -27.3882  -29.7301   25.5347 H   0  0  0  0  0  0
  -27.9145  -30.3953   24.0111 H   0  0  0  0  0  0
  -27.2515  -33.3714   26.1961 H   0  0  0  0  0  0
  -28.3892  -32.6892   25.0437 H   0  0  0  0  0  0
  -28.0580  -31.8620   26.5585 H   0  0  0  0  0  0
  -28.2593  -38.0057   24.7429 H   0  0  0  0  0  0
  -28.1057  -36.2575   24.6388 H   0  0  0  0  0  0
  -27.2270  -37.1536   25.8862 H   0  0  0  0  0  0
  -20.9728  -29.8678   21.6520 H   0  0  0  0  0  0
  -26.0135  -38.2733   24.1299 H   0  0  0  0  0  0
  -29.9758  -21.8647   21.8626 H   0  0  0  0  0  0
  -30.5146  -19.5057   21.9092 H   0  0  0  0  0  0
  -27.4631  -21.1926   18.5576 H   0  0  0  0  0  0
  -26.9936  -23.6758   20.7185 H   0  0  0  0  0  0
  -27.4739  -23.7919   19.0789 H   0  0  0  0  0  0
  -28.5325  -16.5856   20.1986 H   0  0  0  0  0  0
  1 25  1  0  0  0
  1 30  2  0  0  0
  1 78  1  0  0  0
  2  3  1  0  0  0
  2 25  1  0  0  0
  2 80  1  0  0  0
  2 81  1  0  0  0
  3  4  1  0  0  0
  3 82  1  0  0  0
  3 83  1  0  0  0
  4  5  1  0  0  0
  4 84  1  0  0  0
  4 85  1  0  0  0
  5  6  1  0  0  0
  5 26  1  0  0  0
  5 86  1  0  0  0
  6 25  1  0  0  0
  6 87  1  0  0  0
  6 88  1  0  0  0
  7  8  2  0  0  0
  7 26  1  0  0  0
  7 29  1  0  0  0
  8  9  1  0  0  0
  8 22  1  0  0  0
  9 10  1  0  0  0
  9 27  2  0  0  0
 10 11  2  0  0  0
 10 15  1  0  0  0
 11 12  1  0  0  0
 11 89  1  0  0  0
 12 13  2  0  0  0
 12 90  1  0  0  0
 13 14  1  0  0  0
 13 31  1  0  0  0
 14 15  2  0  0  0
 14 91  1  0  0  0
 15 92  1  0  0  0
 16 17  2  0  0  0
 16 21  1  0  0  0
 16 31  1  0  0  0
 17 18  1  0  0  0
 17 93  1  0  0  0
 18 19  2  0  0  0
 18 94  1  0  0  0
 19 20  1  0  0  0
 19 24  1  0  0  0
 20 21  2  0  0  0
 20 95  1  0  0  0
 21 23  1  0  0  0
 22 28  1  0  0  0
 22 32  2  0  0  0
 26 27  1  0  0  0
 28 96  1  0  0  0
 28 97  1  0  0  0
 29 98  1  0  0  0
 29 99  1  0  0  0
 33 34  1  0  0  0
 33 66  1  0  0  0
 33 70  2  0  0  0
 34 36  1  0  0  0
 34 59  1  0  0  0
 34100  1  0  0  0
 35 44  2  0  0  0
 35 45  1  0  0  0
 35 68  1  0  0  0
 36 56  1  0  0  0
 36101  1  0  0  0
 37 39  1  0  0  0
 37 47  1  0  0  0
 37 66  1  0  0  0
 37102  1  0  0  0
 38 43  2  0  0  0
 38 46  1  0  0  0
 38 47  1  0  0  0
 39 64  1  0  0  0
 39 67  2  0  0  0
 40 52  1  0  0  0
 40 53  2  0  0  0
 40 58  1  0  0  0
 41103  1  0  0  0
 41104  1  0  0  0
 41105  1  0  0  0
 41 48  1  0  0  0
 42 43  1  0  0  0
 42 66  1  0  0  0
 42106  1  0  0  0
 42107  1  0  0  0
 43 44  1  0  0  0
 44108  1  0  0  0
 45 46  2  0  0  0
 45109  1  0  0  0
 46110  1  0  0  0
 47111  1  0  0  0
 47112  1  0  0  0
 48 56  1  0  0  0
 48 65  1  0  0  0
 48113  1  0  0  0
 49 50  1  0  0  0
 49 53  1  0  0  0
 49 64  1  0  0  0
 49114  1  0  0  0
 50 51  1  0  0  0
 50115  1  0  0  0
 50116  1  0  0  0
 51 52  1  0  0  0
 51117  1  0  0  0
 51118  1  0  0  0
 52119  1  0  0  0
 52120  1  0  0  0
 53 54  1  0  0  0
 54 55  2  0  0  0
 54121  1  0  0  0
 55 57  1  0  0  0
 55122  1  0  0  0
 56 69  2  0  0  0
 57 58  2  0  0  0
 57123  1  0  0  0
 58124  1  0  0  0
 59 60  1  0  0  0
 59 61  1  0  0  0
 59 62  1  0  0  0
 60125  1  0  0  0
 60126  1  0  0  0
 60127  1  0  0  0
 61128  1  0  0  0
 61129  1  0  0  0
 61130  1  0  0  0
 62131  1  0  0  0
 62132  1  0  0  0
 62133  1  0  0  0
 63 65  1  0  0  0
 63134  1  0  0  0
 63135  1  0  0  0
 63136  1  0  0  0
 64137  1  0  0  0
 65138  1  0  0  0
 68 77  1  0  0  0
 71 72  2  0  0  0
 71 74  1  0  0  0
 71139  1  0  0  0
 72 75  1  0  0  0
 72140  1  0  0  0
 73 74  2  0  0  0
 73 76  1  0  0  0
 73141  1  0  0  0
 74 77  1  0  0  0
 75 76  2  0  0  0
 75 78  1  0  0  0
 76 79  1  0  0  0
 77142  1  0  0  0
 77143  1  0  0  0
 78144  1  0  0  0
M  ISO  4   1 100  68 101  77 101  78 100
M  END
> <chiral flag>
0

> <version>
0

> <s_m_source_file>
/data/baiqing/PycharmProjects/Reinvent-master-3.2/result/LINK_invent/BTK/process_docking_weight1_custom_product_contain_oxygen_bond_distance_aromatic_linkinvent_7_9_3/rearranged_h_0019.sdf

> <i_m_source_file_index>
83

> <r_mmod_Potential_Energy-OPLS-2005>
2238.98388671875

> <r_mmod_Stretch_Energy-OPLS-2005>
911.963439941406

> <r_mmod_Bend_Energy-OPLS-2005>
669.165771484375

> <r_mmod_Torsional_Energy-OPLS-2005>
245.97248840332

> <r_mmod_Improper_Torsional_Energy-OPLS-2005>
8.55356979370117

> <r_mmod_Van_der_Waal_Energy-OPLS-2005>
130.033126831055

> <r_mmod_Electrostatic_Energy-OPLS-2005>
-385.120422363281

> <r_mmod_Solvation_Energy-OPLS-2005>
-208.395370483398

> <b_mmod_Minimization_Converged-OPLS-2005>
0

> <r_mmod_RMS_Derivative-OPLS-2005>
2.91585087776184

$$$$
83
                    3D
 Structure written by MMmdl.
160168  0  0  1  0            999 V2000
  -30.7146  -14.5422   20.4664 C   0  0  0  0  0  0
  -30.4160  -12.3236   19.4510 C   0  0  0  0  0  0
  -29.4998  -12.4792   18.2234 C   0  0  0  0  0  0
  -28.0163  -12.3653   18.6199 C   0  0  0  0  0  0
  -27.6562  -13.2212   19.8627 C   0  0  2  0  0  0
  -28.7068  -13.0779   20.9863 C   0  0  0  0  0  0
  -25.2584  -13.8230   20.5643 C   0  0  0  0  0  0
  -24.1860  -13.0466   20.9188 C   0  0  0  0  0  0
  -24.6388  -11.6939   20.8706 C   0  0  0  0  0  0
  -23.9046  -10.4307   21.0350 C   0  0  0  0  0  0
  -24.3610   -9.4244   21.9147 C   0  0  0  0  0  0
  -23.6306   -8.2259   22.0741 C   0  0  0  0  0  0
  -22.4282   -8.0268   21.3533 C   0  0  0  0  0  0
  -21.9894   -9.0228   20.4623 C   0  0  0  0  0  0
  -22.7202  -10.2120   20.3021 C   0  0  0  0  0  0
  -21.6865   -6.0698   22.5251 C   0  0  0  0  0  0
  -21.4012   -6.5614   23.8180 C   0  0  0  0  0  0
  -21.3687   -5.6784   24.9159 C   0  0  0  0  0  0
  -21.6067   -4.3042   24.7210 C   0  0  0  0  0  0
  -21.8846   -3.8123   23.4330 C   0  0  0  0  0  0
  -21.9201   -4.6927   22.3385 C   0  0  0  0  0  0
  -22.7867  -13.5227   21.1822 C   0  0  0  0  0  0
  -22.1669   -4.2097   21.0970 F   0  0  0  0  0  0
  -21.5650   -3.4541   25.7735 F   0  0  0  0  0  0
  -30.0348  -13.3595   20.4244 N   0  0  0  0  0  0
  -26.3014  -12.9390   20.3356 N   0  0  0  0  0  0
  -25.9357  -11.6551   20.5838 N   0  0  0  0  0  0
  -22.0511  -12.8223   22.0380 N   0  0  0  0  0  0
  -25.4375  -15.1932   20.3946 N   0  0  0  0  0  0
  -31.8774  -14.6506   20.0756 O   0  0  0  0  0  0
  -21.6677   -6.8825   21.4204 O   0  0  0  0  0  0
  -22.3536  -14.5506   20.6649 O   0  0  0  0  0  0
  -24.6105  -31.8654   23.2048 C   0  0  0  0  0  0
  -25.9004  -32.4790   23.8361 C   0  0  1  0  0  0
  -27.2563  -27.4214   20.0991 C   0  0  0  0  0  0
  -25.5829  -33.8595   24.2293 N   0  0  0  0  0  0
  -23.3996  -30.4763   21.5545 C   0  0  2  0  0  0
  -24.8447  -28.9294   20.1213 C   0  0  0  0  0  0
  -22.7409  -29.4603   22.5131 C   0  0  0  0  0  0
  -18.0248  -28.1328   22.8513 C   0  0  0  0  0  0
  -24.1450  -36.7299   23.2661 C   0  0  0  0  0  0
  -25.9231  -30.8198   21.3578 C   0  0  0  0  0  0
  -26.0004  -29.4496   20.7136 C   0  0  0  0  0  0
  -27.2009  -28.7029   20.6981 C   0  0  0  0  0  0
  -26.0796  -26.9130   19.5012 C   0  0  0  0  0  0
  -24.8797  -27.6577   19.5169 C   0  0  0  0  0  0
  -23.6000  -29.7925   20.1729 C   0  0  0  0  0  0
  -25.4083  -36.3122   24.0367 C   0  0  1  0  0  0
  -20.5835  -28.3603   23.1366 C   0  0  2  0  0  0
  -20.6723  -26.9348   22.5450 C   0  0  0  0  0  0
  -19.5713  -26.6350   21.5229 C   0  0  0  0  0  0
  -18.1887  -26.7878   22.1630 C   0  0  0  0  0  0
  -19.1496  -28.8797   23.2918 C   0  0  0  0  0  0
  -18.9436  -30.1406   23.8915 C   0  0  0  0  0  0
  -17.6442  -30.6550   24.0551 C   0  0  0  0  0  0
  -25.9030  -34.9486   23.5164 C   0  0  0  0  0  0
  -16.5329  -29.9051   23.6301 C   0  0  0  0  0  0
  -16.7246  -28.6445   23.0376 C   0  0  0  0  0  0
  -26.4433  -31.6567   25.0700 C   0  0  0  0  0  0
  -25.3713  -31.3634   26.1465 C   0  0  0  0  0  0
  -27.0273  -30.3030   24.6048 C   0  0  0  0  0  0
  -27.6030  -32.4283   25.7416 C   0  0  0  0  0  0
  -27.5588  -37.1786   24.8490 C   0  0  0  0  0  0
  -21.4153  -29.2959   22.3805 N   0  0  0  0  0  0
  -26.4286  -37.3803   23.9449 N   0  0  0  0  0  0
  -24.6632  -31.0721   22.0947 N   0  0  0  0  0  0
  -23.4184  -28.8208   23.3226 O   0  0  0  0  0  0
  -28.4634  -26.7425   20.1491 O   0  0  0  0  0  0
  -26.5662  -34.8961   22.4765 O   0  0  0  0  0  0
  -23.5295  -32.1414   23.7442 O   0  0  0  0  0  0
  -30.2128  -19.4928   18.8667 C   0  0  0  0  0  0
  -30.3693  -17.0572   18.7522 C   0  0  0  0  0  0
  -29.9411  -18.1437   20.8867 C   0  0  0  0  0  0
  -30.3888  -18.3152   18.1117 C   0  0  0  0  0  0
  -29.9967  -19.4229   20.2604 C   0  0  0  0  0  0
  -30.1306  -16.9430   20.1486 C   0  0  0  0  0  0
  -29.3964  -23.1160   20.3706 C   0  0  0  0  0  0
  -30.6020  -18.4038   16.6079 C   0  0  0  0  0  0
  -27.6539  -21.3696   20.1596 C   0  0  0  0  0  0
  -29.8554  -20.7245   21.0739 C   0  0  0  0  0  0
  -28.3032  -24.2073   20.1245 C   0  0  0  0  0  0
  -28.7077  -25.5332   19.4067 C   0  0  0  0  0  0
  -30.0015  -15.6510   20.7807 N   0  0  0  0  0  0
  -29.0169  -21.8029   20.4759 N   0  0  0  0  0  0
  -30.5696  -23.4671   20.5419 O   0  0  0  0  0  0
  -31.4597  -12.3975   19.1438 H   0  0  0  0  0  0
  -30.3017  -11.3320   19.8884 H   0  0  0  0  0  0
  -29.7390  -11.7149   17.4852 H   0  0  0  0  0  0
  -29.6916  -13.4444   17.7497 H   0  0  0  0  0  0
  -27.8076  -11.3139   18.8235 H   0  0  0  0  0  0
  -27.3791  -12.6424   17.7782 H   0  0  0  0  0  0
  -27.6735  -14.2612   19.5377 H   0  0  0  0  0  0
  -28.6925  -12.0655   21.3907 H   0  0  0  0  0  0
  -28.4699  -13.7422   21.8170 H   0  0  0  0  0  0
  -25.2731   -9.5775   22.4738 H   0  0  0  0  0  0
  -24.0031   -7.4672   22.7469 H   0  0  0  0  0  0
  -21.0816   -8.8705   19.8932 H   0  0  0  0  0  0
  -22.3599  -10.9647   19.6158 H   0  0  0  0  0  0
  -21.1991   -7.6116   23.9653 H   0  0  0  0  0  0
  -21.1497   -6.0516   25.9056 H   0  0  0  0  0  0
  -22.0594   -2.7564   23.2861 H   0  0  0  0  0  0
  -22.4110  -11.9906   22.4842 H   0  0  0  0  0  0
  -21.1106  -13.1225   22.2502 H   0  0  0  0  0  0
  -24.6834  -15.8664   20.4807 H   0  0  0  0  0  0
  -26.2962  -15.6091   20.0538 H   0  0  0  0  0  0
  -26.7071  -32.5477   23.1115 H   0  0  0  0  0  0
  -24.9855  -33.9693   25.0355 H   0  0  0  0  0  0
  -22.6876  -31.2921   21.4169 H   0  0  0  0  0  0
  -23.3738  -35.9595   23.3279 H   0  0  0  0  0  0
  -24.3579  -36.8947   22.2087 H   0  0  0  0  0  0
  -23.7121  -37.6473   23.6672 H   0  0  0  0  0  0
  -26.0475  -31.5746   20.5802 H   0  0  0  0  0  0
  -26.8036  -30.8692   21.9843 H   0  0  0  0  0  0
  -28.0945  -29.1120   21.1495 H   0  0  0  0  0  0
  -26.0644  -25.9425   19.0281 H   0  0  0  0  0  0
  -23.9937  -27.2448   19.0595 H   0  0  0  0  0  0
  -23.6898  -30.5577   19.4000 H   0  0  0  0  0  0
  -22.7194  -29.2058   19.8998 H   0  0  0  0  0  0
  -25.1228  -36.2031   25.0855 H   0  0  0  0  0  0
  -20.9882  -28.3134   24.1508 H   0  0  0  0  0  0
  -20.5583  -26.2221   23.3633 H   0  0  0  0  0  0
  -21.6590  -26.7367   22.1257 H   0  0  0  0  0  0
  -19.6863  -25.6273   21.1224 H   0  0  0  0  0  0
  -19.6641  -27.3180   20.6764 H   0  0  0  0  0  0
  -17.4171  -26.6669   21.4019 H   0  0  0  0  0  0
  -18.0275  -25.9985   22.8977 H   0  0  0  0  0  0
  -19.7912  -30.7194   24.2300 H   0  0  0  0  0  0
  -17.4998  -31.6246   24.5127 H   0  0  0  0  0  0
  -15.5320  -30.2969   23.7594 H   0  0  0  0  0  0
  -15.8659  -28.0747   22.7132 H   0  0  0  0  0  0
  -24.5871  -30.7001   25.7782 H   0  0  0  0  0  0
  -24.8901  -32.2755   26.5005 H   0  0  0  0  0  0
  -25.8076  -30.8731   27.0178 H   0  0  0  0  0  0
  -26.2778  -29.6774   24.1176 H   0  0  0  0  0  0
  -27.4167  -29.7291   25.4467 H   0  0  0  0  0  0
  -27.8560  -30.4386   23.9095 H   0  0  0  0  0  0
  -27.2683  -33.3602   26.1990 H   0  0  0  0  0  0
  -28.3792  -32.6813   25.0175 H   0  0  0  0  0  0
  -28.0748  -31.8416   26.5313 H   0  0  0  0  0  0
  -28.2620  -38.0077   24.7573 H   0  0  0  0  0  0
  -28.1076  -36.2629   24.6242 H   0  0  0  0  0  0
  -27.2351  -37.1341   25.8909 H   0  0  0  0  0  0
  -20.9381  -29.8671   21.6972 H   0  0  0  0  0  0
  -26.0208  -38.2899   24.1438 H   0  0  0  0  0  0
  -30.2397  -20.4599   18.3781 H   0  0  0  0  0  0
  -30.5183  -16.1728   18.1494 H   0  0  0  0  0  0
  -29.7595  -18.0807   21.9522 H   0  0  0  0  0  0
  -29.8207  -19.0027   16.1396 H   0  0  0  0  0  0
  -30.5758  -17.4161   16.1471 H   0  0  0  0  0  0
  -31.5685  -18.8571   16.3795 H   0  0  0  0  0  0
  -26.9504  -21.7616   20.8970 H   0  0  0  0  0  0
  -27.5680  -20.2840   20.1327 H   0  0  0  0  0  0
  -27.3516  -21.7006   19.1674 H   0  0  0  0  0  0
  -30.8652  -21.0764   21.2924 H   0  0  0  0  0  0
  -29.4316  -20.4771   22.0477 H   0  0  0  0  0  0
  -27.8531  -24.4342   21.0891 H   0  0  0  0  0  0
  -27.5025  -23.8023   19.5184 H   0  0  0  0  0  0
  -28.2297  -25.5881   18.4267 H   0  0  0  0  0  0
  -29.7768  -25.5310   19.1974 H   0  0  0  0  0  0
  -29.1638  -15.4960   21.3189 H   0  0  0  0  0  0
  1 25  1  0  0  0
  1 30  2  0  0  0
  1 83  1  0  0  0
  2  3  1  0  0  0
  2 25  1  0  0  0
  2 86  1  0  0  0
  2 87  1  0  0  0
  3  4  1  0  0  0
  3 88  1  0  0  0
  3 89  1  0  0  0
  4  5  1  0  0  0
  4 90  1  0  0  0
  4 91  1  0  0  0
  5  6  1  0  0  0
  5 26  1  0  0  0
  5 92  1  0  0  0
  6 25  1  0  0  0
  6 93  1  0  0  0
  6 94  1  0  0  0
  7  8  2  0  0  0
  7 26  1  0  0  0
  7 29  1  0  0  0
  8  9  1  0  0  0
  8 22  1  0  0  0
  9 10  1  0  0  0
  9 27  2  0  0  0
 10 11  2  0  0  0
 10 15  1  0  0  0
 11 12  1  0  0  0
 11 95  1  0  0  0
 12 13  2  0  0  0
 12 96  1  0  0  0
 13 14  1  0  0  0
 13 31  1  0  0  0
 14 15  2  0  0  0
 14 97  1  0  0  0
 15 98  1  0  0  0
 16 17  2  0  0  0
 16 21  1  0  0  0
 16 31  1  0  0  0
 17 18  1  0  0  0
 17 99  1  0  0  0
 18 19  2  0  0  0
 18100  1  0  0  0
 19 20  1  0  0  0
 19 24  1  0  0  0
 20 21  2  0  0  0
 20101  1  0  0  0
 21 23  1  0  0  0
 22 28  1  0  0  0
 22 32  2  0  0  0
 26 27  1  0  0  0
 28102  1  0  0  0
 28103  1  0  0  0
 29104  1  0  0  0
 29105  1  0  0  0
 33 34  1  0  0  0
 33 66  1  0  0  0
 33 70  2  0  0  0
 34 36  1  0  0  0
 34 59  1  0  0  0
 34106  1  0  0  0
 35 44  2  0  0  0
 35 45  1  0  0  0
 35 68  1  0  0  0
 36 56  1  0  0  0
 36107  1  0  0  0
 37 39  1  0  0  0
 37 47  1  0  0  0
 37 66  1  0  0  0
 37108  1  0  0  0
 38 43  2  0  0  0
 38 46  1  0  0  0
 38 47  1  0  0  0
 39 64  1  0  0  0
 39 67  2  0  0  0
 40 52  1  0  0  0
 40 53  2  0  0  0
 40 58  1  0  0  0
 41109  1  0  0  0
 41110  1  0  0  0
 41111  1  0  0  0
 41 48  1  0  0  0
 42 43  1  0  0  0
 42 66  1  0  0  0
 42112  1  0  0  0
 42113  1  0  0  0
 43 44  1  0  0  0
 44114  1  0  0  0
 45 46  2  0  0  0
 45115  1  0  0  0
 46116  1  0  0  0
 47117  1  0  0  0
 47118  1  0  0  0
 48 56  1  0  0  0
 48 65  1  0  0  0
 48119  1  0  0  0
 49 50  1  0  0  0
 49 53  1  0  0  0
 49 64  1  0  0  0
 49120  1  0  0  0
 50 51  1  0  0  0
 50121  1  0  0  0
 50122  1  0  0  0
 51 52  1  0  0  0
 51123  1  0  0  0
 51124  1  0  0  0
 52125  1  0  0  0
 52126  1  0  0  0
 53 54  1  0  0  0
 54 55  2  0  0  0
 54127  1  0  0  0
 55 57  1  0  0  0
 55128  1  0  0  0
 56 69  2  0  0  0
 57 58  2  0  0  0
 57129  1  0  0  0
 58130  1  0  0  0
 59 60  1  0  0  0
 59 61  1  0  0  0
 59 62  1  0  0  0
 60131  1  0  0  0
 60132  1  0  0  0
 60133  1  0  0  0
 61134  1  0  0  0
 61135  1  0  0  0
 61136  1  0  0  0
 62137  1  0  0  0
 62138  1  0  0  0
 62139  1  0  0  0
 63 65  1  0  0  0
 63140  1  0  0  0
 63141  1  0  0  0
 63142  1  0  0  0
 64143  1  0  0  0
 65144  1  0  0  0
 68 82  1  0  0  0
 71 74  2  0  0  0
 71 75  1  0  0  0
 71145  1  0  0  0
 72 74  1  0  0  0
 72 76  2  0  0  0
 72146  1  0  0  0
 73 75  2  0  0  0
 73 76  1  0  0  0
 73147  1  0  0  0
 74 78  1  0  0  0
 75 80  1  0  0  0
 76 83  1  0  0  0
 77 81  1  0  0  0
 77 84  1  0  0  0
 77 85  2  0  0  0
 78148  1  0  0  0
 78149  1  0  0  0
 78150  1  0  0  0
 79 84  1  0  0  0
 79151  1  0  0  0
 79152  1  0  0  0
 79153  1  0  0  0
 80 84  1  0  0  0
 80154  1  0  0  0
 80155  1  0  0  0
 81 82  1  0  0  0
 81156  1  0  0  0
 81157  1  0  0  0
 82158  1  0  0  0
 82159  1  0  0  0
 83160  1  0  0  0
M  ISO  4   1 100  68 101  82 101  83 100
M  END
> <chiral flag>
0

> <version>
0

> <s_m_source_file>
/data/baiqing/PycharmProjects/Reinvent-master-3.2/result/LINK_invent/BTK/process_docking_weight1_custom_product_contain_oxygen_bond_distance_aromatic_linkinvent_7_9_3/rearranged_h_0019.sdf

> <i_m_source_file_index>
84

> <r_mmod_Potential_Energy-OPLS-2005>
-16.633768081665

> <r_mmod_Stretch_Energy-OPLS-2005>
50.4117660522461

> <r_mmod_Bend_Energy-OPLS-2005>
117.793495178223

> <r_mmod_Torsional_Energy-OPLS-2005>
247.266693115234

> <r_mmod_Improper_Torsional_Energy-OPLS-2005>
5.80749940872192

> <r_mmod_Van_der_Waal_Energy-OPLS-2005>
156.253753662109

> <r_mmod_Electrostatic_Energy-OPLS-2005>
-383.797912597656

> <r_mmod_Solvation_Energy-OPLS-2005>
-234.685363769531

> <b_mmod_Minimization_Converged-OPLS-2005>
0

> <r_mmod_RMS_Derivative-OPLS-2005>
6.07394790649414

$$$$
84
                    3D
 Structure written by MMmdl.
162170  0  0  1  0            999 V2000
  -30.7195  -14.7439   20.5229 C   0  0  0  0  0  0
  -30.4180  -12.4750   19.5038 C   0  0  0  0  0  0
  -29.5047  -12.4932   18.2617 C   0  0  0  0  0  0
  -28.0439  -12.2773   18.6842 C   0  0  0  0  0  0
  -27.6338  -13.2169   19.8416 C   0  0  2  0  0  0
  -28.6763  -13.2524   20.9909 C   0  0  0  0  0  0
  -25.2433  -13.8119   20.5710 C   0  0  0  0  0  0
  -24.1750  -13.0369   20.9272 C   0  0  0  0  0  0
  -24.6378  -11.6872   20.8829 C   0  0  0  0  0  0
  -23.9067  -10.4250   21.0472 C   0  0  0  0  0  0
  -24.3618   -9.4159   21.9236 C   0  0  0  0  0  0
  -23.6293   -8.2202   22.0761 C   0  0  0  0  0  0
  -22.4269   -8.0270   21.3543 C   0  0  0  0  0  0
  -21.9929   -9.0249   20.4649 C   0  0  0  0  0  0
  -22.7269  -10.2126   20.3091 C   0  0  0  0  0  0
  -21.6850   -6.0736   22.5270 C   0  0  0  0  0  0
  -21.4008   -6.5637   23.8200 C   0  0  0  0  0  0
  -21.3654   -5.6793   24.9162 C   0  0  0  0  0  0
  -21.6054   -4.3052   24.7215 C   0  0  0  0  0  0
  -21.8817   -3.8152   23.4330 C   0  0  0  0  0  0
  -21.9183   -4.6971   22.3390 C   0  0  0  0  0  0
  -22.7769  -13.5166   21.1900 C   0  0  0  0  0  0
  -22.1660   -4.2157   21.0968 F   0  0  0  0  0  0
  -21.5632   -3.4535   25.7725 F   0  0  0  0  0  0
  -29.9937  -13.5686   20.4205 N   0  0  0  0  0  0
  -26.2877  -12.9344   20.3280 N   0  0  0  0  0  0
  -25.9298  -11.6494   20.5826 N   0  0  0  0  0  0
  -22.0425  -12.8164   22.0470 N   0  0  0  0  0  0
  -25.3911  -15.1838   20.4076 N   0  0  0  0  0  0
  -31.8391  -14.7888   20.0062 O   0  0  0  0  0  0
  -21.6629   -6.8877   21.4230 O   0  0  0  0  0  0
  -22.3460  -14.5480   20.6752 O   0  0  0  0  0  0
  -24.6320  -31.8543   23.1963 C   0  0  0  0  0  0
  -25.9143  -32.4743   23.8315 C   0  0  1  0  0  0
  -27.2279  -27.2556   20.1234 C   0  0  0  0  0  0
  -25.5948  -33.8546   24.2240 N   0  0  0  0  0  0
  -23.4284  -30.4789   21.5377 C   0  0  2  0  0  0
  -24.8763  -28.9256   20.1071 C   0  0  0  0  0  0
  -22.7503  -29.4592   22.4842 C   0  0  0  0  0  0
  -18.0308  -28.1393   22.8460 C   0  0  0  0  0  0
  -24.1495  -36.7277   23.2636 C   0  0  0  0  0  0
  -25.9742  -30.7607   21.3799 C   0  0  0  0  0  0
  -26.0466  -29.3858   20.7210 C   0  0  0  0  0  0
  -27.2220  -28.5631   20.7209 C   0  0  0  0  0  0
  -26.0260  -26.8709   19.4770 C   0  0  0  0  0  0
  -24.8708  -27.6741   19.4792 C   0  0  0  0  0  0
  -23.6496  -29.8152   20.1539 C   0  0  0  0  0  0
  -25.4113  -36.3044   24.0319 C   0  0  1  0  0  0
  -20.5910  -28.3714   23.1219 C   0  0  2  0  0  0
  -20.6810  -26.9426   22.5367 C   0  0  0  0  0  0
  -19.5787  -26.6383   21.5183 C   0  0  0  0  0  0
  -18.1963  -26.7941   22.1590 C   0  0  0  0  0  0
  -19.1561  -28.8871   23.2847 C   0  0  0  0  0  0
  -18.9495  -30.1480   23.8866 C   0  0  0  0  0  0
  -17.6499  -30.6600   24.0558 C   0  0  0  0  0  0
  -25.9058  -34.9419   23.5073 C   0  0  0  0  0  0
  -16.5388  -29.9086   23.6343 C   0  0  0  0  0  0
  -16.7299  -28.6507   23.0343 C   0  0  0  0  0  0
  -26.4511  -31.6585   25.0730 C   0  0  0  0  0  0
  -25.3720  -31.3747   26.1443 C   0  0  0  0  0  0
  -27.0376  -30.2988   24.6278 C   0  0  0  0  0  0
  -27.6054  -32.4365   25.7486 C   0  0  0  0  0  0
  -27.5562  -37.1778   24.8466 C   0  0  0  0  0  0
  -21.4197  -29.3070   22.3604 N   0  0  0  0  0  0
  -26.4281  -37.3736   23.9417 N   0  0  0  0  0  0
  -24.6965  -31.0503   22.0952 N   0  0  0  0  0  0
  -23.4200  -28.8112   23.2923 O   0  0  0  0  0  0
  -28.3357  -26.3679   20.2117 O   0  0  0  0  0  0
  -26.5608  -34.8886   22.4625 O   0  0  0  0  0  0
  -23.5466  -32.1387   23.7251 O   0  0  0  0  0  0
  -27.4242  -18.0035   20.0611 C   0  0  0  0  0  0
  -27.8767  -19.3280   20.2016 C   0  0  0  0  0  0
  -28.2611  -16.9083   20.3494 C   0  0  0  0  0  0
  -30.0407  -18.4546   20.8869 C   0  0  0  0  0  0
  -29.2038  -19.6147   20.5911 C   0  0  0  0  0  0
  -29.5866  -17.0692   20.7835 C   0  0  0  0  0  0
  -28.6304  -25.1846   18.1890 C   0  0  0  0  0  0
  -31.2048  -16.1168   22.3951 C   0  0  0  0  0  0
  -28.8792  -21.9991   18.5388 C   0  0  0  0  0  0
  -29.6522  -21.1480   20.7388 C   0  0  0  0  0  0
  -29.1711  -23.7554   20.3419 C   0  0  0  0  0  0
  -28.2785  -24.9584   19.6774 C   0  0  1  0  0  0
  -30.3036  -15.8531   21.2641 N   0  0  0  0  0  0
  -28.8756  -22.2624   19.9989 N   0  3  1  0  0  0
  -31.4594  -12.5629   19.1922 H   0  0  0  0  0  0
  -30.3555  -11.5154   20.0201 H   0  0  0  0  0  0
  -29.8087  -11.7158   17.5597 H   0  0  0  0  0  0
  -29.6035  -13.4448   17.7370 H   0  0  0  0  0  0
  -27.9397  -11.2375   18.9998 H   0  0  0  0  0  0
  -27.3752  -12.4053   17.8324 H   0  0  0  0  0  0
  -27.5941  -14.1884   19.3613 H   0  0  0  0  0  0
  -28.7100  -12.2989   21.5192 H   0  0  0  0  0  0
  -28.3888  -14.0001   21.7319 H   0  0  0  0  0  0
  -25.2749   -9.5627   22.4836 H   0  0  0  0  0  0
  -23.9995   -7.4569   22.7459 H   0  0  0  0  0  0
  -21.0872   -8.8796   19.8928 H   0  0  0  0  0  0
  -22.3757  -10.9690   19.6211 H   0  0  0  0  0  0
  -21.2003   -7.6146   23.9710 H   0  0  0  0  0  0
  -21.1488   -6.0516   25.9065 H   0  0  0  0  0  0
  -22.0605   -2.7614   23.2822 H   0  0  0  0  0  0
  -22.4041  -11.9824   22.4854 H   0  0  0  0  0  0
  -21.1034  -13.1167   22.2670 H   0  0  0  0  0  0
  -24.6204  -15.8241   20.5624 H   0  0  0  0  0  0
  -26.2173  -15.6406   20.0523 H   0  0  0  0  0  0
  -26.7189  -32.5386   23.1035 H   0  0  0  0  0  0
  -25.0195  -33.9726   25.0453 H   0  0  0  0  0  0
  -22.7249  -31.3008   21.3893 H   0  0  0  0  0  0
  -23.3755  -35.9611   23.3293 H   0  0  0  0  0  0
  -24.3594  -36.8916   22.2050 H   0  0  0  0  0  0
  -23.7265  -37.6476   23.6682 H   0  0  0  0  0  0
  -26.1222  -31.5149   20.6073 H   0  0  0  0  0  0
  -26.8491  -30.8053   22.0163 H   0  0  0  0  0  0
  -28.1160  -28.9115   21.2199 H   0  0  0  0  0  0
  -25.9235  -25.9279   18.9653 H   0  0  0  0  0  0
  -23.9743  -27.3120   18.9959 H   0  0  0  0  0  0
  -23.7741  -30.5945   19.4022 H   0  0  0  0  0  0
  -22.7657  -29.2534   19.8452 H   0  0  0  0  0  0
  -25.1280  -36.1861   25.0809 H   0  0  0  0  0  0
  -21.0041  -28.3319   24.1317 H   0  0  0  0  0  0
  -20.5723  -26.2330   23.3579 H   0  0  0  0  0  0
  -21.6673  -26.7436   22.1143 H   0  0  0  0  0  0
  -19.6960  -25.6283   21.1244 H   0  0  0  0  0  0
  -19.6752  -27.3163   20.6692 H   0  0  0  0  0  0
  -17.4232  -26.6684   21.3993 H   0  0  0  0  0  0
  -18.0375  -26.0073   22.8977 H   0  0  0  0  0  0
  -19.7979  -30.7303   24.2196 H   0  0  0  0  0  0
  -17.5066  -31.6278   24.5175 H   0  0  0  0  0  0
  -15.5407  -30.2991   23.7710 H   0  0  0  0  0  0
  -15.8684  -28.0856   22.7041 H   0  0  0  0  0  0
  -24.5938  -30.7054   25.7777 H   0  0  0  0  0  0
  -24.8879  -32.2917   26.4801 H   0  0  0  0  0  0
  -25.8029  -30.8977   27.0256 H   0  0  0  0  0  0
  -26.2968  -29.6734   24.1303 H   0  0  0  0  0  0
  -27.4015  -29.7280   25.4833 H   0  0  0  0  0  0
  -27.8854  -30.4238   23.9555 H   0  0  0  0  0  0
  -27.2662  -33.3718   26.1943 H   0  0  0  0  0  0
  -28.3889  -32.6867   25.0320 H   0  0  0  0  0  0
  -28.0693  -31.8591   26.5491 H   0  0  0  0  0  0
  -28.2536  -38.0108   24.7504 H   0  0  0  0  0  0
  -28.1099  -36.2634   24.6287 H   0  0  0  0  0  0
  -27.2300  -37.1393   25.8875 H   0  0  0  0  0  0
  -20.9392  -29.8809   21.6809 H   0  0  0  0  0  0
  -26.0155  -38.2801   24.1455 H   0  0  0  0  0  0
  -26.3991  -17.8263   19.7670 H   0  0  0  0  0  0
  -27.1669  -20.1210   20.0100 H   0  0  0  0  0  0
  -27.8477  -15.9250   20.3247 H   0  0  0  0  0  0
  -31.0485  -18.6457   21.2281 H   0  0  0  0  0  0
  -28.3102  -24.3818   17.5345 H   0  0  0  0  0  0
  -29.7048  -25.3141   18.0619 H   0  0  0  0  0  0
  -28.1548  -26.0808   17.7918 H   0  0  0  0  0  0
  -30.6778  -16.6334   23.1978 H   0  0  0  0  0  0
  -32.0502  -16.7341   22.0838 H   0  0  0  0  0  0
  -31.6178  -15.2017   22.8310 H   0  0  0  0  0  0
  -28.9230  -20.9387   18.2917 H   0  0  0  0  0  0
  -29.7323  -22.4752   18.0546 H   0  0  0  0  0  0
  -27.9583  -22.3605   18.0883 H   0  0  0  0  0  0
  -30.7003  -21.2142   20.4394 H   0  0  0  0  0  0
  -29.6426  -21.3805   21.8033 H   0  0  0  0  0  0
  -29.0684  -23.8419   21.4235 H   0  0  0  0  0  0
  -30.2267  -23.9513   20.1490 H   0  0  0  0  0  0
  -27.2562  -24.5966   19.7712 H   0  0  0  0  0  0
  -27.9234  -22.1203   20.2974 H   0  0  0  0  0  0
  1 25  1  0  0  0
  1 30  2  0  0  0
  1 83  1  0  0  0
  2  3  1  0  0  0
  2 25  1  0  0  0
  2 85  1  0  0  0
  2 86  1  0  0  0
  3  4  1  0  0  0
  3 87  1  0  0  0
  3 88  1  0  0  0
  4  5  1  0  0  0
  4 89  1  0  0  0
  4 90  1  0  0  0
  5  6  1  0  0  0
  5 26  1  0  0  0
  5 91  1  0  0  0
  6 25  1  0  0  0
  6 92  1  0  0  0
  6 93  1  0  0  0
  7  8  2  0  0  0
  7 26  1  0  0  0
  7 29  1  0  0  0
  8  9  1  0  0  0
  8 22  1  0  0  0
  9 10  1  0  0  0
  9 27  2  0  0  0
 10 11  2  0  0  0
 10 15  1  0  0  0
 11 12  1  0  0  0
 11 94  1  0  0  0
 12 13  2  0  0  0
 12 95  1  0  0  0
 13 14  1  0  0  0
 13 31  1  0  0  0
 14 15  2  0  0  0
 14 96  1  0  0  0
 15 97  1  0  0  0
 16 17  2  0  0  0
 16 21  1  0  0  0
 16 31  1  0  0  0
 17 18  1  0  0  0
 17 98  1  0  0  0
 18 19  2  0  0  0
 18 99  1  0  0  0
 19 20  1  0  0  0
 19 24  1  0  0  0
 20 21  2  0  0  0
 20100  1  0  0  0
 21 23  1  0  0  0
 22 28  1  0  0  0
 22 32  2  0  0  0
 26 27  1  0  0  0
 28101  1  0  0  0
 28102  1  0  0  0
 29103  1  0  0  0
 29104  1  0  0  0
 33 34  1  0  0  0
 33 66  1  0  0  0
 33 70  2  0  0  0
 34 36  1  0  0  0
 34 59  1  0  0  0
 34105  1  0  0  0
 35 44  2  0  0  0
 35 45  1  0  0  0
 35 68  1  0  0  0
 36 56  1  0  0  0
 36106  1  0  0  0
 37 39  1  0  0  0
 37 47  1  0  0  0
 37 66  1  0  0  0
 37107  1  0  0  0
 38 43  2  0  0  0
 38 46  1  0  0  0
 38 47  1  0  0  0
 39 64  1  0  0  0
 39 67  2  0  0  0
 40 52  1  0  0  0
 40 53  2  0  0  0
 40 58  1  0  0  0
 41108  1  0  0  0
 41109  1  0  0  0
 41110  1  0  0  0
 41 48  1  0  0  0
 42 43  1  0  0  0
 42 66  1  0  0  0
 42111  1  0  0  0
 42112  1  0  0  0
 43 44  1  0  0  0
 44113  1  0  0  0
 45 46  2  0  0  0
 45114  1  0  0  0
 46115  1  0  0  0
 47116  1  0  0  0
 47117  1  0  0  0
 48 56  1  0  0  0
 48 65  1  0  0  0
 48118  1  0  0  0
 49 50  1  0  0  0
 49 53  1  0  0  0
 49 64  1  0  0  0
 49119  1  0  0  0
 50 51  1  0  0  0
 50120  1  0  0  0
 50121  1  0  0  0
 51 52  1  0  0  0
 51122  1  0  0  0
 51123  1  0  0  0
 52124  1  0  0  0
 52125  1  0  0  0
 53 54  1  0  0  0
 54 55  2  0  0  0
 54126  1  0  0  0
 55 57  1  0  0  0
 55127  1  0  0  0
 56 69  2  0  0  0
 57 58  2  0  0  0
 57128  1  0  0  0
 58129  1  0  0  0
 59 60  1  0  0  0
 59 61  1  0  0  0
 59 62  1  0  0  0
 60130  1  0  0  0
 60131  1  0  0  0
 60132  1  0  0  0
 61133  1  0  0  0
 61134  1  0  0  0
 61135  1  0  0  0
 62136  1  0  0  0
 62137  1  0  0  0
 62138  1  0  0  0
 63 65  1  0  0  0
 63139  1  0  0  0
 63140  1  0  0  0
 63141  1  0  0  0
 64142  1  0  0  0
 65143  1  0  0  0
 68 82  1  0  0  0
 71 72  2  0  0  0
 71 73  1  0  0  0
 71144  1  0  0  0
 72 75  1  0  0  0
 72145  1  0  0  0
 73 76  2  0  0  0
 73146  1  0  0  0
 74 75  2  0  0  0
 74 76  1  0  0  0
 74147  1  0  0  0
 75 80  1  0  0  0
 76 83  1  0  0  0
 77148  1  0  0  0
 77149  1  0  0  0
 77150  1  0  0  0
 77 82  1  0  0  0
 78 83  1  0  0  0
 78151  1  0  0  0
 78152  1  0  0  0
 78153  1  0  0  0
 79154  1  0  0  0
 79155  1  0  0  0
 79156  1  0  0  0
 79 84  1  0  0  0
 80 84  1  0  0  0
 80157  1  0  0  0
 80158  1  0  0  0
 81 82  1  0  0  0
 81 84  1  0  0  0
 81159  1  0  0  0
 81160  1  0  0  0
 82161  1  0  0  0
 84162  1  0  0  0
M  CHG  1  84   1
M  ISO  4   1 100  68 101  82 101  83 100
M  END
> <chiral flag>
0

> <version>
0

> <s_m_source_file>
/data/baiqing/PycharmProjects/Reinvent-master-3.2/result/LINK_invent/BTK/process_docking_weight1_custom_product_contain_oxygen_bond_distance_aromatic_linkinvent_7_9_3/rearranged_h_0019.sdf

> <i_m_source_file_index>
85

> <r_mmod_Potential_Energy-OPLS-2005>
271.978576660156

> <r_mmod_Stretch_Energy-OPLS-2005>
142.383651733398

> <r_mmod_Bend_Energy-OPLS-2005>
194.827255249023

> <r_mmod_Torsional_Energy-OPLS-2005>
285.801391601562

> <r_mmod_Improper_Torsional_Energy-OPLS-2005>
5.5541877746582

> <r_mmod_Van_der_Waal_Energy-OPLS-2005>
152.899780273438

> <r_mmod_Electrostatic_Energy-OPLS-2005>
-181.609329223633

> <r_mmod_Solvation_Energy-OPLS-2005>
-420.237487792969

> <b_mmod_Minimization_Converged-OPLS-2005>
0

> <r_mmod_RMS_Derivative-OPLS-2005>
3.18307733535767

$$$$
85
                    3D
 Structure written by MMmdl.
159168  0  0  1  0            999 V2000
  -30.6112  -14.7322   20.3640 C   0  0  0  0  0  0
  -30.4428  -12.4193   19.4572 C   0  0  0  0  0  0
  -29.5026  -12.3759   18.2308 C   0  0  0  0  0  0
  -28.0203  -12.2953   18.6468 C   0  0  0  0  0  0
  -27.6402  -13.2228   19.8343 C   0  0  2  0  0  0
  -28.6961  -13.1865   20.9570 C   0  0  0  0  0  0
  -25.2562  -13.8192   20.5738 C   0  0  0  0  0  0
  -24.1825  -13.0461   20.9212 C   0  0  0  0  0  0
  -24.6396  -11.6929   20.8783 C   0  0  0  0  0  0
  -23.9078  -10.4307   21.0435 C   0  0  0  0  0  0
  -24.3626   -9.4218   21.9210 C   0  0  0  0  0  0
  -23.6293   -8.2259   22.0770 C   0  0  0  0  0  0
  -22.4277   -8.0300   21.3557 C   0  0  0  0  0  0
  -21.9932   -9.0280   20.4662 C   0  0  0  0  0  0
  -22.7263  -10.2153   20.3074 C   0  0  0  0  0  0
  -21.6845   -6.0755   22.5293 C   0  0  0  0  0  0
  -21.4012   -6.5660   23.8227 C   0  0  0  0  0  0
  -21.3639   -5.6811   24.9187 C   0  0  0  0  0  0
  -21.6022   -4.3072   24.7243 C   0  0  0  0  0  0
  -21.8814   -3.8169   23.4368 C   0  0  0  0  0  0
  -21.9193   -4.6984   22.3423 C   0  0  0  0  0  0
  -22.7854  -13.5257   21.1872 C   0  0  0  0  0  0
  -22.1665   -4.2162   21.1006 F   0  0  0  0  0  0
  -21.5608   -3.4558   25.7761 F   0  0  0  0  0  0
  -29.9879  -13.5078   20.3438 N   0  0  0  0  0  0
  -26.2967  -12.9381   20.3309 N   0  0  0  0  0  0
  -25.9328  -11.6539   20.5828 N   0  0  0  0  0  0
  -22.0486  -12.8225   22.0390 N   0  0  0  0  0  0
  -25.4365  -15.1911   20.4191 N   0  0  0  0  0  0
  -31.8427  -14.7954   20.3087 O   0  0  0  0  0  0
  -21.6632   -6.8901   21.4253 O   0  0  0  0  0  0
  -22.3554  -14.5587   20.6754 O   0  0  0  0  0  0
  -24.6230  -31.8611   23.2006 C   0  0  0  0  0  0
  -25.9088  -32.4774   23.8348 C   0  0  1  0  0  0
  -27.2173  -27.3243   20.1401 C   0  0  0  0  0  0
  -25.5925  -33.8579   24.2287 N   0  0  0  0  0  0
  -23.4145  -30.4812   21.5444 C   0  0  2  0  0  0
  -24.8611  -28.9260   20.1176 C   0  0  0  0  0  0
  -22.7444  -29.4637   22.4968 C   0  0  0  0  0  0
  -18.0276  -28.1380   22.8489 C   0  0  0  0  0  0
  -24.1473  -36.7299   23.2632 C   0  0  0  0  0  0
  -25.9518  -30.7952   21.3656 C   0  0  0  0  0  0
  -26.0273  -29.4173   20.7206 C   0  0  0  0  0  0
  -27.2124  -28.6277   20.7195 C   0  0  0  0  0  0
  -26.0382  -26.8739   19.5175 C   0  0  0  0  0  0
  -24.8681  -27.6604   19.5059 C   0  0  0  0  0  0
  -23.6256  -29.8039   20.1622 C   0  0  0  0  0  0
  -25.4090  -36.3085   24.0328 C   0  0  1  0  0  0
  -20.5866  -28.3688   23.1304 C   0  0  2  0  0  0
  -20.6764  -26.9416   22.5420 C   0  0  0  0  0  0
  -19.5749  -26.6381   21.5217 C   0  0  0  0  0  0
  -18.1920  -26.7928   22.1621 C   0  0  0  0  0  0
  -19.1521  -28.8850   23.2884 C   0  0  0  0  0  0
  -18.9455  -30.1455   23.8896 C   0  0  0  0  0  0
  -17.6453  -30.6585   24.0570 C   0  0  0  0  0  0
  -25.9029  -34.9450   23.5101 C   0  0  0  0  0  0
  -16.5344  -29.9080   23.6348 C   0  0  0  0  0  0
  -16.7263  -28.6503   23.0360 C   0  0  0  0  0  0
  -26.4457  -31.6583   25.0731 C   0  0  0  0  0  0
  -25.3659  -31.3750   26.1449 C   0  0  0  0  0  0
  -27.0292  -30.2997   24.6186 C   0  0  0  0  0  0
  -27.6023  -32.4308   25.7498 C   0  0  0  0  0  0
  -27.5569  -37.1787   24.8466 C   0  0  0  0  0  0
  -21.4164  -29.3052   22.3716 N   0  0  0  0  0  0
  -26.4278  -37.3773   23.9412 N   0  0  0  0  0  0
  -24.6825  -31.0628   22.0946 N   0  0  0  0  0  0
  -23.4179  -28.8188   23.3042 O   0  0  0  0  0  0
  -28.3479  -26.5098   20.1029 O   0  0  0  0  0  0
  -26.5592  -34.8915   22.4667 O   0  0  0  0  0  0
  -23.5407  -32.1427   23.7341 O   0  0  0  0  0  0
  -28.0545  -19.0692   19.6018 C   0  0  0  0  0  0
  -28.3507  -17.6791   19.5631 C   0  0  0  0  0  0
  -30.3047  -18.0357   20.9050 C   0  0  0  0  0  0
  -28.8808  -20.0098   20.2651 C   0  0  0  0  0  0
  -29.5101  -17.1125   20.1625 C   0  0  0  0  0  0
  -29.9962  -19.4429   20.9613 C   0  0  0  0  0  0
  -28.5927  -23.5216   18.9102 C   0  0  0  0  0  0
  -28.4291  -21.9897   18.7663 C   0  0  0  0  0  0
  -28.5648  -22.5387   21.0827 C   0  0  0  0  0  0
  -28.0565  -23.8319   20.3085 C   0  0  1  0  0  0
  -30.0292  -15.7099   18.2691 C   0  0  0  0  0  0
  -28.3927  -25.2735   20.9092 C   0  0  0  0  0  0
  -28.6069  -21.4229   20.1022 N   0  0  0  0  0  0
  -29.8957  -15.7495   19.7388 N   0  0  0  0  0  0
  -30.8452  -20.2649   21.6283 F   0  0  0  0  0  0
  -31.4725  -12.5668   19.1270 H   0  0  0  0  0  0
  -30.4292  -11.4683   19.9919 H   0  0  0  0  0  0
  -29.7512  -11.5061   17.6221 H   0  0  0  0  0  0
  -29.6571  -13.2230   17.5703 H   0  0  0  0  0  0
  -27.8280  -11.2567   18.9171 H   0  0  0  0  0  0
  -27.3809  -12.5049   17.7887 H   0  0  0  0  0  0
  -27.6217  -14.2345   19.4317 H   0  0  0  0  0  0
  -28.7301  -12.2079   21.4378 H   0  0  0  0  0  0
  -28.4538  -13.9146   21.7329 H   0  0  0  0  0  0
  -25.2767   -9.5686   22.4793 H   0  0  0  0  0  0
  -23.9979   -7.4654   22.7502 H   0  0  0  0  0  0
  -21.0860   -8.8821   19.8978 H   0  0  0  0  0  0
  -22.3735  -10.9705   19.6186 H   0  0  0  0  0  0
  -21.2011   -7.6165   23.9732 H   0  0  0  0  0  0
  -21.1443   -6.0551   25.9081 H   0  0  0  0  0  0
  -22.0601   -2.7631   23.2884 H   0  0  0  0  0  0
  -22.4076  -11.9830   22.4699 H   0  0  0  0  0  0
  -21.1136  -13.1290   22.2666 H   0  0  0  0  0  0
  -24.6911  -15.8645   20.5579 H   0  0  0  0  0  0
  -26.3159  -15.6210   20.1675 H   0  0  0  0  0  0
  -26.7173  -32.5432   23.1115 H   0  0  0  0  0  0
  -25.0140  -33.9739   25.0477 H   0  0  0  0  0  0
  -22.7065  -31.2989   21.3958 H   0  0  0  0  0  0
  -23.3734  -35.9632   23.3288 H   0  0  0  0  0  0
  -24.3579  -36.8931   22.2052 H   0  0  0  0  0  0
  -23.7219  -37.6493   23.6663 H   0  0  0  0  0  0
  -26.0689  -31.5517   20.5882 H   0  0  0  0  0  0
  -26.8407  -30.8572   21.9834 H   0  0  0  0  0  0
  -28.1155  -29.0065   21.1793 H   0  0  0  0  0  0
  -26.0260  -25.9057   19.0370 H   0  0  0  0  0  0
  -23.9757  -27.2811   19.0252 H   0  0  0  0  0  0
  -23.7305  -30.5732   19.3962 H   0  0  0  0  0  0
  -22.7480  -29.2234   19.8734 H   0  0  0  0  0  0
  -25.1243  -36.1962   25.0821 H   0  0  0  0  0  0
  -20.9950  -28.3265   24.1429 H   0  0  0  0  0  0
  -20.5693  -26.2281   23.3607 H   0  0  0  0  0  0
  -21.6625  -26.7466   22.1195 H   0  0  0  0  0  0
  -19.6919  -25.6292   21.1251 H   0  0  0  0  0  0
  -19.6695  -27.3193   20.6752 H   0  0  0  0  0  0
  -17.4189  -26.6694   21.4016 H   0  0  0  0  0  0
  -18.0306  -26.0059   22.9015 H   0  0  0  0  0  0
  -19.7931  -30.7272   24.2253 H   0  0  0  0  0  0
  -17.5012  -31.6269   24.5164 H   0  0  0  0  0  0
  -15.5347  -30.2979   23.7676 H   0  0  0  0  0  0
  -15.8661  -28.0828   22.7071 H   0  0  0  0  0  0
  -24.5883  -30.7026   25.7813 H   0  0  0  0  0  0
  -24.8756  -32.2903   26.4784 H   0  0  0  0  0  0
  -25.7948  -30.9037   27.0297 H   0  0  0  0  0  0
  -26.2881  -29.6744   24.1194 H   0  0  0  0  0  0
  -27.3962  -29.7264   25.4711 H   0  0  0  0  0  0
  -27.8746  -30.4277   23.9414 H   0  0  0  0  0  0
  -27.2695  -33.3678   26.1984 H   0  0  0  0  0  0
  -28.3879  -32.6757   25.0331 H   0  0  0  0  0  0
  -28.0618  -31.8464   26.5488 H   0  0  0  0  0  0
  -28.2576  -38.0095   24.7518 H   0  0  0  0  0  0
  -28.1068  -36.2622   24.6273 H   0  0  0  0  0  0
  -27.2284  -37.1409   25.8868 H   0  0  0  0  0  0
  -20.9341  -29.8786   21.6937 H   0  0  0  0  0  0
  -26.0165  -38.2846   24.1422 H   0  0  0  0  0  0
  -27.1837  -19.4195   19.0673 H   0  0  0  0  0  0
  -27.7038  -17.0470   18.9716 H   0  0  0  0  0  0
  -31.2204  -17.6961   21.3663 H   0  0  0  0  0  0
  -28.0669  -24.0700   18.1274 H   0  0  0  0  0  0
  -29.6484  -23.7940   18.8539 H   0  0  0  0  0  0
  -29.1470  -21.5846   18.0526 H   0  0  0  0  0  0
  -27.4280  -21.7520   18.4021 H   0  0  0  0  0  0
  -27.9050  -22.3053   21.9204 H   0  0  0  0  0  0
  -29.5636  -22.7005   21.4893 H   0  0  0  0  0  0
  -26.9700  -23.7676   20.2435 H   0  0  0  0  0  0
  -29.0888  -15.4000   17.8146 H   0  0  0  0  0  0
  -30.8185  -15.0443   17.9112 H   0  0  0  0  0  0
  -30.2833  -16.6911   17.8611 H   0  0  0  0  0  0
  -29.4157  -25.2271   21.2803 H   0  0  0  0  0  0
  -27.7840  -25.4239   21.8030 H   0  0  0  0  0  0
  1 25  1  0  0  0
  1 30  2  0  0  0
  1 84  1  0  0  0
  2  3  1  0  0  0
  2 25  1  0  0  0
  2 86  1  0  0  0
  2 87  1  0  0  0
  3  4  1  0  0  0
  3 88  1  0  0  0
  3 89  1  0  0  0
  4  5  1  0  0  0
  4 90  1  0  0  0
  4 91  1  0  0  0
  5  6  1  0  0  0
  5 26  1  0  0  0
  5 92  1  0  0  0
  6 25  1  0  0  0
  6 93  1  0  0  0
  6 94  1  0  0  0
  7  8  2  0  0  0
  7 26  1  0  0  0
  7 29  1  0  0  0
  8  9  1  0  0  0
  8 22  1  0  0  0
  9 10  1  0  0  0
  9 27  2  0  0  0
 10 11  2  0  0  0
 10 15  1  0  0  0
 11 12  1  0  0  0
 11 95  1  0  0  0
 12 13  2  0  0  0
 12 96  1  0  0  0
 13 14  1  0  0  0
 13 31  1  0  0  0
 14 15  2  0  0  0
 14 97  1  0  0  0
 15 98  1  0  0  0
 16 17  2  0  0  0
 16 21  1  0  0  0
 16 31  1  0  0  0
 17 18  1  0  0  0
 17 99  1  0  0  0
 18 19  2  0  0  0
 18100  1  0  0  0
 19 20  1  0  0  0
 19 24  1  0  0  0
 20 21  2  0  0  0
 20101  1  0  0  0
 21 23  1  0  0  0
 22 28  1  0  0  0
 22 32  2  0  0  0
 26 27  1  0  0  0
 28102  1  0  0  0
 28103  1  0  0  0
 29104  1  0  0  0
 29105  1  0  0  0
 33 34  1  0  0  0
 33 66  1  0  0  0
 33 70  2  0  0  0
 34 36  1  0  0  0
 34 59  1  0  0  0
 34106  1  0  0  0
 35 44  2  0  0  0
 35 45  1  0  0  0
 35 68  1  0  0  0
 36 56  1  0  0  0
 36107  1  0  0  0
 37 39  1  0  0  0
 37 47  1  0  0  0
 37 66  1  0  0  0
 37108  1  0  0  0
 38 43  2  0  0  0
 38 46  1  0  0  0
 38 47  1  0  0  0
 39 64  1  0  0  0
 39 67  2  0  0  0
 40 52  1  0  0  0
 40 53  2  0  0  0
 40 58  1  0  0  0
 41109  1  0  0  0
 41110  1  0  0  0
 41111  1  0  0  0
 41 48  1  0  0  0
 42 43  1  0  0  0
 42 66  1  0  0  0
 42112  1  0  0  0
 42113  1  0  0  0
 43 44  1  0  0  0
 44114  1  0  0  0
 45 46  2  0  0  0
 45115  1  0  0  0
 46116  1  0  0  0
 47117  1  0  0  0
 47118  1  0  0  0
 48 56  1  0  0  0
 48 65  1  0  0  0
 48119  1  0  0  0
 49 50  1  0  0  0
 49 53  1  0  0  0
 49 64  1  0  0  0
 49120  1  0  0  0
 50 51  1  0  0  0
 50121  1  0  0  0
 50122  1  0  0  0
 51 52  1  0  0  0
 51123  1  0  0  0
 51124  1  0  0  0
 52125  1  0  0  0
 52126  1  0  0  0
 53 54  1  0  0  0
 54 55  2  0  0  0
 54127  1  0  0  0
 55 57  1  0  0  0
 55128  1  0  0  0
 56 69  2  0  0  0
 57 58  2  0  0  0
 57129  1  0  0  0
 58130  1  0  0  0
 59 60  1  0  0  0
 59 61  1  0  0  0
 59 62  1  0  0  0
 60131  1  0  0  0
 60132  1  0  0  0
 60133  1  0  0  0
 61134  1  0  0  0
 61135  1  0  0  0
 61136  1  0  0  0
 62137  1  0  0  0
 62138  1  0  0  0
 62139  1  0  0  0
 63 65  1  0  0  0
 63140  1  0  0  0
 63141  1  0  0  0
 63142  1  0  0  0
 64143  1  0  0  0
 65144  1  0  0  0
 68 82  1  0  0  0
 71 72  2  0  0  0
 71 74  1  0  0  0
 71145  1  0  0  0
 72 75  1  0  0  0
 72146  1  0  0  0
 73 75  2  0  0  0
 73 76  1  0  0  0
 73147  1  0  0  0
 74 76  2  0  0  0
 74 83  1  0  0  0
 75 84  1  0  0  0
 76 85  1  0  0  0
 77 78  1  0  0  0
 77 80  1  0  0  0
 77148  1  0  0  0
 77149  1  0  0  0
 78 83  1  0  0  0
 78150  1  0  0  0
 78151  1  0  0  0
 79 80  1  0  0  0
 79 83  1  0  0  0
 79152  1  0  0  0
 79153  1  0  0  0
 80 82  1  0  0  0
 80154  1  0  0  0
 81 84  1  0  0  0
 81155  1  0  0  0
 81156  1  0  0  0
 81157  1  0  0  0
 82158  1  0  0  0
 82159  1  0  0  0
M  ISO  4   1 100  68 101  82 101  84 100
M  END
> <chiral flag>
0

> <version>
0

> <s_m_source_file>
/data/baiqing/PycharmProjects/Reinvent-master-3.2/result/LINK_invent/BTK/process_docking_weight1_custom_product_contain_oxygen_bond_distance_aromatic_linkinvent_7_9_3/rearranged_h_0019.sdf

> <i_m_source_file_index>
86

> <r_mmod_Potential_Energy-OPLS-2005>
493.549743652344

> <r_mmod_Stretch_Energy-OPLS-2005>
85.6815567016602

> <r_mmod_Bend_Energy-OPLS-2005>
218.434967041016

> <r_mmod_Torsional_Energy-OPLS-2005>
416.941772460938

> <r_mmod_Improper_Torsional_Energy-OPLS-2005>
31.4020767211914

> <r_mmod_Van_der_Waal_Energy-OPLS-2005>
131.718246459961

> <r_mmod_Electrostatic_Energy-OPLS-2005>
-264.653167724609

> <r_mmod_Solvation_Energy-OPLS-2005>
-204.336273193359

> <b_mmod_Minimization_Converged-OPLS-2005>
0

> <r_mmod_RMS_Derivative-OPLS-2005>
2.39919805526733

$$$$
86
                    3D
 Structure written by MMmdl.
152160  0  0  1  0            999 V2000
  -30.6018  -14.6280   20.5004 C   0  0  0  0  0  0
  -30.4413  -12.3824   19.4466 C   0  0  0  0  0  0
  -29.5103  -12.5071   18.2194 C   0  0  0  0  0  0
  -28.0294  -12.3483   18.6265 C   0  0  0  0  0  0
  -27.6523  -13.2114   19.8599 C   0  0  2  0  0  0
  -28.6958  -13.0450   20.9869 C   0  0  0  0  0  0
  -25.2550  -13.8146   20.5651 C   0  0  0  0  0  0
  -24.1813  -13.0427   20.9193 C   0  0  0  0  0  0
  -24.6376  -11.6902   20.8746 C   0  0  0  0  0  0
  -23.9044  -10.4293   21.0414 C   0  0  0  0  0  0
  -24.3596   -9.4209   21.9184 C   0  0  0  0  0  0
  -23.6282   -8.2236   22.0763 C   0  0  0  0  0  0
  -22.4257   -8.0276   21.3548 C   0  0  0  0  0  0
  -21.9887   -9.0249   20.4652 C   0  0  0  0  0  0
  -22.7216  -10.2117   20.3069 C   0  0  0  0  0  0
  -21.6841   -6.0732   22.5271 C   0  0  0  0  0  0
  -21.4012   -6.5635   23.8208 C   0  0  0  0  0  0
  -21.3673   -5.6783   24.9169 C   0  0  0  0  0  0
  -21.6042   -4.3049   24.7218 C   0  0  0  0  0  0
  -21.8822   -3.8145   23.4342 C   0  0  0  0  0  0
  -21.9186   -4.6961   22.3397 C   0  0  0  0  0  0
  -22.7840  -13.5229   21.1842 C   0  0  0  0  0  0
  -22.1657   -4.2162   21.0978 F   0  0  0  0  0  0
  -21.5630   -3.4529   25.7731 F   0  0  0  0  0  0
  -30.0123  -13.3949   20.4296 N   0  0  0  0  0  0
  -26.2967  -12.9325   20.3268 N   0  0  0  0  0  0
  -25.9299  -11.6479   20.5703 N   0  0  0  0  0  0
  -22.0467  -12.8270   22.0418 N   0  0  0  0  0  0
  -25.4226  -15.1871   20.4036 N   0  0  0  0  0  0
  -31.7684  -14.8071   20.1360 O   0  0  0  0  0  0
  -21.6636   -6.8859   21.4230 O   0  0  0  0  0  0
  -22.3526  -14.5523   20.6658 O   0  0  0  0  0  0
  -24.6241  -31.8624   23.2048 C   0  0  0  0  0  0
  -25.9103  -32.4792   23.8371 C   0  0  1  0  0  0
  -27.2218  -27.3337   20.1190 C   0  0  0  0  0  0
  -25.5930  -33.8599   24.2288 N   0  0  0  0  0  0
  -23.4163  -30.4870   21.5457 C   0  0  2  0  0  0
  -24.8638  -28.9482   20.1086 C   0  0  0  0  0  0
  -22.7471  -29.4627   22.4933 C   0  0  0  0  0  0
  -18.0287  -28.1373   22.8480 C   0  0  0  0  0  0
  -24.1487  -36.7308   23.2634 C   0  0  0  0  0  0
  -25.9570  -30.7970   21.3748 C   0  0  0  0  0  0
  -26.0319  -29.4269   20.7163 C   0  0  0  0  0  0
  -27.2141  -28.6309   20.7127 C   0  0  0  0  0  0
  -26.0324  -26.9104   19.4805 C   0  0  0  0  0  0
  -24.8660  -27.6952   19.4816 C   0  0  0  0  0  0
  -23.6312  -29.8250   20.1591 C   0  0  0  0  0  0
  -25.4106  -36.3092   24.0324 C   0  0  1  0  0  0
  -20.5889  -28.3677   23.1275 C   0  0  2  0  0  0
  -20.6780  -26.9401   22.5406 C   0  0  0  0  0  0
  -19.5755  -26.6369   21.5204 C   0  0  0  0  0  0
  -18.1935  -26.7913   22.1618 C   0  0  0  0  0  0
  -19.1547  -28.8841   23.2870 C   0  0  0  0  0  0
  -18.9470  -30.1446   23.8891 C   0  0  0  0  0  0
  -17.6472  -30.6571   24.0559 C   0  0  0  0  0  0
  -25.9045  -34.9461   23.5095 C   0  0  0  0  0  0
  -16.5357  -29.9073   23.6327 C   0  0  0  0  0  0
  -16.7276  -28.6490   23.0339 C   0  0  0  0  0  0
  -26.4488  -31.6602   25.0734 C   0  0  0  0  0  0
  -25.3733  -31.3757   26.1474 C   0  0  0  0  0  0
  -27.0329  -30.3027   24.6180 C   0  0  0  0  0  0
  -27.6038  -32.4343   25.7517 C   0  0  0  0  0  0
  -27.5576  -37.1802   24.8451 C   0  0  0  0  0  0
  -21.4188  -29.3035   22.3684 N   0  0  0  0  0  0
  -26.4286  -37.3792   23.9412 N   0  0  0  0  0  0
  -24.6842  -31.0649   22.0980 N   0  0  0  0  0  0
  -23.4206  -28.8155   23.2995 O   0  0  0  0  0  0
  -28.3360  -26.4825   20.1794 O   0  0  0  0  0  0
  -26.5606  -34.8922   22.4654 O   0  0  0  0  0  0
  -23.5407  -32.1409   23.7380 O   0  0  0  0  0  0
  -28.6422  -17.8780   20.8537 C   0  0  0  0  0  0
  -28.6291  -19.3047   20.7973 C   0  0  0  0  0  0
  -31.0202  -17.8562   20.4855 C   0  0  0  0  0  0
  -29.8317  -17.1112   20.7041 C   0  0  0  0  0  0
  -29.8230  -20.0445   20.6105 C   0  0  0  0  0  0
  -31.0122  -19.2821   20.4485 C   0  0  0  0  0  0
  -29.2099  -23.9861   20.4602 C   0  0  0  0  0  0
  -28.8048  -22.4462   20.3950 C   0  0  0  0  0  0
  -28.0723  -25.0304   20.1140 C   0  0  0  0  0  0
  -29.7491  -15.6566   20.8134 N   0  0  0  0  0  0
  -29.9131  -21.4753   20.6050 N   0  0  0  0  0  0
  -32.1817  -19.9392   20.2553 F   0  0  0  0  0  0
  -31.4847  -12.5116   19.1519 H   0  0  0  0  0  0
  -30.3770  -11.3838   19.8824 H   0  0  0  0  0  0
  -29.7748  -11.7620   17.4683 H   0  0  0  0  0  0
  -29.6548  -13.4802   17.7465 H   0  0  0  0  0  0
  -27.8598  -11.2943   18.8508 H   0  0  0  0  0  0
  -27.3795  -12.5876   17.7844 H   0  0  0  0  0  0
  -27.6760  -14.2485   19.5268 H   0  0  0  0  0  0
  -28.7036  -12.0175   21.3524 H   0  0  0  0  0  0
  -28.4474  -13.6578   21.8542 H   0  0  0  0  0  0
  -25.2750   -9.5689   22.4740 H   0  0  0  0  0  0
  -24.0015   -7.4622   22.7477 H   0  0  0  0  0  0
  -21.0818   -8.8760   19.8956 H   0  0  0  0  0  0
  -22.3685  -10.9653   19.6181 H   0  0  0  0  0  0
  -21.2015   -7.6145   23.9726 H   0  0  0  0  0  0
  -21.1488   -6.0502   25.9066 H   0  0  0  0  0  0
  -22.0594   -2.7614   23.2817 H   0  0  0  0  0  0
  -22.4056  -11.9964   22.4877 H   0  0  0  0  0  0
  -21.1076  -13.1313   22.2570 H   0  0  0  0  0  0
  -24.6406  -15.8272   20.4965 H   0  0  0  0  0  0
  -26.2412  -15.6221   20.0000 H   0  0  0  0  0  0
  -26.7161  -32.5475   23.1116 H   0  0  0  0  0  0
  -25.0114  -33.9739   25.0458 H   0  0  0  0  0  0
  -22.7076  -31.3062   21.4061 H   0  0  0  0  0  0
  -23.3743  -35.9643   23.3296 H   0  0  0  0  0  0
  -24.3581  -36.8939   22.2049 H   0  0  0  0  0  0
  -23.7241  -37.6505   23.6670 H   0  0  0  0  0  0
  -26.0879  -31.5582   20.6049 H   0  0  0  0  0  0
  -26.8367  -30.8475   22.0041 H   0  0  0  0  0  0
  -28.1080  -28.9901   21.2034 H   0  0  0  0  0  0
  -25.9677  -25.9564   18.9812 H   0  0  0  0  0  0
  -23.9732  -27.3225   18.9987 H   0  0  0  0  0  0
  -23.7503  -30.6020   19.4030 H   0  0  0  0  0  0
  -22.7525  -29.2526   19.8559 H   0  0  0  0  0  0
  -25.1284  -36.1951   25.0812 H   0  0  0  0  0  0
  -20.9977  -28.3257   24.1394 H   0  0  0  0  0  0
  -20.5683  -26.2284   23.3605 H   0  0  0  0  0  0
  -21.6650  -26.7440   22.1208 H   0  0  0  0  0  0
  -19.6920  -25.6280   21.1230 H   0  0  0  0  0  0
  -19.6686  -27.3176   20.6733 H   0  0  0  0  0  0
  -17.4205  -26.6658   21.4020 H   0  0  0  0  0  0
  -18.0344  -26.0063   22.9024 H   0  0  0  0  0  0
  -19.7943  -30.7267   24.2255 H   0  0  0  0  0  0
  -17.5021  -31.6248   24.5160 H   0  0  0  0  0  0
  -15.5363  -30.2965   23.7655 H   0  0  0  0  0  0
  -15.8672  -28.0806   22.7047 H   0  0  0  0  0  0
  -24.5868  -30.7145   25.7810 H   0  0  0  0  0  0
  -24.8972  -32.2945   26.4915 H   0  0  0  0  0  0
  -25.8055  -30.8916   27.0238 H   0  0  0  0  0  0
  -26.2896  -29.6792   24.1190 H   0  0  0  0  0  0
  -27.4021  -29.7272   25.4675 H   0  0  0  0  0  0
  -27.8774  -30.4320   23.9407 H   0  0  0  0  0  0
  -27.2615  -33.3620   26.2114 H   0  0  0  0  0  0
  -28.3837  -32.6943   25.0351 H   0  0  0  0  0  0
  -28.0721  -31.8475   26.5423 H   0  0  0  0  0  0
  -28.2580  -38.0117   24.7520 H   0  0  0  0  0  0
  -28.1090  -36.2646   24.6249 H   0  0  0  0  0  0
  -27.2306  -37.1422   25.8858 H   0  0  0  0  0  0
  -20.9364  -29.8796   21.6931 H   0  0  0  0  0  0
  -26.0166  -38.2862   24.1421 H   0  0  0  0  0  0
  -27.7023  -17.3732   21.0245 H   0  0  0  0  0  0
  -27.6878  -19.8196   20.9273 H   0  0  0  0  0  0
  -31.9642  -17.3518   20.3579 H   0  0  0  0  0  0
  -30.0426  -24.1605   19.7784 H   0  0  0  0  0  0
  -29.5919  -24.2139   21.4565 H   0  0  0  0  0  0
  -28.3618  -22.2396   19.4191 H   0  0  0  0  0  0
  -28.0251  -22.2487   21.1314 H   0  0  0  0  0  0
  -27.2313  -24.8141   20.7764 H   0  0  0  0  0  0
  -27.7457  -24.7895   19.1030 H   0  0  0  0  0  0
  -28.8349  -15.3146   21.0642 H   0  0  0  0  0  0
  -30.8602  -21.8344   20.5057 H   0  0  0  0  0  0
  1 25  1  0  0  0
  1 30  2  0  0  0
  1 80  1  0  0  0
  2  3  1  0  0  0
  2 25  1  0  0  0
  2 83  1  0  0  0
  2 84  1  0  0  0
  3  4  1  0  0  0
  3 85  1  0  0  0
  3 86  1  0  0  0
  4  5  1  0  0  0
  4 87  1  0  0  0
  4 88  1  0  0  0
  5  6  1  0  0  0
  5 26  1  0  0  0
  5 89  1  0  0  0
  6 25  1  0  0  0
  6 90  1  0  0  0
  6 91  1  0  0  0
  7  8  2  0  0  0
  7 26  1  0  0  0
  7 29  1  0  0  0
  8  9  1  0  0  0
  8 22  1  0  0  0
  9 10  1  0  0  0
  9 27  2  0  0  0
 10 11  2  0  0  0
 10 15  1  0  0  0
 11 12  1  0  0  0
 11 92  1  0  0  0
 12 13  2  0  0  0
 12 93  1  0  0  0
 13 14  1  0  0  0
 13 31  1  0  0  0
 14 15  2  0  0  0
 14 94  1  0  0  0
 15 95  1  0  0  0
 16 17  2  0  0  0
 16 21  1  0  0  0
 16 31  1  0  0  0
 17 18  1  0  0  0
 17 96  1  0  0  0
 18 19  2  0  0  0
 18 97  1  0  0  0
 19 20  1  0  0  0
 19 24  1  0  0  0
 20 21  2  0  0  0
 20 98  1  0  0  0
 21 23  1  0  0  0
 22 28  1  0  0  0
 22 32  2  0  0  0
 26 27  1  0  0  0
 28 99  1  0  0  0
 28100  1  0  0  0
 29101  1  0  0  0
 29102  1  0  0  0
 33 34  1  0  0  0
 33 66  1  0  0  0
 33 70  2  0  0  0
 34 36  1  0  0  0
 34 59  1  0  0  0
 34103  1  0  0  0
 35 44  2  0  0  0
 35 45  1  0  0  0
 35 68  1  0  0  0
 36 56  1  0  0  0
 36104  1  0  0  0
 37 39  1  0  0  0
 37 47  1  0  0  0
 37 66  1  0  0  0
 37105  1  0  0  0
 38 43  2  0  0  0
 38 46  1  0  0  0
 38 47  1  0  0  0
 39 64  1  0  0  0
 39 67  2  0  0  0
 40 52  1  0  0  0
 40 53  2  0  0  0
 40 58  1  0  0  0
 41106  1  0  0  0
 41107  1  0  0  0
 41108  1  0  0  0
 41 48  1  0  0  0
 42 43  1  0  0  0
 42 66  1  0  0  0
 42109  1  0  0  0
 42110  1  0  0  0
 43 44  1  0  0  0
 44111  1  0  0  0
 45 46  2  0  0  0
 45112  1  0  0  0
 46113  1  0  0  0
 47114  1  0  0  0
 47115  1  0  0  0
 48 56  1  0  0  0
 48 65  1  0  0  0
 48116  1  0  0  0
 49 50  1  0  0  0
 49 53  1  0  0  0
 49 64  1  0  0  0
 49117  1  0  0  0
 50 51  1  0  0  0
 50118  1  0  0  0
 50119  1  0  0  0
 51 52  1  0  0  0
 51120  1  0  0  0
 51121  1  0  0  0
 52122  1  0  0  0
 52123  1  0  0  0
 53 54  1  0  0  0
 54 55  2  0  0  0
 54124  1  0  0  0
 55 57  1  0  0  0
 55125  1  0  0  0
 56 69  2  0  0  0
 57 58  2  0  0  0
 57126  1  0  0  0
 58127  1  0  0  0
 59 60  1  0  0  0
 59 61  1  0  0  0
 59 62  1  0  0  0
 60128  1  0  0  0
 60129  1  0  0  0
 60130  1  0  0  0
 61131  1  0  0  0
 61132  1  0  0  0
 61133  1  0  0  0
 62134  1  0  0  0
 62135  1  0  0  0
 62136  1  0  0  0
 63 65  1  0  0  0
 63137  1  0  0  0
 63138  1  0  0  0
 63139  1  0  0  0
 64140  1  0  0  0
 65141  1  0  0  0
 68 79  1  0  0  0
 71 72  2  0  0  0
 71 74  1  0  0  0
 71142  1  0  0  0
 72 75  1  0  0  0
 72143  1  0  0  0
 73 74  2  0  0  0
 73 76  1  0  0  0
 73144  1  0  0  0
 74 80  1  0  0  0
 75 76  2  0  0  0
 75 81  1  0  0  0
 76 82  1  0  0  0
 77 78  1  0  0  0
 77 79  1  0  0  0
 77145  1  0  0  0
 77146  1  0  0  0
 78 81  1  0  0  0
 78147  1  0  0  0
 78148  1  0  0  0
 79149  1  0  0  0
 79150  1  0  0  0
 80151  1  0  0  0
 81152  1  0  0  0
M  ISO  4   1 100  68 101  79 101  80 100
M  END
> <chiral flag>
0

> <version>
0

> <s_m_source_file>
/data/baiqing/PycharmProjects/Reinvent-master-3.2/result/LINK_invent/BTK/process_docking_weight1_custom_product_contain_oxygen_bond_distance_aromatic_linkinvent_7_9_3/rearranged_h_0019.sdf

> <i_m_source_file_index>
87

> <r_mmod_Potential_Energy-OPLS-2005>
58.7932014465332

> <r_mmod_Stretch_Energy-OPLS-2005>
70.3346176147461

> <r_mmod_Bend_Energy-OPLS-2005>
142.606964111328

> <r_mmod_Torsional_Energy-OPLS-2005>
202.512619018555

> <r_mmod_Improper_Torsional_Energy-OPLS-2005>
5.64249610900879

> <r_mmod_Van_der_Waal_Energy-OPLS-2005>
146.385101318359

> <r_mmod_Electrostatic_Energy-OPLS-2005>
-340.856323242188

> <r_mmod_Solvation_Energy-OPLS-2005>
-213.716110229492

> <b_mmod_Minimization_Converged-OPLS-2005>
0

> <r_mmod_RMS_Derivative-OPLS-2005>
2.849365234375

$$$$
87
                    3D
 Structure written by MMmdl.
163172  0  0  1  0            999 V2000
  -29.8954  -16.8293   20.2486 C   0  0  0  0  0  0
  -30.2880  -13.9751   19.5503 C   0  0  0  0  0  0
  -29.5819  -13.0526   18.4518 C   0  0  0  0  0  0
  -28.2748  -12.4395   18.9520 C   0  0  0  0  0  0
  -27.5796  -13.4809   19.8376 C   0  0  2  0  0  0
  -28.4928  -14.2752   20.8687 C   0  0  0  0  0  0
  -25.2126  -13.8578   20.5969 C   0  0  0  0  0  0
  -24.1678  -13.0482   20.9343 C   0  0  0  0  0  0
  -24.6624  -11.7080   20.8709 C   0  0  0  0  0  0
  -23.9337  -10.4328   21.0288 C   0  0  0  0  0  0
  -24.3791   -9.4213   21.9098 C   0  0  0  0  0  0
  -23.6394   -8.2285   22.0738 C   0  0  0  0  0  0
  -22.4373   -8.0335   21.3536 C   0  0  0  0  0  0
  -22.0038   -9.0326   20.4639 C   0  0  0  0  0  0
  -22.7450  -10.2160   20.2996 C   0  0  0  0  0  0
  -21.6878   -6.0780   22.5282 C   0  0  0  0  0  0
  -21.4038   -6.5657   23.8222 C   0  0  0  0  0  0
  -21.3659   -5.6794   24.9180 C   0  0  0  0  0  0
  -21.6041   -4.3054   24.7210 C   0  0  0  0  0  0
  -21.8827   -3.8163   23.4324 C   0  0  0  0  0  0
  -21.9213   -4.7004   22.3395 C   0  0  0  0  0  0
  -22.7624  -13.5040   21.1947 C   0  0  0  0  0  0
  -22.1660   -4.2175   21.0966 F   0  0  0  0  0  0
  -21.5631   -3.4550   25.7719 F   0  0  0  0  0  0
  -29.4825  -15.2505   20.1752 N   0  0  0  0  0  0
  -26.2875  -13.0305   20.3587 N   0  0  0  0  0  0
  -25.9664  -11.7162   20.5660 N   0  0  0  0  0  0
  -22.0359  -12.7963   22.0509 N   0  0  0  0  0  0
  -25.3365  -15.2362   20.4424 N   0  0  0  0  0  0
  -31.1281  -16.5435   20.0883 O   0  0  0  0  0  0
  -21.6694   -6.8950   21.4258 O   0  0  0  0  0  0
  -22.3223  -14.5309   20.6791 O   0  0  0  0  0  0
  -24.7656  -31.6940   23.0860 C   0  0  0  0  0  0
  -25.9822  -32.3960   23.7743 C   0  0  1  0  0  0
  -27.2683  -25.8350   20.2849 C   0  0  0  0  0  0
  -25.6014  -33.7837   24.1497 N   0  0  0  0  0  0
  -23.6277  -30.2574   21.4605 C   0  0  2  0  0  0
  -25.1053  -28.4273   20.1492 C   0  0  0  0  0  0
  -22.8116  -29.3735   22.4492 C   0  0  0  0  0  0
  -18.0387  -28.1464   22.8412 C   0  0  0  0  0  0
  -24.1474  -36.6909   23.2681 C   0  0  0  0  0  0
  -26.2345  -30.1310   21.5013 C   0  0  0  0  0  0
  -26.2976  -28.6014   20.8623 C   0  0  0  0  0  0
  -27.3149  -27.3677   20.8924 C   0  0  0  0  0  0
  -26.0863  -26.1457   19.4566 C   0  0  0  0  0  0
  -25.0949  -27.2254   19.4140 C   0  0  0  0  0  0
  -23.9334  -29.4776   20.1352 C   0  0  0  0  0  0
  -25.4159  -36.2577   24.0223 C   0  0  1  0  0  0
  -20.6057  -28.3845   23.0993 C   0  0  2  0  0  0
  -20.6796  -26.9428   22.5439 C   0  0  0  0  0  0
  -19.5788  -26.6315   21.5254 C   0  0  0  0  0  0
  -18.1964  -26.7969   22.1625 C   0  0  0  0  0  0
  -19.1676  -28.9010   23.2645 C   0  0  0  0  0  0
  -18.9578  -30.1579   23.8717 C   0  0  0  0  0  0
  -17.6564  -30.6636   24.0532 C   0  0  0  0  0  0
  -25.9211  -34.9003   23.4775 C   0  0  0  0  0  0
  -16.5446  -29.9099   23.6382 C   0  0  0  0  0  0
  -16.7361  -28.6521   23.0393 C   0  0  0  0  0  0
  -26.4720  -31.6397   25.0738 C   0  0  0  0  0  0
  -25.3527  -31.4027   26.1174 C   0  0  0  0  0  0
  -27.0792  -30.2629   24.7347 C   0  0  0  0  0  0
  -27.5988  -32.4493   25.7591 C   0  0  0  0  0  0
  -27.5522  -37.1599   24.8464 C   0  0  0  0  0  0
  -21.4690  -29.2897   22.3207 N   0  0  0  0  0  0
  -26.4187  -37.3455   23.9455 N   0  0  0  0  0  0
  -24.9099  -30.7501   22.0654 N   0  0  0  0  0  0
  -23.4150  -28.7517   23.3244 O   0  0  0  0  0  0
  -27.9843  -24.1224   20.3185 O   0  0  0  0  0  0
  -26.5976  -34.8732   22.4484 O   0  0  0  0  0  0
  -23.6502  -32.0433   23.5212 O   0  0  0  0  0  0
  -26.8469  -22.8481   19.0249 C   0  0  0  0  0  0
  -28.2239  -21.7029   19.0961 C   0  0  0  0  0  0
  -28.5325  -21.8013   21.5953 C   0  0  0  0  0  0
  -26.0496  -23.4492   20.6109 C   0  0  0  0  0  0
  -28.8320  -20.6269   20.3384 C   0  0  0  0  0  0
  -27.2143  -22.9467   21.9453 C   0  0  0  0  0  0
  -22.7018  -20.3283   20.4942 C   0  0  0  0  0  0
  -24.1752  -19.8928   20.4906 C   0  0  0  0  0  0
  -22.6984  -21.8385   20.8396 C   0  0  0  0  0  0
  -24.8997  -21.2236   20.2802 C   0  0  2  0  0  0
  -29.4809  -18.4651   21.9902 C   0  0  0  0  0  0
  -24.5565  -23.5981   20.8137 C   0  0  0  0  0  0
  -26.4656  -21.3018   20.5982 C   0  0  0  0  0  0
  -29.2644  -18.5544   20.5457 N   0  0  0  0  0  0
  -24.1154  -22.2003   21.0666 N   0  3  1  0  0  0
  -26.9197  -23.4234   23.5779 Cl  0  0  0  0  0  0
  -31.1810  -14.3668   19.0668 H   0  0  0  0  0  0
  -30.6974  -13.3446   20.3423 H   0  0  0  0  0  0
  -30.2558  -12.2648   18.1098 H   0  0  0  0  0  0
  -29.3740  -13.6656   17.5747 H   0  0  0  0  0  0
  -28.4933  -11.5471   19.5446 H   0  0  0  0  0  0
  -27.6412  -12.1271   18.1208 H   0  0  0  0  0  0
  -27.3061  -14.2449   19.1114 H   0  0  0  0  0  0
  -28.9725  -13.5984   21.5793 H   0  0  0  0  0  0
  -27.8542  -14.8989   21.4943 H   0  0  0  0  0  0
  -25.2948   -9.5669   22.4672 H   0  0  0  0  0  0
  -24.0096   -7.4682   22.7453 H   0  0  0  0  0  0
  -21.0976   -8.8906   19.8928 H   0  0  0  0  0  0
  -22.3930  -10.9722   19.6112 H   0  0  0  0  0  0
  -21.2023   -7.6167   23.9735 H   0  0  0  0  0  0
  -21.1461   -6.0516   25.9077 H   0  0  0  0  0  0
  -22.0594   -2.7634   23.2829 H   0  0  0  0  0  0
  -22.4118  -11.9709   22.4939 H   0  0  0  0  0  0
  -21.0928  -13.0872   22.2688 H   0  0  0  0  0  0
  -24.5432  -15.8580   20.5562 H   0  0  0  0  0  0
  -26.1760  -15.7099   20.1309 H   0  0  0  0  0  0
  -26.8038  -32.4294   23.0573 H   0  0  0  0  0  0
  -24.9878  -33.8784   24.9446 H   0  0  0  0  0  0
  -22.9978  -31.1099   21.1966 H   0  0  0  0  0  0
  -23.3790  -35.9174   23.3168 H   0  0  0  0  0  0
  -24.3502  -36.8800   22.2128 H   0  0  0  0  0  0
  -23.7173  -37.5976   23.6949 H   0  0  0  0  0  0
  -26.5421  -30.8027   20.6998 H   0  0  0  0  0  0
  -27.0456  -30.2115   22.2062 H   0  0  0  0  0  0
  -28.1699  -27.5390   21.5351 H   0  0  0  0  0  0
  -25.8180  -25.3445   18.7849 H   0  0  0  0  0  0
  -24.2464  -27.0635   18.7637 H   0  0  0  0  0  0
  -24.1662  -30.2089   19.3600 H   0  0  0  0  0  0
  -23.0250  -28.9802   19.7912 H   0  0  0  0  0  0
  -25.1407  -36.1197   25.0696 H   0  0  0  0  0  0
  -21.0088  -28.3555   24.1150 H   0  0  0  0  0  0
  -20.5583  -26.2530   23.3790 H   0  0  0  0  0  0
  -21.6650  -26.7234   22.1339 H   0  0  0  0  0  0
  -19.6941  -25.6171   21.1424 H   0  0  0  0  0  0
  -19.6774  -27.3007   20.6689 H   0  0  0  0  0  0
  -17.4255  -26.6720   21.4010 H   0  0  0  0  0  0
  -18.0303  -26.0155   22.9051 H   0  0  0  0  0  0
  -19.8071  -30.7419   24.1989 H   0  0  0  0  0  0
  -17.5134  -31.6302   24.5171 H   0  0  0  0  0  0
  -15.5440  -30.2973   23.7803 H   0  0  0  0  0  0
  -15.8742  -28.0798   22.7203 H   0  0  0  0  0  0
  -24.5716  -30.7402   25.7445 H   0  0  0  0  0  0
  -24.8725  -32.3358   26.4134 H   0  0  0  0  0  0
  -25.7423  -30.9463   27.0279 H   0  0  0  0  0  0
  -26.3627  -29.5871   24.2677 H   0  0  0  0  0  0
  -27.4125  -29.7602   25.6444 H   0  0  0  0  0  0
  -27.9648  -30.3528   24.1053 H   0  0  0  0  0  0
  -27.2377  -33.3928   26.1711 H   0  0  0  0  0  0
  -28.3995  -32.6868   25.0571 H   0  0  0  0  0  0
  -28.0443  -31.8983   26.5893 H   0  0  0  0  0  0
  -28.2441  -37.9985   24.7539 H   0  0  0  0  0  0
  -28.1109  -36.2507   24.6222 H   0  0  0  0  0  0
  -27.2257  -37.1107   25.8863 H   0  0  0  0  0  0
  -21.0182  -29.8414   21.6034 H   0  0  0  0  0  0
  -25.9924  -38.2441   24.1538 H   0  0  0  0  0  0
  -26.3849  -23.0651   18.0716 H   0  0  0  0  0  0
  -28.4363  -21.3224   18.1044 H   0  0  0  0  0  0
  -29.0298  -21.5365   22.5142 H   0  0  0  0  0  0
  -22.1220  -19.7319   21.1983 H   0  0  0  0  0  0
  -22.2621  -20.1745   19.5078 H   0  0  0  0  0  0
  -24.3937  -19.1646   19.7087 H   0  0  0  0  0  0
  -24.4470  -19.4431   21.4463 H   0  0  0  0  0  0
  -22.0828  -22.0653   21.7095 H   0  0  0  0  0  0
  -22.2927  -22.3970   19.9979 H   0  0  0  0  0  0
  -24.7426  -21.4590   19.2224 H   0  0  0  0  0  0
  -29.2255  -19.3826   22.5086 H   0  0  0  0  0  0
  -30.5366  -18.2865   22.2182 H   0  0  0  0  0  0
  -28.8819  -17.6753   22.4501 H   0  0  0  0  0  0
  -24.0945  -24.0045   19.9156 H   0  0  0  0  0  0
  -24.3319  -24.2519   21.6614 H   0  0  0  0  0  0
  -26.5913  -20.4283   19.9429 H   0  0  0  0  0  0
  -26.4497  -20.7831   21.5746 H   0  0  0  0  0  0
  -24.2910  -22.0085   22.0439 H   0  0  0  0  0  0
  1 25  1  0  0  0
  1 30  2  0  0  0
  1 84  1  0  0  0
  2  3  1  0  0  0
  2 25  1  0  0  0
  2 87  1  0  0  0
  2 88  1  0  0  0
  3  4  1  0  0  0
  3 89  1  0  0  0
  3 90  1  0  0  0
  4  5  1  0  0  0
  4 91  1  0  0  0
  4 92  1  0  0  0
  5  6  1  0  0  0
  5 26  1  0  0  0
  5 93  1  0  0  0
  6 25  1  0  0  0
  6 94  1  0  0  0
  6 95  1  0  0  0
  7  8  2  0  0  0
  7 26  1  0  0  0
  7 29  1  0  0  0
  8  9  1  0  0  0
  8 22  1  0  0  0
  9 10  1  0  0  0
  9 27  2  0  0  0
 10 11  2  0  0  0
 10 15  1  0  0  0
 11 12  1  0  0  0
 11 96  1  0  0  0
 12 13  2  0  0  0
 12 97  1  0  0  0
 13 14  1  0  0  0
 13 31  1  0  0  0
 14 15  2  0  0  0
 14 98  1  0  0  0
 15 99  1  0  0  0
 16 17  2  0  0  0
 16 21  1  0  0  0
 16 31  1  0  0  0
 17 18  1  0  0  0
 17100  1  0  0  0
 18 19  2  0  0  0
 18101  1  0  0  0
 19 20  1  0  0  0
 19 24  1  0  0  0
 20 21  2  0  0  0
 20102  1  0  0  0
 21 23  1  0  0  0
 22 28  1  0  0  0
 22 32  2  0  0  0
 26 27  1  0  0  0
 28103  1  0  0  0
 28104  1  0  0  0
 29105  1  0  0  0
 29106  1  0  0  0
 33 34  1  0  0  0
 33 66  1  0  0  0
 33 70  2  0  0  0
 34 36  1  0  0  0
 34 59  1  0  0  0
 34107  1  0  0  0
 35 44  2  0  0  0
 35 45  1  0  0  0
 35 68  1  0  0  0
 36 56  1  0  0  0
 36108  1  0  0  0
 37 39  1  0  0  0
 37 47  1  0  0  0
 37 66  1  0  0  0
 37109  1  0  0  0
 38 43  2  0  0  0
 38 46  1  0  0  0
 38 47  1  0  0  0
 39 64  1  0  0  0
 39 67  2  0  0  0
 40 52  1  0  0  0
 40 53  2  0  0  0
 40 58  1  0  0  0
 41110  1  0  0  0
 41111  1  0  0  0
 41112  1  0  0  0
 41 48  1  0  0  0
 42 43  1  0  0  0
 42 66  1  0  0  0
 42113  1  0  0  0
 42114  1  0  0  0
 43 44  1  0  0  0
 44115  1  0  0  0
 45 46  2  0  0  0
 45116  1  0  0  0
 46117  1  0  0  0
 47118  1  0  0  0
 47119  1  0  0  0
 48 56  1  0  0  0
 48 65  1  0  0  0
 48120  1  0  0  0
 49 50  1  0  0  0
 49 53  1  0  0  0
 49 64  1  0  0  0
 49121  1  0  0  0
 50 51  1  0  0  0
 50122  1  0  0  0
 50123  1  0  0  0
 51 52  1  0  0  0
 51124  1  0  0  0
 51125  1  0  0  0
 52126  1  0  0  0
 52127  1  0  0  0
 53 54  1  0  0  0
 54 55  2  0  0  0
 54128  1  0  0  0
 55 57  1  0  0  0
 55129  1  0  0  0
 56 69  2  0  0  0
 57 58  2  0  0  0
 57130  1  0  0  0
 58131  1  0  0  0
 59 60  1  0  0  0
 59 61  1  0  0  0
 59 62  1  0  0  0
 60132  1  0  0  0
 60133  1  0  0  0
 60134  1  0  0  0
 61135  1  0  0  0
 61136  1  0  0  0
 61137  1  0  0  0
 62138  1  0  0  0
 62139  1  0  0  0
 62140  1  0  0  0
 63 65  1  0  0  0
 63141  1  0  0  0
 63142  1  0  0  0
 63143  1  0  0  0
 64144  1  0  0  0
 65145  1  0  0  0
 68 83  1  0  0  0
 71 72  2  0  0  0
 71 74  1  0  0  0
 71146  1  0  0  0
 72 75  1  0  0  0
 72147  1  0  0  0
 73 75  2  0  0  0
 73 76  1  0  0  0
 73148  1  0  0  0
 74 76  2  0  0  0
 74 82  1  0  0  0
 75 84  1  0  0  0
 76 86  1  0  0  0
 77 78  1  0  0  0
 77 79  1  0  0  0
 77149  1  0  0  0
 77150  1  0  0  0
 78 80  1  0  0  0
 78151  1  0  0  0
 78152  1  0  0  0
 79 85  1  0  0  0
 79153  1  0  0  0
 79154  1  0  0  0
 80 83  1  0  0  0
 80 85  1  0  0  0
 80155  1  0  0  0
 81 84  1  0  0  0
 81156  1  0  0  0
 81157  1  0  0  0
 81158  1  0  0  0
 82159  1  0  0  0
 82160  1  0  0  0
 82 85  1  0  0  0
 83161  1  0  0  0
 83162  1  0  0  0
 85163  1  0  0  0
M  CHG  1  85   1
M  ISO  4   1 100  68 101  83 101  84 100
M  END
> <chiral flag>
0

> <version>
0

> <s_m_source_file>
/data/baiqing/PycharmProjects/Reinvent-master-3.2/result/LINK_invent/BTK/process_docking_weight1_custom_product_contain_oxygen_bond_distance_aromatic_linkinvent_7_9_3/rearranged_h_0019.sdf

> <i_m_source_file_index>
88

> <r_mmod_Potential_Energy-OPLS-2005>
15529.919921875

> <r_mmod_Stretch_Energy-OPLS-2005>
8645.6953125

> <r_mmod_Bend_Energy-OPLS-2005>
1177.70947265625

> <r_mmod_Torsional_Energy-OPLS-2005>
533.397338867188

> <r_mmod_Improper_Torsional_Energy-OPLS-2005>
24.7106704711914

> <r_mmod_Van_der_Waal_Energy-OPLS-2005>
2078.521484375

> <r_mmod_Electrostatic_Energy-OPLS-2005>
-156.662139892578

> <r_mmod_Solvation_Energy-OPLS-2005>
-444.004760742188

> <b_mmod_Minimization_Converged-OPLS-2005>
0

> <r_mmod_RMS_Derivative-OPLS-2005>
7.92514085769653

$$$$
88
                    3D
 Structure written by MMmdl.
168176  0  0  1  0            999 V2000
  -30.7196  -14.5112   20.3064 C   0  0  0  0  0  0
  -30.4117  -12.2644   19.4201 C   0  0  0  0  0  0
  -29.4702  -12.3564   18.1989 C   0  0  0  0  0  0
  -27.9948  -12.2987   18.6300 C   0  0  0  0  0  0
  -27.6507  -13.2117   19.8379 C   0  0  2  0  0  0
  -28.7168  -13.1123   20.9516 C   0  0  0  0  0  0
  -25.2595  -13.8191   20.5720 C   0  0  0  0  0  0
  -24.1855  -13.0468   20.9221 C   0  0  0  0  0  0
  -24.6415  -11.6937   20.8794 C   0  0  0  0  0  0
  -23.9087  -10.4304   21.0428 C   0  0  0  0  0  0
  -24.3632   -9.4211   21.9202 C   0  0  0  0  0  0
  -23.6293   -8.2254   22.0765 C   0  0  0  0  0  0
  -22.4279   -8.0293   21.3550 C   0  0  0  0  0  0
  -21.9926   -9.0280   20.4659 C   0  0  0  0  0  0
  -22.7258  -10.2160   20.3066 C   0  0  0  0  0  0
  -21.6864   -6.0745   22.5288 C   0  0  0  0  0  0
  -21.4012   -6.5652   23.8221 C   0  0  0  0  0  0
  -21.3653   -5.6803   24.9182 C   0  0  0  0  0  0
  -21.6040   -4.3068   24.7236 C   0  0  0  0  0  0
  -21.8816   -3.8154   23.4362 C   0  0  0  0  0  0
  -21.9193   -4.6966   22.3413 C   0  0  0  0  0  0
  -22.7872  -13.5258   21.1839 C   0  0  0  0  0  0
  -22.1668   -4.2150   21.0990 F   0  0  0  0  0  0
  -21.5620   -3.4541   25.7746 F   0  0  0  0  0  0
  -30.0318  -13.3413   20.3401 N   0  0  0  0  0  0
  -26.3022  -12.9375   20.3349 N   0  0  0  0  0  0
  -25.9339  -11.6546   20.5856 N   0  0  0  0  0  0
  -22.0471  -12.8267   22.0382 N   0  0  0  0  0  0
  -25.4332  -15.1893   20.4150 N   0  0  0  0  0  0
  -31.9404  -14.5535   20.4477 O   0  0  0  0  0  0
  -21.6640   -6.8891   21.4251 O   0  0  0  0  0  0
  -22.3572  -14.5549   20.6647 O   0  0  0  0  0  0
  -24.6153  -31.8687   23.2102 C   0  0  0  0  0  0
  -25.9053  -32.4828   23.8405 C   0  0  1  0  0  0
  -27.2287  -27.4430   20.0937 C   0  0  0  0  0  0
  -25.5938  -33.8632   24.2341 N   0  0  0  0  0  0
  -23.4012  -30.4934   21.5515 C   0  0  2  0  0  0
  -24.8459  -28.9594   20.1175 C   0  0  0  0  0  0
  -22.7424  -29.4665   22.4994 C   0  0  0  0  0  0
  -18.0278  -28.1368   22.8501 C   0  0  0  0  0  0
  -24.1487  -36.7311   23.2632 C   0  0  0  0  0  0
  -25.9306  -30.8398   21.3584 C   0  0  0  0  0  0
  -26.0066  -29.4742   20.7059 C   0  0  0  0  0  0
  -27.2049  -28.7241   20.6876 C   0  0  0  0  0  0
  -26.0513  -26.9390   19.5027 C   0  0  0  0  0  0
  -24.8605  -27.6904   19.5130 C   0  0  0  0  0  0
  -23.6089  -29.8278   20.1662 C   0  0  0  0  0  0
  -25.4097  -36.3121   24.0343 C   0  0  1  0  0  0
  -20.5864  -28.3642   23.1323 C   0  0  2  0  0  0
  -20.6764  -26.9380   22.5411 C   0  0  0  0  0  0
  -19.5751  -26.6367   21.5207 C   0  0  0  0  0  0
  -18.1920  -26.7908   22.1616 C   0  0  0  0  0  0
  -19.1529  -28.8816   23.2910 C   0  0  0  0  0  0
  -18.9456  -30.1416   23.8916 C   0  0  0  0  0  0
  -17.6460  -30.6571   24.0549 C   0  0  0  0  0  0
  -25.9040  -34.9489   23.5127 C   0  0  0  0  0  0
  -16.5351  -29.9067   23.6330 C   0  0  0  0  0  0
  -16.7260  -28.6487   23.0350 C   0  0  0  0  0  0
  -26.4476  -31.6597   25.0721 C   0  0  0  0  0  0
  -25.3751  -31.3683   26.1474 C   0  0  0  0  0  0
  -27.0289  -30.3054   24.6058 C   0  0  0  0  0  0
  -27.6060  -32.4291   25.7483 C   0  0  0  0  0  0
  -27.5578  -37.1813   24.8470 C   0  0  0  0  0  0
  -21.4155  -29.3029   22.3747 N   0  0  0  0  0  0
  -26.4285  -37.3807   23.9419 N   0  0  0  0  0  0
  -24.6680  -31.0810   22.0985 N   0  0  0  0  0  0
  -23.4203  -28.8192   23.3015 O   0  0  0  0  0  0
  -28.3893  -26.7034   20.0948 O   0  0  0  0  0  0
  -26.5577  -34.8937   22.4670 O   0  0  0  0  0  0
  -23.5345  -32.1410   23.7513 O   0  0  0  0  0  0
  -29.7665  -18.9058   20.5489 C   0  0  0  0  0  0
  -28.8092  -17.1635   18.5744 C   0  0  0  0  0  0
  -29.0800  -19.4385   19.4298 C   0  0  0  0  0  0
  -29.6382  -16.6446   19.5973 C   0  0  0  0  0  0
  -30.0533  -17.5209   20.6341 C   0  0  0  0  0  0
  -28.5632  -18.5432   18.4706 C   0  0  0  0  0  0
  -24.4081  -20.3232   18.5373 C   0  0  0  0  0  0
  -30.9896  -15.3548   18.0855 C   0  0  0  0  0  0
  -29.0564  -20.9512   19.1485 C   0  0  0  0  0  0
  -25.7230  -21.1070   18.4322 C   0  0  0  0  0  0
  -28.2856  -24.2296   19.8029 C   0  0  0  0  0  0
  -26.5610  -21.0613   19.7280 C   0  0  0  0  0  0
  -28.1478  -22.8636   20.5218 C   0  0  0  0  0  0
  -28.3073  -25.4369   20.7662 C   0  0  0  0  0  0
  -30.2265  -15.3569   19.3591 N   0  0  0  0  0  0
  -27.8646  -21.7644   19.5488 N   0  3  1  0  0  0
  -30.8242  -17.0730   21.6536 F   0  0  0  0  0  0
  -27.9044  -19.0109   17.3865 F   0  0  0  0  0  0
  -31.4554  -12.3371   19.1084 H   0  0  0  0  0  0
  -30.3141  -11.2945   19.9121 H   0  0  0  0  0  0
  -29.6827  -11.5356   17.5139 H   0  0  0  0  0  0
  -29.6279  -13.2597   17.6184 H   0  0  0  0  0  0
  -27.7846  -11.2589   18.8826 H   0  0  0  0  0  0
  -27.3493  -12.5377   17.7839 H   0  0  0  0  0  0
  -27.6610  -14.2340   19.4580 H   0  0  0  0  0  0
  -28.6912  -12.1261   21.4184 H   0  0  0  0  0  0
  -28.5256  -13.8436   21.7392 H   0  0  0  0  0  0
  -25.2775   -9.5687   22.4793 H   0  0  0  0  0  0
  -23.9996   -7.4648   22.7502 H   0  0  0  0  0  0
  -21.0852   -8.8809   19.8978 H   0  0  0  0  0  0
  -22.3709  -10.9710   19.6186 H   0  0  0  0  0  0
  -21.1996   -7.6156   23.9725 H   0  0  0  0  0  0
  -21.1482   -6.0533   25.9089 H   0  0  0  0  0  0
  -22.0589   -2.7611   23.2861 H   0  0  0  0  0  0
  -22.4042  -11.9936   22.4818 H   0  0  0  0  0  0
  -21.1066  -13.1304   22.2517 H   0  0  0  0  0  0
  -24.6672  -15.8446   20.5202 H   0  0  0  0  0  0
  -26.2936  -15.6260   20.1138 H   0  0  0  0  0  0
  -26.7120  -32.5541   23.1166 H   0  0  0  0  0  0
  -25.0205  -33.9795   25.0566 H   0  0  0  0  0  0
  -22.6908  -31.3087   21.4137 H   0  0  0  0  0  0
  -23.3774  -35.9638   23.3308 H   0  0  0  0  0  0
  -24.3585  -36.8895   22.2046 H   0  0  0  0  0  0
  -23.7222  -37.6509   23.6630 H   0  0  0  0  0  0
  -26.0376  -31.6048   20.5888 H   0  0  0  0  0  0
  -26.8188  -30.8908   21.9765 H   0  0  0  0  0  0
  -28.1028  -29.1181   21.1410 H   0  0  0  0  0  0
  -26.0403  -25.9728   19.0223 H   0  0  0  0  0  0
  -23.9668  -27.2907   19.0550 H   0  0  0  0  0  0
  -23.7185  -30.5999   19.4042 H   0  0  0  0  0  0
  -22.7331  -29.2473   19.8700 H   0  0  0  0  0  0
  -25.1278  -36.1979   25.0844 H   0  0  0  0  0  0
  -20.9959  -28.3168   24.1434 H   0  0  0  0  0  0
  -20.5652  -26.2248   23.3592 H   0  0  0  0  0  0
  -21.6642  -26.7413   22.1212 H   0  0  0  0  0  0
  -19.6924  -25.6276   21.1223 H   0  0  0  0  0  0
  -19.6693  -27.3189   20.6740 H   0  0  0  0  0  0
  -17.4201  -26.6663   21.3996 H   0  0  0  0  0  0
  -18.0320  -26.0023   22.8980 H   0  0  0  0  0  0
  -19.7928  -30.7222   24.2304 H   0  0  0  0  0  0
  -17.5016  -31.6266   24.5126 H   0  0  0  0  0  0
  -15.5350  -30.2980   23.7643 H   0  0  0  0  0  0
  -15.8660  -28.0808   22.7069 H   0  0  0  0  0  0
  -24.5975  -30.6977   25.7814 H   0  0  0  0  0  0
  -24.8897  -32.2823   26.4908 H   0  0  0  0  0  0
  -25.8115  -30.8881   27.0237 H   0  0  0  0  0  0
  -26.2809  -29.6842   24.1135 H   0  0  0  0  0  0
  -27.4099  -29.7265   25.4474 H   0  0  0  0  0  0
  -27.8631  -30.4402   23.9177 H   0  0  0  0  0  0
  -27.2725  -33.3600   26.2087 H   0  0  0  0  0  0
  -28.3875  -32.6815   25.0307 H   0  0  0  0  0  0
  -28.0752  -31.8396   26.5373 H   0  0  0  0  0  0
  -28.2605  -38.0104   24.7522 H   0  0  0  0  0  0
  -28.1055  -36.2630   24.6283 H   0  0  0  0  0  0
  -27.2302  -37.1448   25.8877 H   0  0  0  0  0  0
  -20.9298  -29.8776   21.6996 H   0  0  0  0  0  0
  -26.0179  -38.2890   24.1421 H   0  0  0  0  0  0
  -30.1766  -19.5701   21.2953 H   0  0  0  0  0  0
  -28.4641  -16.5250   17.7740 H   0  0  0  0  0  0
  -23.8413  -20.3840   17.6068 H   0  0  0  0  0  0
  -23.7736  -20.7138   19.3329 H   0  0  0  0  0  0
  -24.5901  -19.2680   18.7410 H   0  0  0  0  0  0
  -30.3422  -15.4548   17.2144 H   0  0  0  0  0  0
  -31.5804  -14.4492   17.9238 H   0  0  0  0  0  0
  -31.6948  -16.1875   18.0675 H   0  0  0  0  0  0
  -29.1538  -21.0774   18.0692 H   0  0  0  0  0  0
  -29.9742  -21.3913   19.5393 H   0  0  0  0  0  0
  -25.4942  -22.1444   18.1859 H   0  0  0  0  0  0
  -26.2877  -20.7200   17.5851 H   0  0  0  0  0  0
  -27.4596  -24.3474   19.1034 H   0  0  0  0  0  0
  -29.1969  -24.2347   19.2028 H   0  0  0  0  0  0
  -26.6909  -20.0401   20.0836 H   0  0  0  0  0  0
  -25.9643  -21.5430   20.5025 H   0  0  0  0  0  0
  -27.3516  -22.9440   21.2614 H   0  0  0  0  0  0
  -29.0445  -22.6535   21.1058 H   0  0  0  0  0  0
  -29.1787  -25.3580   21.4157 H   0  0  0  0  0  0
  -27.4403  -25.4002   21.4303 H   0  0  0  0  0  0
  -27.6962  -22.2949   18.7083 H   0  0  0  0  0  0
  1 25  1  0  0  0
  1 30  2  0  0  0
  1 85  1  0  0  0
  2  3  1  0  0  0
  2 25  1  0  0  0
  2 89  1  0  0  0
  2 90  1  0  0  0
  3  4  1  0  0  0
  3 91  1  0  0  0
  3 92  1  0  0  0
  4  5  1  0  0  0
  4 93  1  0  0  0
  4 94  1  0  0  0
  5  6  1  0  0  0
  5 26  1  0  0  0
  5 95  1  0  0  0
  6 25  1  0  0  0
  6 96  1  0  0  0
  6 97  1  0  0  0
  7  8  2  0  0  0
  7 26  1  0  0  0
  7 29  1  0  0  0
  8  9  1  0  0  0
  8 22  1  0  0  0
  9 10  1  0  0  0
  9 27  2  0  0  0
 10 11  2  0  0  0
 10 15  1  0  0  0
 11 12  1  0  0  0
 11 98  1  0  0  0
 12 13  2  0  0  0
 12 99  1  0  0  0
 13 14  1  0  0  0
 13 31  1  0  0  0
 14 15  2  0  0  0
 14100  1  0  0  0
 15101  1  0  0  0
 16 17  2  0  0  0
 16 21  1  0  0  0
 16 31  1  0  0  0
 17 18  1  0  0  0
 17102  1  0  0  0
 18 19  2  0  0  0
 18103  1  0  0  0
 19 20  1  0  0  0
 19 24  1  0  0  0
 20 21  2  0  0  0
 20104  1  0  0  0
 21 23  1  0  0  0
 22 28  1  0  0  0
 22 32  2  0  0  0
 26 27  1  0  0  0
 28105  1  0  0  0
 28106  1  0  0  0
 29107  1  0  0  0
 29108  1  0  0  0
 33 34  1  0  0  0
 33 66  1  0  0  0
 33 70  2  0  0  0
 34 36  1  0  0  0
 34 59  1  0  0  0
 34109  1  0  0  0
 35 44  2  0  0  0
 35 45  1  0  0  0
 35 68  1  0  0  0
 36 56  1  0  0  0
 36110  1  0  0  0
 37 39  1  0  0  0
 37 47  1  0  0  0
 37 66  1  0  0  0
 37111  1  0  0  0
 38 43  2  0  0  0
 38 46  1  0  0  0
 38 47  1  0  0  0
 39 64  1  0  0  0
 39 67  2  0  0  0
 40 52  1  0  0  0
 40 53  2  0  0  0
 40 58  1  0  0  0
 41112  1  0  0  0
 41113  1  0  0  0
 41114  1  0  0  0
 41 48  1  0  0  0
 42 43  1  0  0  0
 42 66  1  0  0  0
 42115  1  0  0  0
 42116  1  0  0  0
 43 44  1  0  0  0
 44117  1  0  0  0
 45 46  2  0  0  0
 45118  1  0  0  0
 46119  1  0  0  0
 47120  1  0  0  0
 47121  1  0  0  0
 48 56  1  0  0  0
 48 65  1  0  0  0
 48122  1  0  0  0
 49 50  1  0  0  0
 49 53  1  0  0  0
 49 64  1  0  0  0
 49123  1  0  0  0
 50 51  1  0  0  0
 50124  1  0  0  0
 50125  1  0  0  0
 51 52  1  0  0  0
 51126  1  0  0  0
 51127  1  0  0  0
 52128  1  0  0  0
 52129  1  0  0  0
 53 54  1  0  0  0
 54 55  2  0  0  0
 54130  1  0  0  0
 55 57  1  0  0  0
 55131  1  0  0  0
 56 69  2  0  0  0
 57 58  2  0  0  0
 57132  1  0  0  0
 58133  1  0  0  0
 59 60  1  0  0  0
 59 61  1  0  0  0
 59 62  1  0  0  0
 60134  1  0  0  0
 60135  1  0  0  0
 60136  1  0  0  0
 61137  1  0  0  0
 61138  1  0  0  0
 61139  1  0  0  0
 62140  1  0  0  0
 62141  1  0  0  0
 62142  1  0  0  0
 63 65  1  0  0  0
 63143  1  0  0  0
 63144  1  0  0  0
 63145  1  0  0  0
 64146  1  0  0  0
 65147  1  0  0  0
 68 84  1  0  0  0
 71 73  2  0  0  0
 71 75  1  0  0  0
 71148  1  0  0  0
 72 74  1  0  0  0
 72 76  2  0  0  0
 72149  1  0  0  0
 73 76  1  0  0  0
 73 79  1  0  0  0
 74 75  2  0  0  0
 74 85  1  0  0  0
 75 87  1  0  0  0
 76 88  1  0  0  0
 77 80  1  0  0  0
 77150  1  0  0  0
 77151  1  0  0  0
 77152  1  0  0  0
 78 85  1  0  0  0
 78153  1  0  0  0
 78154  1  0  0  0
 78155  1  0  0  0
 79156  1  0  0  0
 79157  1  0  0  0
 79 86  1  0  0  0
 80 82  1  0  0  0
 80158  1  0  0  0
 80159  1  0  0  0
 81 83  1  0  0  0
 81 84  1  0  0  0
 81160  1  0  0  0
 81161  1  0  0  0
 82 86  1  0  0  0
 82162  1  0  0  0
 82163  1  0  0  0
 83 86  1  0  0  0
 83164  1  0  0  0
 83165  1  0  0  0
 84166  1  0  0  0
 84167  1  0  0  0
 86168  1  0  0  0
M  CHG  1  86   1
M  ISO  4   1 100  68 101  84 101  85 100
M  END
> <chiral flag>
0

> <version>
0

> <s_m_source_file>
/data/baiqing/PycharmProjects/Reinvent-master-3.2/result/LINK_invent/BTK/process_docking_weight1_custom_product_contain_oxygen_bond_distance_aromatic_linkinvent_7_9_3/rearranged_h_0019.sdf

> <i_m_source_file_index>
89

> <r_mmod_Potential_Energy-OPLS-2005>
126.689483642578

> <r_mmod_Stretch_Energy-OPLS-2005>
41.6084518432617

> <r_mmod_Bend_Energy-OPLS-2005>
131.865753173828

> <r_mmod_Torsional_Energy-OPLS-2005>
370.961639404297

> <r_mmod_Improper_Torsional_Energy-OPLS-2005>
38.5100517272949

> <r_mmod_Van_der_Waal_Energy-OPLS-2005>
158.16259765625

> <r_mmod_Electrostatic_Energy-OPLS-2005>
-225.243499755859

> <r_mmod_Solvation_Energy-OPLS-2005>
-442.024139404297

> <b_mmod_Minimization_Converged-OPLS-2005>
0

> <r_mmod_RMS_Derivative-OPLS-2005>
2.8692684173584

$$$$
89
                    3D
 Structure written by MMmdl.
161169  0  0  1  0            999 V2000
  -30.7391  -14.4692   20.6267 C   0  0  0  0  0  0
  -30.4128  -12.3312   19.4178 C   0  0  0  0  0  0
  -29.4836  -12.5143   18.2031 C   0  0  0  0  0  0
  -28.0114  -12.3521   18.6210 C   0  0  0  0  0  0
  -27.6550  -13.1999   19.8683 C   0  0  2  0  0  0
  -28.6972  -13.0059   20.9933 C   0  0  0  0  0  0
  -25.2582  -13.8140   20.5673 C   0  0  0  0  0  0
  -24.1829  -13.0426   20.9177 C   0  0  0  0  0  0
  -24.6372  -11.6888   20.8736 C   0  0  0  0  0  0
  -23.9037  -10.4282   21.0407 C   0  0  0  0  0  0
  -24.3597   -9.4202   21.9186 C   0  0  0  0  0  0
  -23.6280   -8.2235   22.0757 C   0  0  0  0  0  0
  -22.4266   -8.0272   21.3542 C   0  0  0  0  0  0
  -21.9891   -9.0242   20.4643 C   0  0  0  0  0  0
  -22.7208  -10.2127   20.3052 C   0  0  0  0  0  0
  -21.6850   -6.0724   22.5275 C   0  0  0  0  0  0
  -21.4011   -6.5632   23.8206 C   0  0  0  0  0  0
  -21.3663   -5.6789   24.9172 C   0  0  0  0  0  0
  -21.6047   -4.3051   24.7224 C   0  0  0  0  0  0
  -21.8821   -3.8138   23.4346 C   0  0  0  0  0  0
  -21.9191   -4.6952   22.3400 C   0  0  0  0  0  0
  -22.7861  -13.5243   21.1836 C   0  0  0  0  0  0
  -22.1661   -4.2135   21.0979 F   0  0  0  0  0  0
  -21.5630   -3.4539   25.7741 F   0  0  0  0  0  0
  -30.0277  -13.3169   20.4457 N   0  0  0  0  0  0
  -26.2990  -12.9285   20.3337 N   0  0  0  0  0  0
  -25.9293  -11.6454   20.5760 N   0  0  0  0  0  0
  -22.0501  -12.8245   22.0398 N   0  0  0  0  0  0
  -25.4306  -15.1855   20.4073 N   0  0  0  0  0  0
  -31.8204  -14.6592   20.0586 O   0  0  0  0  0  0
  -21.6633   -6.8865   21.4236 O   0  0  0  0  0  0
  -22.3559  -14.5550   20.6683 O   0  0  0  0  0  0
  -24.6173  -31.8666   23.2106 C   0  0  0  0  0  0
  -25.9058  -32.4813   23.8404 C   0  0  1  0  0  0
  -27.2272  -27.4049   20.0979 C   0  0  0  0  0  0
  -25.5908  -33.8613   24.2328 N   0  0  0  0  0  0
  -23.4057  -30.4924   21.5514 C   0  0  2  0  0  0
  -24.8496  -28.9603   20.1114 C   0  0  0  0  0  0
  -22.7426  -29.4648   22.4980 C   0  0  0  0  0  0
  -18.0274  -28.1368   22.8485 C   0  0  0  0  0  0
  -24.1484  -36.7316   23.2636 C   0  0  0  0  0  0
  -25.9379  -30.8220   21.3701 C   0  0  0  0  0  0
  -26.0111  -29.4560   20.7151 C   0  0  0  0  0  0
  -27.1995  -28.6848   20.7078 C   0  0  0  0  0  0
  -26.0473  -26.9471   19.4625 C   0  0  0  0  0  0
  -24.8642  -27.7061   19.4827 C   0  0  0  0  0  0
  -23.6147  -29.8307   20.1636 C   0  0  0  0  0  0
  -25.4104  -36.3107   24.0334 C   0  0  1  0  0  0
  -20.5868  -28.3655   23.1305 C   0  0  2  0  0  0
  -20.6760  -26.9386   22.5413 C   0  0  0  0  0  0
  -19.5743  -26.6375   21.5203 C   0  0  0  0  0  0
  -18.1920  -26.7911   22.1612 C   0  0  0  0  0  0
  -19.1527  -28.8827   23.2890 C   0  0  0  0  0  0
  -18.9453  -30.1430   23.8900 C   0  0  0  0  0  0
  -17.6458  -30.6576   24.0556 C   0  0  0  0  0  0
  -25.9035  -34.9471   23.5132 C   0  0  0  0  0  0
  -16.5347  -29.9080   23.6322 C   0  0  0  0  0  0
  -16.7262  -28.6496   23.0343 C   0  0  0  0  0  0
  -26.4481  -31.6597   25.0740 C   0  0  0  0  0  0
  -25.3746  -31.3695   26.1489 C   0  0  0  0  0  0
  -27.0321  -30.3038   24.6130 C   0  0  0  0  0  0
  -27.6059  -32.4320   25.7495 C   0  0  0  0  0  0
  -27.5579  -37.1808   24.8462 C   0  0  0  0  0  0
  -21.4153  -29.3028   22.3722 N   0  0  0  0  0  0
  -26.4290  -37.3794   23.9407 N   0  0  0  0  0  0
  -24.6718  -31.0754   22.1019 N   0  0  0  0  0  0
  -23.4188  -28.8181   23.3022 O   0  0  0  0  0  0
  -28.3935  -26.6532   20.1474 O   0  0  0  0  0  0
  -26.5599  -34.8926   22.4694 O   0  0  0  0  0  0
  -23.5360  -32.1438   23.7485 O   0  0  0  0  0  0
  -29.5847  -18.4841   20.2048 C   0  0  0  0  0  0
  -29.7129  -19.8946   20.2228 C   0  0  0  0  0  0
  -29.4384  -19.8816   22.6304 C   0  0  0  0  0  0
  -29.3628  -17.7567   21.3977 C   0  0  0  0  0  0
  -29.6469  -20.6145   21.4394 C   0  0  0  0  0  0
  -29.2815  -18.4778   22.6122 C   0  0  0  0  0  0
  -31.0735  -22.4037   22.1701 C   0  0  0  0  0  0
  -31.2898  -15.8367   22.5435 C   0  0  0  0  0  0
  -29.1364  -16.2304   21.3600 C   0  0  0  0  0  0
  -29.2145  -24.3891   20.8219 C   0  0  0  0  0  0
  -29.2893  -22.8781   20.4404 C   0  0  0  0  0  0
  -28.3415  -25.2347   19.8610 C   0  0  0  0  0  0
  -29.8273  -22.0184   21.5094 N   0  0  0  0  0  0
  -30.3074  -15.3427   21.5740 N   0  0  0  0  0  0
  -29.0417  -17.8245   23.7749 F   0  0  0  0  0  0
  -31.4554  -12.4258   19.1095 H   0  0  0  0  0  0
  -30.3166  -11.3206   19.8187 H   0  0  0  0  0  0
  -29.7310  -11.7896   17.4265 H   0  0  0  0  0  0
  -29.6356  -13.5015   17.7630 H   0  0  0  0  0  0
  -27.8382  -11.2957   18.8302 H   0  0  0  0  0  0
  -27.3538  -12.6070   17.7894 H   0  0  0  0  0  0
  -27.6848  -14.2369   19.5428 H   0  0  0  0  0  0
  -28.6841  -11.9746   21.3477 H   0  0  0  0  0  0
  -28.4443  -13.6087   21.8651 H   0  0  0  0  0  0
  -25.2741   -9.5686   22.4761 H   0  0  0  0  0  0
  -23.9986   -7.4631   22.7487 H   0  0  0  0  0  0
  -21.0813   -8.8750   19.8957 H   0  0  0  0  0  0
  -22.3654  -10.9665   19.6163 H   0  0  0  0  0  0
  -21.2002   -7.6139   23.9703 H   0  0  0  0  0  0
  -21.1487   -6.0523   25.9074 H   0  0  0  0  0  0
  -22.0599   -2.7597   23.2852 H   0  0  0  0  0  0
  -22.4112  -11.9900   22.4772 H   0  0  0  0  0  0
  -21.1128  -13.1290   22.2619 H   0  0  0  0  0  0
  -24.6605  -15.8379   20.5078 H   0  0  0  0  0  0
  -26.2759  -15.6227   20.0647 H   0  0  0  0  0  0
  -26.7125  -32.5507   23.1165 H   0  0  0  0  0  0
  -25.0051  -33.9764   25.0466 H   0  0  0  0  0  0
  -22.6953  -31.3102   21.4142 H   0  0  0  0  0  0
  -23.3740  -35.9655   23.3313 H   0  0  0  0  0  0
  -24.3576  -36.8930   22.2050 H   0  0  0  0  0  0
  -23.7254  -37.6529   23.6650 H   0  0  0  0  0  0
  -26.0583  -31.5880   20.6031 H   0  0  0  0  0  0
  -26.8224  -30.8706   21.9931 H   0  0  0  0  0  0
  -28.0931  -29.0606   21.1867 H   0  0  0  0  0  0
  -26.0074  -26.0077   18.9322 H   0  0  0  0  0  0
  -23.9749  -27.3243   19.0009 H   0  0  0  0  0  0
  -23.7278  -30.6088   19.4078 H   0  0  0  0  0  0
  -22.7367  -29.2555   19.8631 H   0  0  0  0  0  0
  -25.1285  -36.1976   25.0829 H   0  0  0  0  0  0
  -20.9945  -28.3216   24.1432 H   0  0  0  0  0  0
  -20.5647  -26.2261   23.3605 H   0  0  0  0  0  0
  -21.6633  -26.7418   22.1216 H   0  0  0  0  0  0
  -19.6898  -25.6290   21.1226 H   0  0  0  0  0  0
  -19.6684  -27.3186   20.6735 H   0  0  0  0  0  0
  -17.4189  -26.6659   21.4014 H   0  0  0  0  0  0
  -18.0317  -26.0044   22.9000 H   0  0  0  0  0  0
  -19.7934  -30.7235   24.2277 H   0  0  0  0  0  0
  -17.5020  -31.6256   24.5153 H   0  0  0  0  0  0
  -15.5349  -30.2981   23.7646 H   0  0  0  0  0  0
  -15.8663  -28.0819   22.7050 H   0  0  0  0  0  0
  -24.5927  -30.7031   25.7835 H   0  0  0  0  0  0
  -24.8914  -32.2834   26.4946 H   0  0  0  0  0  0
  -25.8103  -30.8871   27.0245 H   0  0  0  0  0  0
  -26.2868  -29.6784   24.1194 H   0  0  0  0  0  0
  -27.4103  -29.7296   25.4598 H   0  0  0  0  0  0
  -27.8704  -30.4365   23.9288 H   0  0  0  0  0  0
  -27.2691  -33.3617   26.2092 H   0  0  0  0  0  0
  -28.3851  -32.6881   25.0306 H   0  0  0  0  0  0
  -28.0743  -31.8429   26.5390 H   0  0  0  0  0  0
  -28.2603  -38.0100   24.7510 H   0  0  0  0  0  0
  -28.1075  -36.2632   24.6295 H   0  0  0  0  0  0
  -27.2296  -37.1477   25.8867 H   0  0  0  0  0  0
  -20.9318  -29.8795   21.6984 H   0  0  0  0  0  0
  -26.0182  -38.2875   24.1410 H   0  0  0  0  0  0
  -29.6425  -17.9635   19.2593 H   0  0  0  0  0  0
  -29.8869  -20.4115   19.2901 H   0  0  0  0  0  0
  -29.3818  -20.3984   23.5773 H   0  0  0  0  0  0
  -30.8636  -22.9489   23.0917 H   0  0  0  0  0  0
  -31.6755  -23.0476   21.5277 H   0  0  0  0  0  0
  -31.6925  -21.5425   22.4297 H   0  0  0  0  0  0
  -30.8061  -16.1246   23.4759 H   0  0  0  0  0  0
  -31.8289  -16.6990   22.1484 H   0  0  0  0  0  0
  -32.0275  -15.0715   22.7931 H   0  0  0  0  0  0
  -28.3865  -15.9794   22.1118 H   0  0  0  0  0  0
  -28.6668  -16.0078   20.4023 H   0  0  0  0  0  0
  -30.2193  -24.8112   20.8571 H   0  0  0  0  0  0
  -28.8047  -24.4900   21.8277 H   0  0  0  0  0  0
  -29.8865  -22.7628   19.5340 H   0  0  0  0  0  0
  -28.2862  -22.5239   20.1957 H   0  0  0  0  0  0
  -27.3417  -24.8146   19.9546 H   0  0  0  0  0  0
  -28.6590  -25.0809   18.8288 H   0  0  0  0  0  0
  1 25  1  0  0  0
  1 30  2  0  0  0
  1 84  1  0  0  0
  2  3  1  0  0  0
  2 25  1  0  0  0
  2 86  1  0  0  0
  2 87  1  0  0  0
  3  4  1  0  0  0
  3 88  1  0  0  0
  3 89  1  0  0  0
  4  5  1  0  0  0
  4 90  1  0  0  0
  4 91  1  0  0  0
  5  6  1  0  0  0
  5 26  1  0  0  0
  5 92  1  0  0  0
  6 25  1  0  0  0
  6 93  1  0  0  0
  6 94  1  0  0  0
  7  8  2  0  0  0
  7 26  1  0  0  0
  7 29  1  0  0  0
  8  9  1  0  0  0
  8 22  1  0  0  0
  9 10  1  0  0  0
  9 27  2  0  0  0
 10 11  2  0  0  0
 10 15  1  0  0  0
 11 12  1  0  0  0
 11 95  1  0  0  0
 12 13  2  0  0  0
 12 96  1  0  0  0
 13 14  1  0  0  0
 13 31  1  0  0  0
 14 15  2  0  0  0
 14 97  1  0  0  0
 15 98  1  0  0  0
 16 17  2  0  0  0
 16 21  1  0  0  0
 16 31  1  0  0  0
 17 18  1  0  0  0
 17 99  1  0  0  0
 18 19  2  0  0  0
 18100  1  0  0  0
 19 20  1  0  0  0
 19 24  1  0  0  0
 20 21  2  0  0  0
 20101  1  0  0  0
 21 23  1  0  0  0
 22 28  1  0  0  0
 22 32  2  0  0  0
 26 27  1  0  0  0
 28102  1  0  0  0
 28103  1  0  0  0
 29104  1  0  0  0
 29105  1  0  0  0
 33 34  1  0  0  0
 33 66  1  0  0  0
 33 70  2  0  0  0
 34 36  1  0  0  0
 34 59  1  0  0  0
 34106  1  0  0  0
 35 44  2  0  0  0
 35 45  1  0  0  0
 35 68  1  0  0  0
 36 56  1  0  0  0
 36107  1  0  0  0
 37 39  1  0  0  0
 37 47  1  0  0  0
 37 66  1  0  0  0
 37108  1  0  0  0
 38 43  2  0  0  0
 38 46  1  0  0  0
 38 47  1  0  0  0
 39 64  1  0  0  0
 39 67  2  0  0  0
 40 52  1  0  0  0
 40 53  2  0  0  0
 40 58  1  0  0  0
 41109  1  0  0  0
 41110  1  0  0  0
 41111  1  0  0  0
 41 48  1  0  0  0
 42 43  1  0  0  0
 42 66  1  0  0  0
 42112  1  0  0  0
 42113  1  0  0  0
 43 44  1  0  0  0
 44114  1  0  0  0
 45 46  2  0  0  0
 45115  1  0  0  0
 46116  1  0  0  0
 47117  1  0  0  0
 47118  1  0  0  0
 48 56  1  0  0  0
 48 65  1  0  0  0
 48119  1  0  0  0
 49 50  1  0  0  0
 49 53  1  0  0  0
 49 64  1  0  0  0
 49120  1  0  0  0
 50 51  1  0  0  0
 50121  1  0  0  0
 50122  1  0  0  0
 51 52  1  0  0  0
 51123  1  0  0  0
 51124  1  0  0  0
 52125  1  0  0  0
 52126  1  0  0  0
 53 54  1  0  0  0
 54 55  2  0  0  0
 54127  1  0  0  0
 55 57  1  0  0  0
 55128  1  0  0  0
 56 69  2  0  0  0
 57 58  2  0  0  0
 57129  1  0  0  0
 58130  1  0  0  0
 59 60  1  0  0  0
 59 61  1  0  0  0
 59 62  1  0  0  0
 60131  1  0  0  0
 60132  1  0  0  0
 60133  1  0  0  0
 61134  1  0  0  0
 61135  1  0  0  0
 61136  1  0  0  0
 62137  1  0  0  0
 62138  1  0  0  0
 62139  1  0  0  0
 63 65  1  0  0  0
 63140  1  0  0  0
 63141  1  0  0  0
 63142  1  0  0  0
 64143  1  0  0  0
 65144  1  0  0  0
 68 82  1  0  0  0
 71 72  2  0  0  0
 71 74  1  0  0  0
 71145  1  0  0  0
 72 75  1  0  0  0
 72146  1  0  0  0
 73 75  2  0  0  0
 73 76  1  0  0  0
 73147  1  0  0  0
 74 76  2  0  0  0
 74 79  1  0  0  0
 75 83  1  0  0  0
 76 85  1  0  0  0
 77 83  1  0  0  0
 77148  1  0  0  0
 77149  1  0  0  0
 77150  1  0  0  0
 78 84  1  0  0  0
 78151  1  0  0  0
 78152  1  0  0  0
 78153  1  0  0  0
 79 84  1  0  0  0
 79154  1  0  0  0
 79155  1  0  0  0
 80 81  1  0  0  0
 80 82  1  0  0  0
 80156  1  0  0  0
 80157  1  0  0  0
 81 83  1  0  0  0
 81158  1  0  0  0
 81159  1  0  0  0
 82160  1  0  0  0
 82161  1  0  0  0
M  ISO  4   1 100  68 101  82 101  84 100
M  END
> <chiral flag>
0

> <version>
0

> <s_m_source_file>
/data/baiqing/PycharmProjects/Reinvent-master-3.2/result/LINK_invent/BTK/process_docking_weight1_custom_product_contain_oxygen_bond_distance_aromatic_linkinvent_7_9_3/rearranged_h_0019.sdf

> <i_m_source_file_index>
90

> <r_mmod_Potential_Energy-OPLS-2005>
108.428802490234

> <r_mmod_Stretch_Energy-OPLS-2005>
44.937442779541

> <r_mmod_Bend_Energy-OPLS-2005>
110.963203430176

> <r_mmod_Torsional_Energy-OPLS-2005>
274.612030029297

> <r_mmod_Improper_Torsional_Energy-OPLS-2005>
7.38503885269165

> <r_mmod_Van_der_Waal_Energy-OPLS-2005>
158.607894897461

> <r_mmod_Electrostatic_Energy-OPLS-2005>
-295.229187011719

> <r_mmod_Solvation_Energy-OPLS-2005>
-208.233032226562

> <b_mmod_Minimization_Converged-OPLS-2005>
0

> <r_mmod_RMS_Derivative-OPLS-2005>
1.12671661376953

$$$$
90
                    3D
 Structure written by MMmdl.
183191  0  0  1  0            999 V2000
  -30.7408  -14.3341   20.7143 C   0  0  0  0  0  0
  -30.4339  -12.2848   19.3690 C   0  0  0  0  0  0
  -29.4879  -12.5271   18.1775 C   0  0  0  0  0  0
  -28.0111  -12.3819   18.5941 C   0  0  0  0  0  0
  -27.6721  -13.1898   19.8733 C   0  0  2  0  0  0
  -28.7048  -12.8855   20.9779 C   0  0  0  0  0  0
  -25.2650  -13.8134   20.5639 C   0  0  0  0  0  0
  -24.1870  -13.0433   20.9130 C   0  0  0  0  0  0
  -24.6393  -11.6891   20.8692 C   0  0  0  0  0  0
  -23.9047  -10.4292   21.0386 C   0  0  0  0  0  0
  -24.3602   -9.4215   21.9173 C   0  0  0  0  0  0
  -23.6278   -8.2253   22.0755 C   0  0  0  0  0  0
  -22.4266   -8.0281   21.3543 C   0  0  0  0  0  0
  -21.9894   -9.0249   20.4640 C   0  0  0  0  0  0
  -22.7219  -10.2126   20.3040 C   0  0  0  0  0  0
  -21.6851   -6.0732   22.5274 C   0  0  0  0  0  0
  -21.4008   -6.5636   23.8208 C   0  0  0  0  0  0
  -21.3655   -5.6789   24.9170 C   0  0  0  0  0  0
  -21.6047   -4.3054   24.7227 C   0  0  0  0  0  0
  -21.8820   -3.8146   23.4351 C   0  0  0  0  0  0
  -21.9191   -4.6959   22.3404 C   0  0  0  0  0  0
  -22.7897  -13.5249   21.1805 C   0  0  0  0  0  0
  -22.1662   -4.2145   21.0981 F   0  0  0  0  0  0
  -21.5627   -3.4537   25.7742 F   0  0  0  0  0  0
  -30.0572  -13.1897   20.4619 N   0  0  0  0  0  0
  -26.3072  -12.9266   20.3304 N   0  0  0  0  0  0
  -25.9308  -11.6445   20.5689 N   0  0  0  0  0  0
  -22.0523  -12.8250   22.0360 N   0  0  0  0  0  0
  -25.4402  -15.1849   20.4069 N   0  0  0  0  0  0
  -31.7182  -14.7152   20.0589 O   0  0  0  0  0  0
  -21.6636   -6.8875   21.4239 O   0  0  0  0  0  0
  -22.3590  -14.5556   20.6655 O   0  0  0  0  0  0
  -24.6081  -31.8699   23.2115 C   0  0  0  0  0  0
  -25.8993  -32.4828   23.8394 C   0  0  1  0  0  0
  -27.2323  -27.4722   20.0921 C   0  0  0  0  0  0
  -25.5891  -33.8626   24.2330 N   0  0  0  0  0  0
  -23.3936  -30.4936   21.5515 C   0  0  2  0  0  0
  -24.8412  -28.9606   20.1146 C   0  0  0  0  0  0
  -22.7366  -29.4666   22.5006 C   0  0  0  0  0  0
  -18.0250  -28.1364   22.8455 C   0  0  0  0  0  0
  -24.1493  -36.7302   23.2646 C   0  0  0  0  0  0
  -25.9181  -30.8475   21.3576 C   0  0  0  0  0  0
  -25.9982  -29.4850   20.7034 C   0  0  0  0  0  0
  -27.2007  -28.7482   20.6867 C   0  0  0  0  0  0
  -26.0633  -26.9452   19.5044 C   0  0  0  0  0  0
  -24.8665  -27.6889   19.5126 C   0  0  0  0  0  0
  -23.6009  -29.8258   20.1657 C   0  0  0  0  0  0
  -25.4125  -36.3121   24.0349 C   0  0  1  0  0  0
  -20.5836  -28.3632   23.1322 C   0  0  2  0  0  0
  -20.6748  -26.9381   22.5404 C   0  0  0  0  0  0
  -19.5754  -26.6376   21.5179 C   0  0  0  0  0  0
  -18.1921  -26.7898   22.1595 C   0  0  0  0  0  0
  -19.1498  -28.8814   23.2868 C   0  0  0  0  0  0
  -18.9453  -30.1403   23.8890 C   0  0  0  0  0  0
  -17.6482  -30.6567   24.0562 C   0  0  0  0  0  0
  -25.9048  -34.9481   23.5134 C   0  0  0  0  0  0
  -16.5362  -29.9077   23.6338 C   0  0  0  0  0  0
  -16.7252  -28.6506   23.0333 C   0  0  0  0  0  0
  -26.4442  -31.6598   25.0697 C   0  0  0  0  0  0
  -25.3728  -31.3699   26.1463 C   0  0  0  0  0  0
  -27.0272  -30.3066   24.6007 C   0  0  0  0  0  0
  -27.6000  -32.4328   25.7479 C   0  0  0  0  0  0
  -27.5592  -37.1814   24.8477 C   0  0  0  0  0  0
  -21.4103  -29.3012   22.3746 N   0  0  0  0  0  0
  -26.4310  -37.3800   23.9412 N   0  0  0  0  0  0
  -24.6580  -31.0823   22.1004 N   0  0  0  0  0  0
  -23.4158  -28.8211   23.3030 O   0  0  0  0  0  0
  -28.4010  -26.7585   20.0906 O   0  0  0  0  0  0
  -26.5604  -34.8933   22.4695 O   0  0  0  0  0  0
  -23.5281  -32.1428   23.7550 O   0  0  0  0  0  0
  -30.2914  -18.6815   21.5718 C   0  0  0  0  0  0
  -30.4550  -17.3293   21.2064 C   0  0  0  0  0  0
  -29.7557  -17.9994   23.8497 C   0  0  0  0  0  0
  -29.9525  -19.0214   22.8988 C   0  0  0  0  0  0
  -29.8934  -16.6463   23.4866 C   0  0  0  0  0  0
  -30.2613  -16.3060   22.1634 C   0  0  0  0  0  0
  -29.6339  -15.5688   24.5288 C   0  0  0  0  0  0
  -31.0210  -24.9958   24.1737 C   0  0  0  0  0  0
  -33.2104  -24.8459   20.2595 C   0  0  0  0  0  0
  -32.9218  -22.4238   20.4760 C   0  0  0  0  0  0
  -32.2384  -20.4379   23.9142 C   0  0  0  0  0  0
  -29.8087  -20.4791   23.3258 C   0  0  0  0  0  0
  -29.7582  -25.2390   21.3279 C   0  0  0  0  0  0
  -29.8563  -23.9568   22.1968 C   0  0  0  0  0  0
  -32.4954  -23.9195   22.4382 C   0  0  0  0  0  0
  -30.9746  -22.5534   24.0498 C   0  0  0  0  0  0
  -28.3386  -25.5507   20.8402 C   0  0  0  0  0  0
  -31.0957  -23.8298   23.1484 C   0  0  1  0  0  0
  -30.3437  -14.9288   21.8441 N   0  0  0  0  0  0
  -32.4821  -23.7568   20.9537 N   0  3  0  0  0  0
  -31.0984  -21.2281   23.3698 N   0  3  1  0  0  0
  -31.4703  -12.4272   19.0577 H   0  0  0  0  0  0
  -30.3662  -11.2502   19.7080 H   0  0  0  0  0  0
  -29.7173  -11.8277   17.3719 H   0  0  0  0  0  0
  -29.6582  -13.5251   17.7710 H   0  0  0  0  0  0
  -27.8120  -11.3230   18.7595 H   0  0  0  0  0  0
  -27.3597  -12.6874   17.7747 H   0  0  0  0  0  0
  -27.7446  -14.2485   19.6246 H   0  0  0  0  0  0
  -28.6615  -11.8294   21.2499 H   0  0  0  0  0  0
  -28.4332  -13.4201   21.8873 H   0  0  0  0  0  0
  -25.2754   -9.5692   22.4733 H   0  0  0  0  0  0
  -23.9987   -7.4653   22.7484 H   0  0  0  0  0  0
  -21.0826   -8.8764   19.8951 H   0  0  0  0  0  0
  -22.3687  -10.9653   19.6140 H   0  0  0  0  0  0
  -21.2000   -7.6141   23.9706 H   0  0  0  0  0  0
  -21.1468   -6.0521   25.9068 H   0  0  0  0  0  0
  -22.0603   -2.7607   23.2853 H   0  0  0  0  0  0
  -22.4124  -11.9917   22.4772 H   0  0  0  0  0  0
  -21.1126  -13.1268   22.2519 H   0  0  0  0  0  0
  -24.6799  -15.8453   20.5267 H   0  0  0  0  0  0
  -26.3052  -15.6239   20.1152 H   0  0  0  0  0  0
  -26.7069  -32.5568   23.1164 H   0  0  0  0  0  0
  -25.0035  -33.9793   25.0473 H   0  0  0  0  0  0
  -22.6805  -31.3087   21.4132 H   0  0  0  0  0  0
  -23.3764  -35.9623   23.3322 H   0  0  0  0  0  0
  -24.3588  -36.8896   22.2055 H   0  0  0  0  0  0
  -23.7224  -37.6510   23.6638 H   0  0  0  0  0  0
  -26.0213  -31.6168   20.5930 H   0  0  0  0  0  0
  -26.8092  -30.9004   21.9714 H   0  0  0  0  0  0
  -28.0968  -29.1465   21.1412 H   0  0  0  0  0  0
  -26.0791  -25.9713   19.0364 H   0  0  0  0  0  0
  -23.9761  -27.2764   19.0582 H   0  0  0  0  0  0
  -23.7034  -30.6002   19.4049 H   0  0  0  0  0  0
  -22.7250  -29.2449   19.8711 H   0  0  0  0  0  0
  -25.1288  -36.2010   25.0844 H   0  0  0  0  0  0
  -20.9904  -28.3198   24.1452 H   0  0  0  0  0  0
  -20.5652  -26.2243   23.3578 H   0  0  0  0  0  0
  -21.6625  -26.7427   22.1220 H   0  0  0  0  0  0
  -19.6943  -25.6294   21.1192 H   0  0  0  0  0  0
  -19.6720  -27.3193   20.6723 H   0  0  0  0  0  0
  -17.4189  -26.6607   21.4001 H   0  0  0  0  0  0
  -18.0339  -26.0033   22.8994 H   0  0  0  0  0  0
  -19.7947  -30.7169   24.2294 H   0  0  0  0  0  0
  -17.5062  -31.6267   24.5125 H   0  0  0  0  0  0
  -15.5366  -30.3004   23.7666 H   0  0  0  0  0  0
  -15.8634  -28.0847   22.7055 H   0  0  0  0  0  0
  -24.5890  -30.7054   25.7808 H   0  0  0  0  0  0
  -24.8927  -32.2852   26.4929 H   0  0  0  0  0  0
  -25.8083  -30.8861   27.0208 H   0  0  0  0  0  0
  -26.2786  -29.6872   24.1056 H   0  0  0  0  0  0
  -27.4083  -29.7255   25.4410 H   0  0  0  0  0  0
  -27.8596  -30.4428   23.9103 H   0  0  0  0  0  0
  -27.2581  -33.3611   26.2075 H   0  0  0  0  0  0
  -28.3803  -32.6935   25.0315 H   0  0  0  0  0  0
  -28.0670  -31.8453   26.5397 H   0  0  0  0  0  0
  -28.2596  -38.0112   24.7522 H   0  0  0  0  0  0
  -28.1084  -36.2647   24.6304 H   0  0  0  0  0  0
  -27.2297  -37.1463   25.8870 H   0  0  0  0  0  0
  -20.9252  -29.8758   21.7003 H   0  0  0  0  0  0
  -26.0213  -38.2879   24.1411 H   0  0  0  0  0  0
  -30.4320  -19.4483   20.8231 H   0  0  0  0  0  0
  -30.7049  -17.0984   20.1808 H   0  0  0  0  0  0
  -29.4894  -18.2562   24.8665 H   0  0  0  0  0  0
  -29.3810  -15.9980   25.4988 H   0  0  0  0  0  0
  -30.5188  -14.9459   24.6599 H   0  0  0  0  0  0
  -28.8023  -14.9314   24.2250 H   0  0  0  0  0  0
  -31.1643  -25.9788   23.7250 H   0  0  0  0  0  0
  -31.7888  -24.9062   24.9443 H   0  0  0  0  0  0
  -30.0594  -25.0185   24.6891 H   0  0  0  0  0  0
  -33.1017  -24.7606   19.1791 H   0  0  0  0  0  0
  -34.2736  -24.8265   20.4984 H   0  0  0  0  0  0
  -32.8208  -25.8254   20.5415 H   0  0  0  0  0  0
  -32.8365  -22.3524   19.3901 H   0  0  0  0  0  0
  -32.3172  -21.6219   20.8962 H   0  0  0  0  0  0
  -33.9637  -22.2373   20.7376 H   0  0  0  0  0  0
  -32.4726  -19.5643   23.3032 H   0  0  0  0  0  0
  -32.0337  -20.0921   24.9282 H   0  0  0  0  0  0
  -33.1522  -21.0313   23.9452 H   0  0  0  0  0  0
  -29.3378  -20.4982   24.3093 H   0  0  0  0  0  0
  -29.1130  -20.9779   22.6486 H   0  0  0  0  0  0
  -30.3860  -25.1610   20.4443 H   0  0  0  0  0  0
  -30.1138  -26.1126   21.8733 H   0  0  0  0  0  0
  -29.7751  -23.0892   21.5414 H   0  0  0  0  0  0
  -28.9598  -23.9105   22.8203 H   0  0  0  0  0  0
  -33.2098  -23.2296   22.8876 H   0  0  0  0  0  0
  -32.9305  -24.8957   22.6577 H   0  0  0  0  0  0
  -30.0335  -22.5967   24.6000 H   0  0  0  0  0  0
  -31.7299  -22.6116   24.8387 H   0  0  0  0  0  0
  -27.6743  -25.6611   21.7009 H   0  0  0  0  0  0
  -27.9495  -24.7414   20.2218 H   0  0  0  0  0  0
  -29.7816  -14.3323   22.4296 H   0  0  0  0  0  0
  -31.5193  -23.8758   20.6702 H   0  0  0  0  0  0
  -31.3234  -21.3874   22.4041 H   0  0  0  0  0  0
  1 25  1  0  0  0
  1 30  2  0  0  0
  1 89  1  0  0  0
  2  3  1  0  0  0
  2 25  1  0  0  0
  2 92  1  0  0  0
  2 93  1  0  0  0
  3  4  1  0  0  0
  3 94  1  0  0  0
  3 95  1  0  0  0
  4  5  1  0  0  0
  4 96  1  0  0  0
  4 97  1  0  0  0
  5  6  1  0  0  0
  5 26  1  0  0  0
  5 98  1  0  0  0
  6 25  1  0  0  0
  6 99  1  0  0  0
  6100  1  0  0  0
  7  8  2  0  0  0
  7 26  1  0  0  0
  7 29  1  0  0  0
  8  9  1  0  0  0
  8 22  1  0  0  0
  9 10  1  0  0  0
  9 27  2  0  0  0
 10 11  2  0  0  0
 10 15  1  0  0  0
 11 12  1  0  0  0
 11101  1  0  0  0
 12 13  2  0  0  0
 12102  1  0  0  0
 13 14  1  0  0  0
 13 31  1  0  0  0
 14 15  2  0  0  0
 14103  1  0  0  0
 15104  1  0  0  0
 16 17  2  0  0  0
 16 21  1  0  0  0
 16 31  1  0  0  0
 17 18  1  0  0  0
 17105  1  0  0  0
 18 19  2  0  0  0
 18106  1  0  0  0
 19 20  1  0  0  0
 19 24  1  0  0  0
 20 21  2  0  0  0
 20107  1  0  0  0
 21 23  1  0  0  0
 22 28  1  0  0  0
 22 32  2  0  0  0
 26 27  1  0  0  0
 28108  1  0  0  0
 28109  1  0  0  0
 29110  1  0  0  0
 29111  1  0  0  0
 33 34  1  0  0  0
 33 66  1  0  0  0
 33 70  2  0  0  0
 34 36  1  0  0  0
 34 59  1  0  0  0
 34112  1  0  0  0
 35 44  2  0  0  0
 35 45  1  0  0  0
 35 68  1  0  0  0
 36 56  1  0  0  0
 36113  1  0  0  0
 37 39  1  0  0  0
 37 47  1  0  0  0
 37 66  1  0  0  0
 37114  1  0  0  0
 38 43  2  0  0  0
 38 46  1  0  0  0
 38 47  1  0  0  0
 39 64  1  0  0  0
 39 67  2  0  0  0
 40 52  1  0  0  0
 40 53  2  0  0  0
 40 58  1  0  0  0
 41115  1  0  0  0
 41116  1  0  0  0
 41117  1  0  0  0
 41 48  1  0  0  0
 42 43  1  0  0  0
 42 66  1  0  0  0
 42118  1  0  0  0
 42119  1  0  0  0
 43 44  1  0  0  0
 44120  1  0  0  0
 45 46  2  0  0  0
 45121  1  0  0  0
 46122  1  0  0  0
 47123  1  0  0  0
 47124  1  0  0  0
 48 56  1  0  0  0
 48 65  1  0  0  0
 48125  1  0  0  0
 49 50  1  0  0  0
 49 53  1  0  0  0
 49 64  1  0  0  0
 49126  1  0  0  0
 50 51  1  0  0  0
 50127  1  0  0  0
 50128  1  0  0  0
 51 52  1  0  0  0
 51129  1  0  0  0
 51130  1  0  0  0
 52131  1  0  0  0
 52132  1  0  0  0
 53 54  1  0  0  0
 54 55  2  0  0  0
 54133  1  0  0  0
 55 57  1  0  0  0
 55134  1  0  0  0
 56 69  2  0  0  0
 57 58  2  0  0  0
 57135  1  0  0  0
 58136  1  0  0  0
 59 60  1  0  0  0
 59 61  1  0  0  0
 59 62  1  0  0  0
 60137  1  0  0  0
 60138  1  0  0  0
 60139  1  0  0  0
 61140  1  0  0  0
 61141  1  0  0  0
 61142  1  0  0  0
 62143  1  0  0  0
 62144  1  0  0  0
 62145  1  0  0  0
 63 65  1  0  0  0
 63146  1  0  0  0
 63147  1  0  0  0
 63148  1  0  0  0
 64149  1  0  0  0
 65150  1  0  0  0
 68 87  1  0  0  0
 71 72  2  0  0  0
 71 74  1  0  0  0
 71151  1  0  0  0
 72 76  1  0  0  0
 72152  1  0  0  0
 73 74  2  0  0  0
 73 75  1  0  0  0
 73153  1  0  0  0
 74 82  1  0  0  0
 75 76  2  0  0  0
 75 77  1  0  0  0
 76 89  1  0  0  0
 77154  1  0  0  0
 77155  1  0  0  0
 77156  1  0  0  0
 78157  1  0  0  0
 78158  1  0  0  0
 78159  1  0  0  0
 78 88  1  0  0  0
 79160  1  0  0  0
 79161  1  0  0  0
 79162  1  0  0  0
 79 90  1  0  0  0
 80 90  1  0  0  0
 80163  1  0  0  0
 80164  1  0  0  0
 80165  1  0  0  0
 81166  1  0  0  0
 81167  1  0  0  0
 81168  1  0  0  0
 81 91  1  0  0  0
 82 91  1  0  0  0
 82169  1  0  0  0
 82170  1  0  0  0
 83 84  1  0  0  0
 83 87  1  0  0  0
 83171  1  0  0  0
 83172  1  0  0  0
 84 88  1  0  0  0
 84173  1  0  0  0
 84174  1  0  0  0
 85 88  1  0  0  0
 85 90  1  0  0  0
 85175  1  0  0  0
 85176  1  0  0  0
 86 88  1  0  0  0
 86 91  1  0  0  0
 86177  1  0  0  0
 86178  1  0  0  0
 87179  1  0  0  0
 87180  1  0  0  0
 89181  1  0  0  0
 90182  1  0  0  0
 91183  1  0  0  0
M  CHG  2  90   1  91   1
M  ISO  4   1 100  68 101  87 101  89 100
M  END
> <chiral flag>
0

> <version>
0

> <s_m_source_file>
/data/baiqing/PycharmProjects/Reinvent-master-3.2/result/LINK_invent/BTK/process_docking_weight1_custom_product_contain_oxygen_bond_distance_aromatic_linkinvent_7_9_3/rearranged_h_0019.sdf

> <i_m_source_file_index>
91

> <r_mmod_Potential_Energy-OPLS-2005>
-198.19123840332

> <r_mmod_Stretch_Energy-OPLS-2005>
40.7703819274902

> <r_mmod_Bend_Energy-OPLS-2005>
118.558311462402

> <r_mmod_Torsional_Energy-OPLS-2005>
298.085754394531

> <r_mmod_Improper_Torsional_Energy-OPLS-2005>
4.29540920257568

> <r_mmod_Van_der_Waal_Energy-OPLS-2005>
165.784698486328

> <r_mmod_Electrostatic_Energy-OPLS-2005>
118.507476806641

> <r_mmod_Solvation_Energy-OPLS-2005>
-952.661682128906

> <b_mmod_Minimization_Converged-OPLS-2005>
0

> <r_mmod_RMS_Derivative-OPLS-2005>
2.71457386016846

$$$$
91
                    3D
 Structure written by MMmdl.
168176  0  0  1  0            999 V2000
  -30.6691  -14.6674   20.5587 C   0  0  0  0  0  0
  -30.4262  -12.4326   19.4571 C   0  0  0  0  0  0
  -29.5026  -12.5241   18.2235 C   0  0  0  0  0  0
  -28.0279  -12.3519   18.6324 C   0  0  0  0  0  0
  -27.6454  -13.2302   19.8506 C   0  0  2  0  0  0
  -28.6844  -13.1238   20.9840 C   0  0  0  0  0  0
  -25.2533  -13.8203   20.5682 C   0  0  0  0  0  0
  -24.1820  -13.0447   20.9200 C   0  0  0  0  0  0
  -24.6414  -11.6927   20.8746 C   0  0  0  0  0  0
  -23.9088  -10.4302   21.0404 C   0  0  0  0  0  0
  -24.3638   -9.4217   21.9184 C   0  0  0  0  0  0
  -23.6309   -8.2250   22.0754 C   0  0  0  0  0  0
  -22.4289   -8.0288   21.3545 C   0  0  0  0  0  0
  -21.9925   -9.0264   20.4648 C   0  0  0  0  0  0
  -22.7258  -10.2145   20.3055 C   0  0  0  0  0  0
  -21.6861   -6.0744   22.5280 C   0  0  0  0  0  0
  -21.4019   -6.5644   23.8216 C   0  0  0  0  0  0
  -21.3654   -5.6794   24.9176 C   0  0  0  0  0  0
  -21.6041   -4.3056   24.7225 C   0  0  0  0  0  0
  -21.8821   -3.8152   23.4344 C   0  0  0  0  0  0
  -21.9196   -4.6971   22.3403 C   0  0  0  0  0  0
  -22.7843  -13.5229   21.1866 C   0  0  0  0  0  0
  -22.1666   -4.2158   21.0980 F   0  0  0  0  0  0
  -21.5624   -3.4537   25.7737 F   0  0  0  0  0  0
  -30.0026  -13.4680   20.4300 N   0  0  0  0  0  0
  -26.2954  -12.9406   20.3261 N   0  0  0  0  0  0
  -25.9338  -11.6550   20.5730 N   0  0  0  0  0  0
  -22.0488  -12.8208   22.0419 N   0  0  0  0  0  0
  -25.4248  -15.1923   20.4091 N   0  0  0  0  0  0
  -31.7832  -14.8109   20.0465 O   0  0  0  0  0  0
  -21.6643   -6.8890   21.4245 O   0  0  0  0  0  0
  -22.3522  -14.5535   20.6725 O   0  0  0  0  0  0
  -24.6303  -31.8571   23.2008 C   0  0  0  0  0  0
  -25.9130  -32.4768   23.8349 C   0  0  1  0  0  0
  -27.2155  -27.2762   20.1253 C   0  0  0  0  0  0
  -25.5933  -33.8571   24.2271 N   0  0  0  0  0  0
  -23.4269  -30.4803   21.5442 C   0  0  2  0  0  0
  -24.8737  -28.9317   20.1104 C   0  0  0  0  0  0
  -22.7502  -29.4607   22.4921 C   0  0  0  0  0  0
  -18.0297  -28.1384   22.8485 C   0  0  0  0  0  0
  -24.1488  -36.7284   23.2640 C   0  0  0  0  0  0
  -25.9721  -30.7731   21.3803 C   0  0  0  0  0  0
  -26.0454  -29.3969   20.7219 C   0  0  0  0  0  0
  -27.2228  -28.5819   20.7189 C   0  0  0  0  0  0
  -26.0278  -26.8842   19.4711 C   0  0  0  0  0  0
  -24.8691  -27.6826   19.4728 C   0  0  0  0  0  0
  -23.6441  -29.8175   20.1594 C   0  0  0  0  0  0
  -25.4114  -36.3074   24.0325 C   0  0  1  0  0  0
  -20.5900  -28.3698   23.1272 C   0  0  2  0  0  0
  -20.6789  -26.9415   22.5415 C   0  0  0  0  0  0
  -19.5760  -26.6381   21.5220 C   0  0  0  0  0  0
  -18.1938  -26.7925   22.1620 C   0  0  0  0  0  0
  -19.1549  -28.8856   23.2870 C   0  0  0  0  0  0
  -18.9466  -30.1457   23.8884 C   0  0  0  0  0  0
  -17.6466  -30.6583   24.0560 C   0  0  0  0  0  0
  -25.9056  -34.9446   23.5099 C   0  0  0  0  0  0
  -16.5357  -29.9083   23.6326 C   0  0  0  0  0  0
  -16.7282  -28.6502   23.0346 C   0  0  0  0  0  0
  -26.4495  -31.6589   25.0735 C   0  0  0  0  0  0
  -25.3718  -31.3729   26.1458 C   0  0  0  0  0  0
  -27.0346  -30.3009   24.6213 C   0  0  0  0  0  0
  -27.6038  -32.4350   25.7503 C   0  0  0  0  0  0
  -27.5576  -37.1802   24.8464 C   0  0  0  0  0  0
  -21.4211  -29.3047   22.3660 N   0  0  0  0  0  0
  -26.4287  -37.3775   23.9409 N   0  0  0  0  0  0
  -24.6955  -31.0543   22.0982 N   0  0  0  0  0  0
  -23.4204  -28.8142   23.3015 O   0  0  0  0  0  0
  -28.2973  -26.3705   20.1475 O   0  0  0  0  0  0
  -26.5625  -34.8914   22.4669 O   0  0  0  0  0  0
  -23.5454  -32.1395   23.7304 O   0  0  0  0  0  0
  -28.5729  -22.3540   20.4860 C   0  0  0  0  0  0
  -30.0114  -23.9362   19.3262 C   0  0  0  0  0  0
  -30.4654  -21.5150   19.2480 C   0  0  0  0  0  0
  -28.8776  -23.7307   20.1315 C   0  0  0  0  0  0
  -29.3542  -21.1953   20.0656 C   0  0  0  0  0  0
  -30.7898  -22.8436   18.8939 C   0  0  0  0  0  0
  -30.2034  -14.6599   23.6142 C   0  0  0  0  0  0
  -31.0275  -18.7855   21.6169 C   0  0  0  0  0  0
  -30.8416  -18.2087   19.2128 C   0  0  0  0  0  0
  -28.0032  -24.9681   20.5979 C   0  0  0  0  0  0
  -30.5556  -15.8388   22.6883 C   0  0  0  0  0  0
  -29.3414  -16.9359   20.7791 C   0  0  0  0  0  0
  -28.9511  -19.6588   20.3590 C   0  0  1  0  0  0
  -30.0211  -18.4063   20.5091 C   0  0  0  0  0  0
  -30.0991  -15.6995   21.2899 N   0  0  0  0  0  0
  -28.0419  -19.6348   21.5151 N   0  3  0  0  0  0
  -31.8653  -23.0700   18.1027 F   0  0  0  0  0  0
  -31.4664  -12.5500   19.1497 H   0  0  0  0  0  0
  -30.3651  -11.4426   19.9122 H   0  0  0  0  0  0
  -29.7754  -11.7659   17.4883 H   0  0  0  0  0  0
  -29.6374  -13.4889   17.7317 H   0  0  0  0  0  0
  -27.8688  -11.2989   18.8678 H   0  0  0  0  0  0
  -27.3729  -12.5768   17.7891 H   0  0  0  0  0  0
  -27.6540  -14.2621   19.4984 H   0  0  0  0  0  0
  -28.7029  -12.1190   21.4081 H   0  0  0  0  0  0
  -28.3914  -13.7913   21.7910 H   0  0  0  0  0  0
  -25.2788   -9.5686   22.4755 H   0  0  0  0  0  0
  -24.0022   -7.4637   22.7469 H   0  0  0  0  0  0
  -21.0855   -8.8784   19.8951 H   0  0  0  0  0  0
  -22.3719  -10.9684   19.6159 H   0  0  0  0  0  0
  -21.2015   -7.6154   23.9723 H   0  0  0  0  0  0
  -21.1469   -6.0521   25.9080 H   0  0  0  0  0  0
  -22.0606   -2.7615   23.2840 H   0  0  0  0  0  0
  -22.4104  -11.9857   22.4782 H   0  0  0  0  0  0
  -21.1102  -13.1218   22.2627 H   0  0  0  0  0  0
  -24.6550  -15.8463   20.4979 H   0  0  0  0  0  0
  -26.2726  -15.6200   20.0614 H   0  0  0  0  0  0
  -26.7197  -32.5417   23.1092 H   0  0  0  0  0  0
  -25.0078  -33.9718   25.0414 H   0  0  0  0  0  0
  -22.7224  -31.3023   21.4010 H   0  0  0  0  0  0
  -23.3751  -35.9617   23.3304 H   0  0  0  0  0  0
  -24.3579  -36.8918   22.2057 H   0  0  0  0  0  0
  -23.7249  -37.6484   23.6673 H   0  0  0  0  0  0
  -26.1121  -31.5339   20.6107 H   0  0  0  0  0  0
  -26.8493  -30.8213   22.0141 H   0  0  0  0  0  0
  -28.1204  -28.9320   21.2100 H   0  0  0  0  0  0
  -25.9805  -25.9367   18.9544 H   0  0  0  0  0  0
  -23.9765  -27.3269   18.9769 H   0  0  0  0  0  0
  -23.7692  -30.5960   19.4060 H   0  0  0  0  0  0
  -22.7622  -29.2523   19.8525 H   0  0  0  0  0  0
  -25.1302  -36.1919   25.0817 H   0  0  0  0  0  0
  -20.9986  -28.3286   24.1394 H   0  0  0  0  0  0
  -20.5709  -26.2306   23.3624 H   0  0  0  0  0  0
  -21.6658  -26.7458   22.1200 H   0  0  0  0  0  0
  -19.6925  -25.6291   21.1257 H   0  0  0  0  0  0
  -19.6697  -27.3181   20.6743 H   0  0  0  0  0  0
  -17.4219  -26.6679   21.4010 H   0  0  0  0  0  0
  -18.0322  -26.0068   22.9011 H   0  0  0  0  0  0
  -19.7946  -30.7278   24.2245 H   0  0  0  0  0  0
  -17.5025  -31.6262   24.5168 H   0  0  0  0  0  0
  -15.5357  -30.2980   23.7661 H   0  0  0  0  0  0
  -15.8685  -28.0825   22.7052 H   0  0  0  0  0  0
  -24.5908  -30.7057   25.7796 H   0  0  0  0  0  0
  -24.8884  -32.2887   26.4866 H   0  0  0  0  0  0
  -25.8049  -30.8932   27.0247 H   0  0  0  0  0  0
  -26.2931  -29.6757   24.1224 H   0  0  0  0  0  0
  -27.4018  -29.7273   25.4735 H   0  0  0  0  0  0
  -27.8816  -30.4290   23.9469 H   0  0  0  0  0  0
  -27.2632  -33.3669   26.2029 H   0  0  0  0  0  0
  -28.3856  -32.6894   25.0333 H   0  0  0  0  0  0
  -28.0687  -31.8516   26.5458 H   0  0  0  0  0  0
  -28.2590  -38.0101   24.7520 H   0  0  0  0  0  0
  -28.1078  -36.2636   24.6286 H   0  0  0  0  0  0
  -27.2296  -37.1452   25.8867 H   0  0  0  0  0  0
  -20.9396  -29.8773   21.6869 H   0  0  0  0  0  0
  -26.0160  -38.2846   24.1419 H   0  0  0  0  0  0
  -27.6873  -22.2045   21.0862 H   0  0  0  0  0  0
  -30.2843  -24.9363   19.0222 H   0  0  0  0  0  0
  -31.0916  -20.7522   18.8292 H   0  0  0  0  0  0
  -30.6204  -14.8225   24.6084 H   0  0  0  0  0  0
  -30.6025  -13.7103   23.2557 H   0  0  0  0  0  0
  -29.1257  -14.5584   23.7408 H   0  0  0  0  0  0
  -31.8380  -18.0615   21.6936 H   0  0  0  0  0  0
  -30.5555  -18.8674   22.5950 H   0  0  0  0  0  0
  -31.4963  -19.7490   21.4143 H   0  0  0  0  0  0
  -31.2515  -17.2032   19.1459 H   0  0  0  0  0  0
  -31.7163  -18.8534   19.1560 H   0  0  0  0  0  0
  -30.2359  -18.3598   18.3190 H   0  0  0  0  0  0
  -28.0733  -24.9866   21.6859 H   0  0  0  0  0  0
  -26.9706  -24.6858   20.4027 H   0  0  0  0  0  0
  -31.6388  -15.9749   22.6906 H   0  0  0  0  0  0
  -30.1365  -16.7347   23.1431 H   0  0  0  0  0  0
  -28.8365  -16.6289   19.8611 H   0  0  0  0  0  0
  -28.5222  -17.0549   21.4872 H   0  0  0  0  0  0
  -28.3234  -19.3938   19.5057 H   0  0  0  0  0  0
  -28.5161  -19.9398   22.3457 H   0  0  0  0  0  0
  -27.6876  -18.7073   21.6608 H   0  0  0  0  0  0
  -27.2601  -20.2403   21.3470 H   0  0  0  0  0  0
  1 25  1  0  0  0
  1 30  2  0  0  0
  1 85  1  0  0  0
  2  3  1  0  0  0
  2 25  1  0  0  0
  2 88  1  0  0  0
  2 89  1  0  0  0
  3  4  1  0  0  0
  3 90  1  0  0  0
  3 91  1  0  0  0
  4  5  1  0  0  0
  4 92  1  0  0  0
  4 93  1  0  0  0
  5  6  1  0  0  0
  5 26  1  0  0  0
  5 94  1  0  0  0
  6 25  1  0  0  0
  6 95  1  0  0  0
  6 96  1  0  0  0
  7  8  2  0  0  0
  7 26  1  0  0  0
  7 29  1  0  0  0
  8  9  1  0  0  0
  8 22  1  0  0  0
  9 10  1  0  0  0
  9 27  2  0  0  0
 10 11  2  0  0  0
 10 15  1  0  0  0
 11 12  1  0  0  0
 11 97  1  0  0  0
 12 13  2  0  0  0
 12 98  1  0  0  0
 13 14  1  0  0  0
 13 31  1  0  0  0
 14 15  2  0  0  0
 14 99  1  0  0  0
 15100  1  0  0  0
 16 17  2  0  0  0
 16 21  1  0  0  0
 16 31  1  0  0  0
 17 18  1  0  0  0
 17101  1  0  0  0
 18 19  2  0  0  0
 18102  1  0  0  0
 19 20  1  0  0  0
 19 24  1  0  0  0
 20 21  2  0  0  0
 20103  1  0  0  0
 21 23  1  0  0  0
 22 28  1  0  0  0
 22 32  2  0  0  0
 26 27  1  0  0  0
 28104  1  0  0  0
 28105  1  0  0  0
 29106  1  0  0  0
 29107  1  0  0  0
 33 34  1  0  0  0
 33 66  1  0  0  0
 33 70  2  0  0  0
 34 36  1  0  0  0
 34 59  1  0  0  0
 34108  1  0  0  0
 35 44  2  0  0  0
 35 45  1  0  0  0
 35 68  1  0  0  0
 36 56  1  0  0  0
 36109  1  0  0  0
 37 39  1  0  0  0
 37 47  1  0  0  0
 37 66  1  0  0  0
 37110  1  0  0  0
 38 43  2  0  0  0
 38 46  1  0  0  0
 38 47  1  0  0  0
 39 64  1  0  0  0
 39 67  2  0  0  0
 40 52  1  0  0  0
 40 53  2  0  0  0
 40 58  1  0  0  0
 41111  1  0  0  0
 41112  1  0  0  0
 41113  1  0  0  0
 41 48  1  0  0  0
 42 43  1  0  0  0
 42 66  1  0  0  0
 42114  1  0  0  0
 42115  1  0  0  0
 43 44  1  0  0  0
 44116  1  0  0  0
 45 46  2  0  0  0
 45117  1  0  0  0
 46118  1  0  0  0
 47119  1  0  0  0
 47120  1  0  0  0
 48 56  1  0  0  0
 48 65  1  0  0  0
 48121  1  0  0  0
 49 50  1  0  0  0
 49 53  1  0  0  0
 49 64  1  0  0  0
 49122  1  0  0  0
 50 51  1  0  0  0
 50123  1  0  0  0
 50124  1  0  0  0
 51 52  1  0  0  0
 51125  1  0  0  0
 51126  1  0  0  0
 52127  1  0  0  0
 52128  1  0  0  0
 53 54  1  0  0  0
 54 55  2  0  0  0
 54129  1  0  0  0
 55 57  1  0  0  0
 55130  1  0  0  0
 56 69  2  0  0  0
 57 58  2  0  0  0
 57131  1  0  0  0
 58132  1  0  0  0
 59 60  1  0  0  0
 59 61  1  0  0  0
 59 62  1  0  0  0
 60133  1  0  0  0
 60134  1  0  0  0
 60135  1  0  0  0
 61136  1  0  0  0
 61137  1  0  0  0
 61138  1  0  0  0
 62139  1  0  0  0
 62140  1  0  0  0
 62141  1  0  0  0
 63 65  1  0  0  0
 63142  1  0  0  0
 63143  1  0  0  0
 63144  1  0  0  0
 64145  1  0  0  0
 65146  1  0  0  0
 68 80  1  0  0  0
 71 74  2  0  0  0
 71 75  1  0  0  0
 71147  1  0  0  0
 72 74  1  0  0  0
 72 76  2  0  0  0
 72148  1  0  0  0
 73 75  2  0  0  0
 73 76  1  0  0  0
 73149  1  0  0  0
 74 80  1  0  0  0
 75 83  1  0  0  0
 76 87  1  0  0  0
 77 81  1  0  0  0
 77150  1  0  0  0
 77151  1  0  0  0
 77152  1  0  0  0
 78153  1  0  0  0
 78154  1  0  0  0
 78155  1  0  0  0
 78 84  1  0  0  0
 79 84  1  0  0  0
 79156  1  0  0  0
 79157  1  0  0  0
 79158  1  0  0  0
 80159  1  0  0  0
 80160  1  0  0  0
 81 85  1  0  0  0
 81161  1  0  0  0
 81162  1  0  0  0
 82 84  1  0  0  0
 82 85  1  0  0  0
 82163  1  0  0  0
 82164  1  0  0  0
 83 84  1  0  0  0
 83 86  1  0  0  0
 83165  1  0  0  0
 86166  1  0  0  0
 86167  1  0  0  0
 86168  1  0  0  0
M  CHG  1  86   1
M  ISO  4   1 100  68 101  80 101  85 100
M  END
> <chiral flag>
0

> <version>
0

> <s_m_source_file>
/data/baiqing/PycharmProjects/Reinvent-master-3.2/result/LINK_invent/BTK/process_docking_weight1_custom_product_contain_oxygen_bond_distance_aromatic_linkinvent_7_9_3/rearranged_h_0019.sdf

> <i_m_source_file_index>
92

> <r_mmod_Potential_Energy-OPLS-2005>
132.460739135742

> <r_mmod_Stretch_Energy-OPLS-2005>
139.584243774414

> <r_mmod_Bend_Energy-OPLS-2005>
181.803894042969

> <r_mmod_Torsional_Energy-OPLS-2005>
353.969665527344

> <r_mmod_Improper_Torsional_Energy-OPLS-2005>
2.98138189315796

> <r_mmod_Van_der_Waal_Energy-OPLS-2005>
144.882781982422

> <r_mmod_Electrostatic_Energy-OPLS-2005>
-262.106414794922

> <r_mmod_Solvation_Energy-OPLS-2005>
-493.033660888672

> <b_mmod_Minimization_Converged-OPLS-2005>
0

> <r_mmod_RMS_Derivative-OPLS-2005>
1.03489089012146

$$$$
92
                    3D
 Structure written by MMmdl.
162170  0  0  1  0            999 V2000
  -30.7555  -14.4121   20.6627 C   0  0  0  0  0  0
  -30.4123  -12.3016   19.4194 C   0  0  0  0  0  0
  -29.4979  -12.5202   18.1988 C   0  0  0  0  0  0
  -28.0141  -12.3899   18.5926 C   0  0  0  0  0  0
  -27.6578  -13.2126   19.8574 C   0  0  2  0  0  0
  -28.6828  -12.9791   20.9821 C   0  0  0  0  0  0
  -25.2584  -13.8192   20.5631 C   0  0  0  0  0  0
  -24.1853  -13.0453   20.9136 C   0  0  0  0  0  0
  -24.6409  -11.6924   20.8706 C   0  0  0  0  0  0
  -23.9065  -10.4301   21.0397 C   0  0  0  0  0  0
  -24.3623   -9.4219   21.9179 C   0  0  0  0  0  0
  -23.6309   -8.2251   22.0748 C   0  0  0  0  0  0
  -22.4285   -8.0286   21.3538 C   0  0  0  0  0  0
  -21.9907   -9.0260   20.4646 C   0  0  0  0  0  0
  -22.7226  -10.2142   20.3055 C   0  0  0  0  0  0
  -21.6865   -6.0741   22.5281 C   0  0  0  0  0  0
  -21.4011   -6.5637   23.8217 C   0  0  0  0  0  0
  -21.3664   -5.6793   24.9177 C   0  0  0  0  0  0
  -21.6049   -4.3053   24.7229 C   0  0  0  0  0  0
  -21.8821   -3.8148   23.4344 C   0  0  0  0  0  0
  -21.9190   -4.6971   22.3406 C   0  0  0  0  0  0
  -22.7867  -13.5231   21.1865 C   0  0  0  0  0  0
  -22.1665   -4.2146   21.0985 F   0  0  0  0  0  0
  -21.5632   -3.4540   25.7740 F   0  0  0  0  0  0
  -30.0300  -13.2732   20.4583 N   0  0  0  0  0  0
  -26.2991  -12.9368   20.3207 N   0  0  0  0  0  0
  -25.9316  -11.6520   20.5639 N   0  0  0  0  0  0
  -22.0514  -12.8236   22.0418 N   0  0  0  0  0  0
  -25.4331  -15.1915   20.4100 N   0  0  0  0  0  0
  -31.8126  -14.6350   20.0607 O   0  0  0  0  0  0
  -21.6648   -6.8883   21.4243 O   0  0  0  0  0  0
  -22.3540  -14.5564   20.6722 O   0  0  0  0  0  0
  -24.6184  -31.8634   23.2065 C   0  0  0  0  0  0
  -25.9061  -32.4807   23.8382 C   0  0  1  0  0  0
  -27.2396  -27.4263   20.0864 C   0  0  0  0  0  0
  -25.5893  -33.8607   24.2304 N   0  0  0  0  0  0
  -23.4062  -30.4879   21.5488 C   0  0  2  0  0  0
  -24.8516  -28.9425   20.1240 C   0  0  0  0  0  0
  -22.7413  -29.4655   22.4998 C   0  0  0  0  0  0
  -18.0274  -28.1393   22.8486 C   0  0  0  0  0  0
  -24.1476  -36.7317   23.2644 C   0  0  0  0  0  0
  -25.9329  -30.8323   21.3523 C   0  0  0  0  0  0
  -26.0161  -29.4615   20.7056 C   0  0  0  0  0  0
  -27.2183  -28.7137   20.6742 C   0  0  0  0  0  0
  -26.0522  -26.9105   19.5272 C   0  0  0  0  0  0
  -24.8642  -27.6658   19.5359 C   0  0  0  0  0  0
  -23.6146  -29.8130   20.1649 C   0  0  0  0  0  0
  -25.4092  -36.3113   24.0347 C   0  0  1  0  0  0
  -20.5865  -28.3676   23.1306 C   0  0  2  0  0  0
  -20.6774  -26.9411   22.5417 C   0  0  0  0  0  0
  -19.5747  -26.6385   21.5221 C   0  0  0  0  0  0
  -18.1914  -26.7938   22.1625 C   0  0  0  0  0  0
  -19.1525  -28.8851   23.2899 C   0  0  0  0  0  0
  -18.9465  -30.1461   23.8901 C   0  0  0  0  0  0
  -17.6467  -30.6603   24.0564 C   0  0  0  0  0  0
  -25.9021  -34.9480   23.5118 C   0  0  0  0  0  0
  -16.5350  -29.9106   23.6335 C   0  0  0  0  0  0
  -16.7265  -28.6528   23.0346 C   0  0  0  0  0  0
  -26.4472  -31.6608   25.0726 C   0  0  0  0  0  0
  -25.3718  -31.3709   26.1469 C   0  0  0  0  0  0
  -27.0318  -30.3080   24.6059 C   0  0  0  0  0  0
  -27.6067  -32.4318   25.7458 C   0  0  0  0  0  0
  -27.5581  -37.1797   24.8463 C   0  0  0  0  0  0
  -21.4146  -29.3027   22.3719 N   0  0  0  0  0  0
  -26.4280  -37.3806   23.9426 N   0  0  0  0  0  0
  -24.6723  -31.0759   22.0950 N   0  0  0  0  0  0
  -23.4169  -28.8204   23.3056 O   0  0  0  0  0  0
  -28.4073  -26.6932   20.0385 O   0  0  0  0  0  0
  -26.5610  -34.8940   22.4690 O   0  0  0  0  0  0
  -23.5378  -32.1376   23.7473 O   0  0  0  0  0  0
  -30.0142  -18.4724   19.3727 C   0  0  0  0  0  0
  -29.9631  -17.1192   19.7825 C   0  0  0  0  0  0
  -30.3749  -19.1469   21.6663 C   0  0  0  0  0  0
  -30.2437  -19.5032   20.3101 C   0  0  0  0  0  0
  -30.1819  -16.7399   21.1375 C   0  0  0  0  0  0
  -30.3576  -17.7985   22.0770 C   0  0  0  0  0  0
  -30.2589  -14.9546   22.9440 C   0  0  0  0  0  0
  -28.4251  -21.3186   18.5263 C   0  0  0  0  0  0
  -30.4564  -20.9680   19.8872 C   0  0  0  0  0  0
  -28.2191  -24.1495   19.8533 C   0  0  0  0  0  0
  -29.4875  -23.2569   19.6869 C   0  0  0  0  0  0
  -28.3891  -25.4322   20.7273 C   0  0  0  0  0  0
  -30.2465  -15.3346   21.5189 N   0  0  0  0  0  0
  -29.2175  -21.7791   19.6944 N   0  3  1  0  0  0
  -30.5519  -17.5641   23.3946 F   0  0  0  0  0  0
  -31.4604  -12.3861   19.1235 H   0  0  0  0  0  0
  -30.3006  -11.2847   19.7977 H   0  0  0  0  0  0
  -29.7434  -11.8051   17.4099 H   0  0  0  0  0  0
  -29.6856  -13.5110   17.7803 H   0  0  0  0  0  0
  -27.8065  -11.3325   18.7632 H   0  0  0  0  0  0
  -27.3818  -12.6959   17.7591 H   0  0  0  0  0  0
  -27.7085  -14.2670   19.5812 H   0  0  0  0  0  0
  -28.6403  -11.9453   21.3293 H   0  0  0  0  0  0
  -28.3938  -13.5849   21.8372 H   0  0  0  0  0  0
  -25.2771   -9.5705   22.4743 H   0  0  0  0  0  0
  -24.0024   -7.4640   22.7461 H   0  0  0  0  0  0
  -21.0831   -8.8777   19.8961 H   0  0  0  0  0  0
  -22.3679  -10.9684   19.6170 H   0  0  0  0  0  0
  -21.2005   -7.6140   23.9717 H   0  0  0  0  0  0
  -21.1490   -6.0522   25.9082 H   0  0  0  0  0  0
  -22.0599   -2.7605   23.2850 H   0  0  0  0  0  0
  -22.4119  -11.9895   22.4821 H   0  0  0  0  0  0
  -21.1126  -13.1283   22.2622 H   0  0  0  0  0  0
  -24.6787  -15.8535   20.5426 H   0  0  0  0  0  0
  -26.2991  -15.6295   20.1253 H   0  0  0  0  0  0
  -26.7110  -32.5533   23.1142 H   0  0  0  0  0  0
  -25.0052  -33.9752   25.0458 H   0  0  0  0  0  0
  -22.6955  -31.3051   21.4041 H   0  0  0  0  0  0
  -23.3753  -35.9640   23.3313 H   0  0  0  0  0  0
  -24.3554  -36.8931   22.2053 H   0  0  0  0  0  0
  -23.7208  -37.6519   23.6644 H   0  0  0  0  0  0
  -26.0244  -31.5872   20.5702 H   0  0  0  0  0  0
  -26.8274  -30.9023   21.9587 H   0  0  0  0  0  0
  -28.1276  -29.1141   21.1009 H   0  0  0  0  0  0
  -26.0432  -25.9283   19.0765 H   0  0  0  0  0  0
  -23.9649  -27.2530   19.1000 H   0  0  0  0  0  0
  -23.7229  -30.5811   19.3970 H   0  0  0  0  0  0
  -22.7364  -29.2329   19.8782 H   0  0  0  0  0  0
  -25.1263  -36.1981   25.0844 H   0  0  0  0  0  0
  -20.9944  -28.3248   24.1444 H   0  0  0  0  0  0
  -20.5660  -26.2287   23.3612 H   0  0  0  0  0  0
  -21.6644  -26.7449   22.1216 H   0  0  0  0  0  0
  -19.6904  -25.6289   21.1262 H   0  0  0  0  0  0
  -19.6707  -27.3193   20.6744 H   0  0  0  0  0  0
  -17.4189  -26.6683   21.4033 H   0  0  0  0  0  0
  -18.0334  -26.0082   22.9018 H   0  0  0  0  0  0
  -19.7931  -30.7288   24.2262 H   0  0  0  0  0  0
  -17.5018  -31.6283   24.5177 H   0  0  0  0  0  0
  -15.5350  -30.3018   23.7676 H   0  0  0  0  0  0
  -15.8658  -28.0870   22.7053 H   0  0  0  0  0  0
  -24.5903  -30.7038   25.7798 H   0  0  0  0  0  0
  -24.8893  -32.2866   26.4909 H   0  0  0  0  0  0
  -25.8079  -30.8885   27.0223 H   0  0  0  0  0  0
  -26.2858  -29.6823   24.1139 H   0  0  0  0  0  0
  -27.4164  -29.7340   25.4496 H   0  0  0  0  0  0
  -27.8644  -30.4477   23.9156 H   0  0  0  0  0  0
  -27.2728  -33.3626   26.2051 H   0  0  0  0  0  0
  -28.3859  -32.6845   25.0253 H   0  0  0  0  0  0
  -28.0725  -31.8403   26.5350 H   0  0  0  0  0  0
  -28.2599  -38.0101   24.7560 H   0  0  0  0  0  0
  -28.1078  -36.2645   24.6224 H   0  0  0  0  0  0
  -27.2308  -37.1378   25.8868 H   0  0  0  0  0  0
  -20.9324  -29.8742   21.6930 H   0  0  0  0  0  0
  -26.0184  -38.2882   24.1477 H   0  0  0  0  0  0
  -29.9027  -18.7050   18.3220 H   0  0  0  0  0  0
  -29.7901  -16.3704   19.0222 H   0  0  0  0  0  0
  -30.5453  -19.9110   22.4120 H   0  0  0  0  0  0
  -29.4129  -15.3977   23.4717 H   0  0  0  0  0  0
  -31.1844  -15.2739   23.4198 H   0  0  0  0  0  0
  -30.1994  -13.8794   23.1149 H   0  0  0  0  0  0
  -28.0762  -20.2966   18.6808 H   0  0  0  0  0  0
  -29.0179  -21.3370   17.6102 H   0  0  0  0  0  0
  -27.5356  -21.9267   18.3683 H   0  0  0  0  0  0
  -31.0700  -21.0133   18.9865 H   0  0  0  0  0  0
  -31.0623  -21.4303   20.6678 H   0  0  0  0  0  0
  -27.4411  -23.5514   20.3254 H   0  0  0  0  0  0
  -27.8205  -24.4032   18.8688 H   0  0  0  0  0  0
  -30.1861  -23.4790   20.4961 H   0  0  0  0  0  0
  -30.0114  -23.5350   18.7684 H   0  0  0  0  0  0
  -27.5987  -25.4434   21.4820 H   0  0  0  0  0  0
  -29.3149  -25.3699   21.3009 H   0  0  0  0  0  0
  -28.6572  -21.5992   20.5121 H   0  0  0  0  0  0
  1 25  1  0  0  0
  1 30  2  0  0  0
  1 83  1  0  0  0
  2  3  1  0  0  0
  2 25  1  0  0  0
  2 86  1  0  0  0
  2 87  1  0  0  0
  3  4  1  0  0  0
  3 88  1  0  0  0
  3 89  1  0  0  0
  4  5  1  0  0  0
  4 90  1  0  0  0
  4 91  1  0  0  0
  5  6  1  0  0  0
  5 26  1  0  0  0
  5 92  1  0  0  0
  6 25  1  0  0  0
  6 93  1  0  0  0
  6 94  1  0  0  0
  7  8  2  0  0  0
  7 26  1  0  0  0
  7 29  1  0  0  0
  8  9  1  0  0  0
  8 22  1  0  0  0
  9 10  1  0  0  0
  9 27  2  0  0  0
 10 11  2  0  0  0
 10 15  1  0  0  0
 11 12  1  0  0  0
 11 95  1  0  0  0
 12 13  2  0  0  0
 12 96  1  0  0  0
 13 14  1  0  0  0
 13 31  1  0  0  0
 14 15  2  0  0  0
 14 97  1  0  0  0
 15 98  1  0  0  0
 16 17  2  0  0  0
 16 21  1  0  0  0
 16 31  1  0  0  0
 17 18  1  0  0  0
 17 99  1  0  0  0
 18 19  2  0  0  0
 18100  1  0  0  0
 19 20  1  0  0  0
 19 24  1  0  0  0
 20 21  2  0  0  0
 20101  1  0  0  0
 21 23  1  0  0  0
 22 28  1  0  0  0
 22 32  2  0  0  0
 26 27  1  0  0  0
 28102  1  0  0  0
 28103  1  0  0  0
 29104  1  0  0  0
 29105  1  0  0  0
 33 34  1  0  0  0
 33 66  1  0  0  0
 33 70  2  0  0  0
 34 36  1  0  0  0
 34 59  1  0  0  0
 34106  1  0  0  0
 35 44  2  0  0  0
 35 45  1  0  0  0
 35 68  1  0  0  0
 36 56  1  0  0  0
 36107  1  0  0  0
 37 39  1  0  0  0
 37 47  1  0  0  0
 37 66  1  0  0  0
 37108  1  0  0  0
 38 43  2  0  0  0
 38 46  1  0  0  0
 38 47  1  0  0  0
 39 64  1  0  0  0
 39 67  2  0  0  0
 40 52  1  0  0  0
 40 53  2  0  0  0
 40 58  1  0  0  0
 41109  1  0  0  0
 41110  1  0  0  0
 41111  1  0  0  0
 41 48  1  0  0  0
 42 43  1  0  0  0
 42 66  1  0  0  0
 42112  1  0  0  0
 42113  1  0  0  0
 43 44  1  0  0  0
 44114  1  0  0  0
 45 46  2  0  0  0
 45115  1  0  0  0
 46116  1  0  0  0
 47117  1  0  0  0
 47118  1  0  0  0
 48 56  1  0  0  0
 48 65  1  0  0  0
 48119  1  0  0  0
 49 50  1  0  0  0
 49 53  1  0  0  0
 49 64  1  0  0  0
 49120  1  0  0  0
 50 51  1  0  0  0
 50121  1  0  0  0
 50122  1  0  0  0
 51 52  1  0  0  0
 51123  1  0  0  0
 51124  1  0  0  0
 52125  1  0  0  0
 52126  1  0  0  0
 53 54  1  0  0  0
 54 55  2  0  0  0
 54127  1  0  0  0
 55 57  1  0  0  0
 55128  1  0  0  0
 56 69  2  0  0  0
 57 58  2  0  0  0
 57129  1  0  0  0
 58130  1  0  0  0
 59 60  1  0  0  0
 59 61  1  0  0  0
 59 62  1  0  0  0
 60131  1  0  0  0
 60132  1  0  0  0
 60133  1  0  0  0
 61134  1  0  0  0
 61135  1  0  0  0
 61136  1  0  0  0
 62137  1  0  0  0
 62138  1  0  0  0
 62139  1  0  0  0
 63 65  1  0  0  0
 63140  1  0  0  0
 63141  1  0  0  0
 63142  1  0  0  0
 64143  1  0  0  0
 65144  1  0  0  0
 68 82  1  0  0  0
 71 72  2  0  0  0
 71 74  1  0  0  0
 71145  1  0  0  0
 72 75  1  0  0  0
 72146  1  0  0  0
 73 74  2  0  0  0
 73 76  1  0  0  0
 73147  1  0  0  0
 74 79  1  0  0  0
 75 76  2  0  0  0
 75 83  1  0  0  0
 76 85  1  0  0  0
 77 83  1  0  0  0
 77148  1  0  0  0
 77149  1  0  0  0
 77150  1  0  0  0
 78151  1  0  0  0
 78152  1  0  0  0
 78153  1  0  0  0
 78 84  1  0  0  0
 79 84  1  0  0  0
 79154  1  0  0  0
 79155  1  0  0  0
 80 81  1  0  0  0
 80 82  1  0  0  0
 80156  1  0  0  0
 80157  1  0  0  0
 81 84  1  0  0  0
 81158  1  0  0  0
 81159  1  0  0  0
 82160  1  0  0  0
 82161  1  0  0  0
 84162  1  0  0  0
M  CHG  1  84   1
M  ISO  4   1 100  68 101  82 101  83 100
M  END
> <chiral flag>
0

> <version>
0

> <s_m_source_file>
/data/baiqing/PycharmProjects/Reinvent-master-3.2/result/LINK_invent/BTK/process_docking_weight1_custom_product_contain_oxygen_bond_distance_aromatic_linkinvent_7_9_3/rearranged_h_0019.sdf

> <i_m_source_file_index>
93

> <r_mmod_Potential_Energy-OPLS-2005>
-5.08770847320557

> <r_mmod_Stretch_Energy-OPLS-2005>
47.7403793334961

> <r_mmod_Bend_Energy-OPLS-2005>
107.14151763916

> <r_mmod_Torsional_Energy-OPLS-2005>
307.034240722656

> <r_mmod_Improper_Torsional_Energy-OPLS-2005>
3.27989721298218

> <r_mmod_Van_der_Waal_Energy-OPLS-2005>
167.20915222168

> <r_mmod_Electrostatic_Energy-OPLS-2005>
-203.203659057617

> <r_mmod_Solvation_Energy-OPLS-2005>
-444.204864501953

> <b_mmod_Minimization_Converged-OPLS-2005>
0

> <r_mmod_RMS_Derivative-OPLS-2005>
3.97116446495056

$$$$
93
                    3D
 Structure written by MMmdl.
164172  0  0  1  0            999 V2000
  -30.7338  -14.5044   20.5703 C   0  0  0  0  0  0
  -30.4169  -12.3385   19.4241 C   0  0  0  0  0  0
  -29.4882  -12.4978   18.2056 C   0  0  0  0  0  0
  -28.0153  -12.3314   18.6253 C   0  0  0  0  0  0
  -27.6488  -13.1936   19.8596 C   0  0  2  0  0  0
  -28.6977  -13.0452   20.9867 C   0  0  0  0  0  0
  -25.2574  -13.8108   20.5679 C   0  0  0  0  0  0
  -24.1821  -13.0411   20.9202 C   0  0  0  0  0  0
  -24.6361  -11.6875   20.8761 C   0  0  0  0  0  0
  -23.9028  -10.4274   21.0431 C   0  0  0  0  0  0
  -24.3590   -9.4195   21.9200 C   0  0  0  0  0  0
  -23.6284   -8.2225   22.0757 C   0  0  0  0  0  0
  -22.4266   -8.0271   21.3546 C   0  0  0  0  0  0
  -21.9897   -9.0238   20.4643 C   0  0  0  0  0  0
  -22.7215  -10.2122   20.3068 C   0  0  0  0  0  0
  -21.6842   -6.0733   22.5278 C   0  0  0  0  0  0
  -21.4005   -6.5635   23.8213 C   0  0  0  0  0  0
  -21.3663   -5.6792   24.9174 C   0  0  0  0  0  0
  -21.6048   -4.3056   24.7230 C   0  0  0  0  0  0
  -21.8822   -3.8144   23.4348 C   0  0  0  0  0  0
  -21.9189   -4.6960   22.3400 C   0  0  0  0  0  0
  -22.7854  -13.5238   21.1862 C   0  0  0  0  0  0
  -22.1660   -4.2148   21.0980 F   0  0  0  0  0  0
  -21.5633   -3.4542   25.7742 F   0  0  0  0  0  0
  -30.0231  -13.3485   20.4219 N   0  0  0  0  0  0
  -26.2965  -12.9235   20.3327 N   0  0  0  0  0  0
  -25.9280  -11.6417   20.5786 N   0  0  0  0  0  0
  -22.0474  -12.8232   22.0402 N   0  0  0  0  0  0
  -25.4295  -15.1823   20.4044 N   0  0  0  0  0  0
  -31.8720  -14.6314   20.1086 O   0  0  0  0  0  0
  -21.6628   -6.8875   21.4238 O   0  0  0  0  0  0
  -22.3563  -14.5557   20.6720 O   0  0  0  0  0  0
  -24.6138  -31.8675   23.2081 C   0  0  0  0  0  0
  -25.9033  -32.4821   23.8383 C   0  0  1  0  0  0
  -27.2421  -27.4304   20.0918 C   0  0  0  0  0  0
  -25.5886  -33.8621   24.2314 N   0  0  0  0  0  0
  -23.4012  -30.4891   21.5498 C   0  0  2  0  0  0
  -24.8467  -28.9512   20.1170 C   0  0  0  0  0  0
  -22.7397  -29.4654   22.5002 C   0  0  0  0  0  0
  -18.0262  -28.1382   22.8487 C   0  0  0  0  0  0
  -24.1485  -36.7308   23.2642 C   0  0  0  0  0  0
  -25.9290  -30.8304   21.3617 C   0  0  0  0  0  0
  -26.0053  -29.4628   20.7126 C   0  0  0  0  0  0
  -27.1999  -28.7077   20.6992 C   0  0  0  0  0  0
  -26.0588  -26.9287   19.4999 C   0  0  0  0  0  0
  -24.8684  -27.6830   19.5106 C   0  0  0  0  0  0
  -23.6081  -29.8174   20.1657 C   0  0  0  0  0  0
  -25.4105  -36.3103   24.0336 C   0  0  1  0  0  0
  -20.5849  -28.3660   23.1323 C   0  0  2  0  0  0
  -20.6753  -26.9398   22.5423 C   0  0  0  0  0  0
  -19.5739  -26.6387   21.5204 C   0  0  0  0  0  0
  -18.1909  -26.7932   22.1606 C   0  0  0  0  0  0
  -19.1511  -28.8834   23.2904 C   0  0  0  0  0  0
  -18.9445  -30.1440   23.8916 C   0  0  0  0  0  0
  -17.6455  -30.6594   24.0560 C   0  0  0  0  0  0
  -25.9038  -34.9475   23.5124 C   0  0  0  0  0  0
  -16.5346  -29.9100   23.6330 C   0  0  0  0  0  0
  -16.7253  -28.6515   23.0348 C   0  0  0  0  0  0
  -26.4460  -31.6606   25.0718 C   0  0  0  0  0  0
  -25.3726  -31.3697   26.1461 C   0  0  0  0  0  0
  -27.0309  -30.3063   24.6089 C   0  0  0  0  0  0
  -27.6034  -32.4333   25.7484 C   0  0  0  0  0  0
  -27.5575  -37.1797   24.8463 C   0  0  0  0  0  0
  -21.4123  -29.3033   22.3737 N   0  0  0  0  0  0
  -26.4286  -37.3793   23.9417 N   0  0  0  0  0  0
  -24.6666  -31.0773   22.0984 N   0  0  0  0  0  0
  -23.4166  -28.8204   23.3050 O   0  0  0  0  0  0
  -28.4434  -26.7433   20.1039 O   0  0  0  0  0  0
  -26.5610  -34.8925   22.4690 O   0  0  0  0  0  0
  -23.5328  -32.1429   23.7471 O   0  0  0  0  0  0
  -30.0663  -19.8532   19.4371 C   0  0  0  0  0  0
  -28.6270  -20.1214   21.3617 C   0  0  0  0  0  0
  -29.9856  -18.4433   19.5525 C   0  0  0  0  0  0
  -29.2247  -17.8543   20.5981 C   0  0  0  0  0  0
  -29.3943  -20.7170   20.3366 C   0  0  0  0  0  0
  -28.5473  -18.7166   21.4957 C   0  0  0  0  0  0
  -30.7200  -17.5950   18.5268 C   0  0  0  0  0  0
  -30.7295  -22.6620   19.6739 C   0  0  0  0  0  0
  -31.0036  -16.2324   22.2536 C   0  0  0  0  0  0
  -29.0495  -16.3233   20.7311 C   0  0  0  0  0  0
  -28.1567  -24.2968   20.5185 C   0  0  0  0  0  0
  -28.2379  -22.8516   19.9471 C   0  0  0  0  0  0
  -28.5618  -25.4277   19.5372 C   0  0  0  0  0  0
  -29.4894  -22.1307   20.2385 N   0  0  0  0  0  0
  -30.1722  -15.5219   21.2777 N   0  0  0  0  0  0
  -27.8012  -18.1970   22.5000 F   0  0  0  0  0  0
  -31.4591  -12.4327   19.1137 H   0  0  0  0  0  0
  -30.3267  -11.3379   19.8492 H   0  0  0  0  0  0
  -29.7430  -11.7645   17.4395 H   0  0  0  0  0  0
  -29.6344  -13.4798   17.7514 H   0  0  0  0  0  0
  -27.8514  -11.2768   18.8496 H   0  0  0  0  0  0
  -27.3562  -12.5706   17.7896 H   0  0  0  0  0  0
  -27.6537  -14.2175   19.5043 H   0  0  0  0  0  0
  -28.6928  -12.0282   21.3808 H   0  0  0  0  0  0
  -28.4520  -13.6897   21.8315 H   0  0  0  0  0  0
  -25.2733   -9.5673   22.4776 H   0  0  0  0  0  0
  -23.9996   -7.4611   22.7477 H   0  0  0  0  0  0
  -21.0831   -8.8756   19.8944 H   0  0  0  0  0  0
  -22.3681  -10.9665   19.6181 H   0  0  0  0  0  0
  -21.1995   -7.6142   23.9718 H   0  0  0  0  0  0
  -21.1485   -6.0519   25.9081 H   0  0  0  0  0  0
  -22.0599   -2.7608   23.2850 H   0  0  0  0  0  0
  -22.4067  -11.9877   22.4777 H   0  0  0  0  0  0
  -21.1105  -13.1298   22.2617 H   0  0  0  0  0  0
  -24.6617  -15.8361   20.5117 H   0  0  0  0  0  0
  -26.2735  -15.6193   20.0607 H   0  0  0  0  0  0
  -26.7109  -32.5535   23.1149 H   0  0  0  0  0  0
  -25.0033  -33.9790   25.0455 H   0  0  0  0  0  0
  -22.6897  -31.3056   21.4079 H   0  0  0  0  0  0
  -23.3754  -35.9632   23.3303 H   0  0  0  0  0  0
  -24.3587  -36.8938   22.2057 H   0  0  0  0  0  0
  -23.7231  -37.6502   23.6678 H   0  0  0  0  0  0
  -26.0407  -31.5911   20.5878 H   0  0  0  0  0  0
  -26.8175  -30.8874   21.9789 H   0  0  0  0  0  0
  -28.0964  -29.1031   21.1574 H   0  0  0  0  0  0
  -26.0283  -25.9588   19.0277 H   0  0  0  0  0  0
  -23.9754  -27.2809   19.0522 H   0  0  0  0  0  0
  -23.7131  -30.5911   19.4034 H   0  0  0  0  0  0
  -22.7325  -29.2355   19.8723 H   0  0  0  0  0  0
  -25.1282  -36.1969   25.0831 H   0  0  0  0  0  0
  -20.9927  -28.3220   24.1450 H   0  0  0  0  0  0
  -20.5650  -26.2259   23.3599 H   0  0  0  0  0  0
  -21.6626  -26.7439   22.1220 H   0  0  0  0  0  0
  -19.6907  -25.6296   21.1243 H   0  0  0  0  0  0
  -19.6703  -27.3193   20.6740 H   0  0  0  0  0  0
  -17.4182  -26.6681   21.4007 H   0  0  0  0  0  0
  -18.0309  -26.0061   22.8993 H   0  0  0  0  0  0
  -19.7926  -30.7239   24.2303 H   0  0  0  0  0  0
  -17.5023  -31.6286   24.5143 H   0  0  0  0  0  0
  -15.5352  -30.3019   23.7651 H   0  0  0  0  0  0
  -15.8644  -28.0861   22.7052 H   0  0  0  0  0  0
  -24.5935  -30.6996   25.7808 H   0  0  0  0  0  0
  -24.8852  -32.2832   26.4882 H   0  0  0  0  0  0
  -25.8074  -30.8910   27.0243 H   0  0  0  0  0  0
  -26.2853  -29.6814   24.1156 H   0  0  0  0  0  0
  -27.4121  -29.7310   25.4539 H   0  0  0  0  0  0
  -27.8665  -30.4415   23.9214 H   0  0  0  0  0  0
  -27.2676  -33.3659   26.2030 H   0  0  0  0  0  0
  -28.3853  -32.6851   25.0307 H   0  0  0  0  0  0
  -28.0685  -31.8473   26.5418 H   0  0  0  0  0  0
  -28.2578  -38.0106   24.7539 H   0  0  0  0  0  0
  -28.1090  -36.2644   24.6267 H   0  0  0  0  0  0
  -27.2306  -37.1420   25.8868 H   0  0  0  0  0  0
  -20.9279  -29.8757   21.6967 H   0  0  0  0  0  0
  -26.0177  -38.2871   24.1429 H   0  0  0  0  0  0
  -30.6475  -20.2709   18.6269 H   0  0  0  0  0  0
  -28.1002  -20.7405   22.0727 H   0  0  0  0  0  0
  -31.0560  -18.1985   17.6831 H   0  0  0  0  0  0
  -30.0863  -16.8087   18.1187 H   0  0  0  0  0  0
  -31.6006  -17.1359   18.9742 H   0  0  0  0  0  0
  -31.5841  -22.0148   19.8790 H   0  0  0  0  0  0
  -30.9665  -23.6328   20.1094 H   0  0  0  0  0  0
  -30.6460  -22.7850   18.5930 H   0  0  0  0  0  0
  -30.3878  -16.7737   22.9716 H   0  0  0  0  0  0
  -31.6622  -16.9463   21.7566 H   0  0  0  0  0  0
  -31.6274  -15.5387   22.8189 H   0  0  0  0  0  0
  -28.7871  -15.9693   19.7372 H   0  0  0  0  0  0
  -28.1759  -16.1160   21.3488 H   0  0  0  0  0  0
  -28.7309  -24.3734   21.4424 H   0  0  0  0  0  0
  -27.1205  -24.4745   20.8077 H   0  0  0  0  0  0
  -28.0767  -22.8745   18.8679 H   0  0  0  0  0  0
  -27.3997  -22.2830   20.3503 H   0  0  0  0  0  0
  -28.0379  -25.3466   18.5850 H   0  0  0  0  0  0
  -29.6144  -25.3061   19.2844 H   0  0  0  0  0  0
  1 25  1  0  0  0
  1 30  2  0  0  0
  1 85  1  0  0  0
  2  3  1  0  0  0
  2 25  1  0  0  0
  2 87  1  0  0  0
  2 88  1  0  0  0
  3  4  1  0  0  0
  3 89  1  0  0  0
  3 90  1  0  0  0
  4  5  1  0  0  0
  4 91  1  0  0  0
  4 92  1  0  0  0
  5  6  1  0  0  0
  5 26  1  0  0  0
  5 93  1  0  0  0
  6 25  1  0  0  0
  6 94  1  0  0  0
  6 95  1  0  0  0
  7  8  2  0  0  0
  7 26  1  0  0  0
  7 29  1  0  0  0
  8  9  1  0  0  0
  8 22  1  0  0  0
  9 10  1  0  0  0
  9 27  2  0  0  0
 10 11  2  0  0  0
 10 15  1  0  0  0
 11 12  1  0  0  0
 11 96  1  0  0  0
 12 13  2  0  0  0
 12 97  1  0  0  0
 13 14  1  0  0  0
 13 31  1  0  0  0
 14 15  2  0  0  0
 14 98  1  0  0  0
 15 99  1  0  0  0
 16 17  2  0  0  0
 16 21  1  0  0  0
 16 31  1  0  0  0
 17 18  1  0  0  0
 17100  1  0  0  0
 18 19  2  0  0  0
 18101  1  0  0  0
 19 20  1  0  0  0
 19 24  1  0  0  0
 20 21  2  0  0  0
 20102  1  0  0  0
 21 23  1  0  0  0
 22 28  1  0  0  0
 22 32  2  0  0  0
 26 27  1  0  0  0
 28103  1  0  0  0
 28104  1  0  0  0
 29105  1  0  0  0
 29106  1  0  0  0
 33 34  1  0  0  0
 33 66  1  0  0  0
 33 70  2  0  0  0
 34 36  1  0  0  0
 34 59  1  0  0  0
 34107  1  0  0  0
 35 44  2  0  0  0
 35 45  1  0  0  0
 35 68  1  0  0  0
 36 56  1  0  0  0
 36108  1  0  0  0
 37 39  1  0  0  0
 37 47  1  0  0  0
 37 66  1  0  0  0
 37109  1  0  0  0
 38 43  2  0  0  0
 38 46  1  0  0  0
 38 47  1  0  0  0
 39 64  1  0  0  0
 39 67  2  0  0  0
 40 52  1  0  0  0
 40 53  2  0  0  0
 40 58  1  0  0  0
 41110  1  0  0  0
 41111  1  0  0  0
 41112  1  0  0  0
 41 48  1  0  0  0
 42 43  1  0  0  0
 42 66  1  0  0  0
 42113  1  0  0  0
 42114  1  0  0  0
 43 44  1  0  0  0
 44115  1  0  0  0
 45 46  2  0  0  0
 45116  1  0  0  0
 46117  1  0  0  0
 47118  1  0  0  0
 47119  1  0  0  0
 48 56  1  0  0  0
 48 65  1  0  0  0
 48120  1  0  0  0
 49 50  1  0  0  0
 49 53  1  0  0  0
 49 64  1  0  0  0
 49121  1  0  0  0
 50 51  1  0  0  0
 50122  1  0  0  0
 50123  1  0  0  0
 51 52  1  0  0  0
 51124  1  0  0  0
 51125  1  0  0  0
 52126  1  0  0  0
 52127  1  0  0  0
 53 54  1  0  0  0
 54 55  2  0  0  0
 54128  1  0  0  0
 55 57  1  0  0  0
 55129  1  0  0  0
 56 69  2  0  0  0
 57 58  2  0  0  0
 57130  1  0  0  0
 58131  1  0  0  0
 59 60  1  0  0  0
 59 61  1  0  0  0
 59 62  1  0  0  0
 60132  1  0  0  0
 60133  1  0  0  0
 60134  1  0  0  0
 61135  1  0  0  0
 61136  1  0  0  0
 61137  1  0  0  0
 62138  1  0  0  0
 62139  1  0  0  0
 62140  1  0  0  0
 63 65  1  0  0  0
 63141  1  0  0  0
 63142  1  0  0  0
 63143  1  0  0  0
 64144  1  0  0  0
 65145  1  0  0  0
 68 83  1  0  0  0
 71 73  2  0  0  0
 71 75  1  0  0  0
 71146  1  0  0  0
 72 75  2  0  0  0
 72 76  1  0  0  0
 72147  1  0  0  0
 73 74  1  0  0  0
 73 77  1  0  0  0
 74 76  2  0  0  0
 74 80  1  0  0  0
 75 84  1  0  0  0
 76 86  1  0  0  0
 77148  1  0  0  0
 77149  1  0  0  0
 77150  1  0  0  0
 78 84  1  0  0  0
 78151  1  0  0  0
 78152  1  0  0  0
 78153  1  0  0  0
 79 85  1  0  0  0
 79154  1  0  0  0
 79155  1  0  0  0
 79156  1  0  0  0
 80 85  1  0  0  0
 80157  1  0  0  0
 80158  1  0  0  0
 81 82  1  0  0  0
 81 83  1  0  0  0
 81159  1  0  0  0
 81160  1  0  0  0
 82 84  1  0  0  0
 82161  1  0  0  0
 82162  1  0  0  0
 83163  1  0  0  0
 83164  1  0  0  0
M  ISO  4   1 100  68 101  83 101  85 100
M  END
> <chiral flag>
0

> <version>
0

> <s_m_source_file>
/data/baiqing/PycharmProjects/Reinvent-master-3.2/result/LINK_invent/BTK/process_docking_weight1_custom_product_contain_oxygen_bond_distance_aromatic_linkinvent_7_9_3/rearranged_h_0019.sdf

> <i_m_source_file_index>
94

> <r_mmod_Potential_Energy-OPLS-2005>
124.644226074219

> <r_mmod_Stretch_Energy-OPLS-2005>
44.0223236083984

> <r_mmod_Bend_Energy-OPLS-2005>
117.653274536133

> <r_mmod_Torsional_Energy-OPLS-2005>
275.909606933594

> <r_mmod_Improper_Torsional_Energy-OPLS-2005>
6.36233854293823

> <r_mmod_Van_der_Waal_Energy-OPLS-2005>
154.106887817383

> <r_mmod_Electrostatic_Energy-OPLS-2005>
-287.771362304688

> <r_mmod_Solvation_Energy-OPLS-2005>
-202.890106201172

> <b_mmod_Minimization_Converged-OPLS-2005>
0

> <r_mmod_RMS_Derivative-OPLS-2005>
1.59305596351624

$$$$
94
                    3D
 Structure written by MMmdl.
178187  0  0  1  0            999 V2000
  -30.6846  -14.5792   20.3909 C   0  0  0  0  0  0
  -30.4262  -12.3129   19.4498 C   0  0  0  0  0  0
  -29.4945  -12.3442   18.2194 C   0  0  0  0  0  0
  -28.0042  -12.3002   18.6314 C   0  0  0  0  0  0
  -27.6386  -13.1933   19.8495 C   0  0  2  0  0  0
  -28.7030  -13.1116   20.9649 C   0  0  0  0  0  0
  -25.2552  -13.8109   20.5732 C   0  0  0  0  0  0
  -24.1799  -13.0411   20.9236 C   0  0  0  0  0  0
  -24.6348  -11.6874   20.8809 C   0  0  0  0  0  0
  -23.9027  -10.4271   21.0445 C   0  0  0  0  0  0
  -24.3595   -9.4168   21.9203 C   0  0  0  0  0  0
  -23.6279   -8.2197   22.0744 C   0  0  0  0  0  0
  -22.4257   -8.0253   21.3539 C   0  0  0  0  0  0
  -21.9896   -9.0222   20.4642 C   0  0  0  0  0  0
  -22.7212  -10.2111   20.3079 C   0  0  0  0  0  0
  -21.6822   -6.0724   22.5287 C   0  0  0  0  0  0
  -21.3974   -6.5623   23.8217 C   0  0  0  0  0  0
  -21.3685   -5.6782   24.9184 C   0  0  0  0  0  0
  -21.6062   -4.3046   24.7235 C   0  0  0  0  0  0
  -21.8814   -3.8138   23.4354 C   0  0  0  0  0  0
  -21.9177   -4.6954   22.3410 C   0  0  0  0  0  0
  -22.7827  -13.5212   21.1889 C   0  0  0  0  0  0
  -22.1648   -4.2143   21.0986 F   0  0  0  0  0  0
  -21.5663   -3.4545   25.7756 F   0  0  0  0  0  0
  -30.0128  -13.3906   20.3589 N   0  0  0  0  0  0
  -26.2931  -12.9227   20.3389 N   0  0  0  0  0  0
  -25.9269  -11.6417   20.5883 N   0  0  0  0  0  0
  -22.0469  -12.8183   22.0429 N   0  0  0  0  0  0
  -25.4311  -15.1837   20.4124 N   0  0  0  0  0  0
  -31.9058  -14.6505   20.2456 O   0  0  0  0  0  0
  -21.6598   -6.8866   21.4250 O   0  0  0  0  0  0
  -22.3519  -14.5525   20.6745 O   0  0  0  0  0  0
  -24.6098  -31.8709   23.2127 C   0  0  0  0  0  0
  -25.9010  -32.4848   23.8413 C   0  0  1  0  0  0
  -27.2449  -27.4592   20.1068 C   0  0  0  0  0  0
  -25.5884  -33.8639   24.2348 N   0  0  0  0  0  0
  -23.3984  -30.4885   21.5538 C   0  0  2  0  0  0
  -24.8498  -28.9561   20.1216 C   0  0  0  0  0  0
  -22.7392  -29.4643   22.5045 C   0  0  0  0  0  0
  -18.0263  -28.1380   22.8490 C   0  0  0  0  0  0
  -24.1490  -36.7312   23.2640 C   0  0  0  0  0  0
  -25.9220  -30.8445   21.3622 C   0  0  0  0  0  0
  -26.0044  -29.4765   20.7208 C   0  0  0  0  0  0
  -27.2049  -28.7359   20.7141 C   0  0  0  0  0  0
  -26.0810  -26.9547   19.4937 C   0  0  0  0  0  0
  -24.8798  -27.6923   19.5060 C   0  0  0  0  0  0
  -23.6082  -29.8176   20.1692 C   0  0  0  0  0  0
  -25.4110  -36.3122   24.0345 C   0  0  1  0  0  0
  -20.5854  -28.3633   23.1361 C   0  0  2  0  0  0
  -20.6750  -26.9372   22.5444 C   0  0  0  0  0  0
  -19.5746  -26.6387   21.5217 C   0  0  0  0  0  0
  -18.1913  -26.7932   22.1606 C   0  0  0  0  0  0
  -19.1516  -28.8826   23.2922 C   0  0  0  0  0  0
  -18.9434  -30.1449   23.8911 C   0  0  0  0  0  0
  -17.6435  -30.6576   24.0570 C   0  0  0  0  0  0
  -25.9033  -34.9485   23.5142 C   0  0  0  0  0  0
  -16.5332  -29.9072   23.6343 C   0  0  0  0  0  0
  -16.7253  -28.6508   23.0329 C   0  0  0  0  0  0
  -26.4468  -31.6587   25.0698 C   0  0  0  0  0  0
  -25.3748  -31.3651   26.1452 C   0  0  0  0  0  0
  -27.0301  -30.3052   24.5999 C   0  0  0  0  0  0
  -27.6057  -32.4281   25.7466 C   0  0  0  0  0  0
  -27.5588  -37.1798   24.8462 C   0  0  0  0  0  0
  -21.4124  -29.3000   22.3787 N   0  0  0  0  0  0
  -26.4298  -37.3796   23.9412 N   0  0  0  0  0  0
  -24.6611  -31.0822   22.1025 N   0  0  0  0  0  0
  -23.4172  -28.8197   23.3091 O   0  0  0  0  0  0
  -28.3912  -26.6998   20.0360 O   0  0  0  0  0  0
  -26.5597  -34.8935   22.4699 O   0  0  0  0  0  0
  -23.5304  -32.1461   23.7534 O   0  0  0  0  0  0
  -28.8387  -19.0271   18.3321 C   0  0  0  0  0  0
  -27.7053  -18.8000   20.4678 C   0  0  0  0  0  0
  -27.6098  -19.3426   17.7168 C   0  0  0  0  0  0
  -26.4788  -19.1211   19.8557 C   0  0  0  0  0  0
  -28.9104  -18.7543   19.7226 C   0  0  0  0  0  0
  -26.4293  -19.3965   18.4789 C   0  0  0  0  0  0
  -31.9023  -19.9671   19.1348 C   0  0  0  0  0  0
  -31.9098  -20.9773   20.2891 C   0  0  0  0  0  0
  -31.5283  -18.5319   19.5806 C   0  0  0  0  0  0
  -30.4180  -19.4451   21.5959 C   0  0  0  0  0  0
  -30.5944  -20.9066   21.0863 C   0  0  1  0  0  0
  -30.2324  -18.3948   20.4509 C   0  0  1  0  0  0
  -29.3294  -15.9339   18.9335 C   0  0  0  0  0  0
  -30.5301  -21.9389   22.2419 C   0  0  0  0  0  0
  -30.1804  -16.9346   21.0903 C   0  0  0  0  0  0
  -28.8679  -25.1240   21.8400 C   0  0  0  0  0  0
  -29.5325  -23.9539   21.0738 C   0  0  0  0  0  0
  -29.1351  -26.5229   21.2433 C   0  0  0  0  0  0
  -29.9304  -15.7113   20.2576 N   0  0  0  0  0  0
  -30.6744  -23.3539   21.8107 N   0  3  0  0  0  0
  -24.9242  -19.7808   17.7253 Cl  0  0  0  0  0  0
  -31.4680  -12.4113   19.1392 H   0  0  0  0  0  0
  -30.3518  -11.3513   19.9603 H   0  0  0  0  0  0
  -29.7076  -11.4740   17.5961 H   0  0  0  0  0  0
  -29.7114  -13.1908   17.5726 H   0  0  0  0  0  0
  -27.7758  -11.2587   18.8623 H   0  0  0  0  0  0
  -27.3729  -12.5588   17.7811 H   0  0  0  0  0  0
  -27.6041  -14.2093   19.4823 H   0  0  0  0  0  0
  -28.7022  -12.1233   21.4252 H   0  0  0  0  0  0
  -28.4823  -13.8249   21.7610 H   0  0  0  0  0  0
  -25.2748   -9.5626   22.4780 H   0  0  0  0  0  0
  -24.0010   -7.4559   22.7419 H   0  0  0  0  0  0
  -21.0848   -8.8720   19.8923 H   0  0  0  0  0  0
  -22.3674  -10.9648   19.6193 H   0  0  0  0  0  0
  -21.1921   -7.6125   23.9718 H   0  0  0  0  0  0
  -21.1532   -6.0511   25.9090 H   0  0  0  0  0  0
  -22.0579   -2.7601   23.2841 H   0  0  0  0  0  0
  -22.4082  -11.9834   22.4804 H   0  0  0  0  0  0
  -21.1084  -13.1188   22.2643 H   0  0  0  0  0  0
  -24.6726  -15.8463   20.5272 H   0  0  0  0  0  0
  -26.3019  -15.6194   20.1360 H   0  0  0  0  0  0
  -26.7076  -32.5607   23.1186 H   0  0  0  0  0  0
  -25.0029  -33.9822   25.0492 H   0  0  0  0  0  0
  -22.6855  -31.3029   21.4140 H   0  0  0  0  0  0
  -23.3762  -35.9634   23.3320 H   0  0  0  0  0  0
  -24.3587  -36.8912   22.2051 H   0  0  0  0  0  0
  -23.7236  -37.6512   23.6654 H   0  0  0  0  0  0
  -26.0218  -31.6042   20.5859 H   0  0  0  0  0  0
  -26.8132  -30.9112   21.9721 H   0  0  0  0  0  0
  -28.0959  -29.1577   21.1575 H   0  0  0  0  0  0
  -26.1061  -25.9879   19.0111 H   0  0  0  0  0  0
  -23.9940  -27.2881   19.0349 H   0  0  0  0  0  0
  -23.7112  -30.5914   19.4072 H   0  0  0  0  0  0
  -22.7359  -29.2302   19.8788 H   0  0  0  0  0  0
  -25.1290  -36.1980   25.0840 H   0  0  0  0  0  0
  -20.9932  -28.3169   24.1488 H   0  0  0  0  0  0
  -20.5643  -26.2214   23.3606 H   0  0  0  0  0  0
  -21.6618  -26.7416   22.1244 H   0  0  0  0  0  0
  -19.6896  -25.6302   21.1234 H   0  0  0  0  0  0
  -19.6717  -27.3216   20.6761 H   0  0  0  0  0  0
  -17.4193  -26.6715   21.3992 H   0  0  0  0  0  0
  -18.0282  -26.0069   22.8991 H   0  0  0  0  0  0
  -19.7909  -30.7279   24.2278 H   0  0  0  0  0  0
  -17.4978  -31.6262   24.5159 H   0  0  0  0  0  0
  -15.5328  -30.2964   23.7674 H   0  0  0  0  0  0
  -15.8657  -28.0851   22.6998 H   0  0  0  0  0  0
  -24.5885  -30.7073   25.7738 H   0  0  0  0  0  0
  -24.8993  -32.2802   26.4995 H   0  0  0  0  0  0
  -25.8092  -30.8709   27.0151 H   0  0  0  0  0  0
  -26.2807  -29.6800   24.1130 H   0  0  0  0  0  0
  -27.4198  -29.7291   25.4400 H   0  0  0  0  0  0
  -27.8602  -30.4424   23.9059 H   0  0  0  0  0  0
  -27.2694  -33.3569   26.2084 H   0  0  0  0  0  0
  -28.3855  -32.6838   25.0284 H   0  0  0  0  0  0
  -28.0737  -31.8374   26.5351 H   0  0  0  0  0  0
  -28.2607  -38.0099   24.7521 H   0  0  0  0  0  0
  -28.1085  -36.2628   24.6265 H   0  0  0  0  0  0
  -27.2317  -37.1417   25.8870 H   0  0  0  0  0  0
  -20.9276  -29.8705   21.7010 H   0  0  0  0  0  0
  -26.0205  -38.2878   24.1419 H   0  0  0  0  0  0
  -29.7132  -18.9676   17.7030 H   0  0  0  0  0  0
  -27.7044  -18.5834   21.5254 H   0  0  0  0  0  0
  -27.5696  -19.5345   16.6537 H   0  0  0  0  0  0
  -25.5749  -19.1476   20.4470 H   0  0  0  0  0  0
  -32.8874  -19.9496   18.6667 H   0  0  0  0  0  0
  -31.2270  -20.3287   18.3618 H   0  0  0  0  0  0
  -32.0664  -21.9761   19.8782 H   0  0  0  0  0  0
  -32.7585  -20.7820   20.9461 H   0  0  0  0  0  0
  -32.3684  -18.1562   20.1661 H   0  0  0  0  0  0
  -31.5068  -17.8897   18.7041 H   0  0  0  0  0  0
  -29.5850  -19.4048   22.2959 H   0  0  0  0  0  0
  -31.2885  -19.1757   22.1954 H   0  0  0  0  0  0
  -29.7742  -21.1376   20.4064 H   0  0  0  0  0  0
  -29.9157  -16.6035   18.3178 H   0  0  0  0  0  0
  -28.3144  -16.3185   19.0197 H   0  0  0  0  0  0
  -29.2574  -15.0434   18.3271 H   0  0  0  0  0  0
  -31.3228  -21.7206   22.9576 H   0  0  0  0  0  0
  -29.5942  -21.8366   22.7938 H   0  0  0  0  0  0
  -29.3966  -16.9212   21.8477 H   0  0  0  0  0  0
  -31.1041  -16.7890   21.6550 H   0  0  0  0  0  0
  -29.1825  -25.1113   22.8833 H   0  0  0  0  0  0
  -27.7895  -24.9645   21.8710 H   0  0  0  0  0  0
  -29.8944  -24.2993   20.1048 H   0  0  0  0  0  0
  -28.7846  -23.1927   20.8486 H   0  0  0  0  0  0
  -30.1952  -26.6429   21.0191 H   0  0  0  0  0  0
  -28.9012  -27.2738   21.9979 H   0  0  0  0  0  0
  -31.5060  -23.4353   21.2465 H   0  0  0  0  0  0
  -30.8320  -23.9043   22.6384 H   0  0  0  0  0  0
  1 25  1  0  0  0
  1 30  2  0  0  0
  1 89  1  0  0  0
  2  3  1  0  0  0
  2 25  1  0  0  0
  2 92  1  0  0  0
  2 93  1  0  0  0
  3  4  1  0  0  0
  3 94  1  0  0  0
  3 95  1  0  0  0
  4  5  1  0  0  0
  4 96  1  0  0  0
  4 97  1  0  0  0
  5  6  1  0  0  0
  5 26  1  0  0  0
  5 98  1  0  0  0
  6 25  1  0  0  0
  6 99  1  0  0  0
  6100  1  0  0  0
  7  8  2  0  0  0
  7 26  1  0  0  0
  7 29  1  0  0  0
  8  9  1  0  0  0
  8 22  1  0  0  0
  9 10  1  0  0  0
  9 27  2  0  0  0
 10 11  2  0  0  0
 10 15  1  0  0  0
 11 12  1  0  0  0
 11101  1  0  0  0
 12 13  2  0  0  0
 12102  1  0  0  0
 13 14  1  0  0  0
 13 31  1  0  0  0
 14 15  2  0  0  0
 14103  1  0  0  0
 15104  1  0  0  0
 16 17  2  0  0  0
 16 21  1  0  0  0
 16 31  1  0  0  0
 17 18  1  0  0  0
 17105  1  0  0  0
 18 19  2  0  0  0
 18106  1  0  0  0
 19 20  1  0  0  0
 19 24  1  0  0  0
 20 21  2  0  0  0
 20107  1  0  0  0
 21 23  1  0  0  0
 22 28  1  0  0  0
 22 32  2  0  0  0
 26 27  1  0  0  0
 28108  1  0  0  0
 28109  1  0  0  0
 29110  1  0  0  0
 29111  1  0  0  0
 33 34  1  0  0  0
 33 66  1  0  0  0
 33 70  2  0  0  0
 34 36  1  0  0  0
 34 59  1  0  0  0
 34112  1  0  0  0
 35 44  2  0  0  0
 35 45  1  0  0  0
 35 68  1  0  0  0
 36 56  1  0  0  0
 36113  1  0  0  0
 37 39  1  0  0  0
 37 47  1  0  0  0
 37 66  1  0  0  0
 37114  1  0  0  0
 38 43  2  0  0  0
 38 46  1  0  0  0
 38 47  1  0  0  0
 39 64  1  0  0  0
 39 67  2  0  0  0
 40 52  1  0  0  0
 40 53  2  0  0  0
 40 58  1  0  0  0
 41115  1  0  0  0
 41116  1  0  0  0
 41117  1  0  0  0
 41 48  1  0  0  0
 42 43  1  0  0  0
 42 66  1  0  0  0
 42118  1  0  0  0
 42119  1  0  0  0
 43 44  1  0  0  0
 44120  1  0  0  0
 45 46  2  0  0  0
 45121  1  0  0  0
 46122  1  0  0  0
 47123  1  0  0  0
 47124  1  0  0  0
 48 56  1  0  0  0
 48 65  1  0  0  0
 48125  1  0  0  0
 49 50  1  0  0  0
 49 53  1  0  0  0
 49 64  1  0  0  0
 49126  1  0  0  0
 50 51  1  0  0  0
 50127  1  0  0  0
 50128  1  0  0  0
 51 52  1  0  0  0
 51129  1  0  0  0
 51130  1  0  0  0
 52131  1  0  0  0
 52132  1  0  0  0
 53 54  1  0  0  0
 54 55  2  0  0  0
 54133  1  0  0  0
 55 57  1  0  0  0
 55134  1  0  0  0
 56 69  2  0  0  0
 57 58  2  0  0  0
 57135  1  0  0  0
 58136  1  0  0  0
 59 60  1  0  0  0
 59 61  1  0  0  0
 59 62  1  0  0  0
 60137  1  0  0  0
 60138  1  0  0  0
 60139  1  0  0  0
 61140  1  0  0  0
 61141  1  0  0  0
 61142  1  0  0  0
 62143  1  0  0  0
 62144  1  0  0  0
 62145  1  0  0  0
 63 65  1  0  0  0
 63146  1  0  0  0
 63147  1  0  0  0
 63148  1  0  0  0
 64149  1  0  0  0
 65150  1  0  0  0
 68 88  1  0  0  0
 71 73  2  0  0  0
 71 75  1  0  0  0
 71151  1  0  0  0
 72 74  1  0  0  0
 72 75  2  0  0  0
 72152  1  0  0  0
 73 76  1  0  0  0
 73153  1  0  0  0
 74 76  2  0  0  0
 74154  1  0  0  0
 75 82  1  0  0  0
 76 91  1  0  0  0
 77 78  1  0  0  0
 77 79  1  0  0  0
 77155  1  0  0  0
 77156  1  0  0  0
 78 81  1  0  0  0
 78157  1  0  0  0
 78158  1  0  0  0
 79 82  1  0  0  0
 79159  1  0  0  0
 79160  1  0  0  0
 80 81  1  0  0  0
 80 82  1  0  0  0
 80161  1  0  0  0
 80162  1  0  0  0
 81 84  1  0  0  0
 81163  1  0  0  0
 82 85  1  0  0  0
 83 89  1  0  0  0
 83164  1  0  0  0
 83165  1  0  0  0
 83166  1  0  0  0
 84 90  1  0  0  0
 84167  1  0  0  0
 84168  1  0  0  0
 85 89  1  0  0  0
 85169  1  0  0  0
 85170  1  0  0  0
 86 87  1  0  0  0
 86 88  1  0  0  0
 86171  1  0  0  0
 86172  1  0  0  0
 87 90  1  0  0  0
 87173  1  0  0  0
 87174  1  0  0  0
 88175  1  0  0  0
 88176  1  0  0  0
 90177  1  0  0  0
 90178  1  0  0  0
M  CHG  1  90   1
M  ISO  4   1 100  68 101  88 101  89 100
M  END
> <chiral flag>
0

> <version>
0

> <s_m_source_file>
/data/baiqing/PycharmProjects/Reinvent-master-3.2/result/LINK_invent/BTK/process_docking_weight1_custom_product_contain_oxygen_bond_distance_aromatic_linkinvent_7_9_3/rearranged_h_0019.sdf

> <i_m_source_file_index>
95

> <r_mmod_Potential_Energy-OPLS-2005>
109.285995483398

> <r_mmod_Stretch_Energy-OPLS-2005>
52.0165672302246

> <r_mmod_Bend_Energy-OPLS-2005>
130.210113525391

> <r_mmod_Torsional_Energy-OPLS-2005>
395.725128173828

> <r_mmod_Improper_Torsional_Energy-OPLS-2005>
9.56205081939697

> <r_mmod_Van_der_Waal_Energy-OPLS-2005>
169.325927734375

> <r_mmod_Electrostatic_Energy-OPLS-2005>
-244.166885375977

> <r_mmod_Solvation_Energy-OPLS-2005>
-440.238861083984

> <b_mmod_Minimization_Converged-OPLS-2005>
0

> <r_mmod_RMS_Derivative-OPLS-2005>
2.67414236068726

$$$$
95
                    3D
 Structure written by MMmdl.
164172  0  0  1  0            999 V2000
  -30.7296  -14.5093   20.5836 C   0  0  0  0  0  0
  -30.4164  -12.3419   19.4280 C   0  0  0  0  0  0
  -29.4883  -12.4997   18.2082 C   0  0  0  0  0  0
  -28.0154  -12.3310   18.6270 C   0  0  0  0  0  0
  -27.6471  -13.1932   19.8609 C   0  0  2  0  0  0
  -28.6954  -13.0418   20.9891 C   0  0  0  0  0  0
  -25.2553  -13.8107   20.5691 C   0  0  0  0  0  0
  -24.1806  -13.0405   20.9208 C   0  0  0  0  0  0
  -24.6347  -11.6871   20.8763 C   0  0  0  0  0  0
  -23.9018  -10.4268   21.0416 C   0  0  0  0  0  0
  -24.3583   -9.4188   21.9188 C   0  0  0  0  0  0
  -23.6268   -8.2219   22.0753 C   0  0  0  0  0  0
  -22.4258   -8.0257   21.3535 C   0  0  0  0  0  0
  -21.9881   -9.0229   20.4645 C   0  0  0  0  0  0
  -22.7198  -10.2111   20.3059 C   0  0  0  0  0  0
  -21.6843   -6.0716   22.5273 C   0  0  0  0  0  0
  -21.4006   -6.5623   23.8203 C   0  0  0  0  0  0
  -21.3661   -5.6779   24.9169 C   0  0  0  0  0  0
  -21.6050   -4.3044   24.7222 C   0  0  0  0  0  0
  -21.8822   -3.8132   23.4343 C   0  0  0  0  0  0
  -21.9191   -4.6946   22.3398 C   0  0  0  0  0  0
  -22.7836  -13.5223   21.1859 C   0  0  0  0  0  0
  -22.1661   -4.2132   21.0975 F   0  0  0  0  0  0
  -21.5636   -3.4532   25.7735 F   0  0  0  0  0  0
  -30.0212  -13.3505   20.4288 N   0  0  0  0  0  0
  -26.2947  -12.9236   20.3330 N   0  0  0  0  0  0
  -25.9264  -11.6420   20.5782 N   0  0  0  0  0  0
  -22.0466  -12.8230   22.0420 N   0  0  0  0  0  0
  -25.4246  -15.1829   20.4071 N   0  0  0  0  0  0
  -31.8579  -14.6464   20.1001 O   0  0  0  0  0  0
  -21.6627   -6.8853   21.4231 O   0  0  0  0  0  0
  -22.3535  -14.5532   20.6700 O   0  0  0  0  0  0
  -24.6147  -31.8656   23.2075 C   0  0  0  0  0  0
  -25.9039  -32.4798   23.8380 C   0  0  1  0  0  0
  -27.2382  -27.4129   20.0919 C   0  0  0  0  0  0
  -25.5902  -33.8607   24.2303 N   0  0  0  0  0  0
  -23.4034  -30.4888   21.5482 C   0  0  2  0  0  0
  -24.8499  -28.9483   20.1173 C   0  0  0  0  0  0
  -22.7395  -29.4653   22.4974 C   0  0  0  0  0  0
  -18.0259  -28.1353   22.8490 C   0  0  0  0  0  0
  -24.1488  -36.7303   23.2635 C   0  0  0  0  0  0
  -25.9340  -30.8226   21.3654 C   0  0  0  0  0  0
  -26.0102  -29.4552   20.7131 C   0  0  0  0  0  0
  -27.2036  -28.6939   20.6971 C   0  0  0  0  0  0
  -26.0512  -26.9202   19.5016 C   0  0  0  0  0  0
  -24.8653  -27.6802   19.5132 C   0  0  0  0  0  0
  -23.6128  -29.8173   20.1643 C   0  0  0  0  0  0
  -25.4114  -36.3094   24.0320 C   0  0  1  0  0  0
  -20.5856  -28.3656   23.1296 C   0  0  2  0  0  0
  -20.6760  -26.9394   22.5392 C   0  0  0  0  0  0
  -19.5740  -26.6370   21.5183 C   0  0  0  0  0  0
  -18.1916  -26.7902   22.1606 C   0  0  0  0  0  0
  -19.1514  -28.8818   23.2892 C   0  0  0  0  0  0
  -18.9457  -30.1424   23.8899 C   0  0  0  0  0  0
  -17.6464  -30.6574   24.0555 C   0  0  0  0  0  0
  -25.9036  -34.9463   23.5104 C   0  0  0  0  0  0
  -16.5352  -29.9077   23.6327 C   0  0  0  0  0  0
  -16.7253  -28.6486   23.0355 C   0  0  0  0  0  0
  -26.4461  -31.6594   25.0729 C   0  0  0  0  0  0
  -25.3715  -31.3730   26.1472 C   0  0  0  0  0  0
  -27.0294  -30.3027   24.6146 C   0  0  0  0  0  0
  -27.6050  -32.4307   25.7479 C   0  0  0  0  0  0
  -27.5577  -37.1801   24.8456 C   0  0  0  0  0  0
  -21.4123  -29.3030   22.3714 N   0  0  0  0  0  0
  -26.4291  -37.3788   23.9405 N   0  0  0  0  0  0
  -24.6689  -31.0741   22.0984 N   0  0  0  0  0  0
  -23.4156  -28.8193   23.3028 O   0  0  0  0  0  0
  -28.4285  -26.7034   20.1073 O   0  0  0  0  0  0
  -26.5590  -34.8909   22.4658 O   0  0  0  0  0  0
  -23.5335  -32.1425   23.7462 O   0  0  0  0  0  0
  -29.9178  -18.2851   19.5221 C   0  0  0  0  0  0
  -29.9547  -19.6614   19.2039 C   0  0  0  0  0  0
  -28.6399  -20.1623   21.1637 C   0  0  0  0  0  0
  -29.2148  -17.8217   20.6516 C   0  0  0  0  0  0
  -29.2990  -20.6413   20.0024 C   0  0  0  0  0  0
  -28.5890  -18.7820   21.4807 C   0  0  0  0  0  0
  -31.6672  -22.5142   19.0177 C   0  0  0  0  0  0
  -31.0502  -16.1940   22.3075 C   0  0  0  0  0  0
  -29.0315  -16.3087   20.8857 C   0  0  0  0  0  0
  -28.1476  -24.2148   20.4392 C   0  0  0  0  0  0
  -30.1945  -22.4779   18.5902 C   0  0  0  0  0  0
  -28.0392  -22.7920   19.7967 C   0  0  0  0  0  0
  -28.5350  -25.3979   19.5026 C   0  0  0  0  0  0
  -29.3045  -22.0355   19.6695 N   0  0  0  0  0  0
  -30.1909  -15.5042   21.3420 N   0  0  0  0  0  0
  -27.9097  -18.3803   22.5824 F   0  0  0  0  0  0
  -31.4593  -12.4362   19.1193 H   0  0  0  0  0  0
  -30.3268  -11.3402   19.8521 H   0  0  0  0  0  0
  -29.7440  -11.7657   17.4427 H   0  0  0  0  0  0
  -29.6349  -13.4808   17.7536 H   0  0  0  0  0  0
  -27.8539  -11.2766   18.8530 H   0  0  0  0  0  0
  -27.3548  -12.5676   17.7916 H   0  0  0  0  0  0
  -27.6476  -14.2151   19.5014 H   0  0  0  0  0  0
  -28.6914  -12.0207   21.3730 H   0  0  0  0  0  0
  -28.4453  -13.6749   21.8412 H   0  0  0  0  0  0
  -25.2724   -9.5672   22.4768 H   0  0  0  0  0  0
  -23.9981   -7.4609   22.7470 H   0  0  0  0  0  0
  -21.0809   -8.8735   19.8952 H   0  0  0  0  0  0
  -22.3644  -10.9652   19.6173 H   0  0  0  0  0  0
  -21.1991   -7.6129   23.9697 H   0  0  0  0  0  0
  -21.1488   -6.0512   25.9070 H   0  0  0  0  0  0
  -22.0604   -2.7595   23.2844 H   0  0  0  0  0  0
  -22.4073  -11.9898   22.4830 H   0  0  0  0  0  0
  -21.1083  -13.1263   22.2610 H   0  0  0  0  0  0
  -24.6523  -15.8312   20.5195 H   0  0  0  0  0  0
  -26.2639  -15.6265   20.0596 H   0  0  0  0  0  0
  -26.7109  -32.5502   23.1144 H   0  0  0  0  0  0
  -25.0113  -33.9789   25.0490 H   0  0  0  0  0  0
  -22.6941  -31.3063   21.4060 H   0  0  0  0  0  0
  -23.3740  -35.9638   23.3299 H   0  0  0  0  0  0
  -24.3577  -36.8923   22.2044 H   0  0  0  0  0  0
  -23.7256  -37.6520   23.6647 H   0  0  0  0  0  0
  -26.0515  -31.5887   20.5968 H   0  0  0  0  0  0
  -26.8199  -30.8750   21.9878 H   0  0  0  0  0  0
  -28.1028  -29.0863   21.1530 H   0  0  0  0  0  0
  -26.0127  -25.9487   19.0342 H   0  0  0  0  0  0
  -23.9696  -27.2811   19.0583 H   0  0  0  0  0  0
  -23.7243  -30.5883   19.4008 H   0  0  0  0  0  0
  -22.7362  -29.2368   19.8717 H   0  0  0  0  0  0
  -25.1288  -36.1956   25.0812 H   0  0  0  0  0  0
  -20.9948  -28.3220   24.1417 H   0  0  0  0  0  0
  -20.5634  -26.2265   23.3580 H   0  0  0  0  0  0
  -21.6642  -26.7417   22.1204 H   0  0  0  0  0  0
  -19.6914  -25.6278   21.1220 H   0  0  0  0  0  0
  -19.6687  -27.3174   20.6703 H   0  0  0  0  0  0
  -17.4189  -26.6622   21.4013 H   0  0  0  0  0  0
  -18.0349  -26.0024   22.8988 H   0  0  0  0  0  0
  -19.7942  -30.7227   24.2265 H   0  0  0  0  0  0
  -17.5037  -31.6261   24.5148 H   0  0  0  0  0  0
  -15.5360  -30.2994   23.7656 H   0  0  0  0  0  0
  -15.8643  -28.0813   22.7080 H   0  0  0  0  0  0
  -24.5933  -30.6997   25.7860 H   0  0  0  0  0  0
  -24.8835  -32.2884   26.4824 H   0  0  0  0  0  0
  -25.8074  -30.9019   27.0289 H   0  0  0  0  0  0
  -26.2859  -29.6805   24.1160 H   0  0  0  0  0  0
  -27.4003  -29.7263   25.4630 H   0  0  0  0  0  0
  -27.8710  -30.4323   23.9341 H   0  0  0  0  0  0
  -27.2702  -33.3642   26.2005 H   0  0  0  0  0  0
  -28.3897  -32.6802   25.0324 H   0  0  0  0  0  0
  -28.0655  -31.8445   26.5438 H   0  0  0  0  0  0
  -28.2592  -38.0100   24.7524 H   0  0  0  0  0  0
  -28.1075  -36.2635   24.6266 H   0  0  0  0  0  0
  -27.2286  -37.1454   25.8855 H   0  0  0  0  0  0
  -20.9268  -29.8779   21.6977 H   0  0  0  0  0  0
  -26.0167  -38.2856   24.1429 H   0  0  0  0  0  0
  -30.4021  -17.5782   18.8630 H   0  0  0  0  0  0
  -30.4908  -19.9251   18.3061 H   0  0  0  0  0  0
  -28.1509  -20.8511   21.8357 H   0  0  0  0  0  0
  -32.2919  -22.8617   18.1935 H   0  0  0  0  0  0
  -32.0376  -21.5335   19.3155 H   0  0  0  0  0  0
  -31.8183  -23.1961   19.8547 H   0  0  0  0  0  0
  -30.4574  -16.7419   23.0408 H   0  0  0  0  0  0
  -31.7122  -16.9000   21.8040 H   0  0  0  0  0  0
  -31.6710  -15.4842   22.8568 H   0  0  0  0  0  0
  -28.7011  -15.9423   19.9176 H   0  0  0  0  0  0
  -28.2012  -16.1381   21.5728 H   0  0  0  0  0  0
  -28.8164  -24.1858   21.3001 H   0  0  0  0  0  0
  -27.1635  -24.4479   20.8481 H   0  0  0  0  0  0
  -30.0655  -21.8555   17.7046 H   0  0  0  0  0  0
  -29.9083  -23.4670   18.2435 H   0  0  0  0  0  0
  -27.5829  -22.8813   18.8093 H   0  0  0  0  0  0
  -27.3144  -22.2203   20.3757 H   0  0  0  0  0  0
  -28.0099  -25.3483   18.5485 H   0  0  0  0  0  0
  -29.5883  -25.2975   19.2455 H   0  0  0  0  0  0
  1 25  1  0  0  0
  1 30  2  0  0  0
  1 85  1  0  0  0
  2  3  1  0  0  0
  2 25  1  0  0  0
  2 87  1  0  0  0
  2 88  1  0  0  0
  3  4  1  0  0  0
  3 89  1  0  0  0
  3 90  1  0  0  0
  4  5  1  0  0  0
  4 91  1  0  0  0
  4 92  1  0  0  0
  5  6  1  0  0  0
  5 26  1  0  0  0
  5 93  1  0  0  0
  6 25  1  0  0  0
  6 94  1  0  0  0
  6 95  1  0  0  0
  7  8  2  0  0  0
  7 26  1  0  0  0
  7 29  1  0  0  0
  8  9  1  0  0  0
  8 22  1  0  0  0
  9 10  1  0  0  0
  9 27  2  0  0  0
 10 11  2  0  0  0
 10 15  1  0  0  0
 11 12  1  0  0  0
 11 96  1  0  0  0
 12 13  2  0  0  0
 12 97  1  0  0  0
 13 14  1  0  0  0
 13 31  1  0  0  0
 14 15  2  0  0  0
 14 98  1  0  0  0
 15 99  1  0  0  0
 16 17  2  0  0  0
 16 21  1  0  0  0
 16 31  1  0  0  0
 17 18  1  0  0  0
 17100  1  0  0  0
 18 19  2  0  0  0
 18101  1  0  0  0
 19 20  1  0  0  0
 19 24  1  0  0  0
 20 21  2  0  0  0
 20102  1  0  0  0
 21 23  1  0  0  0
 22 28  1  0  0  0
 22 32  2  0  0  0
 26 27  1  0  0  0
 28103  1  0  0  0
 28104  1  0  0  0
 29105  1  0  0  0
 29106  1  0  0  0
 33 34  1  0  0  0
 33 66  1  0  0  0
 33 70  2  0  0  0
 34 36  1  0  0  0
 34 59  1  0  0  0
 34107  1  0  0  0
 35 44  2  0  0  0
 35 45  1  0  0  0
 35 68  1  0  0  0
 36 56  1  0  0  0
 36108  1  0  0  0
 37 39  1  0  0  0
 37 47  1  0  0  0
 37 66  1  0  0  0
 37109  1  0  0  0
 38 43  2  0  0  0
 38 46  1  0  0  0
 38 47  1  0  0  0
 39 64  1  0  0  0
 39 67  2  0  0  0
 40 52  1  0  0  0
 40 53  2  0  0  0
 40 58  1  0  0  0
 41110  1  0  0  0
 41111  1  0  0  0
 41112  1  0  0  0
 41 48  1  0  0  0
 42 43  1  0  0  0
 42 66  1  0  0  0
 42113  1  0  0  0
 42114  1  0  0  0
 43 44  1  0  0  0
 44115  1  0  0  0
 45 46  2  0  0  0
 45116  1  0  0  0
 46117  1  0  0  0
 47118  1  0  0  0
 47119  1  0  0  0
 48 56  1  0  0  0
 48 65  1  0  0  0
 48120  1  0  0  0
 49 50  1  0  0  0
 49 53  1  0  0  0
 49 64  1  0  0  0
 49121  1  0  0  0
 50 51  1  0  0  0
 50122  1  0  0  0
 50123  1  0  0  0
 51 52  1  0  0  0
 51124  1  0  0  0
 51125  1  0  0  0
 52126  1  0  0  0
 52127  1  0  0  0
 53 54  1  0  0  0
 54 55  2  0  0  0
 54128  1  0  0  0
 55 57  1  0  0  0
 55129  1  0  0  0
 56 69  2  0  0  0
 57 58  2  0  0  0
 57130  1  0  0  0
 58131  1  0  0  0
 59 60  1  0  0  0
 59 61  1  0  0  0
 59 62  1  0  0  0
 60132  1  0  0  0
 60133  1  0  0  0
 60134  1  0  0  0
 61135  1  0  0  0
 61136  1  0  0  0
 61137  1  0  0  0
 62138  1  0  0  0
 62139  1  0  0  0
 62140  1  0  0  0
 63 65  1  0  0  0
 63141  1  0  0  0
 63142  1  0  0  0
 63143  1  0  0  0
 64144  1  0  0  0
 65145  1  0  0  0
 68 83  1  0  0  0
 71 72  2  0  0  0
 71 74  1  0  0  0
 71146  1  0  0  0
 72 75  1  0  0  0
 72147  1  0  0  0
 73 75  2  0  0  0
 73 76  1  0  0  0
 73148  1  0  0  0
 74 76  2  0  0  0
 74 79  1  0  0  0
 75 84  1  0  0  0
 76 86  1  0  0  0
 77 81  1  0  0  0
 77149  1  0  0  0
 77150  1  0  0  0
 77151  1  0  0  0
 78 85  1  0  0  0
 78152  1  0  0  0
 78153  1  0  0  0
 78154  1  0  0  0
 79 85  1  0  0  0
 79155  1  0  0  0
 79156  1  0  0  0
 80 82  1  0  0  0
 80 83  1  0  0  0
 80157  1  0  0  0
 80158  1  0  0  0
 81 84  1  0  0  0
 81159  1  0  0  0
 81160  1  0  0  0
 82 84  1  0  0  0
 82161  1  0  0  0
 82162  1  0  0  0
 83163  1  0  0  0
 83164  1  0  0  0
M  ISO  4   1 100  68 101  83 101  85 100
M  END
> <chiral flag>
0

> <version>
0

> <s_m_source_file>
/data/baiqing/PycharmProjects/Reinvent-master-3.2/result/LINK_invent/BTK/process_docking_weight1_custom_product_contain_oxygen_bond_distance_aromatic_linkinvent_7_9_3/rearranged_h_0019.sdf

> <i_m_source_file_index>
96

> <r_mmod_Potential_Energy-OPLS-2005>
121.82445526123

> <r_mmod_Stretch_Energy-OPLS-2005>
48.7060623168945

> <r_mmod_Bend_Energy-OPLS-2005>
127.379524230957

> <r_mmod_Torsional_Energy-OPLS-2005>
268.44189453125

> <r_mmod_Improper_Torsional_Energy-OPLS-2005>
6.54435586929321

> <r_mmod_Van_der_Waal_Energy-OPLS-2005>
159.53955078125

> <r_mmod_Electrostatic_Energy-OPLS-2005>
-306.800445556641

> <r_mmod_Solvation_Energy-OPLS-2005>
-199.915756225586

> <b_mmod_Minimization_Converged-OPLS-2005>
0

> <r_mmod_RMS_Derivative-OPLS-2005>
1.6889979839325

$$$$
96
                    3D
 Structure written by MMmdl.
159167  0  0  1  0            999 V2000
  -30.6382  -14.5596   20.5567 C   0  0  0  0  0  0
  -30.4385  -12.3600   19.4226 C   0  0  0  0  0  0
  -29.4986  -12.5114   18.2070 C   0  0  0  0  0  0
  -28.0196  -12.3561   18.6203 C   0  0  0  0  0  0
  -27.6563  -13.2042   19.8683 C   0  0  2  0  0  0
  -28.7026  -13.0050   20.9879 C   0  0  0  0  0  0
  -25.2572  -13.8147   20.5681 C   0  0  0  0  0  0
  -24.1823  -13.0426   20.9184 C   0  0  0  0  0  0
  -24.6377  -11.6891   20.8739 C   0  0  0  0  0  0
  -23.9044  -10.4278   21.0393 C   0  0  0  0  0  0
  -24.3602   -9.4199   21.9174 C   0  0  0  0  0  0
  -23.6280   -8.2237   22.0746 C   0  0  0  0  0  0
  -22.4261   -8.0271   21.3544 C   0  0  0  0  0  0
  -21.9894   -9.0239   20.4645 C   0  0  0  0  0  0
  -22.7215  -10.2118   20.3045 C   0  0  0  0  0  0
  -21.6852   -6.0731   22.5280 C   0  0  0  0  0  0
  -21.4019   -6.5637   23.8212 C   0  0  0  0  0  0
  -21.3657   -5.6789   24.9172 C   0  0  0  0  0  0
  -21.6041   -4.3053   24.7224 C   0  0  0  0  0  0
  -21.8820   -3.8144   23.4348 C   0  0  0  0  0  0
  -21.9191   -4.6962   22.3406 C   0  0  0  0  0  0
  -22.7846  -13.5229   21.1844 C   0  0  0  0  0  0
  -22.1655   -4.2143   21.0986 F   0  0  0  0  0  0
  -21.5623   -3.4544   25.7743 F   0  0  0  0  0  0
  -30.0198  -13.3490   20.4296 N   0  0  0  0  0  0
  -26.2994  -12.9304   20.3335 N   0  0  0  0  0  0
  -25.9303  -11.6469   20.5753 N   0  0  0  0  0  0
  -22.0489  -12.8225   22.0410 N   0  0  0  0  0  0
  -25.4295  -15.1870   20.4093 N   0  0  0  0  0  0
  -31.7944  -14.7552   20.1693 O   0  0  0  0  0  0
  -21.6633   -6.8868   21.4236 O   0  0  0  0  0  0
  -22.3532  -14.5534   20.6684 O   0  0  0  0  0  0
  -24.6175  -31.8651   23.2037 C   0  0  0  0  0  0
  -25.9042  -32.4818   23.8365 C   0  0  1  0  0  0
  -27.2438  -27.4016   20.1110 C   0  0  0  0  0  0
  -25.5894  -33.8614   24.2316 N   0  0  0  0  0  0
  -23.4096  -30.4839   21.5459 C   0  0  2  0  0  0
  -24.8587  -28.9388   20.1163 C   0  0  0  0  0  0
  -22.7433  -29.4644   22.4985 C   0  0  0  0  0  0
  -18.0274  -28.1383   22.8480 C   0  0  0  0  0  0
  -24.1486  -36.7323   23.2638 C   0  0  0  0  0  0
  -25.9385  -30.8250   21.3539 C   0  0  0  0  0  0
  -26.0187  -29.4525   20.7087 C   0  0  0  0  0  0
  -27.2157  -28.6948   20.6929 C   0  0  0  0  0  0
  -26.0653  -26.9033   19.5182 C   0  0  0  0  0  0
  -24.8797  -27.6672   19.5138 C   0  0  0  0  0  0
  -23.6193  -29.8066   20.1630 C   0  0  0  0  0  0
  -25.4104  -36.3108   24.0339 C   0  0  1  0  0  0
  -20.5866  -28.3675   23.1318 C   0  0  2  0  0  0
  -20.6776  -26.9409   22.5424 C   0  0  0  0  0  0
  -19.5760  -26.6391   21.5216 C   0  0  0  0  0  0
  -18.1931  -26.7937   22.1608 C   0  0  0  0  0  0
  -19.1523  -28.8845   23.2895 C   0  0  0  0  0  0
  -18.9446  -30.1443   23.8918 C   0  0  0  0  0  0
  -17.6454  -30.6591   24.0559 C   0  0  0  0  0  0
  -25.9033  -34.9475   23.5130 C   0  0  0  0  0  0
  -16.5345  -29.9091   23.6316 C   0  0  0  0  0  0
  -16.7264  -28.6501   23.0342 C   0  0  0  0  0  0
  -26.4466  -31.6580   25.0691 C   0  0  0  0  0  0
  -25.3718  -31.3635   26.1421 C   0  0  0  0  0  0
  -27.0295  -30.3045   24.6017 C   0  0  0  0  0  0
  -27.6081  -32.4254   25.7426 C   0  0  0  0  0  0
  -27.5585  -37.1805   24.8470 C   0  0  0  0  0  0
  -21.4155  -29.3036   22.3723 N   0  0  0  0  0  0
  -26.4295  -37.3793   23.9415 N   0  0  0  0  0  0
  -24.6752  -31.0717   22.0949 N   0  0  0  0  0  0
  -23.4184  -28.8183   23.3048 O   0  0  0  0  0  0
  -28.4244  -26.6781   20.0811 O   0  0  0  0  0  0
  -26.5587  -34.8927   22.4688 O   0  0  0  0  0  0
  -23.5354  -32.1420   23.7412 O   0  0  0  0  0  0
  -30.6211  -18.4888   23.1259 C   0  0  0  0  0  0
  -30.4373  -19.5864   22.2606 C   0  0  0  0  0  0
  -30.4602  -17.1692   22.6579 C   0  0  0  0  0  0
  -29.8923  -18.0418   20.4514 C   0  0  0  0  0  0
  -30.0711  -19.3851   20.9115 C   0  0  0  0  0  0
  -30.1078  -16.9229   21.3136 C   0  0  0  0  0  0
  -27.6516  -21.3347   20.1342 C   0  0  0  0  0  0
  -30.0062  -20.6060   19.9574 C   0  0  0  0  0  0
  -28.4190  -24.2120   19.4587 C   0  0  0  0  0  0
  -29.4380  -23.0081   19.5662 C   0  0  0  0  0  0
  -28.4317  -25.3110   20.5658 C   0  0  0  0  0  0
  -29.8104  -15.5736   20.9215 N   0  0  0  0  0  0
  -29.0671  -21.7371   20.2970 N   0  3  1  0  0  0
  -31.4756  -12.5012   19.1148 H   0  0  0  0  0  0
  -30.3811  -11.3511   19.8362 H   0  0  0  0  0  0
  -29.7520  -11.7776   17.4406 H   0  0  0  0  0  0
  -29.6471  -13.4904   17.7504 H   0  0  0  0  0  0
  -27.8419  -11.3001   18.8275 H   0  0  0  0  0  0
  -27.3659  -12.6155   17.7868 H   0  0  0  0  0  0
  -27.6866  -14.2474   19.5541 H   0  0  0  0  0  0
  -28.7054  -11.9665   21.3242 H   0  0  0  0  0  0
  -28.4586  -13.5995   21.8705 H   0  0  0  0  0  0
  -25.2745   -9.5681   22.4742 H   0  0  0  0  0  0
  -23.9994   -7.4633   22.7464 H   0  0  0  0  0  0
  -21.0823   -8.8749   19.8959 H   0  0  0  0  0  0
  -22.3664  -10.9652   19.6152 H   0  0  0  0  0  0
  -21.2018   -7.6145   23.9715 H   0  0  0  0  0  0
  -21.1477   -6.0521   25.9073 H   0  0  0  0  0  0
  -22.0605   -2.7607   23.2853 H   0  0  0  0  0  0
  -22.4091  -11.9885   22.4811 H   0  0  0  0  0  0
  -21.1102  -13.1239   22.2600 H   0  0  0  0  0  0
  -24.6634  -15.8412   20.5274 H   0  0  0  0  0  0
  -26.2784  -15.6317   20.0847 H   0  0  0  0  0  0
  -26.7120  -32.5531   23.1134 H   0  0  0  0  0  0
  -25.0059  -33.9791   25.0474 H   0  0  0  0  0  0
  -22.7015  -31.3019   21.3981 H   0  0  0  0  0  0
  -23.3756  -35.9653   23.3299 H   0  0  0  0  0  0
  -24.3601  -36.8938   22.2057 H   0  0  0  0  0  0
  -23.7220  -37.6517   23.6661 H   0  0  0  0  0  0
  -26.0399  -31.5829   20.5755 H   0  0  0  0  0  0
  -26.8308  -30.8939   21.9641 H   0  0  0  0  0  0
  -28.1173  -29.0907   21.1385 H   0  0  0  0  0  0
  -26.0668  -25.9325   19.0440 H   0  0  0  0  0  0
  -23.9894  -27.2722   19.0448 H   0  0  0  0  0  0
  -23.7213  -30.5761   19.3967 H   0  0  0  0  0  0
  -22.7452  -29.2207   19.8727 H   0  0  0  0  0  0
  -25.1271  -36.1988   25.0832 H   0  0  0  0  0  0
  -20.9950  -28.3237   24.1443 H   0  0  0  0  0  0
  -20.5684  -26.2279   23.3607 H   0  0  0  0  0  0
  -21.6648  -26.7473   22.1214 H   0  0  0  0  0  0
  -19.6941  -25.6306   21.1238 H   0  0  0  0  0  0
  -19.6718  -27.3206   20.6751 H   0  0  0  0  0  0
  -17.4212  -26.6677   21.3994 H   0  0  0  0  0  0
  -18.0324  -26.0082   22.9003 H   0  0  0  0  0  0
  -19.7919  -30.7237   24.2329 H   0  0  0  0  0  0
  -17.5002  -31.6277   24.5143 H   0  0  0  0  0  0
  -15.5340  -30.2991   23.7643 H   0  0  0  0  0  0
  -15.8655  -28.0821   22.7066 H   0  0  0  0  0  0
  -24.5953  -30.6932   25.7718 H   0  0  0  0  0  0
  -24.8833  -32.2754   26.4873 H   0  0  0  0  0  0
  -25.8065  -30.8801   27.0178 H   0  0  0  0  0  0
  -26.2815  -29.6777   24.1151 H   0  0  0  0  0  0
  -27.4195  -29.7299   25.4420 H   0  0  0  0  0  0
  -27.8586  -30.4414   23.9066 H   0  0  0  0  0  0
  -27.2805  -33.3593   26.2001 H   0  0  0  0  0  0
  -28.3885  -32.6725   25.0217 H   0  0  0  0  0  0
  -28.0748  -31.8345   26.5313 H   0  0  0  0  0  0
  -28.2596  -38.0105   24.7530 H   0  0  0  0  0  0
  -28.1069  -36.2637   24.6272 H   0  0  0  0  0  0
  -27.2309  -37.1427   25.8871 H   0  0  0  0  0  0
  -20.9335  -29.8719   21.6901 H   0  0  0  0  0  0
  -26.0189  -38.2877   24.1407 H   0  0  0  0  0  0
  -30.8927  -18.6612   24.1588 H   0  0  0  0  0  0
  -30.6017  -20.5851   22.6417 H   0  0  0  0  0  0
  -30.5888  -16.3473   23.3488 H   0  0  0  0  0  0
  -29.6043  -17.8667   19.4232 H   0  0  0  0  0  0
  -27.4495  -20.3993   20.6561 H   0  0  0  0  0  0
  -27.4015  -21.1923   19.0822 H   0  0  0  0  0  0
  -26.9784  -22.0813   20.5543 H   0  0  0  0  0  0
  -29.7901  -20.2573   18.9463 H   0  0  0  0  0  0
  -31.0203  -21.0071   19.9138 H   0  0  0  0  0  0
  -27.4009  -23.8847   19.2580 H   0  0  0  0  0  0
  -28.7009  -24.7331   18.5430 H   0  0  0  0  0  0
  -30.3897  -23.3729   19.9570 H   0  0  0  0  0  0
  -29.6535  -22.7094   18.5393 H   0  0  0  0  0  0
  -29.3540  -25.2164   21.1392 H   0  0  0  0  0  0
  -27.6287  -25.1417   21.2851 H   0  0  0  0  0  0
  -28.8623  -15.2802   21.0950 H   0  0  0  0  0  0
  -29.1931  -21.9289   21.2784 H   0  0  0  0  0  0
  1 25  1  0  0  0
  1 30  2  0  0  0
  1 82  1  0  0  0
  2  3  1  0  0  0
  2 25  1  0  0  0
  2 84  1  0  0  0
  2 85  1  0  0  0
  3  4  1  0  0  0
  3 86  1  0  0  0
  3 87  1  0  0  0
  4  5  1  0  0  0
  4 88  1  0  0  0
  4 89  1  0  0  0
  5  6  1  0  0  0
  5 26  1  0  0  0
  5 90  1  0  0  0
  6 25  1  0  0  0
  6 91  1  0  0  0
  6 92  1  0  0  0
  7  8  2  0  0  0
  7 26  1  0  0  0
  7 29  1  0  0  0
  8  9  1  0  0  0
  8 22  1  0  0  0
  9 10  1  0  0  0
  9 27  2  0  0  0
 10 11  2  0  0  0
 10 15  1  0  0  0
 11 12  1  0  0  0
 11 93  1  0  0  0
 12 13  2  0  0  0
 12 94  1  0  0  0
 13 14  1  0  0  0
 13 31  1  0  0  0
 14 15  2  0  0  0
 14 95  1  0  0  0
 15 96  1  0  0  0
 16 17  2  0  0  0
 16 21  1  0  0  0
 16 31  1  0  0  0
 17 18  1  0  0  0
 17 97  1  0  0  0
 18 19  2  0  0  0
 18 98  1  0  0  0
 19 20  1  0  0  0
 19 24  1  0  0  0
 20 21  2  0  0  0
 20 99  1  0  0  0
 21 23  1  0  0  0
 22 28  1  0  0  0
 22 32  2  0  0  0
 26 27  1  0  0  0
 28100  1  0  0  0
 28101  1  0  0  0
 29102  1  0  0  0
 29103  1  0  0  0
 33 34  1  0  0  0
 33 66  1  0  0  0
 33 70  2  0  0  0
 34 36  1  0  0  0
 34 59  1  0  0  0
 34104  1  0  0  0
 35 44  2  0  0  0
 35 45  1  0  0  0
 35 68  1  0  0  0
 36 56  1  0  0  0
 36105  1  0  0  0
 37 39  1  0  0  0
 37 47  1  0  0  0
 37 66  1  0  0  0
 37106  1  0  0  0
 38 43  2  0  0  0
 38 46  1  0  0  0
 38 47  1  0  0  0
 39 64  1  0  0  0
 39 67  2  0  0  0
 40 52  1  0  0  0
 40 53  2  0  0  0
 40 58  1  0  0  0
 41107  1  0  0  0
 41108  1  0  0  0
 41109  1  0  0  0
 41 48  1  0  0  0
 42 43  1  0  0  0
 42 66  1  0  0  0
 42110  1  0  0  0
 42111  1  0  0  0
 43 44  1  0  0  0
 44112  1  0  0  0
 45 46  2  0  0  0
 45113  1  0  0  0
 46114  1  0  0  0
 47115  1  0  0  0
 47116  1  0  0  0
 48 56  1  0  0  0
 48 65  1  0  0  0
 48117  1  0  0  0
 49 50  1  0  0  0
 49 53  1  0  0  0
 49 64  1  0  0  0
 49118  1  0  0  0
 50 51  1  0  0  0
 50119  1  0  0  0
 50120  1  0  0  0
 51 52  1  0  0  0
 51121  1  0  0  0
 51122  1  0  0  0
 52123  1  0  0  0
 52124  1  0  0  0
 53 54  1  0  0  0
 54 55  2  0  0  0
 54125  1  0  0  0
 55 57  1  0  0  0
 55126  1  0  0  0
 56 69  2  0  0  0
 57 58  2  0  0  0
 57127  1  0  0  0
 58128  1  0  0  0
 59 60  1  0  0  0
 59 61  1  0  0  0
 59 62  1  0  0  0
 60129  1  0  0  0
 60130  1  0  0  0
 60131  1  0  0  0
 61132  1  0  0  0
 61133  1  0  0  0
 61134  1  0  0  0
 62135  1  0  0  0
 62136  1  0  0  0
 62137  1  0  0  0
 63 65  1  0  0  0
 63138  1  0  0  0
 63139  1  0  0  0
 63140  1  0  0  0
 64141  1  0  0  0
 65142  1  0  0  0
 68 81  1  0  0  0
 71 72  2  0  0  0
 71 73  1  0  0  0
 71143  1  0  0  0
 72 75  1  0  0  0
 72144  1  0  0  0
 73 76  2  0  0  0
 73145  1  0  0  0
 74 75  2  0  0  0
 74 76  1  0  0  0
 74146  1  0  0  0
 75 78  1  0  0  0
 76 82  1  0  0  0
 77147  1  0  0  0
 77148  1  0  0  0
 77149  1  0  0  0
 77 83  1  0  0  0
 78 83  1  0  0  0
 78150  1  0  0  0
 78151  1  0  0  0
 79 80  1  0  0  0
 79 81  1  0  0  0
 79152  1  0  0  0
 79153  1  0  0  0
 80 83  1  0  0  0
 80154  1  0  0  0
 80155  1  0  0  0
 81156  1  0  0  0
 81157  1  0  0  0
 82158  1  0  0  0
 83159  1  0  0  0
M  CHG  1  83   1
M  ISO  4   1 100  68 101  81 101  82 100
M  END
> <chiral flag>
0

> <version>
0

> <s_m_source_file>
/data/baiqing/PycharmProjects/Reinvent-master-3.2/result/LINK_invent/BTK/process_docking_weight1_custom_product_contain_oxygen_bond_distance_aromatic_linkinvent_7_9_3/rearranged_h_0019.sdf

> <i_m_source_file_index>
97

> <r_mmod_Potential_Energy-OPLS-2005>
-110.506134033203

> <r_mmod_Stretch_Energy-OPLS-2005>
52.4333229064941

> <r_mmod_Bend_Energy-OPLS-2005>
124.485054016113

> <r_mmod_Torsional_Energy-OPLS-2005>
269.557495117188

> <r_mmod_Improper_Torsional_Energy-OPLS-2005>
6.56660842895508

> <r_mmod_Van_der_Waal_Energy-OPLS-2005>
140.084213256836

> <r_mmod_Electrostatic_Energy-OPLS-2005>
-265.61083984375

> <r_mmod_Solvation_Energy-OPLS-2005>
-460.304290771484

> <b_mmod_Minimization_Converged-OPLS-2005>
0

> <r_mmod_RMS_Derivative-OPLS-2005>
2.0980486869812

$$$$
