0
                    3D
 Structure written by MMmdl.
162170  0  0  1  0            999 V2000
  -30.6312  -14.6092   20.5255 C   0  0  0  0  0  0
  -30.4411  -12.3782   19.4498 C   0  0  0  0  0  0
  -29.5093  -12.5098   18.2244 C   0  0  0  0  0  0
  -28.0310  -12.3523   18.6339 C   0  0  0  0  0  0
  -27.6576  -13.2142   19.8689 C   0  0  2  0  0  0
  -28.6995  -13.0462   20.9982 C   0  0  0  0  0  0
  -25.2574  -13.8164   20.5659 C   0  0  0  0  0  0
  -24.1841  -13.0438   20.9189 C   0  0  0  0  0  0
  -24.6400  -11.6912   20.8738 C   0  0  0  0  0  0
  -23.9069  -10.4293   21.0407 C   0  0  0  0  0  0
  -24.3622   -9.4208   21.9185 C   0  0  0  0  0  0
  -23.6293   -8.2245   22.0757 C   0  0  0  0  0  0
  -22.4279   -8.0284   21.3542 C   0  0  0  0  0  0
  -21.9914   -9.0259   20.4648 C   0  0  0  0  0  0
  -22.7242  -10.2135   20.3054 C   0  0  0  0  0  0
  -21.6855   -6.0738   22.5281 C   0  0  0  0  0  0
  -21.4013   -6.5642   23.8212 C   0  0  0  0  0  0
  -21.3661   -5.6793   24.9177 C   0  0  0  0  0  0
  -21.6044   -4.3056   24.7225 C   0  0  0  0  0  0
  -21.8819   -3.8148   23.4347 C   0  0  0  0  0  0
  -21.9192   -4.6968   22.3401 C   0  0  0  0  0  0
  -22.7857  -13.5233   21.1845 C   0  0  0  0  0  0
  -22.1661   -4.2150   21.0979 F   0  0  0  0  0  0
  -21.5630   -3.4539   25.7738 F   0  0  0  0  0  0
  -30.0220  -13.3855   20.4432 N   0  0  0  0  0  0
  -26.3013  -12.9343   20.3335 N   0  0  0  0  0  0
  -25.9334  -11.6501   20.5768 N   0  0  0  0  0  0
  -22.0500  -12.8224   22.0405 N   0  0  0  0  0  0
  -25.4269  -15.1877   20.4032 N   0  0  0  0  0  0
  -31.7764  -14.7928   20.0995 O   0  0  0  0  0  0
  -21.6642   -6.8886   21.4243 O   0  0  0  0  0  0
  -22.3545  -14.5538   20.6703 O   0  0  0  0  0  0
  -24.6226  -31.8612   23.2045 C   0  0  0  0  0  0
  -25.9102  -32.4779   23.8343 C   0  0  1  0  0  0
  -27.2239  -27.3484   20.1056 C   0  0  0  0  0  0
  -25.5926  -33.8584   24.2265 N   0  0  0  0  0  0
  -23.4133  -30.4862   21.5457 C   0  0  2  0  0  0
  -24.8594  -28.9473   20.1088 C   0  0  0  0  0  0
  -22.7441  -29.4637   22.4943 C   0  0  0  0  0  0
  -18.0290  -28.1389   22.8498 C   0  0  0  0  0  0
  -24.1495  -36.7303   23.2635 C   0  0  0  0  0  0
  -25.9502  -30.8017   21.3701 C   0  0  0  0  0  0
  -26.0248  -29.4309   20.7159 C   0  0  0  0  0  0
  -27.2072  -28.6391   20.7111 C   0  0  0  0  0  0
  -26.0385  -26.9192   19.4621 C   0  0  0  0  0  0
  -24.8652  -27.6941   19.4785 C   0  0  0  0  0  0
  -23.6250  -29.8212   20.1595 C   0  0  0  0  0  0
  -25.4115  -36.3074   24.0313 C   0  0  1  0  0  0
  -20.5878  -28.3678   23.1307 C   0  0  2  0  0  0
  -20.6771  -26.9410   22.5404 C   0  0  0  0  0  0
  -19.5748  -26.6396   21.5209 C   0  0  0  0  0  0
  -18.1936  -26.7935   22.1623 C   0  0  0  0  0  0
  -19.1540  -28.8851   23.2902 C   0  0  0  0  0  0
  -18.9464  -30.1458   23.8909 C   0  0  0  0  0  0
  -17.6460  -30.6592   24.0579 C   0  0  0  0  0  0
  -25.9046  -34.9453   23.5086 C   0  0  0  0  0  0
  -16.5351  -29.9096   23.6333 C   0  0  0  0  0  0
  -16.7274  -28.6513   23.0347 C   0  0  0  0  0  0
  -26.4495  -31.6583   25.0702 C   0  0  0  0  0  0
  -25.3741  -31.3725   26.1434 C   0  0  0  0  0  0
  -27.0316  -30.3006   24.6127 C   0  0  0  0  0  0
  -27.6047  -32.4306   25.7491 C   0  0  0  0  0  0
  -27.5573  -37.1798   24.8458 C   0  0  0  0  0  0
  -21.4154  -29.3042   22.3699 N   0  0  0  0  0  0
  -26.4287  -37.3767   23.9403 N   0  0  0  0  0  0
  -24.6815  -31.0634   22.0990 N   0  0  0  0  0  0
  -23.4193  -28.8187   23.3011 O   0  0  0  0  0  0
  -28.3594  -26.5327   20.1635 O   0  0  0  0  0  0
  -26.5607  -34.8914   22.4649 O   0  0  0  0  0  0
  -23.5396  -32.1416   23.7390 O   0  0  0  0  0  0
  -30.7826  -19.2163   19.9912 C   0  0  0  0  0  0
  -30.7841  -17.7919   20.0369 C   0  0  0  0  0  0
  -29.0084  -19.2832   21.6170 C   0  0  0  0  0  0
  -29.9066  -19.9984   20.7904 C   0  0  0  0  0  0
  -29.0093  -17.8580   21.6765 C   0  0  0  0  0  0
  -29.9081  -17.0752   20.8946 C   0  0  0  0  0  0
  -28.0425  -17.1773   22.6319 C   0  0  0  0  0  0
  -30.6595  -24.5629   20.3789 C   0  0  0  0  0  0
  -28.9338  -24.3182   22.1836 C   0  0  0  0  0  0
  -30.0797  -21.5481   20.9212 C   0  0  0  0  0  0
  -29.0350  -22.5701   20.3064 C   0  0  0  0  0  0
  -28.2307  -25.0873   19.9005 C   0  0  0  0  0  0
  -29.2155  -24.1193   20.6801 C   0  0  0  0  0  0
  -29.8431  -15.6209   20.9923 N   0  0  0  0  0  0
  -31.4817  -12.5072   19.1466 H   0  0  0  0  0  0
  -30.3776  -11.3775   19.8794 H   0  0  0  0  0  0
  -29.7696  -11.7644   17.4724 H   0  0  0  0  0  0
  -29.6569  -13.4828   17.7534 H   0  0  0  0  0  0
  -27.8607  -11.2983   18.8555 H   0  0  0  0  0  0
  -27.3790  -12.5946   17.7939 H   0  0  0  0  0  0
  -27.6841  -14.2541   19.5415 H   0  0  0  0  0  0
  -28.7035  -12.0197   21.3671 H   0  0  0  0  0  0
  -28.4426  -13.6644   21.8599 H   0  0  0  0  0  0
  -25.2769   -9.5685   22.4759 H   0  0  0  0  0  0
  -24.0005   -7.4637   22.7473 H   0  0  0  0  0  0
  -21.0849   -8.8779   19.8950 H   0  0  0  0  0  0
  -22.3707  -10.9677   19.6164 H   0  0  0  0  0  0
  -21.2007   -7.6149   23.9718 H   0  0  0  0  0  0
  -21.1482   -6.0522   25.9076 H   0  0  0  0  0  0
  -22.0598   -2.7611   23.2844 H   0  0  0  0  0  0
  -22.4115  -11.9887   22.4788 H   0  0  0  0  0  0
  -21.1118  -13.1253   22.2603 H   0  0  0  0  0  0
  -24.6551  -15.8387   20.4978 H   0  0  0  0  0  0
  -26.2678  -15.6226   20.0453 H   0  0  0  0  0  0
  -26.7162  -32.5432   23.1080 H   0  0  0  0  0  0
  -25.0080  -33.9742   25.0412 H   0  0  0  0  0  0
  -22.7066  -31.3063   21.4042 H   0  0  0  0  0  0
  -23.3738  -35.9653   23.3296 H   0  0  0  0  0  0
  -24.3596  -36.8928   22.2051 H   0  0  0  0  0  0
  -23.7274  -37.6514   23.6663 H   0  0  0  0  0  0
  -26.0661  -31.5661   20.6000 H   0  0  0  0  0  0
  -26.8375  -30.8557   21.9894 H   0  0  0  0  0  0
  -28.0989  -29.0038   21.2017 H   0  0  0  0  0  0
  -25.9865  -25.9736   18.9435 H   0  0  0  0  0  0
  -23.9718  -27.3193   18.9985 H   0  0  0  0  0  0
  -23.7346  -30.5972   19.3998 H   0  0  0  0  0  0
  -22.7475  -29.2420   19.8619 H   0  0  0  0  0  0
  -25.1301  -36.1908   25.0798 H   0  0  0  0  0  0
  -20.9973  -28.3237   24.1429 H   0  0  0  0  0  0
  -20.5686  -26.2278   23.3593 H   0  0  0  0  0  0
  -21.6644  -26.7459   22.1196 H   0  0  0  0  0  0
  -19.6915  -25.6318   21.1230 H   0  0  0  0  0  0
  -19.6693  -27.3216   20.6756 H   0  0  0  0  0  0
  -17.4200  -26.6691   21.4033 H   0  0  0  0  0  0
  -18.0344  -26.0081   22.9020 H   0  0  0  0  0  0
  -19.7934  -30.7277   24.2276 H   0  0  0  0  0  0
  -17.5015  -31.6274   24.5167 H   0  0  0  0  0  0
  -15.5351  -30.2996   23.7658 H   0  0  0  0  0  0
  -15.8670  -28.0840   22.7038 H   0  0  0  0  0  0
  -24.5931  -30.7051   25.7776 H   0  0  0  0  0  0
  -24.8927  -32.2901   26.4825 H   0  0  0  0  0  0
  -25.8092  -30.8938   27.0222 H   0  0  0  0  0  0
  -26.2874  -29.6773   24.1155 H   0  0  0  0  0  0
  -27.4032  -29.7231   25.4602 H   0  0  0  0  0  0
  -27.8739  -30.4288   23.9327 H   0  0  0  0  0  0
  -27.2648  -33.3602   26.2076 H   0  0  0  0  0  0
  -28.3884  -32.6871   25.0349 H   0  0  0  0  0  0
  -28.0690  -31.8421   26.5415 H   0  0  0  0  0  0
  -28.2567  -38.0112   24.7496 H   0  0  0  0  0  0
  -28.1086  -36.2635   24.6286 H   0  0  0  0  0  0
  -27.2293  -37.1456   25.8861 H   0  0  0  0  0  0
  -20.9311  -29.8763   21.6920 H   0  0  0  0  0  0
  -26.0155  -38.2833   24.1416 H   0  0  0  0  0  0
  -31.5066  -19.7120   19.3592 H   0  0  0  0  0  0
  -31.4825  -17.2596   19.4083 H   0  0  0  0  0  0
  -28.3407  -19.8402   22.2596 H   0  0  0  0  0  0
  -27.5232  -17.8994   23.2632 H   0  0  0  0  0  0
  -28.5757  -16.4931   23.2932 H   0  0  0  0  0  0
  -27.2903  -16.6123   22.0812 H   0  0  0  0  0  0
  -31.3815  -24.0480   21.0130 H   0  0  0  0  0  0
  -30.7944  -25.6291   20.5643 H   0  0  0  0  0  0
  -30.9309  -24.3694   19.3422 H   0  0  0  0  0  0
  -29.6271  -23.7648   22.8161 H   0  0  0  0  0  0
  -27.9226  -24.0056   22.4479 H   0  0  0  0  0  0
  -29.0272  -25.3692   22.4633 H   0  0  0  0  0  0
  -31.0636  -21.7891   20.5178 H   0  0  0  0  0  0
  -30.1586  -21.7423   21.9900 H   0  0  0  0  0  0
  -28.0330  -22.2557   20.6003 H   0  0  0  0  0  0
  -29.0584  -22.4637   19.2211 H   0  0  0  0  0  0
  -28.3505  -24.9376   18.8266 H   0  0  0  0  0  0
  -27.2281  -24.7387   20.1436 H   0  0  0  0  0  0
  -28.9944  -15.2771   21.4134 H   0  0  0  0  0  0
  1 25  1  0  0  0
  1 30  2  0  0  0
  1 84  1  0  0  0
  2  3  1  0  0  0
  2 25  1  0  0  0
  2 85  1  0  0  0
  2 86  1  0  0  0
  3  4  1  0  0  0
  3 87  1  0  0  0
  3 88  1  0  0  0
  4  5  1  0  0  0
  4 89  1  0  0  0
  4 90  1  0  0  0
  5  6  1  0  0  0
  5 26  1  0  0  0
  5 91  1  0  0  0
  6 25  1  0  0  0
  6 92  1  0  0  0
  6 93  1  0  0  0
  7  8  2  0  0  0
  7 26  1  0  0  0
  7 29  1  0  0  0
  8  9  1  0  0  0
  8 22  1  0  0  0
  9 10  1  0  0  0
  9 27  2  0  0  0
 10 11  2  0  0  0
 10 15  1  0  0  0
 11 12  1  0  0  0
 11 94  1  0  0  0
 12 13  2  0  0  0
 12 95  1  0  0  0
 13 14  1  0  0  0
 13 31  1  0  0  0
 14 15  2  0  0  0
 14 96  1  0  0  0
 15 97  1  0  0  0
 16 17  2  0  0  0
 16 21  1  0  0  0
 16 31  1  0  0  0
 17 18  1  0  0  0
 17 98  1  0  0  0
 18 19  2  0  0  0
 18 99  1  0  0  0
 19 20  1  0  0  0
 19 24  1  0  0  0
 20 21  2  0  0  0
 20100  1  0  0  0
 21 23  1  0  0  0
 22 28  1  0  0  0
 22 32  2  0  0  0
 26 27  1  0  0  0
 28101  1  0  0  0
 28102  1  0  0  0
 29103  1  0  0  0
 29104  1  0  0  0
 33 34  1  0  0  0
 33 66  1  0  0  0
 33 70  2  0  0  0
 34 36  1  0  0  0
 34 59  1  0  0  0
 34105  1  0  0  0
 35 44  2  0  0  0
 35 45  1  0  0  0
 35 68  1  0  0  0
 36 56  1  0  0  0
 36106  1  0  0  0
 37 39  1  0  0  0
 37 47  1  0  0  0
 37 66  1  0  0  0
 37107  1  0  0  0
 38 43  2  0  0  0
 38 46  1  0  0  0
 38 47  1  0  0  0
 39 64  1  0  0  0
 39 67  2  0  0  0
 40 52  1  0  0  0
 40 53  2  0  0  0
 40 58  1  0  0  0
 41108  1  0  0  0
 41109  1  0  0  0
 41110  1  0  0  0
 41 48  1  0  0  0
 42 43  1  0  0  0
 42 66  1  0  0  0
 42111  1  0  0  0
 42112  1  0  0  0
 43 44  1  0  0  0
 44113  1  0  0  0
 45 46  2  0  0  0
 45114  1  0  0  0
 46115  1  0  0  0
 47116  1  0  0  0
 47117  1  0  0  0
 48 56  1  0  0  0
 48 65  1  0  0  0
 48118  1  0  0  0
 49 50  1  0  0  0
 49 53  1  0  0  0
 49 64  1  0  0  0
 49119  1  0  0  0
 50 51  1  0  0  0
 50120  1  0  0  0
 50121  1  0  0  0
 51 52  1  0  0  0
 51122  1  0  0  0
 51123  1  0  0  0
 52124  1  0  0  0
 52125  1  0  0  0
 53 54  1  0  0  0
 54 55  2  0  0  0
 54126  1  0  0  0
 55 57  1  0  0  0
 55127  1  0  0  0
 56 69  2  0  0  0
 57 58  2  0  0  0
 57128  1  0  0  0
 58129  1  0  0  0
 59 60  1  0  0  0
 59 61  1  0  0  0
 59 62  1  0  0  0
 60130  1  0  0  0
 60131  1  0  0  0
 60132  1  0  0  0
 61133  1  0  0  0
 61134  1  0  0  0
 61135  1  0  0  0
 62136  1  0  0  0
 62137  1  0  0  0
 62138  1  0  0  0
 63 65  1  0  0  0
 63139  1  0  0  0
 63140  1  0  0  0
 63141  1  0  0  0
 64142  1  0  0  0
 65143  1  0  0  0
 68 82  1  0  0  0
 71 72  2  0  0  0
 71 74  1  0  0  0
 71144  1  0  0  0
 72 76  1  0  0  0
 72145  1  0  0  0
 73 74  2  0  0  0
 73 75  1  0  0  0
 73146  1  0  0  0
 74 80  1  0  0  0
 75 76  2  0  0  0
 75 77  1  0  0  0
 76 84  1  0  0  0
 77147  1  0  0  0
 77148  1  0  0  0
 77149  1  0  0  0
 78150  1  0  0  0
 78151  1  0  0  0
 78152  1  0  0  0
 78 83  1  0  0  0
 79 83  1  0  0  0
 79153  1  0  0  0
 79154  1  0  0  0
 79155  1  0  0  0
 80 81  1  0  0  0
 80156  1  0  0  0
 80157  1  0  0  0
 81 83  1  0  0  0
 81158  1  0  0  0
 81159  1  0  0  0
 82 83  1  0  0  0
 82160  1  0  0  0
 82161  1  0  0  0
 84162  1  0  0  0
M  ISO  4   1 100  68 101  82 101  84 100
M  END
> <chiral flag>
0

> <version>
0

> <s_m_source_file>
/data/baiqing/PycharmProjects/Reinvent-master-3.2/result/LINK_invent/BTK/process_docking_weight1_custom_product_contain_oxygen_bond_distance_aromatic_linkinvent_7_9_3/rearranged_h_0136.sdf

> <i_m_source_file_index>
1

> <r_mmod_Potential_Energy-OPLS-2005>
25.7066287994385

> <r_mmod_Stretch_Energy-OPLS-2005>
71.2707366943359

> <r_mmod_Bend_Energy-OPLS-2005>
133.864517211914

> <r_mmod_Torsional_Energy-OPLS-2005>
221.897705078125

> <r_mmod_Improper_Torsional_Energy-OPLS-2005>
4.36692476272583

> <r_mmod_Van_der_Waal_Energy-OPLS-2005>
146.378509521484

> <r_mmod_Electrostatic_Energy-OPLS-2005>
-397.1767578125

> <r_mmod_Solvation_Energy-OPLS-2005>
-192.410583496094

> <b_mmod_Minimization_Converged-OPLS-2005>
0

> <r_mmod_RMS_Derivative-OPLS-2005>
2.17398476600647

$$$$
1
                    3D
 Structure written by MMmdl.
152160  0  0  1  0            999 V2000
  -30.6839  -14.4723   20.5561 C   0  0  0  0  0  0
  -30.4251  -12.3000   19.4245 C   0  0  0  0  0  0
  -29.4969  -12.5029   18.2081 C   0  0  0  0  0  0
  -28.0167  -12.3653   18.6181 C   0  0  0  0  0  0
  -27.6622  -13.2037   19.8753 C   0  0  2  0  0  0
  -28.7023  -12.9781   20.9968 C   0  0  0  0  0  0
  -25.2596  -13.8159   20.5674 C   0  0  0  0  0  0
  -24.1843  -13.0441   20.9173 C   0  0  0  0  0  0
  -24.6389  -11.6905   20.8730 C   0  0  0  0  0  0
  -23.9055  -10.4294   21.0402 C   0  0  0  0  0  0
  -24.3610   -9.4212   21.9181 C   0  0  0  0  0  0
  -23.6290   -8.2245   22.0752 C   0  0  0  0  0  0
  -22.4272   -8.0280   21.3542 C   0  0  0  0  0  0
  -21.9903   -9.0253   20.4646 C   0  0  0  0  0  0
  -22.7228  -10.2134   20.3053 C   0  0  0  0  0  0
  -21.6853   -6.0734   22.5279 C   0  0  0  0  0  0
  -21.4013   -6.5640   23.8213 C   0  0  0  0  0  0
  -21.3660   -5.6793   24.9175 C   0  0  0  0  0  0
  -21.6044   -4.3055   24.7226 C   0  0  0  0  0  0
  -21.8820   -3.8146   23.4348 C   0  0  0  0  0  0
  -21.9194   -4.6962   22.3404 C   0  0  0  0  0  0
  -22.7867  -13.5244   21.1841 C   0  0  0  0  0  0
  -22.1662   -4.2149   21.0981 F   0  0  0  0  0  0
  -21.5630   -3.4538   25.7739 F   0  0  0  0  0  0
  -30.0352  -13.2819   20.4480 N   0  0  0  0  0  0
  -26.3025  -12.9318   20.3357 N   0  0  0  0  0  0
  -25.9315  -11.6482   20.5759 N   0  0  0  0  0  0
  -22.0505  -12.8237   22.0398 N   0  0  0  0  0  0
  -25.4334  -15.1876   20.4088 N   0  0  0  0  0  0
  -31.8233  -14.6535   20.1143 O   0  0  0  0  0  0
  -21.6638   -6.8876   21.4240 O   0  0  0  0  0  0
  -22.3555  -14.5553   20.6696 O   0  0  0  0  0  0
  -24.6144  -31.8676   23.2096 C   0  0  0  0  0  0
  -25.9041  -32.4816   23.8388 C   0  0  1  0  0  0
  -27.2369  -27.4314   20.0847 C   0  0  0  0  0  0
  -25.5898  -33.8615   24.2320 N   0  0  0  0  0  0
  -23.4012  -30.4913   21.5507 C   0  0  2  0  0  0
  -24.8454  -28.9547   20.1159 C   0  0  0  0  0  0
  -22.7403  -29.4659   22.4995 C   0  0  0  0  0  0
  -18.0268  -28.1376   22.8493 C   0  0  0  0  0  0
  -24.1486  -36.7315   23.2636 C   0  0  0  0  0  0
  -25.9302  -30.8303   21.3631 C   0  0  0  0  0  0
  -26.0050  -29.4636   20.7115 C   0  0  0  0  0  0
  -27.1984  -28.7068   20.6969 C   0  0  0  0  0  0
  -26.0494  -26.9299   19.5000 C   0  0  0  0  0  0
  -24.8621  -27.6862   19.5120 C   0  0  0  0  0  0
  -23.6084  -29.8226   20.1655 C   0  0  0  0  0  0
  -25.4105  -36.3107   24.0337 C   0  0  1  0  0  0
  -20.5857  -28.3659   23.1326 C   0  0  2  0  0  0
  -20.6758  -26.9399   22.5420 C   0  0  0  0  0  0
  -19.5739  -26.6385   21.5214 C   0  0  0  0  0  0
  -18.1917  -26.7923   22.1624 C   0  0  0  0  0  0
  -19.1516  -28.8834   23.2907 C   0  0  0  0  0  0
  -18.9445  -30.1441   23.8914 C   0  0  0  0  0  0
  -17.6448  -30.6583   24.0566 C   0  0  0  0  0  0
  -25.9037  -34.9473   23.5127 C   0  0  0  0  0  0
  -16.5339  -29.9087   23.6325 C   0  0  0  0  0  0
  -16.7257  -28.6503   23.0347 C   0  0  0  0  0  0
  -26.4470  -31.6596   25.0718 C   0  0  0  0  0  0
  -25.3740  -31.3701   26.1470 C   0  0  0  0  0  0
  -27.0296  -30.3038   24.6092 C   0  0  0  0  0  0
  -27.6048  -32.4313   25.7478 C   0  0  0  0  0  0
  -27.5585  -37.1801   24.8457 C   0  0  0  0  0  0
  -21.4131  -29.3029   22.3735 N   0  0  0  0  0  0
  -26.4286  -37.3796   23.9418 N   0  0  0  0  0  0
  -24.6670  -31.0777   22.0996 N   0  0  0  0  0  0
  -23.4179  -28.8205   23.3037 O   0  0  0  0  0  0
  -28.4340  -26.7389   20.0924 O   0  0  0  0  0  0
  -26.5601  -34.8928   22.4689 O   0  0  0  0  0  0
  -23.5340  -32.1432   23.7496 O   0  0  0  0  0  0
  -30.8746  -18.9039   20.0813 C   0  0  0  0  0  0
  -31.1579  -17.5715   20.5131 C   0  0  0  0  0  0
  -29.5346  -19.1652   19.9583 C   0  0  0  0  0  0
  -30.0362  -16.7998   20.7187 C   0  0  0  0  0  0
  -28.4199  -24.2568   20.2103 C   0  0  0  0  0  0
  -28.8868  -20.3995   19.3851 C   0  0  0  0  0  0
  -28.3783  -22.9079   19.4703 C   0  0  0  0  0  0
  -28.5773  -25.5210   19.3385 C   0  0  0  0  0  0
  -28.9054  -21.6764   20.2579 C   0  0  0  0  0  0
  -29.9339  -15.4804   21.0475 N   0  0  0  0  0  0
  -28.3338  -24.3169   21.4414 O   0  0  0  0  0  0
  -28.6009  -17.7796   20.4802 S   0  0  0  0  0  0
  -31.4700  -12.4003   19.1252 H   0  0  0  0  0  0
  -30.3254  -11.2879   19.8195 H   0  0  0  0  0  0
  -29.7361  -11.7796   17.4274 H   0  0  0  0  0  0
  -29.6674  -13.4892   17.7733 H   0  0  0  0  0  0
  -27.8243  -11.3094   18.8118 H   0  0  0  0  0  0
  -27.3682  -12.6428   17.7865 H   0  0  0  0  0  0
  -27.7076  -14.2518   19.5787 H   0  0  0  0  0  0
  -28.6761  -11.9413   21.3351 H   0  0  0  0  0  0
  -28.4649  -13.5752   21.8784 H   0  0  0  0  0  0
  -25.2757   -9.5693   22.4751 H   0  0  0  0  0  0
  -24.0004   -7.4638   22.7471 H   0  0  0  0  0  0
  -21.0834   -8.8770   19.8953 H   0  0  0  0  0  0
  -22.3686  -10.9671   19.6161 H   0  0  0  0  0  0
  -21.2003   -7.6148   23.9716 H   0  0  0  0  0  0
  -21.1481   -6.0522   25.9079 H   0  0  0  0  0  0
  -22.0598   -2.7608   23.2846 H   0  0  0  0  0  0
  -22.4110  -11.9892   22.4782 H   0  0  0  0  0  0
  -21.1126  -13.1269   22.2608 H   0  0  0  0  0  0
  -24.6670  -15.8433   20.5153 H   0  0  0  0  0  0
  -26.2858  -15.6256   20.0836 H   0  0  0  0  0  0
  -26.7109  -32.5524   23.1150 H   0  0  0  0  0  0
  -25.0045  -33.9774   25.0462 H   0  0  0  0  0  0
  -22.6897  -31.3079   21.4120 H   0  0  0  0  0  0
  -23.3748  -35.9646   23.3286 H   0  0  0  0  0  0
  -24.3590  -36.8943   22.2054 H   0  0  0  0  0  0
  -23.7234  -37.6514   23.6658 H   0  0  0  0  0  0
  -26.0430  -31.5955   20.5938 H   0  0  0  0  0  0
  -26.8184  -30.8834   21.9811 H   0  0  0  0  0  0
  -28.0954  -29.1011   21.1537 H   0  0  0  0  0  0
  -26.0067  -25.9555   19.0379 H   0  0  0  0  0  0
  -23.9666  -27.2844   19.0580 H   0  0  0  0  0  0
  -23.7163  -30.5964   19.4045 H   0  0  0  0  0  0
  -22.7319  -29.2422   19.8714 H   0  0  0  0  0  0
  -25.1279  -36.1965   25.0828 H   0  0  0  0  0  0
  -20.9946  -28.3220   24.1447 H   0  0  0  0  0  0
  -20.5660  -26.2266   23.3603 H   0  0  0  0  0  0
  -21.6629  -26.7444   22.1214 H   0  0  0  0  0  0
  -19.6900  -25.6301   21.1231 H   0  0  0  0  0  0
  -19.6682  -27.3206   20.6753 H   0  0  0  0  0  0
  -17.4189  -26.6673   21.4023 H   0  0  0  0  0  0
  -18.0317  -26.0061   22.9016 H   0  0  0  0  0  0
  -19.7922  -30.7251   24.2292 H   0  0  0  0  0  0
  -17.5005  -31.6267   24.5162 H   0  0  0  0  0  0
  -15.5340  -30.2994   23.7643 H   0  0  0  0  0  0
  -15.8656  -28.0831   22.7051 H   0  0  0  0  0  0
  -24.5910  -30.7050   25.7808 H   0  0  0  0  0  0
  -24.8937  -32.2856   26.4931 H   0  0  0  0  0  0
  -25.8100  -30.8860   27.0219 H   0  0  0  0  0  0
  -26.2836  -29.6801   24.1153 H   0  0  0  0  0  0
  -27.4071  -29.7270   25.4547 H   0  0  0  0  0  0
  -27.8671  -30.4350   23.9235 H   0  0  0  0  0  0
  -27.2668  -33.3599   26.2088 H   0  0  0  0  0  0
  -28.3842  -32.6894   25.0295 H   0  0  0  0  0  0
  -28.0737  -31.8418   26.5367 H   0  0  0  0  0  0
  -28.2578  -38.0123   24.7546 H   0  0  0  0  0  0
  -28.1105  -36.2659   24.6222 H   0  0  0  0  0  0
  -27.2316  -37.1379   25.8861 H   0  0  0  0  0  0
  -20.9288  -29.8754   21.6963 H   0  0  0  0  0  0
  -26.0172  -38.2868   24.1444 H   0  0  0  0  0  0
  -31.6626  -19.6027   19.8370 H   0  0  0  0  0  0
  -32.1759  -17.2229   20.6199 H   0  0  0  0  0  0
  -27.8524  -20.1696   19.1254 H   0  0  0  0  0  0
  -29.3744  -20.6218   18.4348 H   0  0  0  0  0  0
  -28.9541  -23.0204   18.5512 H   0  0  0  0  0  0
  -27.3473  -22.7318   19.1635 H   0  0  0  0  0  0
  -27.9246  -25.4773   18.4681 H   0  0  0  0  0  0
  -29.5915  -25.5077   18.9398 H   0  0  0  0  0  0
  -29.9263  -21.8751   20.5871 H   0  0  0  0  0  0
  -28.3130  -21.5182   21.1599 H   0  0  0  0  0  0
  -29.0311  -15.1842   21.3864 H   0  0  0  0  0  0
  1 25  1  0  0  0
  1 30  2  0  0  0
  1 80  1  0  0  0
  2  3  1  0  0  0
  2 25  1  0  0  0
  2 83  1  0  0  0
  2 84  1  0  0  0
  3  4  1  0  0  0
  3 85  1  0  0  0
  3 86  1  0  0  0
  4  5  1  0  0  0
  4 87  1  0  0  0
  4 88  1  0  0  0
  5  6  1  0  0  0
  5 26  1  0  0  0
  5 89  1  0  0  0
  6 25  1  0  0  0
  6 90  1  0  0  0
  6 91  1  0  0  0
  7  8  2  0  0  0
  7 26  1  0  0  0
  7 29  1  0  0  0
  8  9  1  0  0  0
  8 22  1  0  0  0
  9 10  1  0  0  0
  9 27  2  0  0  0
 10 11  2  0  0  0
 10 15  1  0  0  0
 11 12  1  0  0  0
 11 92  1  0  0  0
 12 13  2  0  0  0
 12 93  1  0  0  0
 13 14  1  0  0  0
 13 31  1  0  0  0
 14 15  2  0  0  0
 14 94  1  0  0  0
 15 95  1  0  0  0
 16 17  2  0  0  0
 16 21  1  0  0  0
 16 31  1  0  0  0
 17 18  1  0  0  0
 17 96  1  0  0  0
 18 19  2  0  0  0
 18 97  1  0  0  0
 19 20  1  0  0  0
 19 24  1  0  0  0
 20 21  2  0  0  0
 20 98  1  0  0  0
 21 23  1  0  0  0
 22 28  1  0  0  0
 22 32  2  0  0  0
 26 27  1  0  0  0
 28 99  1  0  0  0
 28100  1  0  0  0
 29101  1  0  0  0
 29102  1  0  0  0
 33 34  1  0  0  0
 33 66  1  0  0  0
 33 70  2  0  0  0
 34 36  1  0  0  0
 34 59  1  0  0  0
 34103  1  0  0  0
 35 44  2  0  0  0
 35 45  1  0  0  0
 35 68  1  0  0  0
 36 56  1  0  0  0
 36104  1  0  0  0
 37 39  1  0  0  0
 37 47  1  0  0  0
 37 66  1  0  0  0
 37105  1  0  0  0
 38 43  2  0  0  0
 38 46  1  0  0  0
 38 47  1  0  0  0
 39 64  1  0  0  0
 39 67  2  0  0  0
 40 52  1  0  0  0
 40 53  2  0  0  0
 40 58  1  0  0  0
 41106  1  0  0  0
 41107  1  0  0  0
 41108  1  0  0  0
 41 48  1  0  0  0
 42 43  1  0  0  0
 42 66  1  0  0  0
 42109  1  0  0  0
 42110  1  0  0  0
 43 44  1  0  0  0
 44111  1  0  0  0
 45 46  2  0  0  0
 45112  1  0  0  0
 46113  1  0  0  0
 47114  1  0  0  0
 47115  1  0  0  0
 48 56  1  0  0  0
 48 65  1  0  0  0
 48116  1  0  0  0
 49 50  1  0  0  0
 49 53  1  0  0  0
 49 64  1  0  0  0
 49117  1  0  0  0
 50 51  1  0  0  0
 50118  1  0  0  0
 50119  1  0  0  0
 51 52  1  0  0  0
 51120  1  0  0  0
 51121  1  0  0  0
 52122  1  0  0  0
 52123  1  0  0  0
 53 54  1  0  0  0
 54 55  2  0  0  0
 54124  1  0  0  0
 55 57  1  0  0  0
 55125  1  0  0  0
 56 69  2  0  0  0
 57 58  2  0  0  0
 57126  1  0  0  0
 58127  1  0  0  0
 59 60  1  0  0  0
 59 61  1  0  0  0
 59 62  1  0  0  0
 60128  1  0  0  0
 60129  1  0  0  0
 60130  1  0  0  0
 61131  1  0  0  0
 61132  1  0  0  0
 61133  1  0  0  0
 62134  1  0  0  0
 62135  1  0  0  0
 62136  1  0  0  0
 63 65  1  0  0  0
 63137  1  0  0  0
 63138  1  0  0  0
 63139  1  0  0  0
 64140  1  0  0  0
 65141  1  0  0  0
 68 78  1  0  0  0
 71 72  1  0  0  0
 71 73  2  0  0  0
 71142  1  0  0  0
 72 74  2  0  0  0
 72143  1  0  0  0
 73 76  1  0  0  0
 73 82  1  0  0  0
 74 80  1  0  0  0
 74 82  1  0  0  0
 75 77  1  0  0  0
 75 78  1  0  0  0
 75 81  2  0  0  0
 76 79  1  0  0  0
 76144  1  0  0  0
 76145  1  0  0  0
 77 79  1  0  0  0
 77146  1  0  0  0
 77147  1  0  0  0
 78148  1  0  0  0
 78149  1  0  0  0
 79150  1  0  0  0
 79151  1  0  0  0
 80152  1  0  0  0
M  ISO  4   1 100  68 101  78 101  80 100
M  END
> <chiral flag>
0

> <version>
0

> <s_m_source_file>
/data/baiqing/PycharmProjects/Reinvent-master-3.2/result/LINK_invent/BTK/process_docking_weight1_custom_product_contain_oxygen_bond_distance_aromatic_linkinvent_7_9_3/rearranged_h_0136.sdf

> <i_m_source_file_index>
2

> <r_mmod_Potential_Energy-OPLS-2005>
-81.2162628173828

> <r_mmod_Stretch_Energy-OPLS-2005>
35.0692520141602

> <r_mmod_Bend_Energy-OPLS-2005>
105.34489440918

> <r_mmod_Torsional_Energy-OPLS-2005>
202.549423217773

> <r_mmod_Improper_Torsional_Energy-OPLS-2005>
5.01686763763428

> <r_mmod_Van_der_Waal_Energy-OPLS-2005>
127.530662536621

> <r_mmod_Electrostatic_Energy-OPLS-2005>
-344.812072753906

> <r_mmod_Solvation_Energy-OPLS-2005>
-224.942642211914

> <b_mmod_Minimization_Converged-OPLS-2005>
0

> <r_mmod_RMS_Derivative-OPLS-2005>
0.305518329143524

$$$$
2
                    3D
 Structure written by MMmdl.
167175  0  0  1  0            999 V2000
  -30.6288  -14.6394   20.4815 C   0  0  0  0  0  0
  -30.4396  -12.3863   19.4543 C   0  0  0  0  0  0
  -29.5087  -12.4930   18.2269 C   0  0  0  0  0  0
  -28.0351  -12.3219   18.6473 C   0  0  0  0  0  0
  -27.6525  -13.2053   19.8633 C   0  0  2  0  0  0
  -28.7007  -13.0847   20.9926 C   0  0  0  0  0  0
  -25.2580  -13.8104   20.5728 C   0  0  0  0  0  0
  -24.1838  -13.0396   20.9219 C   0  0  0  0  0  0
  -24.6389  -11.6868   20.8753 C   0  0  0  0  0  0
  -23.9044  -10.4276   21.0415 C   0  0  0  0  0  0
  -24.3605   -9.4199   21.9188 C   0  0  0  0  0  0
  -23.6290   -8.2233   22.0753 C   0  0  0  0  0  0
  -22.4269   -8.0276   21.3540 C   0  0  0  0  0  0
  -21.9897   -9.0248   20.4644 C   0  0  0  0  0  0
  -22.7218  -10.2131   20.3061 C   0  0  0  0  0  0
  -21.6843   -6.0738   22.5273 C   0  0  0  0  0  0
  -21.4016   -6.5645   23.8207 C   0  0  0  0  0  0
  -21.3657   -5.6799   24.9169 C   0  0  0  0  0  0
  -21.6039   -4.3059   24.7221 C   0  0  0  0  0  0
  -21.8819   -3.8149   23.4342 C   0  0  0  0  0  0
  -21.9200   -4.6968   22.3400 C   0  0  0  0  0  0
  -22.7870  -13.5217   21.1880 C   0  0  0  0  0  0
  -22.1664   -4.2151   21.0979 F   0  0  0  0  0  0
  -21.5625   -3.4545   25.7735 F   0  0  0  0  0  0
  -30.0151  -13.4161   20.4203 N   0  0  0  0  0  0
  -26.2993  -12.9272   20.3351 N   0  0  0  0  0  0
  -25.9312  -11.6438   20.5779 N   0  0  0  0  0  0
  -22.0502  -12.8215   22.0433 N   0  0  0  0  0  0
  -25.4267  -15.1814   20.4182 N   0  0  0  0  0  0
  -31.8039  -14.7931   20.1372 O   0  0  0  0  0  0
  -21.6627   -6.8874   21.4231 O   0  0  0  0  0  0
  -22.3568  -14.5531   20.6732 O   0  0  0  0  0  0
  -24.6236  -31.8631   23.2088 C   0  0  0  0  0  0
  -25.9117  -32.4785   23.8390 C   0  0  1  0  0  0
  -27.2106  -27.3301   20.1205 C   0  0  0  0  0  0
  -25.5952  -33.8584   24.2326 N   0  0  0  0  0  0
  -23.4163  -30.4917   21.5471 C   0  0  2  0  0  0
  -24.8618  -28.9502   20.1106 C   0  0  0  0  0  0
  -22.7441  -29.4679   22.4919 C   0  0  0  0  0  0
  -18.0278  -28.1396   22.8515 C   0  0  0  0  0  0
  -24.1485  -36.7284   23.2637 C   0  0  0  0  0  0
  -25.9574  -30.7938   21.3824 C   0  0  0  0  0  0
  -26.0283  -29.4210   20.7294 C   0  0  0  0  0  0
  -27.2065  -28.6187   20.7339 C   0  0  0  0  0  0
  -26.0410  -26.9344   19.4386 C   0  0  0  0  0  0
  -24.8677  -27.7088   19.4602 C   0  0  0  0  0  0
  -23.6327  -29.8340   20.1598 C   0  0  0  0  0  0
  -25.4117  -36.3080   24.0336 C   0  0  1  0  0  0
  -20.5893  -28.3700   23.1238 C   0  0  2  0  0  0
  -20.6775  -26.9419   22.5328 C   0  0  0  0  0  0
  -19.5660  -26.6326   21.5234 C   0  0  0  0  0  0
  -18.1878  -26.7891   22.1735 C   0  0  0  0  0  0
  -19.1536  -28.8860   23.2874 C   0  0  0  0  0  0
  -18.9463  -30.1487   23.8854 C   0  0  0  0  0  0
  -17.6456  -30.6600   24.0543 C   0  0  0  0  0  0
  -25.9066  -34.9443   23.5138 C   0  0  0  0  0  0
  -16.5341  -29.9086   23.6351 C   0  0  0  0  0  0
  -16.7271  -28.6500   23.0377 C   0  0  0  0  0  0
  -26.4527  -31.6571   25.0727 C   0  0  0  0  0  0
  -25.3772  -31.3680   26.1451 C   0  0  0  0  0  0
  -27.0366  -30.2985   24.6175 C   0  0  0  0  0  0
  -27.6091  -32.4294   25.7498 C   0  0  0  0  0  0
  -27.5592  -37.1804   24.8478 C   0  0  0  0  0  0
  -21.4182  -29.3066   22.3628 N   0  0  0  0  0  0
  -26.4290  -37.3789   23.9426 N   0  0  0  0  0  0
  -24.6837  -31.0660   22.1029 N   0  0  0  0  0  0
  -23.4164  -28.8221   23.2998 O   0  0  0  0  0  0
  -28.3167  -26.4680   20.1097 O   0  0  0  0  0  0
  -26.5598  -34.8895   22.4671 O   0  0  0  0  0  0
  -23.5416  -32.1418   23.7452 O   0  0  0  0  0  0
  -29.3290  -19.3348   19.6232 C   0  0  0  0  0  0
  -30.8474  -17.8641   21.4500 C   0  0  0  0  0  0
  -30.1553  -20.0608   20.5126 C   0  0  0  0  0  0
  -29.2320  -17.9103   19.6475 C   0  0  0  0  0  0
  -29.9960  -17.1354   20.5794 C   0  0  0  0  0  0
  -30.9348  -19.2866   21.4151 C   0  0  0  0  0  0
  -30.3061  -21.5785   20.4001 C   0  0  0  0  0  0
  -26.0011  -17.1262   17.5461 C   0  0  0  0  0  0
  -28.8631  -25.4498   22.1794 C   0  0  0  0  0  0
  -26.8570  -24.5439   20.9979 C   0  0  0  0  0  0
  -28.3329  -17.2574   18.6004 C   0  0  0  0  0  0
  -29.0794  -22.5284   20.6183 C   0  0  0  0  0  0
  -26.8849  -17.7870   18.6127 C   0  0  0  0  0  0
  -29.1637  -24.0364   20.0867 C   0  0  0  0  0  0
  -28.2710  -25.1458   20.7964 C   0  0  0  0  0  0
  -29.8016  -15.6980   20.7373 N   0  0  0  0  0  0
  -31.4047  -22.0951   20.1733 O   0  0  0  0  0  0
  -31.7678  -19.9030   22.2887 F   0  0  0  0  0  0
  -31.4809  -12.5084   19.1542 H   0  0  0  0  0  0
  -30.3687  -11.3947   19.9060 H   0  0  0  0  0  0
  -29.7767  -11.7367   17.4874 H   0  0  0  0  0  0
  -29.6438  -13.4597   17.7392 H   0  0  0  0  0  0
  -27.8932  -11.2721   18.9054 H   0  0  0  0  0  0
  -27.3701  -12.5215   17.8054 H   0  0  0  0  0  0
  -27.6577  -14.2316   19.5065 H   0  0  0  0  0  0
  -28.7149  -12.0732   21.4022 H   0  0  0  0  0  0
  -28.4499  -13.7425   21.8258 H   0  0  0  0  0  0
  -25.2745   -9.5694   22.4765 H   0  0  0  0  0  0
  -24.0000   -7.4625   22.7477 H   0  0  0  0  0  0
  -21.0821   -8.8755   19.8957 H   0  0  0  0  0  0
  -22.3654  -10.9674   19.6183 H   0  0  0  0  0  0
  -21.1998   -7.6151   23.9705 H   0  0  0  0  0  0
  -21.1480   -6.0534   25.9072 H   0  0  0  0  0  0
  -22.0601   -2.7612   23.2835 H   0  0  0  0  0  0
  -22.4093  -11.9860   22.4808 H   0  0  0  0  0  0
  -21.1134  -13.1261   22.2645 H   0  0  0  0  0  0
  -24.6452  -15.8217   20.5067 H   0  0  0  0  0  0
  -26.2538  -15.6208   20.0393 H   0  0  0  0  0  0
  -26.7168  -32.5467   23.1120 H   0  0  0  0  0  0
  -25.0100  -33.9741   25.0481 H   0  0  0  0  0  0
  -22.7109  -31.3138   21.4077 H   0  0  0  0  0  0
  -23.3735  -35.9629   23.3295 H   0  0  0  0  0  0
  -24.3592  -36.8900   22.2057 H   0  0  0  0  0  0
  -23.7247  -37.6496   23.6636 H   0  0  0  0  0  0
  -26.0901  -31.5549   20.6115 H   0  0  0  0  0  0
  -26.8407  -30.8424   22.0086 H   0  0  0  0  0  0
  -28.0979  -28.9771   21.2308 H   0  0  0  0  0  0
  -26.0213  -26.0006   18.8964 H   0  0  0  0  0  0
  -23.9807  -27.3479   18.9562 H   0  0  0  0  0  0
  -23.7605  -30.6177   19.4121 H   0  0  0  0  0  0
  -22.7502  -29.2716   19.8463 H   0  0  0  0  0  0
  -25.1296  -36.1947   25.0833 H   0  0  0  0  0  0
  -21.0035  -28.3293   24.1346 H   0  0  0  0  0  0
  -20.5809  -26.2308   23.3526 H   0  0  0  0  0  0
  -21.6595  -26.7506   22.0962 H   0  0  0  0  0  0
  -19.6767  -25.6201   21.1301 H   0  0  0  0  0  0
  -19.6532  -27.3119   20.6742 H   0  0  0  0  0  0
  -17.4085  -26.6557   21.4216 H   0  0  0  0  0  0
  -18.0316  -26.0133   22.9254 H   0  0  0  0  0  0
  -19.7925  -30.7345   24.2160 H   0  0  0  0  0  0
  -17.4979  -31.6282   24.5127 H   0  0  0  0  0  0
  -15.5329  -30.2955   23.7696 H   0  0  0  0  0  0
  -15.8660  -28.0815   22.7130 H   0  0  0  0  0  0
  -24.5955  -30.7023   25.7776 H   0  0  0  0  0  0
  -24.8927  -32.2813   26.4892 H   0  0  0  0  0  0
  -25.8117  -30.8852   27.0209 H   0  0  0  0  0  0
  -26.2930  -29.6699   24.1240 H   0  0  0  0  0  0
  -27.4096  -29.7282   25.4696 H   0  0  0  0  0  0
  -27.8793  -30.4239   23.9369 H   0  0  0  0  0  0
  -27.2711  -33.3573   26.2110 H   0  0  0  0  0  0
  -28.3890  -32.6897   25.0332 H   0  0  0  0  0  0
  -28.0750  -31.8375   26.5377 H   0  0  0  0  0  0
  -28.2628  -38.0084   24.7515 H   0  0  0  0  0  0
  -28.1071  -36.2623   24.6310 H   0  0  0  0  0  0
  -27.2307  -37.1473   25.8879 H   0  0  0  0  0  0
  -20.9383  -29.8729   21.6777 H   0  0  0  0  0  0
  -26.0155  -38.2867   24.1415 H   0  0  0  0  0  0
  -28.7771  -19.8932   18.8808 H   0  0  0  0  0  0
  -31.4370  -17.3337   22.1826 H   0  0  0  0  0  0
  -24.9891  -17.5331   17.5749 H   0  0  0  0  0  0
  -25.9285  -16.0494   17.6967 H   0  0  0  0  0  0
  -26.3959  -17.3001   16.5443 H   0  0  0  0  0  0
  -29.8802  -25.8343   22.0968 H   0  0  0  0  0  0
  -28.2679  -26.1958   22.7049 H   0  0  0  0  0  0
  -28.8961  -24.5621   22.8104 H   0  0  0  0  0  0
  -26.8850  -23.6677   21.6444 H   0  0  0  0  0  0
  -26.4127  -24.2131   20.0587 H   0  0  0  0  0  0
  -26.1701  -25.2359   21.4855 H   0  0  0  0  0  0
  -28.3305  -16.1767   18.7002 H   0  0  0  0  0  0
  -28.7811  -17.4530   17.6258 H   0  0  0  0  0  0
  -28.9306  -22.5459   21.6974 H   0  0  0  0  0  0
  -28.1985  -22.0413   20.2019 H   0  0  0  0  0  0
  -26.4457  -17.6416   19.5994 H   0  0  0  0  0  0
  -26.8733  -18.8621   18.4391 H   0  0  0  0  0  0
  -28.8892  -24.0154   19.0310 H   0  0  0  0  0  0
  -30.1988  -24.3758   20.1028 H   0  0  0  0  0  0
  -28.8506  -15.4194   20.9168 H   0  0  0  0  0  0
  1 25  1  0  0  0
  1 30  2  0  0  0
  1 86  1  0  0  0
  2  3  1  0  0  0
  2 25  1  0  0  0
  2 89  1  0  0  0
  2 90  1  0  0  0
  3  4  1  0  0  0
  3 91  1  0  0  0
  3 92  1  0  0  0
  4  5  1  0  0  0
  4 93  1  0  0  0
  4 94  1  0  0  0
  5  6  1  0  0  0
  5 26  1  0  0  0
  5 95  1  0  0  0
  6 25  1  0  0  0
  6 96  1  0  0  0
  6 97  1  0  0  0
  7  8  2  0  0  0
  7 26  1  0  0  0
  7 29  1  0  0  0
  8  9  1  0  0  0
  8 22  1  0  0  0
  9 10  1  0  0  0
  9 27  2  0  0  0
 10 11  2  0  0  0
 10 15  1  0  0  0
 11 12  1  0  0  0
 11 98  1  0  0  0
 12 13  2  0  0  0
 12 99  1  0  0  0
 13 14  1  0  0  0
 13 31  1  0  0  0
 14 15  2  0  0  0
 14100  1  0  0  0
 15101  1  0  0  0
 16 17  2  0  0  0
 16 21  1  0  0  0
 16 31  1  0  0  0
 17 18  1  0  0  0
 17102  1  0  0  0
 18 19  2  0  0  0
 18103  1  0  0  0
 19 20  1  0  0  0
 19 24  1  0  0  0
 20 21  2  0  0  0
 20104  1  0  0  0
 21 23  1  0  0  0
 22 28  1  0  0  0
 22 32  2  0  0  0
 26 27  1  0  0  0
 28105  1  0  0  0
 28106  1  0  0  0
 29107  1  0  0  0
 29108  1  0  0  0
 33 34  1  0  0  0
 33 66  1  0  0  0
 33 70  2  0  0  0
 34 36  1  0  0  0
 34 59  1  0  0  0
 34109  1  0  0  0
 35 44  2  0  0  0
 35 45  1  0  0  0
 35 68  1  0  0  0
 36 56  1  0  0  0
 36110  1  0  0  0
 37 39  1  0  0  0
 37 47  1  0  0  0
 37 66  1  0  0  0
 37111  1  0  0  0
 38 43  2  0  0  0
 38 46  1  0  0  0
 38 47  1  0  0  0
 39 64  1  0  0  0
 39 67  2  0  0  0
 40 52  1  0  0  0
 40 53  2  0  0  0
 40 58  1  0  0  0
 41112  1  0  0  0
 41113  1  0  0  0
 41114  1  0  0  0
 41 48  1  0  0  0
 42 43  1  0  0  0
 42 66  1  0  0  0
 42115  1  0  0  0
 42116  1  0  0  0
 43 44  1  0  0  0
 44117  1  0  0  0
 45 46  2  0  0  0
 45118  1  0  0  0
 46119  1  0  0  0
 47120  1  0  0  0
 47121  1  0  0  0
 48 56  1  0  0  0
 48 65  1  0  0  0
 48122  1  0  0  0
 49 50  1  0  0  0
 49 53  1  0  0  0
 49 64  1  0  0  0
 49123  1  0  0  0
 50 51  1  0  0  0
 50124  1  0  0  0
 50125  1  0  0  0
 51 52  1  0  0  0
 51126  1  0  0  0
 51127  1  0  0  0
 52128  1  0  0  0
 52129  1  0  0  0
 53 54  1  0  0  0
 54 55  2  0  0  0
 54130  1  0  0  0
 55 57  1  0  0  0
 55131  1  0  0  0
 56 69  2  0  0  0
 57 58  2  0  0  0
 57132  1  0  0  0
 58133  1  0  0  0
 59 60  1  0  0  0
 59 61  1  0  0  0
 59 62  1  0  0  0
 60134  1  0  0  0
 60135  1  0  0  0
 60136  1  0  0  0
 61137  1  0  0  0
 61138  1  0  0  0
 61139  1  0  0  0
 62140  1  0  0  0
 62141  1  0  0  0
 62142  1  0  0  0
 63 65  1  0  0  0
 63143  1  0  0  0
 63144  1  0  0  0
 63145  1  0  0  0
 64146  1  0  0  0
 65147  1  0  0  0
 68 85  1  0  0  0
 71 73  2  0  0  0
 71 74  1  0  0  0
 71148  1  0  0  0
 72 75  1  0  0  0
 72 76  2  0  0  0
 72149  1  0  0  0
 73 76  1  0  0  0
 73 77  1  0  0  0
 74 75  2  0  0  0
 74 81  1  0  0  0
 75 86  1  0  0  0
 76 88  1  0  0  0
 77 82  1  0  0  0
 77 87  2  0  0  0
 78 83  1  0  0  0
 78150  1  0  0  0
 78151  1  0  0  0
 78152  1  0  0  0
 79153  1  0  0  0
 79154  1  0  0  0
 79155  1  0  0  0
 79 85  1  0  0  0
 80 85  1  0  0  0
 80156  1  0  0  0
 80157  1  0  0  0
 80158  1  0  0  0
 81 83  1  0  0  0
 81159  1  0  0  0
 81160  1  0  0  0
 82 84  1  0  0  0
 82161  1  0  0  0
 82162  1  0  0  0
 83163  1  0  0  0
 83164  1  0  0  0
 84 85  1  0  0  0
 84165  1  0  0  0
 84166  1  0  0  0
 86167  1  0  0  0
M  ISO  4   1 100  68 101  85 101  86 100
M  END
> <chiral flag>
0

> <version>
0

> <s_m_source_file>
/data/baiqing/PycharmProjects/Reinvent-master-3.2/result/LINK_invent/BTK/process_docking_weight1_custom_product_contain_oxygen_bond_distance_aromatic_linkinvent_7_9_3/rearranged_h_0136.sdf

> <i_m_source_file_index>
3

> <r_mmod_Potential_Energy-OPLS-2005>
105.31665802002

> <r_mmod_Stretch_Energy-OPLS-2005>
76.8606109619141

> <r_mmod_Bend_Energy-OPLS-2005>
134.071701049805

> <r_mmod_Torsional_Energy-OPLS-2005>
304.597045898438

> <r_mmod_Improper_Torsional_Energy-OPLS-2005>
6.56430244445801

> <r_mmod_Van_der_Waal_Energy-OPLS-2005>
139.483261108398

> <r_mmod_Electrostatic_Energy-OPLS-2005>
-395.472381591797

> <r_mmod_Solvation_Energy-OPLS-2005>
-209.317016601562

> <b_mmod_Minimization_Converged-OPLS-2005>
0

> <r_mmod_RMS_Derivative-OPLS-2005>
3.28633856773376

$$$$
3
                    3D
 Structure written by MMmdl.
156164  0  0  1  0            999 V2000
  -30.6929  -14.5429   20.5310 C   0  0  0  0  0  0
  -30.4324  -12.3446   19.4320 C   0  0  0  0  0  0
  -29.4984  -12.5122   18.2149 C   0  0  0  0  0  0
  -28.0252  -12.3445   18.6394 C   0  0  0  0  0  0
  -27.6629  -13.2006   19.8801 C   0  0  2  0  0  0
  -28.7142  -13.0273   21.0029 C   0  0  0  0  0  0
  -25.2612  -13.8103   20.5725 C   0  0  0  0  0  0
  -24.1853  -13.0396   20.9199 C   0  0  0  0  0  0
  -24.6392  -11.6859   20.8763 C   0  0  0  0  0  0
  -23.9057  -10.4254   21.0410 C   0  0  0  0  0  0
  -24.3621   -9.4171   21.9180 C   0  0  0  0  0  0
  -23.6310   -8.2202   22.0749 C   0  0  0  0  0  0
  -22.4286   -8.0255   21.3530 C   0  0  0  0  0  0
  -21.9911   -9.0226   20.4623 C   0  0  0  0  0  0
  -22.7240  -10.2106   20.3039 C   0  0  0  0  0  0
  -21.6855   -6.0719   22.5268 C   0  0  0  0  0  0
  -21.4002   -6.5625   23.8202 C   0  0  0  0  0  0
  -21.3665   -5.6780   24.9158 C   0  0  0  0  0  0
  -21.6051   -4.3047   24.7198 C   0  0  0  0  0  0
  -21.8826   -3.8135   23.4324 C   0  0  0  0  0  0
  -21.9183   -4.6940   22.3383 C   0  0  0  0  0  0
  -22.7872  -13.5226   21.1833 C   0  0  0  0  0  0
  -22.1658   -4.2126   21.0961 F   0  0  0  0  0  0
  -21.5634   -3.4547   25.7717 F   0  0  0  0  0  0
  -30.0358  -13.3462   20.4385 N   0  0  0  0  0  0
  -26.3052  -12.9271   20.3450 N   0  0  0  0  0  0
  -25.9329  -11.6437   20.5835 N   0  0  0  0  0  0
  -22.0522  -12.8220   22.0378 N   0  0  0  0  0  0
  -25.4294  -15.1824   20.4134 N   0  0  0  0  0  0
  -31.8402  -14.7016   20.1079 O   0  0  0  0  0  0
  -21.6634   -6.8851   21.4235 O   0  0  0  0  0  0
  -22.3580  -14.5541   20.6687 O   0  0  0  0  0  0
  -24.6198  -31.8654   23.1994 C   0  0  0  0  0  0
  -25.9070  -32.4798   23.8313 C   0  0  1  0  0  0
  -27.2529  -27.3878   20.0920 C   0  0  0  0  0  0
  -25.5902  -33.8599   24.2262 N   0  0  0  0  0  0
  -23.4111  -30.4875   21.5424 C   0  0  2  0  0  0
  -24.8589  -28.9411   20.1088 C   0  0  0  0  0  0
  -22.7420  -29.4686   22.4949 C   0  0  0  0  0  0
  -18.0270  -28.1393   22.8420 C   0  0  0  0  0  0
  -24.1487  -36.7316   23.2643 C   0  0  0  0  0  0
  -25.9436  -30.8084   21.3625 C   0  0  0  0  0  0
  -26.0202  -29.4385   20.7118 C   0  0  0  0  0  0
  -27.2096  -28.6674   20.7074 C   0  0  0  0  0  0
  -26.0675  -26.9254   19.4657 C   0  0  0  0  0  0
  -24.8806  -27.6836   19.4861 C   0  0  0  0  0  0
  -23.6212  -29.8128   20.1598 C   0  0  0  0  0  0
  -25.4123  -36.3124   24.0341 C   0  0  1  0  0  0
  -20.5881  -28.3659   23.1255 C   0  0  2  0  0  0
  -20.6753  -26.9412   22.5282 C   0  0  0  0  0  0
  -19.5716  -26.6425   21.5083 C   0  0  0  0  0  0
  -18.1919  -26.7943   22.1517 C   0  0  0  0  0  0
  -19.1510  -28.8831   23.2893 C   0  0  0  0  0  0
  -18.9415  -30.1413   23.8973 C   0  0  0  0  0  0
  -17.6383  -30.6516   24.0617 C   0  0  0  0  0  0
  -25.9052  -34.9480   23.5114 C   0  0  0  0  0  0
  -16.5305  -29.9022   23.6329 C   0  0  0  0  0  0
  -16.7242  -28.6483   23.0257 C   0  0  0  0  0  0
  -26.4466  -31.6590   25.0669 C   0  0  0  0  0  0
  -25.3682  -31.3697   26.1367 C   0  0  0  0  0  0
  -27.0310  -30.3027   24.6075 C   0  0  0  0  0  0
  -27.6045  -32.4303   25.7426 C   0  0  0  0  0  0
  -27.5589  -37.1826   24.8470 C   0  0  0  0  0  0
  -21.4152  -29.3084   22.3694 N   0  0  0  0  0  0
  -26.4314  -37.3811   23.9404 N   0  0  0  0  0  0
  -24.6757  -31.0703   22.0910 N   0  0  0  0  0  0
  -23.4158  -28.8203   23.3020 O   0  0  0  0  0  0
  -28.4449  -26.6633   20.1122 O   0  0  0  0  0  0
  -26.5632  -34.8967   22.4674 O   0  0  0  0  0  0
  -23.5386  -32.1429   23.7362 O   0  0  0  0  0  0
  -28.8484  -18.1326   18.4881 C   0  0  0  0  0  0
  -29.3565  -19.3346   19.0140 C   0  0  0  0  0  0
  -29.0996  -16.9104   19.1276 C   0  0  0  0  0  0
  -30.3933  -18.0884   20.8276 C   0  0  0  0  0  0
  -30.1474  -19.3513   20.1839 C   0  0  0  0  0  0
  -29.8661  -16.8618   20.3102 C   0  0  0  0  0  0
  -30.6879  -20.6688   20.7103 C   0  0  0  0  0  0
  -30.3565  -22.0398   20.0397 C   0  0  0  0  0  0
  -29.1754  -22.8372   20.6836 C   0  0  0  0  0  0
  -29.2854  -24.4061   20.7794 C   0  0  0  0  0  0
  -28.5031  -25.2578   19.7353 C   0  0  0  0  0  0
  -31.4702  -20.7072   21.7054 N   0  0  0  0  0  0
  -29.9621  -15.5906   20.9795 N   0  0  0  0  0  0
  -31.4687  -12.4608   19.1182 H   0  0  0  0  0  0
  -30.3557  -11.3387   19.8513 H   0  0  0  0  0  0
  -29.7573  -11.7890   17.4411 H   0  0  0  0  0  0
  -29.6453  -13.4979   17.7706 H   0  0  0  0  0  0
  -27.8693  -11.2883   18.8655 H   0  0  0  0  0  0
  -27.3614  -12.5794   17.8057 H   0  0  0  0  0  0
  -27.6878  -14.2391   19.5621 H   0  0  0  0  0  0
  -28.7163  -11.9998   21.3749 H   0  0  0  0  0  0
  -28.4729  -13.6525   21.8650 H   0  0  0  0  0  0
  -25.2747   -9.5640   22.4781 H   0  0  0  0  0  0
  -23.9994   -7.4586   22.7486 H   0  0  0  0  0  0
  -21.0830   -8.8759   19.8942 H   0  0  0  0  0  0
  -22.3709  -10.9660   19.6163 H   0  0  0  0  0  0
  -21.2003   -7.6141   23.9690 H   0  0  0  0  0  0
  -21.1491   -6.0517   25.9061 H   0  0  0  0  0  0
  -22.0609   -2.7609   23.2830 H   0  0  0  0  0  0
  -22.4211  -11.9937   22.4798 H   0  0  0  0  0  0
  -21.1099  -13.1166   22.2483 H   0  0  0  0  0  0
  -24.6506  -15.8272   20.5094 H   0  0  0  0  0  0
  -26.2870  -15.6305   20.1191 H   0  0  0  0  0  0
  -26.7166  -32.5492   23.1090 H   0  0  0  0  0  0
  -25.0055  -33.9726   25.0420 H   0  0  0  0  0  0
  -22.7059  -31.3083   21.3980 H   0  0  0  0  0  0
  -23.3764  -35.9634   23.3332 H   0  0  0  0  0  0
  -24.3589  -36.8893   22.2053 H   0  0  0  0  0  0
  -23.7215  -37.6529   23.6632 H   0  0  0  0  0  0
  -26.0671  -31.5709   20.5914 H   0  0  0  0  0  0
  -26.8279  -30.8624   21.9850 H   0  0  0  0  0  0
  -28.1017  -29.0544   21.1805 H   0  0  0  0  0  0
  -26.0239  -25.9885   18.9356 H   0  0  0  0  0  0
  -23.9896  -27.2898   19.0146 H   0  0  0  0  0  0
  -23.7329  -30.5834   19.3959 H   0  0  0  0  0  0
  -22.7416  -29.2373   19.8627 H   0  0  0  0  0  0
  -25.1289  -36.2026   25.0841 H   0  0  0  0  0  0
  -20.9997  -28.3192   24.1367 H   0  0  0  0  0  0
  -21.6580  -26.7394   22.1027 H   0  0  0  0  0  0
  -20.5589  -26.2290   23.3466 H   0  0  0  0  0  0
  -19.6872  -25.6325   21.1138 H   0  0  0  0  0  0
  -19.6611  -27.3185   20.6557 H   0  0  0  0  0  0
  -18.0379  -26.0078   22.8904 H   0  0  0  0  0  0
  -17.4138  -26.6683   21.3971 H   0  0  0  0  0  0
  -19.7866  -30.7179   24.2375 H   0  0  0  0  0  0
  -17.4883  -31.6193   24.5198 H   0  0  0  0  0  0
  -15.5271  -30.2875   23.7592 H   0  0  0  0  0  0
  -15.8641  -28.0844   22.6919 H   0  0  0  0  0  0
  -24.5874  -30.7045   25.7640 H   0  0  0  0  0  0
  -24.8840  -32.2846   26.4791 H   0  0  0  0  0  0
  -25.7993  -30.8848   27.0120 H   0  0  0  0  0  0
  -26.2869  -29.6760   24.1126 H   0  0  0  0  0  0
  -27.4060  -29.7300   25.4556 H   0  0  0  0  0  0
  -27.8709  -30.4318   23.9242 H   0  0  0  0  0  0
  -27.2687  -33.3592   26.2023 H   0  0  0  0  0  0
  -28.3844  -32.6853   25.0243 H   0  0  0  0  0  0
  -28.0709  -31.8390   26.5297 H   0  0  0  0  0  0
  -28.2629  -38.0097   24.7515 H   0  0  0  0  0  0
  -28.1063  -36.2639   24.6324 H   0  0  0  0  0  0
  -27.2294  -37.1499   25.8865 H   0  0  0  0  0  0
  -20.9369  -29.8742   21.6813 H   0  0  0  0  0  0
  -26.0229  -38.2900   24.1405 H   0  0  0  0  0  0
  -28.2473  -18.1492   17.5906 H   0  0  0  0  0  0
  -29.1074  -20.2419   18.4844 H   0  0  0  0  0  0
  -28.6828  -16.0114   18.6992 H   0  0  0  0  0  0
  -30.9835  -18.0693   21.7361 H   0  0  0  0  0  0
  -30.2057  -21.9266   18.9677 H   0  0  0  0  0  0
  -31.2572  -22.6549   20.0955 H   0  0  0  0  0  0
  -28.2436  -22.5519   20.1912 H   0  0  0  0  0  0
  -29.0582  -22.4685   21.7048 H   0  0  0  0  0  0
  -30.3301  -24.7152   20.8241 H   0  0  0  0  0  0
  -28.8809  -24.6917   21.7519 H   0  0  0  0  0  0
  -27.5278  -24.7967   19.6249 H   0  0  0  0  0  0
  -28.9914  -25.1898   18.7596 H   0  0  0  0  0  0
  -31.7608  -21.6601   21.8986 H   0  0  0  0  0  0
  -29.0815  -15.2697   21.3559 H   0  0  0  0  0  0
  1 25  1  0  0  0
  1 30  2  0  0  0
  1 83  1  0  0  0
  2  3  1  0  0  0
  2 25  1  0  0  0
  2 84  1  0  0  0
  2 85  1  0  0  0
  3  4  1  0  0  0
  3 86  1  0  0  0
  3 87  1  0  0  0
  4  5  1  0  0  0
  4 88  1  0  0  0
  4 89  1  0  0  0
  5  6  1  0  0  0
  5 26  1  0  0  0
  5 90  1  0  0  0
  6 25  1  0  0  0
  6 91  1  0  0  0
  6 92  1  0  0  0
  7  8  2  0  0  0
  7 26  1  0  0  0
  7 29  1  0  0  0
  8  9  1  0  0  0
  8 22  1  0  0  0
  9 10  1  0  0  0
  9 27  2  0  0  0
 10 11  2  0  0  0
 10 15  1  0  0  0
 11 12  1  0  0  0
 11 93  1  0  0  0
 12 13  2  0  0  0
 12 94  1  0  0  0
 13 14  1  0  0  0
 13 31  1  0  0  0
 14 15  2  0  0  0
 14 95  1  0  0  0
 15 96  1  0  0  0
 16 17  2  0  0  0
 16 21  1  0  0  0
 16 31  1  0  0  0
 17 18  1  0  0  0
 17 97  1  0  0  0
 18 19  2  0  0  0
 18 98  1  0  0  0
 19 20  1  0  0  0
 19 24  1  0  0  0
 20 21  2  0  0  0
 20 99  1  0  0  0
 21 23  1  0  0  0
 22 28  1  0  0  0
 22 32  2  0  0  0
 26 27  1  0  0  0
 28100  1  0  0  0
 28101  1  0  0  0
 29102  1  0  0  0
 29103  1  0  0  0
 33 34  1  0  0  0
 33 66  1  0  0  0
 33 70  2  0  0  0
 34 36  1  0  0  0
 34 59  1  0  0  0
 34104  1  0  0  0
 35 44  2  0  0  0
 35 45  1  0  0  0
 35 68  1  0  0  0
 36 56  1  0  0  0
 36105  1  0  0  0
 37 39  1  0  0  0
 37 47  1  0  0  0
 37 66  1  0  0  0
 37106  1  0  0  0
 38 43  2  0  0  0
 38 46  1  0  0  0
 38 47  1  0  0  0
 39 64  1  0  0  0
 39 67  2  0  0  0
 40 52  1  0  0  0
 40 53  2  0  0  0
 40 58  1  0  0  0
 41107  1  0  0  0
 41108  1  0  0  0
 41109  1  0  0  0
 41 48  1  0  0  0
 42 43  1  0  0  0
 42 66  1  0  0  0
 42110  1  0  0  0
 42111  1  0  0  0
 43 44  1  0  0  0
 44112  1  0  0  0
 45 46  2  0  0  0
 45113  1  0  0  0
 46114  1  0  0  0
 47115  1  0  0  0
 47116  1  0  0  0
 48 56  1  0  0  0
 48 65  1  0  0  0
 48117  1  0  0  0
 49 50  1  0  0  0
 49 53  1  0  0  0
 49 64  1  0  0  0
 49118  1  0  0  0
 50 51  1  0  0  0
 50119  1  0  0  0
 50120  1  0  0  0
 51 52  1  0  0  0
 51121  1  0  0  0
 51122  1  0  0  0
 52123  1  0  0  0
 52124  1  0  0  0
 53 54  1  0  0  0
 54 55  2  0  0  0
 54125  1  0  0  0
 55 57  1  0  0  0
 55126  1  0  0  0
 56 69  2  0  0  0
 57 58  2  0  0  0
 57127  1  0  0  0
 58128  1  0  0  0
 59 60  1  0  0  0
 59 61  1  0  0  0
 59 62  1  0  0  0
 60129  1  0  0  0
 60130  1  0  0  0
 60131  1  0  0  0
 61132  1  0  0  0
 61133  1  0  0  0
 61134  1  0  0  0
 62135  1  0  0  0
 62136  1  0  0  0
 62137  1  0  0  0
 63 65  1  0  0  0
 63138  1  0  0  0
 63139  1  0  0  0
 63140  1  0  0  0
 64141  1  0  0  0
 65142  1  0  0  0
 68 81  1  0  0  0
 71 72  2  0  0  0
 71 73  1  0  0  0
 71143  1  0  0  0
 72 75  1  0  0  0
 72144  1  0  0  0
 73 76  2  0  0  0
 73145  1  0  0  0
 74 75  2  0  0  0
 74 76  1  0  0  0
 74146  1  0  0  0
 75 77  1  0  0  0
 76 83  1  0  0  0
 77 78  1  0  0  0
 77 82  2  0  0  0
 78 79  1  0  0  0
 78147  1  0  0  0
 78148  1  0  0  0
 79 80  1  0  0  0
 79149  1  0  0  0
 79150  1  0  0  0
 80 81  1  0  0  0
 80151  1  0  0  0
 80152  1  0  0  0
 81153  1  0  0  0
 81154  1  0  0  0
 82155  1  0  0  0
 83156  1  0  0  0
M  ISO  4   1 100  68 101  81 101  83 100
M  END
> <chiral flag>
0

> <version>
0

> <s_m_source_file>
/data/baiqing/PycharmProjects/Reinvent-master-3.2/result/LINK_invent/BTK/process_docking_weight1_custom_product_contain_oxygen_bond_distance_aromatic_linkinvent_7_9_3/rearranged_h_0136.sdf

> <i_m_source_file_index>
4

> <r_mmod_Potential_Energy-OPLS-2005>
25.5937004089355

> <r_mmod_Stretch_Energy-OPLS-2005>
56.8906478881836

> <r_mmod_Bend_Energy-OPLS-2005>
123.678047180176

> <r_mmod_Torsional_Energy-OPLS-2005>
251.694366455078

> <r_mmod_Improper_Torsional_Energy-OPLS-2005>
7.1359691619873

> <r_mmod_Van_der_Waal_Energy-OPLS-2005>
150.056274414062

> <r_mmod_Electrostatic_Energy-OPLS-2005>
-363.5927734375

> <r_mmod_Solvation_Energy-OPLS-2005>
-222.47526550293

> <b_mmod_Minimization_Converged-OPLS-2005>
0

> <r_mmod_RMS_Derivative-OPLS-2005>
6.20623874664307

$$$$
4
                    3D
 Structure written by MMmdl.
174182  0  0  1  0            999 V2000
  -30.5838  -14.9733   20.3965 C   0  0  0  0  0  0
  -30.4072  -12.6008   19.4966 C   0  0  0  0  0  0
  -29.5027  -12.5227   18.2473 C   0  0  0  0  0  0
  -28.0400  -12.3093   18.6658 C   0  0  0  0  0  0
  -27.6152  -13.2548   19.8215 C   0  0  2  0  0  0
  -28.6533  -13.3397   20.9554 C   0  0  0  0  0  0
  -25.2417  -13.8244   20.5702 C   0  0  0  0  0  0
  -24.1759  -13.0437   20.9265 C   0  0  0  0  0  0
  -24.6388  -11.6921   20.8741 C   0  0  0  0  0  0
  -23.9102  -10.4278   21.0385 C   0  0  0  0  0  0
  -24.3648   -9.4186   21.9165 C   0  0  0  0  0  0
  -23.6318   -8.2214   22.0751 C   0  0  0  0  0  0
  -22.4294   -8.0274   21.3529 C   0  0  0  0  0  0
  -21.9923   -9.0262   20.4647 C   0  0  0  0  0  0
  -22.7261  -10.2138   20.3051 C   0  0  0  0  0  0
  -21.6883   -6.0750   22.5277 C   0  0  0  0  0  0
  -21.4036   -6.5642   23.8213 C   0  0  0  0  0  0
  -21.3639   -5.6793   24.9175 C   0  0  0  0  0  0
  -21.6034   -4.3055   24.7228 C   0  0  0  0  0  0
  -21.8801   -3.8147   23.4344 C   0  0  0  0  0  0
  -21.9190   -4.6974   22.3406 C   0  0  0  0  0  0
  -22.7770  -13.5175   21.1923 C   0  0  0  0  0  0
  -22.1640   -4.2152   21.0995 F   0  0  0  0  0  0
  -21.5643   -3.4544   25.7743 F   0  0  0  0  0  0
  -29.9200  -13.7417   20.3374 N   0  0  0  0  0  0
  -26.2818  -12.9456   20.3202 N   0  0  0  0  0  0
  -25.9324  -11.6578   20.5751 N   0  0  0  0  0  0
  -22.0444  -12.8137   22.0484 N   0  0  0  0  0  0
  -25.4105  -15.1960   20.4065 N   0  0  0  0  0  0
  -31.8014  -14.8800   20.2366 O   0  0  0  0  0  0
  -21.6635   -6.8887   21.4231 O   0  0  0  0  0  0
  -22.3367  -14.5423   20.6741 O   0  0  0  0  0  0
  -24.6426  -31.8446   23.1799 C   0  0  0  0  0  0
  -25.9212  -32.4702   23.8176 C   0  0  1  0  0  0
  -27.1976  -27.1143   20.1709 C   0  0  0  0  0  0
  -25.5996  -33.8508   24.2107 N   0  0  0  0  0  0
  -23.4443  -30.4634   21.5214 C   0  0  2  0  0  0
  -24.8940  -28.8824   20.0977 C   0  0  0  0  0  0
  -22.7595  -29.4533   22.4740 C   0  0  0  0  0  0
  -18.0383  -28.1464   22.8472 C   0  0  0  0  0  0
  -24.1507  -36.7266   23.2612 C   0  0  0  0  0  0
  -25.9958  -30.7130   21.3772 C   0  0  0  0  0  0
  -26.0633  -29.3153   20.7332 C   0  0  0  0  0  0
  -27.2128  -28.4436   20.7580 C   0  0  0  0  0  0
  -26.0102  -26.7835   19.4840 C   0  0  0  0  0  0
  -24.8827  -27.6356   19.4518 C   0  0  0  0  0  0
  -23.6750  -29.7930   20.1383 C   0  0  0  0  0  0
  -25.4144  -36.3011   24.0271 C   0  0  1  0  0  0
  -20.5997  -28.3777   23.1230 C   0  0  2  0  0  0
  -20.6855  -26.9470   22.5407 C   0  0  0  0  0  0
  -19.5788  -26.6408   21.5246 C   0  0  0  0  0  0
  -18.1978  -26.7994   22.1663 C   0  0  0  0  0  0
  -19.1630  -28.8927   23.2863 C   0  0  0  0  0  0
  -18.9526  -30.1550   23.8843 C   0  0  0  0  0  0
  -17.6492  -30.6602   24.0622 C   0  0  0  0  0  0
  -25.9096  -34.9409   23.4982 C   0  0  0  0  0  0
  -16.5403  -29.9102   23.6357 C   0  0  0  0  0  0
  -16.7363  -28.6589   23.0267 C   0  0  0  0  0  0
  -26.4529  -31.6543   25.0585 C   0  0  0  0  0  0
  -25.3687  -31.3821   26.1267 C   0  0  0  0  0  0
  -27.0374  -30.2931   24.6106 C   0  0  0  0  0  0
  -27.6060  -32.4284   25.7408 C   0  0  0  0  0  0
  -27.5579  -37.1790   24.8463 C   0  0  0  0  0  0
  -21.4276  -29.3091   22.3550 N   0  0  0  0  0  0
  -26.4295  -37.3722   23.9380 N   0  0  0  0  0  0
  -24.7133  -31.0297   22.0822 N   0  0  0  0  0  0
  -23.4235  -28.8072   23.2892 O   0  0  0  0  0  0
  -28.2538  -26.1453   20.3108 O   0  0  0  0  0  0
  -26.5655  -34.8916   22.4551 O   0  0  0  0  0  0
  -23.5558  -32.1359   23.6991 O   0  0  0  0  0  0
  -32.8686  -18.5076   20.2217 C   0  0  0  0  0  0
  -31.8527  -17.6502   19.7783 C   0  0  0  0  0  0
  -31.1967  -19.9056   21.2054 C   0  0  0  0  0  0
  -32.5384  -19.5349   21.1061 C   0  0  0  0  0  0
  -30.1408  -19.1394   20.6649 C   0  0  0  0  0  0
  -30.5256  -17.7022   20.2913 C   0  0  0  0  0  0
  -32.5414  -18.7684   23.8580 C   0  0  0  0  0  0
  -34.9620  -18.5716   23.3092 C   0  0  0  0  0  0
  -34.1021  -20.6460   24.4094 C   0  0  0  0  0  0
  -26.7755  -22.8550   20.9250 C   0  0  0  0  0  0
  -28.8911  -23.5421   22.0564 C   0  0  0  0  0  0
  -33.5870  -20.2274   21.9579 C   0  0  0  0  0  0
  -28.8518  -20.1525   20.6518 C   0  0  0  0  0  0
  -28.9948  -21.7781   20.1157 C   0  0  0  0  0  0
  -28.2967  -24.6616   19.8206 C   0  0  0  0  0  0
  -33.7822  -19.5573   23.3633 C   0  0  0  0  0  0
  -28.2592  -23.2037   20.6924 C   0  0  0  0  0  0
  -29.9255  -16.2720   20.4150 N   0  0  0  0  0  0
  -31.4474  -12.7144   19.1912 H   0  0  0  0  0  0
  -30.3687  -11.6642   20.0553 H   0  0  0  0  0  0
  -29.8301  -11.7102   17.5955 H   0  0  0  0  0  0
  -29.5937  -13.4354   17.6578 H   0  0  0  0  0  0
  -27.9377  -11.2731   18.9839 H   0  0  0  0  0  0
  -27.3724  -12.4296   17.8094 H   0  0  0  0  0  0
  -27.5656  -14.2461   19.3631 H   0  0  0  0  0  0
  -28.7523  -12.3881   21.4864 H   0  0  0  0  0  0
  -28.3498  -14.0870   21.6887 H   0  0  0  0  0  0
  -25.2816   -9.5657   22.4709 H   0  0  0  0  0  0
  -24.0057   -7.4591   22.7447 H   0  0  0  0  0  0
  -21.0881   -8.8753   19.8928 H   0  0  0  0  0  0
  -22.3737  -10.9659   19.6127 H   0  0  0  0  0  0
  -21.2014   -7.6147   23.9714 H   0  0  0  0  0  0
  -21.1496   -6.0538   25.9089 H   0  0  0  0  0  0
  -22.0604   -2.7614   23.2851 H   0  0  0  0  0  0
  -22.4170  -11.9856   22.4878 H   0  0  0  0  0  0
  -21.1013  -13.1053   22.2680 H   0  0  0  0  0  0
  -24.6513  -15.8587   20.5300 H   0  0  0  0  0  0
  -26.2521  -15.6264   20.0486 H   0  0  0  0  0  0
  -26.7241  -32.5287   23.0877 H   0  0  0  0  0  0
  -25.0294  -33.9651   25.0351 H   0  0  0  0  0  0
  -22.7476  -31.2900   21.3662 H   0  0  0  0  0  0
  -23.3748  -35.9619   23.3286 H   0  0  0  0  0  0
  -24.3594  -36.8899   22.2024 H   0  0  0  0  0  0
  -23.7292  -37.6468   23.6682 H   0  0  0  0  0  0
  -26.1427  -31.4553   20.5899 H   0  0  0  0  0  0
  -26.8747  -30.7806   22.0053 H   0  0  0  0  0  0
  -28.0957  -28.7604   21.2949 H   0  0  0  0  0  0
  -25.9137  -25.8246   18.9991 H   0  0  0  0  0  0
  -23.9893  -27.3117   18.9306 H   0  0  0  0  0  0
  -23.8247  -30.5731   19.3890 H   0  0  0  0  0  0
  -22.7884  -29.2458   19.8116 H   0  0  0  0  0  0
  -25.1327  -36.1816   25.0754 H   0  0  0  0  0  0
  -21.0162  -28.3426   24.1329 H   0  0  0  0  0  0
  -20.5816  -26.2393   23.3647 H   0  0  0  0  0  0
  -21.6699  -26.7494   22.1146 H   0  0  0  0  0  0
  -19.6945  -25.6305   21.1295 H   0  0  0  0  0  0
  -19.6720  -27.3220   20.6771 H   0  0  0  0  0  0
  -17.4254  -26.6790   21.4068 H   0  0  0  0  0  0
  -18.0384  -26.0161   22.9086 H   0  0  0  0  0  0
  -19.7981  -30.7478   24.2067 H   0  0  0  0  0  0
  -17.5026  -31.6237   24.5319 H   0  0  0  0  0  0
  -15.5394  -30.2977   23.7672 H   0  0  0  0  0  0
  -15.8811  -28.0962   22.6798 H   0  0  0  0  0  0
  -24.5863  -30.7183   25.7571 H   0  0  0  0  0  0
  -24.8910  -32.3086   26.4479 H   0  0  0  0  0  0
  -25.7917  -30.9110   27.0149 H   0  0  0  0  0  0
  -26.2961  -29.6656   24.1131 H   0  0  0  0  0  0
  -27.4090  -29.7194   25.4604 H   0  0  0  0  0  0
  -27.8835  -30.4186   23.9339 H   0  0  0  0  0  0
  -27.2647  -33.3618   26.1911 H   0  0  0  0  0  0
  -28.3944  -32.6771   25.0286 H   0  0  0  0  0  0
  -28.0647  -31.8433   26.5395 H   0  0  0  0  0  0
  -28.2554  -38.0106   24.7461 H   0  0  0  0  0  0
  -28.1095  -36.2628   24.6338 H   0  0  0  0  0  0
  -27.2310  -37.1484   25.8864 H   0  0  0  0  0  0
  -20.9458  -29.8856   21.6788 H   0  0  0  0  0  0
  -26.0153  -38.2779   24.1383 H   0  0  0  0  0  0
  -33.9017  -18.2982   19.9755 H   0  0  0  0  0  0
  -32.1900  -16.8379   19.1563 H   0  0  0  0  0  0
  -30.9821  -20.8234   21.7391 H   0  0  0  0  0  0
  -32.7110  -18.3583   24.8546 H   0  0  0  0  0  0
  -32.3061  -17.9166   23.2162 H   0  0  0  0  0  0
  -31.6558  -19.3996   23.9138 H   0  0  0  0  0  0
  -35.0863  -18.0485   24.2602 H   0  0  0  0  0  0
  -35.9101  -19.0714   23.0963 H   0  0  0  0  0  0
  -34.8090  -17.8133   22.5398 H   0  0  0  0  0  0
  -34.3497  -20.2101   25.3783 H   0  0  0  0  0  0
  -33.2449  -21.3027   24.5679 H   0  0  0  0  0  0
  -34.9447  -21.2708   24.1079 H   0  0  0  0  0  0
  -26.2049  -23.7203   21.2622 H   0  0  0  0  0  0
  -26.6662  -22.0803   21.6826 H   0  0  0  0  0  0
  -26.2941  -22.4886   20.0184 H   0  0  0  0  0  0
  -28.2636  -24.2556   22.5940 H   0  0  0  0  0  0
  -29.8644  -24.0178   21.9372 H   0  0  0  0  0  0
  -29.0063  -22.6657   22.6974 H   0  0  0  0  0  0
  -33.2479  -21.2571   22.0936 H   0  0  0  0  0  0
  -34.5268  -20.3012   21.4068 H   0  0  0  0  0  0
  -28.5368  -20.1993   21.6941 H   0  0  0  0  0  0
  -28.0213  -19.6628   20.1445 H   0  0  0  0  0  0
  -28.7922  -21.7323   19.0463 H   0  0  0  0  0  0
  -30.0571  -22.0242   20.1346 H   0  0  0  0  0  0
  -27.6338  -24.5515   18.9648 H   0  0  0  0  0  0
  -29.2787  -24.6339   19.3489 H   0  0  0  0  0  0
  -28.9353  -16.2332   20.5969 H   0  0  0  0  0  0
  1 25  1  0  0  0
  1 30  2  0  0  0
  1 88  1  0  0  0
  2  3  1  0  0  0
  2 25  1  0  0  0
  2 89  1  0  0  0
  2 90  1  0  0  0
  3  4  1  0  0  0
  3 91  1  0  0  0
  3 92  1  0  0  0
  4  5  1  0  0  0
  4 93  1  0  0  0
  4 94  1  0  0  0
  5  6  1  0  0  0
  5 26  1  0  0  0
  5 95  1  0  0  0
  6 25  1  0  0  0
  6 96  1  0  0  0
  6 97  1  0  0  0
  7  8  2  0  0  0
  7 26  1  0  0  0
  7 29  1  0  0  0
  8  9  1  0  0  0
  8 22  1  0  0  0
  9 10  1  0  0  0
  9 27  2  0  0  0
 10 11  2  0  0  0
 10 15  1  0  0  0
 11 12  1  0  0  0
 11 98  1  0  0  0
 12 13  2  0  0  0
 12 99  1  0  0  0
 13 14  1  0  0  0
 13 31  1  0  0  0
 14 15  2  0  0  0
 14100  1  0  0  0
 15101  1  0  0  0
 16 17  2  0  0  0
 16 21  1  0  0  0
 16 31  1  0  0  0
 17 18  1  0  0  0
 17102  1  0  0  0
 18 19  2  0  0  0
 18103  1  0  0  0
 19 20  1  0  0  0
 19 24  1  0  0  0
 20 21  2  0  0  0
 20104  1  0  0  0
 21 23  1  0  0  0
 22 28  1  0  0  0
 22 32  2  0  0  0
 26 27  1  0  0  0
 28105  1  0  0  0
 28106  1  0  0  0
 29107  1  0  0  0
 29108  1  0  0  0
 33 34  1  0  0  0
 33 66  1  0  0  0
 33 70  2  0  0  0
 34 36  1  0  0  0
 34 59  1  0  0  0
 34109  1  0  0  0
 35 44  2  0  0  0
 35 45  1  0  0  0
 35 68  1  0  0  0
 36 56  1  0  0  0
 36110  1  0  0  0
 37 39  1  0  0  0
 37 47  1  0  0  0
 37 66  1  0  0  0
 37111  1  0  0  0
 38 43  2  0  0  0
 38 46  1  0  0  0
 38 47  1  0  0  0
 39 64  1  0  0  0
 39 67  2  0  0  0
 40 52  1  0  0  0
 40 53  2  0  0  0
 40 58  1  0  0  0
 41112  1  0  0  0
 41113  1  0  0  0
 41114  1  0  0  0
 41 48  1  0  0  0
 42 43  1  0  0  0
 42 66  1  0  0  0
 42115  1  0  0  0
 42116  1  0  0  0
 43 44  1  0  0  0
 44117  1  0  0  0
 45 46  2  0  0  0
 45118  1  0  0  0
 46119  1  0  0  0
 47120  1  0  0  0
 47121  1  0  0  0
 48 56  1  0  0  0
 48 65  1  0  0  0
 48122  1  0  0  0
 49 50  1  0  0  0
 49 53  1  0  0  0
 49 64  1  0  0  0
 49123  1  0  0  0
 50 51  1  0  0  0
 50124  1  0  0  0
 50125  1  0  0  0
 51 52  1  0  0  0
 51126  1  0  0  0
 51127  1  0  0  0
 52128  1  0  0  0
 52129  1  0  0  0
 53 54  1  0  0  0
 54 55  2  0  0  0
 54130  1  0  0  0
 55 57  1  0  0  0
 55131  1  0  0  0
 56 69  2  0  0  0
 57 58  2  0  0  0
 57132  1  0  0  0
 58133  1  0  0  0
 59 60  1  0  0  0
 59 61  1  0  0  0
 59 62  1  0  0  0
 60134  1  0  0  0
 60135  1  0  0  0
 60136  1  0  0  0
 61137  1  0  0  0
 61138  1  0  0  0
 61139  1  0  0  0
 62140  1  0  0  0
 62141  1  0  0  0
 62142  1  0  0  0
 63 65  1  0  0  0
 63143  1  0  0  0
 63144  1  0  0  0
 63145  1  0  0  0
 64146  1  0  0  0
 65147  1  0  0  0
 68 85  1  0  0  0
 71 72  2  0  0  0
 71 74  1  0  0  0
 71148  1  0  0  0
 72 76  1  0  0  0
 72149  1  0  0  0
 73 74  2  0  0  0
 73 75  1  0  0  0
 73150  1  0  0  0
 74 82  1  0  0  0
 75 76  2  0  0  0
 75 83  1  0  0  0
 76 88  1  0  0  0
 77151  1  0  0  0
 77152  1  0  0  0
 77153  1  0  0  0
 77 86  1  0  0  0
 78 86  1  0  0  0
 78154  1  0  0  0
 78155  1  0  0  0
 78156  1  0  0  0
 79 86  1  0  0  0
 79157  1  0  0  0
 79158  1  0  0  0
 79159  1  0  0  0
 80160  1  0  0  0
 80161  1  0  0  0
 80162  1  0  0  0
 80 87  1  0  0  0
 81 87  1  0  0  0
 81163  1  0  0  0
 81164  1  0  0  0
 81165  1  0  0  0
 82 86  1  0  0  0
 82166  1  0  0  0
 82167  1  0  0  0
 83 84  1  0  0  0
 83168  1  0  0  0
 83169  1  0  0  0
 84 87  1  0  0  0
 84170  1  0  0  0
 84171  1  0  0  0
 85 87  1  0  0  0
 85172  1  0  0  0
 85173  1  0  0  0
 88174  1  0  0  0
M  ISO  4   1 100  68 101  85 101  88 100
M  END
> <chiral flag>
0

> <version>
0

> <s_m_source_file>
/data/baiqing/PycharmProjects/Reinvent-master-3.2/result/LINK_invent/BTK/process_docking_weight1_custom_product_contain_oxygen_bond_distance_aromatic_linkinvent_7_9_3/rearranged_h_0136.sdf

> <i_m_source_file_index>
5

> <r_mmod_Potential_Energy-OPLS-2005>
852.945495605469

> <r_mmod_Stretch_Energy-OPLS-2005>
327.872833251953

> <r_mmod_Bend_Energy-OPLS-2005>
375.342102050781

> <r_mmod_Torsional_Energy-OPLS-2005>
344.056121826172

> <r_mmod_Improper_Torsional_Energy-OPLS-2005>
5.42323207855225

> <r_mmod_Van_der_Waal_Energy-OPLS-2005>
153.513824462891

> <r_mmod_Electrostatic_Energy-OPLS-2005>
-380.205139160156

> <r_mmod_Solvation_Energy-OPLS-2005>
-187.453109741211

> <b_mmod_Minimization_Converged-OPLS-2005>
0

> <r_mmod_RMS_Derivative-OPLS-2005>
6.50642776489258

$$$$
5
                    3D
 Structure written by MMmdl.
154162  0  0  1  0            999 V2000
  -30.6310  -14.7322   20.4710 C   0  0  0  0  0  0
  -30.4414  -12.4511   19.4589 C   0  0  0  0  0  0
  -29.5097  -12.4958   18.2281 C   0  0  0  0  0  0
  -28.0359  -12.3272   18.6482 C   0  0  0  0  0  0
  -27.6470  -13.2263   19.8529 C   0  0  2  0  0  0
  -28.6992  -13.1611   20.9822 C   0  0  0  0  0  0
  -25.2526  -13.8180   20.5643 C   0  0  0  0  0  0
  -24.1824  -13.0425   20.9194 C   0  0  0  0  0  0
  -24.6424  -11.6912   20.8773 C   0  0  0  0  0  0
  -23.9087  -10.4290   21.0427 C   0  0  0  0  0  0
  -24.3627   -9.4198   21.9205 C   0  0  0  0  0  0
  -23.6290   -8.2239   22.0773 C   0  0  0  0  0  0
  -22.4281   -8.0278   21.3548 C   0  0  0  0  0  0
  -21.9916   -9.0259   20.4655 C   0  0  0  0  0  0
  -22.7256  -10.2139   20.3070 C   0  0  0  0  0  0
  -21.6846   -6.0729   22.5271 C   0  0  0  0  0  0
  -21.4014   -6.5632   23.8200 C   0  0  0  0  0  0
  -21.3658   -5.6785   24.9163 C   0  0  0  0  0  0
  -21.6046   -4.3046   24.7216 C   0  0  0  0  0  0
  -21.8819   -3.8142   23.4337 C   0  0  0  0  0  0
  -21.9195   -4.6960   22.3395 C   0  0  0  0  0  0
  -22.7850  -13.5222   21.1843 C   0  0  0  0  0  0
  -22.1658   -4.2137   21.0972 F   0  0  0  0  0  0
  -21.5637   -3.4535   25.7736 F   0  0  0  0  0  0
  -29.9966  -13.5130   20.3905 N   0  0  0  0  0  0
  -26.2979  -12.9379   20.3314 N   0  0  0  0  0  0
  -25.9355  -11.6527   20.5797 N   0  0  0  0  0  0
  -22.0490  -12.8223   22.0406 N   0  0  0  0  0  0
  -25.4156  -15.1889   20.3940 N   0  0  0  0  0  0
  -31.8237  -14.8216   20.1677 O   0  0  0  0  0  0
  -21.6638   -6.8883   21.4242 O   0  0  0  0  0  0
  -22.3543  -14.5528   20.6685 O   0  0  0  0  0  0
  -24.6309  -31.8569   23.1940 C   0  0  0  0  0  0
  -25.9129  -32.4769   23.8315 C   0  0  1  0  0  0
  -27.2276  -27.2495   20.1382 C   0  0  0  0  0  0
  -25.5938  -33.8566   24.2251 N   0  0  0  0  0  0
  -23.4309  -30.4737   21.5395 C   0  0  2  0  0  0
  -24.8823  -28.9174   20.1126 C   0  0  0  0  0  0
  -22.7522  -29.4582   22.4890 C   0  0  0  0  0  0
  -18.0307  -28.1393   22.8475 C   0  0  0  0  0  0
  -24.1494  -36.7262   23.2635 C   0  0  0  0  0  0
  -25.9756  -30.7654   21.3760 C   0  0  0  0  0  0
  -26.0550  -29.3842   20.7236 C   0  0  0  0  0  0
  -27.2320  -28.5651   20.7177 C   0  0  0  0  0  0
  -26.0354  -26.8592   19.4866 C   0  0  0  0  0  0
  -24.8786  -27.6641   19.4831 C   0  0  0  0  0  0
  -23.6515  -29.8023   20.1593 C   0  0  0  0  0  0
  -25.4124  -36.3058   24.0313 C   0  0  1  0  0  0
  -20.5901  -28.3691   23.1249 C   0  0  2  0  0  0
  -20.6794  -26.9405   22.5397 C   0  0  0  0  0  0
  -19.5783  -26.6380   21.5186 C   0  0  0  0  0  0
  -18.1961  -26.7934   22.1607 C   0  0  0  0  0  0
  -19.1554  -28.8854   23.2860 C   0  0  0  0  0  0
  -18.9485  -30.1452   23.8887 C   0  0  0  0  0  0
  -17.6485  -30.6596   24.0549 C   0  0  0  0  0  0
  -25.9072  -34.9430   23.5085 C   0  0  0  0  0  0
  -16.5371  -29.9093   23.6340 C   0  0  0  0  0  0
  -16.7291  -28.6510   23.0351 C   0  0  0  0  0  0
  -26.4490  -31.6592   25.0705 C   0  0  0  0  0  0
  -25.3673  -31.3748   26.1389 C   0  0  0  0  0  0
  -27.0335  -30.3019   24.6178 C   0  0  0  0  0  0
  -27.6076  -32.4299   25.7470 C   0  0  0  0  0  0
  -27.5568  -37.1784   24.8471 C   0  0  0  0  0  0
  -21.4227  -29.3022   22.3620 N   0  0  0  0  0  0
  -26.4301  -37.3756   23.9393 N   0  0  0  0  0  0
  -24.6983  -31.0497   22.0940 N   0  0  0  0  0  0
  -23.4192  -28.8123   23.3004 O   0  0  0  0  0  0
  -28.3233  -26.3499   20.1676 O   0  0  0  0  0  0
  -26.5646  -34.8896   22.4653 O   0  0  0  0  0  0
  -23.5438  -32.1404   23.7191 O   0  0  0  0  0  0
  -30.8985  -20.0243   21.5053 C   0  0  0  0  0  0
  -31.6191  -18.9285   22.0287 C   0  0  0  0  0  0
  -29.4899  -18.4409   20.3175 C   0  0  0  0  0  0
  -30.2116  -17.2910   20.8484 C   0  0  0  0  0  0
  -29.8076  -19.8291   20.6309 C   0  0  0  0  0  0
  -31.2809  -17.5918   21.7258 C   0  0  0  0  0  0
  -30.5470  -24.0885   20.5841 C   0  0  0  0  0  0
  -28.0864  -24.9034   20.5419 C   0  0  0  0  0  0
  -28.8112  -22.2051   20.7760 C   0  0  0  0  0  0
  -29.1166  -23.6926   20.1847 C   0  0  2  0  0  0
  -29.8454  -15.8706   20.6043 N   0  0  0  0  0  0
  -29.1661  -20.9552   20.0365 O   0  0  0  0  0  0
  -31.9734  -16.5998   22.3336 F   0  0  0  0  0  0
  -31.4778  -12.5834   19.1429 H   0  0  0  0  0  0
  -30.3973  -11.4744   19.9438 H   0  0  0  0  0  0
  -29.7832  -11.7127   17.5178 H   0  0  0  0  0  0
  -29.6378  -13.4430   17.7022 H   0  0  0  0  0  0
  -27.8895  -11.2796   18.9145 H   0  0  0  0  0  0
  -27.3747  -12.5217   17.8022 H   0  0  0  0  0  0
  -27.6412  -14.2467   19.4722 H   0  0  0  0  0  0
  -28.7400  -12.1640   21.4196 H   0  0  0  0  0  0
  -28.4437  -13.8430   21.7951 H   0  0  0  0  0  0
  -25.2774   -9.5655   22.4780 H   0  0  0  0  0  0
  -23.9980   -7.4632   22.7501 H   0  0  0  0  0  0
  -21.0837   -8.8785   19.8968 H   0  0  0  0  0  0
  -22.3717  -10.9681   19.6175 H   0  0  0  0  0  0
  -21.2003   -7.6137   23.9691 H   0  0  0  0  0  0
  -21.1483   -6.0524   25.9063 H   0  0  0  0  0  0
  -22.0608   -2.7606   23.2838 H   0  0  0  0  0  0
  -22.4094  -11.9873   22.4785 H   0  0  0  0  0  0
  -21.1130  -13.1287   22.2644 H   0  0  0  0  0  0
  -24.6235  -15.8203   20.4446 H   0  0  0  0  0  0
  -26.2280  -15.6156   19.9688 H   0  0  0  0  0  0
  -26.7190  -32.5428   23.1059 H   0  0  0  0  0  0
  -25.0048  -33.9755   25.0359 H   0  0  0  0  0  0
  -22.7243  -31.2901   21.3893 H   0  0  0  0  0  0
  -23.3781  -35.9576   23.3334 H   0  0  0  0  0  0
  -24.3580  -36.8871   22.2045 H   0  0  0  0  0  0
  -23.7243  -37.6457   23.6663 H   0  0  0  0  0  0
  -26.1064  -31.5220   20.5998 H   0  0  0  0  0  0
  -26.8562  -30.8269   22.0034 H   0  0  0  0  0  0
  -28.1345  -28.9163   21.1971 H   0  0  0  0  0  0
  -25.9791  -25.9115   18.9709 H   0  0  0  0  0  0
  -23.9835  -27.3089   18.9906 H   0  0  0  0  0  0
  -23.7737  -30.5748   19.4014 H   0  0  0  0  0  0
  -22.7727  -29.2304   19.8590 H   0  0  0  0  0  0
  -25.1313  -36.1921   25.0813 H   0  0  0  0  0  0
  -21.0015  -28.3298   24.1350 H   0  0  0  0  0  0
  -20.5712  -26.2299   23.3609 H   0  0  0  0  0  0
  -21.6668  -26.7432   22.1173 H   0  0  0  0  0  0
  -19.6957  -25.6276   21.1241 H   0  0  0  0  0  0
  -19.6752  -27.3167   20.6690 H   0  0  0  0  0  0
  -17.4224  -26.6644   21.4015 H   0  0  0  0  0  0
  -18.0385  -26.0079   22.9012 H   0  0  0  0  0  0
  -19.7957  -30.7266   24.2268 H   0  0  0  0  0  0
  -17.5045  -31.6291   24.5129 H   0  0  0  0  0  0
  -15.5372  -30.2993   23.7687 H   0  0  0  0  0  0
  -15.8683  -28.0843   22.7056 H   0  0  0  0  0  0
  -24.5935  -30.7020   25.7676 H   0  0  0  0  0  0
  -24.8749  -32.2901   26.4669 H   0  0  0  0  0  0
  -25.7924  -30.9028   27.0254 H   0  0  0  0  0  0
  -26.2890  -29.6765   24.1237 H   0  0  0  0  0  0
  -27.4066  -29.7299   25.4682 H   0  0  0  0  0  0
  -27.8745  -30.4324   23.9372 H   0  0  0  0  0  0
  -27.2799  -33.3696   26.1917 H   0  0  0  0  0  0
  -28.3943  -32.6687   25.0306 H   0  0  0  0  0  0
  -28.0667  -31.8494   26.5476 H   0  0  0  0  0  0
  -28.2588  -38.0073   24.7514 H   0  0  0  0  0  0
  -28.1073  -36.2608   24.6343 H   0  0  0  0  0  0
  -27.2289  -37.1465   25.8877 H   0  0  0  0  0  0
  -20.9405  -29.8736   21.6826 H   0  0  0  0  0  0
  -26.0191  -38.2821   24.1447 H   0  0  0  0  0  0
  -31.2212  -21.0239   21.7596 H   0  0  0  0  0  0
  -32.4541  -19.1093   22.6889 H   0  0  0  0  0  0
  -28.6645  -18.2596   19.6453 H   0  0  0  0  0  0
  -30.8442  -25.0243   20.1113 H   0  0  0  0  0  0
  -31.2614  -23.3245   20.2747 H   0  0  0  0  0  0
  -30.6368  -24.2213   21.6647 H   0  0  0  0  0  0
  -27.1209  -24.5723   20.1591 H   0  0  0  0  0  0
  -27.9576  -24.9062   21.6261 H   0  0  0  0  0  0
  -27.7285  -22.1360   20.8747 H   0  0  0  0  0  0
  -29.1755  -22.1457   21.8024 H   0  0  0  0  0  0
  -29.0937  -23.6031   19.0965 H   0  0  0  0  0  0
  -28.8549  -15.6901   20.5599 H   0  0  0  0  0  0
  1 25  1  0  0  0
  1 30  2  0  0  0
  1 81  1  0  0  0
  2  3  1  0  0  0
  2 25  1  0  0  0
  2 84  1  0  0  0
  2 85  1  0  0  0
  3  4  1  0  0  0
  3 86  1  0  0  0
  3 87  1  0  0  0
  4  5  1  0  0  0
  4 88  1  0  0  0
  4 89  1  0  0  0
  5  6  1  0  0  0
  5 26  1  0  0  0
  5 90  1  0  0  0
  6 25  1  0  0  0
  6 91  1  0  0  0
  6 92  1  0  0  0
  7  8  2  0  0  0
  7 26  1  0  0  0
  7 29  1  0  0  0
  8  9  1  0  0  0
  8 22  1  0  0  0
  9 10  1  0  0  0
  9 27  2  0  0  0
 10 11  2  0  0  0
 10 15  1  0  0  0
 11 12  1  0  0  0
 11 93  1  0  0  0
 12 13  2  0  0  0
 12 94  1  0  0  0
 13 14  1  0  0  0
 13 31  1  0  0  0
 14 15  2  0  0  0
 14 95  1  0  0  0
 15 96  1  0  0  0
 16 17  2  0  0  0
 16 21  1  0  0  0
 16 31  1  0  0  0
 17 18  1  0  0  0
 17 97  1  0  0  0
 18 19  2  0  0  0
 18 98  1  0  0  0
 19 20  1  0  0  0
 19 24  1  0  0  0
 20 21  2  0  0  0
 20 99  1  0  0  0
 21 23  1  0  0  0
 22 28  1  0  0  0
 22 32  2  0  0  0
 26 27  1  0  0  0
 28100  1  0  0  0
 28101  1  0  0  0
 29102  1  0  0  0
 29103  1  0  0  0
 33 34  1  0  0  0
 33 66  1  0  0  0
 33 70  2  0  0  0
 34 36  1  0  0  0
 34 59  1  0  0  0
 34104  1  0  0  0
 35 44  2  0  0  0
 35 45  1  0  0  0
 35 68  1  0  0  0
 36 56  1  0  0  0
 36105  1  0  0  0
 37 39  1  0  0  0
 37 47  1  0  0  0
 37 66  1  0  0  0
 37106  1  0  0  0
 38 43  2  0  0  0
 38 46  1  0  0  0
 38 47  1  0  0  0
 39 64  1  0  0  0
 39 67  2  0  0  0
 40 52  1  0  0  0
 40 53  2  0  0  0
 40 58  1  0  0  0
 41107  1  0  0  0
 41108  1  0  0  0
 41109  1  0  0  0
 41 48  1  0  0  0
 42 43  1  0  0  0
 42 66  1  0  0  0
 42110  1  0  0  0
 42111  1  0  0  0
 43 44  1  0  0  0
 44112  1  0  0  0
 45 46  2  0  0  0
 45113  1  0  0  0
 46114  1  0  0  0
 47115  1  0  0  0
 47116  1  0  0  0
 48 56  1  0  0  0
 48 65  1  0  0  0
 48117  1  0  0  0
 49 50  1  0  0  0
 49 53  1  0  0  0
 49 64  1  0  0  0
 49118  1  0  0  0
 50 51  1  0  0  0
 50119  1  0  0  0
 50120  1  0  0  0
 51 52  1  0  0  0
 51121  1  0  0  0
 51122  1  0  0  0
 52123  1  0  0  0
 52124  1  0  0  0
 53 54  1  0  0  0
 54 55  2  0  0  0
 54125  1  0  0  0
 55 57  1  0  0  0
 55126  1  0  0  0
 56 69  2  0  0  0
 57 58  2  0  0  0
 57127  1  0  0  0
 58128  1  0  0  0
 59 60  1  0  0  0
 59 61  1  0  0  0
 59 62  1  0  0  0
 60129  1  0  0  0
 60130  1  0  0  0
 60131  1  0  0  0
 61132  1  0  0  0
 61133  1  0  0  0
 61134  1  0  0  0
 62135  1  0  0  0
 62136  1  0  0  0
 62137  1  0  0  0
 63 65  1  0  0  0
 63138  1  0  0  0
 63139  1  0  0  0
 63140  1  0  0  0
 64141  1  0  0  0
 65142  1  0  0  0
 68 78  1  0  0  0
 71 72  2  0  0  0
 71 75  1  0  0  0
 71143  1  0  0  0
 72 76  1  0  0  0
 72144  1  0  0  0
 73 74  1  0  0  0
 73 75  2  0  0  0
 73145  1  0  0  0
 74 76  2  0  0  0
 74 81  1  0  0  0
 75 82  1  0  0  0
 76 83  1  0  0  0
 77146  1  0  0  0
 77147  1  0  0  0
 77148  1  0  0  0
 77 80  1  0  0  0
 78 80  1  0  0  0
 78149  1  0  0  0
 78150  1  0  0  0
 79 80  1  0  0  0
 79 82  1  0  0  0
 79151  1  0  0  0
 79152  1  0  0  0
 80153  1  0  0  0
 81154  1  0  0  0
M  ISO  4   1 100  68 101  78 101  81 100
M  END
> <chiral flag>
0

> <version>
0

> <s_m_source_file>
/data/baiqing/PycharmProjects/Reinvent-master-3.2/result/LINK_invent/BTK/process_docking_weight1_custom_product_contain_oxygen_bond_distance_aromatic_linkinvent_7_9_3/rearranged_h_0136.sdf

> <i_m_source_file_index>
6

> <r_mmod_Potential_Energy-OPLS-2005>
180.022262573242

> <r_mmod_Stretch_Energy-OPLS-2005>
128.500625610352

> <r_mmod_Bend_Energy-OPLS-2005>
168.153305053711

> <r_mmod_Torsional_Energy-OPLS-2005>
259.578063964844

> <r_mmod_Improper_Torsional_Energy-OPLS-2005>
8.09871673583984

> <r_mmod_Van_der_Waal_Energy-OPLS-2005>
137.419158935547

> <r_mmod_Electrostatic_Energy-OPLS-2005>
-395.159759521484

> <r_mmod_Solvation_Energy-OPLS-2005>
-211.365142822266

> <b_mmod_Minimization_Converged-OPLS-2005>
0

> <r_mmod_RMS_Derivative-OPLS-2005>
3.72791361808777

$$$$
6
                    3D
 Structure written by MMmdl.
156164  0  0  1  0            999 V2000
  -30.5051  -15.0068   20.4104 C   0  0  0  0  0  0
  -30.4449  -12.6325   19.4784 C   0  0  0  0  0  0
  -29.5188  -12.5300   18.2447 C   0  0  0  0  0  0
  -28.0538  -12.3083   18.6712 C   0  0  0  0  0  0
  -27.6225  -13.2484   19.8273 C   0  0  2  0  0  0
  -28.6709  -13.3023   20.9555 C   0  0  0  0  0  0
  -25.2443  -13.8209   20.5727 C   0  0  0  0  0  0
  -24.1761  -13.0426   20.9233 C   0  0  0  0  0  0
  -24.6383  -11.6914   20.8753 C   0  0  0  0  0  0
  -23.9069  -10.4287   21.0408 C   0  0  0  0  0  0
  -24.3623   -9.4202   21.9184 C   0  0  0  0  0  0
  -23.6294   -8.2238   22.0754 C   0  0  0  0  0  0
  -22.4274   -8.0278   21.3546 C   0  0  0  0  0  0
  -21.9914   -9.0249   20.4645 C   0  0  0  0  0  0
  -22.7243  -10.2127   20.3055 C   0  0  0  0  0  0
  -21.6854   -6.0731   22.5278 C   0  0  0  0  0  0
  -21.4013   -6.5634   23.8209 C   0  0  0  0  0  0
  -21.3661   -5.6789   24.9171 C   0  0  0  0  0  0
  -21.6047   -4.3055   24.7220 C   0  0  0  0  0  0
  -21.8820   -3.8144   23.4345 C   0  0  0  0  0  0
  -21.9191   -4.6960   22.3403 C   0  0  0  0  0  0
  -22.7782  -13.5197   21.1886 C   0  0  0  0  0  0
  -22.1659   -4.2146   21.0982 F   0  0  0  0  0  0
  -21.5633   -3.4541   25.7735 F   0  0  0  0  0  0
  -29.9262  -13.7385   20.3322 N   0  0  0  0  0  0
  -26.2858  -12.9438   20.3227 N   0  0  0  0  0  0
  -25.9314  -11.6566   20.5724 N   0  0  0  0  0  0
  -22.0433  -12.8183   22.0443 N   0  0  0  0  0  0
  -25.4091  -15.1944   20.4194 N   0  0  0  0  0  0
  -31.7320  -15.0626   20.2637 O   0  0  0  0  0  0
  -21.6640   -6.8875   21.4238 O   0  0  0  0  0  0
  -22.3465  -14.5501   20.6733 O   0  0  0  0  0  0
  -24.6466  -31.8398   23.1826 C   0  0  0  0  0  0
  -25.9221  -32.4667   23.8237 C   0  0  1  0  0  0
  -27.2218  -27.0966   20.1737 C   0  0  0  0  0  0
  -25.5951  -33.8477   24.2154 N   0  0  0  0  0  0
  -23.4527  -30.4542   21.5292 C   0  0  2  0  0  0
  -24.9015  -28.8600   20.1243 C   0  0  0  0  0  0
  -22.7581  -29.4513   22.4855 C   0  0  0  0  0  0
  -18.0305  -28.1395   22.8469 C   0  0  0  0  0  0
  -24.1489  -36.7244   23.2644 C   0  0  0  0  0  0
  -26.0095  -30.7010   21.3847 C   0  0  0  0  0  0
  -26.0803  -29.3032   20.7379 C   0  0  0  0  0  0
  -27.2432  -28.4404   20.7358 C   0  0  0  0  0  0
  -26.0148  -26.7487   19.5363 C   0  0  0  0  0  0
  -24.8808  -27.5956   19.5105 C   0  0  0  0  0  0
  -23.6828  -29.7717   20.1543 C   0  0  0  0  0  0
  -25.4119  -36.3011   24.0314 C   0  0  1  0  0  0
  -20.5922  -28.3719   23.1231 C   0  0  2  0  0  0
  -20.6789  -26.9420   22.5407 C   0  0  0  0  0  0
  -19.5764  -26.6379   21.5211 C   0  0  0  0  0  0
  -18.1943  -26.7932   22.1617 C   0  0  0  0  0  0
  -19.1565  -28.8878   23.2840 C   0  0  0  0  0  0
  -18.9483  -30.1472   23.8873 C   0  0  0  0  0  0
  -17.6482  -30.6596   24.0558 C   0  0  0  0  0  0
  -25.9073  -34.9391   23.5042 C   0  0  0  0  0  0
  -16.5369  -29.9089   23.6338 C   0  0  0  0  0  0
  -16.7290  -28.6508   23.0350 C   0  0  0  0  0  0
  -26.4521  -31.6552   25.0698 C   0  0  0  0  0  0
  -25.3686  -31.3770   26.1381 C   0  0  0  0  0  0
  -27.0388  -30.2944   24.6306 C   0  0  0  0  0  0
  -27.6040  -32.4328   25.7496 C   0  0  0  0  0  0
  -27.5569  -37.1770   24.8465 C   0  0  0  0  0  0
  -21.4270  -29.3043   22.3601 N   0  0  0  0  0  0
  -26.4276  -37.3725   23.9412 N   0  0  0  0  0  0
  -24.7231  -31.0214   22.0875 N   0  0  0  0  0  0
  -23.4205  -28.8061   23.3023 O   0  0  0  0  0  0
  -28.3200  -26.1569   20.1011 O   0  0  0  0  0  0
  -26.5668  -34.8903   22.4626 O   0  0  0  0  0  0
  -23.5573  -32.1288   23.7030 O   0  0  0  0  0  0
  -30.2806  -19.2343   22.5724 C   0  0  0  0  0  0
  -29.8155  -20.3808   21.8835 C   0  0  0  0  0  0
  -30.2873  -17.9350   22.0081 C   0  0  0  0  0  0
  -29.3165  -18.9147   20.0168 C   0  0  0  0  0  0
  -29.3303  -20.3142   20.5628 C   0  0  0  0  0  0
  -29.7956  -17.6731   20.7117 C   0  0  0  0  0  0
  -27.7588  -24.8022   22.0687 C   0  0  0  0  0  0
  -29.9869  -24.7028   20.9748 C   0  0  0  0  0  0
  -29.1013  -21.7712   19.7849 C   0  0  0  0  0  0
  -28.1297  -23.1554   20.0858 C   0  0  0  0  0  0
  -28.4735  -24.7095   20.7092 C   0  0  0  0  0  0
  -29.6920  -16.1852   20.2989 N   0  0  0  0  0  0
  -31.4707  -12.8198   19.1572 H   0  0  0  0  0  0
  -30.4678  -11.6922   20.0314 H   0  0  0  0  0  0
  -29.8457  -11.7216   17.5895 H   0  0  0  0  0  0
  -29.5920  -13.4471   17.6581 H   0  0  0  0  0  0
  -27.9580  -11.2691   18.9884 H   0  0  0  0  0  0
  -27.3875  -12.4276   17.8164 H   0  0  0  0  0  0
  -27.5718  -14.2434   19.3848 H   0  0  0  0  0  0
  -28.7818  -12.3325   21.4432 H   0  0  0  0  0  0
  -28.3670  -14.0097   21.7291 H   0  0  0  0  0  0
  -25.2762   -9.5678   22.4762 H   0  0  0  0  0  0
  -23.9999   -7.4631   22.7477 H   0  0  0  0  0  0
  -21.0847   -8.8772   19.8951 H   0  0  0  0  0  0
  -22.3703  -10.9668   19.6169 H   0  0  0  0  0  0
  -21.2004   -7.6142   23.9710 H   0  0  0  0  0  0
  -21.1485   -6.0521   25.9075 H   0  0  0  0  0  0
  -22.0598   -2.7605   23.2846 H   0  0  0  0  0  0
  -22.4056  -11.9847   22.4831 H   0  0  0  0  0  0
  -21.1048  -13.1201   22.2648 H   0  0  0  0  0  0
  -24.6434  -15.8455   20.5548 H   0  0  0  0  0  0
  -26.2580  -15.6469   20.1086 H   0  0  0  0  0  0
  -26.7288  -32.5255   23.0968 H   0  0  0  0  0  0
  -25.0059  -33.9575   25.0273 H   0  0  0  0  0  0
  -22.7572  -31.2801   21.3656 H   0  0  0  0  0  0
  -23.3754  -35.9570   23.3292 H   0  0  0  0  0  0
  -24.3569  -36.8898   22.2062 H   0  0  0  0  0  0
  -23.7258  -37.6438   23.6696 H   0  0  0  0  0  0
  -26.1626  -31.4477   20.6041 H   0  0  0  0  0  0
  -26.8807  -30.7612   22.0255 H   0  0  0  0  0  0
  -28.1548  -28.7845   21.2043 H   0  0  0  0  0  0
  -25.9455  -25.7830   19.0558 H   0  0  0  0  0  0
  -23.9803  -27.2482   19.0231 H   0  0  0  0  0  0
  -23.8301  -30.5407   19.3948 H   0  0  0  0  0  0
  -22.7967  -29.2175   19.8403 H   0  0  0  0  0  0
  -25.1311  -36.1825   25.0806 H   0  0  0  0  0  0
  -21.0005  -28.3317   24.1353 H   0  0  0  0  0  0
  -20.5676  -26.2331   23.3628 H   0  0  0  0  0  0
  -21.6651  -26.7412   22.1209 H   0  0  0  0  0  0
  -19.6928  -25.6284   21.1256 H   0  0  0  0  0  0
  -19.6716  -27.3175   20.6732 H   0  0  0  0  0  0
  -17.4210  -26.6679   21.4022 H   0  0  0  0  0  0
  -18.0343  -26.0078   22.9022 H   0  0  0  0  0  0
  -19.7964  -30.7288   24.2234 H   0  0  0  0  0  0
  -17.5038  -31.6273   24.5165 H   0  0  0  0  0  0
  -15.5368  -30.2985   23.7681 H   0  0  0  0  0  0
  -15.8683  -28.0826   22.7072 H   0  0  0  0  0  0
  -24.5898  -30.7074   25.7707 H   0  0  0  0  0  0
  -24.8826  -32.2958   26.4675 H   0  0  0  0  0  0
  -25.7946  -30.9044   27.0240 H   0  0  0  0  0  0
  -26.3014  -29.6674   24.1285 H   0  0  0  0  0  0
  -27.3961  -29.7242   25.4889 H   0  0  0  0  0  0
  -27.8932  -30.4168   23.9648 H   0  0  0  0  0  0
  -27.2639  -33.3681   26.1956 H   0  0  0  0  0  0
  -28.3918  -32.6810   25.0367 H   0  0  0  0  0  0
  -28.0629  -31.8527   26.5512 H   0  0  0  0  0  0
  -28.2555  -38.0090   24.7504 H   0  0  0  0  0  0
  -28.1090  -36.2613   24.6289 H   0  0  0  0  0  0
  -27.2282  -37.1418   25.8865 H   0  0  0  0  0  0
  -20.9490  -29.8755   21.6774 H   0  0  0  0  0  0
  -26.0141  -38.2783   24.1433 H   0  0  0  0  0  0
  -30.6583  -19.3573   23.5779 H   0  0  0  0  0  0
  -29.8837  -21.3447   22.3702 H   0  0  0  0  0  0
  -30.6449  -17.1172   22.6178 H   0  0  0  0  0  0
  -28.9513  -18.7930   19.0066 H   0  0  0  0  0  0
  -27.9809  -23.9367   22.6941 H   0  0  0  0  0  0
  -26.6760  -24.8435   21.9406 H   0  0  0  0  0  0
  -28.0575  -25.6921   22.6234 H   0  0  0  0  0  0
  -30.2818  -23.8486   21.5848 H   0  0  0  0  0  0
  -30.3095  -25.6020   21.5019 H   0  0  0  0  0  0
  -30.5485  -24.6511   20.0416 H   0  0  0  0  0  0
  -28.7772  -21.4397   18.7979 H   0  0  0  0  0  0
  -30.1074  -22.1458   19.5951 H   0  0  0  0  0  0
  -27.2100  -22.7943   20.5473 H   0  0  0  0  0  0
  -27.7896  -23.4142   19.0826 H   0  0  0  0  0  0
  -28.7644  -15.9415   19.9887 H   0  0  0  0  0  0
  1 25  1  0  0  0
  1 30  2  0  0  0
  1 82  1  0  0  0
  2  3  1  0  0  0
  2 25  1  0  0  0
  2 83  1  0  0  0
  2 84  1  0  0  0
  3  4  1  0  0  0
  3 85  1  0  0  0
  3 86  1  0  0  0
  4  5  1  0  0  0
  4 87  1  0  0  0
  4 88  1  0  0  0
  5  6  1  0  0  0
  5 26  1  0  0  0
  5 89  1  0  0  0
  6 25  1  0  0  0
  6 90  1  0  0  0
  6 91  1  0  0  0
  7  8  2  0  0  0
  7 26  1  0  0  0
  7 29  1  0  0  0
  8  9  1  0  0  0
  8 22  1  0  0  0
  9 10  1  0  0  0
  9 27  2  0  0  0
 10 11  2  0  0  0
 10 15  1  0  0  0
 11 12  1  0  0  0
 11 92  1  0  0  0
 12 13  2  0  0  0
 12 93  1  0  0  0
 13 14  1  0  0  0
 13 31  1  0  0  0
 14 15  2  0  0  0
 14 94  1  0  0  0
 15 95  1  0  0  0
 16 17  2  0  0  0
 16 21  1  0  0  0
 16 31  1  0  0  0
 17 18  1  0  0  0
 17 96  1  0  0  0
 18 19  2  0  0  0
 18 97  1  0  0  0
 19 20  1  0  0  0
 19 24  1  0  0  0
 20 21  2  0  0  0
 20 98  1  0  0  0
 21 23  1  0  0  0
 22 28  1  0  0  0
 22 32  2  0  0  0
 26 27  1  0  0  0
 28 99  1  0  0  0
 28100  1  0  0  0
 29101  1  0  0  0
 29102  1  0  0  0
 33 34  1  0  0  0
 33 66  1  0  0  0
 33 70  2  0  0  0
 34 36  1  0  0  0
 34 59  1  0  0  0
 34103  1  0  0  0
 35 44  2  0  0  0
 35 45  1  0  0  0
 35 68  1  0  0  0
 36 56  1  0  0  0
 36104  1  0  0  0
 37 39  1  0  0  0
 37 47  1  0  0  0
 37 66  1  0  0  0
 37105  1  0  0  0
 38 43  2  0  0  0
 38 46  1  0  0  0
 38 47  1  0  0  0
 39 64  1  0  0  0
 39 67  2  0  0  0
 40 52  1  0  0  0
 40 53  2  0  0  0
 40 58  1  0  0  0
 41106  1  0  0  0
 41107  1  0  0  0
 41108  1  0  0  0
 41 48  1  0  0  0
 42 43  1  0  0  0
 42 66  1  0  0  0
 42109  1  0  0  0
 42110  1  0  0  0
 43 44  1  0  0  0
 44111  1  0  0  0
 45 46  2  0  0  0
 45112  1  0  0  0
 46113  1  0  0  0
 47114  1  0  0  0
 47115  1  0  0  0
 48 56  1  0  0  0
 48 65  1  0  0  0
 48116  1  0  0  0
 49 50  1  0  0  0
 49 53  1  0  0  0
 49 64  1  0  0  0
 49117  1  0  0  0
 50 51  1  0  0  0
 50118  1  0  0  0
 50119  1  0  0  0
 51 52  1  0  0  0
 51120  1  0  0  0
 51121  1  0  0  0
 52122  1  0  0  0
 52123  1  0  0  0
 53 54  1  0  0  0
 54 55  2  0  0  0
 54124  1  0  0  0
 55 57  1  0  0  0
 55125  1  0  0  0
 56 69  2  0  0  0
 57 58  2  0  0  0
 57126  1  0  0  0
 58127  1  0  0  0
 59 60  1  0  0  0
 59 61  1  0  0  0
 59 62  1  0  0  0
 60128  1  0  0  0
 60129  1  0  0  0
 60130  1  0  0  0
 61131  1  0  0  0
 61132  1  0  0  0
 61133  1  0  0  0
 62134  1  0  0  0
 62135  1  0  0  0
 62136  1  0  0  0
 63 65  1  0  0  0
 63137  1  0  0  0
 63138  1  0  0  0
 63139  1  0  0  0
 64140  1  0  0  0
 65141  1  0  0  0
 68 81  1  0  0  0
 71 72  2  0  0  0
 71 73  1  0  0  0
 71142  1  0  0  0
 72 75  1  0  0  0
 72143  1  0  0  0
 73 76  2  0  0  0
 73144  1  0  0  0
 74 75  2  0  0  0
 74 76  1  0  0  0
 74145  1  0  0  0
 75 79  1  0  0  0
 76 82  1  0  0  0
 77146  1  0  0  0
 77147  1  0  0  0
 77148  1  0  0  0
 77 81  1  0  0  0
 78 81  1  0  0  0
 78149  1  0  0  0
 78150  1  0  0  0
 78151  1  0  0  0
 79 80  1  0  0  0
 79152  1  0  0  0
 79153  1  0  0  0
 80 81  1  0  0  0
 80154  1  0  0  0
 80155  1  0  0  0
 82156  1  0  0  0
M  ISO  4   1 100  68 101  81 101  82 100
M  END
> <chiral flag>
0

> <version>
0

> <s_m_source_file>
/data/baiqing/PycharmProjects/Reinvent-master-3.2/result/LINK_invent/BTK/process_docking_weight1_custom_product_contain_oxygen_bond_distance_aromatic_linkinvent_7_9_3/rearranged_h_0136.sdf

> <i_m_source_file_index>
7

> <r_mmod_Potential_Energy-OPLS-2005>
714.545654296875

> <r_mmod_Stretch_Energy-OPLS-2005>
306.507934570312

> <r_mmod_Bend_Energy-OPLS-2005>
349.674560546875

> <r_mmod_Torsional_Energy-OPLS-2005>
284.510070800781

> <r_mmod_Improper_Torsional_Energy-OPLS-2005>
11.4113941192627

> <r_mmod_Van_der_Waal_Energy-OPLS-2005>
119.117767333984

> <r_mmod_Electrostatic_Energy-OPLS-2005>
-382.108581542969

> <r_mmod_Solvation_Energy-OPLS-2005>
-200.785720825195

> <b_mmod_Minimization_Converged-OPLS-2005>
0

> <r_mmod_RMS_Derivative-OPLS-2005>
1.15946698188782

$$$$
7
                    3D
 Structure written by MMmdl.
165174  0  0  1  0            999 V2000
  -30.6207  -14.6972   20.4867 C   0  0  0  0  0  0
  -30.4331  -12.4212   19.4905 C   0  0  0  0  0  0
  -29.5212  -12.5148   18.2470 C   0  0  0  0  0  0
  -28.0442  -12.3448   18.6493 C   0  0  0  0  0  0
  -27.6518  -13.2289   19.8648 C   0  0  2  0  0  0
  -28.6879  -13.1316   21.0079 C   0  0  0  0  0  0
  -25.2550  -13.8194   20.5685 C   0  0  0  0  0  0
  -24.1817  -13.0445   20.9146 C   0  0  0  0  0  0
  -24.6400  -11.6920   20.8708 C   0  0  0  0  0  0
  -23.9075  -10.4302   21.0393 C   0  0  0  0  0  0
  -24.3618   -9.4219   21.9176 C   0  0  0  0  0  0
  -23.6283   -8.2260   22.0759 C   0  0  0  0  0  0
  -22.4263   -8.0307   21.3552 C   0  0  0  0  0  0
  -21.9893   -9.0281   20.4652 C   0  0  0  0  0  0
  -22.7241  -10.2149   20.3056 C   0  0  0  0  0  0
  -21.6857   -6.0733   22.5266 C   0  0  0  0  0  0
  -21.4022   -6.5622   23.8205 C   0  0  0  0  0  0
  -21.3662   -5.6775   24.9165 C   0  0  0  0  0  0
  -21.6043   -4.3039   24.7210 C   0  0  0  0  0  0
  -21.8828   -3.8136   23.4325 C   0  0  0  0  0  0
  -21.9194   -4.6959   22.3386 C   0  0  0  0  0  0
  -22.7847  -13.5254   21.1809 C   0  0  0  0  0  0
  -22.1666   -4.2144   21.0962 F   0  0  0  0  0  0
  -21.5623   -3.4526   25.7721 F   0  0  0  0  0  0
  -30.0060  -13.4680   20.4494 N   0  0  0  0  0  0
  -26.2989  -12.9392   20.3319 N   0  0  0  0  0  0
  -25.9334  -11.6533   20.5726 N   0  0  0  0  0  0
  -22.0480  -12.8272   22.0375 N   0  0  0  0  0  0
  -25.4294  -15.1912   20.4130 N   0  0  0  0  0  0
  -31.7641  -14.8334   20.0387 O   0  0  0  0  0  0
  -21.6653   -6.8886   21.4232 O   0  0  0  0  0  0
  -22.3545  -14.5567   20.6660 O   0  0  0  0  0  0
  -24.6303  -31.8552   23.1989 C   0  0  0  0  0  0
  -25.9140  -32.4750   23.8335 C   0  0  1  0  0  0
  -27.2208  -27.2688   20.1319 C   0  0  0  0  0  0
  -25.5942  -33.8545   24.2258 N   0  0  0  0  0  0
  -23.4269  -30.4790   21.5399 C   0  0  2  0  0  0
  -24.8759  -28.9295   20.1080 C   0  0  0  0  0  0
  -22.7500  -29.4597   22.4889 C   0  0  0  0  0  0
  -18.0297  -28.1386   22.8477 C   0  0  0  0  0  0
  -24.1489  -36.7275   23.2636 C   0  0  0  0  0  0
  -25.9725  -30.7709   21.3798 C   0  0  0  0  0  0
  -26.0449  -29.3943   20.7235 C   0  0  0  0  0  0
  -27.2169  -28.5729   20.7312 C   0  0  0  0  0  0
  -26.0368  -26.8869   19.4601 C   0  0  0  0  0  0
  -24.8765  -27.6830   19.4659 C   0  0  0  0  0  0
  -23.6471  -29.8147   20.1548 C   0  0  0  0  0  0
  -25.4107  -36.3052   24.0321 C   0  0  1  0  0  0
  -20.5898  -28.3690   23.1260 C   0  0  2  0  0  0
  -20.6779  -26.9402   22.5403 C   0  0  0  0  0  0
  -19.5756  -26.6377   21.5205 C   0  0  0  0  0  0
  -18.1937  -26.7930   22.1615 C   0  0  0  0  0  0
  -19.1549  -28.8856   23.2868 C   0  0  0  0  0  0
  -18.9473  -30.1458   23.8884 C   0  0  0  0  0  0
  -17.6470  -30.6583   24.0563 C   0  0  0  0  0  0
  -25.9056  -34.9426   23.5093 C   0  0  0  0  0  0
  -16.5363  -29.9075   23.6327 C   0  0  0  0  0  0
  -16.7280  -28.6495   23.0341 C   0  0  0  0  0  0
  -26.4519  -31.6569   25.0719 C   0  0  0  0  0  0
  -25.3755  -31.3742   26.1457 C   0  0  0  0  0  0
  -27.0358  -30.2973   24.6215 C   0  0  0  0  0  0
  -27.6062  -32.4311   25.7499 C   0  0  0  0  0  0
  -27.5572  -37.1785   24.8450 C   0  0  0  0  0  0
  -21.4201  -29.3037   22.3643 N   0  0  0  0  0  0
  -26.4280  -37.3750   23.9419 N   0  0  0  0  0  0
  -24.6954  -31.0538   22.0952 N   0  0  0  0  0  0
  -23.4202  -28.8133   23.2982 O   0  0  0  0  0  0
  -28.3160  -26.3788   20.2219 O   0  0  0  0  0  0
  -26.5614  -34.8900   22.4655 O   0  0  0  0  0  0
  -23.5457  -32.1366   23.7298 O   0  0  0  0  0  0
  -29.0656  -16.9118   18.9342 C   0  0  0  0  0  0
  -29.5334  -18.3725   20.8123 C   0  0  0  0  0  0
  -28.4660  -17.9935   18.2622 C   0  0  0  0  0  0
  -28.9812  -19.5378   20.1319 C   0  0  0  0  0  0
  -28.3722  -19.2808   18.8647 C   0  0  0  0  0  0
  -29.5704  -17.0382   20.2395 C   0  0  0  0  0  0
  -29.1555  -22.3877   20.1056 C   0  0  0  0  0  0
  -29.3806  -24.7277   22.7356 C   0  0  0  0  0  0
  -28.3822  -23.6531   22.3050 C   0  0  0  0  0  0
  -30.2033  -24.3123   21.5148 C   0  0  0  0  0  0
  -28.9082  -23.7865   20.8490 C   0  0  0  0  0  0
  -27.8687  -17.7186   16.8878 C   0  0  0  0  0  0
  -27.5431  -20.3479   18.1526 C   0  0  0  0  0  0
  -28.8910  -20.9784   20.8383 C   0  0  0  0  0  0
  -28.1399  -24.9014   19.9695 C   0  0  0  0  0  0
  -29.9110  -15.7889   20.9486 N   0  0  0  0  0  0
  -29.6382  -22.3446   18.9708 O   0  0  0  0  0  0
  -31.4816  -12.5193   19.2021 H   0  0  0  0  0  0
  -30.3457  -11.4363   19.9516 H   0  0  0  0  0  0
  -29.7989  -11.7533   17.5161 H   0  0  0  0  0  0
  -29.6609  -13.4789   17.7547 H   0  0  0  0  0  0
  -27.8907  -11.2932   18.8932 H   0  0  0  0  0  0
  -27.3957  -12.5590   17.7995 H   0  0  0  0  0  0
  -27.6579  -14.2588   19.5079 H   0  0  0  0  0  0
  -28.7018  -12.1270   21.4328 H   0  0  0  0  0  0
  -28.4207  -13.8009   21.8278 H   0  0  0  0  0  0
  -25.2760   -9.5689   22.4756 H   0  0  0  0  0  0
  -23.9986   -7.4653   22.7474 H   0  0  0  0  0  0
  -21.0832   -8.8813   19.8956 H   0  0  0  0  0  0
  -22.3705  -10.9694   19.6176 H   0  0  0  0  0  0
  -21.2034   -7.6134   23.9701 H   0  0  0  0  0  0
  -21.1467   -6.0506   25.9065 H   0  0  0  0  0  0
  -22.0606   -2.7598   23.2831 H   0  0  0  0  0  0
  -22.4055  -11.9924   22.4777 H   0  0  0  0  0  0
  -21.1125  -13.1360   22.2602 H   0  0  0  0  0  0
  -24.6701  -15.8537   20.5254 H   0  0  0  0  0  0
  -26.2945  -15.6287   20.1227 H   0  0  0  0  0  0
  -26.7211  -32.5407   23.1079 H   0  0  0  0  0  0
  -25.0119  -33.9686   25.0427 H   0  0  0  0  0  0
  -22.7227  -31.3001   21.3929 H   0  0  0  0  0  0
  -23.3742  -35.9615   23.3277 H   0  0  0  0  0  0
  -24.3596  -36.8918   22.2054 H   0  0  0  0  0  0
  -23.7252  -37.6475   23.6678 H   0  0  0  0  0  0
  -26.1136  -31.5324   20.6115 H   0  0  0  0  0  0
  -26.8486  -30.8197   22.0139 H   0  0  0  0  0  0
  -28.1066  -28.9168   21.2398 H   0  0  0  0  0  0
  -25.9742  -25.9517   18.9250 H   0  0  0  0  0  0
  -23.9861  -27.3251   18.9682 H   0  0  0  0  0  0
  -23.7752  -30.5914   19.3995 H   0  0  0  0  0  0
  -22.7666  -29.2490   19.8468 H   0  0  0  0  0  0
  -25.1287  -36.1885   25.0810 H   0  0  0  0  0  0
  -21.0002  -28.3275   24.1373 H   0  0  0  0  0  0
  -20.5661  -26.2300   23.3607 H   0  0  0  0  0  0
  -21.6653  -26.7413   22.1214 H   0  0  0  0  0  0
  -19.6914  -25.6287   21.1233 H   0  0  0  0  0  0
  -19.6693  -27.3180   20.6731 H   0  0  0  0  0  0
  -17.4204  -26.6671   21.4018 H   0  0  0  0  0  0
  -18.0328  -26.0074   22.9009 H   0  0  0  0  0  0
  -19.7954  -30.7280   24.2232 H   0  0  0  0  0  0
  -17.5027  -31.6258   24.5176 H   0  0  0  0  0  0
  -15.5363  -30.2975   23.7659 H   0  0  0  0  0  0
  -15.8681  -28.0815   22.7054 H   0  0  0  0  0  0
  -24.5919  -30.7087   25.7823 H   0  0  0  0  0  0
  -24.8971  -32.2929   26.4857 H   0  0  0  0  0  0
  -25.8095  -30.8958   27.0247 H   0  0  0  0  0  0
  -26.2945  -29.6713   24.1237 H   0  0  0  0  0  0
  -27.4028  -29.7241   25.4741 H   0  0  0  0  0  0
  -27.8825  -30.4224   23.9461 H   0  0  0  0  0  0
  -27.2653  -33.3604   26.2067 H   0  0  0  0  0  0
  -28.3883  -32.6878   25.0344 H   0  0  0  0  0  0
  -28.0714  -31.8447   26.5433 H   0  0  0  0  0  0
  -28.2561  -38.0108   24.7528 H   0  0  0  0  0  0
  -28.1103  -36.2645   24.6232 H   0  0  0  0  0  0
  -27.2316  -37.1379   25.8859 H   0  0  0  0  0  0
  -20.9375  -29.8783   21.6881 H   0  0  0  0  0  0
  -26.0142  -38.2815   24.1445 H   0  0  0  0  0  0
  -29.0644  -15.9403   18.4593 H   0  0  0  0  0  0
  -29.8975  -18.5009   21.8219 H   0  0  0  0  0  0
  -29.8647  -24.5559   23.6978 H   0  0  0  0  0  0
  -28.9764  -25.7397   22.6664 H   0  0  0  0  0  0
  -27.3352  -23.9267   22.4408 H   0  0  0  0  0  0
  -28.6013  -22.7038   22.7954 H   0  0  0  0  0  0
  -30.9320  -23.5330   21.7496 H   0  0  0  0  0  0
  -30.6787  -25.1414   20.9892 H   0  0  0  0  0  0
  -28.1647  -16.7408   16.5039 H   0  0  0  0  0  0
  -28.1953  -18.4658   16.1656 H   0  0  0  0  0  0
  -26.7800  -17.7325   16.9343 H   0  0  0  0  0  0
  -26.7000  -19.9211   17.6107 H   0  0  0  0  0  0
  -28.1531  -20.8950   17.4349 H   0  0  0  0  0  0
  -27.0959  -21.0550   18.8480 H   0  0  0  0  0  0
  -29.5712  -20.9506   21.6889 H   0  0  0  0  0  0
  -27.8912  -21.0422   21.2661 H   0  0  0  0  0  0
  -27.0887  -24.6507   20.0961 H   0  0  0  0  0  0
  -28.3455  -24.7445   18.9102 H   0  0  0  0  0  0
  -29.2121  -15.5229   21.6274 H   0  0  0  0  0  0
  1 25  1  0  0  0
  1 30  2  0  0  0
  1 86  1  0  0  0
  2  3  1  0  0  0
  2 25  1  0  0  0
  2 88  1  0  0  0
  2 89  1  0  0  0
  3  4  1  0  0  0
  3 90  1  0  0  0
  3 91  1  0  0  0
  4  5  1  0  0  0
  4 92  1  0  0  0
  4 93  1  0  0  0
  5  6  1  0  0  0
  5 26  1  0  0  0
  5 94  1  0  0  0
  6 25  1  0  0  0
  6 95  1  0  0  0
  6 96  1  0  0  0
  7  8  2  0  0  0
  7 26  1  0  0  0
  7 29  1  0  0  0
  8  9  1  0  0  0
  8 22  1  0  0  0
  9 10  1  0  0  0
  9 27  2  0  0  0
 10 11  2  0  0  0
 10 15  1  0  0  0
 11 12  1  0  0  0
 11 97  1  0  0  0
 12 13  2  0  0  0
 12 98  1  0  0  0
 13 14  1  0  0  0
 13 31  1  0  0  0
 14 15  2  0  0  0
 14 99  1  0  0  0
 15100  1  0  0  0
 16 17  2  0  0  0
 16 21  1  0  0  0
 16 31  1  0  0  0
 17 18  1  0  0  0
 17101  1  0  0  0
 18 19  2  0  0  0
 18102  1  0  0  0
 19 20  1  0  0  0
 19 24  1  0  0  0
 20 21  2  0  0  0
 20103  1  0  0  0
 21 23  1  0  0  0
 22 28  1  0  0  0
 22 32  2  0  0  0
 26 27  1  0  0  0
 28104  1  0  0  0
 28105  1  0  0  0
 29106  1  0  0  0
 29107  1  0  0  0
 33 34  1  0  0  0
 33 66  1  0  0  0
 33 70  2  0  0  0
 34 36  1  0  0  0
 34 59  1  0  0  0
 34108  1  0  0  0
 35 44  2  0  0  0
 35 45  1  0  0  0
 35 68  1  0  0  0
 36 56  1  0  0  0
 36109  1  0  0  0
 37 39  1  0  0  0
 37 47  1  0  0  0
 37 66  1  0  0  0
 37110  1  0  0  0
 38 43  2  0  0  0
 38 46  1  0  0  0
 38 47  1  0  0  0
 39 64  1  0  0  0
 39 67  2  0  0  0
 40 52  1  0  0  0
 40 53  2  0  0  0
 40 58  1  0  0  0
 41111  1  0  0  0
 41112  1  0  0  0
 41113  1  0  0  0
 41 48  1  0  0  0
 42 43  1  0  0  0
 42 66  1  0  0  0
 42114  1  0  0  0
 42115  1  0  0  0
 43 44  1  0  0  0
 44116  1  0  0  0
 45 46  2  0  0  0
 45117  1  0  0  0
 46118  1  0  0  0
 47119  1  0  0  0
 47120  1  0  0  0
 48 56  1  0  0  0
 48 65  1  0  0  0
 48121  1  0  0  0
 49 50  1  0  0  0
 49 53  1  0  0  0
 49 64  1  0  0  0
 49122  1  0  0  0
 50 51  1  0  0  0
 50123  1  0  0  0
 50124  1  0  0  0
 51 52  1  0  0  0
 51125  1  0  0  0
 51126  1  0  0  0
 52127  1  0  0  0
 52128  1  0  0  0
 53 54  1  0  0  0
 54 55  2  0  0  0
 54129  1  0  0  0
 55 57  1  0  0  0
 55130  1  0  0  0
 56 69  2  0  0  0
 57 58  2  0  0  0
 57131  1  0  0  0
 58132  1  0  0  0
 59 60  1  0  0  0
 59 61  1  0  0  0
 59 62  1  0  0  0
 60133  1  0  0  0
 60134  1  0  0  0
 60135  1  0  0  0
 61136  1  0  0  0
 61137  1  0  0  0
 61138  1  0  0  0
 62139  1  0  0  0
 62140  1  0  0  0
 62141  1  0  0  0
 63 65  1  0  0  0
 63142  1  0  0  0
 63143  1  0  0  0
 63144  1  0  0  0
 64145  1  0  0  0
 65146  1  0  0  0
 68 85  1  0  0  0
 71 73  2  0  0  0
 71 76  1  0  0  0
 71147  1  0  0  0
 72 74  1  0  0  0
 72 76  2  0  0  0
 72148  1  0  0  0
 73 75  1  0  0  0
 73 82  1  0  0  0
 74 75  2  0  0  0
 74 84  1  0  0  0
 75 83  1  0  0  0
 76 86  1  0  0  0
 77 81  1  0  0  0
 77 84  1  0  0  0
 77 87  2  0  0  0
 78 79  1  0  0  0
 78 80  1  0  0  0
 78149  1  0  0  0
 78150  1  0  0  0
 79 81  1  0  0  0
 79151  1  0  0  0
 79152  1  0  0  0
 80 81  1  0  0  0
 80153  1  0  0  0
 80154  1  0  0  0
 81 85  1  0  0  0
 82155  1  0  0  0
 82156  1  0  0  0
 82157  1  0  0  0
 83158  1  0  0  0
 83159  1  0  0  0
 83160  1  0  0  0
 84161  1  0  0  0
 84162  1  0  0  0
 85163  1  0  0  0
 85164  1  0  0  0
 86165  1  0  0  0
M  ISO  4   1 100  68 101  85 101  86 100
M  END
> <chiral flag>
0

> <version>
0

> <s_m_source_file>
/data/baiqing/PycharmProjects/Reinvent-master-3.2/result/LINK_invent/BTK/process_docking_weight1_custom_product_contain_oxygen_bond_distance_aromatic_linkinvent_7_9_3/rearranged_h_0136.sdf

> <i_m_source_file_index>
8

> <r_mmod_Potential_Energy-OPLS-2005>
282.526397705078

> <r_mmod_Stretch_Energy-OPLS-2005>
130.71435546875

> <r_mmod_Bend_Energy-OPLS-2005>
185.204071044922

> <r_mmod_Torsional_Energy-OPLS-2005>
295.161163330078

> <r_mmod_Improper_Torsional_Energy-OPLS-2005>
6.92159366607666

> <r_mmod_Van_der_Waal_Energy-OPLS-2005>
147.143859863281

> <r_mmod_Electrostatic_Energy-OPLS-2005>
-333.673126220703

> <r_mmod_Solvation_Energy-OPLS-2005>
-222.552154541016

> <b_mmod_Minimization_Converged-OPLS-2005>
0

> <r_mmod_RMS_Derivative-OPLS-2005>
2.56293439865112

$$$$
8
                    3D
 Structure written by MMmdl.
164172  0  0  1  0            999 V2000
  -30.6863  -14.5171   20.5655 C   0  0  0  0  0  0
  -30.4240  -12.3321   19.4301 C   0  0  0  0  0  0
  -29.5001  -12.5102   18.2080 C   0  0  0  0  0  0
  -28.0203  -12.3665   18.6180 C   0  0  0  0  0  0
  -27.6577  -13.2124   19.8673 C   0  0  2  0  0  0
  -28.6997  -13.0196   20.9927 C   0  0  0  0  0  0
  -25.2577  -13.8172   20.5677 C   0  0  0  0  0  0
  -24.1847  -13.0444   20.9192 C   0  0  0  0  0  0
  -24.6410  -11.6909   20.8740 C   0  0  0  0  0  0
  -23.9080  -10.4296   21.0414 C   0  0  0  0  0  0
  -24.3629   -9.4208   21.9192 C   0  0  0  0  0  0
  -23.6298   -8.2247   22.0764 C   0  0  0  0  0  0
  -22.4280   -8.0286   21.3554 C   0  0  0  0  0  0
  -21.9920   -9.0262   20.4658 C   0  0  0  0  0  0
  -22.7252  -10.2138   20.3069 C   0  0  0  0  0  0
  -21.6857   -6.0742   22.5289 C   0  0  0  0  0  0
  -21.4008   -6.5644   23.8219 C   0  0  0  0  0  0
  -21.3662   -5.6797   24.9182 C   0  0  0  0  0  0
  -21.6044   -4.3060   24.7228 C   0  0  0  0  0  0
  -21.8816   -3.8155   23.4351 C   0  0  0  0  0  0
  -21.9194   -4.6972   22.3410 C   0  0  0  0  0  0
  -22.7863  -13.5229   21.1850 C   0  0  0  0  0  0
  -22.1664   -4.2165   21.0983 F   0  0  0  0  0  0
  -21.5635   -3.4540   25.7740 F   0  0  0  0  0  0
  -30.0226  -13.3340   20.4334 N   0  0  0  0  0  0
  -26.3014  -12.9352   20.3331 N   0  0  0  0  0  0
  -25.9338  -11.6504   20.5753 N   0  0  0  0  0  0
  -22.0491  -12.8236   22.0392 N   0  0  0  0  0  0
  -25.4282  -15.1904   20.4072 N   0  0  0  0  0  0
  -31.8332  -14.6714   20.1347 O   0  0  0  0  0  0
  -21.6640   -6.8889   21.4250 O   0  0  0  0  0  0
  -22.3557  -14.5536   20.6691 O   0  0  0  0  0  0
  -24.6131  -31.8674   23.2074 C   0  0  0  0  0  0
  -25.9028  -32.4815   23.8368 C   0  0  1  0  0  0
  -27.2380  -27.4242   20.1314 C   0  0  0  0  0  0
  -25.5873  -33.8612   24.2296 N   0  0  0  0  0  0
  -23.4024  -30.4891   21.5477 C   0  0  2  0  0  0
  -24.8542  -28.9524   20.1185 C   0  0  0  0  0  0
  -22.7402  -29.4653   22.4972 C   0  0  0  0  0  0
  -18.0276  -28.1373   22.8494 C   0  0  0  0  0  0
  -24.1487  -36.7321   23.2640 C   0  0  0  0  0  0
  -25.9315  -30.8363   21.3615 C   0  0  0  0  0  0
  -26.0125  -29.4676   20.7136 C   0  0  0  0  0  0
  -27.2111  -28.7157   20.7116 C   0  0  0  0  0  0
  -26.0690  -26.9308   19.5183 C   0  0  0  0  0  0
  -24.8770  -27.6816   19.5159 C   0  0  0  0  0  0
  -23.6134  -29.8176   20.1636 C   0  0  0  0  0  0
  -25.4107  -36.3111   24.0333 C   0  0  1  0  0  0
  -20.5863  -28.3659   23.1321 C   0  0  2  0  0  0
  -20.6766  -26.9391   22.5422 C   0  0  0  0  0  0
  -19.5748  -26.6378   21.5218 C   0  0  0  0  0  0
  -18.1923  -26.7921   22.1625 C   0  0  0  0  0  0
  -19.1521  -28.8833   23.2908 C   0  0  0  0  0  0
  -18.9451  -30.1441   23.8915 C   0  0  0  0  0  0
  -17.6455  -30.6580   24.0568 C   0  0  0  0  0  0
  -25.9037  -34.9473   23.5114 C   0  0  0  0  0  0
  -16.5348  -29.9083   23.6325 C   0  0  0  0  0  0
  -16.7266  -28.6502   23.0342 C   0  0  0  0  0  0
  -26.4453  -31.6599   25.0701 C   0  0  0  0  0  0
  -25.3713  -31.3740   26.1451 C   0  0  0  0  0  0
  -27.0275  -30.3031   24.6098 C   0  0  0  0  0  0
  -27.6003  -32.4333   25.7479 C   0  0  0  0  0  0
  -27.5579  -37.1816   24.8457 C   0  0  0  0  0  0
  -21.4132  -29.3027   22.3725 N   0  0  0  0  0  0
  -26.4294  -37.3789   23.9401 N   0  0  0  0  0  0
  -24.6667  -31.0784   22.0971 N   0  0  0  0  0  0
  -23.4177  -28.8212   23.3023 O   0  0  0  0  0  0
  -28.3592  -26.6146   20.1076 O   0  0  0  0  0  0
  -26.5620  -34.8925   22.4691 O   0  0  0  0  0  0
  -23.5325  -32.1413   23.7478 O   0  0  0  0  0  0
  -32.0571  -18.5038   22.0645 C   0  0  0  0  0  0
  -31.2419  -19.5910   21.7004 C   0  0  0  0  0  0
  -31.6384  -17.1823   21.8308 C   0  0  0  0  0  0
  -29.5496  -18.0305   20.9100 C   0  0  0  0  0  0
  -29.9756  -19.3802   21.1085 C   0  0  0  0  0  0
  -30.3844  -16.9205   21.2362 C   0  0  0  0  0  0
  -28.8089  -23.2719   20.7719 C   0  0  0  0  0  0
  -28.9210  -20.5152   19.1221 C   0  0  0  0  0  0
  -27.6538  -25.6982   22.3444 C   0  0  0  0  0  0
  -29.8287  -26.8894   21.9839 C   0  0  0  0  0  0
  -29.6302  -21.9922   21.0968 C   0  0  0  0  0  0
  -29.5533  -24.6229   20.9553 C   0  0  0  0  0  0
  -29.0988  -20.5796   20.6511 C   0  0  2  0  0  0
  -28.7936  -25.9521   21.3247 C   0  0  0  0  0  0
  -29.9502  -15.5655   21.0177 N   0  0  0  0  0  0
  -27.6356  -23.2134   20.3929 O   0  0  0  0  0  0
  -31.4710  -12.4307   19.1362 H   0  0  0  0  0  0
  -30.3232  -11.3262   19.8404 H   0  0  0  0  0  0
  -29.7445  -11.7806   17.4348 H   0  0  0  0  0  0
  -29.6675  -13.4931   17.7639 H   0  0  0  0  0  0
  -27.8336  -11.3116   18.8200 H   0  0  0  0  0  0
  -27.3737  -12.6364   17.7825 H   0  0  0  0  0  0
  -27.6918  -14.2559   19.5525 H   0  0  0  0  0  0
  -28.6893  -11.9896   21.3516 H   0  0  0  0  0  0
  -28.4612  -13.6364   21.8606 H   0  0  0  0  0  0
  -25.2778   -9.5678   22.4764 H   0  0  0  0  0  0
  -24.0016   -7.4633   22.7476 H   0  0  0  0  0  0
  -21.0855   -8.8772   19.8951 H   0  0  0  0  0  0
  -22.3719  -10.9671   19.6172 H   0  0  0  0  0  0
  -21.1989   -7.6149   23.9723 H   0  0  0  0  0  0
  -21.1487   -6.0532   25.9087 H   0  0  0  0  0  0
  -22.0594   -2.7618   23.2848 H   0  0  0  0  0  0
  -22.4082  -11.9901   22.4808 H   0  0  0  0  0  0
  -21.1107  -13.1271   22.2560 H   0  0  0  0  0  0
  -24.6587  -15.8427   20.5093 H   0  0  0  0  0  0
  -26.2743  -15.6275   20.0649 H   0  0  0  0  0  0
  -26.7098  -32.5556   23.1132 H   0  0  0  0  0  0
  -24.9961  -33.9754   25.0403 H   0  0  0  0  0  0
  -22.6906  -31.3049   21.4056 H   0  0  0  0  0  0
  -23.3737  -35.9667   23.3313 H   0  0  0  0  0  0
  -24.3581  -36.8937   22.2054 H   0  0  0  0  0  0
  -23.7255  -37.6529   23.6662 H   0  0  0  0  0  0
  -26.0444  -31.6040   20.5942 H   0  0  0  0  0  0
  -26.8170  -30.8889   21.9824 H   0  0  0  0  0  0
  -28.1027  -29.1312   21.1546 H   0  0  0  0  0  0
  -26.0811  -25.9487   19.0664 H   0  0  0  0  0  0
  -23.9870  -27.2744   19.0568 H   0  0  0  0  0  0
  -23.7182  -30.5904   19.4007 H   0  0  0  0  0  0
  -22.7395  -29.2326   19.8703 H   0  0  0  0  0  0
  -25.1291  -36.1959   25.0825 H   0  0  0  0  0  0
  -20.9956  -28.3227   24.1444 H   0  0  0  0  0  0
  -20.5672  -26.2261   23.3609 H   0  0  0  0  0  0
  -21.6637  -26.7440   22.1215 H   0  0  0  0  0  0
  -19.6905  -25.6291   21.1241 H   0  0  0  0  0  0
  -19.6690  -27.3194   20.6752 H   0  0  0  0  0  0
  -17.4192  -26.6679   21.4024 H   0  0  0  0  0  0
  -18.0319  -26.0060   22.9015 H   0  0  0  0  0  0
  -19.7924  -30.7257   24.2282 H   0  0  0  0  0  0
  -17.5009  -31.6262   24.5159 H   0  0  0  0  0  0
  -15.5347  -30.2994   23.7633 H   0  0  0  0  0  0
  -15.8669  -28.0836   22.7032 H   0  0  0  0  0  0
  -24.5812  -30.7183   25.7781 H   0  0  0  0  0  0
  -24.9005  -32.2930   26.4954 H   0  0  0  0  0  0
  -25.8036  -30.8826   27.0176 H   0  0  0  0  0  0
  -26.2831  -29.6815   24.1111 H   0  0  0  0  0  0
  -27.3977  -29.7244   25.4570 H   0  0  0  0  0  0
  -27.8694  -30.4323   23.9292 H   0  0  0  0  0  0
  -27.2563  -33.3591   26.2097 H   0  0  0  0  0  0
  -28.3785  -32.6974   25.0308 H   0  0  0  0  0  0
  -28.0695  -31.8445   26.5368 H   0  0  0  0  0  0
  -28.2591  -38.0118   24.7493 H   0  0  0  0  0  0
  -28.1078  -36.2645   24.6286 H   0  0  0  0  0  0
  -27.2307  -37.1475   25.8864 H   0  0  0  0  0  0
  -20.9272  -29.8738   21.6955 H   0  0  0  0  0  0
  -26.0181  -38.2870   24.1393 H   0  0  0  0  0  0
  -33.0183  -18.6862   22.5242 H   0  0  0  0  0  0
  -31.6206  -20.5857   21.8862 H   0  0  0  0  0  0
  -32.2914  -16.3725   22.1231 H   0  0  0  0  0  0
  -28.5791  -17.8532   20.4685 H   0  0  0  0  0  0
  -28.5319  -19.5481   18.8051 H   0  0  0  0  0  0
  -29.8670  -20.6751   18.6050 H   0  0  0  0  0  0
  -28.2213  -21.2685   18.7641 H   0  0  0  0  0  0
  -27.2598  -26.6251   22.7620 H   0  0  0  0  0  0
  -28.0113  -25.1013   23.1843 H   0  0  0  0  0  0
  -26.8148  -25.1667   21.8958 H   0  0  0  0  0  0
  -30.2571  -26.4388   22.8807 H   0  0  0  0  0  0
  -29.4015  -27.8395   22.2981 H   0  0  0  0  0  0
  -30.6546  -27.1050   21.3051 H   0  0  0  0  0  0
  -29.7599  -21.9911   22.1788 H   0  0  0  0  0  0
  -30.6204  -22.1454   20.6673 H   0  0  0  0  0  0
  -30.1558  -24.7959   20.0634 H   0  0  0  0  0  0
  -30.2755  -24.4242   21.7462 H   0  0  0  0  0  0
  -28.1205  -20.4356   21.1135 H   0  0  0  0  0  0
  -28.9706  -15.3763   21.1646 H   0  0  0  0  0  0
  1 25  1  0  0  0
  1 30  2  0  0  0
  1 85  1  0  0  0
  2  3  1  0  0  0
  2 25  1  0  0  0
  2 87  1  0  0  0
  2 88  1  0  0  0
  3  4  1  0  0  0
  3 89  1  0  0  0
  3 90  1  0  0  0
  4  5  1  0  0  0
  4 91  1  0  0  0
  4 92  1  0  0  0
  5  6  1  0  0  0
  5 26  1  0  0  0
  5 93  1  0  0  0
  6 25  1  0  0  0
  6 94  1  0  0  0
  6 95  1  0  0  0
  7  8  2  0  0  0
  7 26  1  0  0  0
  7 29  1  0  0  0
  8  9  1  0  0  0
  8 22  1  0  0  0
  9 10  1  0  0  0
  9 27  2  0  0  0
 10 11  2  0  0  0
 10 15  1  0  0  0
 11 12  1  0  0  0
 11 96  1  0  0  0
 12 13  2  0  0  0
 12 97  1  0  0  0
 13 14  1  0  0  0
 13 31  1  0  0  0
 14 15  2  0  0  0
 14 98  1  0  0  0
 15 99  1  0  0  0
 16 17  2  0  0  0
 16 21  1  0  0  0
 16 31  1  0  0  0
 17 18  1  0  0  0
 17100  1  0  0  0
 18 19  2  0  0  0
 18101  1  0  0  0
 19 20  1  0  0  0
 19 24  1  0  0  0
 20 21  2  0  0  0
 20102  1  0  0  0
 21 23  1  0  0  0
 22 28  1  0  0  0
 22 32  2  0  0  0
 26 27  1  0  0  0
 28103  1  0  0  0
 28104  1  0  0  0
 29105  1  0  0  0
 29106  1  0  0  0
 33 34  1  0  0  0
 33 66  1  0  0  0
 33 70  2  0  0  0
 34 36  1  0  0  0
 34 59  1  0  0  0
 34107  1  0  0  0
 35 44  2  0  0  0
 35 45  1  0  0  0
 35 68  1  0  0  0
 36 56  1  0  0  0
 36108  1  0  0  0
 37 39  1  0  0  0
 37 47  1  0  0  0
 37 66  1  0  0  0
 37109  1  0  0  0
 38 43  2  0  0  0
 38 46  1  0  0  0
 38 47  1  0  0  0
 39 64  1  0  0  0
 39 67  2  0  0  0
 40 52  1  0  0  0
 40 53  2  0  0  0
 40 58  1  0  0  0
 41110  1  0  0  0
 41111  1  0  0  0
 41112  1  0  0  0
 41 48  1  0  0  0
 42 43  1  0  0  0
 42 66  1  0  0  0
 42113  1  0  0  0
 42114  1  0  0  0
 43 44  1  0  0  0
 44115  1  0  0  0
 45 46  2  0  0  0
 45116  1  0  0  0
 46117  1  0  0  0
 47118  1  0  0  0
 47119  1  0  0  0
 48 56  1  0  0  0
 48 65  1  0  0  0
 48120  1  0  0  0
 49 50  1  0  0  0
 49 53  1  0  0  0
 49 64  1  0  0  0
 49121  1  0  0  0
 50 51  1  0  0  0
 50122  1  0  0  0
 50123  1  0  0  0
 51 52  1  0  0  0
 51124  1  0  0  0
 51125  1  0  0  0
 52126  1  0  0  0
 52127  1  0  0  0
 53 54  1  0  0  0
 54 55  2  0  0  0
 54128  1  0  0  0
 55 57  1  0  0  0
 55129  1  0  0  0
 56 69  2  0  0  0
 57 58  2  0  0  0
 57130  1  0  0  0
 58131  1  0  0  0
 59 60  1  0  0  0
 59 61  1  0  0  0
 59 62  1  0  0  0
 60132  1  0  0  0
 60133  1  0  0  0
 60134  1  0  0  0
 61135  1  0  0  0
 61136  1  0  0  0
 61137  1  0  0  0
 62138  1  0  0  0
 62139  1  0  0  0
 62140  1  0  0  0
 63 65  1  0  0  0
 63141  1  0  0  0
 63142  1  0  0  0
 63143  1  0  0  0
 64144  1  0  0  0
 65145  1  0  0  0
 68 84  1  0  0  0
 71 72  2  0  0  0
 71 73  1  0  0  0
 71146  1  0  0  0
 72 75  1  0  0  0
 72147  1  0  0  0
 73 76  2  0  0  0
 73148  1  0  0  0
 74 75  2  0  0  0
 74 76  1  0  0  0
 74149  1  0  0  0
 75 83  1  0  0  0
 76 85  1  0  0  0
 77 81  1  0  0  0
 77 82  1  0  0  0
 77 86  2  0  0  0
 78150  1  0  0  0
 78151  1  0  0  0
 78152  1  0  0  0
 78 83  1  0  0  0
 79153  1  0  0  0
 79154  1  0  0  0
 79155  1  0  0  0
 79 84  1  0  0  0
 80 84  1  0  0  0
 80156  1  0  0  0
 80157  1  0  0  0
 80158  1  0  0  0
 81 83  1  0  0  0
 81159  1  0  0  0
 81160  1  0  0  0
 82 84  1  0  0  0
 82161  1  0  0  0
 82162  1  0  0  0
 83163  1  0  0  0
 85164  1  0  0  0
M  ISO  4   1 100  68 101  84 101  85 100
M  END
> <chiral flag>
0

> <version>
0

> <s_m_source_file>
/data/baiqing/PycharmProjects/Reinvent-master-3.2/result/LINK_invent/BTK/process_docking_weight1_custom_product_contain_oxygen_bond_distance_aromatic_linkinvent_7_9_3/rearranged_h_0136.sdf

> <i_m_source_file_index>
9

> <r_mmod_Potential_Energy-OPLS-2005>
-17.3952178955078

> <r_mmod_Stretch_Energy-OPLS-2005>
50.5051422119141

> <r_mmod_Bend_Energy-OPLS-2005>
122.521087646484

> <r_mmod_Torsional_Energy-OPLS-2005>
218.957656860352

> <r_mmod_Improper_Torsional_Energy-OPLS-2005>
4.29047393798828

> <r_mmod_Van_der_Waal_Energy-OPLS-2005>
151.906494140625

> <r_mmod_Electrostatic_Energy-OPLS-2005>
-371.253326416016

> <r_mmod_Solvation_Energy-OPLS-2005>
-211.919723510742

> <b_mmod_Minimization_Converged-OPLS-2005>
0

> <r_mmod_RMS_Derivative-OPLS-2005>
2.11289739608765

$$$$
9
                    3D
 Structure written by MMmdl.
167176  0  0  1  0            999 V2000
  -28.8130  -15.9239   20.6939 C   0  0  0  0  0  0
  -30.0959  -13.5600   19.7096 C   0  0  0  0  0  0
  -29.4824  -12.8147   18.4579 C   0  0  0  0  0  0
  -28.1016  -12.2228   18.7969 C   0  0  0  0  0  0
  -27.4193  -13.1752   19.7881 C   0  0  2  0  0  0
  -28.2312  -13.4385   21.0362 C   0  0  0  0  0  0
  -25.1348  -13.7648   20.5191 C   0  0  0  0  0  0
  -24.0972  -13.0015   20.9294 C   0  0  0  0  0  0
  -24.5659  -11.6530   20.8843 C   0  0  0  0  0  0
  -23.8610  -10.4025   21.0600 C   0  0  0  0  0  0
  -24.3390   -9.4025   21.9315 C   0  0  0  0  0  0
  -23.6148   -8.2044   22.0815 C   0  0  0  0  0  0
  -22.4132   -8.0115   21.3589 C   0  0  0  0  0  0
  -21.9692   -9.0029   20.4688 C   0  0  0  0  0  0
  -22.6906  -10.1916   20.3139 C   0  0  0  0  0  0
  -21.6787   -6.0664   22.5297 C   0  0  0  0  0  0
  -21.3969   -6.5607   23.8219 C   0  0  0  0  0  0
  -21.3608   -5.6778   24.9192 C   0  0  0  0  0  0
  -21.6029   -4.3041   24.7241 C   0  0  0  0  0  0
  -21.8821   -3.8115   23.4367 C   0  0  0  0  0  0
  -21.9164   -4.6913   22.3416 C   0  0  0  0  0  0
  -22.7174  -13.4982   21.2098 C   0  0  0  0  0  0
  -22.1664   -4.2112   21.0996 F   0  0  0  0  0  0
  -21.5620   -3.4536   25.7761 F   0  0  0  0  0  0
  -29.0607  -14.4553   20.5048 N   0  0  0  0  0  0
  -26.1305  -12.8608   20.2310 N   0  0  0  0  0  0
  -25.8354  -11.5918   20.5381 N   0  0  0  0  0  0
  -21.9883  -12.8090   22.0739 N   0  0  0  0  0  0
  -25.2905  -15.1318   20.3271 N   0  0  0  0  0  0
  -30.0605  -16.2362   20.5550 O   0  0  0  0  0  0
  -21.6517   -6.8745   21.4249 O   0  0  0  0  0  0
  -22.3062  -14.5371   20.6936 O   0  0  0  0  0  0
  -24.6703  -31.9501   23.2266 C   0  0  0  0  0  0
  -25.9539  -32.5158   23.8699 C   0  0  1  0  0  0
  -25.9306  -27.2440   20.3589 C   0  0  0  0  0  0
  -25.6441  -33.8902   24.2654 N   0  0  0  0  0  0
  -23.5058  -30.6505   21.5197 C   0  0  2  0  0  0
  -24.9295  -29.4492   19.7079 C   0  0  0  0  0  0
  -23.0662  -29.5590   22.5195 C   0  0  0  0  0  0
  -19.8756  -26.6845   22.5286 C   0  0  0  0  0  0
  -24.1501  -36.7304   23.2603 C   0  0  0  0  0  0
  -26.0309  -30.8580   21.4346 C   0  0  0  0  0  0
  -25.9518  -29.5640   20.6410 C   0  0  0  0  0  0
  -26.6511  -28.3722   20.8927 C   0  0  0  0  0  0
  -25.8053  -27.2723   19.0014 C   0  0  0  0  0  0
  -25.0238  -28.4050   18.7317 C   0  0  0  0  0  0
  -23.7176  -30.2945   20.0028 C   0  0  0  0  0  0
  -25.4140  -36.3218   24.0306 C   0  0  1  0  0  0
  -21.2444  -28.6038   23.8265 C   0  0  2  0  0  0
  -21.7521  -27.2290   24.1118 C   0  0  0  0  0  0
  -22.0425  -26.4318   22.9352 C   0  0  0  0  0  0
  -20.9859  -25.9014   22.3210 C   0  0  0  0  0  0
  -20.0482  -28.2339   23.3317 C   0  0  0  0  0  0
  -18.9765  -29.3600   23.4992 C   0  0  0  0  0  0
  -17.5441  -29.3708   23.0263 C   0  0  0  0  0  0
  -25.9121  -34.9636   23.5138 C   0  0  0  0  0  0
  -16.8049  -28.2387   22.2112 C   0  0  0  0  0  0
  -17.4763  -26.7166   21.7099 C   0  0  0  0  0  0
  -26.4590  -31.6716   25.0973 C   0  0  0  0  0  0
  -25.3665  -31.3868   26.1530 C   0  0  0  0  0  0
  -27.0364  -30.3125   24.6389 C   0  0  0  0  0  0
  -27.6154  -32.4325   25.7847 C   0  0  0  0  0  0
  -27.5609  -37.1877   24.8465 C   0  0  0  0  0  0
  -21.7968  -29.4848   22.8289 N   0  0  0  0  0  0
  -26.4339  -37.3871   23.9391 N   0  0  0  0  0  0
  -24.7476  -31.2190   22.0844 N   0  0  0  0  0  0
  -23.8764  -28.9003   23.1612 O   0  0  0  0  0  0
  -24.5302  -27.1019   20.8106 O   0  0  0  0  0  0
  -26.5450  -34.9019   22.4566 O   0  0  0  0  0  0
  -23.5857  -32.2163   23.7644 O   0  0  0  0  0  0
  -19.2624  -26.6817   20.1826 C   0  0  0  0  0  0
  -18.1432  -26.9162   23.7036 C   0  0  0  0  0  0
  -23.6436  -21.7323   19.7286 C   0  0  0  0  0  0
  -19.2193  -25.0631   20.6365 C   0  0  0  0  0  0
  -18.4174  -25.0898   23.3841 C   0  0  0  0  0  0
  -22.4630  -22.2915   20.3731 C   0  0  0  0  0  0
  -23.0191  -20.5684   21.9167 C   0  0  0  0  0  0
  -19.0751  -28.0851   21.1930 C   0  0  0  0  0  0
  -24.5598  -20.6596   20.1065 C   0  0  0  0  0  0
  -24.4571  -19.7734   21.2353 C   0  0  0  0  0  0
  -19.2353  -24.1813   22.0426 C   0  0  0  0  0  0
  -21.8759  -21.8839   21.5997 C   0  0  0  0  0  0
  -25.8018  -20.5518   19.2384 C   0  0  0  0  0  0
  -22.6468  -26.1609   19.2550 C   0  0  0  0  0  0
  -20.9264  -28.2587   20.5597 C   0  0  0  0  0  0
  -26.0487  -18.3459   21.4844 C   0  0  0  0  0  0
  -22.7605  -27.3691   20.2306 C   0  0  1  0  0  0
  -27.3465  -16.8528   20.9126 N   0  0  0  0  0  0
  -20.4021  -22.7955   22.1326 O   0  0  0  0  0  0
  -30.9159  -14.1883   19.3601 H   0  0  0  0  0  0
  -30.5745  -12.8475   20.3827 H   0  0  0  0  0  0
  -30.1710  -12.0499   18.0895 H   0  0  0  0  0  0
  -29.3608  -13.5377   17.6480 H   0  0  0  0  0  0
  -28.2338  -11.2415   19.2617 H   0  0  0  0  0  0
  -27.4923  -12.0713   17.9036 H   0  0  0  0  0  0
  -27.2698  -14.0712   19.1828 H   0  0  0  0  0  0
  -28.7237  -12.5500   21.4304 H   0  0  0  0  0  0
  -27.6425  -13.8480   21.8573 H   0  0  0  0  0  0
  -25.2555   -9.5539   22.4871 H   0  0  0  0  0  0
  -23.9879   -7.4406   22.7483 H   0  0  0  0  0  0
  -21.0663   -8.8489   19.8980 H   0  0  0  0  0  0
  -22.3406  -10.9483   19.6258 H   0  0  0  0  0  0
  -21.1991   -7.6124   23.9705 H   0  0  0  0  0  0
  -21.1427   -6.0532   25.9090 H   0  0  0  0  0  0
  -22.0655   -2.7586   23.2865 H   0  0  0  0  0  0
  -22.3462  -11.9683   22.5008 H   0  0  0  0  0  0
  -21.0567  -13.1195   22.3079 H   0  0  0  0  0  0
  -24.4101  -15.6320   20.4180 H   0  0  0  0  0  0
  -25.7420  -15.3764   19.4511 H   0  0  0  0  0  0
  -26.7642  -32.5609   23.1483 H   0  0  0  0  0  0
  -25.0831  -33.9974   25.0983 H   0  0  0  0  0  0
  -22.7353  -31.4169   21.5286 H   0  0  0  0  0  0
  -23.3840  -35.9554   23.3266 H   0  0  0  0  0  0
  -24.3613  -36.8885   22.2022 H   0  0  0  0  0  0
  -23.7178  -37.6498   23.6566 H   0  0  0  0  0  0
  -26.3417  -31.6614   20.7586 H   0  0  0  0  0  0
  -26.8723  -30.7239   22.1023 H   0  0  0  0  0  0
  -27.2358  -28.2884   21.8012 H   0  0  0  0  0  0
  -25.4284  -26.4228   18.4471 H   0  0  0  0  0  0
  -24.3302  -28.3575   17.8992 H   0  0  0  0  0  0
  -23.9576  -31.2250   19.5027 H   0  0  0  0  0  0
  -22.8191  -30.0150   19.4763 H   0  0  0  0  0  0
  -25.1305  -36.2124   25.0792 H   0  0  0  0  0  0
  -21.1424  -29.1577   24.7621 H   0  0  0  0  0  0
  -21.1236  -26.6830   24.8301 H   0  0  0  0  0  0
  -22.6817  -27.3411   24.6747 H   0  0  0  0  0  0
  -22.7485  -25.6578   23.3006 H   0  0  0  0  0  0
  -22.7519  -26.9926   22.4044 H   0  0  0  0  0  0
  -21.3053  -25.7765   21.3055 H   0  0  0  0  0  0
  -21.1052  -24.9602   22.8810 H   0  0  0  0  0  0
  -19.2839  -30.2520   24.0345 H   0  0  0  0  0  0
  -16.9585  -30.2463   23.2762 H   0  0  0  0  0  0
  -15.7677  -28.4252   21.9671 H   0  0  0  0  0  0
  -16.9397  -25.9661   21.1492 H   0  0  0  0  0  0
  -24.5823  -30.7303   25.7695 H   0  0  0  0  0  0
  -24.8976  -32.3098   26.4965 H   0  0  0  0  0  0
  -25.7900  -30.8991   27.0307 H   0  0  0  0  0  0
  -26.3011  -29.6995   24.1181 H   0  0  0  0  0  0
  -27.3779  -29.7270   25.4906 H   0  0  0  0  0  0
  -27.9025  -30.4361   23.9893 H   0  0  0  0  0  0
  -27.2777  -33.3605   26.2466 H   0  0  0  0  0  0
  -28.4080  -32.6865   25.0784 H   0  0  0  0  0  0
  -28.0648  -31.8378   26.5790 H   0  0  0  0  0  0
  -28.2596  -38.0217   24.7616 H   0  0  0  0  0  0
  -28.1151  -36.2759   24.6199 H   0  0  0  0  0  0
  -27.2313  -37.1411   25.8866 H   0  0  0  0  0  0
  -21.1676  -30.1546   22.4141 H   0  0  0  0  0  0
  -26.0217  -38.2905   24.1543 H   0  0  0  0  0  0
  -19.4512  -26.8204   19.1252 H   0  0  0  0  0  0
  -17.6999  -27.3543   24.5912 H   0  0  0  0  0  0
  -23.8928  -22.2301   18.8043 H   0  0  0  0  0  0
  -19.4953  -24.4472   19.7903 H   0  0  0  0  0  0
  -18.2797  -24.5008   24.2857 H   0  0  0  0  0  0
  -21.9782  -23.1122   19.8666 H   0  0  0  0  0  0
  -22.7739  -20.0919   22.8558 H   0  0  0  0  0  0
  -26.2042  -21.5553   19.0900 H   0  0  0  0  0  0
  -25.5717  -20.1174   18.2643 H   0  0  0  0  0  0
  -26.6032  -19.9763   19.6982 H   0  0  0  0  0  0
  -21.9509  -25.3705   19.5020 H   0  0  0  0  0  0
  -23.6046  -25.6593   19.2051 H   0  0  0  0  0  0
  -22.4040  -26.4618   18.2356 H   0  0  0  0  0  0
  -21.0711  -29.3312   20.6151 H   0  0  0  0  0  0
  -20.7056  -28.3408   19.4962 H   0  0  0  0  0  0
  -25.5600  -17.7758   22.2726 H   0  0  0  0  0  0
  -26.7589  -18.9894   22.0111 H   0  0  0  0  0  0
  -22.8641  -28.0555   19.4308 H   0  0  0  0  0  0
  -26.6636  -16.1068   20.7609 H   0  0  0  0  0  0
  1 25  1  0  0  0
  1 30  2  0  0  0
  1 88  1  0  0  0
  2  3  1  0  0  0
  2 25  1  0  0  0
  2 90  1  0  0  0
  2 91  1  0  0  0
  3  4  1  0  0  0
  3 92  1  0  0  0
  3 93  1  0  0  0
  4  5  1  0  0  0
  4 94  1  0  0  0
  4 95  1  0  0  0
  5  6  1  0  0  0
  5 26  1  0  0  0
  5 96  1  0  0  0
  6 25  1  0  0  0
  6 97  1  0  0  0
  6 98  1  0  0  0
  7  8  2  0  0  0
  7 26  1  0  0  0
  7 29  1  0  0  0
  8  9  1  0  0  0
  8 22  1  0  0  0
  9 10  1  0  0  0
  9 27  2  0  0  0
 10 11  2  0  0  0
 10 15  1  0  0  0
 11 12  1  0  0  0
 11 99  1  0  0  0
 12 13  2  0  0  0
 12100  1  0  0  0
 13 14  1  0  0  0
 13 31  1  0  0  0
 14 15  2  0  0  0
 14101  1  0  0  0
 15102  1  0  0  0
 16 17  2  0  0  0
 16 21  1  0  0  0
 16 31  1  0  0  0
 17 18  1  0  0  0
 17103  1  0  0  0
 18 19  2  0  0  0
 18104  1  0  0  0
 19 20  1  0  0  0
 19 24  1  0  0  0
 20 21  2  0  0  0
 20105  1  0  0  0
 21 23  1  0  0  0
 22 28  1  0  0  0
 22 32  2  0  0  0
 26 27  1  0  0  0
 28106  1  0  0  0
 28107  1  0  0  0
 29108  1  0  0  0
 29109  1  0  0  0
 33 34  1  0  0  0
 33 66  1  0  0  0
 33 70  2  0  0  0
 34 36  1  0  0  0
 34 59  1  0  0  0
 34110  1  0  0  0
 35 44  2  0  0  0
 35 45  1  0  0  0
 35 68  1  0  0  0
 36 56  1  0  0  0
 36111  1  0  0  0
 37 39  1  0  0  0
 37 47  1  0  0  0
 37 66  1  0  0  0
 37112  1  0  0  0
 38 43  2  0  0  0
 38 46  1  0  0  0
 38 47  1  0  0  0
 39 64  1  0  0  0
 39 67  2  0  0  0
 40 52  1  0  0  0
 40 53  2  0  0  0
 40 58  1  0  0  0
 41113  1  0  0  0
 41114  1  0  0  0
 41115  1  0  0  0
 41 48  1  0  0  0
 42 43  1  0  0  0
 42 66  1  0  0  0
 42116  1  0  0  0
 42117  1  0  0  0
 43 44  1  0  0  0
 44118  1  0  0  0
 45 46  2  0  0  0
 45119  1  0  0  0
 46120  1  0  0  0
 47121  1  0  0  0
 47122  1  0  0  0
 48 56  1  0  0  0
 48 65  1  0  0  0
 48123  1  0  0  0
 49 50  1  0  0  0
 49 53  1  0  0  0
 49 64  1  0  0  0
 49124  1  0  0  0
 50 51  1  0  0  0
 50125  1  0  0  0
 50126  1  0  0  0
 51 52  1  0  0  0
 51127  1  0  0  0
 51128  1  0  0  0
 52129  1  0  0  0
 52130  1  0  0  0
 53 54  1  0  0  0
 54 55  2  0  0  0
 54131  1  0  0  0
 55 57  1  0  0  0
 55132  1  0  0  0
 56 69  2  0  0  0
 57 58  2  0  0  0
 57133  1  0  0  0
 58134  1  0  0  0
 59 60  1  0  0  0
 59 61  1  0  0  0
 59 62  1  0  0  0
 60135  1  0  0  0
 60136  1  0  0  0
 60137  1  0  0  0
 61138  1  0  0  0
 61139  1  0  0  0
 61140  1  0  0  0
 62141  1  0  0  0
 62142  1  0  0  0
 62143  1  0  0  0
 63 65  1  0  0  0
 63144  1  0  0  0
 63145  1  0  0  0
 63146  1  0  0  0
 64147  1  0  0  0
 65148  1  0  0  0
 68 87  1  0  0  0
 71 74  2  0  0  0
 71 78  1  0  0  0
 71149  1  0  0  0
 72 75  1  0  0  0
 72 78  2  0  0  0
 72150  1  0  0  0
 73 76  2  0  0  0
 73 79  1  0  0  0
 73151  1  0  0  0
 74 81  1  0  0  0
 74152  1  0  0  0
 75 81  2  0  0  0
 75153  1  0  0  0
 76 82  1  0  0  0
 76154  1  0  0  0
 77 80  1  0  0  0
 77 82  2  0  0  0
 77155  1  0  0  0
 78 85  1  0  0  0
 79 80  2  0  0  0
 79 83  1  0  0  0
 80 86  1  0  0  0
 81 89  1  0  0  0
 82 89  1  0  0  0
 83156  1  0  0  0
 83157  1  0  0  0
 83158  1  0  0  0
 84159  1  0  0  0
 84160  1  0  0  0
 84161  1  0  0  0
 84 87  1  0  0  0
 85 87  1  0  0  0
 85162  1  0  0  0
 85163  1  0  0  0
 86 88  1  0  0  0
 86164  1  0  0  0
 86165  1  0  0  0
 87166  1  0  0  0
 88167  1  0  0  0
M  ISO  4   1 100  68 101  87 101  88 100
M  END
> <chiral flag>
0

> <version>
0

> <s_m_source_file>
/data/baiqing/PycharmProjects/Reinvent-master-3.2/result/LINK_invent/BTK/process_docking_weight1_custom_product_contain_oxygen_bond_distance_aromatic_linkinvent_7_9_3/rearranged_h_0136.sdf

> <i_m_source_file_index>
10

> <r_mmod_Potential_Energy-OPLS-2005>
27367.068359375

> <r_mmod_Stretch_Energy-OPLS-2005>
12892.5439453125

> <r_mmod_Bend_Energy-OPLS-2005>
2081.083984375

> <r_mmod_Torsional_Energy-OPLS-2005>
685.604125976562

> <r_mmod_Improper_Torsional_Energy-OPLS-2005>
89.261360168457

> <r_mmod_Van_der_Waal_Energy-OPLS-2005>
4075.193359375

> <r_mmod_Electrostatic_Energy-OPLS-2005>
-395.013336181641

> <r_mmod_Solvation_Energy-OPLS-2005>
-210.147796630859

> <b_mmod_Minimization_Converged-OPLS-2005>
0

> <r_mmod_RMS_Derivative-OPLS-2005>
31.5332221984863

$$$$
10
                    3D
 Structure written by MMmdl.
161169  0  0  1  0            999 V2000
  -30.6158  -14.7592   20.4234 C   0  0  0  0  0  0
  -30.4342  -12.4415   19.5065 C   0  0  0  0  0  0
  -29.5226  -12.4338   18.2583 C   0  0  0  0  0  0
  -28.0401  -12.3113   18.6598 C   0  0  0  0  0  0
  -27.6434  -13.2325   19.8459 C   0  0  2  0  0  0
  -28.6823  -13.1932   20.9872 C   0  0  0  0  0  0
  -25.2525  -13.8216   20.5685 C   0  0  0  0  0  0
  -24.1811  -13.0457   20.9190 C   0  0  0  0  0  0
  -24.6402  -11.6933   20.8747 C   0  0  0  0  0  0
  -23.9082  -10.4302   21.0406 C   0  0  0  0  0  0
  -24.3627   -9.4210   21.9184 C   0  0  0  0  0  0
  -23.6295   -8.2250   22.0758 C   0  0  0  0  0  0
  -22.4276   -8.0292   21.3549 C   0  0  0  0  0  0
  -21.9917   -9.0271   20.4652 C   0  0  0  0  0  0
  -22.7253  -10.2143   20.3055 C   0  0  0  0  0  0
  -21.6856   -6.0742   22.5280 C   0  0  0  0  0  0
  -21.4020   -6.5643   23.8215 C   0  0  0  0  0  0
  -21.3661   -5.6795   24.9175 C   0  0  0  0  0  0
  -21.6037   -4.3057   24.7226 C   0  0  0  0  0  0
  -21.8821   -3.8151   23.4350 C   0  0  0  0  0  0
  -21.9195   -4.6969   22.3405 C   0  0  0  0  0  0
  -22.7831  -13.5235   21.1863 C   0  0  0  0  0  0
  -22.1660   -4.2154   21.0983 F   0  0  0  0  0  0
  -21.5624   -3.4540   25.7738 F   0  0  0  0  0  0
  -29.9859  -13.5316   20.4076 N   0  0  0  0  0  0
  -26.2949  -12.9423   20.3260 N   0  0  0  0  0  0
  -25.9331  -11.6570   20.5756 N   0  0  0  0  0  0
  -22.0491  -12.8222   22.0418 N   0  0  0  0  0  0
  -25.4225  -15.1939   20.4121 N   0  0  0  0  0  0
  -31.8024  -14.8331   20.0927 O   0  0  0  0  0  0
  -21.6643   -6.8883   21.4241 O   0  0  0  0  0  0
  -22.3505  -14.5542   20.6718 O   0  0  0  0  0  0
  -24.6318  -31.8555   23.1995 C   0  0  0  0  0  0
  -25.9148  -32.4754   23.8339 C   0  0  1  0  0  0
  -27.2200  -27.2514   20.1323 C   0  0  0  0  0  0
  -25.5945  -33.8558   24.2261 N   0  0  0  0  0  0
  -23.4286  -30.4793   21.5418 C   0  0  2  0  0  0
  -24.8768  -28.9272   20.1086 C   0  0  0  0  0  0
  -22.7500  -29.4613   22.4904 C   0  0  0  0  0  0
  -18.0312  -28.1376   22.8482 C   0  0  0  0  0  0
  -24.1492  -36.7277   23.2639 C   0  0  0  0  0  0
  -25.9759  -30.7629   21.3846 C   0  0  0  0  0  0
  -26.0465  -29.3854   20.7263 C   0  0  0  0  0  0
  -27.2158  -28.5578   20.7324 C   0  0  0  0  0  0
  -26.0319  -26.8788   19.4591 C   0  0  0  0  0  0
  -24.8764  -27.6829   19.4641 C   0  0  0  0  0  0
  -23.6475  -29.8140   20.1581 C   0  0  0  0  0  0
  -25.4118  -36.3063   24.0326 C   0  0  1  0  0  0
  -20.5909  -28.3707   23.1275 C   0  0  2  0  0  0
  -20.6812  -26.9426   22.5418 C   0  0  0  0  0  0
  -19.5789  -26.6372   21.5224 C   0  0  0  0  0  0
  -18.1964  -26.7912   22.1634 C   0  0  0  0  0  0
  -19.1554  -28.8855   23.2869 C   0  0  0  0  0  0
  -18.9466  -30.1455   23.8885 C   0  0  0  0  0  0
  -17.6461  -30.6573   24.0553 C   0  0  0  0  0  0
  -25.9061  -34.9434   23.5097 C   0  0  0  0  0  0
  -16.5361  -29.9066   23.6319 C   0  0  0  0  0  0
  -16.7290  -28.6485   23.0337 C   0  0  0  0  0  0
  -26.4506  -31.6583   25.0731 C   0  0  0  0  0  0
  -25.3717  -31.3740   26.1446 C   0  0  0  0  0  0
  -27.0363  -30.2998   24.6237 C   0  0  0  0  0  0
  -27.6059  -32.4325   25.7501 C   0  0  0  0  0  0
  -27.5578  -37.1798   24.8466 C   0  0  0  0  0  0
  -21.4207  -29.3057   22.3643 N   0  0  0  0  0  0
  -26.4291  -37.3763   23.9406 N   0  0  0  0  0  0
  -24.6976  -31.0511   22.0980 N   0  0  0  0  0  0
  -23.4192  -28.8156   23.3016 O   0  0  0  0  0  0
  -28.3208  -26.3609   20.2320 O   0  0  0  0  0  0
  -26.5628  -34.8908   22.4664 O   0  0  0  0  0  0
  -23.5468  -32.1397   23.7282 O   0  0  0  0  0  0
  -29.2198  -19.1613   18.4530 C   0  0  0  0  0  0
  -29.0761  -18.5501   17.2018 C   0  0  0  0  0  0
  -29.4644  -16.4095   18.2499 C   0  0  0  0  0  0
  -29.4879  -18.4439   19.6441 C   0  0  0  0  0  0
  -29.1985  -17.1648   17.0976 C   0  0  0  0  0  0
  -29.6439  -16.9704   19.5461 C   0  0  0  0  0  0
  -27.9852  -23.6567   22.0858 C   0  0  0  0  0  0
  -29.6752  -19.4155   20.8670 C   0  0  0  0  0  0
  -28.8806  -20.8439   21.0300 C   0  0  0  0  0  0
  -29.0556  -22.2183   20.1663 C   0  0  0  0  0  0
  -28.2355  -24.8978   19.8601 C   0  0  0  0  0  0
  -28.8270  -23.7129   20.7999 C   0  0  1  0  0  0
  -29.0561  -16.5405   15.8586 N   0  0  0  0  0  0
  -29.8682  -15.9279   20.5837 N   0  0  0  0  0  0
  -31.4775  -12.5516   19.2069 H   0  0  0  0  0  0
  -30.3797  -11.4825   20.0247 H   0  0  0  0  0  0
  -29.7912  -11.5957   17.6144 H   0  0  0  0  0  0
  -29.6873  -13.3219   17.6543 H   0  0  0  0  0  0
  -27.8742  -11.2688   18.9347 H   0  0  0  0  0  0
  -27.3956  -12.4981   17.8007 H   0  0  0  0  0  0
  -27.6327  -14.2472   19.4482 H   0  0  0  0  0  0
  -28.7129  -12.2071   21.4519 H   0  0  0  0  0  0
  -28.4136  -13.8968   21.7763 H   0  0  0  0  0  0
  -25.2771   -9.5679   22.4759 H   0  0  0  0  0  0
  -24.0006   -7.4646   22.7481 H   0  0  0  0  0  0
  -21.0851   -8.8788   19.8965 H   0  0  0  0  0  0
  -22.3710  -10.9682   19.6166 H   0  0  0  0  0  0
  -21.2010   -7.6149   23.9714 H   0  0  0  0  0  0
  -21.1480   -6.0527   25.9074 H   0  0  0  0  0  0
  -22.0594   -2.7616   23.2852 H   0  0  0  0  0  0
  -22.4121  -11.9869   22.4771 H   0  0  0  0  0  0
  -21.1113  -13.1250   22.2647 H   0  0  0  0  0  0
  -24.6555  -15.8475   20.5243 H   0  0  0  0  0  0
  -26.2723  -15.6326   20.0811 H   0  0  0  0  0  0
  -26.7209  -32.5399   23.1073 H   0  0  0  0  0  0
  -25.0086  -33.9705   25.0402 H   0  0  0  0  0  0
  -22.7242  -31.3008   21.3961 H   0  0  0  0  0  0
  -23.3756  -35.9611   23.3302 H   0  0  0  0  0  0
  -24.3579  -36.8903   22.2054 H   0  0  0  0  0  0
  -23.7249  -37.6479   23.6665 H   0  0  0  0  0  0
  -26.1197  -31.5230   20.6153 H   0  0  0  0  0  0
  -26.8519  -30.8091   22.0202 H   0  0  0  0  0  0
  -28.1056  -28.8998   21.2425 H   0  0  0  0  0  0
  -25.9467  -25.9497   18.9199 H   0  0  0  0  0  0
  -23.9856  -27.3337   18.9609 H   0  0  0  0  0  0
  -23.7727  -30.5914   19.4040 H   0  0  0  0  0  0
  -22.7654  -29.2490   19.8522 H   0  0  0  0  0  0
  -25.1299  -36.1913   25.0818 H   0  0  0  0  0  0
  -20.9995  -28.3304   24.1396 H   0  0  0  0  0  0
  -20.5730  -26.2317   23.3621 H   0  0  0  0  0  0
  -21.6689  -26.7453   22.1234 H   0  0  0  0  0  0
  -19.6948  -25.6285   21.1242 H   0  0  0  0  0  0
  -19.6717  -27.3189   20.6763 H   0  0  0  0  0  0
  -17.4244  -26.6637   21.4034 H   0  0  0  0  0  0
  -18.0378  -26.0055   22.9037 H   0  0  0  0  0  0
  -19.7930  -30.7286   24.2260 H   0  0  0  0  0  0
  -17.5014  -31.6247   24.5161 H   0  0  0  0  0  0
  -15.5354  -30.2955   23.7645 H   0  0  0  0  0  0
  -15.8702  -28.0804   22.7045 H   0  0  0  0  0  0
  -24.5898  -30.7086   25.7765 H   0  0  0  0  0  0
  -24.8905  -32.2913   26.4847 H   0  0  0  0  0  0
  -25.8025  -30.8930   27.0238 H   0  0  0  0  0  0
  -26.2967  -29.6736   24.1244 H   0  0  0  0  0  0
  -27.4012  -29.7270   25.4772 H   0  0  0  0  0  0
  -27.8847  -30.4258   23.9511 H   0  0  0  0  0  0
  -27.2671  -33.3631   26.2064 H   0  0  0  0  0  0
  -28.3877  -32.6885   25.0335 H   0  0  0  0  0  0
  -28.0723  -31.8466   26.5433 H   0  0  0  0  0  0
  -28.2597  -38.0091   24.7501 H   0  0  0  0  0  0
  -28.1069  -36.2625   24.6303 H   0  0  0  0  0  0
  -27.2292  -37.1453   25.8866 H   0  0  0  0  0  0
  -20.9400  -29.8749   21.6822 H   0  0  0  0  0  0
  -26.0169  -38.2841   24.1394 H   0  0  0  0  0  0
  -29.1371  -20.2345   18.4687 H   0  0  0  0  0  0
  -28.8771  -19.1610   16.3319 H   0  0  0  0  0  0
  -29.5181  -15.3448   18.1144 H   0  0  0  0  0  0
  -27.0005  -23.2249   21.9020 H   0  0  0  0  0  0
  -27.8406  -24.6573   22.4949 H   0  0  0  0  0  0
  -28.4712  -23.0730   22.8663 H   0  0  0  0  0  0
  -30.7448  -19.6159   20.9407 H   0  0  0  0  0  0
  -29.4416  -18.8154   21.7468 H   0  0  0  0  0  0
  -29.1194  -21.1298   22.0527 H   0  0  0  0  0  0
  -27.8145  -20.6163   21.0598 H   0  0  0  0  0  0
  -28.3792  -22.1413   19.3149 H   0  0  0  0  0  0
  -30.0521  -22.2089   19.7229 H   0  0  0  0  0  0
  -28.7194  -24.8195   18.8863 H   0  0  0  0  0  0
  -27.2092  -24.5900   19.6873 H   0  0  0  0  0  0
  -29.8199  -24.0495   21.1039 H   0  0  0  0  0  0
  -29.4105  -15.5958   15.7434 H   0  0  0  0  0  0
  -29.1556  -17.1021   15.0183 H   0  0  0  0  0  0
  -29.0701  -15.8005   21.1893 H   0  0  0  0  0  0
  1 25  1  0  0  0
  1 30  2  0  0  0
  1 84  1  0  0  0
  2  3  1  0  0  0
  2 25  1  0  0  0
  2 85  1  0  0  0
  2 86  1  0  0  0
  3  4  1  0  0  0
  3 87  1  0  0  0
  3 88  1  0  0  0
  4  5  1  0  0  0
  4 89  1  0  0  0
  4 90  1  0  0  0
  5  6  1  0  0  0
  5 26  1  0  0  0
  5 91  1  0  0  0
  6 25  1  0  0  0
  6 92  1  0  0  0
  6 93  1  0  0  0
  7  8  2  0  0  0
  7 26  1  0  0  0
  7 29  1  0  0  0
  8  9  1  0  0  0
  8 22  1  0  0  0
  9 10  1  0  0  0
  9 27  2  0  0  0
 10 11  2  0  0  0
 10 15  1  0  0  0
 11 12  1  0  0  0
 11 94  1  0  0  0
 12 13  2  0  0  0
 12 95  1  0  0  0
 13 14  1  0  0  0
 13 31  1  0  0  0
 14 15  2  0  0  0
 14 96  1  0  0  0
 15 97  1  0  0  0
 16 17  2  0  0  0
 16 21  1  0  0  0
 16 31  1  0  0  0
 17 18  1  0  0  0
 17 98  1  0  0  0
 18 19  2  0  0  0
 18 99  1  0  0  0
 19 20  1  0  0  0
 19 24  1  0  0  0
 20 21  2  0  0  0
 20100  1  0  0  0
 21 23  1  0  0  0
 22 28  1  0  0  0
 22 32  2  0  0  0
 26 27  1  0  0  0
 28101  1  0  0  0
 28102  1  0  0  0
 29103  1  0  0  0
 29104  1  0  0  0
 33 34  1  0  0  0
 33 66  1  0  0  0
 33 70  2  0  0  0
 34 36  1  0  0  0
 34 59  1  0  0  0
 34105  1  0  0  0
 35 44  2  0  0  0
 35 45  1  0  0  0
 35 68  1  0  0  0
 36 56  1  0  0  0
 36106  1  0  0  0
 37 39  1  0  0  0
 37 47  1  0  0  0
 37 66  1  0  0  0
 37107  1  0  0  0
 38 43  2  0  0  0
 38 46  1  0  0  0
 38 47  1  0  0  0
 39 64  1  0  0  0
 39 67  2  0  0  0
 40 52  1  0  0  0
 40 53  2  0  0  0
 40 58  1  0  0  0
 41108  1  0  0  0
 41109  1  0  0  0
 41110  1  0  0  0
 41 48  1  0  0  0
 42 43  1  0  0  0
 42 66  1  0  0  0
 42111  1  0  0  0
 42112  1  0  0  0
 43 44  1  0  0  0
 44113  1  0  0  0
 45 46  2  0  0  0
 45114  1  0  0  0
 46115  1  0  0  0
 47116  1  0  0  0
 47117  1  0  0  0
 48 56  1  0  0  0
 48 65  1  0  0  0
 48118  1  0  0  0
 49 50  1  0  0  0
 49 53  1  0  0  0
 49 64  1  0  0  0
 49119  1  0  0  0
 50 51  1  0  0  0
 50120  1  0  0  0
 50121  1  0  0  0
 51 52  1  0  0  0
 51122  1  0  0  0
 51123  1  0  0  0
 52124  1  0  0  0
 52125  1  0  0  0
 53 54  1  0  0  0
 54 55  2  0  0  0
 54126  1  0  0  0
 55 57  1  0  0  0
 55127  1  0  0  0
 56 69  2  0  0  0
 57 58  2  0  0  0
 57128  1  0  0  0
 58129  1  0  0  0
 59 60  1  0  0  0
 59 61  1  0  0  0
 59 62  1  0  0  0
 60130  1  0  0  0
 60131  1  0  0  0
 60132  1  0  0  0
 61133  1  0  0  0
 61134  1  0  0  0
 61135  1  0  0  0
 62136  1  0  0  0
 62137  1  0  0  0
 62138  1  0  0  0
 63 65  1  0  0  0
 63139  1  0  0  0
 63140  1  0  0  0
 63141  1  0  0  0
 64142  1  0  0  0
 65143  1  0  0  0
 68 81  1  0  0  0
 71 72  2  0  0  0
 71 74  1  0  0  0
 71144  1  0  0  0
 72 75  1  0  0  0
 72145  1  0  0  0
 73 75  2  0  0  0
 73 76  1  0  0  0
 73146  1  0  0  0
 74 76  2  0  0  0
 74 78  1  0  0  0
 75 83  1  0  0  0
 76 84  1  0  0  0
 77147  1  0  0  0
 77148  1  0  0  0
 77149  1  0  0  0
 77 82  1  0  0  0
 78 79  1  0  0  0
 78150  1  0  0  0
 78151  1  0  0  0
 79 80  1  0  0  0
 79152  1  0  0  0
 79153  1  0  0  0
 80 82  1  0  0  0
 80154  1  0  0  0
 80155  1  0  0  0
 81 82  1  0  0  0
 81156  1  0  0  0
 81157  1  0  0  0
 82158  1  0  0  0
 83159  1  0  0  0
 83160  1  0  0  0
 84161  1  0  0  0
M  ISO  4   1 100  68 101  81 101  84 100
M  END
> <chiral flag>
0

> <version>
0

> <s_m_source_file>
/data/baiqing/PycharmProjects/Reinvent-master-3.2/result/LINK_invent/BTK/process_docking_weight1_custom_product_contain_oxygen_bond_distance_aromatic_linkinvent_7_9_3/rearranged_h_0136.sdf

> <i_m_source_file_index>
11

> <r_mmod_Potential_Energy-OPLS-2005>
335.238189697266

> <r_mmod_Stretch_Energy-OPLS-2005>
148.680938720703

> <r_mmod_Bend_Energy-OPLS-2005>
231.546966552734

> <r_mmod_Torsional_Energy-OPLS-2005>
278.504486083984

> <r_mmod_Improper_Torsional_Energy-OPLS-2005>
11.2171602249146

> <r_mmod_Van_der_Waal_Energy-OPLS-2005>
142.735153198242

> <r_mmod_Electrostatic_Energy-OPLS-2005>
-360.142974853516

> <r_mmod_Solvation_Energy-OPLS-2005>
-212.022567749023

> <b_mmod_Minimization_Converged-OPLS-2005>
0

> <r_mmod_RMS_Derivative-OPLS-2005>
1.57649755477905

$$$$
11
                    3D
 Structure written by MMmdl.
183191  0  0  1  0            999 V2000
  -30.7322  -14.4249   20.6432 C   0  0  0  0  0  0
  -30.4190  -12.3059   19.4098 C   0  0  0  0  0  0
  -29.4849  -12.5138   18.2005 C   0  0  0  0  0  0
  -28.0094  -12.3605   18.6178 C   0  0  0  0  0  0
  -27.6583  -13.2004   19.8737 C   0  0  2  0  0  0
  -28.6981  -12.9687   20.9922 C   0  0  0  0  0  0
  -25.2572  -13.8155   20.5692 C   0  0  0  0  0  0
  -24.1810  -13.0440   20.9172 C   0  0  0  0  0  0
  -24.6343  -11.6908   20.8722 C   0  0  0  0  0  0
  -23.9008  -10.4301   21.0388 C   0  0  0  0  0  0
  -24.3578   -9.4230   21.9170 C   0  0  0  0  0  0
  -23.6278   -8.2254   22.0737 C   0  0  0  0  0  0
  -22.4267   -8.0272   21.3523 C   0  0  0  0  0  0
  -21.9883   -9.0236   20.4625 C   0  0  0  0  0  0
  -22.7181  -10.2132   20.3038 C   0  0  0  0  0  0
  -21.6854   -6.0738   22.5282 C   0  0  0  0  0  0
  -21.4005   -6.5634   23.8214 C   0  0  0  0  0  0
  -21.3663   -5.6786   24.9170 C   0  0  0  0  0  0
  -21.6050   -4.3051   24.7226 C   0  0  0  0  0  0
  -21.8813   -3.8142   23.4343 C   0  0  0  0  0  0
  -21.9189   -4.6964   22.3399 C   0  0  0  0  0  0
  -22.7842  -13.5250   21.1865 C   0  0  0  0  0  0
  -22.1660   -4.2150   21.0981 F   0  0  0  0  0  0
  -21.5640   -3.4533   25.7737 F   0  0  0  0  0  0
  -30.0322  -13.2766   20.4451 N   0  0  0  0  0  0
  -26.2990  -12.9306   20.3362 N   0  0  0  0  0  0
  -25.9266  -11.6476   20.5755 N   0  0  0  0  0  0
  -22.0476  -12.8242   22.0421 N   0  0  0  0  0  0
  -25.4335  -15.1869   20.4119 N   0  0  0  0  0  0
  -31.8321  -14.6393   20.1237 O   0  0  0  0  0  0
  -21.6626   -6.8876   21.4243 O   0  0  0  0  0  0
  -22.3534  -14.5568   20.6729 O   0  0  0  0  0  0
  -24.6121  -31.8674   23.2088 C   0  0  0  0  0  0
  -25.8991  -32.4857   23.8388 C   0  0  1  0  0  0
  -27.2407  -27.4337   20.1215 C   0  0  0  0  0  0
  -25.5824  -33.8639   24.2338 N   0  0  0  0  0  0
  -23.4046  -30.4874   21.5468 C   0  0  2  0  0  0
  -24.8596  -28.9554   20.1148 C   0  0  0  0  0  0
  -22.7447  -29.4604   22.4937 C   0  0  0  0  0  0
  -18.0277  -28.1414   22.8497 C   0  0  0  0  0  0
  -24.1461  -36.7305   23.2667 C   0  0  0  0  0  0
  -25.9308  -30.8404   21.3576 C   0  0  0  0  0  0
  -26.0145  -29.4679   20.7193 C   0  0  0  0  0  0
  -27.2118  -28.7135   20.7216 C   0  0  0  0  0  0
  -26.0773  -26.9399   19.4990 C   0  0  0  0  0  0
  -24.8851  -27.6914   19.4992 C   0  0  0  0  0  0
  -23.6197  -29.8217   20.1607 C   0  0  0  0  0  0
  -25.4080  -36.3124   24.0373 C   0  0  1  0  0  0
  -20.5887  -28.3640   23.1326 C   0  0  2  0  0  0
  -20.6752  -26.9371   22.5420 C   0  0  0  0  0  0
  -19.5716  -26.6396   21.5228 C   0  0  0  0  0  0
  -18.1897  -26.7955   22.1650 C   0  0  0  0  0  0
  -19.1551  -28.8843   23.2906 C   0  0  0  0  0  0
  -18.9495  -30.1472   23.8884 C   0  0  0  0  0  0
  -17.6495  -30.6601   24.0575 C   0  0  0  0  0  0
  -25.9004  -34.9503   23.5163 C   0  0  0  0  0  0
  -16.5372  -29.9116   23.6346 C   0  0  0  0  0  0
  -16.7268  -28.6555   23.0318 C   0  0  0  0  0  0
  -26.4453  -31.6640   25.0704 C   0  0  0  0  0  0
  -25.3741  -31.3754   26.1479 C   0  0  0  0  0  0
  -27.0288  -30.3106   24.6020 C   0  0  0  0  0  0
  -27.6049  -32.4379   25.7435 C   0  0  0  0  0  0
  -27.5550  -37.1801   24.8490 C   0  0  0  0  0  0
  -21.4166  -29.2994   22.3697 N   0  0  0  0  0  0
  -26.4254  -37.3813   23.9446 N   0  0  0  0  0  0
  -24.6680  -31.0791   22.0980 N   0  0  0  0  0  0
  -23.4220  -28.8123   23.2969 O   0  0  0  0  0  0
  -28.3827  -26.6589   20.0968 O   0  0  0  0  0  0
  -26.5619  -34.8979   22.4756 O   0  0  0  0  0  0
  -23.5320  -32.1404   23.7503 O   0  0  0  0  0  0
  -31.5200  -16.3256   23.0943 C   0  0  0  0  0  0
  -31.8162  -18.7260   23.2802 C   0  0  0  0  0  0
  -30.4379  -17.8176   21.4909 C   0  0  0  0  0  0
  -32.0975  -17.4274   23.7660 C   0  0  0  0  0  0
  -30.7078  -16.5079   21.9576 C   0  0  0  0  0  0
  -30.9863  -18.9453   22.1605 C   0  0  0  0  0  0
  -29.6700  -23.2443   21.3642 C   0  0  0  0  0  0
  -34.8724  -18.9088   24.6045 C   0  0  0  0  0  0
  -33.9226  -16.0071   24.8328 C   0  0  0  0  0  0
  -31.9486  -16.8085   26.1672 C   0  0  0  0  0  0
  -27.4741  -21.9312   21.0683 C   0  0  0  0  0  0
  -28.7846  -21.7357   23.1861 C   0  0  0  0  0  0
  -29.7730  -26.3701   21.9870 C   0  0  0  0  0  0
  -27.4189  -25.4997   22.1205 C   0  0  0  0  0  0
  -29.0564  -24.3767   20.4884 C   0  0  0  0  0  0
  -33.7446  -18.4130   25.5291 C   0  0  0  0  0  0
  -29.6309  -20.6581   21.0572 C   0  0  0  0  0  0
  -32.9320  -17.1794   25.0388 C   0  0  0  0  0  0
  -28.9031  -21.9108   21.6529 C   0  0  0  0  0  0
  -28.6313  -25.7208   21.1795 C   0  0  0  0  0  0
  -30.0988  -15.3725   21.3583 N   0  0  0  0  0  0
  -30.8033  -23.4013   21.8252 O   0  0  0  0  0  0
  -30.7904  -20.2707   21.8050 O   0  0  0  0  0  0
  -31.4616  -12.4133   19.1034 H   0  0  0  0  0  0
  -30.3276  -11.2898   19.7987 H   0  0  0  0  0  0
  -29.7251  -11.8000   17.4107 H   0  0  0  0  0  0
  -29.6433  -13.5071   17.7789 H   0  0  0  0  0  0
  -27.8296  -11.3038   18.8211 H   0  0  0  0  0  0
  -27.3511  -12.6277   17.7903 H   0  0  0  0  0  0
  -27.7084  -14.2483   19.5789 H   0  0  0  0  0  0
  -28.6716  -11.9277   21.3180 H   0  0  0  0  0  0
  -28.4491  -13.5527   21.8792 H   0  0  0  0  0  0
  -25.2721   -9.5732   22.4736 H   0  0  0  0  0  0
  -24.0004   -7.4648   22.7448 H   0  0  0  0  0  0
  -21.0820   -8.8725   19.8929 H   0  0  0  0  0  0
  -22.3613  -10.9661   19.6146 H   0  0  0  0  0  0
  -21.1978   -7.6139   23.9720 H   0  0  0  0  0  0
  -21.1500   -6.0511   25.9078 H   0  0  0  0  0  0
  -22.0588   -2.7611   23.2833 H   0  0  0  0  0  0
  -22.4084  -11.9891   22.4804 H   0  0  0  0  0  0
  -21.1095  -13.1272   22.2632 H   0  0  0  0  0  0
  -24.6737  -15.8500   20.5160 H   0  0  0  0  0  0
  -26.2958  -15.6222   20.1080 H   0  0  0  0  0  0
  -26.7042  -32.5616   23.1143 H   0  0  0  0  0  0
  -24.9834  -33.9774   25.0389 H   0  0  0  0  0  0
  -22.6928  -31.3032   21.4046 H   0  0  0  0  0  0
  -23.3734  -35.9618   23.3350 H   0  0  0  0  0  0
  -24.3548  -36.8904   22.2082 H   0  0  0  0  0  0
  -23.7214  -37.6520   23.6658 H   0  0  0  0  0  0
  -26.0378  -31.5946   20.5771 H   0  0  0  0  0  0
  -26.8242  -30.9121   21.9654 H   0  0  0  0  0  0
  -28.1045  -29.1068   21.1906 H   0  0  0  0  0  0
  -26.0909  -25.9655   19.0309 H   0  0  0  0  0  0
  -24.0023  -27.2906   19.0232 H   0  0  0  0  0  0
  -23.7344  -30.5992   19.4054 H   0  0  0  0  0  0
  -22.7462  -29.2443   19.8532 H   0  0  0  0  0  0
  -25.1258  -36.1969   25.0869 H   0  0  0  0  0  0
  -21.0014  -28.3176   24.1439 H   0  0  0  0  0  0
  -20.5702  -26.2194   23.3583 H   0  0  0  0  0  0
  -21.6597  -26.7416   22.1181 H   0  0  0  0  0  0
  -19.6848  -25.6326   21.1213 H   0  0  0  0  0  0
  -19.6676  -27.3240   20.6787 H   0  0  0  0  0  0
  -17.4173  -26.6744   21.4034 H   0  0  0  0  0  0
  -18.0267  -26.0117   22.9068 H   0  0  0  0  0  0
  -19.7978  -30.7310   24.2210 H   0  0  0  0  0  0
  -17.5073  -31.6289   24.5186 H   0  0  0  0  0  0
  -15.5390  -30.3035   23.7687 H   0  0  0  0  0  0
  -15.8676  -28.0918   22.6971 H   0  0  0  0  0  0
  -24.5935  -30.7052   25.7860 H   0  0  0  0  0  0
  -24.8889  -32.2904   26.4873 H   0  0  0  0  0  0
  -25.8130  -30.9006   27.0255 H   0  0  0  0  0  0
  -26.2810  -29.6876   24.1086 H   0  0  0  0  0  0
  -27.4173  -29.7328   25.4408 H   0  0  0  0  0  0
  -27.8571  -30.4535   23.9078 H   0  0  0  0  0  0
  -27.2653  -33.3701   26.1955 H   0  0  0  0  0  0
  -28.3814  -32.6914   25.0216 H   0  0  0  0  0  0
  -28.0725  -31.8558   26.5385 H   0  0  0  0  0  0
  -28.2609  -38.0066   24.7530 H   0  0  0  0  0  0
  -28.1029  -36.2615   24.6308 H   0  0  0  0  0  0
  -27.2294  -37.1451   25.8908 H   0  0  0  0  0  0
  -20.9342  -29.8722   21.6935 H   0  0  0  0  0  0
  -26.0163  -38.2893   24.1460 H   0  0  0  0  0  0
  -31.6712  -15.3256   23.4686 H   0  0  0  0  0  0
  -32.2143  -19.5971   23.7766 H   0  0  0  0  0  0
  -29.8167  -17.9352   20.6156 H   0  0  0  0  0  0
  -35.3701  -19.7733   25.0460 H   0  0  0  0  0  0
  -34.5057  -19.2086   23.6247 H   0  0  0  0  0  0
  -35.6367  -18.1474   24.4539 H   0  0  0  0  0  0
  -33.4288  -15.0488   24.6819 H   0  0  0  0  0  0
  -34.5691  -15.8808   25.7015 H   0  0  0  0  0  0
  -34.5652  -16.1705   23.9670 H   0  0  0  0  0  0
  -31.3323  -15.9465   25.9066 H   0  0  0  0  0  0
  -31.2698  -17.6363   26.3792 H   0  0  0  0  0  0
  -32.4672  -16.5653   27.0951 H   0  0  0  0  0  0
  -26.9140  -22.8155   21.3692 H   0  0  0  0  0  0
  -26.8948  -21.0713   21.4040 H   0  0  0  0  0  0
  -27.4903  -21.8867   19.9783 H   0  0  0  0  0  0
  -28.2051  -22.5408   23.6384 H   0  0  0  0  0  0
  -29.7628  -21.7263   23.6722 H   0  0  0  0  0  0
  -28.2946  -20.7949   23.4390 H   0  0  0  0  0  0
  -30.0297  -25.7851   22.8704 H   0  0  0  0  0  0
  -29.4948  -27.3652   22.3361 H   0  0  0  0  0  0
  -30.6770  -26.4717   21.3868 H   0  0  0  0  0  0
  -27.6558  -24.7962   22.9167 H   0  0  0  0  0  0
  -26.5533  -25.1115   21.5846 H   0  0  0  0  0  0
  -27.1111  -26.4258   22.6119 H   0  0  0  0  0  0
  -28.2144  -23.9941   19.9153 H   0  0  0  0  0  0
  -29.8161  -24.6145   19.7435 H   0  0  0  0  0  0
  -33.0712  -19.2400   25.7562 H   0  0  0  0  0  0
  -34.2018  -18.1669   26.4891 H   0  0  0  0  0  0
  -29.9331  -20.8429   20.0258 H   0  0  0  0  0  0
  -28.9073  -19.8448   21.0184 H   0  0  0  0  0  0
  -29.1488  -15.1651   21.6289 H   0  0  0  0  0  0
  1 25  1  0  0  0
  1 30  2  0  0  0
  1 91  1  0  0  0
  2  3  1  0  0  0
  2 25  1  0  0  0
  2 94  1  0  0  0
  2 95  1  0  0  0
  3  4  1  0  0  0
  3 96  1  0  0  0
  3 97  1  0  0  0
  4  5  1  0  0  0
  4 98  1  0  0  0
  4 99  1  0  0  0
  5  6  1  0  0  0
  5 26  1  0  0  0
  5100  1  0  0  0
  6 25  1  0  0  0
  6101  1  0  0  0
  6102  1  0  0  0
  7  8  2  0  0  0
  7 26  1  0  0  0
  7 29  1  0  0  0
  8  9  1  0  0  0
  8 22  1  0  0  0
  9 10  1  0  0  0
  9 27  2  0  0  0
 10 11  2  0  0  0
 10 15  1  0  0  0
 11 12  1  0  0  0
 11103  1  0  0  0
 12 13  2  0  0  0
 12104  1  0  0  0
 13 14  1  0  0  0
 13 31  1  0  0  0
 14 15  2  0  0  0
 14105  1  0  0  0
 15106  1  0  0  0
 16 17  2  0  0  0
 16 21  1  0  0  0
 16 31  1  0  0  0
 17 18  1  0  0  0
 17107  1  0  0  0
 18 19  2  0  0  0
 18108  1  0  0  0
 19 20  1  0  0  0
 19 24  1  0  0  0
 20 21  2  0  0  0
 20109  1  0  0  0
 21 23  1  0  0  0
 22 28  1  0  0  0
 22 32  2  0  0  0
 26 27  1  0  0  0
 28110  1  0  0  0
 28111  1  0  0  0
 29112  1  0  0  0
 29113  1  0  0  0
 33 34  1  0  0  0
 33 66  1  0  0  0
 33 70  2  0  0  0
 34 36  1  0  0  0
 34 59  1  0  0  0
 34114  1  0  0  0
 35 44  2  0  0  0
 35 45  1  0  0  0
 35 68  1  0  0  0
 36 56  1  0  0  0
 36115  1  0  0  0
 37 39  1  0  0  0
 37 47  1  0  0  0
 37 66  1  0  0  0
 37116  1  0  0  0
 38 43  2  0  0  0
 38 46  1  0  0  0
 38 47  1  0  0  0
 39 64  1  0  0  0
 39 67  2  0  0  0
 40 52  1  0  0  0
 40 53  2  0  0  0
 40 58  1  0  0  0
 41117  1  0  0  0
 41118  1  0  0  0
 41119  1  0  0  0
 41 48  1  0  0  0
 42 43  1  0  0  0
 42 66  1  0  0  0
 42120  1  0  0  0
 42121  1  0  0  0
 43 44  1  0  0  0
 44122  1  0  0  0
 45 46  2  0  0  0
 45123  1  0  0  0
 46124  1  0  0  0
 47125  1  0  0  0
 47126  1  0  0  0
 48 56  1  0  0  0
 48 65  1  0  0  0
 48127  1  0  0  0
 49 50  1  0  0  0
 49 53  1  0  0  0
 49 64  1  0  0  0
 49128  1  0  0  0
 50 51  1  0  0  0
 50129  1  0  0  0
 50130  1  0  0  0
 51 52  1  0  0  0
 51131  1  0  0  0
 51132  1  0  0  0
 52133  1  0  0  0
 52134  1  0  0  0
 53 54  1  0  0  0
 54 55  2  0  0  0
 54135  1  0  0  0
 55 57  1  0  0  0
 55136  1  0  0  0
 56 69  2  0  0  0
 57 58  2  0  0  0
 57137  1  0  0  0
 58138  1  0  0  0
 59 60  1  0  0  0
 59 61  1  0  0  0
 59 62  1  0  0  0
 60139  1  0  0  0
 60140  1  0  0  0
 60141  1  0  0  0
 61142  1  0  0  0
 61143  1  0  0  0
 61144  1  0  0  0
 62145  1  0  0  0
 62146  1  0  0  0
 62147  1  0  0  0
 63 65  1  0  0  0
 63148  1  0  0  0
 63149  1  0  0  0
 63150  1  0  0  0
 64151  1  0  0  0
 65152  1  0  0  0
 68 90  1  0  0  0
 71 74  2  0  0  0
 71 75  1  0  0  0
 71153  1  0  0  0
 72 74  1  0  0  0
 72 76  2  0  0  0
 72154  1  0  0  0
 73 75  2  0  0  0
 73 76  1  0  0  0
 73155  1  0  0  0
 74 88  1  0  0  0
 75 91  1  0  0  0
 76 93  1  0  0  0
 77 85  1  0  0  0
 77 89  1  0  0  0
 77 92  2  0  0  0
 78 86  1  0  0  0
 78156  1  0  0  0
 78157  1  0  0  0
 78158  1  0  0  0
 79159  1  0  0  0
 79160  1  0  0  0
 79161  1  0  0  0
 79 88  1  0  0  0
 80 88  1  0  0  0
 80162  1  0  0  0
 80163  1  0  0  0
 80164  1  0  0  0
 81165  1  0  0  0
 81166  1  0  0  0
 81167  1  0  0  0
 81 89  1  0  0  0
 82 89  1  0  0  0
 82168  1  0  0  0
 82169  1  0  0  0
 82170  1  0  0  0
 83171  1  0  0  0
 83172  1  0  0  0
 83173  1  0  0  0
 83 90  1  0  0  0
 84 90  1  0  0  0
 84174  1  0  0  0
 84175  1  0  0  0
 84176  1  0  0  0
 85 90  1  0  0  0
 85177  1  0  0  0
 85178  1  0  0  0
 86 88  1  0  0  0
 86179  1  0  0  0
 86180  1  0  0  0
 87 89  1  0  0  0
 87 93  1  0  0  0
 87181  1  0  0  0
 87182  1  0  0  0
 91183  1  0  0  0
M  ISO  4   1 100  68 101  90 101  91 100
M  END
> <chiral flag>
0

> <version>
0

> <s_m_source_file>
/data/baiqing/PycharmProjects/Reinvent-master-3.2/result/LINK_invent/BTK/process_docking_weight1_custom_product_contain_oxygen_bond_distance_aromatic_linkinvent_7_9_3/rearranged_h_0136.sdf

> <i_m_source_file_index>
12

> <r_mmod_Potential_Energy-OPLS-2005>
37.3856391906738

> <r_mmod_Stretch_Energy-OPLS-2005>
49.1381187438965

> <r_mmod_Bend_Energy-OPLS-2005>
136.324264526367

> <r_mmod_Torsional_Energy-OPLS-2005>
275.014282226562

> <r_mmod_Improper_Torsional_Energy-OPLS-2005>
3.11751055717468

> <r_mmod_Van_der_Waal_Energy-OPLS-2005>
164.7861328125

> <r_mmod_Electrostatic_Energy-OPLS-2005>
-390.679382324219

> <r_mmod_Solvation_Energy-OPLS-2005>
-210.973434448242

> <b_mmod_Minimization_Converged-OPLS-2005>
0

> <r_mmod_RMS_Derivative-OPLS-2005>
3.48970127105713

$$$$
12
                    3D
 Structure written by MMmdl.
176184  0  0  1  0            999 V2000
  -30.6822  -14.5386   20.5113 C   0  0  0  0  0  0
  -30.4160  -12.3291   19.4346 C   0  0  0  0  0  0
  -29.4903  -12.4874   18.2101 C   0  0  0  0  0  0
  -28.0130  -12.3433   18.6262 C   0  0  0  0  0  0
  -27.6510  -13.2108   19.8615 C   0  0  2  0  0  0
  -28.6968  -13.0498   20.9886 C   0  0  0  0  0  0
  -25.2552  -13.8164   20.5682 C   0  0  0  0  0  0
  -24.1814  -13.0449   20.9199 C   0  0  0  0  0  0
  -24.6367  -11.6917   20.8749 C   0  0  0  0  0  0
  -23.9039  -10.4301   21.0410 C   0  0  0  0  0  0
  -24.3594   -9.4221   21.9184 C   0  0  0  0  0  0
  -23.6292   -8.2248   22.0756 C   0  0  0  0  0  0
  -22.4275   -8.0274   21.3545 C   0  0  0  0  0  0
  -21.9903   -9.0243   20.4647 C   0  0  0  0  0  0
  -22.7213  -10.2135   20.3058 C   0  0  0  0  0  0
  -21.6846   -6.0733   22.5278 C   0  0  0  0  0  0
  -21.4011   -6.5636   23.8211 C   0  0  0  0  0  0
  -21.3668   -5.6796   24.9181 C   0  0  0  0  0  0
  -21.6043   -4.3058   24.7230 C   0  0  0  0  0  0
  -21.8817   -3.8156   23.4349 C   0  0  0  0  0  0
  -21.9190   -4.6966   22.3399 C   0  0  0  0  0  0
  -22.7842  -13.5243   21.1879 C   0  0  0  0  0  0
  -22.1659   -4.2158   21.0975 F   0  0  0  0  0  0
  -21.5633   -3.4540   25.7742 F   0  0  0  0  0  0
  -30.0195  -13.3499   20.4193 N   0  0  0  0  0  0
  -26.2968  -12.9340   20.3317 N   0  0  0  0  0  0
  -25.9287  -11.6507   20.5756 N   0  0  0  0  0  0
  -22.0485  -12.8223   22.0422 N   0  0  0  0  0  0
  -25.4287  -15.1889   20.4082 N   0  0  0  0  0  0
  -31.8512  -14.6607   20.1371 O   0  0  0  0  0  0
  -21.6642   -6.8872   21.4241 O   0  0  0  0  0  0
  -22.3539  -14.5567   20.6741 O   0  0  0  0  0  0
  -24.6188  -31.8654   23.2046 C   0  0  0  0  0  0
  -25.9056  -32.4819   23.8359 C   0  0  1  0  0  0
  -27.2375  -27.3832   20.1125 C   0  0  0  0  0  0
  -25.5916  -33.8616   24.2304 N   0  0  0  0  0  0
  -23.4102  -30.4833   21.5479 C   0  0  2  0  0  0
  -24.8614  -28.9472   20.1134 C   0  0  0  0  0  0
  -22.7452  -29.4622   22.4988 C   0  0  0  0  0  0
  -18.0299  -28.1355   22.8495 C   0  0  0  0  0  0
  -24.1518  -36.7292   23.2631 C   0  0  0  0  0  0
  -25.9463  -30.8130   21.3716 C   0  0  0  0  0  0
  -26.0225  -29.4447   20.7169 C   0  0  0  0  0  0
  -27.2126  -28.6714   20.7105 C   0  0  0  0  0  0
  -26.0593  -26.9249   19.4789 C   0  0  0  0  0  0
  -24.8792  -27.6908   19.4865 C   0  0  0  0  0  0
  -23.6209  -29.8117   20.1649 C   0  0  0  0  0  0
  -25.4136  -36.3107   24.0338 C   0  0  1  0  0  0
  -20.5895  -28.3647   23.1338 C   0  0  2  0  0  0
  -20.6805  -26.9382   22.5446 C   0  0  0  0  0  0
  -19.5780  -26.6367   21.5245 C   0  0  0  0  0  0
  -18.1938  -26.7900   22.1623 C   0  0  0  0  0  0
  -19.1544  -28.8821   23.2902 C   0  0  0  0  0  0
  -18.9462  -30.1434   23.8897 C   0  0  0  0  0  0
  -17.6457  -30.6560   24.0564 C   0  0  0  0  0  0
  -25.9069  -34.9477   23.5118 C   0  0  0  0  0  0
  -16.5356  -29.9058   23.6325 C   0  0  0  0  0  0
  -16.7286  -28.6486   23.0332 C   0  0  0  0  0  0
  -26.4470  -31.6608   25.0700 C   0  0  0  0  0  0
  -25.3690  -31.3702   26.1406 C   0  0  0  0  0  0
  -27.0314  -30.3050   24.6098 C   0  0  0  0  0  0
  -27.6060  -32.4324   25.7441 C   0  0  0  0  0  0
  -27.5626  -37.1777   24.8443 C   0  0  0  0  0  0
  -21.4178  -29.2999   22.3729 N   0  0  0  0  0  0
  -26.4312  -37.3805   23.9441 N   0  0  0  0  0  0
  -24.6760  -31.0711   22.0973 N   0  0  0  0  0  0
  -23.4214  -28.8172   23.3045 O   0  0  0  0  0  0
  -28.3903  -26.6065   20.1666 O   0  0  0  0  0  0
  -26.5632  -34.8928   22.4684 O   0  0  0  0  0  0
  -23.5368  -32.1436   23.7406 O   0  0  0  0  0  0
  -31.0033  -19.7660   20.6163 C   0  0  0  0  0  0
  -31.5404  -17.4616   21.2463 C   0  0  0  0  0  0
  -29.3851  -17.9929   20.2583 C   0  0  0  0  0  0
  -31.8936  -18.8232   21.1722 C   0  0  0  0  0  0
  -29.7247  -19.3826   20.1373 C   0  0  0  0  0  0
  -30.2884  -17.0156   20.7689 C   0  0  0  0  0  0
  -29.2312  -21.9379   19.5284 C   0  0  0  0  0  0
  -33.2537  -19.2662   21.6773 C   0  0  0  0  0  0
  -28.0218  -18.7471   17.4659 C   0  0  0  0  0  0
  -26.2353  -21.1989   19.4447 C   0  0  0  0  0  0
  -30.7460  -24.6794   20.4237 C   0  0  0  0  0  0
  -29.1711  -24.7577   22.3398 C   0  0  0  0  0  0
  -29.0354  -22.7656   20.8334 C   0  0  0  0  0  0
  -28.6855  -20.0680   17.9108 C   0  0  0  0  0  0
  -27.3359  -20.3171   20.0791 C   0  0  0  0  0  0
  -28.2617  -25.1605   20.0342 C   0  0  0  0  0  0
  -28.7598  -20.4179   19.4440 C   0  0  0  0  0  0
  -29.3052  -24.3302   20.8615 C   0  0  0  0  0  0
  -29.9210  -15.6195   20.8255 N   0  0  0  0  0  0
  -29.7547  -22.4787   18.5491 O   0  0  0  0  0  0
  -31.4615  -12.4173   19.1329 H   0  0  0  0  0  0
  -30.3132  -11.3314   19.8650 H   0  0  0  0  0  0
  -29.7364  -11.7436   17.4512 H   0  0  0  0  0  0
  -29.6480  -13.4618   17.7462 H   0  0  0  0  0  0
  -27.8359  -11.2897   18.8486 H   0  0  0  0  0  0
  -27.3585  -12.5888   17.7891 H   0  0  0  0  0  0
  -27.6753  -14.2479   19.5273 H   0  0  0  0  0  0
  -28.6838  -12.0316   21.3796 H   0  0  0  0  0  0
  -28.4622  -13.6955   21.8356 H   0  0  0  0  0  0
  -25.2730   -9.5706   22.4762 H   0  0  0  0  0  0
  -24.0013   -7.4644   22.7466 H   0  0  0  0  0  0
  -21.0839   -8.8745   19.8944 H   0  0  0  0  0  0
  -22.3657  -10.9673   19.6174 H   0  0  0  0  0  0
  -21.1999   -7.6138   23.9719 H   0  0  0  0  0  0
  -21.1491   -6.0524   25.9086 H   0  0  0  0  0  0
  -22.0584   -2.7619   23.2845 H   0  0  0  0  0  0
  -22.4094  -11.9865   22.4777 H   0  0  0  0  0  0
  -21.1116  -13.1257   22.2664 H   0  0  0  0  0  0
  -24.6595  -15.8411   20.5105 H   0  0  0  0  0  0
  -26.2718  -15.6251   20.0592 H   0  0  0  0  0  0
  -26.7112  -32.5529   23.1105 H   0  0  0  0  0  0
  -25.0089  -33.9794   25.0460 H   0  0  0  0  0  0
  -22.6985  -31.2981   21.4036 H   0  0  0  0  0  0
  -23.3821  -35.9574   23.3220 H   0  0  0  0  0  0
  -24.3623  -36.8987   22.2058 H   0  0  0  0  0  0
  -23.7220  -37.6447   23.6702 H   0  0  0  0  0  0
  -26.0746  -31.5793   20.6058 H   0  0  0  0  0  0
  -26.8282  -30.8638   21.9985 H   0  0  0  0  0  0
  -28.1048  -29.0451   21.1909 H   0  0  0  0  0  0
  -26.0327  -25.9685   18.9761 H   0  0  0  0  0  0
  -23.9923  -27.3072   19.0019 H   0  0  0  0  0  0
  -23.7186  -30.5813   19.3990 H   0  0  0  0  0  0
  -22.7500  -29.2186   19.8785 H   0  0  0  0  0  0
  -25.1305  -36.1961   25.0831 H   0  0  0  0  0  0
  -20.9981  -28.3226   24.1468 H   0  0  0  0  0  0
  -20.5786  -26.2226   23.3618 H   0  0  0  0  0  0
  -21.6666  -26.7461   22.1201 H   0  0  0  0  0  0
  -19.6950  -25.6289   21.1250 H   0  0  0  0  0  0
  -19.6732  -27.3199   20.6790 H   0  0  0  0  0  0
  -17.4241  -26.6692   21.3984 H   0  0  0  0  0  0
  -18.0272  -26.0015   22.8985 H   0  0  0  0  0  0
  -19.7931  -30.7262   24.2256 H   0  0  0  0  0  0
  -17.5001  -31.6237   24.5158 H   0  0  0  0  0  0
  -15.5351  -30.2949   23.7642 H   0  0  0  0  0  0
  -15.8691  -28.0828   22.7013 H   0  0  0  0  0  0
  -24.5928  -30.6998   25.7693 H   0  0  0  0  0  0
  -24.8778  -32.2835   26.4774 H   0  0  0  0  0  0
  -25.7976  -30.8917   27.0218 H   0  0  0  0  0  0
  -26.2865  -29.6784   24.1175 H   0  0  0  0  0  0
  -27.4117  -29.7322   25.4562 H   0  0  0  0  0  0
  -27.8681  -30.4376   23.9232 H   0  0  0  0  0  0
  -27.2748  -33.3680   26.1964 H   0  0  0  0  0  0
  -28.3865  -32.6795   25.0231 H   0  0  0  0  0  0
  -28.0718  -31.8466   26.5381 H   0  0  0  0  0  0
  -28.2542  -38.0176   24.7673 H   0  0  0  0  0  0
  -28.1235  -36.2721   24.6055 H   0  0  0  0  0  0
  -27.2364  -37.1169   25.8841 H   0  0  0  0  0  0
  -20.9347  -29.8680   21.6910 H   0  0  0  0  0  0
  -26.0192  -38.2867   24.1511 H   0  0  0  0  0  0
  -31.3349  -20.7933   20.5568 H   0  0  0  0  0  0
  -32.2432  -16.7589   21.6719 H   0  0  0  0  0  0
  -28.4250  -17.6465   19.9077 H   0  0  0  0  0  0
  -33.4037  -20.3381   21.5456 H   0  0  0  0  0  0
  -34.0457  -18.7483   21.1357 H   0  0  0  0  0  0
  -33.3610  -19.0377   22.7380 H   0  0  0  0  0  0
  -27.8680  -18.7519   16.3862 H   0  0  0  0  0  0
  -27.0425  -18.5955   17.9182 H   0  0  0  0  0  0
  -28.6437  -17.8790   17.6814 H   0  0  0  0  0  0
  -25.2950  -21.0790   19.9824 H   0  0  0  0  0  0
  -26.0437  -20.9229   18.4077 H   0  0  0  0  0  0
  -26.4777  -22.2618   19.4595 H   0  0  0  0  0  0
  -31.4858  -24.0909   20.9683 H   0  0  0  0  0  0
  -30.9693  -25.7302   20.6139 H   0  0  0  0  0  0
  -30.9078  -24.5158   19.3605 H   0  0  0  0  0  0
  -29.8593  -24.2036   22.9794 H   0  0  0  0  0  0
  -28.1614  -24.5907   22.7173 H   0  0  0  0  0  0
  -29.3963  -25.8163   22.4780 H   0  0  0  0  0  0
  -29.6632  -22.2892   21.5856 H   0  0  0  0  0  0
  -28.0142  -22.6085   21.1754 H   0  0  0  0  0  0
  -28.1548  -20.8628   17.3838 H   0  0  0  0  0  0
  -29.6950  -20.0834   17.4957 H   0  0  0  0  0  0
  -26.9755  -19.2908   20.0468 H   0  0  0  0  0  0
  -27.3994  -20.5347   21.1450 H   0  0  0  0  0  0
  -27.2793  -24.8307   20.3740 H   0  0  0  0  0  0
  -28.3200  -24.9046   18.9764 H   0  0  0  0  0  0
  -28.9446  -15.4164   20.9745 H   0  0  0  0  0  0
  1 25  1  0  0  0
  1 30  2  0  0  0
  1 89  1  0  0  0
  2  3  1  0  0  0
  2 25  1  0  0  0
  2 91  1  0  0  0
  2 92  1  0  0  0
  3  4  1  0  0  0
  3 93  1  0  0  0
  3 94  1  0  0  0
  4  5  1  0  0  0
  4 95  1  0  0  0
  4 96  1  0  0  0
  5  6  1  0  0  0
  5 26  1  0  0  0
  5 97  1  0  0  0
  6 25  1  0  0  0
  6 98  1  0  0  0
  6 99  1  0  0  0
  7  8  2  0  0  0
  7 26  1  0  0  0
  7 29  1  0  0  0
  8  9  1  0  0  0
  8 22  1  0  0  0
  9 10  1  0  0  0
  9 27  2  0  0  0
 10 11  2  0  0  0
 10 15  1  0  0  0
 11 12  1  0  0  0
 11100  1  0  0  0
 12 13  2  0  0  0
 12101  1  0  0  0
 13 14  1  0  0  0
 13 31  1  0  0  0
 14 15  2  0  0  0
 14102  1  0  0  0
 15103  1  0  0  0
 16 17  2  0  0  0
 16 21  1  0  0  0
 16 31  1  0  0  0
 17 18  1  0  0  0
 17104  1  0  0  0
 18 19  2  0  0  0
 18105  1  0  0  0
 19 20  1  0  0  0
 19 24  1  0  0  0
 20 21  2  0  0  0
 20106  1  0  0  0
 21 23  1  0  0  0
 22 28  1  0  0  0
 22 32  2  0  0  0
 26 27  1  0  0  0
 28107  1  0  0  0
 28108  1  0  0  0
 29109  1  0  0  0
 29110  1  0  0  0
 33 34  1  0  0  0
 33 66  1  0  0  0
 33 70  2  0  0  0
 34 36  1  0  0  0
 34 59  1  0  0  0
 34111  1  0  0  0
 35 44  2  0  0  0
 35 45  1  0  0  0
 35 68  1  0  0  0
 36 56  1  0  0  0
 36112  1  0  0  0
 37 39  1  0  0  0
 37 47  1  0  0  0
 37 66  1  0  0  0
 37113  1  0  0  0
 38 43  2  0  0  0
 38 46  1  0  0  0
 38 47  1  0  0  0
 39 64  1  0  0  0
 39 67  2  0  0  0
 40 52  1  0  0  0
 40 53  2  0  0  0
 40 58  1  0  0  0
 41114  1  0  0  0
 41115  1  0  0  0
 41116  1  0  0  0
 41 48  1  0  0  0
 42 43  1  0  0  0
 42 66  1  0  0  0
 42117  1  0  0  0
 42118  1  0  0  0
 43 44  1  0  0  0
 44119  1  0  0  0
 45 46  2  0  0  0
 45120  1  0  0  0
 46121  1  0  0  0
 47122  1  0  0  0
 47123  1  0  0  0
 48 56  1  0  0  0
 48 65  1  0  0  0
 48124  1  0  0  0
 49 50  1  0  0  0
 49 53  1  0  0  0
 49 64  1  0  0  0
 49125  1  0  0  0
 50 51  1  0  0  0
 50126  1  0  0  0
 50127  1  0  0  0
 51 52  1  0  0  0
 51128  1  0  0  0
 51129  1  0  0  0
 52130  1  0  0  0
 52131  1  0  0  0
 53 54  1  0  0  0
 54 55  2  0  0  0
 54132  1  0  0  0
 55 57  1  0  0  0
 55133  1  0  0  0
 56 69  2  0  0  0
 57 58  2  0  0  0
 57134  1  0  0  0
 58135  1  0  0  0
 59 60  1  0  0  0
 59 61  1  0  0  0
 59 62  1  0  0  0
 60136  1  0  0  0
 60137  1  0  0  0
 60138  1  0  0  0
 61139  1  0  0  0
 61140  1  0  0  0
 61141  1  0  0  0
 62142  1  0  0  0
 62143  1  0  0  0
 62144  1  0  0  0
 63 65  1  0  0  0
 63145  1  0  0  0
 63146  1  0  0  0
 63147  1  0  0  0
 64148  1  0  0  0
 65149  1  0  0  0
 68 86  1  0  0  0
 71 74  2  0  0  0
 71 75  1  0  0  0
 71150  1  0  0  0
 72 74  1  0  0  0
 72 76  2  0  0  0
 72151  1  0  0  0
 73 75  2  0  0  0
 73 76  1  0  0  0
 73152  1  0  0  0
 74 78  1  0  0  0
 75 87  1  0  0  0
 76 89  1  0  0  0
 77 83  1  0  0  0
 77 87  1  0  0  0
 77 90  2  0  0  0
 78153  1  0  0  0
 78154  1  0  0  0
 78155  1  0  0  0
 79 84  1  0  0  0
 79156  1  0  0  0
 79157  1  0  0  0
 79158  1  0  0  0
 80 85  1  0  0  0
 80159  1  0  0  0
 80160  1  0  0  0
 80161  1  0  0  0
 81162  1  0  0  0
 81163  1  0  0  0
 81164  1  0  0  0
 81 88  1  0  0  0
 82 88  1  0  0  0
 82165  1  0  0  0
 82166  1  0  0  0
 82167  1  0  0  0
 83 88  1  0  0  0
 83168  1  0  0  0
 83169  1  0  0  0
 84170  1  0  0  0
 84171  1  0  0  0
 84 87  1  0  0  0
 85 87  1  0  0  0
 85172  1  0  0  0
 85173  1  0  0  0
 86 88  1  0  0  0
 86174  1  0  0  0
 86175  1  0  0  0
 89176  1  0  0  0
M  ISO  4   1 100  68 101  86 101  89 100
M  END
> <chiral flag>
0

> <version>
0

> <s_m_source_file>
/data/baiqing/PycharmProjects/Reinvent-master-3.2/result/LINK_invent/BTK/process_docking_weight1_custom_product_contain_oxygen_bond_distance_aromatic_linkinvent_7_9_3/rearranged_h_0136.sdf

> <i_m_source_file_index>
13

> <r_mmod_Potential_Energy-OPLS-2005>
116.937522888184

> <r_mmod_Stretch_Energy-OPLS-2005>
68.750244140625

> <r_mmod_Bend_Energy-OPLS-2005>
131.642700195312

> <r_mmod_Torsional_Energy-OPLS-2005>
225.730819702148

> <r_mmod_Improper_Torsional_Energy-OPLS-2005>
5.28771686553955

> <r_mmod_Van_der_Waal_Energy-OPLS-2005>
167.201919555664

> <r_mmod_Electrostatic_Energy-OPLS-2005>
-304.788208007812

> <r_mmod_Solvation_Energy-OPLS-2005>
-202.812377929688

> <b_mmod_Minimization_Converged-OPLS-2005>
0

> <r_mmod_RMS_Derivative-OPLS-2005>
2.26652240753174

$$$$
13
                    3D
 Structure written by MMmdl.
159167  0  0  1  0            999 V2000
  -30.6243  -14.6906   20.5355 C   0  0  0  0  0  0
  -30.4398  -12.4372   19.4768 C   0  0  0  0  0  0
  -29.5162  -12.5393   18.2395 C   0  0  0  0  0  0
  -28.0347  -12.3681   18.6332 C   0  0  0  0  0  0
  -27.6518  -13.2229   19.8682 C   0  0  2  0  0  0
  -28.6885  -13.0612   20.9987 C   0  0  0  0  0  0
  -25.2546  -13.8197   20.5696 C   0  0  0  0  0  0
  -24.1808  -13.0455   20.9181 C   0  0  0  0  0  0
  -24.6393  -11.6919   20.8729 C   0  0  0  0  0  0
  -23.9066  -10.4301   21.0412 C   0  0  0  0  0  0
  -24.3620   -9.4213   21.9186 C   0  0  0  0  0  0
  -23.6305   -8.2241   22.0751 C   0  0  0  0  0  0
  -22.4280   -8.0283   21.3555 C   0  0  0  0  0  0
  -21.9923   -9.0249   20.4643 C   0  0  0  0  0  0
  -22.7249  -10.2134   20.3058 C   0  0  0  0  0  0
  -21.6848   -6.0742   22.5288 C   0  0  0  0  0  0
  -21.4014   -6.5647   23.8222 C   0  0  0  0  0  0
  -21.3662   -5.6802   24.9184 C   0  0  0  0  0  0
  -21.6046   -4.3064   24.7236 C   0  0  0  0  0  0
  -21.8824   -3.8156   23.4353 C   0  0  0  0  0  0
  -21.9199   -4.6969   22.3414 C   0  0  0  0  0  0
  -22.7833  -13.5234   21.1872 C   0  0  0  0  0  0
  -22.1669   -4.2155   21.0988 F   0  0  0  0  0  0
  -21.5626   -3.4548   25.7747 F   0  0  0  0  0  0
  -30.0032  -13.4563   20.4630 N   0  0  0  0  0  0
  -26.2968  -12.9385   20.3315 N   0  0  0  0  0  0
  -25.9313  -11.6530   20.5714 N   0  0  0  0  0  0
  -22.0489  -12.8193   22.0412 N   0  0  0  0  0  0
  -25.4278  -15.1917   20.4133 N   0  0  0  0  0  0
  -31.7487  -14.8461   20.0457 O   0  0  0  0  0  0
  -21.6644   -6.8879   21.4250 O   0  0  0  0  0  0
  -22.3503  -14.5551   20.6742 O   0  0  0  0  0  0
  -24.6324  -31.8581   23.2025 C   0  0  0  0  0  0
  -25.9174  -32.4761   23.8356 C   0  0  1  0  0  0
  -27.2119  -27.2743   20.1194 C   0  0  0  0  0  0
  -25.6000  -33.8560   24.2315 N   0  0  0  0  0  0
  -23.4273  -30.4863   21.5428 C   0  0  2  0  0  0
  -24.8735  -28.9425   20.1038 C   0  0  0  0  0  0
  -22.7516  -29.4634   22.4882 C   0  0  0  0  0  0
  -18.0303  -28.1373   22.8470 C   0  0  0  0  0  0
  -24.1501  -36.7276   23.2632 C   0  0  0  0  0  0
  -25.9732  -30.7737   21.3829 C   0  0  0  0  0  0
  -26.0432  -29.3982   20.7255 C   0  0  0  0  0  0
  -27.2120  -28.5730   20.7322 C   0  0  0  0  0  0
  -26.0252  -26.9034   19.4426 C   0  0  0  0  0  0
  -24.8693  -27.7031   19.4513 C   0  0  0  0  0  0
  -23.6474  -29.8301   20.1545 C   0  0  0  0  0  0
  -25.4117  -36.3073   24.0343 C   0  0  1  0  0  0
  -20.5912  -28.3707   23.1243 C   0  0  2  0  0  0
  -20.6800  -26.9425   22.5385 C   0  0  0  0  0  0
  -19.5772  -26.6379   21.5194 C   0  0  0  0  0  0
  -18.1949  -26.7916   22.1604 C   0  0  0  0  0  0
  -19.1557  -28.8853   23.2853 C   0  0  0  0  0  0
  -18.9473  -30.1443   23.8886 C   0  0  0  0  0  0
  -17.6473  -30.6572   24.0549 C   0  0  0  0  0  0
  -25.9057  -34.9439   23.5114 C   0  0  0  0  0  0
  -16.5364  -29.9071   23.6310 C   0  0  0  0  0  0
  -16.7290  -28.6481   23.0346 C   0  0  0  0  0  0
  -26.4545  -31.6541   25.0713 C   0  0  0  0  0  0
  -25.3771  -31.3657   26.1428 C   0  0  0  0  0  0
  -27.0390  -30.2967   24.6155 C   0  0  0  0  0  0
  -27.6124  -32.4231   25.7499 C   0  0  0  0  0  0
  -27.5585  -37.1809   24.8468 C   0  0  0  0  0  0
  -21.4224  -29.3066   22.3644 N   0  0  0  0  0  0
  -26.4290  -37.3776   23.9414 N   0  0  0  0  0  0
  -24.6968  -31.0571   22.0990 N   0  0  0  0  0  0
  -23.4229  -28.8163   23.2968 O   0  0  0  0  0  0
  -28.2956  -26.3679   20.2072 O   0  0  0  0  0  0
  -26.5587  -34.8915   22.4655 O   0  0  0  0  0  0
  -23.5482  -32.1399   23.7337 O   0  0  0  0  0  0
  -28.9670  -18.2859   18.2838 C   0  0  0  0  0  0
  -29.3035  -17.1655   19.0647 C   0  0  0  0  0  0
  -28.9890  -19.5879   18.8164 C   0  0  0  0  0  0
  -29.6946  -17.2854   20.4163 C   0  0  0  0  0  0
  -29.7380  -18.6579   20.9427 C   0  0  0  0  0  0
  -29.3663  -19.8295   20.1565 C   0  0  0  0  0  0
  -29.6376  -24.0064   21.6342 C   0  0  0  0  0  0
  -29.8761  -15.9403   21.1932 C   0  0  0  0  0  0
  -28.9076  -23.7694   20.5333 C   0  0  0  0  0  0
  -31.7511  -18.9517   22.4545 C   0  0  0  0  0  0
  -30.2207  -18.9252   22.3669 C   0  0  0  0  0  0
  -28.0584  -24.9248   19.8662 C   0  0  0  0  0  0
  -28.8565  -22.3194   19.8940 C   0  0  0  0  0  0
  -29.4053  -15.8422   22.3660 N   0  0  0  0  0  0
  -29.3757  -21.1611   20.6737 O   0  0  0  0  0  0
  -31.4813  -12.5669   19.1771 H   0  0  0  0  0  0
  -30.3887  -11.4384   19.9135 H   0  0  0  0  0  0
  -29.7979  -11.7927   17.4956 H   0  0  0  0  0  0
  -29.6522  -13.5132   17.7644 H   0  0  0  0  0  0
  -27.8641  -11.3118   18.8445 H   0  0  0  0  0  0
  -27.3898  -12.6172   17.7893 H   0  0  0  0  0  0
  -27.6733  -14.2628   19.5412 H   0  0  0  0  0  0
  -28.7164  -12.0235   21.3356 H   0  0  0  0  0  0
  -28.3901  -13.6267   21.8776 H   0  0  0  0  0  0
  -25.2774   -9.5681   22.4744 H   0  0  0  0  0  0
  -24.0031   -7.4627   22.7458 H   0  0  0  0  0  0
  -21.0870   -8.8765   19.8926 H   0  0  0  0  0  0
  -22.3728  -10.9668   19.6151 H   0  0  0  0  0  0
  -21.1991   -7.6151   23.9725 H   0  0  0  0  0  0
  -21.1487   -6.0530   25.9092 H   0  0  0  0  0  0
  -22.0595   -2.7616   23.2858 H   0  0  0  0  0  0
  -22.4144  -11.9853   22.4786 H   0  0  0  0  0  0
  -21.1094  -13.1173   22.2629 H   0  0  0  0  0  0
  -24.6692  -15.8550   20.5303 H   0  0  0  0  0  0
  -26.2933  -15.6299   20.1256 H   0  0  0  0  0  0
  -26.7246  -32.5437   23.1104 H   0  0  0  0  0  0
  -25.0273  -33.9691   25.0553 H   0  0  0  0  0  0
  -22.7244  -31.3099   21.4011 H   0  0  0  0  0  0
  -23.3770  -35.9596   23.3264 H   0  0  0  0  0  0
  -24.3613  -36.8907   22.2051 H   0  0  0  0  0  0
  -23.7232  -37.6472   23.6645 H   0  0  0  0  0  0
  -26.1098  -31.5317   20.6111 H   0  0  0  0  0  0
  -26.8527  -30.8250   22.0118 H   0  0  0  0  0  0
  -28.1008  -28.9082   21.2482 H   0  0  0  0  0  0
  -25.9502  -25.9733   18.8991 H   0  0  0  0  0  0
  -23.9808  -27.3603   18.9386 H   0  0  0  0  0  0
  -23.7833  -30.6117   19.4058 H   0  0  0  0  0  0
  -22.7644  -29.2717   19.8375 H   0  0  0  0  0  0
  -25.1288  -36.1923   25.0835 H   0  0  0  0  0  0
  -20.9997  -28.3280   24.1364 H   0  0  0  0  0  0
  -20.5702  -26.2320   23.3594 H   0  0  0  0  0  0
  -21.6672  -26.7457   22.1179 H   0  0  0  0  0  0
  -19.6939  -25.6282   21.1243 H   0  0  0  0  0  0
  -19.6689  -27.3168   20.6704 H   0  0  0  0  0  0
  -17.4224  -26.6651   21.4008 H   0  0  0  0  0  0
  -18.0352  -26.0049   22.8989 H   0  0  0  0  0  0
  -19.7946  -30.7254   24.2267 H   0  0  0  0  0  0
  -17.5019  -31.6249   24.5151 H   0  0  0  0  0  0
  -15.5356  -30.2961   23.7633 H   0  0  0  0  0  0
  -15.8692  -28.0787   22.7068 H   0  0  0  0  0  0
  -24.6014  -30.6919   25.7766 H   0  0  0  0  0  0
  -24.8872  -32.2793   26.4806 H   0  0  0  0  0  0
  -25.8117  -30.8904   27.0230 H   0  0  0  0  0  0
  -26.2959  -29.6692   24.1221 H   0  0  0  0  0  0
  -27.4146  -29.7241   25.4643 H   0  0  0  0  0  0
  -27.8807  -30.4252   23.9345 H   0  0  0  0  0  0
  -27.2791  -33.3549   26.2073 H   0  0  0  0  0  0
  -28.3972  -32.6730   25.0347 H   0  0  0  0  0  0
  -28.0738  -31.8316   26.5417 H   0  0  0  0  0  0
  -28.2598  -38.0120   24.7541 H   0  0  0  0  0  0
  -28.1097  -36.2652   24.6262 H   0  0  0  0  0  0
  -27.2306  -37.1418   25.8875 H   0  0  0  0  0  0
  -20.9411  -29.8832   21.6887 H   0  0  0  0  0  0
  -26.0168  -38.2852   24.1402 H   0  0  0  0  0  0
  -28.6639  -18.1381   17.2564 H   0  0  0  0  0  0
  -29.2247  -16.1868   18.6092 H   0  0  0  0  0  0
  -28.7102  -20.3987   18.1591 H   0  0  0  0  0  0
  -29.6709  -24.9863   22.0894 H   0  0  0  0  0  0
  -30.2100  -23.2175   22.1012 H   0  0  0  0  0  0
  -32.1593  -19.7810   21.8743 H   0  0  0  0  0  0
  -32.1885  -18.0263   22.0771 H   0  0  0  0  0  0
  -32.0800  -19.0784   23.4872 H   0  0  0  0  0  0
  -29.8189  -18.2019   23.0715 H   0  0  0  0  0  0
  -29.8267  -19.8780   22.7181 H   0  0  0  0  0  0
  -27.0393  -24.6471   20.1342 H   0  0  0  0  0  0
  -28.1414  -24.8204   18.7828 H   0  0  0  0  0  0
  -29.4023  -22.3866   18.9526 H   0  0  0  0  0  0
  -27.8159  -22.1155   19.6387 H   0  0  0  0  0  0
  -28.9369  -16.6973   22.6384 H   0  0  0  0  0  0
  1 25  1  0  0  0
  1 30  2  0  0  0
  1 78  1  0  0  0
  2  3  1  0  0  0
  2 25  1  0  0  0
  2 86  1  0  0  0
  2 87  1  0  0  0
  3  4  1  0  0  0
  3 88  1  0  0  0
  3 89  1  0  0  0
  4  5  1  0  0  0
  4 90  1  0  0  0
  4 91  1  0  0  0
  5  6  1  0  0  0
  5 26  1  0  0  0
  5 92  1  0  0  0
  6 25  1  0  0  0
  6 93  1  0  0  0
  6 94  1  0  0  0
  7  8  2  0  0  0
  7 26  1  0  0  0
  7 29  1  0  0  0
  8  9  1  0  0  0
  8 22  1  0  0  0
  9 10  1  0  0  0
  9 27  2  0  0  0
 10 11  2  0  0  0
 10 15  1  0  0  0
 11 12  1  0  0  0
 11 95  1  0  0  0
 12 13  2  0  0  0
 12 96  1  0  0  0
 13 14  1  0  0  0
 13 31  1  0  0  0
 14 15  2  0  0  0
 14 97  1  0  0  0
 15 98  1  0  0  0
 16 17  2  0  0  0
 16 21  1  0  0  0
 16 31  1  0  0  0
 17 18  1  0  0  0
 17 99  1  0  0  0
 18 19  2  0  0  0
 18100  1  0  0  0
 19 20  1  0  0  0
 19 24  1  0  0  0
 20 21  2  0  0  0
 20101  1  0  0  0
 21 23  1  0  0  0
 22 28  1  0  0  0
 22 32  2  0  0  0
 26 27  1  0  0  0
 28102  1  0  0  0
 28103  1  0  0  0
 29104  1  0  0  0
 29105  1  0  0  0
 33 34  1  0  0  0
 33 66  1  0  0  0
 33 70  2  0  0  0
 34 36  1  0  0  0
 34 59  1  0  0  0
 34106  1  0  0  0
 35 44  2  0  0  0
 35 45  1  0  0  0
 35 68  1  0  0  0
 36 56  1  0  0  0
 36107  1  0  0  0
 37 39  1  0  0  0
 37 47  1  0  0  0
 37 66  1  0  0  0
 37108  1  0  0  0
 38 43  2  0  0  0
 38 46  1  0  0  0
 38 47  1  0  0  0
 39 64  1  0  0  0
 39 67  2  0  0  0
 40 52  1  0  0  0
 40 53  2  0  0  0
 40 58  1  0  0  0
 41109  1  0  0  0
 41110  1  0  0  0
 41111  1  0  0  0
 41 48  1  0  0  0
 42 43  1  0  0  0
 42 66  1  0  0  0
 42112  1  0  0  0
 42113  1  0  0  0
 43 44  1  0  0  0
 44114  1  0  0  0
 45 46  2  0  0  0
 45115  1  0  0  0
 46116  1  0  0  0
 47117  1  0  0  0
 47118  1  0  0  0
 48 56  1  0  0  0
 48 65  1  0  0  0
 48119  1  0  0  0
 49 50  1  0  0  0
 49 53  1  0  0  0
 49 64  1  0  0  0
 49120  1  0  0  0
 50 51  1  0  0  0
 50121  1  0  0  0
 50122  1  0  0  0
 51 52  1  0  0  0
 51123  1  0  0  0
 51124  1  0  0  0
 52125  1  0  0  0
 52126  1  0  0  0
 53 54  1  0  0  0
 54 55  2  0  0  0
 54127  1  0  0  0
 55 57  1  0  0  0
 55128  1  0  0  0
 56 69  2  0  0  0
 57 58  2  0  0  0
 57129  1  0  0  0
 58130  1  0  0  0
 59 60  1  0  0  0
 59 61  1  0  0  0
 59 62  1  0  0  0
 60131  1  0  0  0
 60132  1  0  0  0
 60133  1  0  0  0
 61134  1  0  0  0
 61135  1  0  0  0
 61136  1  0  0  0
 62137  1  0  0  0
 62138  1  0  0  0
 62139  1  0  0  0
 63 65  1  0  0  0
 63140  1  0  0  0
 63141  1  0  0  0
 63142  1  0  0  0
 64143  1  0  0  0
 65144  1  0  0  0
 68 82  1  0  0  0
 71 72  2  0  0  0
 71 73  1  0  0  0
 71145  1  0  0  0
 72 74  1  0  0  0
 72146  1  0  0  0
 73 76  2  0  0  0
 73147  1  0  0  0
 74 75  2  0  0  0
 74 78  1  0  0  0
 75 76  1  0  0  0
 75 81  1  0  0  0
 76 85  1  0  0  0
 77 79  2  0  0  0
 77148  1  0  0  0
 77149  1  0  0  0
 78 84  2  0  0  0
 79 82  1  0  0  0
 79 83  1  0  0  0
 80 81  1  0  0  0
 80150  1  0  0  0
 80151  1  0  0  0
 80152  1  0  0  0
 81153  1  0  0  0
 81154  1  0  0  0
 82155  1  0  0  0
 82156  1  0  0  0
 83 85  1  0  0  0
 83157  1  0  0  0
 83158  1  0  0  0
 84159  1  0  0  0
M  ISO  4   1 100  68 101  78 100  82 101
M  END
> <chiral flag>
0

> <version>
0

> <s_m_source_file>
/data/baiqing/PycharmProjects/Reinvent-master-3.2/result/LINK_invent/BTK/process_docking_weight1_custom_product_contain_oxygen_bond_distance_aromatic_linkinvent_7_9_3/rearranged_h_0136.sdf

> <i_m_source_file_index>
14

> <r_mmod_Potential_Energy-OPLS-2005>
307.503173828125

> <r_mmod_Stretch_Energy-OPLS-2005>
130.678970336914

> <r_mmod_Bend_Energy-OPLS-2005>
162.497894287109

> <r_mmod_Torsional_Energy-OPLS-2005>
204.777557373047

> <r_mmod_Improper_Torsional_Energy-OPLS-2005>
2.70981478691101

> <r_mmod_Van_der_Waal_Energy-OPLS-2005>
150.308319091797

> <r_mmod_Electrostatic_Energy-OPLS-2005>
-217.031921386719

> <r_mmod_Solvation_Energy-OPLS-2005>
-196.100158691406

> <b_mmod_Minimization_Converged-OPLS-2005>
0

> <r_mmod_RMS_Derivative-OPLS-2005>
2.37227344512939

$$$$
14
                    3D
 Structure written by MMmdl.
168176  0  0  1  0            999 V2000
  -30.7133  -14.4597   20.6360 C   0  0  0  0  0  0
  -30.4294  -12.3156   19.4299 C   0  0  0  0  0  0
  -29.5006  -12.5205   18.2152 C   0  0  0  0  0  0
  -28.0223  -12.3720   18.6250 C   0  0  0  0  0  0
  -27.6690  -13.2060   19.8846 C   0  0  2  0  0  0
  -28.7060  -12.9738   21.0077 C   0  0  0  0  0  0
  -25.2624  -13.8163   20.5669 C   0  0  0  0  0  0
  -24.1860  -13.0451   20.9146 C   0  0  0  0  0  0
  -24.6406  -11.6909   20.8716 C   0  0  0  0  0  0
  -23.9066  -10.4298   21.0392 C   0  0  0  0  0  0
  -24.3611   -9.4220   21.9180 C   0  0  0  0  0  0
  -23.6288   -8.2255   22.0758 C   0  0  0  0  0  0
  -22.4272   -8.0288   21.3542 C   0  0  0  0  0  0
  -21.9910   -9.0255   20.4647 C   0  0  0  0  0  0
  -22.7235  -10.2139   20.3050 C   0  0  0  0  0  0
  -21.6856   -6.0740   22.5268 C   0  0  0  0  0  0
  -21.4016   -6.5637   23.8203 C   0  0  0  0  0  0
  -21.3660   -5.6790   24.9172 C   0  0  0  0  0  0
  -21.6045   -4.3054   24.7224 C   0  0  0  0  0  0
  -21.8821   -3.8146   23.4341 C   0  0  0  0  0  0
  -21.9193   -4.6966   22.3394 C   0  0  0  0  0  0
  -22.7887  -13.5247   21.1823 C   0  0  0  0  0  0
  -22.1661   -4.2149   21.0972 F   0  0  0  0  0  0
  -21.5639   -3.4535   25.7738 F   0  0  0  0  0  0
  -30.0474  -13.2811   20.4752 N   0  0  0  0  0  0
  -26.3062  -12.9328   20.3388 N   0  0  0  0  0  0
  -25.9332  -11.6485   20.5759 N   0  0  0  0  0  0
  -22.0527  -12.8233   22.0373 N   0  0  0  0  0  0
  -25.4396  -15.1880   20.4090 N   0  0  0  0  0  0
  -31.7713  -14.7169   20.0519 O   0  0  0  0  0  0
  -21.6640   -6.8883   21.4228 O   0  0  0  0  0  0
  -22.3570  -14.5567   20.6695 O   0  0  0  0  0  0
  -24.6167  -31.8653   23.2098 C   0  0  0  0  0  0
  -25.9053  -32.4810   23.8393 C   0  0  1  0  0  0
  -27.2405  -27.3960   20.1002 C   0  0  0  0  0  0
  -25.5889  -33.8598   24.2318 N   0  0  0  0  0  0
  -23.4062  -30.4852   21.5507 C   0  0  2  0  0  0
  -24.8556  -28.9511   20.1099 C   0  0  0  0  0  0
  -22.7426  -29.4609   22.4998 C   0  0  0  0  0  0
  -18.0258  -28.1354   22.8480 C   0  0  0  0  0  0
  -24.1487  -36.7304   23.2635 C   0  0  0  0  0  0
  -25.9383  -30.8180   21.3708 C   0  0  0  0  0  0
  -26.0161  -29.4508   20.7132 C   0  0  0  0  0  0
  -27.2050  -28.6806   20.7055 C   0  0  0  0  0  0
  -26.0571  -26.9274   19.4771 C   0  0  0  0  0  0
  -24.8737  -27.6921   19.4875 C   0  0  0  0  0  0
  -23.6172  -29.8214   20.1636 C   0  0  0  0  0  0
  -25.4119  -36.3100   24.0334 C   0  0  1  0  0  0
  -20.5861  -28.3626   23.1327 C   0  0  2  0  0  0
  -20.6760  -26.9362   22.5419 C   0  0  0  0  0  0
  -19.5752  -26.6372   21.5188 C   0  0  0  0  0  0
  -18.1914  -26.7904   22.1590 C   0  0  0  0  0  0
  -19.1516  -28.8817   23.2886 C   0  0  0  0  0  0
  -18.9457  -30.1424   23.8889 C   0  0  0  0  0  0
  -17.6463  -30.6573   24.0545 C   0  0  0  0  0  0
  -25.9043  -34.9465   23.5129 C   0  0  0  0  0  0
  -16.5349  -29.9068   23.6319 C   0  0  0  0  0  0
  -16.7253  -28.6482   23.0346 C   0  0  0  0  0  0
  -26.4480  -31.6601   25.0727 C   0  0  0  0  0  0
  -25.3746  -31.3690   26.1467 C   0  0  0  0  0  0
  -27.0315  -30.3037   24.6117 C   0  0  0  0  0  0
  -27.6047  -32.4330   25.7505 C   0  0  0  0  0  0
  -27.5591  -37.1810   24.8466 C   0  0  0  0  0  0
  -21.4149  -29.2989   22.3744 N   0  0  0  0  0  0
  -26.4308  -37.3783   23.9411 N   0  0  0  0  0  0
  -24.6715  -31.0705   22.1022 N   0  0  0  0  0  0
  -23.4195  -28.8140   23.3033 O   0  0  0  0  0  0
  -28.4195  -26.6613   20.1570 O   0  0  0  0  0  0
  -26.5598  -34.8922   22.4679 O   0  0  0  0  0  0
  -23.5367  -32.1423   23.7487 O   0  0  0  0  0  0
  -30.3133  -18.9474   22.5198 C   0  0  0  0  0  0
  -30.4296  -17.5367   22.5590 C   0  0  0  0  0  0
  -29.6314  -18.8232   20.1988 C   0  0  0  0  0  0
  -29.9094  -19.6158   21.3395 C   0  0  0  0  0  0
  -30.1568  -16.7533   21.4152 C   0  0  0  0  0  0
  -29.7524  -17.4134   20.2294 C   0  0  0  0  0  0
  -32.3282  -21.8325   22.8312 C   0  0  0  0  0  0
  -31.1525  -23.7938   18.7114 C   0  0  0  0  0  0
  -31.7684  -21.1919   19.8035 C   0  0  0  0  0  0
  -29.7067  -21.1543   21.3209 C   0  0  0  0  0  0
  -31.6930  -22.7501   21.7702 C   0  0  0  0  0  0
  -29.5030  -24.4244   20.5164 C   0  0  0  0  0  0
  -28.4662  -25.2814   19.7160 C   0  0  0  0  0  0
  -30.1634  -23.2141   19.7567 C   0  0  2  0  0  0
  -30.8204  -22.0705   20.6674 C   0  0  1  0  0  0
  -30.1642  -15.3247   21.5115 N   0  0  0  0  0  0
  -29.4199  -16.6961   19.1288 F   0  0  0  0  0  0
  -31.4733  -12.4217   19.1314 H   0  0  0  0  0  0
  -30.3347  -11.2994   19.8149 H   0  0  0  0  0  0
  -29.7403  -11.8016   17.4308 H   0  0  0  0  0  0
  -29.6668  -13.5103   17.7868 H   0  0  0  0  0  0
  -27.8377  -11.3145   18.8197 H   0  0  0  0  0  0
  -27.3693  -12.6455   17.7944 H   0  0  0  0  0  0
  -27.7189  -14.2563   19.5947 H   0  0  0  0  0  0
  -28.6802  -11.9347   21.3392 H   0  0  0  0  0  0
  -28.4453  -13.5592   21.8894 H   0  0  0  0  0  0
  -25.2758   -9.5702   22.4756 H   0  0  0  0  0  0
  -23.9997   -7.4657   22.7484 H   0  0  0  0  0  0
  -21.0845   -8.8769   19.8952 H   0  0  0  0  0  0
  -22.3685  -10.9676   19.6158 H   0  0  0  0  0  0
  -21.2000   -7.6142   23.9706 H   0  0  0  0  0  0
  -21.1486   -6.0525   25.9077 H   0  0  0  0  0  0
  -22.0601   -2.7606   23.2837 H   0  0  0  0  0  0
  -22.4122  -11.9857   22.4709 H   0  0  0  0  0  0
  -21.1164  -13.1286   22.2622 H   0  0  0  0  0  0
  -24.6838  -15.8554   20.5227 H   0  0  0  0  0  0
  -26.3074  -15.6172   20.1108 H   0  0  0  0  0  0
  -26.7110  -32.5514   23.1152 H   0  0  0  0  0  0
  -25.0042  -33.9753   25.0468 H   0  0  0  0  0  0
  -22.6932  -31.3017   21.4141 H   0  0  0  0  0  0
  -23.3758  -35.9615   23.3299 H   0  0  0  0  0  0
  -24.3591  -36.8926   22.2049 H   0  0  0  0  0  0
  -23.7242  -37.6502   23.6664 H   0  0  0  0  0  0
  -26.0547  -31.5903   20.6098 H   0  0  0  0  0  0
  -26.8233  -30.8670   21.9941 H   0  0  0  0  0  0
  -28.0972  -29.0607   21.1853 H   0  0  0  0  0  0
  -26.0170  -25.9726   18.9745 H   0  0  0  0  0  0
  -23.9827  -27.3083   19.0080 H   0  0  0  0  0  0
  -23.7248  -30.5999   19.4061 H   0  0  0  0  0  0
  -22.7403  -29.2398   19.8705 H   0  0  0  0  0  0
  -25.1302  -36.1950   25.0826 H   0  0  0  0  0  0
  -20.9924  -28.3216   24.1467 H   0  0  0  0  0  0
  -20.5655  -26.2236   23.3607 H   0  0  0  0  0  0
  -21.6650  -26.7423   22.1234 H   0  0  0  0  0  0
  -19.6914  -25.6282   21.1224 H   0  0  0  0  0  0
  -19.6721  -27.3184   20.6717 H   0  0  0  0  0  0
  -17.4196  -26.6651   21.3966 H   0  0  0  0  0  0
  -18.0292  -26.0034   22.8985 H   0  0  0  0  0  0
  -19.7944  -30.7195   24.2316 H   0  0  0  0  0  0
  -17.5031  -31.6277   24.5112 H   0  0  0  0  0  0
  -15.5352  -30.2968   23.7678 H   0  0  0  0  0  0
  -15.8642  -28.0812   22.7073 H   0  0  0  0  0  0
  -24.5998  -30.6930   25.7825 H   0  0  0  0  0  0
  -24.8839  -32.2818   26.4844 H   0  0  0  0  0  0
  -25.8109  -30.8962   27.0276 H   0  0  0  0  0  0
  -26.2834  -29.6805   24.1181 H   0  0  0  0  0  0
  -27.4076  -29.7269   25.4583 H   0  0  0  0  0  0
  -27.8696  -30.4351   23.9265 H   0  0  0  0  0  0
  -27.2649  -33.3659   26.2022 H   0  0  0  0  0  0
  -28.3880  -32.6836   25.0339 H   0  0  0  0  0  0
  -28.0657  -31.8475   26.5474 H   0  0  0  0  0  0
  -28.2598  -38.0120   24.7532 H   0  0  0  0  0  0
  -28.1102  -36.2655   24.6271 H   0  0  0  0  0  0
  -27.2304  -37.1424   25.8865 H   0  0  0  0  0  0
  -20.9311  -29.8737   21.6992 H   0  0  0  0  0  0
  -26.0198  -38.2850   24.1432 H   0  0  0  0  0  0
  -30.5089  -19.5092   23.4219 H   0  0  0  0  0  0
  -30.7200  -17.0580   23.4838 H   0  0  0  0  0  0
  -29.3027  -19.2944   19.2856 H   0  0  0  0  0  0
  -33.0649  -22.3873   23.4152 H   0  0  0  0  0  0
  -32.8415  -20.9743   22.4005 H   0  0  0  0  0  0
  -31.5848  -21.4652   23.5390 H   0  0  0  0  0  0
  -30.7167  -24.6054   18.1325 H   0  0  0  0  0  0
  -31.4578  -23.0467   17.9786 H   0  0  0  0  0  0
  -32.0546  -24.1862   19.1816 H   0  0  0  0  0  0
  -32.2031  -20.3652   20.3637 H   0  0  0  0  0  0
  -32.6236  -21.7466   19.4194 H   0  0  0  0  0  0
  -31.2472  -20.7616   18.9478 H   0  0  0  0  0  0
  -29.4950  -21.4927   22.3351 H   0  0  0  0  0  0
  -28.7636  -21.3117   20.7966 H   0  0  0  0  0  0
  -32.4958  -23.3091   21.2882 H   0  0  0  0  0  0
  -31.1137  -23.4914   22.3155 H   0  0  0  0  0  0
  -29.0083  -24.0644   21.4192 H   0  0  0  0  0  0
  -30.2954  -25.0904   20.8614 H   0  0  0  0  0  0
  -27.5095  -24.7735   19.8186 H   0  0  0  0  0  0
  -28.6975  -25.2961   18.6526 H   0  0  0  0  0  0
  -29.3719  -22.7368   19.1765 H   0  0  0  0  0  0
  -29.4628  -14.9287   22.1175 H   0  0  0  0  0  0
  1 25  1  0  0  0
  1 30  2  0  0  0
  1 86  1  0  0  0
  2  3  1  0  0  0
  2 25  1  0  0  0
  2 88  1  0  0  0
  2 89  1  0  0  0
  3  4  1  0  0  0
  3 90  1  0  0  0
  3 91  1  0  0  0
  4  5  1  0  0  0
  4 92  1  0  0  0
  4 93  1  0  0  0
  5  6  1  0  0  0
  5 26  1  0  0  0
  5 94  1  0  0  0
  6 25  1  0  0  0
  6 95  1  0  0  0
  6 96  1  0  0  0
  7  8  2  0  0  0
  7 26  1  0  0  0
  7 29  1  0  0  0
  8  9  1  0  0  0
  8 22  1  0  0  0
  9 10  1  0  0  0
  9 27  2  0  0  0
 10 11  2  0  0  0
 10 15  1  0  0  0
 11 12  1  0  0  0
 11 97  1  0  0  0
 12 13  2  0  0  0
 12 98  1  0  0  0
 13 14  1  0  0  0
 13 31  1  0  0  0
 14 15  2  0  0  0
 14 99  1  0  0  0
 15100  1  0  0  0
 16 17  2  0  0  0
 16 21  1  0  0  0
 16 31  1  0  0  0
 17 18  1  0  0  0
 17101  1  0  0  0
 18 19  2  0  0  0
 18102  1  0  0  0
 19 20  1  0  0  0
 19 24  1  0  0  0
 20 21  2  0  0  0
 20103  1  0  0  0
 21 23  1  0  0  0
 22 28  1  0  0  0
 22 32  2  0  0  0
 26 27  1  0  0  0
 28104  1  0  0  0
 28105  1  0  0  0
 29106  1  0  0  0
 29107  1  0  0  0
 33 34  1  0  0  0
 33 66  1  0  0  0
 33 70  2  0  0  0
 34 36  1  0  0  0
 34 59  1  0  0  0
 34108  1  0  0  0
 35 44  2  0  0  0
 35 45  1  0  0  0
 35 68  1  0  0  0
 36 56  1  0  0  0
 36109  1  0  0  0
 37 39  1  0  0  0
 37 47  1  0  0  0
 37 66  1  0  0  0
 37110  1  0  0  0
 38 43  2  0  0  0
 38 46  1  0  0  0
 38 47  1  0  0  0
 39 64  1  0  0  0
 39 67  2  0  0  0
 40 52  1  0  0  0
 40 53  2  0  0  0
 40 58  1  0  0  0
 41111  1  0  0  0
 41112  1  0  0  0
 41113  1  0  0  0
 41 48  1  0  0  0
 42 43  1  0  0  0
 42 66  1  0  0  0
 42114  1  0  0  0
 42115  1  0  0  0
 43 44  1  0  0  0
 44116  1  0  0  0
 45 46  2  0  0  0
 45117  1  0  0  0
 46118  1  0  0  0
 47119  1  0  0  0
 47120  1  0  0  0
 48 56  1  0  0  0
 48 65  1  0  0  0
 48121  1  0  0  0
 49 50  1  0  0  0
 49 53  1  0  0  0
 49 64  1  0  0  0
 49122  1  0  0  0
 50 51  1  0  0  0
 50123  1  0  0  0
 50124  1  0  0  0
 51 52  1  0  0  0
 51125  1  0  0  0
 51126  1  0  0  0
 52127  1  0  0  0
 52128  1  0  0  0
 53 54  1  0  0  0
 54 55  2  0  0  0
 54129  1  0  0  0
 55 57  1  0  0  0
 55130  1  0  0  0
 56 69  2  0  0  0
 57 58  2  0  0  0
 57131  1  0  0  0
 58132  1  0  0  0
 59 60  1  0  0  0
 59 61  1  0  0  0
 59 62  1  0  0  0
 60133  1  0  0  0
 60134  1  0  0  0
 60135  1  0  0  0
 61136  1  0  0  0
 61137  1  0  0  0
 61138  1  0  0  0
 62139  1  0  0  0
 62140  1  0  0  0
 62141  1  0  0  0
 63 65  1  0  0  0
 63142  1  0  0  0
 63143  1  0  0  0
 63144  1  0  0  0
 64145  1  0  0  0
 65146  1  0  0  0
 68 83  1  0  0  0
 71 72  2  0  0  0
 71 74  1  0  0  0
 71147  1  0  0  0
 72 75  1  0  0  0
 72148  1  0  0  0
 73 74  2  0  0  0
 73 76  1  0  0  0
 73149  1  0  0  0
 74 80  1  0  0  0
 75 76  2  0  0  0
 75 86  1  0  0  0
 76 87  1  0  0  0
 77 81  1  0  0  0
 77150  1  0  0  0
 77151  1  0  0  0
 77152  1  0  0  0
 78153  1  0  0  0
 78154  1  0  0  0
 78155  1  0  0  0
 78 84  1  0  0  0
 79156  1  0  0  0
 79157  1  0  0  0
 79158  1  0  0  0
 79 85  1  0  0  0
 80 85  1  0  0  0
 80159  1  0  0  0
 80160  1  0  0  0
 81 85  1  0  0  0
 81161  1  0  0  0
 81162  1  0  0  0
 82 83  1  0  0  0
 82 84  1  0  0  0
 82163  1  0  0  0
 82164  1  0  0  0
 83165  1  0  0  0
 83166  1  0  0  0
 84 85  1  0  0  0
 84167  1  0  0  0
 86168  1  0  0  0
M  ISO  4   1 100  68 101  83 101  86 100
M  END
> <chiral flag>
0

> <version>
0

> <s_m_source_file>
/data/baiqing/PycharmProjects/Reinvent-master-3.2/result/LINK_invent/BTK/process_docking_weight1_custom_product_contain_oxygen_bond_distance_aromatic_linkinvent_7_9_3/rearranged_h_0136.sdf

> <i_m_source_file_index>
15

> <r_mmod_Potential_Energy-OPLS-2005>
18.0902061462402

> <r_mmod_Stretch_Energy-OPLS-2005>
57.1995849609375

> <r_mmod_Bend_Energy-OPLS-2005>
120.768424987793

> <r_mmod_Torsional_Energy-OPLS-2005>
257.656219482422

> <r_mmod_Improper_Torsional_Energy-OPLS-2005>
3.59111499786377

> <r_mmod_Van_der_Waal_Energy-OPLS-2005>
165.788345336914

> <r_mmod_Electrostatic_Energy-OPLS-2005>
-408.9296875

> <r_mmod_Solvation_Energy-OPLS-2005>
-192.582458496094

> <b_mmod_Minimization_Converged-OPLS-2005>
0

> <r_mmod_RMS_Derivative-OPLS-2005>
3.05330204963684

$$$$
15
                    3D
 Structure written by MMmdl.
160168  0  0  1  0            999 V2000
  -30.6159  -14.6104   20.5240 C   0  0  0  0  0  0
  -30.4381  -12.3793   19.4442 C   0  0  0  0  0  0
  -29.5096  -12.5156   18.2169 C   0  0  0  0  0  0
  -28.0300  -12.3545   18.6242 C   0  0  0  0  0  0
  -27.6577  -13.2082   19.8686 C   0  0  2  0  0  0
  -28.7006  -13.0282   20.9955 C   0  0  0  0  0  0
  -25.2569  -13.8165   20.5667 C   0  0  0  0  0  0
  -24.1829  -13.0449   20.9181 C   0  0  0  0  0  0
  -24.6380  -11.6917   20.8701 C   0  0  0  0  0  0
  -23.9032  -10.4317   21.0383 C   0  0  0  0  0  0
  -24.3595   -9.4234   21.9168 C   0  0  0  0  0  0
  -23.6258   -8.2279   22.0751 C   0  0  0  0  0  0
  -22.4239   -8.0311   21.3559 C   0  0  0  0  0  0
  -21.9865   -9.0281   20.4652 C   0  0  0  0  0  0
  -22.7216  -10.2147   20.3053 C   0  0  0  0  0  0
  -21.6869   -6.0718   22.5266 C   0  0  0  0  0  0
  -21.4059   -6.5619   23.8201 C   0  0  0  0  0  0
  -21.3645   -5.6765   24.9154 C   0  0  0  0  0  0
  -21.6021   -4.3030   24.7212 C   0  0  0  0  0  0
  -21.8823   -3.8129   23.4330 C   0  0  0  0  0  0
  -21.9205   -4.6947   22.3389 C   0  0  0  0  0  0
  -22.7851  -13.5270   21.1819 C   0  0  0  0  0  0
  -22.1663   -4.2125   21.0953 F   0  0  0  0  0  0
  -21.5590   -3.4507   25.7730 F   0  0  0  0  0  0
  -30.0196  -13.3795   20.4425 N   0  0  0  0  0  0
  -26.2996  -12.9328   20.3324 N   0  0  0  0  0  0
  -25.9311  -11.6490   20.5731 N   0  0  0  0  0  0
  -22.0468  -12.8310   22.0387 N   0  0  0  0  0  0
  -25.4325  -15.1884   20.4067 N   0  0  0  0  0  0
  -31.7569  -14.8084   20.0982 O   0  0  0  0  0  0
  -21.6635   -6.8886   21.4240 O   0  0  0  0  0  0
  -22.3572  -14.5563   20.6658 O   0  0  0  0  0  0
  -24.6239  -31.8623   23.2083 C   0  0  0  0  0  0
  -25.9097  -32.4777   23.8395 C   0  0  1  0  0  0
  -27.2093  -27.3394   20.1066 C   0  0  0  0  0  0
  -25.5901  -33.8572   24.2308 N   0  0  0  0  0  0
  -23.4151  -30.4899   21.5536 C   0  0  2  0  0  0
  -24.8550  -28.9510   20.1162 C   0  0  0  0  0  0
  -22.7441  -29.4629   22.4973 C   0  0  0  0  0  0
  -18.0297  -28.1379   22.8488 C   0  0  0  0  0  0
  -24.1479  -36.7306   23.2623 C   0  0  0  0  0  0
  -25.9552  -30.7973   21.3783 C   0  0  0  0  0  0
  -26.0258  -29.4281   20.7178 C   0  0  0  0  0  0
  -27.2064  -28.6320   20.7086 C   0  0  0  0  0  0
  -26.0185  -26.9161   19.4711 C   0  0  0  0  0  0
  -24.8506  -27.6981   19.4874 C   0  0  0  0  0  0
  -23.6259  -29.8339   20.1652 C   0  0  0  0  0  0
  -25.4085  -36.3068   24.0328 C   0  0  1  0  0  0
  -20.5890  -28.3669   23.1277 C   0  0  2  0  0  0
  -20.6797  -26.9390   22.5400 C   0  0  0  0  0  0
  -19.5780  -26.6374   21.5203 C   0  0  0  0  0  0
  -18.1955  -26.7922   22.1608 C   0  0  0  0  0  0
  -19.1554  -28.8836   23.2877 C   0  0  0  0  0  0
  -18.9464  -30.1442   23.8911 C   0  0  0  0  0  0
  -17.6469  -30.6554   24.0575 C   0  0  0  0  0  0
  -25.9039  -34.9445   23.5112 C   0  0  0  0  0  0
  -16.5359  -29.9069   23.6313 C   0  0  0  0  0  0
  -16.7287  -28.6479   23.0326 C   0  0  0  0  0  0
  -26.4459  -31.6583   25.0759 C   0  0  0  0  0  0
  -25.3688  -31.3754   26.1503 C   0  0  0  0  0  0
  -27.0295  -30.3003   24.6216 C   0  0  0  0  0  0
  -27.6048  -32.4291   25.7511 C   0  0  0  0  0  0
  -27.5579  -37.1761   24.8409 C   0  0  0  0  0  0
  -21.4161  -29.3023   22.3681 N   0  0  0  0  0  0
  -26.4249  -37.3770   23.9426 N   0  0  0  0  0  0
  -24.6843  -31.0651   22.1042 N   0  0  0  0  0  0
  -23.4170  -28.8164   23.3030 O   0  0  0  0  0  0
  -28.3325  -26.5061   20.1205 O   0  0  0  0  0  0
  -26.5609  -34.8915   22.4694 O   0  0  0  0  0  0
  -23.5411  -32.1428   23.7404 O   0  0  0  0  0  0
  -30.7206  -19.2763   20.2778 C   0  0  0  0  0  0
  -30.8082  -17.8533   20.2760 C   0  0  0  0  0  0
  -28.7265  -17.7553   21.4921 C   0  0  0  0  0  0
  -29.6592  -19.9779   20.9171 C   0  0  0  0  0  0
  -28.6407  -19.1790   21.5237 C   0  0  0  0  0  0
  -29.8157  -17.0588   20.9046 C   0  0  0  0  0  0
  -27.4532  -19.7991   22.2619 C   0  0  0  0  0  0
  -29.9833  -24.4489   18.7473 C   0  0  0  0  0  0
  -29.7467  -21.5364   21.0844 C   0  0  0  0  0  0
  -28.9670  -22.5112   20.1099 C   0  0  0  0  0  0
  -28.1138  -25.0659   20.3664 C   0  0  0  0  0  0
  -29.3247  -24.0788   20.0909 C   0  0  2  0  0  0
  -29.8019  -15.6035   20.9906 N   0  0  0  0  0  0
  -30.2752  -24.3380   21.1087 O   0  0  0  0  0  0
  -31.4827  -12.4929   19.1527 H   0  0  0  0  0  0
  -30.3623  -11.3763   19.8637 H   0  0  0  0  0  0
  -29.7703  -11.7725   17.4626 H   0  0  0  0  0  0
  -29.6605  -13.4890   17.7476 H   0  0  0  0  0  0
  -27.8586  -11.2981   18.8356 H   0  0  0  0  0  0
  -27.3812  -12.6101   17.7853 H   0  0  0  0  0  0
  -27.6876  -14.2484   19.5503 H   0  0  0  0  0  0
  -28.7058  -11.9934   21.3410 H   0  0  0  0  0  0
  -28.4406  -13.6235   21.8727 H   0  0  0  0  0  0
  -25.2726   -9.5687   22.4745 H   0  0  0  0  0  0
  -23.9949   -7.4653   22.7466 H   0  0  0  0  0  0
  -21.0796   -8.8802   19.8953 H   0  0  0  0  0  0
  -22.3674  -10.9673   19.6146 H   0  0  0  0  0  0
  -21.2107   -7.6143   23.9699 H   0  0  0  0  0  0
  -21.1430   -6.0495   25.9038 H   0  0  0  0  0  0
  -22.0620   -2.7600   23.2848 H   0  0  0  0  0  0
  -22.4074  -11.9979   22.4806 H   0  0  0  0  0  0
  -21.1097  -13.1368   22.2542 H   0  0  0  0  0  0
  -24.6697  -15.8475   20.5183 H   0  0  0  0  0  0
  -26.2723  -15.6169   20.0352 H   0  0  0  0  0  0
  -26.7167  -32.5436   23.1146 H   0  0  0  0  0  0
  -25.0031  -33.9744   25.0432 H   0  0  0  0  0  0
  -22.7093  -31.3109   21.4170 H   0  0  0  0  0  0
  -23.3753  -35.9615   23.3213 H   0  0  0  0  0  0
  -24.3617  -36.9015   22.2056 H   0  0  0  0  0  0
  -23.7232  -37.6483   23.6714 H   0  0  0  0  0  0
  -26.0856  -31.5632   20.6133 H   0  0  0  0  0  0
  -26.8366  -30.8404   22.0061 H   0  0  0  0  0  0
  -28.1066  -28.9897   21.1890 H   0  0  0  0  0  0
  -25.9588  -25.9812   18.9379 H   0  0  0  0  0  0
  -23.9541  -27.3311   19.0076 H   0  0  0  0  0  0
  -23.7460  -30.6175   19.4159 H   0  0  0  0  0  0
  -22.7436  -29.2690   19.8586 H   0  0  0  0  0  0
  -25.1250  -36.1912   25.0812 H   0  0  0  0  0  0
  -20.9977  -28.3246   24.1396 H   0  0  0  0  0  0
  -20.5669  -26.2269   23.3589 H   0  0  0  0  0  0
  -21.6678  -26.7397   22.1217 H   0  0  0  0  0  0
  -19.6929  -25.6279   21.1240 H   0  0  0  0  0  0
  -19.6721  -27.3177   20.6730 H   0  0  0  0  0  0
  -17.4207  -26.6655   21.4018 H   0  0  0  0  0  0
  -18.0335  -26.0043   22.8978 H   0  0  0  0  0  0
  -19.7940  -30.7262   24.2255 H   0  0  0  0  0  0
  -17.5017  -31.6225   24.5187 H   0  0  0  0  0  0
  -15.5361  -30.2966   23.7631 H   0  0  0  0  0  0
  -15.8684  -28.0802   22.7032 H   0  0  0  0  0  0
  -24.5831  -30.7129   25.7852 H   0  0  0  0  0  0
  -24.8907  -32.2935   26.4921 H   0  0  0  0  0  0
  -25.7988  -30.8934   27.0290 H   0  0  0  0  0  0
  -26.2867  -29.6780   24.1212 H   0  0  0  0  0  0
  -27.3967  -29.7236   25.4718 H   0  0  0  0  0  0
  -27.8747  -30.4304   23.9455 H   0  0  0  0  0  0
  -27.2686  -33.3580   26.2139 H   0  0  0  0  0  0
  -28.3824  -32.6879   25.0301 H   0  0  0  0  0  0
  -28.0763  -31.8389   26.5386 H   0  0  0  0  0  0
  -28.2474  -38.0168   24.7622 H   0  0  0  0  0  0
  -28.1213  -36.2732   24.6011 H   0  0  0  0  0  0
  -27.2360  -37.1137   25.8815 H   0  0  0  0  0  0
  -20.9321  -29.8749   21.6918 H   0  0  0  0  0  0
  -26.0131  -38.2815   24.1553 H   0  0  0  0  0  0
  -31.5285  -19.8336   19.8145 H   0  0  0  0  0  0
  -31.6673  -17.3934   19.8035 H   0  0  0  0  0  0
  -27.9394  -17.1842   21.9694 H   0  0  0  0  0  0
  -26.7421  -19.0352   22.5848 H   0  0  0  0  0  0
  -26.8973  -20.4936   21.6314 H   0  0  0  0  0  0
  -27.7684  -20.3215   23.1658 H   0  0  0  0  0  0
  -29.2789  -24.3236   17.9229 H   0  0  0  0  0  0
  -30.8493  -23.8225   18.5262 H   0  0  0  0  0  0
  -30.3165  -25.4871   18.7225 H   0  0  0  0  0  0
  -30.8091  -21.7788   21.0301 H   0  0  0  0  0  0
  -29.4684  -21.7853   22.1108 H   0  0  0  0  0  0
  -27.8965  -22.3910   20.2820 H   0  0  0  0  0  0
  -29.1140  -22.1204   19.1000 H   0  0  0  0  0  0
  -27.7704  -24.9498   21.3957 H   0  0  0  0  0  0
  -27.2995  -24.6845   19.7543 H   0  0  0  0  0  0
  -28.9532  -15.2255   21.3758 H   0  0  0  0  0  0
  -31.1033  -23.9576   20.8370 H   0  0  0  0  0  0
  1 25  1  0  0  0
  1 30  2  0  0  0
  1 83  1  0  0  0
  2  3  1  0  0  0
  2 25  1  0  0  0
  2 85  1  0  0  0
  2 86  1  0  0  0
  3  4  1  0  0  0
  3 87  1  0  0  0
  3 88  1  0  0  0
  4  5  1  0  0  0
  4 89  1  0  0  0
  4 90  1  0  0  0
  5  6  1  0  0  0
  5 26  1  0  0  0
  5 91  1  0  0  0
  6 25  1  0  0  0
  6 92  1  0  0  0
  6 93  1  0  0  0
  7  8  2  0  0  0
  7 26  1  0  0  0
  7 29  1  0  0  0
  8  9  1  0  0  0
  8 22  1  0  0  0
  9 10  1  0  0  0
  9 27  2  0  0  0
 10 11  2  0  0  0
 10 15  1  0  0  0
 11 12  1  0  0  0
 11 94  1  0  0  0
 12 13  2  0  0  0
 12 95  1  0  0  0
 13 14  1  0  0  0
 13 31  1  0  0  0
 14 15  2  0  0  0
 14 96  1  0  0  0
 15 97  1  0  0  0
 16 17  2  0  0  0
 16 21  1  0  0  0
 16 31  1  0  0  0
 17 18  1  0  0  0
 17 98  1  0  0  0
 18 19  2  0  0  0
 18 99  1  0  0  0
 19 20  1  0  0  0
 19 24  1  0  0  0
 20 21  2  0  0  0
 20100  1  0  0  0
 21 23  1  0  0  0
 22 28  1  0  0  0
 22 32  2  0  0  0
 26 27  1  0  0  0
 28101  1  0  0  0
 28102  1  0  0  0
 29103  1  0  0  0
 29104  1  0  0  0
 33 34  1  0  0  0
 33 66  1  0  0  0
 33 70  2  0  0  0
 34 36  1  0  0  0
 34 59  1  0  0  0
 34105  1  0  0  0
 35 44  2  0  0  0
 35 45  1  0  0  0
 35 68  1  0  0  0
 36 56  1  0  0  0
 36106  1  0  0  0
 37 39  1  0  0  0
 37 47  1  0  0  0
 37 66  1  0  0  0
 37107  1  0  0  0
 38 43  2  0  0  0
 38 46  1  0  0  0
 38 47  1  0  0  0
 39 64  1  0  0  0
 39 67  2  0  0  0
 40 52  1  0  0  0
 40 53  2  0  0  0
 40 58  1  0  0  0
 41108  1  0  0  0
 41109  1  0  0  0
 41110  1  0  0  0
 41 48  1  0  0  0
 42 43  1  0  0  0
 42 66  1  0  0  0
 42111  1  0  0  0
 42112  1  0  0  0
 43 44  1  0  0  0
 44113  1  0  0  0
 45 46  2  0  0  0
 45114  1  0  0  0
 46115  1  0  0  0
 47116  1  0  0  0
 47117  1  0  0  0
 48 56  1  0  0  0
 48 65  1  0  0  0
 48118  1  0  0  0
 49 50  1  0  0  0
 49 53  1  0  0  0
 49 64  1  0  0  0
 49119  1  0  0  0
 50 51  1  0  0  0
 50120  1  0  0  0
 50121  1  0  0  0
 51 52  1  0  0  0
 51122  1  0  0  0
 51123  1  0  0  0
 52124  1  0  0  0
 52125  1  0  0  0
 53 54  1  0  0  0
 54 55  2  0  0  0
 54126  1  0  0  0
 55 57  1  0  0  0
 55127  1  0  0  0
 56 69  2  0  0  0
 57 58  2  0  0  0
 57128  1  0  0  0
 58129  1  0  0  0
 59 60  1  0  0  0
 59 61  1  0  0  0
 59 62  1  0  0  0
 60130  1  0  0  0
 60131  1  0  0  0
 60132  1  0  0  0
 61133  1  0  0  0
 61134  1  0  0  0
 61135  1  0  0  0
 62136  1  0  0  0
 62137  1  0  0  0
 62138  1  0  0  0
 63 65  1  0  0  0
 63139  1  0  0  0
 63140  1  0  0  0
 63141  1  0  0  0
 64142  1  0  0  0
 65143  1  0  0  0
 68 81  1  0  0  0
 71 72  2  0  0  0
 71 74  1  0  0  0
 71144  1  0  0  0
 72 76  1  0  0  0
 72145  1  0  0  0
 73 75  1  0  0  0
 73 76  2  0  0  0
 73146  1  0  0  0
 74 75  2  0  0  0
 74 79  1  0  0  0
 75 77  1  0  0  0
 76 83  1  0  0  0
 77147  1  0  0  0
 77148  1  0  0  0
 77149  1  0  0  0
 78150  1  0  0  0
 78151  1  0  0  0
 78152  1  0  0  0
 78 82  1  0  0  0
 79 80  1  0  0  0
 79153  1  0  0  0
 79154  1  0  0  0
 80 82  1  0  0  0
 80155  1  0  0  0
 80156  1  0  0  0
 81 82  1  0  0  0
 81157  1  0  0  0
 81158  1  0  0  0
 82 84  1  0  0  0
 83159  1  0  0  0
 84160  1  0  0  0
M  ISO  4   1 100  68 101  81 101  83 100
M  END
> <chiral flag>
0

> <version>
0

> <s_m_source_file>
/data/baiqing/PycharmProjects/Reinvent-master-3.2/result/LINK_invent/BTK/process_docking_weight1_custom_product_contain_oxygen_bond_distance_aromatic_linkinvent_7_9_3/rearranged_h_0136.sdf

> <i_m_source_file_index>
16

> <r_mmod_Potential_Energy-OPLS-2005>
41.9404830932617

> <r_mmod_Stretch_Energy-OPLS-2005>
74.0552139282227

> <r_mmod_Bend_Energy-OPLS-2005>
136.798278808594

> <r_mmod_Torsional_Energy-OPLS-2005>
250.397232055664

> <r_mmod_Improper_Torsional_Energy-OPLS-2005>
4.24603366851807

> <r_mmod_Van_der_Waal_Energy-OPLS-2005>
146.941223144531

> <r_mmod_Electrostatic_Energy-OPLS-2005>
-394.984405517578

> <r_mmod_Solvation_Energy-OPLS-2005>
-215.155166625977

> <b_mmod_Minimization_Converged-OPLS-2005>
0

> <r_mmod_RMS_Derivative-OPLS-2005>
5.10361576080322

$$$$
16
                    3D
 Structure written by MMmdl.
160168  0  0  1  0            999 V2000
  -31.2281  -14.3661   19.0757 C   0  0  0  0  0  0
  -30.7351  -12.9450   20.5593 C   0  0  0  0  0  0
  -30.5627  -11.5671   19.7230 C   0  0  0  0  0  0
  -29.1022  -11.1876   19.4091 C   0  0  0  0  0  0
  -27.0439  -13.9751   18.8698 C   0  0  2  0  0  0
  -28.8549  -15.2256   19.4639 C   0  0  0  0  0  0
  -24.6394  -14.2987   20.4022 C   0  0  0  0  0  0
  -23.7599  -13.3487   20.8657 C   0  0  0  0  0  0
  -24.3542  -12.0912   20.9175 C   0  0  0  0  0  0
  -23.8494  -10.6325   21.0905 C   0  0  0  0  0  0
  -24.3609   -9.5889   21.9160 C   0  0  0  0  0  0
  -23.6763   -8.3304   22.0709 C   0  0  0  0  0  0
  -22.4736   -8.0684   21.3572 C   0  0  0  0  0  0
  -22.0260   -9.0534   20.4569 C   0  0  0  0  0  0
  -22.7063  -10.2814   20.3193 C   0  0  0  0  0  0
  -21.7224   -6.0835   22.5295 C   0  0  0  0  0  0
  -21.4371   -6.5710   23.8219 C   0  0  0  0  0  0
  -21.3807   -5.6827   24.9154 C   0  0  0  0  0  0
  -21.6037   -4.3074   24.7251 C   0  0  0  0  0  0
  -21.8724   -3.8183   23.4390 C   0  0  0  0  0  0
  -21.9292   -4.6986   22.3442 C   0  0  0  0  0  0
  -22.3895  -13.6460   21.2287 C   0  0  0  0  0  0
  -22.1671   -4.2135   21.0997 F   0  0  0  0  0  0
  -21.5559   -3.4571   25.7739 F   0  0  0  0  0  0
  -30.3182  -14.4326   20.0675 N   0  0  0  0  0  0
  -25.7000  -13.6844   19.9927 N   0  0  0  0  0  0
  -25.5171  -12.6430   21.0738 N   0  0  0  0  0  0
  -21.8671  -12.8510   22.1634 N   0  0  0  0  0  0
  -24.6067  -15.6228   20.1873 N   0  0  0  0  0  0
  -32.3207  -14.8148   19.3901 O   0  0  0  0  0  0
  -21.7299   -6.9076   21.4256 O   0  0  0  0  0  0
  -21.8528  -14.6210   20.7306 O   0  0  0  0  0  0
  -24.7466  -31.7082   23.0894 C   0  0  0  0  0  0
  -25.9770  -32.3890   23.7604 C   0  0  1  0  0  0
  -26.8390  -25.8312   20.4027 C   0  0  0  0  0  0
  -25.6153  -33.7782   24.1466 N   0  0  0  0  0  0
  -23.5835  -30.2996   21.4645 C   0  0  2  0  0  0
  -24.9628  -28.4797   20.1157 C   0  0  0  0  0  0
  -22.7955  -29.3845   22.4497 C   0  0  0  0  0  0
  -18.0358  -28.1441   22.8425 C   0  0  0  0  0  0
  -24.1535  -36.6894   23.2640 C   0  0  0  0  0  0
  -26.1687  -30.1308   21.4895 C   0  0  0  0  0  0
  -26.1337  -28.6119   20.8686 C   0  0  0  0  0  0
  -27.0408  -27.3380   20.9634 C   0  0  0  0  0  0
  -25.7579  -26.1238   19.4998 C   0  0  0  0  0  0
  -24.8800  -27.2782   19.3771 C   0  0  0  0  0  0
  -23.8457  -29.5609   20.1095 C   0  0  0  0  0  0
  -25.4174  -36.2530   24.0218 C   0  0  1  0  0  0
  -20.5987  -28.3784   23.1086 C   0  0  2  0  0  0
  -20.6772  -26.9393   22.5463 C   0  0  0  0  0  0
  -19.5784  -26.6347   21.5242 C   0  0  0  0  0  0
  -18.1955  -26.7971   22.1594 C   0  0  0  0  0  0
  -19.1624  -28.8960   23.2719 C   0  0  0  0  0  0
  -18.9521  -30.1531   23.8789 C   0  0  0  0  0  0
  -17.6498  -30.6596   24.0548 C   0  0  0  0  0  0
  -25.9255  -34.8969   23.4716 C   0  0  0  0  0  0
  -16.5390  -29.9072   23.6348 C   0  0  0  0  0  0
  -16.7336  -28.6505   23.0355 C   0  0  0  0  0  0
  -26.4715  -31.6219   25.0530 C   0  0  0  0  0  0
  -25.3554  -31.3730   26.0956 C   0  0  0  0  0  0
  -27.0668  -30.2453   24.6942 C   0  0  0  0  0  0
  -27.6090  -32.4161   25.7411 C   0  0  0  0  0  0
  -27.5657  -37.1429   24.8348 C   0  0  0  0  0  0
  -21.4542  -29.2892   22.3289 N   0  0  0  0  0  0
  -26.4163  -37.3455   23.9578 N   0  0  0  0  0  0
  -24.8726  -30.7744   22.0599 N   0  0  0  0  0  0
  -23.4134  -28.7524   23.3104 O   0  0  0  0  0  0
  -27.4188  -24.1797   20.6116 O   0  0  0  0  0  0
  -26.6006  -34.8746   22.4413 O   0  0  0  0  0  0
  -23.6386  -32.0598   23.5470 O   0  0  0  0  0  0
  -29.0284  -13.1741   18.5559 C   0  0  0  0  0  0
  -28.2738  -11.8791   16.9812 C   0  0  0  0  0  0
  -27.0088  -11.7572   19.4736 C   0  0  0  0  0  0
  -29.4234  -12.6891   17.4304 C   0  0  0  0  0  0
  -28.1647  -12.9785   20.3741 C   0  0  0  0  0  0
  -27.1217  -11.4966   17.9177 C   0  0  0  0  0  0
  -30.8778  -13.4625   17.5660 C   0  0  0  0  0  0
  -28.7568  -19.5396   21.3599 C   0  0  0  0  0  0
  -26.1296  -19.4559   21.9193 C   0  0  0  0  0  0
  -27.4782  -15.0454   21.3001 C   0  0  0  0  0  0
  -27.2103  -17.3681   20.6490 C   0  0  0  0  0  0
  -27.1235  -22.0497   20.4322 C   0  0  0  0  0  0
  -27.2992  -19.7006   20.9577 C   0  0  0  0  0  0
  -31.7636  -13.2772   16.6772 N   0  0  0  0  0  0
  -26.2119  -10.6381   17.3746 F   0  0  0  0  0  0
  -31.7642  -12.9341   20.9345 H   0  0  0  0  0  0
  -30.2558  -12.7784   21.5361 H   0  0  0  0  0  0
  -30.9297  -10.7767   20.3844 H   0  0  0  0  0  0
  -31.2761  -11.3732   18.9165 H   0  0  0  0  0  0
  -28.8527  -10.5814   20.3143 H   0  0  0  0  0  0
  -29.1350  -10.3479   18.6970 H   0  0  0  0  0  0
  -26.6571  -14.1090   17.8654 H   0  0  0  0  0  0
  -29.0043  -16.1108   20.0439 H   0  0  0  0  0  0
  -29.0971  -15.7604   18.5330 H   0  0  0  0  0  0
  -25.2823   -9.7451   22.4719 H   0  0  0  0  0  0
  -24.0678   -7.5923   22.7542 H   0  0  0  0  0  0
  -21.1298   -8.8533   19.8930 H   0  0  0  0  0  0
  -22.3149  -10.9845   19.6119 H   0  0  0  0  0  0
  -21.2558   -7.6269   23.9740 H   0  0  0  0  0  0
  -21.1683   -6.0616   25.9071 H   0  0  0  0  0  0
  -22.0318   -2.7613   23.2889 H   0  0  0  0  0  0
  -22.4339  -12.1275   22.5726 H   0  0  0  0  0  0
  -20.9831  -13.0921   22.5827 H   0  0  0  0  0  0
  -23.6752  -15.9533   20.4286 H   0  0  0  0  0  0
  -24.7685  -15.7421   19.2115 H   0  0  0  0  0  0
  -26.7938  -32.4153   23.0349 H   0  0  0  0  0  0
  -25.0052  -33.8661   24.9468 H   0  0  0  0  0  0
  -22.9514  -31.1570   21.2385 H   0  0  0  0  0  0
  -23.3990  -35.9013   23.2694 H   0  0  0  0  0  0
  -24.3734  -36.9237   22.2215 H   0  0  0  0  0  0
  -23.7025  -37.5710   23.7193 H   0  0  0  0  0  0
  -26.4938  -30.7808   20.6729 H   0  0  0  0  0  0
  -26.9985  -30.1710   22.1807 H   0  0  0  0  0  0
  -27.8771  -27.4439   21.6403 H   0  0  0  0  0  0
  -25.4519  -25.2739   18.9004 H   0  0  0  0  0  0
  -24.0409  -27.1646   18.7007 H   0  0  0  0  0  0
  -24.1046  -30.2922   19.3460 H   0  0  0  0  0  0
  -22.9275  -29.0843   19.7632 H   0  0  0  0  0  0
  -25.1379  -36.1044   25.0674 H   0  0  0  0  0  0
  -21.0077  -28.3470   24.1211 H   0  0  0  0  0  0
  -20.5557  -26.2416   23.3757 H   0  0  0  0  0  0
  -21.6634  -26.7223   22.1329 H   0  0  0  0  0  0
  -19.6915  -25.6240   21.1308 H   0  0  0  0  0  0
  -19.6778  -27.3130   20.6757 H   0  0  0  0  0  0
  -17.4248  -26.6763   21.3963 H   0  0  0  0  0  0
  -18.0269  -26.0132   22.8992 H   0  0  0  0  0  0
  -19.7990  -30.7380   24.2119 H   0  0  0  0  0  0
  -17.5033  -31.6262   24.5180 H   0  0  0  0  0  0
  -15.5378  -30.2929   23.7740 H   0  0  0  0  0  0
  -15.8739  -28.0800   22.7103 H   0  0  0  0  0  0
  -24.6249  -30.6455   25.7375 H   0  0  0  0  0  0
  -24.8135  -32.2877   26.3351 H   0  0  0  0  0  0
  -25.7596  -30.9793   27.0284 H   0  0  0  0  0  0
  -26.3400  -29.5899   24.2118 H   0  0  0  0  0  0
  -27.3928  -29.7103   25.5868 H   0  0  0  0  0  0
  -27.9498  -30.3370   24.0610 H   0  0  0  0  0  0
  -27.2609  -33.3637   26.1521 H   0  0  0  0  0  0
  -28.4150  -32.6347   25.0391 H   0  0  0  0  0  0
  -28.0439  -31.8514   26.5675 H   0  0  0  0  0  0
  -28.2077  -38.0248   24.8148 H   0  0  0  0  0  0
  -28.1715  -36.2915   24.5198 H   0  0  0  0  0  0
  -27.2588  -36.9807   25.8695 H   0  0  0  0  0  0
  -20.9974  -29.8471   21.6198 H   0  0  0  0  0  0
  -25.9869  -38.2327   24.2051 H   0  0  0  0  0  0
  -28.7969  -13.9560   17.7710 H   0  0  0  0  0  0
  -28.3313  -11.4073   16.0113 H   0  0  0  0  0  0
  -26.4430  -10.9543   19.9235 H   0  0  0  0  0  0
  -28.8582  -18.9214   22.2514 H   0  0  0  0  0  0
  -29.3579  -20.4459   21.4649 H   0  0  0  0  0  0
  -29.2579  -18.9564   20.5770 H   0  0  0  0  0  0
  -25.6098  -20.3572   22.2288 H   0  0  0  0  0  0
  -26.3865  -18.8541   22.7790 H   0  0  0  0  0  0
  -25.3893  -18.8143   21.4470 H   0  0  0  0  0  0
  -28.2215  -15.0977   22.0973 H   0  0  0  0  0  0
  -26.6521  -14.8340   21.9540 H   0  0  0  0  0  0
  -26.2499  -17.3514   20.1355 H   0  0  0  0  0  0
  -27.7043  -17.4145   19.6799 H   0  0  0  0  0  0
  -26.0744  -22.0619   20.1383 H   0  0  0  0  0  0
  -27.5791  -21.9617   19.4471 H   0  0  0  0  0  0
  -31.4503  -12.6327   15.9650 H   0  0  0  0  0  0
  1 25  1  0  0  0
  1 30  2  0  0  0
  1 77  1  0  0  0
  2  3  1  0  0  0
  2 25  1  0  0  0
  2 86  1  0  0  0
  2 87  1  0  0  0
  3  4  1  0  0  0
  3 88  1  0  0  0
  3 89  1  0  0  0
  4  5  1  0  0  0
  4 90  1  0  0  0
  4 91  1  0  0  0
  5  6  1  0  0  0
  5 26  1  0  0  0
  5 92  1  0  0  0
  6 25  1  0  0  0
  6 93  1  0  0  0
  6 94  1  0  0  0
  7  8  2  0  0  0
  7 26  1  0  0  0
  7 29  1  0  0  0
  8  9  1  0  0  0
  8 22  1  0  0  0
  9 10  1  0  0  0
  9 27  2  0  0  0
 10 11  2  0  0  0
 10 15  1  0  0  0
 11 12  1  0  0  0
 11 95  1  0  0  0
 12 13  2  0  0  0
 12 96  1  0  0  0
 13 14  1  0  0  0
 13 31  1  0  0  0
 14 15  2  0  0  0
 14 97  1  0  0  0
 15 98  1  0  0  0
 16 17  2  0  0  0
 16 21  1  0  0  0
 16 31  1  0  0  0
 17 18  1  0  0  0
 17 99  1  0  0  0
 18 19  2  0  0  0
 18100  1  0  0  0
 19 20  1  0  0  0
 19 24  1  0  0  0
 20 21  2  0  0  0
 20101  1  0  0  0
 21 23  1  0  0  0
 22 28  1  0  0  0
 22 32  2  0  0  0
 26 27  1  0  0  0
 28102  1  0  0  0
 28103  1  0  0  0
 29104  1  0  0  0
 29105  1  0  0  0
 33 34  1  0  0  0
 33 66  1  0  0  0
 33 70  2  0  0  0
 34 36  1  0  0  0
 34 59  1  0  0  0
 34106  1  0  0  0
 35 44  2  0  0  0
 35 45  1  0  0  0
 35 68  1  0  0  0
 36 56  1  0  0  0
 36107  1  0  0  0
 37 39  1  0  0  0
 37 47  1  0  0  0
 37 66  1  0  0  0
 37108  1  0  0  0
 38 43  2  0  0  0
 38 46  1  0  0  0
 38 47  1  0  0  0
 39 64  1  0  0  0
 39 67  2  0  0  0
 40 52  1  0  0  0
 40 53  2  0  0  0
 40 58  1  0  0  0
 41109  1  0  0  0
 41110  1  0  0  0
 41111  1  0  0  0
 41 48  1  0  0  0
 42 43  1  0  0  0
 42 66  1  0  0  0
 42112  1  0  0  0
 42113  1  0  0  0
 43 44  1  0  0  0
 44114  1  0  0  0
 45 46  2  0  0  0
 45115  1  0  0  0
 46116  1  0  0  0
 47117  1  0  0  0
 47118  1  0  0  0
 48 56  1  0  0  0
 48 65  1  0  0  0
 48119  1  0  0  0
 49 50  1  0  0  0
 49 53  1  0  0  0
 49 64  1  0  0  0
 49120  1  0  0  0
 50 51  1  0  0  0
 50121  1  0  0  0
 50122  1  0  0  0
 51 52  1  0  0  0
 51123  1  0  0  0
 51124  1  0  0  0
 52125  1  0  0  0
 52126  1  0  0  0
 53 54  1  0  0  0
 54 55  2  0  0  0
 54127  1  0  0  0
 55 57  1  0  0  0
 55128  1  0  0  0
 56 69  2  0  0  0
 57 58  2  0  0  0
 57129  1  0  0  0
 58130  1  0  0  0
 59 60  1  0  0  0
 59 61  1  0  0  0
 59 62  1  0  0  0
 60131  1  0  0  0
 60132  1  0  0  0
 60133  1  0  0  0
 61134  1  0  0  0
 61135  1  0  0  0
 61136  1  0  0  0
 62137  1  0  0  0
 62138  1  0  0  0
 62139  1  0  0  0
 63 65  1  0  0  0
 63140  1  0  0  0
 63141  1  0  0  0
 63142  1  0  0  0
 64143  1  0  0  0
 65144  1  0  0  0
 68 82  1  0  0  0
 71 74  2  0  0  0
 71 75  1  0  0  0
 71145  1  0  0  0
 72 74  1  0  0  0
 72 76  2  0  0  0
 72146  1  0  0  0
 73 75  2  0  0  0
 73 76  1  0  0  0
 73147  1  0  0  0
 74 77  1  0  0  0
 75 80  1  0  0  0
 76 85  1  0  0  0
 77 84  2  0  0  0
 78148  1  0  0  0
 78149  1  0  0  0
 78150  1  0  0  0
 78 83  1  0  0  0
 79 83  1  0  0  0
 79151  1  0  0  0
 79152  1  0  0  0
 79153  1  0  0  0
 80 81  1  0  0  0
 80154  1  0  0  0
 80155  1  0  0  0
 81 83  1  0  0  0
 81156  1  0  0  0
 81157  1  0  0  0
 82 83  1  0  0  0
 82158  1  0  0  0
 82159  1  0  0  0
 84160  1  0  0  0
M  ISO  4   1 100  68 101  77 100  82 101
M  END
> <chiral flag>
0

> <version>
0

> <s_m_source_file>
/data/baiqing/PycharmProjects/Reinvent-master-3.2/result/LINK_invent/BTK/process_docking_weight1_custom_product_contain_oxygen_bond_distance_aromatic_linkinvent_7_9_3/rearranged_h_0136.sdf

> <i_m_source_file_index>
17

> <r_mmod_Potential_Energy-OPLS-2005>
22575.06640625

> <r_mmod_Stretch_Energy-OPLS-2005>
11812.4482421875

> <r_mmod_Bend_Energy-OPLS-2005>
2138.267578125

> <r_mmod_Torsional_Energy-OPLS-2005>
665.831604003906

> <r_mmod_Improper_Torsional_Energy-OPLS-2005>
55.7666664123535

> <r_mmod_Van_der_Waal_Energy-OPLS-2005>
3721.0517578125

> <r_mmod_Electrostatic_Energy-OPLS-2005>
-220.052261352539

> <r_mmod_Solvation_Energy-OPLS-2005>
-206.326034545898

> <b_mmod_Minimization_Converged-OPLS-2005>
0

> <r_mmod_RMS_Derivative-OPLS-2005>
74.3362731933594

$$$$
17
                    3D
 Structure written by MMmdl.
165173  0  0  1  0            999 V2000
  -30.5809  -14.6939   20.5910 C   0  0  0  0  0  0
  -30.4617  -12.4546   19.4623 C   0  0  0  0  0  0
  -29.5257  -12.5539   18.2363 C   0  0  0  0  0  0
  -28.0453  -12.3706   18.6325 C   0  0  0  0  0  0
  -27.6591  -13.2161   19.8732 C   0  0  2  0  0  0
  -28.6984  -13.0431   21.0043 C   0  0  0  0  0  0
  -25.2508  -13.8140   20.5570 C   0  0  0  0  0  0
  -24.1799  -13.0417   20.9145 C   0  0  0  0  0  0
  -24.6392  -11.6898   20.8742 C   0  0  0  0  0  0
  -23.9063  -10.4270   21.0407 C   0  0  0  0  0  0
  -24.3609   -9.4200   21.9174 C   0  0  0  0  0  0
  -23.6274   -8.2253   22.0775 C   0  0  0  0  0  0
  -22.4253   -8.0285   21.3556 C   0  0  0  0  0  0
  -21.9874   -9.0263   20.4674 C   0  0  0  0  0  0
  -22.7242  -10.2123   20.3056 C   0  0  0  0  0  0
  -21.6849   -6.0718   22.5267 C   0  0  0  0  0  0
  -21.4031   -6.5625   23.8202 C   0  0  0  0  0  0
  -21.3651   -5.6772   24.9166 C   0  0  0  0  0  0
  -21.6040   -4.3038   24.7212 C   0  0  0  0  0  0
  -21.8829   -3.8132   23.4338 C   0  0  0  0  0  0
  -21.9192   -4.6950   22.3391 C   0  0  0  0  0  0
  -22.7827  -13.5226   21.1804 C   0  0  0  0  0  0
  -22.1661   -4.2141   21.0968 F   0  0  0  0  0  0
  -21.5594   -3.4514   25.7724 F   0  0  0  0  0  0
  -30.0134  -13.4437   20.4685 N   0  0  0  0  0  0
  -26.2990  -12.9347   20.3312 N   0  0  0  0  0  0
  -25.9317  -11.6504   20.5773 N   0  0  0  0  0  0
  -22.0452  -12.8270   22.0399 N   0  0  0  0  0  0
  -25.4150  -15.1830   20.3740 N   0  0  0  0  0  0
  -31.6974  -14.9361   20.1263 O   0  0  0  0  0  0
  -21.6627   -6.8866   21.4236 O   0  0  0  0  0  0
  -22.3537  -14.5537   20.6647 O   0  0  0  0  0  0
  -24.6247  -31.8588   23.2043 C   0  0  0  0  0  0
  -25.9101  -32.4782   23.8364 C   0  0  1  0  0  0
  -27.2094  -27.2724   20.1698 C   0  0  0  0  0  0
  -25.5889  -33.8574   24.2292 N   0  0  0  0  0  0
  -23.4203  -30.4827   21.5458 C   0  0  2  0  0  0
  -24.8703  -28.9295   20.1251 C   0  0  0  0  0  0
  -22.7471  -29.4618   22.4946 C   0  0  0  0  0  0
  -18.0260  -28.1382   22.8468 C   0  0  0  0  0  0
  -24.1457  -36.7274   23.2637 C   0  0  0  0  0  0
  -25.9650  -30.7754   21.3885 C   0  0  0  0  0  0
  -26.0377  -29.3916   20.7506 C   0  0  0  0  0  0
  -27.2116  -28.5714   20.7738 C   0  0  0  0  0  0
  -26.0456  -26.9078   19.4628 C   0  0  0  0  0  0
  -24.8768  -27.6890   19.4738 C   0  0  0  0  0  0
  -23.6415  -29.8168   20.1624 C   0  0  0  0  0  0
  -25.4086  -36.3098   24.0343 C   0  0  1  0  0  0
  -20.5868  -28.3674   23.1263 C   0  0  2  0  0  0
  -20.6762  -26.9394   22.5398 C   0  0  0  0  0  0
  -19.5739  -26.6386   21.5188 C   0  0  0  0  0  0
  -18.1917  -26.7927   22.1604 C   0  0  0  0  0  0
  -19.1529  -28.8853   23.2852 C   0  0  0  0  0  0
  -18.9463  -30.1446   23.8886 C   0  0  0  0  0  0
  -17.6474  -30.6585   24.0565 C   0  0  0  0  0  0
  -25.9029  -34.9456   23.5116 C   0  0  0  0  0  0
  -16.5355  -29.9079   23.6350 C   0  0  0  0  0  0
  -16.7254  -28.6490   23.0377 C   0  0  0  0  0  0
  -26.4481  -31.6607   25.0743 C   0  0  0  0  0  0
  -25.3711  -31.3789   26.1479 C   0  0  0  0  0  0
  -27.0292  -30.3000   24.6241 C   0  0  0  0  0  0
  -27.6061  -32.4318   25.7503 C   0  0  0  0  0  0
  -27.5574  -37.1800   24.8462 C   0  0  0  0  0  0
  -21.4187  -29.3021   22.3676 N   0  0  0  0  0  0
  -26.4275  -37.3790   23.9420 N   0  0  0  0  0  0
  -24.6879  -31.0583   22.1015 N   0  0  0  0  0  0
  -23.4178  -28.8147   23.3042 O   0  0  0  0  0  0
  -28.3080  -26.3977   20.0853 O   0  0  0  0  0  0
  -26.5607  -34.8923   22.4703 O   0  0  0  0  0  0
  -23.5415  -32.1406   23.7369 O   0  0  0  0  0  0
  -28.4338  -19.1241   22.0042 C   0  0  0  0  0  0
  -30.5828  -18.0814   20.6916 C   0  0  0  0  0  0
  -28.5841  -17.7092   21.9413 C   0  0  0  0  0  0
  -29.6905  -17.1206   21.2577 C   0  0  0  0  0  0
  -29.3556  -20.0163   21.4117 C   0  0  0  0  0  0
  -28.4670  -22.4435   21.0003 C   0  0  0  0  0  0
  -29.2237  -21.5298   21.7252 C   0  0  0  0  0  0
  -27.5304  -16.8638   22.6443 C   0  0  0  0  0  0
  -31.4636  -22.0048   22.8695 C   0  0  0  0  0  0
  -26.5157  -23.8849   20.4630 C   0  0  0  0  0  0
  -27.2950  -23.9135   22.7642 C   0  0  0  0  0  0
  -29.9376  -21.9082   23.0231 C   0  0  0  0  0  0
  -28.6057  -25.2954   21.0561 C   0  0  0  0  0  0
  -27.8106  -23.8880   21.2978 C   0  0  0  0  0  0
  -30.4291  -19.4543   20.7717 N   0  0  0  0  0  0
  -29.7839  -15.6412   21.1992 N   0  0  0  0  0  0
  -31.4980  -12.6208   19.1616 H   0  0  0  0  0  0
  -30.4338  -11.4501   19.8860 H   0  0  0  0  0  0
  -29.8048  -11.8104   17.4893 H   0  0  0  0  0  0
  -29.6624  -13.5260   17.7611 H   0  0  0  0  0  0
  -27.8837  -11.3136   18.8435 H   0  0  0  0  0  0
  -27.4025  -12.6220   17.7887 H   0  0  0  0  0  0
  -27.6861  -14.2565   19.5523 H   0  0  0  0  0  0
  -28.7259  -12.0058   21.3419 H   0  0  0  0  0  0
  -28.4161  -13.6196   21.8844 H   0  0  0  0  0  0
  -25.2776   -9.5676   22.4718 H   0  0  0  0  0  0
  -23.9998   -7.4639   22.7477 H   0  0  0  0  0  0
  -21.0815   -8.8796   19.8950 H   0  0  0  0  0  0
  -22.3737  -10.9649   19.6135 H   0  0  0  0  0  0
  -21.2058   -7.6131   23.9707 H   0  0  0  0  0  0
  -21.1442   -6.0496   25.9063 H   0  0  0  0  0  0
  -22.0612   -2.7593   23.2838 H   0  0  0  0  0  0
  -22.4057  -11.9954   22.4866 H   0  0  0  0  0  0
  -21.1089  -13.1324   22.2561 H   0  0  0  0  0  0
  -24.6240  -15.8157   20.3996 H   0  0  0  0  0  0
  -26.2391  -15.6010   19.9617 H   0  0  0  0  0  0
  -26.7162  -32.5466   23.1108 H   0  0  0  0  0  0
  -25.0025  -33.9687   25.0426 H   0  0  0  0  0  0
  -22.7135  -31.3028   21.4028 H   0  0  0  0  0  0
  -23.3747  -35.9581   23.3325 H   0  0  0  0  0  0
  -24.3531  -36.8858   22.2043 H   0  0  0  0  0  0
  -23.7188  -37.6473   23.6637 H   0  0  0  0  0  0
  -26.0958  -31.5313   20.6124 H   0  0  0  0  0  0
  -26.8433  -30.8346   22.0189 H   0  0  0  0  0  0
  -28.1081  -28.9280   21.2613 H   0  0  0  0  0  0
  -26.0328  -25.9912   18.8934 H   0  0  0  0  0  0
  -23.9930  -27.3396   18.9534 H   0  0  0  0  0  0
  -23.7681  -30.5872   19.4002 H   0  0  0  0  0  0
  -22.7606  -29.2455   19.8617 H   0  0  0  0  0  0
  -25.1276  -36.1964   25.0840 H   0  0  0  0  0  0
  -20.9921  -28.3253   24.1398 H   0  0  0  0  0  0
  -20.5616  -26.2283   23.3594 H   0  0  0  0  0  0
  -21.6654  -26.7412   22.1249 H   0  0  0  0  0  0
  -19.6892  -25.6301   21.1220 H   0  0  0  0  0  0
  -19.6662  -27.3184   20.6707 H   0  0  0  0  0  0
  -17.4175  -26.6629   21.4026 H   0  0  0  0  0  0
  -18.0328  -26.0080   22.9008 H   0  0  0  0  0  0
  -19.7951  -30.7243   24.2274 H   0  0  0  0  0  0
  -17.5037  -31.6280   24.5150 H   0  0  0  0  0  0
  -15.5362  -30.2987   23.7683 H   0  0  0  0  0  0
  -15.8639  -28.0782   22.7152 H   0  0  0  0  0  0
  -24.5810  -30.7214   25.7843 H   0  0  0  0  0  0
  -24.8971  -32.2964   26.4958 H   0  0  0  0  0  0
  -25.8013  -30.8926   27.0234 H   0  0  0  0  0  0
  -26.2862  -29.6771   24.1238 H   0  0  0  0  0  0
  -27.3907  -29.7267   25.4794 H   0  0  0  0  0  0
  -27.8783  -30.4248   23.9513 H   0  0  0  0  0  0
  -27.2714  -33.3646   26.2047 H   0  0  0  0  0  0
  -28.3886  -32.6815   25.0330 H   0  0  0  0  0  0
  -28.0685  -31.8431   26.5433 H   0  0  0  0  0  0
  -28.2640  -38.0060   24.7542 H   0  0  0  0  0  0
  -28.1026  -36.2611   24.6274 H   0  0  0  0  0  0
  -27.2287  -37.1467   25.8858 H   0  0  0  0  0  0
  -20.9370  -29.8717   21.6861 H   0  0  0  0  0  0
  -26.0170  -38.2862   24.1452 H   0  0  0  0  0  0
  -27.6058  -19.5403   22.5625 H   0  0  0  0  0  0
  -31.4643  -17.7527   20.1625 H   0  0  0  0  0  0
  -28.1113  -22.0369   20.0661 H   0  0  0  0  0  0
  -27.3415  -17.2437   23.6490 H   0  0  0  0  0  0
  -27.7995  -15.8145   22.7535 H   0  0  0  0  0  0
  -26.5942  -16.9101   22.0911 H   0  0  0  0  0  0
  -31.9433  -22.2259   23.8240 H   0  0  0  0  0  0
  -31.7305  -22.8041   22.1760 H   0  0  0  0  0  0
  -31.9040  -21.0775   22.5022 H   0  0  0  0  0  0
  -25.9276  -22.9833   20.6394 H   0  0  0  0  0  0
  -26.7246  -23.9340   19.3943 H   0  0  0  0  0  0
  -25.8596  -24.7114   20.7316 H   0  0  0  0  0  0
  -26.9559  -22.9323   23.1003 H   0  0  0  0  0  0
  -26.4509  -24.5939   22.8869 H   0  0  0  0  0  0
  -28.0402  -24.2693   23.4746 H   0  0  0  0  0  0
  -29.6720  -21.1947   23.8047 H   0  0  0  0  0  0
  -29.6108  -22.8784   23.3761 H   0  0  0  0  0  0
  -29.6470  -25.0280   20.8722 H   0  0  0  0  0  0
  -28.6518  -25.8285   22.0065 H   0  0  0  0  0  0
  -28.9900  -15.1863   21.6224 H   0  0  0  0  0  0
  1 25  1  0  0  0
  1 30  2  0  0  0
  1 86  1  0  0  0
  2  3  1  0  0  0
  2 25  1  0  0  0
  2 87  1  0  0  0
  2 88  1  0  0  0
  3  4  1  0  0  0
  3 89  1  0  0  0
  3 90  1  0  0  0
  4  5  1  0  0  0
  4 91  1  0  0  0
  4 92  1  0  0  0
  5  6  1  0  0  0
  5 26  1  0  0  0
  5 93  1  0  0  0
  6 25  1  0  0  0
  6 94  1  0  0  0
  6 95  1  0  0  0
  7  8  2  0  0  0
  7 26  1  0  0  0
  7 29  1  0  0  0
  8  9  1  0  0  0
  8 22  1  0  0  0
  9 10  1  0  0  0
  9 27  2  0  0  0
 10 11  2  0  0  0
 10 15  1  0  0  0
 11 12  1  0  0  0
 11 96  1  0  0  0
 12 13  2  0  0  0
 12 97  1  0  0  0
 13 14  1  0  0  0
 13 31  1  0  0  0
 14 15  2  0  0  0
 14 98  1  0  0  0
 15 99  1  0  0  0
 16 17  2  0  0  0
 16 21  1  0  0  0
 16 31  1  0  0  0
 17 18  1  0  0  0
 17100  1  0  0  0
 18 19  2  0  0  0
 18101  1  0  0  0
 19 20  1  0  0  0
 19 24  1  0  0  0
 20 21  2  0  0  0
 20102  1  0  0  0
 21 23  1  0  0  0
 22 28  1  0  0  0
 22 32  2  0  0  0
 26 27  1  0  0  0
 28103  1  0  0  0
 28104  1  0  0  0
 29105  1  0  0  0
 29106  1  0  0  0
 33 34  1  0  0  0
 33 66  1  0  0  0
 33 70  2  0  0  0
 34 36  1  0  0  0
 34 59  1  0  0  0
 34107  1  0  0  0
 35 44  2  0  0  0
 35 45  1  0  0  0
 35 68  1  0  0  0
 36 56  1  0  0  0
 36108  1  0  0  0
 37 39  1  0  0  0
 37 47  1  0  0  0
 37 66  1  0  0  0
 37109  1  0  0  0
 38 43  2  0  0  0
 38 46  1  0  0  0
 38 47  1  0  0  0
 39 64  1  0  0  0
 39 67  2  0  0  0
 40 52  1  0  0  0
 40 53  2  0  0  0
 40 58  1  0  0  0
 41110  1  0  0  0
 41111  1  0  0  0
 41112  1  0  0  0
 41 48  1  0  0  0
 42 43  1  0  0  0
 42 66  1  0  0  0
 42113  1  0  0  0
 42114  1  0  0  0
 43 44  1  0  0  0
 44115  1  0  0  0
 45 46  2  0  0  0
 45116  1  0  0  0
 46117  1  0  0  0
 47118  1  0  0  0
 47119  1  0  0  0
 48 56  1  0  0  0
 48 65  1  0  0  0
 48120  1  0  0  0
 49 50  1  0  0  0
 49 53  1  0  0  0
 49 64  1  0  0  0
 49121  1  0  0  0
 50 51  1  0  0  0
 50122  1  0  0  0
 50123  1  0  0  0
 51 52  1  0  0  0
 51124  1  0  0  0
 51125  1  0  0  0
 52126  1  0  0  0
 52127  1  0  0  0
 53 54  1  0  0  0
 54 55  2  0  0  0
 54128  1  0  0  0
 55 57  1  0  0  0
 55129  1  0  0  0
 56 69  2  0  0  0
 57 58  2  0  0  0
 57130  1  0  0  0
 58131  1  0  0  0
 59 60  1  0  0  0
 59 61  1  0  0  0
 59 62  1  0  0  0
 60132  1  0  0  0
 60133  1  0  0  0
 60134  1  0  0  0
 61135  1  0  0  0
 61136  1  0  0  0
 61137  1  0  0  0
 62138  1  0  0  0
 62139  1  0  0  0
 62140  1  0  0  0
 63 65  1  0  0  0
 63141  1  0  0  0
 63142  1  0  0  0
 63143  1  0  0  0
 64144  1  0  0  0
 65145  1  0  0  0
 68 83  1  0  0  0
 71 73  2  0  0  0
 71 75  1  0  0  0
 71146  1  0  0  0
 72 74  2  0  0  0
 72 85  1  0  0  0
 72147  1  0  0  0
 73 74  1  0  0  0
 73 78  1  0  0  0
 74 86  1  0  0  0
 75 77  1  0  0  0
 75 85  2  0  0  0
 76 77  2  0  0  0
 76 84  1  0  0  0
 76148  1  0  0  0
 77 82  1  0  0  0
 78149  1  0  0  0
 78150  1  0  0  0
 78151  1  0  0  0
 79 82  1  0  0  0
 79152  1  0  0  0
 79153  1  0  0  0
 79154  1  0  0  0
 80155  1  0  0  0
 80156  1  0  0  0
 80157  1  0  0  0
 80 84  1  0  0  0
 81 84  1  0  0  0
 81158  1  0  0  0
 81159  1  0  0  0
 81160  1  0  0  0
 82161  1  0  0  0
 82162  1  0  0  0
 83 84  1  0  0  0
 83163  1  0  0  0
 83164  1  0  0  0
 86165  1  0  0  0
M  ISO  4   1 100  68 101  83 101  86 100
M  END
> <chiral flag>
0

> <version>
0

> <s_m_source_file>
/data/baiqing/PycharmProjects/Reinvent-master-3.2/result/LINK_invent/BTK/process_docking_weight1_custom_product_contain_oxygen_bond_distance_aromatic_linkinvent_7_9_3/rearranged_h_0136.sdf

> <i_m_source_file_index>
18

> <r_mmod_Potential_Energy-OPLS-2005>
111.082168579102

> <r_mmod_Stretch_Energy-OPLS-2005>
121.018997192383

> <r_mmod_Bend_Energy-OPLS-2005>
233.005020141602

> <r_mmod_Torsional_Energy-OPLS-2005>
282.873962402344

> <r_mmod_Improper_Torsional_Energy-OPLS-2005>
8.42381858825684

> <r_mmod_Van_der_Waal_Energy-OPLS-2005>
143.500869750977

> <r_mmod_Electrostatic_Energy-OPLS-2005>
-540.653503417969

> <r_mmod_Solvation_Energy-OPLS-2005>
-205.989364624023

> <b_mmod_Minimization_Converged-OPLS-2005>
0

> <r_mmod_RMS_Derivative-OPLS-2005>
4.43651676177979

$$$$
18
                    3D
 Structure written by MMmdl.
171179  0  0  1  0            999 V2000
  -30.5706  -14.7593   20.4598 C   0  0  0  0  0  0
  -30.4329  -12.4517   19.4962 C   0  0  0  0  0  0
  -29.5204  -12.5239   18.2508 C   0  0  0  0  0  0
  -28.0428  -12.3459   18.6516 C   0  0  0  0  0  0
  -27.6465  -13.2322   19.8629 C   0  0  2  0  0  0
  -28.6836  -13.1425   21.0050 C   0  0  0  0  0  0
  -25.2511  -13.8199   20.5678 C   0  0  0  0  0  0
  -24.1795  -13.0442   20.9180 C   0  0  0  0  0  0
  -24.6377  -11.6914   20.8717 C   0  0  0  0  0  0
  -23.9046  -10.4296   21.0375 C   0  0  0  0  0  0
  -24.3592   -9.4212   21.9158 C   0  0  0  0  0  0
  -23.6277   -8.2244   22.0733 C   0  0  0  0  0  0
  -22.4269   -8.0263   21.3520 C   0  0  0  0  0  0
  -21.9898   -9.0231   20.4629 C   0  0  0  0  0  0
  -22.7211  -10.2117   20.3033 C   0  0  0  0  0  0
  -21.6846   -6.0724   22.5272 C   0  0  0  0  0  0
  -21.4018   -6.5629   23.8205 C   0  0  0  0  0  0
  -21.3673   -5.6773   24.9168 C   0  0  0  0  0  0
  -21.6056   -4.3041   24.7212 C   0  0  0  0  0  0
  -21.8819   -3.8130   23.4333 C   0  0  0  0  0  0
  -21.9187   -4.6952   22.3388 C   0  0  0  0  0  0
  -22.7821  -13.5227   21.1855 C   0  0  0  0  0  0
  -22.1654   -4.2137   21.0970 F   0  0  0  0  0  0
  -21.5639   -3.4522   25.7729 F   0  0  0  0  0  0
  -29.9904  -13.5074   20.4433 N   0  0  0  0  0  0
  -26.2942  -12.9399   20.3294 N   0  0  0  0  0  0
  -25.9317  -11.6538   20.5745 N   0  0  0  0  0  0
  -22.0462  -12.8216   22.0414 N   0  0  0  0  0  0
  -25.4249  -15.1923   20.4113 N   0  0  0  0  0  0
  -31.7249  -14.8957   20.0385 O   0  0  0  0  0  0
  -21.6626   -6.8866   21.4233 O   0  0  0  0  0  0
  -22.3502  -14.5527   20.6703 O   0  0  0  0  0  0
  -24.6311  -31.8505   23.1914 C   0  0  0  0  0  0
  -25.9109  -32.4738   23.8286 C   0  0  1  0  0  0
  -27.2236  -27.2432   20.1312 C   0  0  0  0  0  0
  -25.5904  -33.8539   24.2226 N   0  0  0  0  0  0
  -23.4308  -30.4683   21.5317 C   0  0  2  0  0  0
  -24.8776  -28.9003   20.1029 C   0  0  0  0  0  0
  -22.7526  -29.4566   22.4872 C   0  0  0  0  0  0
  -18.0309  -28.1401   22.8486 C   0  0  0  0  0  0
  -24.1479  -36.7275   23.2642 C   0  0  0  0  0  0
  -25.9734  -30.7547   21.3717 C   0  0  0  0  0  0
  -26.0421  -29.3729   20.7193 C   0  0  0  0  0  0
  -27.2087  -28.5491   20.7305 C   0  0  0  0  0  0
  -26.0447  -26.8365   19.4752 C   0  0  0  0  0  0
  -24.8831  -27.6429   19.4720 C   0  0  0  0  0  0
  -23.6498  -29.7902   20.1496 C   0  0  0  0  0  0
  -25.4106  -36.3065   24.0339 C   0  0  1  0  0  0
  -20.5912  -28.3698   23.1271 C   0  0  2  0  0  0
  -20.6776  -26.9415   22.5407 C   0  0  0  0  0  0
  -19.5751  -26.6385   21.5211 C   0  0  0  0  0  0
  -18.1936  -26.7947   22.1623 C   0  0  0  0  0  0
  -19.1561  -28.8864   23.2871 C   0  0  0  0  0  0
  -18.9478  -30.1464   23.8902 C   0  0  0  0  0  0
  -17.6475  -30.6596   24.0564 C   0  0  0  0  0  0
  -25.9046  -34.9438   23.5087 C   0  0  0  0  0  0
  -16.5367  -29.9105   23.6328 C   0  0  0  0  0  0
  -16.7294  -28.6514   23.0359 C   0  0  0  0  0  0
  -26.4476  -31.6610   25.0701 C   0  0  0  0  0  0
  -25.3711  -31.3770   26.1439 C   0  0  0  0  0  0
  -27.0321  -30.3048   24.6166 C   0  0  0  0  0  0
  -27.6032  -32.4364   25.7461 C   0  0  0  0  0  0
  -27.5588  -37.1774   24.8459 C   0  0  0  0  0  0
  -21.4228  -29.3048   22.3652 N   0  0  0  0  0  0
  -26.4268  -37.3779   23.9444 N   0  0  0  0  0  0
  -24.6975  -31.0451   22.0886 N   0  0  0  0  0  0
  -23.4226  -28.8120   23.2977 O   0  0  0  0  0  0
  -28.3323  -26.3817   20.2911 O   0  0  0  0  0  0
  -26.5613  -34.8932   22.4659 O   0  0  0  0  0  0
  -23.5450  -32.1310   23.7213 O   0  0  0  0  0  0
  -28.7879  -19.5981   18.8229 C   0  0  0  0  0  0
  -29.1858  -17.1591   18.8501 C   0  0  0  0  0  0
  -29.5435  -18.4902   20.8468 C   0  0  0  0  0  0
  -28.7966  -18.3407   18.1763 C   0  0  0  0  0  0
  -29.1806  -19.7432   20.1678 C   0  0  0  0  0  0
  -29.5707  -17.1746   20.2075 C   0  0  0  0  0  0
  -28.3983  -18.2704   16.7169 C   0  0  0  0  0  0
  -28.7150  -21.9507   24.1027 C   0  0  0  0  0  0
  -30.3494  -20.0649   24.2816 C   0  0  0  0  0  0
  -28.8846  -25.4631   18.1363 C   0  0  0  0  0  0
  -28.2103  -22.4068   20.7456 C   0  0  0  0  0  0
  -27.9089  -23.6246   19.7081 C   0  0  0  0  0  0
  -30.1590  -21.2631   22.0459 C   0  0  0  0  0  0
  -29.3774  -21.2570   20.7035 C   0  0  1  0  0  0
  -29.3979  -20.8053   23.3259 C   0  0  0  0  0  0
  -28.6479  -25.0773   19.6067 C   0  0  2  0  0  0
  -29.8166  -15.8588   20.8695 N   0  0  0  0  0  0
  -31.4792  -12.5652   19.2077 H   0  0  0  0  0  0
  -30.3626  -11.4676   19.9629 H   0  0  0  0  0  0
  -29.8058  -11.7641   17.5223 H   0  0  0  0  0  0
  -29.6533  -13.4879   17.7574 H   0  0  0  0  0  0
  -27.8923  -11.2951   18.9009 H   0  0  0  0  0  0
  -27.3914  -12.5534   17.8019 H   0  0  0  0  0  0
  -27.6503  -14.2608   19.4980 H   0  0  0  0  0  0
  -28.7164  -12.1358   21.4234 H   0  0  0  0  0  0
  -28.4110  -13.8007   21.8303 H   0  0  0  0  0  0
  -25.2735   -9.5702   22.4726 H   0  0  0  0  0  0
  -23.9982   -7.4647   22.7464 H   0  0  0  0  0  0
  -21.0818   -8.8739   19.8950 H   0  0  0  0  0  0
  -22.3646  -10.9638   19.6135 H   0  0  0  0  0  0
  -21.2010   -7.6135   23.9704 H   0  0  0  0  0  0
  -21.1506   -6.0506   25.9070 H   0  0  0  0  0  0
  -22.0592   -2.7592   23.2820 H   0  0  0  0  0  0
  -22.4060  -11.9855   22.4774 H   0  0  0  0  0  0
  -21.1087  -13.1253   22.2637 H   0  0  0  0  0  0
  -24.6640  -15.8533   20.5258 H   0  0  0  0  0  0
  -26.2847  -15.6288   20.1028 H   0  0  0  0  0  0
  -26.7172  -32.5367   23.1025 H   0  0  0  0  0  0
  -25.0108  -33.9658   25.0408 H   0  0  0  0  0  0
  -22.7299  -31.2909   21.3784 H   0  0  0  0  0  0
  -23.3756  -35.9584   23.3260 H   0  0  0  0  0  0
  -24.3594  -36.8925   22.2064 H   0  0  0  0  0  0
  -23.7193  -37.6451   23.6683 H   0  0  0  0  0  0
  -26.1104  -31.5046   20.5912 H   0  0  0  0  0  0
  -26.8540  -30.8119   22.0004 H   0  0  0  0  0  0
  -28.0960  -28.8892   21.2453 H   0  0  0  0  0  0
  -25.9962  -25.8663   19.0041 H   0  0  0  0  0  0
  -23.9891  -27.2744   18.9884 H   0  0  0  0  0  0
  -23.7854  -30.5576   19.3877 H   0  0  0  0  0  0
  -22.7675  -29.2243   19.8428 H   0  0  0  0  0  0
  -25.1284  -36.1895   25.0827 H   0  0  0  0  0  0
  -21.0021  -28.3255   24.1383 H   0  0  0  0  0  0
  -20.5653  -26.2314   23.3613 H   0  0  0  0  0  0
  -21.6648  -26.7414   22.1216 H   0  0  0  0  0  0
  -19.6898  -25.6288   21.1251 H   0  0  0  0  0  0
  -19.6689  -27.3181   20.6733 H   0  0  0  0  0  0
  -17.4210  -26.6710   21.4017 H   0  0  0  0  0  0
  -18.0321  -26.0091   22.9023 H   0  0  0  0  0  0
  -19.7956  -30.7275   24.2282 H   0  0  0  0  0  0
  -17.5036  -31.6274   24.5165 H   0  0  0  0  0  0
  -15.5367  -30.3009   23.7637 H   0  0  0  0  0  0
  -15.8695  -28.0823   22.7089 H   0  0  0  0  0  0
  -24.5888  -30.7107   25.7794 H   0  0  0  0  0  0
  -24.8884  -32.2929   26.4854 H   0  0  0  0  0  0
  -25.8039  -30.8977   27.0226 H   0  0  0  0  0  0
  -26.2887  -29.6813   24.1184 H   0  0  0  0  0  0
  -27.4034  -29.7302   25.4658 H   0  0  0  0  0  0
  -27.8755  -30.4382   23.9391 H   0  0  0  0  0  0
  -27.2658  -33.3695   26.1994 H   0  0  0  0  0  0
  -28.3853  -32.6876   25.0284 H   0  0  0  0  0  0
  -28.0688  -31.8514   26.5402 H   0  0  0  0  0  0
  -28.2551  -38.0126   24.7596 H   0  0  0  0  0  0
  -28.1137  -36.2665   24.6161 H   0  0  0  0  0  0
  -27.2334  -37.1275   25.8863 H   0  0  0  0  0  0
  -20.9421  -29.8802   21.6881 H   0  0  0  0  0  0
  -26.0139  -38.2833   24.1500 H   0  0  0  0  0  0
  -28.5207  -20.4817   18.2570 H   0  0  0  0  0  0
  -29.1581  -16.2178   18.3181 H   0  0  0  0  0  0
  -29.8428  -18.5256   21.8818 H   0  0  0  0  0  0
  -28.9339  -19.0308   16.1485 H   0  0  0  0  0  0
  -27.3284  -18.4482   16.6064 H   0  0  0  0  0  0
  -28.6320  -17.2998   16.2791 H   0  0  0  0  0  0
  -28.3436  -21.6074   25.0688 H   0  0  0  0  0  0
  -27.8438  -22.3528   23.5899 H   0  0  0  0  0  0
  -29.4057  -22.7729   24.2955 H   0  0  0  0  0  0
  -29.8101  -19.6594   25.1388 H   0  0  0  0  0  0
  -31.1230  -20.7307   24.6658 H   0  0  0  0  0  0
  -30.8491  -19.2267   23.7964 H   0  0  0  0  0  0
  -29.3734  -24.6629   17.5790 H   0  0  0  0  0  0
  -29.5275  -26.3418   18.0690 H   0  0  0  0  0  0
  -27.9540  -25.7023   17.6229 H   0  0  0  0  0  0
  -27.2703  -21.8819   20.9204 H   0  0  0  0  0  0
  -28.3685  -22.9753   21.6566 H   0  0  0  0  0  0
  -26.8494  -23.8531   19.8142 H   0  0  0  0  0  0
  -27.9704  -23.1579   18.7258 H   0  0  0  0  0  0
  -30.5727  -22.2575   22.2138 H   0  0  0  0  0  0
  -31.0368  -20.6331   21.8988 H   0  0  0  0  0  0
  -30.0945  -21.6630   19.9882 H   0  0  0  0  0  0
  -28.6184  -20.0988   23.0384 H   0  0  0  0  0  0
  -29.6434  -24.8573   19.9940 H   0  0  0  0  0  0
  -29.0732  -15.5915   21.4982 H   0  0  0  0  0  0
  1 25  1  0  0  0
  1 30  2  0  0  0
  1 87  1  0  0  0
  2  3  1  0  0  0
  2 25  1  0  0  0
  2 88  1  0  0  0
  2 89  1  0  0  0
  3  4  1  0  0  0
  3 90  1  0  0  0
  3 91  1  0  0  0
  4  5  1  0  0  0
  4 92  1  0  0  0
  4 93  1  0  0  0
  5  6  1  0  0  0
  5 26  1  0  0  0
  5 94  1  0  0  0
  6 25  1  0  0  0
  6 95  1  0  0  0
  6 96  1  0  0  0
  7  8  2  0  0  0
  7 26  1  0  0  0
  7 29  1  0  0  0
  8  9  1  0  0  0
  8 22  1  0  0  0
  9 10  1  0  0  0
  9 27  2  0  0  0
 10 11  2  0  0  0
 10 15  1  0  0  0
 11 12  1  0  0  0
 11 97  1  0  0  0
 12 13  2  0  0  0
 12 98  1  0  0  0
 13 14  1  0  0  0
 13 31  1  0  0  0
 14 15  2  0  0  0
 14 99  1  0  0  0
 15100  1  0  0  0
 16 17  2  0  0  0
 16 21  1  0  0  0
 16 31  1  0  0  0
 17 18  1  0  0  0
 17101  1  0  0  0
 18 19  2  0  0  0
 18102  1  0  0  0
 19 20  1  0  0  0
 19 24  1  0  0  0
 20 21  2  0  0  0
 20103  1  0  0  0
 21 23  1  0  0  0
 22 28  1  0  0  0
 22 32  2  0  0  0
 26 27  1  0  0  0
 28104  1  0  0  0
 28105  1  0  0  0
 29106  1  0  0  0
 29107  1  0  0  0
 33 34  1  0  0  0
 33 66  1  0  0  0
 33 70  2  0  0  0
 34 36  1  0  0  0
 34 59  1  0  0  0
 34108  1  0  0  0
 35 44  2  0  0  0
 35 45  1  0  0  0
 35 68  1  0  0  0
 36 56  1  0  0  0
 36109  1  0  0  0
 37 39  1  0  0  0
 37 47  1  0  0  0
 37 66  1  0  0  0
 37110  1  0  0  0
 38 43  2  0  0  0
 38 46  1  0  0  0
 38 47  1  0  0  0
 39 64  1  0  0  0
 39 67  2  0  0  0
 40 52  1  0  0  0
 40 53  2  0  0  0
 40 58  1  0  0  0
 41111  1  0  0  0
 41112  1  0  0  0
 41113  1  0  0  0
 41 48  1  0  0  0
 42 43  1  0  0  0
 42 66  1  0  0  0
 42114  1  0  0  0
 42115  1  0  0  0
 43 44  1  0  0  0
 44116  1  0  0  0
 45 46  2  0  0  0
 45117  1  0  0  0
 46118  1  0  0  0
 47119  1  0  0  0
 47120  1  0  0  0
 48 56  1  0  0  0
 48 65  1  0  0  0
 48121  1  0  0  0
 49 50  1  0  0  0
 49 53  1  0  0  0
 49 64  1  0  0  0
 49122  1  0  0  0
 50 51  1  0  0  0
 50123  1  0  0  0
 50124  1  0  0  0
 51 52  1  0  0  0
 51125  1  0  0  0
 51126  1  0  0  0
 52127  1  0  0  0
 52128  1  0  0  0
 53 54  1  0  0  0
 54 55  2  0  0  0
 54129  1  0  0  0
 55 57  1  0  0  0
 55130  1  0  0  0
 56 69  2  0  0  0
 57 58  2  0  0  0
 57131  1  0  0  0
 58132  1  0  0  0
 59 60  1  0  0  0
 59 61  1  0  0  0
 59 62  1  0  0  0
 60133  1  0  0  0
 60134  1  0  0  0
 60135  1  0  0  0
 61136  1  0  0  0
 61137  1  0  0  0
 61138  1  0  0  0
 62139  1  0  0  0
 62140  1  0  0  0
 62141  1  0  0  0
 63 65  1  0  0  0
 63142  1  0  0  0
 63143  1  0  0  0
 63144  1  0  0  0
 64145  1  0  0  0
 65146  1  0  0  0
 68 86  1  0  0  0
 71 74  2  0  0  0
 71 75  1  0  0  0
 71147  1  0  0  0
 72 74  1  0  0  0
 72 76  2  0  0  0
 72148  1  0  0  0
 73 75  2  0  0  0
 73 76  1  0  0  0
 73149  1  0  0  0
 74 77  1  0  0  0
 75 84  1  0  0  0
 76 87  1  0  0  0
 77150  1  0  0  0
 77151  1  0  0  0
 77152  1  0  0  0
 78153  1  0  0  0
 78154  1  0  0  0
 78155  1  0  0  0
 78 85  1  0  0  0
 79 85  1  0  0  0
 79156  1  0  0  0
 79157  1  0  0  0
 79158  1  0  0  0
 80159  1  0  0  0
 80160  1  0  0  0
 80161  1  0  0  0
 80 86  1  0  0  0
 81 82  1  0  0  0
 81162  1  0  0  0
 81163  1  0  0  0
 81 84  1  0  0  0
 82 86  1  0  0  0
 82164  1  0  0  0
 82165  1  0  0  0
 83 84  1  0  0  0
 83 85  1  0  0  0
 83166  1  0  0  0
 83167  1  0  0  0
 84168  1  0  0  0
 85169  1  0  0  0
 86170  1  0  0  0
 87171  1  0  0  0
M  ISO  4   1 100  68 101  86 101  87 100
M  END
> <chiral flag>
0

> <version>
0

> <s_m_source_file>
/data/baiqing/PycharmProjects/Reinvent-master-3.2/result/LINK_invent/BTK/process_docking_weight1_custom_product_contain_oxygen_bond_distance_aromatic_linkinvent_7_9_3/rearranged_h_0136.sdf

> <i_m_source_file_index>
19

> <r_mmod_Potential_Energy-OPLS-2005>
361.761291503906

> <r_mmod_Stretch_Energy-OPLS-2005>
148.505950927734

> <r_mmod_Bend_Energy-OPLS-2005>
276.72216796875

> <r_mmod_Torsional_Energy-OPLS-2005>
277.888580322266

> <r_mmod_Improper_Torsional_Energy-OPLS-2005>
5.8556170463562

> <r_mmod_Van_der_Waal_Energy-OPLS-2005>
127.371604919434

> <r_mmod_Electrostatic_Energy-OPLS-2005>
-376.824340820312

> <r_mmod_Solvation_Energy-OPLS-2005>
-193.394485473633

> <b_mmod_Minimization_Converged-OPLS-2005>
0

> <r_mmod_RMS_Derivative-OPLS-2005>
2.53303837776184

$$$$
19
                    3D
 Structure written by MMmdl.
170178  0  0  1  0            999 V2000
  -30.7396  -14.4193   20.6832 C   0  0  0  0  0  0
  -30.4230  -12.3284   19.3945 C   0  0  0  0  0  0
  -29.4848  -12.5389   18.1908 C   0  0  0  0  0  0
  -28.0090  -12.3845   18.6072 C   0  0  0  0  0  0
  -27.6651  -13.2015   19.8797 C   0  0  2  0  0  0
  -28.7047  -12.9292   20.9860 C   0  0  0  0  0  0
  -25.2608  -13.8150   20.5677 C   0  0  0  0  0  0
  -24.1853  -13.0438   20.9158 C   0  0  0  0  0  0
  -24.6398  -11.6899   20.8726 C   0  0  0  0  0  0
  -23.9060  -10.4290   21.0399 C   0  0  0  0  0  0
  -24.3613   -9.4208   21.9182 C   0  0  0  0  0  0
  -23.6287   -8.2247   22.0757 C   0  0  0  0  0  0
  -22.4271   -8.0282   21.3546 C   0  0  0  0  0  0
  -21.9905   -9.0256   20.4651 C   0  0  0  0  0  0
  -22.7233  -10.2133   20.3054 C   0  0  0  0  0  0
  -21.6851   -6.0735   22.5277 C   0  0  0  0  0  0
  -21.4014   -6.5641   23.8212 C   0  0  0  0  0  0
  -21.3659   -5.6793   24.9174 C   0  0  0  0  0  0
  -21.6044   -4.3055   24.7224 C   0  0  0  0  0  0
  -21.8820   -3.8149   23.4346 C   0  0  0  0  0  0
  -21.9193   -4.6962   22.3402 C   0  0  0  0  0  0
  -22.7877  -13.5244   21.1824 C   0  0  0  0  0  0
  -22.1662   -4.2148   21.0978 F   0  0  0  0  0  0
  -21.5627   -3.4541   25.7738 F   0  0  0  0  0  0
  -30.0357  -13.2705   20.4582 N   0  0  0  0  0  0
  -26.3046  -12.9315   20.3391 N   0  0  0  0  0  0
  -25.9324  -11.6476   20.5760 N   0  0  0  0  0  0
  -22.0520  -12.8243   22.0385 N   0  0  0  0  0  0
  -25.4335  -15.1864   20.4105 N   0  0  0  0  0  0
  -31.7542  -14.7210   20.0422 O   0  0  0  0  0  0
  -21.6639   -6.8876   21.4240 O   0  0  0  0  0  0
  -22.3559  -14.5549   20.6671 O   0  0  0  0  0  0
  -24.6150  -31.8673   23.2094 C   0  0  0  0  0  0
  -25.9054  -32.4813   23.8382 C   0  0  1  0  0  0
  -27.2445  -27.4320   20.0836 C   0  0  0  0  0  0
  -25.5923  -33.8613   24.2324 N   0  0  0  0  0  0
  -23.4023  -30.4887   21.5502 C   0  0  2  0  0  0
  -24.8492  -28.9477   20.1147 C   0  0  0  0  0  0
  -22.7399  -29.4663   22.5008 C   0  0  0  0  0  0
  -18.0277  -28.1366   22.8497 C   0  0  0  0  0  0
  -24.1489  -36.7312   23.2633 C   0  0  0  0  0  0
  -25.9297  -30.8279   21.3624 C   0  0  0  0  0  0
  -26.0056  -29.4588   20.7140 C   0  0  0  0  0  0
  -27.1990  -28.7021   20.7062 C   0  0  0  0  0  0
  -26.0668  -26.9294   19.4869 C   0  0  0  0  0  0
  -24.8734  -27.6801   19.5038 C   0  0  0  0  0  0
  -23.6102  -29.8150   20.1659 C   0  0  0  0  0  0
  -25.4107  -36.3106   24.0336 C   0  0  1  0  0  0
  -20.5865  -28.3657   23.1321 C   0  0  2  0  0  0
  -20.6764  -26.9394   22.5419 C   0  0  0  0  0  0
  -19.5741  -26.6379   21.5215 C   0  0  0  0  0  0
  -18.1922  -26.7914   22.1629 C   0  0  0  0  0  0
  -19.1522  -28.8832   23.2902 C   0  0  0  0  0  0
  -18.9453  -30.1445   23.8896 C   0  0  0  0  0  0
  -17.6454  -30.6573   24.0564 C   0  0  0  0  0  0
  -25.9047  -34.9476   23.5125 C   0  0  0  0  0  0
  -16.5347  -29.9077   23.6316 C   0  0  0  0  0  0
  -16.7267  -28.6497   23.0333 C   0  0  0  0  0  0
  -26.4484  -31.6584   25.0706 C   0  0  0  0  0  0
  -25.3754  -31.3674   26.1450 C   0  0  0  0  0  0
  -27.0312  -30.3031   24.6074 C   0  0  0  0  0  0
  -27.6065  -32.4298   25.7466 C   0  0  0  0  0  0
  -27.5583  -37.1808   24.8467 C   0  0  0  0  0  0
  -21.4135  -29.3027   22.3727 N   0  0  0  0  0  0
  -26.4293  -37.3794   23.9413 N   0  0  0  0  0  0
  -24.6671  -31.0758   22.0998 N   0  0  0  0  0  0
  -23.4167  -28.8226   23.3075 O   0  0  0  0  0  0
  -28.4295  -26.7228   20.1167 O   0  0  0  0  0  0
  -26.5604  -34.8931   22.4688 O   0  0  0  0  0  0
  -23.5346  -32.1450   23.7485 O   0  0  0  0  0  0
  -27.4594  -17.8452   22.1732 C   0  0  0  0  0  0
  -27.8821  -18.8397   21.2797 C   0  0  0  0  0  0
  -29.8164  -17.4774   20.7263 C   0  0  0  0  0  0
  -29.4229  -16.4622   21.6440 C   0  0  0  0  0  0
  -28.2217  -16.6781   22.3926 C   0  0  0  0  0  0
  -29.0835  -18.6807   20.5618 C   0  0  0  0  0  0
  -30.3251  -15.2782   21.8822 C   0  0  0  0  0  0
  -27.6862  -16.3303   24.8639 C   0  0  0  0  0  0
  -30.9074  -21.4018   18.0038 C   0  0  0  0  0  0
  -28.4332  -21.6393   17.7026 C   0  0  0  0  0  0
  -27.6787  -15.7195   23.4554 C   0  0  0  0  0  0
  -28.6175  -24.2672   19.5285 C   0  0  0  0  0  0
  -29.7762  -23.4113   18.9372 C   0  0  0  0  0  0
  -28.7336  -25.7598   19.0989 C   0  0  0  0  0  0
  -29.3809  -21.0340   19.9707 C   0  0  0  0  0  0
  -29.6005  -21.8779   18.6805 C   0  0  0  0  0  0
  -30.7565  -15.0112   23.0447 N   0  0  0  0  0  0
  -29.5472  -19.6314   19.6727 O   0  0  0  0  0  0
  -31.4628  -12.4501   19.0863 H   0  0  0  0  0  0
  -30.3474  -11.3033   19.7610 H   0  0  0  0  0  0
  -29.7254  -11.8297   17.3977 H   0  0  0  0  0  0
  -29.6458  -13.5336   17.7717 H   0  0  0  0  0  0
  -27.8213  -11.3247   18.7861 H   0  0  0  0  0  0
  -27.3542  -12.6745   17.7849 H   0  0  0  0  0  0
  -27.7253  -14.2580   19.6163 H   0  0  0  0  0  0
  -28.6868  -11.8757   21.2694 H   0  0  0  0  0  0
  -28.4385  -13.4614   21.8895 H   0  0  0  0  0  0
  -25.2759   -9.5686   22.4753 H   0  0  0  0  0  0
  -23.9996   -7.4641   22.7481 H   0  0  0  0  0  0
  -21.0834   -8.8775   19.8960 H   0  0  0  0  0  0
  -22.3691  -10.9672   19.6164 H   0  0  0  0  0  0
  -21.2008   -7.6150   23.9711 H   0  0  0  0  0  0
  -21.1480   -6.0527   25.9076 H   0  0  0  0  0  0
  -22.0600   -2.7610   23.2847 H   0  0  0  0  0  0
  -22.4131  -11.9904   22.4773 H   0  0  0  0  0  0
  -21.1142  -13.1279   22.2590 H   0  0  0  0  0  0
  -24.6721  -15.8436   20.5359 H   0  0  0  0  0  0
  -26.3029  -15.6350   20.1515 H   0  0  0  0  0  0
  -26.7124  -32.5519   23.1144 H   0  0  0  0  0  0
  -25.0067  -33.9773   25.0464 H   0  0  0  0  0  0
  -22.6918  -31.3065   21.4093 H   0  0  0  0  0  0
  -23.3750  -35.9649   23.3303 H   0  0  0  0  0  0
  -24.3555  -36.8928   22.2045 H   0  0  0  0  0  0
  -23.7272  -37.6531   23.6637 H   0  0  0  0  0  0
  -26.0372  -31.5910   20.5899 H   0  0  0  0  0  0
  -26.8199  -30.8868   21.9768 H   0  0  0  0  0  0
  -28.0908  -29.0935   21.1763 H   0  0  0  0  0  0
  -26.0564  -25.9530   19.0245 H   0  0  0  0  0  0
  -23.9806  -27.2756   19.0481 H   0  0  0  0  0  0
  -23.7199  -30.5894   19.4061 H   0  0  0  0  0  0
  -22.7330  -29.2363   19.8698 H   0  0  0  0  0  0
  -25.1291  -36.1952   25.0831 H   0  0  0  0  0  0
  -20.9949  -28.3219   24.1448 H   0  0  0  0  0  0
  -20.5675  -26.2267   23.3608 H   0  0  0  0  0  0
  -21.6635  -26.7452   22.1208 H   0  0  0  0  0  0
  -19.6906  -25.6297   21.1235 H   0  0  0  0  0  0
  -19.6669  -27.3194   20.6749 H   0  0  0  0  0  0
  -17.4197  -26.6674   21.4028 H   0  0  0  0  0  0
  -18.0321  -26.0042   22.9010 H   0  0  0  0  0  0
  -19.7929  -30.7274   24.2242 H   0  0  0  0  0  0
  -17.5004  -31.6237   24.5191 H   0  0  0  0  0  0
  -15.5349  -30.2985   23.7619 H   0  0  0  0  0  0
  -15.8670  -28.0827   22.7025 H   0  0  0  0  0  0
  -24.5951  -30.6996   25.7785 H   0  0  0  0  0  0
  -24.8909  -32.2812   26.4891 H   0  0  0  0  0  0
  -25.8115  -30.8857   27.0209 H   0  0  0  0  0  0
  -26.2841  -29.6784   24.1163 H   0  0  0  0  0  0
  -27.4129  -29.7278   25.4520 H   0  0  0  0  0  0
  -27.8656  -30.4360   23.9183 H   0  0  0  0  0  0
  -27.2699  -33.3608   26.2036 H   0  0  0  0  0  0
  -28.3865  -32.6844   25.0279 H   0  0  0  0  0  0
  -28.0732  -31.8422   26.5382 H   0  0  0  0  0  0
  -28.2610  -38.0101   24.7508 H   0  0  0  0  0  0
  -28.1079  -36.2632   24.6293 H   0  0  0  0  0  0
  -27.2286  -37.1460   25.8869 H   0  0  0  0  0  0
  -20.9298  -29.8743   21.6940 H   0  0  0  0  0  0
  -26.0180  -38.2878   24.1399 H   0  0  0  0  0  0
  -26.5361  -17.9946   22.7162 H   0  0  0  0  0  0
  -27.2531  -19.7078   21.1539 H   0  0  0  0  0  0
  -30.7336  -17.3571   20.1665 H   0  0  0  0  0  0
  -27.3024  -15.6161   25.5929 H   0  0  0  0  0  0
  -27.0640  -17.2237   24.9245 H   0  0  0  0  0  0
  -28.6959  -16.6041   25.1707 H   0  0  0  0  0  0
  -31.1282  -21.9704   17.0999 H   0  0  0  0  0  0
  -30.8608  -20.3531   17.7079 H   0  0  0  0  0  0
  -31.7611  -21.5113   18.6741 H   0  0  0  0  0  0
  -28.5329  -22.2467   16.8020 H   0  0  0  0  0  0
  -27.4705  -21.8745   18.1552 H   0  0  0  0  0  0
  -28.3895  -20.5958   17.3882 H   0  0  0  0  0  0
  -28.2190  -14.7806   23.5066 H   0  0  0  0  0  0
  -26.6578  -15.4484   23.1816 H   0  0  0  0  0  0
  -28.6403  -24.1855   20.6154 H   0  0  0  0  0  0
  -27.6435  -23.8911   19.2188 H   0  0  0  0  0  0
  -30.6566  -23.5695   19.5624 H   0  0  0  0  0  0
  -30.0379  -23.8566   17.9758 H   0  0  0  0  0  0
  -28.1882  -25.9432   18.1714 H   0  0  0  0  0  0
  -29.7748  -25.9696   18.8501 H   0  0  0  0  0  0
  -28.4071  -21.2815   20.3879 H   0  0  0  0  0  0
  -30.1183  -21.3043   20.7280 H   0  0  0  0  0  0
  -30.3981  -15.6810   23.7148 H   0  0  0  0  0  0
  1 25  1  0  0  0
  1 30  2  0  0  0
  1 77  1  0  0  0
  2  3  1  0  0  0
  2 25  1  0  0  0
  2 89  1  0  0  0
  2 90  1  0  0  0
  3  4  1  0  0  0
  3 91  1  0  0  0
  3 92  1  0  0  0
  4  5  1  0  0  0
  4 93  1  0  0  0
  4 94  1  0  0  0
  5  6  1  0  0  0
  5 26  1  0  0  0
  5 95  1  0  0  0
  6 25  1  0  0  0
  6 96  1  0  0  0
  6 97  1  0  0  0
  7  8  2  0  0  0
  7 26  1  0  0  0
  7 29  1  0  0  0
  8  9  1  0  0  0
  8 22  1  0  0  0
  9 10  1  0  0  0
  9 27  2  0  0  0
 10 11  2  0  0  0
 10 15  1  0  0  0
 11 12  1  0  0  0
 11 98  1  0  0  0
 12 13  2  0  0  0
 12 99  1  0  0  0
 13 14  1  0  0  0
 13 31  1  0  0  0
 14 15  2  0  0  0
 14100  1  0  0  0
 15101  1  0  0  0
 16 17  2  0  0  0
 16 21  1  0  0  0
 16 31  1  0  0  0
 17 18  1  0  0  0
 17102  1  0  0  0
 18 19  2  0  0  0
 18103  1  0  0  0
 19 20  1  0  0  0
 19 24  1  0  0  0
 20 21  2  0  0  0
 20104  1  0  0  0
 21 23  1  0  0  0
 22 28  1  0  0  0
 22 32  2  0  0  0
 26 27  1  0  0  0
 28105  1  0  0  0
 28106  1  0  0  0
 29107  1  0  0  0
 29108  1  0  0  0
 33 34  1  0  0  0
 33 66  1  0  0  0
 33 70  2  0  0  0
 34 36  1  0  0  0
 34 59  1  0  0  0
 34109  1  0  0  0
 35 44  2  0  0  0
 35 45  1  0  0  0
 35 68  1  0  0  0
 36 56  1  0  0  0
 36110  1  0  0  0
 37 39  1  0  0  0
 37 47  1  0  0  0
 37 66  1  0  0  0
 37111  1  0  0  0
 38 43  2  0  0  0
 38 46  1  0  0  0
 38 47  1  0  0  0
 39 64  1  0  0  0
 39 67  2  0  0  0
 40 52  1  0  0  0
 40 53  2  0  0  0
 40 58  1  0  0  0
 41112  1  0  0  0
 41113  1  0  0  0
 41114  1  0  0  0
 41 48  1  0  0  0
 42 43  1  0  0  0
 42 66  1  0  0  0
 42115  1  0  0  0
 42116  1  0  0  0
 43 44  1  0  0  0
 44117  1  0  0  0
 45 46  2  0  0  0
 45118  1  0  0  0
 46119  1  0  0  0
 47120  1  0  0  0
 47121  1  0  0  0
 48 56  1  0  0  0
 48 65  1  0  0  0
 48122  1  0  0  0
 49 50  1  0  0  0
 49 53  1  0  0  0
 49 64  1  0  0  0
 49123  1  0  0  0
 50 51  1  0  0  0
 50124  1  0  0  0
 50125  1  0  0  0
 51 52  1  0  0  0
 51126  1  0  0  0
 51127  1  0  0  0
 52128  1  0  0  0
 52129  1  0  0  0
 53 54  1  0  0  0
 54 55  2  0  0  0
 54130  1  0  0  0
 55 57  1  0  0  0
 55131  1  0  0  0
 56 69  2  0  0  0
 57 58  2  0  0  0
 57132  1  0  0  0
 58133  1  0  0  0
 59 60  1  0  0  0
 59 61  1  0  0  0
 59 62  1  0  0  0
 60134  1  0  0  0
 60135  1  0  0  0
 60136  1  0  0  0
 61137  1  0  0  0
 61138  1  0  0  0
 61139  1  0  0  0
 62140  1  0  0  0
 62141  1  0  0  0
 62142  1  0  0  0
 63 65  1  0  0  0
 63143  1  0  0  0
 63144  1  0  0  0
 63145  1  0  0  0
 64146  1  0  0  0
 65147  1  0  0  0
 68 84  1  0  0  0
 71 72  2  0  0  0
 71 75  1  0  0  0
 71148  1  0  0  0
 72 76  1  0  0  0
 72149  1  0  0  0
 73 74  1  0  0  0
 73 76  2  0  0  0
 73150  1  0  0  0
 74 75  2  0  0  0
 74 77  1  0  0  0
 75 81  1  0  0  0
 76 88  1  0  0  0
 77 87  2  0  0  0
 78 81  1  0  0  0
 78151  1  0  0  0
 78152  1  0  0  0
 78153  1  0  0  0
 79154  1  0  0  0
 79155  1  0  0  0
 79156  1  0  0  0
 79 86  1  0  0  0
 80 86  1  0  0  0
 80157  1  0  0  0
 80158  1  0  0  0
 80159  1  0  0  0
 81160  1  0  0  0
 81161  1  0  0  0
 82 83  1  0  0  0
 82 84  1  0  0  0
 82162  1  0  0  0
 82163  1  0  0  0
 83 86  1  0  0  0
 83164  1  0  0  0
 83165  1  0  0  0
 84166  1  0  0  0
 84167  1  0  0  0
 85 86  1  0  0  0
 85 88  1  0  0  0
 85168  1  0  0  0
 85169  1  0  0  0
 87170  1  0  0  0
M  ISO  4   1 100  68 101  77 100  84 101
M  END
> <chiral flag>
0

> <version>
0

> <s_m_source_file>
/data/baiqing/PycharmProjects/Reinvent-master-3.2/result/LINK_invent/BTK/process_docking_weight1_custom_product_contain_oxygen_bond_distance_aromatic_linkinvent_7_9_3/rearranged_h_0136.sdf

> <i_m_source_file_index>
20

> <r_mmod_Potential_Energy-OPLS-2005>
178.532485961914

> <r_mmod_Stretch_Energy-OPLS-2005>
47.6718482971191

> <r_mmod_Bend_Energy-OPLS-2005>
133.972183227539

> <r_mmod_Torsional_Energy-OPLS-2005>
259.221069335938

> <r_mmod_Improper_Torsional_Energy-OPLS-2005>
3.1408531665802

> <r_mmod_Van_der_Waal_Energy-OPLS-2005>
149.59114074707

> <r_mmod_Electrostatic_Energy-OPLS-2005>
-240.953506469727

> <r_mmod_Solvation_Energy-OPLS-2005>
-184.52375793457

> <b_mmod_Minimization_Converged-OPLS-2005>
0

> <r_mmod_RMS_Derivative-OPLS-2005>
1.33937394618988

$$$$
20
                    3D
 Structure written by MMmdl.
159167  0  0  1  0            999 V2000
  -30.6437  -14.6088   20.5076 C   0  0  0  0  0  0
  -30.4326  -12.3742   19.4468 C   0  0  0  0  0  0
  -29.5026  -12.5014   18.2198 C   0  0  0  0  0  0
  -28.0253  -12.3481   18.6317 C   0  0  0  0  0  0
  -27.6542  -13.2151   19.8651 C   0  0  2  0  0  0
  -28.6998  -13.0594   20.9929 C   0  0  0  0  0  0
  -25.2570  -13.8169   20.5703 C   0  0  0  0  0  0
  -24.1826  -13.0435   20.9177 C   0  0  0  0  0  0
  -24.6392  -11.6904   20.8722 C   0  0  0  0  0  0
  -23.9060  -10.4289   21.0392 C   0  0  0  0  0  0
  -24.3613   -9.4212   21.9175 C   0  0  0  0  0  0
  -23.6292   -8.2246   22.0753 C   0  0  0  0  0  0
  -22.4274   -8.0281   21.3542 C   0  0  0  0  0  0
  -21.9907   -9.0250   20.4640 C   0  0  0  0  0  0
  -22.7231  -10.2131   20.3047 C   0  0  0  0  0  0
  -21.6856   -6.0738   22.5280 C   0  0  0  0  0  0
  -21.4011   -6.5643   23.8211 C   0  0  0  0  0  0
  -21.3662   -5.6796   24.9174 C   0  0  0  0  0  0
  -21.6040   -4.3057   24.7224 C   0  0  0  0  0  0
  -21.8821   -3.8153   23.4344 C   0  0  0  0  0  0
  -21.9193   -4.6968   22.3402 C   0  0  0  0  0  0
  -22.7849  -13.5227   21.1848 C   0  0  0  0  0  0
  -22.1664   -4.2158   21.0978 F   0  0  0  0  0  0
  -21.5631   -3.4542   25.7733 F   0  0  0  0  0  0
  -30.0180  -13.3929   20.4307 N   0  0  0  0  0  0
  -26.2998  -12.9346   20.3348 N   0  0  0  0  0  0
  -25.9321  -11.6498   20.5754 N   0  0  0  0  0  0
  -22.0494  -12.8214   22.0403 N   0  0  0  0  0  0
  -25.4291  -15.1891   20.4196 N   0  0  0  0  0  0
  -31.8042  -14.7568   20.1152 O   0  0  0  0  0  0
  -21.6639   -6.8876   21.4240 O   0  0  0  0  0  0
  -22.3528  -14.5538   20.6713 O   0  0  0  0  0  0
  -24.6227  -31.8627   23.2065 C   0  0  0  0  0  0
  -25.9084  -32.4800   23.8373 C   0  0  1  0  0  0
  -27.2180  -27.3429   20.1219 C   0  0  0  0  0  0
  -25.5919  -33.8599   24.2299 N   0  0  0  0  0  0
  -23.4171  -30.4863   21.5469 C   0  0  2  0  0  0
  -24.8648  -28.9486   20.1086 C   0  0  0  0  0  0
  -22.7467  -29.4629   22.4954 C   0  0  0  0  0  0
  -18.0291  -28.1390   22.8465 C   0  0  0  0  0  0
  -24.1498  -36.7287   23.2640 C   0  0  0  0  0  0
  -25.9560  -30.7981   21.3783 C   0  0  0  0  0  0
  -26.0294  -29.4272   20.7240 C   0  0  0  0  0  0
  -27.2119  -28.6320   20.7268 C   0  0  0  0  0  0
  -26.0492  -26.9324   19.4470 C   0  0  0  0  0  0
  -24.8743  -27.7043   19.4610 C   0  0  0  0  0  0
  -23.6312  -29.8245   20.1607 C   0  0  0  0  0  0
  -25.4119  -36.3086   24.0338 C   0  0  1  0  0  0
  -20.5892  -28.3669   23.1293 C   0  0  2  0  0  0
  -20.6793  -26.9399   22.5413 C   0  0  0  0  0  0
  -19.5767  -26.6384   21.5218 C   0  0  0  0  0  0
  -18.1940  -26.7932   22.1611 C   0  0  0  0  0  0
  -19.1547  -28.8846   23.2875 C   0  0  0  0  0  0
  -18.9471  -30.1449   23.8884 C   0  0  0  0  0  0
  -17.6474  -30.6585   24.0551 C   0  0  0  0  0  0
  -25.9045  -34.9459   23.5115 C   0  0  0  0  0  0
  -16.5361  -29.9077   23.6335 C   0  0  0  0  0  0
  -16.7278  -28.6506   23.0331 C   0  0  0  0  0  0
  -26.4488  -31.6599   25.0731 C   0  0  0  0  0  0
  -25.3724  -31.3729   26.1456 C   0  0  0  0  0  0
  -27.0325  -30.3023   24.6162 C   0  0  0  0  0  0
  -27.6056  -32.4324   25.7499 C   0  0  0  0  0  0
  -27.5577  -37.1800   24.8468 C   0  0  0  0  0  0
  -21.4186  -29.3021   22.3679 N   0  0  0  0  0  0
  -26.4294  -37.3779   23.9409 N   0  0  0  0  0  0
  -24.6833  -31.0661   22.1008 N   0  0  0  0  0  0
  -23.4205  -28.8175   23.3027 O   0  0  0  0  0  0
  -28.3274  -26.4912   20.1203 O   0  0  0  0  0  0
  -26.5617  -34.8921   22.4676 O   0  0  0  0  0  0
  -23.5393  -32.1423   23.7393 O   0  0  0  0  0  0
  -31.1642  -19.1908   20.0753 C   0  0  0  0  0  0
  -31.1505  -17.7776   20.2474 C   0  0  0  0  0  0
  -28.8882  -19.3387   20.8231 C   0  0  0  0  0  0
  -30.0370  -20.0226   20.3466 C   0  0  0  0  0  0
  -29.9902  -17.1032   20.7039 C   0  0  0  0  0  0
  -28.8663  -17.9226   20.9920 C   0  0  0  0  0  0
  -30.0961  -21.5322   20.0668 C   0  0  0  0  0  0
  -26.8949  -24.6500   21.1770 C   0  0  0  0  0  0
  -28.9690  -25.5848   22.2094 C   0  0  0  0  0  0
  -29.1566  -22.5822   20.7537 C   0  0  0  0  0  0
  -29.1429  -24.0662   20.1477 C   0  0  0  0  0  0
  -28.3061  -25.2100   20.8735 C   0  0  0  0  0  0
  -30.9616  -21.9793   19.2573 N   0  0  0  0  0  0
  -29.8598  -15.6613   20.8871 N   0  0  0  0  0  0
  -27.7274  -17.3276   21.4243 F   0  0  0  0  0  0
  -31.4747  -12.4910   19.1420 H   0  0  0  0  0  0
  -30.3601  -11.3759   19.8817 H   0  0  0  0  0  0
  -29.7598  -11.7492   17.4724 H   0  0  0  0  0  0
  -29.6508  -13.4705   17.7407 H   0  0  0  0  0  0
  -27.8536  -11.2942   18.8551 H   0  0  0  0  0  0
  -27.3719  -12.5869   17.7917 H   0  0  0  0  0  0
  -27.6753  -14.2522   19.5310 H   0  0  0  0  0  0
  -28.7035  -12.0356   21.3698 H   0  0  0  0  0  0
  -28.4498  -13.6884   21.8486 H   0  0  0  0  0  0
  -25.2758   -9.5698   22.4748 H   0  0  0  0  0  0
  -24.0013   -7.4636   22.7466 H   0  0  0  0  0  0
  -21.0847   -8.8747   19.8940 H   0  0  0  0  0  0
  -22.3677  -10.9663   19.6155 H   0  0  0  0  0  0
  -21.1999   -7.6149   23.9718 H   0  0  0  0  0  0
  -21.1485   -6.0525   25.9078 H   0  0  0  0  0  0
  -22.0598   -2.7616   23.2836 H   0  0  0  0  0  0
  -22.4122  -11.9875   22.4783 H   0  0  0  0  0  0
  -21.1104  -13.1222   22.2599 H   0  0  0  0  0  0
  -24.6730  -15.8461   20.5750 H   0  0  0  0  0  0
  -26.3042  -15.6451   20.1969 H   0  0  0  0  0  0
  -26.7143  -32.5471   23.1107 H   0  0  0  0  0  0
  -25.0091  -33.9746   25.0457 H   0  0  0  0  0  0
  -22.7105  -31.3066   21.4053 H   0  0  0  0  0  0
  -23.3768  -35.9609   23.3311 H   0  0  0  0  0  0
  -24.3596  -36.8903   22.2057 H   0  0  0  0  0  0
  -23.7264  -37.6493   23.6653 H   0  0  0  0  0  0
  -26.0922  -31.5605   20.6107 H   0  0  0  0  0  0
  -26.8355  -30.8441   22.0095 H   0  0  0  0  0  0
  -28.1061  -28.9910   21.2155 H   0  0  0  0  0  0
  -26.0371  -25.9907   18.9197 H   0  0  0  0  0  0
  -23.9878  -27.3405   18.9598 H   0  0  0  0  0  0
  -23.7476  -30.6017   19.4053 H   0  0  0  0  0  0
  -22.7547  -29.2495   19.8572 H   0  0  0  0  0  0
  -25.1309  -36.1927   25.0836 H   0  0  0  0  0  0
  -20.9972  -28.3215   24.1421 H   0  0  0  0  0  0
  -20.5728  -26.2262   23.3592 H   0  0  0  0  0  0
  -21.6656  -26.7456   22.1186 H   0  0  0  0  0  0
  -19.6942  -25.6303   21.1232 H   0  0  0  0  0  0
  -19.6727  -27.3193   20.6751 H   0  0  0  0  0  0
  -17.4230  -26.6677   21.3997 H   0  0  0  0  0  0
  -18.0313  -26.0094   22.9025 H   0  0  0  0  0  0
  -19.7953  -30.7264   24.2247 H   0  0  0  0  0  0
  -17.5035  -31.6264   24.5144 H   0  0  0  0  0  0
  -15.5357  -30.2971   23.7689 H   0  0  0  0  0  0
  -15.8683  -28.0829   22.7040 H   0  0  0  0  0  0
  -24.5912  -30.7078   25.7760 H   0  0  0  0  0  0
  -24.8904  -32.2899   26.4845 H   0  0  0  0  0  0
  -25.8040  -30.8917   27.0238 H   0  0  0  0  0  0
  -26.2879  -29.6786   24.1198 H   0  0  0  0  0  0
  -27.4064  -29.7263   25.4637 H   0  0  0  0  0  0
  -27.8734  -30.4334   23.9354 H   0  0  0  0  0  0
  -27.2682  -33.3643   26.2032 H   0  0  0  0  0  0
  -28.3870  -32.6849   25.0329 H   0  0  0  0  0  0
  -28.0699  -31.8480   26.5448 H   0  0  0  0  0  0
  -28.2592  -38.0095   24.7509 H   0  0  0  0  0  0
  -28.1091  -36.2634   24.6307 H   0  0  0  0  0  0
  -27.2303  -37.1456   25.8874 H   0  0  0  0  0  0
  -20.9366  -29.8723   21.6871 H   0  0  0  0  0  0
  -26.0181  -38.2854   24.1412 H   0  0  0  0  0  0
  -32.0813  -19.6370   19.7156 H   0  0  0  0  0  0
  -32.0489  -17.2261   20.0111 H   0  0  0  0  0  0
  -27.9897  -19.8947   21.0438 H   0  0  0  0  0  0
  -26.9456  -23.8087   21.8676 H   0  0  0  0  0  0
  -26.4002  -24.2865   20.2766 H   0  0  0  0  0  0
  -26.2460  -25.3832   21.6557 H   0  0  0  0  0  0
  -29.0736  -24.7225   22.8673 H   0  0  0  0  0  0
  -28.3798  -26.3317   22.7442 H   0  0  0  0  0  0
  -29.9619  -26.0071   22.0552 H   0  0  0  0  0  0
  -29.4368  -22.6290   21.8059 H   0  0  0  0  0  0
  -28.1424  -22.1850   20.7292 H   0  0  0  0  0  0
  -28.7880  -23.9940   19.1192 H   0  0  0  0  0  0
  -30.1730  -24.4185   20.0665 H   0  0  0  0  0  0
  -31.5272  -21.2348   18.8668 H   0  0  0  0  0  0
  -28.9486  -15.3840   21.2205 H   0  0  0  0  0  0
  1 25  1  0  0  0
  1 30  2  0  0  0
  1 84  1  0  0  0
  2  3  1  0  0  0
  2 25  1  0  0  0
  2 86  1  0  0  0
  2 87  1  0  0  0
  3  4  1  0  0  0
  3 88  1  0  0  0
  3 89  1  0  0  0
  4  5  1  0  0  0
  4 90  1  0  0  0
  4 91  1  0  0  0
  5  6  1  0  0  0
  5 26  1  0  0  0
  5 92  1  0  0  0
  6 25  1  0  0  0
  6 93  1  0  0  0
  6 94  1  0  0  0
  7  8  2  0  0  0
  7 26  1  0  0  0
  7 29  1  0  0  0
  8  9  1  0  0  0
  8 22  1  0  0  0
  9 10  1  0  0  0
  9 27  2  0  0  0
 10 11  2  0  0  0
 10 15  1  0  0  0
 11 12  1  0  0  0
 11 95  1  0  0  0
 12 13  2  0  0  0
 12 96  1  0  0  0
 13 14  1  0  0  0
 13 31  1  0  0  0
 14 15  2  0  0  0
 14 97  1  0  0  0
 15 98  1  0  0  0
 16 17  2  0  0  0
 16 21  1  0  0  0
 16 31  1  0  0  0
 17 18  1  0  0  0
 17 99  1  0  0  0
 18 19  2  0  0  0
 18100  1  0  0  0
 19 20  1  0  0  0
 19 24  1  0  0  0
 20 21  2  0  0  0
 20101  1  0  0  0
 21 23  1  0  0  0
 22 28  1  0  0  0
 22 32  2  0  0  0
 26 27  1  0  0  0
 28102  1  0  0  0
 28103  1  0  0  0
 29104  1  0  0  0
 29105  1  0  0  0
 33 34  1  0  0  0
 33 66  1  0  0  0
 33 70  2  0  0  0
 34 36  1  0  0  0
 34 59  1  0  0  0
 34106  1  0  0  0
 35 44  2  0  0  0
 35 45  1  0  0  0
 35 68  1  0  0  0
 36 56  1  0  0  0
 36107  1  0  0  0
 37 39  1  0  0  0
 37 47  1  0  0  0
 37 66  1  0  0  0
 37108  1  0  0  0
 38 43  2  0  0  0
 38 46  1  0  0  0
 38 47  1  0  0  0
 39 64  1  0  0  0
 39 67  2  0  0  0
 40 52  1  0  0  0
 40 53  2  0  0  0
 40 58  1  0  0  0
 41109  1  0  0  0
 41110  1  0  0  0
 41111  1  0  0  0
 41 48  1  0  0  0
 42 43  1  0  0  0
 42 66  1  0  0  0
 42112  1  0  0  0
 42113  1  0  0  0
 43 44  1  0  0  0
 44114  1  0  0  0
 45 46  2  0  0  0
 45115  1  0  0  0
 46116  1  0  0  0
 47117  1  0  0  0
 47118  1  0  0  0
 48 56  1  0  0  0
 48 65  1  0  0  0
 48119  1  0  0  0
 49 50  1  0  0  0
 49 53  1  0  0  0
 49 64  1  0  0  0
 49120  1  0  0  0
 50 51  1  0  0  0
 50121  1  0  0  0
 50122  1  0  0  0
 51 52  1  0  0  0
 51123  1  0  0  0
 51124  1  0  0  0
 52125  1  0  0  0
 52126  1  0  0  0
 53 54  1  0  0  0
 54 55  2  0  0  0
 54127  1  0  0  0
 55 57  1  0  0  0
 55128  1  0  0  0
 56 69  2  0  0  0
 57 58  2  0  0  0
 57129  1  0  0  0
 58130  1  0  0  0
 59 60  1  0  0  0
 59 61  1  0  0  0
 59 62  1  0  0  0
 60131  1  0  0  0
 60132  1  0  0  0
 60133  1  0  0  0
 61134  1  0  0  0
 61135  1  0  0  0
 61136  1  0  0  0
 62137  1  0  0  0
 62138  1  0  0  0
 62139  1  0  0  0
 63 65  1  0  0  0
 63140  1  0  0  0
 63141  1  0  0  0
 63142  1  0  0  0
 64143  1  0  0  0
 65144  1  0  0  0
 68 82  1  0  0  0
 71 72  2  0  0  0
 71 74  1  0  0  0
 71145  1  0  0  0
 72 75  1  0  0  0
 72146  1  0  0  0
 73 74  2  0  0  0
 73 76  1  0  0  0
 73147  1  0  0  0
 74 77  1  0  0  0
 75 76  2  0  0  0
 75 84  1  0  0  0
 76 85  1  0  0  0
 77 80  1  0  0  0
 77 83  2  0  0  0
 78148  1  0  0  0
 78149  1  0  0  0
 78150  1  0  0  0
 78 82  1  0  0  0
 79 82  1  0  0  0
 79151  1  0  0  0
 79152  1  0  0  0
 79153  1  0  0  0
 80 81  1  0  0  0
 80154  1  0  0  0
 80155  1  0  0  0
 81 82  1  0  0  0
 81156  1  0  0  0
 81157  1  0  0  0
 83158  1  0  0  0
 84159  1  0  0  0
M  ISO  4   1 100  68 101  82 101  84 100
M  END
> <chiral flag>
0

> <version>
0

> <s_m_source_file>
/data/baiqing/PycharmProjects/Reinvent-master-3.2/result/LINK_invent/BTK/process_docking_weight1_custom_product_contain_oxygen_bond_distance_aromatic_linkinvent_7_9_3/rearranged_h_0136.sdf

> <i_m_source_file_index>
21

> <r_mmod_Potential_Energy-OPLS-2005>
-38.8819961547852

> <r_mmod_Stretch_Energy-OPLS-2005>
76.9433135986328

> <r_mmod_Bend_Energy-OPLS-2005>
137.977157592773

> <r_mmod_Torsional_Energy-OPLS-2005>
238.164886474609

> <r_mmod_Improper_Torsional_Energy-OPLS-2005>
3.98036408424377

> <r_mmod_Van_der_Waal_Energy-OPLS-2005>
153.560653686523

> <r_mmod_Electrostatic_Energy-OPLS-2005>
-486.454803466797

> <r_mmod_Solvation_Energy-OPLS-2005>
-202.606018066406

> <b_mmod_Minimization_Converged-OPLS-2005>
0

> <r_mmod_RMS_Derivative-OPLS-2005>
1.88561201095581

$$$$
21
                    3D
 Structure written by MMmdl.
155163  0  0  1  0            999 V2000
  -30.6433  -14.5373   20.5582 C   0  0  0  0  0  0
  -30.4387  -12.3391   19.4304 C   0  0  0  0  0  0
  -29.5025  -12.5076   18.2129 C   0  0  0  0  0  0
  -28.0227  -12.3616   18.6229 C   0  0  0  0  0  0
  -27.6625  -13.2028   19.8763 C   0  0  2  0  0  0
  -28.7041  -12.9818   20.9963 C   0  0  0  0  0  0
  -25.2606  -13.8148   20.5681 C   0  0  0  0  0  0
  -24.1846  -13.0434   20.9160 C   0  0  0  0  0  0
  -24.6393  -11.6897   20.8724 C   0  0  0  0  0  0
  -23.9061  -10.4285   21.0400 C   0  0  0  0  0  0
  -24.3616   -9.4206   21.9180 C   0  0  0  0  0  0
  -23.6290   -8.2245   22.0756 C   0  0  0  0  0  0
  -22.4272   -8.0281   21.3551 C   0  0  0  0  0  0
  -21.9907   -9.0253   20.4649 C   0  0  0  0  0  0
  -22.7237  -10.2129   20.3051 C   0  0  0  0  0  0
  -21.6852   -6.0733   22.5281 C   0  0  0  0  0  0
  -21.4012   -6.5641   23.8213 C   0  0  0  0  0  0
  -21.3658   -5.6792   24.9175 C   0  0  0  0  0  0
  -21.6045   -4.3055   24.7226 C   0  0  0  0  0  0
  -21.8820   -3.8145   23.4349 C   0  0  0  0  0  0
  -21.9192   -4.6960   22.3406 C   0  0  0  0  0  0
  -22.7875  -13.5245   21.1833 C   0  0  0  0  0  0
  -22.1662   -4.2147   21.0982 F   0  0  0  0  0  0
  -21.5630   -3.4540   25.7741 F   0  0  0  0  0  0
  -30.0322  -13.3203   20.4516 N   0  0  0  0  0  0
  -26.3032  -12.9299   20.3366 N   0  0  0  0  0  0
  -25.9318  -11.6466   20.5765 N   0  0  0  0  0  0
  -22.0516  -12.8231   22.0386 N   0  0  0  0  0  0
  -25.4353  -15.1869   20.4110 N   0  0  0  0  0  0
  -31.7622  -14.7610   20.0811 O   0  0  0  0  0  0
  -21.6641   -6.8876   21.4245 O   0  0  0  0  0  0
  -22.3562  -14.5558   20.6693 O   0  0  0  0  0  0
  -24.6172  -31.8646   23.2062 C   0  0  0  0  0  0
  -25.9045  -32.4807   23.8363 C   0  0  1  0  0  0
  -27.2330  -27.3901   20.1127 C   0  0  0  0  0  0
  -25.5890  -33.8600   24.2314 N   0  0  0  0  0  0
  -23.4080  -30.4868   21.5467 C   0  0  2  0  0  0
  -24.8555  -28.9391   20.1189 C   0  0  0  0  0  0
  -22.7435  -29.4641   22.4964 C   0  0  0  0  0  0
  -18.0283  -28.1379   22.8494 C   0  0  0  0  0  0
  -24.1490  -36.7293   23.2647 C   0  0  0  0  0  0
  -25.9399  -30.8176   21.3630 C   0  0  0  0  0  0
  -26.0171  -29.4456   20.7153 C   0  0  0  0  0  0
  -27.2103  -28.6808   20.7037 C   0  0  0  0  0  0
  -26.0556  -26.9035   19.5110 C   0  0  0  0  0  0
  -24.8708  -27.6681   19.5135 C   0  0  0  0  0  0
  -23.6206  -29.8138   20.1635 C   0  0  0  0  0  0
  -25.4111  -36.3092   24.0349 C   0  0  1  0  0  0
  -20.5879  -28.3666   23.1320 C   0  0  2  0  0  0
  -20.6771  -26.9402   22.5421 C   0  0  0  0  0  0
  -19.5749  -26.6382   21.5221 C   0  0  0  0  0  0
  -18.1927  -26.7930   22.1620 C   0  0  0  0  0  0
  -19.1534  -28.8835   23.2910 C   0  0  0  0  0  0
  -18.9457  -30.1441   23.8921 C   0  0  0  0  0  0
  -17.6463  -30.6582   24.0560 C   0  0  0  0  0  0
  -25.9034  -34.9459   23.5127 C   0  0  0  0  0  0
  -16.5355  -29.9087   23.6321 C   0  0  0  0  0  0
  -16.7274  -28.6505   23.0342 C   0  0  0  0  0  0
  -26.4460  -31.6587   25.0694 C   0  0  0  0  0  0
  -25.3717  -31.3702   26.1444 C   0  0  0  0  0  0
  -27.0284  -30.3029   24.6051 C   0  0  0  0  0  0
  -27.6037  -32.4300   25.7456 C   0  0  0  0  0  0
  -27.5584  -37.1801   24.8473 C   0  0  0  0  0  0
  -21.4157  -29.3029   22.3721 N   0  0  0  0  0  0
  -26.4297  -37.3776   23.9417 N   0  0  0  0  0  0
  -24.6735  -31.0718   22.0972 N   0  0  0  0  0  0
  -23.4206  -28.8190   23.3014 O   0  0  0  0  0  0
  -28.3966  -26.6383   20.0646 O   0  0  0  0  0  0
  -26.5594  -34.8915   22.4690 O   0  0  0  0  0  0
  -23.5353  -32.1405   23.7440 O   0  0  0  0  0  0
  -30.4723  -17.8732   20.8555 C   0  0  0  0  0  0
  -29.6142  -18.9897   20.5386 C   0  0  0  0  0  0
  -29.6570  -16.7700   20.7660 C   0  0  0  0  0  0
  -29.1519  -21.4690   20.5567 C   0  0  0  0  0  0
  -30.0487  -20.4296   20.5960 C   0  0  0  0  0  0
  -29.4543  -22.9291   20.7655 C   0  0  0  0  0  0
  -31.5627  -20.6055   20.7054 C   0  0  0  0  0  0
  -27.6297  -25.4045   22.1222 C   0  0  0  0  0  0
  -28.5761  -24.0534   20.1190 C   0  0  0  0  0  0
  -28.5474  -25.4382   20.8825 C   0  0  1  0  0  0
  -28.3865  -18.5511   20.2708 N   0  0  0  0  0  0
  -29.8996  -15.4863   21.1695 N   0  0  0  0  0  0
  -30.3806  -23.2860   21.4994 O   0  0  0  0  0  0
  -28.3984  -17.1564   20.4334 O   0  0  0  0  0  0
  -31.4800  -12.4646   19.1287 H   0  0  0  0  0  0
  -30.3676  -11.3272   19.8335 H   0  0  0  0  0  0
  -29.7496  -11.7728   17.4451 H   0  0  0  0  0  0
  -29.6605  -13.4875   17.7593 H   0  0  0  0  0  0
  -27.8372  -11.3051   18.8218 H   0  0  0  0  0  0
  -27.3722  -12.6298   17.7894 H   0  0  0  0  0  0
  -27.7054  -14.2501   19.5771 H   0  0  0  0  0  0
  -28.6946  -11.9392   21.3192 H   0  0  0  0  0  0
  -28.4499  -13.5551   21.8886 H   0  0  0  0  0  0
  -25.2761   -9.5678   22.4755 H   0  0  0  0  0  0
  -23.9999   -7.4632   22.7472 H   0  0  0  0  0  0
  -21.0843   -8.8765   19.8952 H   0  0  0  0  0  0
  -22.3697  -10.9664   19.6158 H   0  0  0  0  0  0
  -21.2003   -7.6148   23.9716 H   0  0  0  0  0  0
  -21.1481   -6.0522   25.9076 H   0  0  0  0  0  0
  -22.0600   -2.7605   23.2850 H   0  0  0  0  0  0
  -22.4131  -11.9876   22.4747 H   0  0  0  0  0  0
  -21.1144  -13.1259   22.2610 H   0  0  0  0  0  0
  -24.6726  -15.8446   20.5314 H   0  0  0  0  0  0
  -26.2922  -15.6317   20.1059 H   0  0  0  0  0  0
  -26.7112  -32.5501   23.1116 H   0  0  0  0  0  0
  -25.0034  -33.9757   25.0458 H   0  0  0  0  0  0
  -22.6976  -31.3042   21.4045 H   0  0  0  0  0  0
  -23.3746  -35.9627   23.3307 H   0  0  0  0  0  0
  -24.3598  -36.8897   22.2062 H   0  0  0  0  0  0
  -23.7247  -37.6506   23.6645 H   0  0  0  0  0  0
  -26.0535  -31.5805   20.5915 H   0  0  0  0  0  0
  -26.8281  -30.8757   21.9808 H   0  0  0  0  0  0
  -28.1112  -29.0699   21.1577 H   0  0  0  0  0  0
  -26.0584  -25.9311   19.0388 H   0  0  0  0  0  0
  -23.9771  -27.2741   19.0487 H   0  0  0  0  0  0
  -23.7357  -30.5873   19.4032 H   0  0  0  0  0  0
  -22.7431  -29.2380   19.8644 H   0  0  0  0  0  0
  -25.1290  -36.1949   25.0844 H   0  0  0  0  0  0
  -20.9974  -28.3213   24.1441 H   0  0  0  0  0  0
  -20.5675  -26.2266   23.3596 H   0  0  0  0  0  0
  -21.6639  -26.7429   22.1212 H   0  0  0  0  0  0
  -19.6905  -25.6294   21.1237 H   0  0  0  0  0  0
  -19.6701  -27.3200   20.6765 H   0  0  0  0  0  0
  -17.4206  -26.6684   21.4021 H   0  0  0  0  0  0
  -18.0310  -26.0071   22.9011 H   0  0  0  0  0  0
  -19.7936  -30.7243   24.2299 H   0  0  0  0  0  0
  -17.5024  -31.6272   24.5140 H   0  0  0  0  0  0
  -15.5358  -30.2992   23.7646 H   0  0  0  0  0  0
  -15.8670  -28.0840   22.7036 H   0  0  0  0  0  0
  -24.5895  -30.7045   25.7782 H   0  0  0  0  0  0
  -24.8901  -32.2860   26.4875 H   0  0  0  0  0  0
  -25.8066  -30.8885   27.0210 H   0  0  0  0  0  0
  -26.2823  -29.6806   24.1093 H   0  0  0  0  0  0
  -27.4068  -29.7242   25.4488 H   0  0  0  0  0  0
  -27.8646  -30.4364   23.9183 H   0  0  0  0  0  0
  -27.2661  -33.3601   26.2038 H   0  0  0  0  0  0
  -28.3840  -32.6855   25.0274 H   0  0  0  0  0  0
  -28.0687  -31.8409   26.5368 H   0  0  0  0  0  0
  -28.2594  -38.0102   24.7500 H   0  0  0  0  0  0
  -28.1084  -36.2629   24.6305 H   0  0  0  0  0  0
  -27.2303  -37.1464   25.8878 H   0  0  0  0  0  0
  -20.9299  -29.8769   21.6968 H   0  0  0  0  0  0
  -26.0178  -38.2855   24.1406 H   0  0  0  0  0  0
  -31.5094  -17.8837   21.1540 H   0  0  0  0  0  0
  -28.1083  -21.2343   20.4068 H   0  0  0  0  0  0
  -32.0538  -20.0316   19.9182 H   0  0  0  0  0  0
  -31.9214  -20.2411   21.6678 H   0  0  0  0  0  0
  -31.9051  -21.6303   20.5850 H   0  0  0  0  0  0
  -27.9214  -24.6030   22.8021 H   0  0  0  0  0  0
  -26.5889  -25.2394   21.8470 H   0  0  0  0  0  0
  -27.6857  -26.3370   22.6835 H   0  0  0  0  0  0
  -27.5617  -23.6793   19.9764 H   0  0  0  0  0  0
  -28.9820  -24.2157   19.1210 H   0  0  0  0  0  0
  -29.5499  -25.5979   21.2808 H   0  0  0  0  0  0
  -29.0879  -15.0614   21.5865 H   0  0  0  0  0  0
  1 25  1  0  0  0
  1 30  2  0  0  0
  1 82  1  0  0  0
  2  3  1  0  0  0
  2 25  1  0  0  0
  2 85  1  0  0  0
  2 86  1  0  0  0
  3  4  1  0  0  0
  3 87  1  0  0  0
  3 88  1  0  0  0
  4  5  1  0  0  0
  4 89  1  0  0  0
  4 90  1  0  0  0
  5  6  1  0  0  0
  5 26  1  0  0  0
  5 91  1  0  0  0
  6 25  1  0  0  0
  6 92  1  0  0  0
  6 93  1  0  0  0
  7  8  2  0  0  0
  7 26  1  0  0  0
  7 29  1  0  0  0
  8  9  1  0  0  0
  8 22  1  0  0  0
  9 10  1  0  0  0
  9 27  2  0  0  0
 10 11  2  0  0  0
 10 15  1  0  0  0
 11 12  1  0  0  0
 11 94  1  0  0  0
 12 13  2  0  0  0
 12 95  1  0  0  0
 13 14  1  0  0  0
 13 31  1  0  0  0
 14 15  2  0  0  0
 14 96  1  0  0  0
 15 97  1  0  0  0
 16 17  2  0  0  0
 16 21  1  0  0  0
 16 31  1  0  0  0
 17 18  1  0  0  0
 17 98  1  0  0  0
 18 19  2  0  0  0
 18 99  1  0  0  0
 19 20  1  0  0  0
 19 24  1  0  0  0
 20 21  2  0  0  0
 20100  1  0  0  0
 21 23  1  0  0  0
 22 28  1  0  0  0
 22 32  2  0  0  0
 26 27  1  0  0  0
 28101  1  0  0  0
 28102  1  0  0  0
 29103  1  0  0  0
 29104  1  0  0  0
 33 34  1  0  0  0
 33 66  1  0  0  0
 33 70  2  0  0  0
 34 36  1  0  0  0
 34 59  1  0  0  0
 34105  1  0  0  0
 35 44  2  0  0  0
 35 45  1  0  0  0
 35 68  1  0  0  0
 36 56  1  0  0  0
 36106  1  0  0  0
 37 39  1  0  0  0
 37 47  1  0  0  0
 37 66  1  0  0  0
 37107  1  0  0  0
 38 43  2  0  0  0
 38 46  1  0  0  0
 38 47  1  0  0  0
 39 64  1  0  0  0
 39 67  2  0  0  0
 40 52  1  0  0  0
 40 53  2  0  0  0
 40 58  1  0  0  0
 41108  1  0  0  0
 41109  1  0  0  0
 41110  1  0  0  0
 41 48  1  0  0  0
 42 43  1  0  0  0
 42 66  1  0  0  0
 42111  1  0  0  0
 42112  1  0  0  0
 43 44  1  0  0  0
 44113  1  0  0  0
 45 46  2  0  0  0
 45114  1  0  0  0
 46115  1  0  0  0
 47116  1  0  0  0
 47117  1  0  0  0
 48 56  1  0  0  0
 48 65  1  0  0  0
 48118  1  0  0  0
 49 50  1  0  0  0
 49 53  1  0  0  0
 49 64  1  0  0  0
 49119  1  0  0  0
 50 51  1  0  0  0
 50120  1  0  0  0
 50121  1  0  0  0
 51 52  1  0  0  0
 51122  1  0  0  0
 51123  1  0  0  0
 52124  1  0  0  0
 52125  1  0  0  0
 53 54  1  0  0  0
 54 55  2  0  0  0
 54126  1  0  0  0
 55 57  1  0  0  0
 55127  1  0  0  0
 56 69  2  0  0  0
 57 58  2  0  0  0
 57128  1  0  0  0
 58129  1  0  0  0
 59 60  1  0  0  0
 59 61  1  0  0  0
 59 62  1  0  0  0
 60130  1  0  0  0
 60131  1  0  0  0
 60132  1  0  0  0
 61133  1  0  0  0
 61134  1  0  0  0
 61135  1  0  0  0
 62136  1  0  0  0
 62137  1  0  0  0
 62138  1  0  0  0
 63 65  1  0  0  0
 63139  1  0  0  0
 63140  1  0  0  0
 63141  1  0  0  0
 64142  1  0  0  0
 65143  1  0  0  0
 68 80  1  0  0  0
 71 72  1  0  0  0
 71 73  2  0  0  0
 71144  1  0  0  0
 72 75  1  0  0  0
 72 81  2  0  0  0
 73 82  1  0  0  0
 73 84  1  0  0  0
 74 75  2  0  0  0
 74 76  1  0  0  0
 74145  1  0  0  0
 75 77  1  0  0  0
 76 79  1  0  0  0
 76 83  2  0  0  0
 77146  1  0  0  0
 77147  1  0  0  0
 77148  1  0  0  0
 78149  1  0  0  0
 78150  1  0  0  0
 78151  1  0  0  0
 78 80  1  0  0  0
 79 80  1  0  0  0
 79152  1  0  0  0
 79153  1  0  0  0
 80154  1  0  0  0
 81 84  1  0  0  0
 82155  1  0  0  0
M  ISO  4   1 100  68 101  80 101  82 100
M  END
> <chiral flag>
0

> <version>
0

> <s_m_source_file>
/data/baiqing/PycharmProjects/Reinvent-master-3.2/result/LINK_invent/BTK/process_docking_weight1_custom_product_contain_oxygen_bond_distance_aromatic_linkinvent_7_9_3/rearranged_h_0136.sdf

> <i_m_source_file_index>
22

> <r_mmod_Potential_Energy-OPLS-2005>
-100.994812011719

> <r_mmod_Stretch_Energy-OPLS-2005>
52.6419830322266

> <r_mmod_Bend_Energy-OPLS-2005>
132.128356933594

> <r_mmod_Torsional_Energy-OPLS-2005>
254.785095214844

> <r_mmod_Improper_Torsional_Energy-OPLS-2005>
7.27982759475708

> <r_mmod_Van_der_Waal_Energy-OPLS-2005>
131.319061279297

> <r_mmod_Electrostatic_Energy-OPLS-2005>
-479.907012939453

> <r_mmod_Solvation_Energy-OPLS-2005>
-219.088272094727

> <b_mmod_Minimization_Converged-OPLS-2005>
0

> <r_mmod_RMS_Derivative-OPLS-2005>
1.59395623207092

$$$$
22
                    3D
 Structure written by MMmdl.
167175  0  0  1  0            999 V2000
  -30.7481  -14.5121   20.6803 C   0  0  0  0  0  0
  -30.4099  -12.3721   19.4477 C   0  0  0  0  0  0
  -29.4898  -12.5135   18.2182 C   0  0  0  0  0  0
  -28.0169  -12.3335   18.6240 C   0  0  0  0  0  0
  -27.6436  -13.2038   19.8467 C   0  0  2  0  0  0
  -28.6729  -13.0494   20.9834 C   0  0  0  0  0  0
  -25.2538  -13.8148   20.5685 C   0  0  0  0  0  0
  -24.1783  -13.0408   20.9135 C   0  0  0  0  0  0
  -24.6357  -11.6876   20.8709 C   0  0  0  0  0  0
  -23.9033  -10.4264   21.0410 C   0  0  0  0  0  0
  -24.3599   -9.4185   21.9185 C   0  0  0  0  0  0
  -23.6281   -8.2220   22.0755 C   0  0  0  0  0  0
  -22.4256   -8.0266   21.3556 C   0  0  0  0  0  0
  -21.9890   -9.0233   20.4650 C   0  0  0  0  0  0
  -22.7217  -10.2109   20.3053 C   0  0  0  0  0  0
  -21.6839   -6.0724   22.5282 C   0  0  0  0  0  0
  -21.4014   -6.5637   23.8215 C   0  0  0  0  0  0
  -21.3652   -5.6800   24.9179 C   0  0  0  0  0  0
  -21.6053   -4.3062   24.7243 C   0  0  0  0  0  0
  -21.8809   -3.8138   23.4363 C   0  0  0  0  0  0
  -21.9191   -4.6951   22.3411 C   0  0  0  0  0  0
  -22.7833  -13.5234   21.1870 C   0  0  0  0  0  0
  -22.1651   -4.2144   21.0984 F   0  0  0  0  0  0
  -21.5632   -3.4540   25.7746 F   0  0  0  0  0  0
  -30.0127  -13.3689   20.4669 N   0  0  0  0  0  0
  -26.2911  -12.9310   20.3191 N   0  0  0  0  0  0
  -25.9269  -11.6471   20.5684 N   0  0  0  0  0  0
  -22.0485  -12.8210   22.0423 N   0  0  0  0  0  0
  -25.4399  -15.1860   20.4384 N   0  0  0  0  0  0
  -31.7886  -14.6734   20.0309 O   0  0  0  0  0  0
  -21.6621   -6.8866   21.4244 O   0  0  0  0  0  0
  -22.3521  -14.5544   20.6734 O   0  0  0  0  0  0
  -24.6103  -31.8686   23.2018 C   0  0  0  0  0  0
  -25.8994  -32.4802   23.8333 C   0  0  1  0  0  0
  -27.2602  -27.4364   20.0978 C   0  0  0  0  0  0
  -25.5868  -33.8595   24.2307 N   0  0  0  0  0  0
  -23.4017  -30.4845   21.5377 C   0  0  2  0  0  0
  -24.8553  -28.9409   20.1138 C   0  0  0  0  0  0
  -22.7388  -29.4634   22.4934 C   0  0  0  0  0  0
  -18.0270  -28.1370   22.8469 C   0  0  0  0  0  0
  -24.1477  -36.7322   23.2646 C   0  0  0  0  0  0
  -25.9289  -30.8329   21.3513 C   0  0  0  0  0  0
  -26.0135  -29.4620   20.7100 C   0  0  0  0  0  0
  -27.2152  -28.7206   20.6932 C   0  0  0  0  0  0
  -26.0899  -26.9296   19.4951 C   0  0  0  0  0  0
  -24.8907  -27.6730   19.5013 C   0  0  0  0  0  0
  -23.6126  -29.8038   20.1564 C   0  0  0  0  0  0
  -25.4088  -36.3086   24.0346 C   0  0  1  0  0  0
  -20.5870  -28.3630   23.1335 C   0  0  2  0  0  0
  -20.6754  -26.9366   22.5401 C   0  0  0  0  0  0
  -19.5740  -26.6377   21.5193 C   0  0  0  0  0  0
  -18.1916  -26.7934   22.1594 C   0  0  0  0  0  0
  -19.1530  -28.8813   23.2897 C   0  0  0  0  0  0
  -18.9463  -30.1450   23.8849 C   0  0  0  0  0  0
  -17.6460  -30.6572   24.0565 C   0  0  0  0  0  0
  -25.9013  -34.9444   23.5120 C   0  0  0  0  0  0
  -16.5367  -29.9065   23.6331 C   0  0  0  0  0  0
  -16.7252  -28.6516   23.0305 C   0  0  0  0  0  0
  -26.4387  -31.6562   25.0674 C   0  0  0  0  0  0
  -25.3652  -31.3675   26.1425 C   0  0  0  0  0  0
  -27.0188  -30.3006   24.6014 C   0  0  0  0  0  0
  -27.5957  -32.4240   25.7485 C   0  0  0  0  0  0
  -27.5562  -37.1787   24.8476 C   0  0  0  0  0  0
  -21.4111  -29.3012   22.3726 N   0  0  0  0  0  0
  -26.4269  -37.3782   23.9444 N   0  0  0  0  0  0
  -24.6641  -31.0799   22.0872 N   0  0  0  0  0  0
  -23.4179  -28.8162   23.2946 O   0  0  0  0  0  0
  -28.4447  -26.7211   20.0572 O   0  0  0  0  0  0
  -26.5618  -34.8892   22.4687 O   0  0  0  0  0  0
  -23.5296  -32.1466   23.7380 O   0  0  0  0  0  0
  -29.4334  -20.3900   20.6538 C   0  0  0  0  0  0
  -27.5930  -21.3374   19.3751 C   0  0  0  0  0  0
  -27.8976  -18.9089   19.4910 C   0  0  0  0  0  0
  -28.7103  -21.5403   20.2111 C   0  0  0  0  0  0
  -29.0337  -19.0630   20.3222 C   0  0  0  0  0  0
  -27.1872  -20.0348   19.0255 C   0  0  0  0  0  0
  -29.3892  -16.6514   21.0752 C   0  0  0  0  0  0
  -31.7275  -16.3946   22.1233 C   0  0  0  0  0  0
  -29.8702  -15.1109   23.0971 C   0  0  0  0  0  0
  -27.6538  -25.5371   22.1014 C   0  0  0  0  0  0
  -30.0889  -25.7732   21.4453 C   0  0  0  0  0  0
  -29.1016  -22.9434   20.7323 C   0  0  0  0  0  0
  -28.5520  -24.2411   20.0376 C   0  0  0  0  0  0
  -30.4092  -15.6508   21.7384 C   0  0  0  0  0  0
  -28.6488  -25.5589   20.9027 C   0  0  0  0  0  0
  -29.7835  -17.9334   20.8292 N   0  0  0  0  0  0
  -28.2357  -16.2769   20.8586 O   0  0  0  0  0  0
  -26.0869  -19.8611   18.2530 F   0  0  0  0  0  0
  -31.4533  -12.4614   19.1446 H   0  0  0  0  0  0
  -30.3270  -11.3709   19.8726 H   0  0  0  0  0  0
  -29.7614  -11.7743   17.4633 H   0  0  0  0  0  0
  -29.6315  -13.4920   17.7566 H   0  0  0  0  0  0
  -27.8636  -11.2803   18.8619 H   0  0  0  0  0  0
  -27.3620  -12.5543   17.7820 H   0  0  0  0  0  0
  -27.6648  -14.2341   19.4961 H   0  0  0  0  0  0
  -28.6618  -12.0351   21.3799 H   0  0  0  0  0  0
  -28.3446  -13.6861   21.7931 H   0  0  0  0  0  0
  -25.2755   -9.5652   22.4756 H   0  0  0  0  0  0
  -23.9989   -7.4610   22.7475 H   0  0  0  0  0  0
  -21.0819   -8.8753   19.8969 H   0  0  0  0  0  0
  -22.3691  -10.9645   19.6153 H   0  0  0  0  0  0
  -21.2002   -7.6151   23.9719 H   0  0  0  0  0  0
  -21.1489   -6.0530   25.9086 H   0  0  0  0  0  0
  -22.0600   -2.7605   23.2865 H   0  0  0  0  0  0
  -22.4119  -11.9837   22.4748 H   0  0  0  0  0  0
  -21.1131  -13.1259   22.2725 H   0  0  0  0  0  0
  -24.7148  -15.8506   20.6806 H   0  0  0  0  0  0
  -26.3711  -15.6002   20.4068 H   0  0  0  0  0  0
  -26.7041  -32.5463   23.1079 H   0  0  0  0  0  0
  -25.0017  -33.9747   25.0453 H   0  0  0  0  0  0
  -22.6923  -31.2988   21.3911 H   0  0  0  0  0  0
  -23.3705  -35.9689   23.3317 H   0  0  0  0  0  0
  -24.3583  -36.8956   22.2067 H   0  0  0  0  0  0
  -23.7291  -37.6548   23.6667 H   0  0  0  0  0  0
  -26.0559  -31.5931   20.5776 H   0  0  0  0  0  0
  -26.8141  -30.8915   21.9733 H   0  0  0  0  0  0
  -28.1137  -29.1263   21.1375 H   0  0  0  0  0  0
  -26.1196  -25.9650   19.0085 H   0  0  0  0  0  0
  -24.0072  -27.2712   19.0234 H   0  0  0  0  0  0
  -23.7186  -30.5751   19.3935 H   0  0  0  0  0  0
  -22.7372  -29.2195   19.8586 H   0  0  0  0  0  0
  -25.1273  -36.1913   25.0850 H   0  0  0  0  0  0
  -21.0012  -28.3176   24.1439 H   0  0  0  0  0  0
  -20.5669  -26.2202   23.3552 H   0  0  0  0  0  0
  -21.6615  -26.7410   22.1189 H   0  0  0  0  0  0
  -19.6940  -25.6307   21.1197 H   0  0  0  0  0  0
  -19.6714  -27.3196   20.6757 H   0  0  0  0  0  0
  -17.4192  -26.6655   21.3990 H   0  0  0  0  0  0
  -18.0296  -26.0090   22.8994 H   0  0  0  0  0  0
  -19.7951  -30.7283   24.2153 H   0  0  0  0  0  0
  -17.5041  -31.6247   24.5181 H   0  0  0  0  0  0
  -15.5365  -30.2960   23.7717 H   0  0  0  0  0  0
  -15.8647  -28.0858   22.6982 H   0  0  0  0  0  0
  -24.5816  -30.6996   25.7807 H   0  0  0  0  0  0
  -24.8816  -32.2821   26.4855 H   0  0  0  0  0  0
  -25.8019  -30.8883   27.0193 H   0  0  0  0  0  0
  -26.2670  -29.6769   24.1140 H   0  0  0  0  0  0
  -27.4096  -29.7227   25.4412 H   0  0  0  0  0  0
  -27.8480  -30.4350   23.9074 H   0  0  0  0  0  0
  -27.2556  -33.3548   26.2021 H   0  0  0  0  0  0
  -28.3787  -32.6806   25.0334 H   0  0  0  0  0  0
  -28.0529  -31.8365   26.5445 H   0  0  0  0  0  0
  -28.2555  -38.0104   24.7508 H   0  0  0  0  0  0
  -28.1054  -36.2618   24.6262 H   0  0  0  0  0  0
  -27.2291  -37.1463   25.8887 H   0  0  0  0  0  0
  -20.9243  -29.8756   21.6989 H   0  0  0  0  0  0
  -26.0140  -38.2864   24.1411 H   0  0  0  0  0  0
  -30.2874  -20.5349   21.2989 H   0  0  0  0  0  0
  -27.0087  -22.1660   19.0071 H   0  0  0  0  0  0
  -27.5523  -17.9320   19.1917 H   0  0  0  0  0  0
  -31.5470  -17.1828   22.8576 H   0  0  0  0  0  0
  -32.2372  -16.8531   21.2736 H   0  0  0  0  0  0
  -32.4376  -15.7001   22.5765 H   0  0  0  0  0  0
  -30.2961  -15.6392   23.9501 H   0  0  0  0  0  0
  -30.1107  -14.0551   23.2530 H   0  0  0  0  0  0
  -28.7925  -15.2327   23.2108 H   0  0  0  0  0  0
  -27.6432  -26.4862   22.6495 H   0  0  0  0  0  0
  -26.6266  -25.3390   21.7865 H   0  0  0  0  0  0
  -27.9181  -24.7709   22.8252 H   0  0  0  0  0  0
  -30.1700  -26.6974   22.0219 H   0  0  0  0  0  0
  -30.8284  -25.8208   20.6444 H   0  0  0  0  0  0
  -30.4053  -24.9698   22.1143 H   0  0  0  0  0  0
  -30.1905  -23.0031   20.7508 H   0  0  0  0  0  0
  -28.7887  -22.9589   21.7750 H   0  0  0  0  0  0
  -29.0802  -24.3686   19.0897 H   0  0  0  0  0  0
  -27.5024  -24.1192   19.7717 H   0  0  0  0  0  0
  -30.7313  -18.1331   21.1196 H   0  0  0  0  0  0
  1 25  1  0  0  0
  1 30  2  0  0  0
  1 84  1  0  0  0
  2  3  1  0  0  0
  2 25  1  0  0  0
  2 89  1  0  0  0
  2 90  1  0  0  0
  3  4  1  0  0  0
  3 91  1  0  0  0
  3 92  1  0  0  0
  4  5  1  0  0  0
  4 93  1  0  0  0
  4 94  1  0  0  0
  5  6  1  0  0  0
  5 26  1  0  0  0
  5 95  1  0  0  0
  6 25  1  0  0  0
  6 96  1  0  0  0
  6 97  1  0  0  0
  7  8  2  0  0  0
  7 26  1  0  0  0
  7 29  1  0  0  0
  8  9  1  0  0  0
  8 22  1  0  0  0
  9 10  1  0  0  0
  9 27  2  0  0  0
 10 11  2  0  0  0
 10 15  1  0  0  0
 11 12  1  0  0  0
 11 98  1  0  0  0
 12 13  2  0  0  0
 12 99  1  0  0  0
 13 14  1  0  0  0
 13 31  1  0  0  0
 14 15  2  0  0  0
 14100  1  0  0  0
 15101  1  0  0  0
 16 17  2  0  0  0
 16 21  1  0  0  0
 16 31  1  0  0  0
 17 18  1  0  0  0
 17102  1  0  0  0
 18 19  2  0  0  0
 18103  1  0  0  0
 19 20  1  0  0  0
 19 24  1  0  0  0
 20 21  2  0  0  0
 20104  1  0  0  0
 21 23  1  0  0  0
 22 28  1  0  0  0
 22 32  2  0  0  0
 26 27  1  0  0  0
 28105  1  0  0  0
 28106  1  0  0  0
 29107  1  0  0  0
 29108  1  0  0  0
 33 34  1  0  0  0
 33 66  1  0  0  0
 33 70  2  0  0  0
 34 36  1  0  0  0
 34 59  1  0  0  0
 34109  1  0  0  0
 35 44  2  0  0  0
 35 45  1  0  0  0
 35 68  1  0  0  0
 36 56  1  0  0  0
 36110  1  0  0  0
 37 39  1  0  0  0
 37 47  1  0  0  0
 37 66  1  0  0  0
 37111  1  0  0  0
 38 43  2  0  0  0
 38 46  1  0  0  0
 38 47  1  0  0  0
 39 64  1  0  0  0
 39 67  2  0  0  0
 40 52  1  0  0  0
 40 53  2  0  0  0
 40 58  1  0  0  0
 41112  1  0  0  0
 41113  1  0  0  0
 41114  1  0  0  0
 41 48  1  0  0  0
 42 43  1  0  0  0
 42 66  1  0  0  0
 42115  1  0  0  0
 42116  1  0  0  0
 43 44  1  0  0  0
 44117  1  0  0  0
 45 46  2  0  0  0
 45118  1  0  0  0
 46119  1  0  0  0
 47120  1  0  0  0
 47121  1  0  0  0
 48 56  1  0  0  0
 48 65  1  0  0  0
 48122  1  0  0  0
 49 50  1  0  0  0
 49 53  1  0  0  0
 49 64  1  0  0  0
 49123  1  0  0  0
 50 51  1  0  0  0
 50124  1  0  0  0
 50125  1  0  0  0
 51 52  1  0  0  0
 51126  1  0  0  0
 51127  1  0  0  0
 52128  1  0  0  0
 52129  1  0  0  0
 53 54  1  0  0  0
 54 55  2  0  0  0
 54130  1  0  0  0
 55 57  1  0  0  0
 55131  1  0  0  0
 56 69  2  0  0  0
 57 58  2  0  0  0
 57132  1  0  0  0
 58133  1  0  0  0
 59 60  1  0  0  0
 59 61  1  0  0  0
 59 62  1  0  0  0
 60134  1  0  0  0
 60135  1  0  0  0
 60136  1  0  0  0
 61137  1  0  0  0
 61138  1  0  0  0
 61139  1  0  0  0
 62140  1  0  0  0
 62141  1  0  0  0
 62142  1  0  0  0
 63 65  1  0  0  0
 63143  1  0  0  0
 63144  1  0  0  0
 63145  1  0  0  0
 64146  1  0  0  0
 65147  1  0  0  0
 68 85  1  0  0  0
 71 74  2  0  0  0
 71 75  1  0  0  0
 71148  1  0  0  0
 72 74  1  0  0  0
 72 76  2  0  0  0
 72149  1  0  0  0
 73 75  2  0  0  0
 73 76  1  0  0  0
 73150  1  0  0  0
 74 82  1  0  0  0
 75 86  1  0  0  0
 76 88  1  0  0  0
 77 84  1  0  0  0
 77 86  1  0  0  0
 77 87  2  0  0  0
 78151  1  0  0  0
 78152  1  0  0  0
 78153  1  0  0  0
 78 84  1  0  0  0
 79 84  1  0  0  0
 79154  1  0  0  0
 79155  1  0  0  0
 79156  1  0  0  0
 80157  1  0  0  0
 80158  1  0  0  0
 80159  1  0  0  0
 80 85  1  0  0  0
 81 85  1  0  0  0
 81160  1  0  0  0
 81161  1  0  0  0
 81162  1  0  0  0
 82 83  1  0  0  0
 82163  1  0  0  0
 82164  1  0  0  0
 83 85  1  0  0  0
 83165  1  0  0  0
 83166  1  0  0  0
 86167  1  0  0  0
M  ISO  4   1 100  68 101  84 100  85 101
M  END
> <chiral flag>
0

> <version>
0

> <s_m_source_file>
/data/baiqing/PycharmProjects/Reinvent-master-3.2/result/LINK_invent/BTK/process_docking_weight1_custom_product_contain_oxygen_bond_distance_aromatic_linkinvent_7_9_3/rearranged_h_0136.sdf

> <i_m_source_file_index>
23

> <r_mmod_Potential_Energy-OPLS-2005>
79.0364379882812

> <r_mmod_Stretch_Energy-OPLS-2005>
64.884765625

> <r_mmod_Bend_Energy-OPLS-2005>
135.675811767578

> <r_mmod_Torsional_Energy-OPLS-2005>
239.114685058594

> <r_mmod_Improper_Torsional_Energy-OPLS-2005>
3.36477732658386

> <r_mmod_Van_der_Waal_Energy-OPLS-2005>
163.358215332031

> <r_mmod_Electrostatic_Energy-OPLS-2005>
-366.854583740234

> <r_mmod_Solvation_Energy-OPLS-2005>
-177.26676940918

> <b_mmod_Minimization_Converged-OPLS-2005>
0

> <r_mmod_RMS_Derivative-OPLS-2005>
5.93337631225586

$$$$
23
                    3D
 Structure written by MMmdl.
160168  0  0  1  0            999 V2000
  -31.2281  -14.3661   19.0757 C   0  0  0  0  0  0
  -30.7351  -12.9450   20.5593 C   0  0  0  0  0  0
  -30.5627  -11.5671   19.7230 C   0  0  0  0  0  0
  -29.1022  -11.1876   19.4091 C   0  0  0  0  0  0
  -27.0439  -13.9751   18.8698 C   0  0  2  0  0  0
  -28.8549  -15.2256   19.4639 C   0  0  0  0  0  0
  -24.6394  -14.2987   20.4022 C   0  0  0  0  0  0
  -23.7599  -13.3487   20.8657 C   0  0  0  0  0  0
  -24.3542  -12.0912   20.9175 C   0  0  0  0  0  0
  -23.8494  -10.6325   21.0905 C   0  0  0  0  0  0
  -24.3609   -9.5889   21.9160 C   0  0  0  0  0  0
  -23.6763   -8.3304   22.0709 C   0  0  0  0  0  0
  -22.4736   -8.0684   21.3572 C   0  0  0  0  0  0
  -22.0260   -9.0534   20.4569 C   0  0  0  0  0  0
  -22.7063  -10.2814   20.3193 C   0  0  0  0  0  0
  -21.7224   -6.0835   22.5295 C   0  0  0  0  0  0
  -21.4371   -6.5710   23.8219 C   0  0  0  0  0  0
  -21.3807   -5.6827   24.9154 C   0  0  0  0  0  0
  -21.6037   -4.3074   24.7251 C   0  0  0  0  0  0
  -21.8724   -3.8183   23.4390 C   0  0  0  0  0  0
  -21.9292   -4.6986   22.3442 C   0  0  0  0  0  0
  -22.3895  -13.6460   21.2287 C   0  0  0  0  0  0
  -22.1671   -4.2135   21.0997 F   0  0  0  0  0  0
  -21.5559   -3.4571   25.7739 F   0  0  0  0  0  0
  -30.3182  -14.4326   20.0675 N   0  0  0  0  0  0
  -25.7000  -13.6844   19.9927 N   0  0  0  0  0  0
  -25.5171  -12.6430   21.0738 N   0  0  0  0  0  0
  -21.8671  -12.8510   22.1634 N   0  0  0  0  0  0
  -24.6067  -15.6228   20.1873 N   0  0  0  0  0  0
  -32.3207  -14.8148   19.3901 O   0  0  0  0  0  0
  -21.7299   -6.9076   21.4256 O   0  0  0  0  0  0
  -21.8528  -14.6210   20.7306 O   0  0  0  0  0  0
  -24.7466  -31.7082   23.0894 C   0  0  0  0  0  0
  -25.9770  -32.3890   23.7604 C   0  0  1  0  0  0
  -26.8390  -25.8312   20.4027 C   0  0  0  0  0  0
  -25.6153  -33.7782   24.1466 N   0  0  0  0  0  0
  -23.5835  -30.2996   21.4645 C   0  0  2  0  0  0
  -24.9628  -28.4797   20.1157 C   0  0  0  0  0  0
  -22.7955  -29.3845   22.4497 C   0  0  0  0  0  0
  -18.0358  -28.1441   22.8425 C   0  0  0  0  0  0
  -24.1535  -36.6894   23.2640 C   0  0  0  0  0  0
  -26.1687  -30.1308   21.4895 C   0  0  0  0  0  0
  -26.1337  -28.6119   20.8686 C   0  0  0  0  0  0
  -27.0408  -27.3380   20.9634 C   0  0  0  0  0  0
  -25.7579  -26.1238   19.4998 C   0  0  0  0  0  0
  -24.8800  -27.2782   19.3771 C   0  0  0  0  0  0
  -23.8457  -29.5609   20.1095 C   0  0  0  0  0  0
  -25.4174  -36.2530   24.0218 C   0  0  1  0  0  0
  -20.5987  -28.3784   23.1086 C   0  0  2  0  0  0
  -20.6772  -26.9393   22.5463 C   0  0  0  0  0  0
  -19.5784  -26.6347   21.5242 C   0  0  0  0  0  0
  -18.1955  -26.7971   22.1594 C   0  0  0  0  0  0
  -19.1624  -28.8960   23.2719 C   0  0  0  0  0  0
  -18.9521  -30.1531   23.8789 C   0  0  0  0  0  0
  -17.6498  -30.6596   24.0548 C   0  0  0  0  0  0
  -25.9255  -34.8969   23.4716 C   0  0  0  0  0  0
  -16.5390  -29.9072   23.6348 C   0  0  0  0  0  0
  -16.7336  -28.6505   23.0355 C   0  0  0  0  0  0
  -26.4715  -31.6219   25.0530 C   0  0  0  0  0  0
  -25.3554  -31.3730   26.0956 C   0  0  0  0  0  0
  -27.0668  -30.2453   24.6942 C   0  0  0  0  0  0
  -27.6090  -32.4161   25.7411 C   0  0  0  0  0  0
  -27.5657  -37.1429   24.8348 C   0  0  0  0  0  0
  -21.4542  -29.2892   22.3289 N   0  0  0  0  0  0
  -26.4163  -37.3455   23.9578 N   0  0  0  0  0  0
  -24.8726  -30.7744   22.0599 N   0  0  0  0  0  0
  -23.4134  -28.7524   23.3104 O   0  0  0  0  0  0
  -27.4188  -24.1797   20.6116 O   0  0  0  0  0  0
  -26.6006  -34.8746   22.4413 O   0  0  0  0  0  0
  -23.6386  -32.0598   23.5470 O   0  0  0  0  0  0
  -29.0284  -13.1741   18.5559 C   0  0  0  0  0  0
  -28.2738  -11.8791   16.9812 C   0  0  0  0  0  0
  -27.0088  -11.7572   19.4736 C   0  0  0  0  0  0
  -29.4234  -12.6891   17.4304 C   0  0  0  0  0  0
  -28.1647  -12.9785   20.3741 C   0  0  0  0  0  0
  -27.1217  -11.4966   17.9177 C   0  0  0  0  0  0
  -30.8778  -13.4625   17.5660 C   0  0  0  0  0  0
  -28.7568  -19.5396   21.3599 C   0  0  0  0  0  0
  -26.1296  -19.4559   21.9193 C   0  0  0  0  0  0
  -27.4782  -15.0454   21.3001 C   0  0  0  0  0  0
  -27.2103  -17.3681   20.6490 C   0  0  0  0  0  0
  -27.1235  -22.0497   20.4322 C   0  0  0  0  0  0
  -27.2992  -19.7006   20.9577 C   0  0  0  0  0  0
  -31.7636  -13.2772   16.6772 N   0  0  0  0  0  0
  -26.2119  -10.6381   17.3746 F   0  0  0  0  0  0
  -31.7642  -12.9341   20.9345 H   0  0  0  0  0  0
  -30.2558  -12.7784   21.5361 H   0  0  0  0  0  0
  -30.9297  -10.7767   20.3844 H   0  0  0  0  0  0
  -31.2761  -11.3732   18.9165 H   0  0  0  0  0  0
  -28.8527  -10.5814   20.3143 H   0  0  0  0  0  0
  -29.1350  -10.3479   18.6970 H   0  0  0  0  0  0
  -26.6571  -14.1090   17.8654 H   0  0  0  0  0  0
  -29.0043  -16.1108   20.0439 H   0  0  0  0  0  0
  -29.0971  -15.7604   18.5330 H   0  0  0  0  0  0
  -25.2823   -9.7451   22.4719 H   0  0  0  0  0  0
  -24.0678   -7.5923   22.7542 H   0  0  0  0  0  0
  -21.1298   -8.8533   19.8930 H   0  0  0  0  0  0
  -22.3149  -10.9845   19.6119 H   0  0  0  0  0  0
  -21.2558   -7.6269   23.9740 H   0  0  0  0  0  0
  -21.1683   -6.0616   25.9071 H   0  0  0  0  0  0
  -22.0318   -2.7613   23.2889 H   0  0  0  0  0  0
  -22.4339  -12.1275   22.5726 H   0  0  0  0  0  0
  -20.9831  -13.0921   22.5827 H   0  0  0  0  0  0
  -23.6752  -15.9533   20.4286 H   0  0  0  0  0  0
  -24.7685  -15.7421   19.2115 H   0  0  0  0  0  0
  -26.7938  -32.4153   23.0349 H   0  0  0  0  0  0
  -25.0052  -33.8661   24.9468 H   0  0  0  0  0  0
  -22.9514  -31.1570   21.2385 H   0  0  0  0  0  0
  -23.3990  -35.9013   23.2694 H   0  0  0  0  0  0
  -24.3734  -36.9237   22.2215 H   0  0  0  0  0  0
  -23.7025  -37.5710   23.7193 H   0  0  0  0  0  0
  -26.4938  -30.7808   20.6729 H   0  0  0  0  0  0
  -26.9985  -30.1710   22.1807 H   0  0  0  0  0  0
  -27.8771  -27.4439   21.6403 H   0  0  0  0  0  0
  -25.4519  -25.2739   18.9004 H   0  0  0  0  0  0
  -24.0409  -27.1646   18.7007 H   0  0  0  0  0  0
  -24.1046  -30.2922   19.3460 H   0  0  0  0  0  0
  -22.9275  -29.0843   19.7632 H   0  0  0  0  0  0
  -25.1379  -36.1044   25.0674 H   0  0  0  0  0  0
  -21.0077  -28.3470   24.1211 H   0  0  0  0  0  0
  -20.5557  -26.2416   23.3757 H   0  0  0  0  0  0
  -21.6634  -26.7223   22.1329 H   0  0  0  0  0  0
  -19.6915  -25.6240   21.1308 H   0  0  0  0  0  0
  -19.6778  -27.3130   20.6757 H   0  0  0  0  0  0
  -17.4248  -26.6763   21.3963 H   0  0  0  0  0  0
  -18.0269  -26.0132   22.8992 H   0  0  0  0  0  0
  -19.7990  -30.7380   24.2119 H   0  0  0  0  0  0
  -17.5033  -31.6262   24.5180 H   0  0  0  0  0  0
  -15.5378  -30.2929   23.7740 H   0  0  0  0  0  0
  -15.8739  -28.0800   22.7103 H   0  0  0  0  0  0
  -24.6249  -30.6455   25.7375 H   0  0  0  0  0  0
  -24.8135  -32.2877   26.3351 H   0  0  0  0  0  0
  -25.7596  -30.9793   27.0284 H   0  0  0  0  0  0
  -26.3400  -29.5899   24.2118 H   0  0  0  0  0  0
  -27.3928  -29.7103   25.5868 H   0  0  0  0  0  0
  -27.9498  -30.3370   24.0610 H   0  0  0  0  0  0
  -27.2609  -33.3637   26.1521 H   0  0  0  0  0  0
  -28.4150  -32.6347   25.0391 H   0  0  0  0  0  0
  -28.0439  -31.8514   26.5675 H   0  0  0  0  0  0
  -28.2077  -38.0248   24.8148 H   0  0  0  0  0  0
  -28.1715  -36.2915   24.5198 H   0  0  0  0  0  0
  -27.2588  -36.9807   25.8695 H   0  0  0  0  0  0
  -20.9974  -29.8471   21.6198 H   0  0  0  0  0  0
  -25.9869  -38.2327   24.2051 H   0  0  0  0  0  0
  -28.7969  -13.9560   17.7710 H   0  0  0  0  0  0
  -28.3313  -11.4073   16.0113 H   0  0  0  0  0  0
  -26.4430  -10.9543   19.9235 H   0  0  0  0  0  0
  -28.8582  -18.9214   22.2514 H   0  0  0  0  0  0
  -29.3579  -20.4459   21.4649 H   0  0  0  0  0  0
  -29.2579  -18.9564   20.5770 H   0  0  0  0  0  0
  -25.6098  -20.3572   22.2288 H   0  0  0  0  0  0
  -26.3865  -18.8541   22.7790 H   0  0  0  0  0  0
  -25.3893  -18.8143   21.4470 H   0  0  0  0  0  0
  -28.2215  -15.0977   22.0973 H   0  0  0  0  0  0
  -26.6521  -14.8340   21.9540 H   0  0  0  0  0  0
  -26.2499  -17.3514   20.1355 H   0  0  0  0  0  0
  -27.7043  -17.4145   19.6799 H   0  0  0  0  0  0
  -26.0744  -22.0619   20.1383 H   0  0  0  0  0  0
  -27.5791  -21.9617   19.4471 H   0  0  0  0  0  0
  -31.4503  -12.6327   15.9650 H   0  0  0  0  0  0
  1 25  1  0  0  0
  1 30  2  0  0  0
  1 77  1  0  0  0
  2  3  1  0  0  0
  2 25  1  0  0  0
  2 86  1  0  0  0
  2 87  1  0  0  0
  3  4  1  0  0  0
  3 88  1  0  0  0
  3 89  1  0  0  0
  4  5  1  0  0  0
  4 90  1  0  0  0
  4 91  1  0  0  0
  5  6  1  0  0  0
  5 26  1  0  0  0
  5 92  1  0  0  0
  6 25  1  0  0  0
  6 93  1  0  0  0
  6 94  1  0  0  0
  7  8  2  0  0  0
  7 26  1  0  0  0
  7 29  1  0  0  0
  8  9  1  0  0  0
  8 22  1  0  0  0
  9 10  1  0  0  0
  9 27  2  0  0  0
 10 11  2  0  0  0
 10 15  1  0  0  0
 11 12  1  0  0  0
 11 95  1  0  0  0
 12 13  2  0  0  0
 12 96  1  0  0  0
 13 14  1  0  0  0
 13 31  1  0  0  0
 14 15  2  0  0  0
 14 97  1  0  0  0
 15 98  1  0  0  0
 16 17  2  0  0  0
 16 21  1  0  0  0
 16 31  1  0  0  0
 17 18  1  0  0  0
 17 99  1  0  0  0
 18 19  2  0  0  0
 18100  1  0  0  0
 19 20  1  0  0  0
 19 24  1  0  0  0
 20 21  2  0  0  0
 20101  1  0  0  0
 21 23  1  0  0  0
 22 28  1  0  0  0
 22 32  2  0  0  0
 26 27  1  0  0  0
 28102  1  0  0  0
 28103  1  0  0  0
 29104  1  0  0  0
 29105  1  0  0  0
 33 34  1  0  0  0
 33 66  1  0  0  0
 33 70  2  0  0  0
 34 36  1  0  0  0
 34 59  1  0  0  0
 34106  1  0  0  0
 35 44  2  0  0  0
 35 45  1  0  0  0
 35 68  1  0  0  0
 36 56  1  0  0  0
 36107  1  0  0  0
 37 39  1  0  0  0
 37 47  1  0  0  0
 37 66  1  0  0  0
 37108  1  0  0  0
 38 43  2  0  0  0
 38 46  1  0  0  0
 38 47  1  0  0  0
 39 64  1  0  0  0
 39 67  2  0  0  0
 40 52  1  0  0  0
 40 53  2  0  0  0
 40 58  1  0  0  0
 41109  1  0  0  0
 41110  1  0  0  0
 41111  1  0  0  0
 41 48  1  0  0  0
 42 43  1  0  0  0
 42 66  1  0  0  0
 42112  1  0  0  0
 42113  1  0  0  0
 43 44  1  0  0  0
 44114  1  0  0  0
 45 46  2  0  0  0
 45115  1  0  0  0
 46116  1  0  0  0
 47117  1  0  0  0
 47118  1  0  0  0
 48 56  1  0  0  0
 48 65  1  0  0  0
 48119  1  0  0  0
 49 50  1  0  0  0
 49 53  1  0  0  0
 49 64  1  0  0  0
 49120  1  0  0  0
 50 51  1  0  0  0
 50121  1  0  0  0
 50122  1  0  0  0
 51 52  1  0  0  0
 51123  1  0  0  0
 51124  1  0  0  0
 52125  1  0  0  0
 52126  1  0  0  0
 53 54  1  0  0  0
 54 55  2  0  0  0
 54127  1  0  0  0
 55 57  1  0  0  0
 55128  1  0  0  0
 56 69  2  0  0  0
 57 58  2  0  0  0
 57129  1  0  0  0
 58130  1  0  0  0
 59 60  1  0  0  0
 59 61  1  0  0  0
 59 62  1  0  0  0
 60131  1  0  0  0
 60132  1  0  0  0
 60133  1  0  0  0
 61134  1  0  0  0
 61135  1  0  0  0
 61136  1  0  0  0
 62137  1  0  0  0
 62138  1  0  0  0
 62139  1  0  0  0
 63 65  1  0  0  0
 63140  1  0  0  0
 63141  1  0  0  0
 63142  1  0  0  0
 64143  1  0  0  0
 65144  1  0  0  0
 68 82  1  0  0  0
 71 74  2  0  0  0
 71 75  1  0  0  0
 71145  1  0  0  0
 72 74  1  0  0  0
 72 76  2  0  0  0
 72146  1  0  0  0
 73 75  2  0  0  0
 73 76  1  0  0  0
 73147  1  0  0  0
 74 77  1  0  0  0
 75 80  1  0  0  0
 76 85  1  0  0  0
 77 84  2  0  0  0
 78148  1  0  0  0
 78149  1  0  0  0
 78150  1  0  0  0
 78 83  1  0  0  0
 79 83  1  0  0  0
 79151  1  0  0  0
 79152  1  0  0  0
 79153  1  0  0  0
 80 81  1  0  0  0
 80154  1  0  0  0
 80155  1  0  0  0
 81 83  1  0  0  0
 81156  1  0  0  0
 81157  1  0  0  0
 82 83  1  0  0  0
 82158  1  0  0  0
 82159  1  0  0  0
 84160  1  0  0  0
M  ISO  4   1 100  68 101  77 100  82 101
M  END
> <chiral flag>
0

> <version>
0

> <s_m_source_file>
/data/baiqing/PycharmProjects/Reinvent-master-3.2/result/LINK_invent/BTK/process_docking_weight1_custom_product_contain_oxygen_bond_distance_aromatic_linkinvent_7_9_3/rearranged_h_0136.sdf

> <i_m_source_file_index>
24

> <r_mmod_Potential_Energy-OPLS-2005>
22575.06640625

> <r_mmod_Stretch_Energy-OPLS-2005>
11812.4482421875

> <r_mmod_Bend_Energy-OPLS-2005>
2138.267578125

> <r_mmod_Torsional_Energy-OPLS-2005>
665.831604003906

> <r_mmod_Improper_Torsional_Energy-OPLS-2005>
55.7666664123535

> <r_mmod_Van_der_Waal_Energy-OPLS-2005>
3721.0517578125

> <r_mmod_Electrostatic_Energy-OPLS-2005>
-220.052261352539

> <r_mmod_Solvation_Energy-OPLS-2005>
-206.326034545898

> <b_mmod_Minimization_Converged-OPLS-2005>
0

> <r_mmod_RMS_Derivative-OPLS-2005>
74.3362731933594

$$$$
24
                    3D
 Structure written by MMmdl.
166174  0  0  1  0            999 V2000
  -30.5679  -14.7620   20.4723 C   0  0  0  0  0  0
  -30.4504  -12.4708   19.4533 C   0  0  0  0  0  0
  -29.5136  -12.5014   18.2226 C   0  0  0  0  0  0
  -28.0398  -12.3165   18.6427 C   0  0  0  0  0  0
  -27.6419  -13.2197   19.8410 C   0  0  2  0  0  0
  -28.6892  -13.1409   20.9719 C   0  0  0  0  0  0
  -25.2528  -13.8165   20.5664 C   0  0  0  0  0  0
  -24.1808  -13.0413   20.9192 C   0  0  0  0  0  0
  -24.6385  -11.6901   20.8725 C   0  0  0  0  0  0
  -23.9064  -10.4285   21.0409 C   0  0  0  0  0  0
  -24.3619   -9.4203   21.9190 C   0  0  0  0  0  0
  -23.6290   -8.2237   22.0763 C   0  0  0  0  0  0
  -22.4274   -8.0284   21.3548 C   0  0  0  0  0  0
  -21.9907   -9.0254   20.4649 C   0  0  0  0  0  0
  -22.7235  -10.2131   20.3059 C   0  0  0  0  0  0
  -21.6853   -6.0738   22.5284 C   0  0  0  0  0  0
  -21.4016   -6.5643   23.8222 C   0  0  0  0  0  0
  -21.3657   -5.6792   24.9182 C   0  0  0  0  0  0
  -21.6044   -4.3052   24.7230 C   0  0  0  0  0  0
  -21.8816   -3.8151   23.4344 C   0  0  0  0  0  0
  -21.9195   -4.6966   22.3404 C   0  0  0  0  0  0
  -22.7834  -13.5219   21.1865 C   0  0  0  0  0  0
  -22.1663   -4.2153   21.0973 F   0  0  0  0  0  0
  -21.5630   -3.4534   25.7742 F   0  0  0  0  0  0
  -29.9845  -13.5171   20.3886 N   0  0  0  0  0  0
  -26.2939  -12.9342   20.3215 N   0  0  0  0  0  0
  -25.9309  -11.6503   20.5697 N   0  0  0  0  0  0
  -22.0472  -12.8219   22.0423 N   0  0  0  0  0  0
  -25.4189  -15.1886   20.4099 N   0  0  0  0  0  0
  -31.7683  -14.9067   20.2295 O   0  0  0  0  0  0
  -21.6635   -6.8877   21.4245 O   0  0  0  0  0  0
  -22.3528  -14.5527   20.6713 O   0  0  0  0  0  0
  -24.6306  -31.8534   23.1967 C   0  0  0  0  0  0
  -25.9137  -32.4733   23.8304 C   0  0  1  0  0  0
  -27.2168  -27.2540   20.1208 C   0  0  0  0  0  0
  -25.5938  -33.8538   24.2212 N   0  0  0  0  0  0
  -23.4294  -30.4801   21.5386 C   0  0  2  0  0  0
  -24.8762  -28.9302   20.1073 C   0  0  0  0  0  0
  -22.7504  -29.4586   22.4838 C   0  0  0  0  0  0
  -18.0299  -28.1374   22.8454 C   0  0  0  0  0  0
  -24.1511  -36.7319   23.2633 C   0  0  0  0  0  0
  -25.9762  -30.7692   21.3754 C   0  0  0  0  0  0
  -26.0512  -29.3907   20.7172 C   0  0  0  0  0  0
  -27.2251  -28.5664   20.7109 C   0  0  0  0  0  0
  -26.0153  -26.8688   19.4812 C   0  0  0  0  0  0
  -24.8639  -27.6777   19.4801 C   0  0  0  0  0  0
  -23.6511  -29.8225   20.1531 C   0  0  0  0  0  0
  -25.4130  -36.3051   24.0304 C   0  0  1  0  0  0
  -20.5897  -28.3702   23.1231 C   0  0  2  0  0  0
  -20.6796  -26.9413   22.5386 C   0  0  0  0  0  0
  -19.5781  -26.6372   21.5180 C   0  0  0  0  0  0
  -18.1957  -26.7909   22.1594 C   0  0  0  0  0  0
  -19.1547  -28.8850   23.2849 C   0  0  0  0  0  0
  -18.9472  -30.1441   23.8884 C   0  0  0  0  0  0
  -17.6479  -30.6578   24.0550 C   0  0  0  0  0  0
  -25.9064  -34.9422   23.5054 C   0  0  0  0  0  0
  -16.5371  -29.9082   23.6314 C   0  0  0  0  0  0
  -16.7288  -28.6496   23.0338 C   0  0  0  0  0  0
  -26.4514  -31.6567   25.0697 C   0  0  0  0  0  0
  -25.3717  -31.3774   26.1404 C   0  0  0  0  0  0
  -27.0360  -30.2962   24.6216 C   0  0  0  0  0  0
  -27.6043  -32.4316   25.7511 C   0  0  0  0  0  0
  -27.5578  -37.1813   24.8448 C   0  0  0  0  0  0
  -21.4194  -29.3059   22.3613 N   0  0  0  0  0  0
  -26.4295  -37.3750   23.9387 N   0  0  0  0  0  0
  -24.6984  -31.0509   22.0952 N   0  0  0  0  0  0
  -23.4193  -28.8090   23.2916 O   0  0  0  0  0  0
  -28.3075  -26.3471   20.1740 O   0  0  0  0  0  0
  -26.5626  -34.8899   22.4615 O   0  0  0  0  0  0
  -23.5450  -32.1374   23.7240 O   0  0  0  0  0  0
  -29.1779  -19.8234   22.1706 C   0  0  0  0  0  0
  -29.7096  -18.4279   20.2665 C   0  0  0  0  0  0
  -29.1425  -18.6729   22.9917 C   0  0  0  0  0  0
  -29.4338  -17.3781   22.4629 C   0  0  0  0  0  0
  -29.7130  -17.2114   21.0723 C   0  0  0  0  0  0
  -29.4520  -19.7615   20.7926 C   0  0  0  0  0  0
  -29.3967  -16.1712   23.4029 C   0  0  0  0  0  0
  -27.3909  -19.5717   24.6278 C   0  0  0  0  0  0
  -31.6792  -23.4263   19.8388 C   0  0  0  0  0  0
  -28.7598  -18.8923   24.4584 C   0  0  0  0  0  0
  -30.3373  -23.9284   19.2895 C   0  0  0  0  0  0
  -28.0385  -24.8714   20.0037 C   0  0  0  0  0  0
  -28.6277  -22.1564   20.2381 C   0  0  0  0  0  0
  -29.1474  -23.7070   20.2510 C   0  0  1  0  0  0
  -29.6871  -15.8349   20.5102 N   0  0  0  0  0  0
  -29.5258  -20.9701   20.0352 O   0  0  0  0  0  0
  -31.4855  -12.6337   19.1471 H   0  0  0  0  0  0
  -30.4314  -11.4910   19.9338 H   0  0  0  0  0  0
  -29.7994  -11.7235   17.5129 H   0  0  0  0  0  0
  -29.6284  -13.4486   17.6945 H   0  0  0  0  0  0
  -27.9044  -11.2671   18.9074 H   0  0  0  0  0  0
  -27.3788  -12.5012   17.7956 H   0  0  0  0  0  0
  -27.6315  -14.2392   19.4551 H   0  0  0  0  0  0
  -28.7339  -12.1345   21.3903 H   0  0  0  0  0  0
  -28.4162  -13.8002   21.7971 H   0  0  0  0  0  0
  -25.2766   -9.5681   22.4762 H   0  0  0  0  0  0
  -24.0002   -7.4632   22.7490 H   0  0  0  0  0  0
  -21.0836   -8.8766   19.8953 H   0  0  0  0  0  0
  -22.3697  -10.9669   19.6161 H   0  0  0  0  0  0
  -21.2007   -7.6154   23.9728 H   0  0  0  0  0  0
  -21.1481   -6.0520   25.9086 H   0  0  0  0  0  0
  -22.0597   -2.7612   23.2842 H   0  0  0  0  0  0
  -22.4080  -11.9861   22.4778 H   0  0  0  0  0  0
  -21.1099  -13.1265   22.2648 H   0  0  0  0  0  0
  -24.6422  -15.8299   20.5231 H   0  0  0  0  0  0
  -26.2550  -15.6447   20.0683 H   0  0  0  0  0  0
  -26.7193  -32.5410   23.1041 H   0  0  0  0  0  0
  -25.0068  -33.9675   25.0337 H   0  0  0  0  0  0
  -22.7257  -31.3010   21.3900 H   0  0  0  0  0  0
  -23.3729  -35.9694   23.3279 H   0  0  0  0  0  0
  -24.3598  -36.8972   22.2052 H   0  0  0  0  0  0
  -23.7322  -37.6534   23.6688 H   0  0  0  0  0  0
  -26.1025  -31.5337   20.6074 H   0  0  0  0  0  0
  -26.8575  -30.8216   22.0043 H   0  0  0  0  0  0
  -28.1261  -28.9093   21.2015 H   0  0  0  0  0  0
  -25.9253  -25.9193   18.9773 H   0  0  0  0  0  0
  -23.9653  -27.3196   18.9977 H   0  0  0  0  0  0
  -23.7856  -30.6048   19.4040 H   0  0  0  0  0  0
  -22.7681  -29.2644   19.8380 H   0  0  0  0  0  0
  -25.1306  -36.1879   25.0793 H   0  0  0  0  0  0
  -20.9993  -28.3308   24.1350 H   0  0  0  0  0  0
  -20.5680  -26.2325   23.3600 H   0  0  0  0  0  0
  -21.6668  -26.7438   22.1184 H   0  0  0  0  0  0
  -19.6962  -25.6272   21.1239 H   0  0  0  0  0  0
  -19.6723  -27.3147   20.6675 H   0  0  0  0  0  0
  -17.4217  -26.6615   21.4020 H   0  0  0  0  0  0
  -18.0398  -26.0042   22.8998 H   0  0  0  0  0  0
  -19.7967  -30.7239   24.2254 H   0  0  0  0  0  0
  -17.5058  -31.6260   24.5156 H   0  0  0  0  0  0
  -15.5378  -30.2996   23.7650 H   0  0  0  0  0  0
  -15.8679  -28.0836   22.7036 H   0  0  0  0  0  0
  -24.5888  -30.7112   25.7769 H   0  0  0  0  0  0
  -24.8920  -32.2976   26.4738 H   0  0  0  0  0  0
  -25.7996  -30.9031   27.0237 H   0  0  0  0  0  0
  -26.2958  -29.6695   24.1223 H   0  0  0  0  0  0
  -27.3992  -29.7235   25.4762 H   0  0  0  0  0  0
  -27.8852  -30.4195   23.9486 H   0  0  0  0  0  0
  -27.2610  -33.3607   26.2063 H   0  0  0  0  0  0
  -28.3900  -32.6872   25.0398 H   0  0  0  0  0  0
  -28.0652  -31.8457   26.5475 H   0  0  0  0  0  0
  -28.2547  -38.0149   24.7456 H   0  0  0  0  0  0
  -28.1099  -36.2652   24.6286 H   0  0  0  0  0  0
  -27.2276  -37.1475   25.8845 H   0  0  0  0  0  0
  -20.9345  -29.8851   21.6893 H   0  0  0  0  0  0
  -26.0150  -38.2803   24.1403 H   0  0  0  0  0  0
  -29.0071  -20.7861   22.6287 H   0  0  0  0  0  0
  -29.8753  -18.3313   19.2033 H   0  0  0  0  0  0
  -28.3683  -15.9409   23.6818 H   0  0  0  0  0  0
  -29.9697  -16.3621   24.3118 H   0  0  0  0  0  0
  -29.8321  -15.2672   22.9920 H   0  0  0  0  0  0
  -27.1401  -19.6598   25.6853 H   0  0  0  0  0  0
  -26.5976  -18.9959   24.1476 H   0  0  0  0  0  0
  -27.3731  -20.5788   24.2101 H   0  0  0  0  0  0
  -31.7034  -22.3399   19.9137 H   0  0  0  0  0  0
  -31.8759  -23.8362   20.8299 H   0  0  0  0  0  0
  -32.5025  -23.7284   19.1902 H   0  0  0  0  0  0
  -29.5337  -19.5021   24.9263 H   0  0  0  0  0  0
  -28.7339  -17.9716   25.0364 H   0  0  0  0  0  0
  -30.4456  -24.9979   19.0954 H   0  0  0  0  0  0
  -30.1350  -23.4644   18.3229 H   0  0  0  0  0  0
  -27.1907  -24.6302   20.6474 H   0  0  0  0  0  0
  -27.6934  -24.7320   18.9791 H   0  0  0  0  0  0
  -27.9187  -22.0847   19.4128 H   0  0  0  0  0  0
  -28.0058  -22.0069   21.1184 H   0  0  0  0  0  0
  -29.5205  -23.8816   21.2590 H   0  0  0  0  0  0
  -28.7465  -15.4924   20.4046 H   0  0  0  0  0  0
  1 25  1  0  0  0
  1 30  2  0  0  0
  1 85  1  0  0  0
  2  3  1  0  0  0
  2 25  1  0  0  0
  2 87  1  0  0  0
  2 88  1  0  0  0
  3  4  1  0  0  0
  3 89  1  0  0  0
  3 90  1  0  0  0
  4  5  1  0  0  0
  4 91  1  0  0  0
  4 92  1  0  0  0
  5  6  1  0  0  0
  5 26  1  0  0  0
  5 93  1  0  0  0
  6 25  1  0  0  0
  6 94  1  0  0  0
  6 95  1  0  0  0
  7  8  2  0  0  0
  7 26  1  0  0  0
  7 29  1  0  0  0
  8  9  1  0  0  0
  8 22  1  0  0  0
  9 10  1  0  0  0
  9 27  2  0  0  0
 10 11  2  0  0  0
 10 15  1  0  0  0
 11 12  1  0  0  0
 11 96  1  0  0  0
 12 13  2  0  0  0
 12 97  1  0  0  0
 13 14  1  0  0  0
 13 31  1  0  0  0
 14 15  2  0  0  0
 14 98  1  0  0  0
 15 99  1  0  0  0
 16 17  2  0  0  0
 16 21  1  0  0  0
 16 31  1  0  0  0
 17 18  1  0  0  0
 17100  1  0  0  0
 18 19  2  0  0  0
 18101  1  0  0  0
 19 20  1  0  0  0
 19 24  1  0  0  0
 20 21  2  0  0  0
 20102  1  0  0  0
 21 23  1  0  0  0
 22 28  1  0  0  0
 22 32  2  0  0  0
 26 27  1  0  0  0
 28103  1  0  0  0
 28104  1  0  0  0
 29105  1  0  0  0
 29106  1  0  0  0
 33 34  1  0  0  0
 33 66  1  0  0  0
 33 70  2  0  0  0
 34 36  1  0  0  0
 34 59  1  0  0  0
 34107  1  0  0  0
 35 44  2  0  0  0
 35 45  1  0  0  0
 35 68  1  0  0  0
 36 56  1  0  0  0
 36108  1  0  0  0
 37 39  1  0  0  0
 37 47  1  0  0  0
 37 66  1  0  0  0
 37109  1  0  0  0
 38 43  2  0  0  0
 38 46  1  0  0  0
 38 47  1  0  0  0
 39 64  1  0  0  0
 39 67  2  0  0  0
 40 52  1  0  0  0
 40 53  2  0  0  0
 40 58  1  0  0  0
 41110  1  0  0  0
 41111  1  0  0  0
 41112  1  0  0  0
 41 48  1  0  0  0
 42 43  1  0  0  0
 42 66  1  0  0  0
 42113  1  0  0  0
 42114  1  0  0  0
 43 44  1  0  0  0
 44115  1  0  0  0
 45 46  2  0  0  0
 45116  1  0  0  0
 46117  1  0  0  0
 47118  1  0  0  0
 47119  1  0  0  0
 48 56  1  0  0  0
 48 65  1  0  0  0
 48120  1  0  0  0
 49 50  1  0  0  0
 49 53  1  0  0  0
 49 64  1  0  0  0
 49121  1  0  0  0
 50 51  1  0  0  0
 50122  1  0  0  0
 50123  1  0  0  0
 51 52  1  0  0  0
 51124  1  0  0  0
 51125  1  0  0  0
 52126  1  0  0  0
 52127  1  0  0  0
 53 54  1  0  0  0
 54 55  2  0  0  0
 54128  1  0  0  0
 55 57  1  0  0  0
 55129  1  0  0  0
 56 69  2  0  0  0
 57 58  2  0  0  0
 57130  1  0  0  0
 58131  1  0  0  0
 59 60  1  0  0  0
 59 61  1  0  0  0
 59 62  1  0  0  0
 60132  1  0  0  0
 60133  1  0  0  0
 60134  1  0  0  0
 61135  1  0  0  0
 61136  1  0  0  0
 61137  1  0  0  0
 62138  1  0  0  0
 62139  1  0  0  0
 62140  1  0  0  0
 63 65  1  0  0  0
 63141  1  0  0  0
 63142  1  0  0  0
 63143  1  0  0  0
 64144  1  0  0  0
 65145  1  0  0  0
 68 82  1  0  0  0
 71 73  2  0  0  0
 71 76  1  0  0  0
 71146  1  0  0  0
 72 75  1  0  0  0
 72 76  2  0  0  0
 72147  1  0  0  0
 73 74  1  0  0  0
 73 80  1  0  0  0
 74 75  2  0  0  0
 74 77  1  0  0  0
 75 85  1  0  0  0
 76 86  1  0  0  0
 77148  1  0  0  0
 77149  1  0  0  0
 77150  1  0  0  0
 78 80  1  0  0  0
 78151  1  0  0  0
 78152  1  0  0  0
 78153  1  0  0  0
 79 81  1  0  0  0
 79154  1  0  0  0
 79155  1  0  0  0
 79156  1  0  0  0
 80157  1  0  0  0
 80158  1  0  0  0
 81159  1  0  0  0
 81160  1  0  0  0
 81 84  1  0  0  0
 82 84  1  0  0  0
 82161  1  0  0  0
 82162  1  0  0  0
 83 84  1  0  0  0
 83 86  1  0  0  0
 83163  1  0  0  0
 83164  1  0  0  0
 84165  1  0  0  0
 85166  1  0  0  0
M  ISO  4   1 100  68 101  82 101  85 100
M  END
> <chiral flag>
0

> <version>
0

> <s_m_source_file>
/data/baiqing/PycharmProjects/Reinvent-master-3.2/result/LINK_invent/BTK/process_docking_weight1_custom_product_contain_oxygen_bond_distance_aromatic_linkinvent_7_9_3/rearranged_h_0136.sdf

> <i_m_source_file_index>
25

> <r_mmod_Potential_Energy-OPLS-2005>
277.573272705078

> <r_mmod_Stretch_Energy-OPLS-2005>
134.801895141602

> <r_mmod_Bend_Energy-OPLS-2005>
186.27848815918

> <r_mmod_Torsional_Energy-OPLS-2005>
279.710662841797

> <r_mmod_Improper_Torsional_Energy-OPLS-2005>
11.6456489562988

> <r_mmod_Van_der_Waal_Energy-OPLS-2005>
144.177352905273

> <r_mmod_Electrostatic_Energy-OPLS-2005>
-368.678344726562

> <r_mmod_Solvation_Energy-OPLS-2005>
-205.298965454102

> <b_mmod_Minimization_Converged-OPLS-2005>
0

> <r_mmod_RMS_Derivative-OPLS-2005>
3.1242561340332

$$$$
25
                    3D
 Structure written by MMmdl.
167175  0  0  1  0            999 V2000
  -30.6636  -14.6472   20.5431 C   0  0  0  0  0  0
  -30.4291  -12.4094   19.4715 C   0  0  0  0  0  0
  -29.5072  -12.5287   18.2370 C   0  0  0  0  0  0
  -28.0313  -12.3525   18.6392 C   0  0  0  0  0  0
  -27.6524  -13.2201   19.8662 C   0  0  2  0  0  0
  -28.6889  -13.0639   20.9991 C   0  0  0  0  0  0
  -25.2517  -13.8161   20.5639 C   0  0  0  0  0  0
  -24.1810  -13.0438   20.9191 C   0  0  0  0  0  0
  -24.6392  -11.6909   20.8745 C   0  0  0  0  0  0
  -23.9070  -10.4285   21.0412 C   0  0  0  0  0  0
  -24.3610   -9.4187   21.9185 C   0  0  0  0  0  0
  -23.6281   -8.2233   22.0752 C   0  0  0  0  0  0
  -22.4261   -8.0274   21.3534 C   0  0  0  0  0  0
  -21.9902   -9.0259   20.4634 C   0  0  0  0  0  0
  -22.7248  -10.2136   20.3050 C   0  0  0  0  0  0
  -21.6854   -6.0716   22.5275 C   0  0  0  0  0  0
  -21.4021   -6.5621   23.8208 C   0  0  0  0  0  0
  -21.3654   -5.6782   24.9168 C   0  0  0  0  0  0
  -21.6047   -4.3048   24.7227 C   0  0  0  0  0  0
  -21.8829   -3.8129   23.4349 C   0  0  0  0  0  0
  -21.9196   -4.6944   22.3400 C   0  0  0  0  0  0
  -22.7824  -13.5217   21.1875 C   0  0  0  0  0  0
  -22.1675   -4.2124   21.0991 F   0  0  0  0  0  0
  -21.5611   -3.4538   25.7743 F   0  0  0  0  0  0
  -30.0123  -13.4315   20.4611 N   0  0  0  0  0  0
  -26.2973  -12.9376   20.3291 N   0  0  0  0  0  0
  -25.9321  -11.6521   20.5739 N   0  0  0  0  0  0
  -22.0487  -12.8186   22.0425 N   0  0  0  0  0  0
  -25.4194  -15.1872   20.3952 N   0  0  0  0  0  0
  -31.7655  -14.7952   20.0099 O   0  0  0  0  0  0
  -21.6626   -6.8867   21.4236 O   0  0  0  0  0  0
  -22.3519  -14.5551   20.6746 O   0  0  0  0  0  0
  -24.6205  -31.8618   23.2017 C   0  0  0  0  0  0
  -25.9053  -32.4795   23.8364 C   0  0  1  0  0  0
  -27.2319  -27.3538   20.1180 C   0  0  0  0  0  0
  -25.5891  -33.8595   24.2305 N   0  0  0  0  0  0
  -23.4157  -30.4816   21.5424 C   0  0  2  0  0  0
  -24.8681  -28.9369   20.1159 C   0  0  0  0  0  0
  -22.7457  -29.4614   22.4923 C   0  0  0  0  0  0
  -18.0263  -28.1371   22.8467 C   0  0  0  0  0  0
  -24.1502  -36.7300   23.2640 C   0  0  0  0  0  0
  -25.9538  -30.8055   21.3672 C   0  0  0  0  0  0
  -26.0340  -29.4336   20.7138 C   0  0  0  0  0  0
  -27.2244  -28.6556   20.6973 C   0  0  0  0  0  0
  -26.0472  -26.8897   19.5136 C   0  0  0  0  0  0
  -24.8744  -27.6702   19.5060 C   0  0  0  0  0  0
  -23.6331  -29.8098   20.1608 C   0  0  0  0  0  0
  -25.4120  -36.3085   24.0336 C   0  0  1  0  0  0
  -20.5868  -28.3676   23.1282 C   0  0  2  0  0  0
  -20.6752  -26.9405   22.5398 C   0  0  0  0  0  0
  -19.5742  -26.6372   21.5185 C   0  0  0  0  0  0
  -18.1919  -26.7917   22.1591 C   0  0  0  0  0  0
  -19.1517  -28.8840   23.2877 C   0  0  0  0  0  0
  -18.9434  -30.1433   23.8910 C   0  0  0  0  0  0
  -17.6444  -30.6574   24.0544 C   0  0  0  0  0  0
  -25.9033  -34.9450   23.5113 C   0  0  0  0  0  0
  -16.5332  -29.9063   23.6325 C   0  0  0  0  0  0
  -16.7248  -28.6478   23.0356 C   0  0  0  0  0  0
  -26.4468  -31.6599   25.0716 C   0  0  0  0  0  0
  -25.3724  -31.3734   26.1462 C   0  0  0  0  0  0
  -27.0325  -30.3025   24.6175 C   0  0  0  0  0  0
  -27.6025  -32.4350   25.7488 C   0  0  0  0  0  0
  -27.5587  -37.1792   24.8453 C   0  0  0  0  0  0
  -21.4174  -29.3039   22.3687 N   0  0  0  0  0  0
  -26.4293  -37.3762   23.9410 N   0  0  0  0  0  0
  -24.6823  -31.0667   22.0942 N   0  0  0  0  0  0
  -23.4202  -28.8151   23.2978 O   0  0  0  0  0  0
  -28.3637  -26.5406   20.1085 O   0  0  0  0  0  0
  -26.5592  -34.8897   22.4675 O   0  0  0  0  0  0
  -23.5354  -32.1413   23.7336 O   0  0  0  0  0  0
  -28.5534  -17.7583   20.5211 C   0  0  0  0  0  0
  -28.2488  -19.1055   20.1806 C   0  0  0  0  0  0
  -29.8754  -17.2865   20.7564 C   0  0  0  0  0  0
  -30.9058  -18.2878   20.6361 C   0  0  0  0  0  0
  -30.5849  -19.6703   20.3388 C   0  0  0  0  0  0
  -29.2495  -20.0971   20.0891 C   0  0  0  0  0  0
  -30.0190  -15.8544   21.3369 C   0  0  0  0  0  0
  -31.6651  -20.7516   20.3127 C   0  0  0  0  0  0
  -34.6479  -17.7731   19.6158 C   0  0  0  0  0  0
  -29.9760  -24.2399   19.0212 C   0  0  0  0  0  0
  -32.3778  -17.9118   20.8303 C   0  0  0  0  0  0
  -33.1192  -17.7647   19.4806 C   0  0  0  0  0  0
  -28.2364  -25.1758   20.6501 C   0  0  0  0  0  0
  -28.7270  -22.5237   20.4785 C   0  0  0  0  0  0
  -28.6479  -23.9401   19.7409 C   0  0  2  0  0  0
  -29.6004  -15.6960   22.5239 N   0  0  0  0  0  0
  -28.9362  -21.3787   19.5950 O   0  0  0  0  0  0
  -31.4734  -12.5079   19.1745 H   0  0  0  0  0  0
  -30.3488  -11.4140   19.9093 H   0  0  0  0  0  0
  -29.7806  -11.7828   17.4891 H   0  0  0  0  0  0
  -29.6415  -13.5051   17.7676 H   0  0  0  0  0  0
  -27.8811  -11.2982   18.8748 H   0  0  0  0  0  0
  -27.3733  -12.5761   17.7994 H   0  0  0  0  0  0
  -27.6787  -14.2589   19.5359 H   0  0  0  0  0  0
  -28.7071  -12.0348   21.3623 H   0  0  0  0  0  0
  -28.3858  -13.6553   21.8584 H   0  0  0  0  0  0
  -25.2770   -9.5643   22.4734 H   0  0  0  0  0  0
  -23.9982   -7.4612   22.7473 H   0  0  0  0  0  0
  -21.0831   -8.8786   19.8930 H   0  0  0  0  0  0
  -22.3734  -10.9662   19.6132 H   0  0  0  0  0  0
  -21.2037   -7.6136   23.9704 H   0  0  0  0  0  0
  -21.1461   -6.0508   25.9068 H   0  0  0  0  0  0
  -22.0615   -2.7587   23.2858 H   0  0  0  0  0  0
  -22.4147  -11.9848   22.4791 H   0  0  0  0  0  0
  -21.1096  -13.1153   22.2667 H   0  0  0  0  0  0
  -24.6391  -15.8292   20.4723 H   0  0  0  0  0  0
  -26.2485  -15.6124   20.0044 H   0  0  0  0  0  0
  -26.7121  -32.5492   23.1118 H   0  0  0  0  0  0
  -25.0026  -33.9761   25.0437 H   0  0  0  0  0  0
  -22.7062  -31.2980   21.3928 H   0  0  0  0  0  0
  -23.3737  -35.9644   23.3261 H   0  0  0  0  0  0
  -24.3596  -36.8960   22.2055 H   0  0  0  0  0  0
  -23.7275  -37.6496   23.6694 H   0  0  0  0  0  0
  -26.0809  -31.5692   20.5983 H   0  0  0  0  0  0
  -26.8316  -30.8582   21.9978 H   0  0  0  0  0  0
  -28.1280  -29.0377   21.1531 H   0  0  0  0  0  0
  -26.0272  -25.9158   19.0475 H   0  0  0  0  0  0
  -23.9787  -27.2886   19.0362 H   0  0  0  0  0  0
  -23.7506  -30.5817   19.3995 H   0  0  0  0  0  0
  -22.7594  -29.2278   19.8622 H   0  0  0  0  0  0
  -25.1298  -36.1932   25.0821 H   0  0  0  0  0  0
  -20.9952  -28.3231   24.1403 H   0  0  0  0  0  0
  -20.5627  -26.2277   23.3584 H   0  0  0  0  0  0
  -21.6622  -26.7416   22.1209 H   0  0  0  0  0  0
  -19.6908  -25.6277   21.1219 H   0  0  0  0  0  0
  -19.6688  -27.3160   20.6701 H   0  0  0  0  0  0
  -17.4188  -26.6632   21.3995 H   0  0  0  0  0  0
  -18.0327  -26.0090   22.9016 H   0  0  0  0  0  0
  -19.7920  -30.7224   24.2320 H   0  0  0  0  0  0
  -17.4999  -31.6279   24.5100 H   0  0  0  0  0  0
  -15.5330  -30.2958   23.7665 H   0  0  0  0  0  0
  -15.8650  -28.0784   22.7100 H   0  0  0  0  0  0
  -24.5880  -30.7115   25.7779 H   0  0  0  0  0  0
  -24.8937  -32.2903   26.4902 H   0  0  0  0  0  0
  -25.8057  -30.8892   27.0223 H   0  0  0  0  0  0
  -26.2916  -29.6750   24.1204 H   0  0  0  0  0  0
  -27.4028  -29.7300   25.4687 H   0  0  0  0  0  0
  -27.8778  -30.4279   23.9404 H   0  0  0  0  0  0
  -27.2626  -33.3634   26.2067 H   0  0  0  0  0  0
  -28.3826  -32.6932   25.0325 H   0  0  0  0  0  0
  -28.0716  -31.8500   26.5402 H   0  0  0  0  0  0
  -28.2556  -38.0128   24.7522 H   0  0  0  0  0  0
  -28.1140  -36.2654   24.6256 H   0  0  0  0  0  0
  -27.2323  -37.1413   25.8860 H   0  0  0  0  0  0
  -20.9341  -29.8789   21.6933 H   0  0  0  0  0  0
  -26.0177  -38.2832   24.1393 H   0  0  0  0  0  0
  -27.7303  -17.0670   20.6299 H   0  0  0  0  0  0
  -27.2203  -19.3807   19.9884 H   0  0  0  0  0  0
  -31.8480  -21.1035   21.3276 H   0  0  0  0  0  0
  -31.3641  -21.6126   19.7176 H   0  0  0  0  0  0
  -32.6162  -20.4226   19.9046 H   0  0  0  0  0  0
  -35.1220  -17.8426   18.6353 H   0  0  0  0  0  0
  -35.0102  -16.8646   20.0962 H   0  0  0  0  0  0
  -34.9927  -18.6254   20.2028 H   0  0  0  0  0  0
  -29.9004  -25.1417   18.4130 H   0  0  0  0  0  0
  -30.2615  -23.4308   18.3494 H   0  0  0  0  0  0
  -30.7859  -24.3842   19.7363 H   0  0  0  0  0  0
  -32.4853  -17.0011   21.4198 H   0  0  0  0  0  0
  -32.8594  -18.6803   21.4351 H   0  0  0  0  0  0
  -32.8013  -16.8611   18.9659 H   0  0  0  0  0  0
  -32.8445  -18.5764   18.8095 H   0  0  0  0  0  0
  -28.8732  -25.1579   21.5351 H   0  0  0  0  0  0
  -27.2277  -25.0097   21.0348 H   0  0  0  0  0  0
  -27.7933  -22.3605   21.0191 H   0  0  0  0  0  0
  -29.5164  -22.5435   21.2296 H   0  0  0  0  0  0
  -27.8763  -23.8562   18.9731 H   0  0  0  0  0  0
  -29.2328  -16.5692   22.8815 H   0  0  0  0  0  0
  1 25  1  0  0  0
  1 30  2  0  0  0
  1 77  1  0  0  0
  2  3  1  0  0  0
  2 25  1  0  0  0
  2 88  1  0  0  0
  2 89  1  0  0  0
  3  4  1  0  0  0
  3 90  1  0  0  0
  3 91  1  0  0  0
  4  5  1  0  0  0
  4 92  1  0  0  0
  4 93  1  0  0  0
  5  6  1  0  0  0
  5 26  1  0  0  0
  5 94  1  0  0  0
  6 25  1  0  0  0
  6 95  1  0  0  0
  6 96  1  0  0  0
  7  8  2  0  0  0
  7 26  1  0  0  0
  7 29  1  0  0  0
  8  9  1  0  0  0
  8 22  1  0  0  0
  9 10  1  0  0  0
  9 27  2  0  0  0
 10 11  2  0  0  0
 10 15  1  0  0  0
 11 12  1  0  0  0
 11 97  1  0  0  0
 12 13  2  0  0  0
 12 98  1  0  0  0
 13 14  1  0  0  0
 13 31  1  0  0  0
 14 15  2  0  0  0
 14 99  1  0  0  0
 15100  1  0  0  0
 16 17  2  0  0  0
 16 21  1  0  0  0
 16 31  1  0  0  0
 17 18  1  0  0  0
 17101  1  0  0  0
 18 19  2  0  0  0
 18102  1  0  0  0
 19 20  1  0  0  0
 19 24  1  0  0  0
 20 21  2  0  0  0
 20103  1  0  0  0
 21 23  1  0  0  0
 22 28  1  0  0  0
 22 32  2  0  0  0
 26 27  1  0  0  0
 28104  1  0  0  0
 28105  1  0  0  0
 29106  1  0  0  0
 29107  1  0  0  0
 33 34  1  0  0  0
 33 66  1  0  0  0
 33 70  2  0  0  0
 34 36  1  0  0  0
 34 59  1  0  0  0
 34108  1  0  0  0
 35 44  2  0  0  0
 35 45  1  0  0  0
 35 68  1  0  0  0
 36 56  1  0  0  0
 36109  1  0  0  0
 37 39  1  0  0  0
 37 47  1  0  0  0
 37 66  1  0  0  0
 37110  1  0  0  0
 38 43  2  0  0  0
 38 46  1  0  0  0
 38 47  1  0  0  0
 39 64  1  0  0  0
 39 67  2  0  0  0
 40 52  1  0  0  0
 40 53  2  0  0  0
 40 58  1  0  0  0
 41111  1  0  0  0
 41112  1  0  0  0
 41113  1  0  0  0
 41 48  1  0  0  0
 42 43  1  0  0  0
 42 66  1  0  0  0
 42114  1  0  0  0
 42115  1  0  0  0
 43 44  1  0  0  0
 44116  1  0  0  0
 45 46  2  0  0  0
 45117  1  0  0  0
 46118  1  0  0  0
 47119  1  0  0  0
 47120  1  0  0  0
 48 56  1  0  0  0
 48 65  1  0  0  0
 48121  1  0  0  0
 49 50  1  0  0  0
 49 53  1  0  0  0
 49 64  1  0  0  0
 49122  1  0  0  0
 50 51  1  0  0  0
 50123  1  0  0  0
 50124  1  0  0  0
 51 52  1  0  0  0
 51125  1  0  0  0
 51126  1  0  0  0
 52127  1  0  0  0
 52128  1  0  0  0
 53 54  1  0  0  0
 54 55  2  0  0  0
 54129  1  0  0  0
 55 57  1  0  0  0
 55130  1  0  0  0
 56 69  2  0  0  0
 57 58  2  0  0  0
 57131  1  0  0  0
 58132  1  0  0  0
 59 60  1  0  0  0
 59 61  1  0  0  0
 59 62  1  0  0  0
 60133  1  0  0  0
 60134  1  0  0  0
 60135  1  0  0  0
 61136  1  0  0  0
 61137  1  0  0  0
 61138  1  0  0  0
 62139  1  0  0  0
 62140  1  0  0  0
 62141  1  0  0  0
 63 65  1  0  0  0
 63142  1  0  0  0
 63143  1  0  0  0
 63144  1  0  0  0
 64145  1  0  0  0
 65146  1  0  0  0
 68 83  1  0  0  0
 71 72  2  0  0  0
 71 73  1  0  0  0
 71147  1  0  0  0
 72 76  1  0  0  0
 72148  1  0  0  0
 73 74  2  0  0  0
 73 77  1  0  0  0
 74 75  1  0  0  0
 74 81  1  0  0  0
 75 76  2  0  0  0
 75 78  1  0  0  0
 76 87  1  0  0  0
 77 86  2  0  0  0
 78149  1  0  0  0
 78150  1  0  0  0
 78151  1  0  0  0
 79 82  1  0  0  0
 79152  1  0  0  0
 79153  1  0  0  0
 79154  1  0  0  0
 80155  1  0  0  0
 80156  1  0  0  0
 80157  1  0  0  0
 80 85  1  0  0  0
 81 82  1  0  0  0
 81158  1  0  0  0
 81159  1  0  0  0
 82160  1  0  0  0
 82161  1  0  0  0
 83 85  1  0  0  0
 83162  1  0  0  0
 83163  1  0  0  0
 84 85  1  0  0  0
 84 87  1  0  0  0
 84164  1  0  0  0
 84165  1  0  0  0
 85166  1  0  0  0
 86167  1  0  0  0
M  ISO  4   1 100  68 101  77 100  83 101
M  END
> <chiral flag>
0

> <version>
0

> <s_m_source_file>
/data/baiqing/PycharmProjects/Reinvent-master-3.2/result/LINK_invent/BTK/process_docking_weight1_custom_product_contain_oxygen_bond_distance_aromatic_linkinvent_7_9_3/rearranged_h_0136.sdf

> <i_m_source_file_index>
26

> <r_mmod_Potential_Energy-OPLS-2005>
287.170379638672

> <r_mmod_Stretch_Energy-OPLS-2005>
93.0205764770508

> <r_mmod_Bend_Energy-OPLS-2005>
153.402297973633

> <r_mmod_Torsional_Energy-OPLS-2005>
277.248565673828

> <r_mmod_Improper_Torsional_Energy-OPLS-2005>
4.56087732315063

> <r_mmod_Van_der_Waal_Energy-OPLS-2005>
139.628219604492

> <r_mmod_Electrostatic_Energy-OPLS-2005>
-233.695983886719

> <r_mmod_Solvation_Energy-OPLS-2005>
-186.988510131836

> <b_mmod_Minimization_Converged-OPLS-2005>
0

> <r_mmod_RMS_Derivative-OPLS-2005>
3.37795472145081

$$$$
26
                    3D
 Structure written by MMmdl.
161170  0  0  1  0            999 V2000
  -30.5999  -14.6513   20.5105 C   0  0  0  0  0  0
  -30.4442  -12.4023   19.4490 C   0  0  0  0  0  0
  -29.5099  -12.5168   18.2231 C   0  0  0  0  0  0
  -28.0322  -12.3495   18.6340 C   0  0  0  0  0  0
  -27.6551  -13.2125   19.8670 C   0  0  2  0  0  0
  -28.6997  -13.0530   20.9948 C   0  0  0  0  0  0
  -25.2575  -13.8152   20.5679 C   0  0  0  0  0  0
  -24.1834  -13.0431   20.9191 C   0  0  0  0  0  0
  -24.6388  -11.6898   20.8733 C   0  0  0  0  0  0
  -23.9049  -10.4287   21.0406 C   0  0  0  0  0  0
  -24.3604   -9.4206   21.9182 C   0  0  0  0  0  0
  -23.6284   -8.2240   22.0749 C   0  0  0  0  0  0
  -22.4268   -8.0273   21.3542 C   0  0  0  0  0  0
  -21.9900   -9.0247   20.4643 C   0  0  0  0  0  0
  -22.7220  -10.2131   20.3052 C   0  0  0  0  0  0
  -21.6853   -6.0729   22.5277 C   0  0  0  0  0  0
  -21.4017   -6.5633   23.8207 C   0  0  0  0  0  0
  -21.3658   -5.6790   24.9171 C   0  0  0  0  0  0
  -21.6045   -4.3053   24.7225 C   0  0  0  0  0  0
  -21.8817   -3.8140   23.4344 C   0  0  0  0  0  0
  -21.9194   -4.6958   22.3403 C   0  0  0  0  0  0
  -22.7861  -13.5240   21.1854 C   0  0  0  0  0  0
  -22.1663   -4.2147   21.0981 F   0  0  0  0  0  0
  -21.5630   -3.4534   25.7733 F   0  0  0  0  0  0
  -30.0134  -13.4135   20.4350 N   0  0  0  0  0  0
  -26.2994  -12.9325   20.3324 N   0  0  0  0  0  0
  -25.9317  -11.6483   20.5752 N   0  0  0  0  0  0
  -22.0492  -12.8235   22.0400 N   0  0  0  0  0  0
  -25.4295  -15.1870   20.4064 N   0  0  0  0  0  0
  -31.7584  -14.8366   20.1236 O   0  0  0  0  0  0
  -21.6637   -6.8868   21.4234 O   0  0  0  0  0  0
  -22.3552  -14.5542   20.6689 O   0  0  0  0  0  0
  -24.6268  -31.8613   23.2052 C   0  0  0  0  0  0
  -25.9113  -32.4788   23.8382 C   0  0  1  0  0  0
  -27.2180  -27.3123   20.1178 C   0  0  0  0  0  0
  -25.5929  -33.8588   24.2307 N   0  0  0  0  0  0
  -23.4205  -30.4872   21.5479 C   0  0  2  0  0  0
  -24.8669  -28.9485   20.1095 C   0  0  0  0  0  0
  -22.7480  -29.4623   22.4938 C   0  0  0  0  0  0
  -18.0278  -28.1397   22.8501 C   0  0  0  0  0  0
  -24.1479  -36.7289   23.2638 C   0  0  0  0  0  0
  -25.9643  -30.7888   21.3793 C   0  0  0  0  0  0
  -26.0373  -29.4173   20.7192 C   0  0  0  0  0  0
  -27.2161  -28.6109   20.7163 C   0  0  0  0  0  0
  -26.0248  -26.9094   19.4691 C   0  0  0  0  0  0
  -24.8636  -27.7003   19.4732 C   0  0  0  0  0  0
  -23.6355  -29.8278   20.1612 C   0  0  0  0  0  0
  -25.4105  -36.3083   24.0336 C   0  0  1  0  0  0
  -20.5883  -28.3690   23.1290 C   0  0  2  0  0  0
  -20.6768  -26.9416   22.5410 C   0  0  0  0  0  0
  -19.5734  -26.6397   21.5219 C   0  0  0  0  0  0
  -18.1918  -26.7943   22.1635 C   0  0  0  0  0  0
  -19.1535  -28.8865   23.2891 C   0  0  0  0  0  0
  -18.9456  -30.1475   23.8894 C   0  0  0  0  0  0
  -17.6454  -30.6600   24.0570 C   0  0  0  0  0  0
  -25.9045  -34.9453   23.5116 C   0  0  0  0  0  0
  -16.5346  -29.9097   23.6344 C   0  0  0  0  0  0
  -16.7268  -28.6517   23.0370 C   0  0  0  0  0  0
  -26.4501  -31.6590   25.0745 C   0  0  0  0  0  0
  -25.3744  -31.3713   26.1478 C   0  0  0  0  0  0
  -27.0344  -30.3015   24.6185 C   0  0  0  0  0  0
  -27.6068  -32.4318   25.7511 C   0  0  0  0  0  0
  -27.5580  -37.1802   24.8461 C   0  0  0  0  0  0
  -21.4190  -29.3049   22.3689 N   0  0  0  0  0  0
  -26.4278  -37.3783   23.9420 N   0  0  0  0  0  0
  -24.6893  -31.0617   22.1008 N   0  0  0  0  0  0
  -23.4200  -28.8143   23.3002 O   0  0  0  0  0  0
  -28.3166  -26.4349   20.1921 O   0  0  0  0  0  0
  -26.5595  -34.8912   22.4671 O   0  0  0  0  0  0
  -23.5426  -32.1416   23.7374 O   0  0  0  0  0  0
  -28.6264  -19.2761   21.3449 C   0  0  0  0  0  0
  -30.8757  -19.3634   20.5312 C   0  0  0  0  0  0
  -28.6586  -17.8547   21.2561 C   0  0  0  0  0  0
  -30.9107  -17.9349   20.4380 C   0  0  0  0  0  0
  -29.7550  -20.0879   21.0475 C   0  0  0  0  0  0
  -29.8108  -17.1328   20.8442 C   0  0  0  0  0  0
  -28.8039  -22.6617   20.8801 C   0  0  0  0  0  0
  -29.1017  -23.9206   20.4063 C   0  0  0  0  0  0
  -30.5490  -24.3302   20.2009 C   0  0  0  0  0  0
  -31.4898  -23.1090   20.1882 C   0  0  0  0  0  0
  -31.2496  -22.2322   21.4244 C   0  0  0  0  0  0
  -29.8114  -21.6218   21.4932 C   0  0  2  0  0  0
  -29.4697  -21.6015   23.0054 C   0  0  0  0  0  0
  -28.0367  -24.9900   19.9907 C   0  0  0  0  0  0
  -29.7570  -15.6684   20.8806 N   0  0  0  0  0  0
  -31.4836  -12.5407   19.1459 H   0  0  0  0  0  0
  -30.3892  -11.4029   19.8833 H   0  0  0  0  0  0
  -29.7774  -11.7716   17.4729 H   0  0  0  0  0  0
  -29.6486  -13.4889   17.7474 H   0  0  0  0  0  0
  -27.8678  -11.2948   18.8580 H   0  0  0  0  0  0
  -27.3774  -12.5863   17.7947 H   0  0  0  0  0  0
  -27.6765  -14.2507   19.5351 H   0  0  0  0  0  0
  -28.7160  -12.0236   21.3566 H   0  0  0  0  0  0
  -28.4409  -13.6642   21.8606 H   0  0  0  0  0  0
  -25.2751   -9.5687   22.4754 H   0  0  0  0  0  0
  -24.0001   -7.4631   22.7461 H   0  0  0  0  0  0
  -21.0835   -8.8753   19.8949 H   0  0  0  0  0  0
  -22.3670  -10.9666   19.6157 H   0  0  0  0  0  0
  -21.2005   -7.6140   23.9706 H   0  0  0  0  0  0
  -21.1487   -6.0522   25.9076 H   0  0  0  0  0  0
  -22.0598   -2.7601   23.2842 H   0  0  0  0  0  0
  -22.4116  -11.9908   22.4807 H   0  0  0  0  0  0
  -21.1103  -13.1256   22.2590 H   0  0  0  0  0  0
  -24.6551  -15.8355   20.4955 H   0  0  0  0  0  0
  -26.2637  -15.6171   20.0283 H   0  0  0  0  0  0
  -26.7191  -32.5460   23.1143 H   0  0  0  0  0  0
  -25.0125  -33.9745   25.0482 H   0  0  0  0  0  0
  -22.7140  -31.3087   21.4094 H   0  0  0  0  0  0
  -23.3740  -35.9621   23.3292 H   0  0  0  0  0  0
  -24.3573  -36.8906   22.2051 H   0  0  0  0  0  0
  -23.7223  -37.6491   23.6656 H   0  0  0  0  0  0
  -26.0998  -31.5523   20.6121 H   0  0  0  0  0  0
  -26.8433  -30.8353   22.0104 H   0  0  0  0  0  0
  -28.1106  -28.9640   21.2116 H   0  0  0  0  0  0
  -25.9497  -25.9621   18.9568 H   0  0  0  0  0  0
  -23.9685  -27.3410   18.9832 H   0  0  0  0  0  0
  -23.7577  -30.6070   19.4083 H   0  0  0  0  0  0
  -22.7549  -29.2593   19.8562 H   0  0  0  0  0  0
  -25.1282  -36.1939   25.0828 H   0  0  0  0  0  0
  -20.9996  -28.3257   24.1404 H   0  0  0  0  0  0
  -20.5690  -26.2294   23.3607 H   0  0  0  0  0  0
  -21.6635  -26.7462   22.1192 H   0  0  0  0  0  0
  -19.6879  -25.6305   21.1256 H   0  0  0  0  0  0
  -19.6665  -27.3211   20.6749 H   0  0  0  0  0  0
  -17.4197  -26.6719   21.4021 H   0  0  0  0  0  0
  -18.0295  -26.0079   22.9022 H   0  0  0  0  0  0
  -19.7924  -30.7309   24.2249 H   0  0  0  0  0  0
  -17.5003  -31.6278   24.5175 H   0  0  0  0  0  0
  -15.5350  -30.3003   23.7663 H   0  0  0  0  0  0
  -15.8666  -28.0840   22.7084 H   0  0  0  0  0  0
  -24.5929  -30.7042   25.7817 H   0  0  0  0  0  0
  -24.8928  -32.2871   26.4910 H   0  0  0  0  0  0
  -25.8092  -30.8902   27.0248 H   0  0  0  0  0  0
  -26.2918  -29.6765   24.1214 H   0  0  0  0  0  0
  -27.4051  -29.7257   25.4672 H   0  0  0  0  0  0
  -27.8782  -30.4298   23.9404 H   0  0  0  0  0  0
  -27.2695  -33.3621   26.2087 H   0  0  0  0  0  0
  -28.3885  -32.6869   25.0344 H   0  0  0  0  0  0
  -28.0734  -31.8444   26.5427 H   0  0  0  0  0  0
  -28.2591  -38.0111   24.7547 H   0  0  0  0  0  0
  -28.1083  -36.2647   24.6237 H   0  0  0  0  0  0
  -27.2307  -37.1396   25.8866 H   0  0  0  0  0  0
  -20.9361  -29.8793   21.6925 H   0  0  0  0  0  0
  -26.0149  -38.2849   24.1437 H   0  0  0  0  0  0
  -27.7258  -19.7382   21.7234 H   0  0  0  0  0  0
  -31.7724  -19.8891   20.2391 H   0  0  0  0  0  0
  -27.7735  -17.3106   21.5555 H   0  0  0  0  0  0
  -31.8163  -17.4648   20.0793 H   0  0  0  0  0  0
  -27.7619  -22.3902   20.9753 H   0  0  0  0  0  0
  -30.8280  -25.0298   20.9904 H   0  0  0  0  0  0
  -30.6368  -24.8657   19.2549 H   0  0  0  0  0  0
  -32.5274  -23.4451   20.1612 H   0  0  0  0  0  0
  -31.3312  -22.5182   19.2841 H   0  0  0  0  0  0
  -31.4010  -22.9048   22.2708 H   0  0  0  0  0  0
  -32.0344  -21.4919   21.5653 H   0  0  0  0  0  0
  -28.4638  -21.2325   23.2052 H   0  0  0  0  0  0
  -29.5149  -22.5985   23.4477 H   0  0  0  0  0  0
  -30.1634  -20.9690   23.5617 H   0  0  0  0  0  0
  -27.1113  -24.7216   20.5044 H   0  0  0  0  0  0
  -27.8674  -24.8368   18.9242 H   0  0  0  0  0  0
  -28.8664  -15.3050   21.1835 H   0  0  0  0  0  0
  1 25  1  0  0  0
  1 30  2  0  0  0
  1 85  1  0  0  0
  2  3  1  0  0  0
  2 25  1  0  0  0
  2 86  1  0  0  0
  2 87  1  0  0  0
  3  4  1  0  0  0
  3 88  1  0  0  0
  3 89  1  0  0  0
  4  5  1  0  0  0
  4 90  1  0  0  0
  4 91  1  0  0  0
  5  6  1  0  0  0
  5 26  1  0  0  0
  5 92  1  0  0  0
  6 25  1  0  0  0
  6 93  1  0  0  0
  6 94  1  0  0  0
  7  8  2  0  0  0
  7 26  1  0  0  0
  7 29  1  0  0  0
  8  9  1  0  0  0
  8 22  1  0  0  0
  9 10  1  0  0  0
  9 27  2  0  0  0
 10 11  2  0  0  0
 10 15  1  0  0  0
 11 12  1  0  0  0
 11 95  1  0  0  0
 12 13  2  0  0  0
 12 96  1  0  0  0
 13 14  1  0  0  0
 13 31  1  0  0  0
 14 15  2  0  0  0
 14 97  1  0  0  0
 15 98  1  0  0  0
 16 17  2  0  0  0
 16 21  1  0  0  0
 16 31  1  0  0  0
 17 18  1  0  0  0
 17 99  1  0  0  0
 18 19  2  0  0  0
 18100  1  0  0  0
 19 20  1  0  0  0
 19 24  1  0  0  0
 20 21  2  0  0  0
 20101  1  0  0  0
 21 23  1  0  0  0
 22 28  1  0  0  0
 22 32  2  0  0  0
 26 27  1  0  0  0
 28102  1  0  0  0
 28103  1  0  0  0
 29104  1  0  0  0
 29105  1  0  0  0
 33 34  1  0  0  0
 33 66  1  0  0  0
 33 70  2  0  0  0
 34 36  1  0  0  0
 34 59  1  0  0  0
 34106  1  0  0  0
 35 44  2  0  0  0
 35 45  1  0  0  0
 35 68  1  0  0  0
 36 56  1  0  0  0
 36107  1  0  0  0
 37 39  1  0  0  0
 37 47  1  0  0  0
 37 66  1  0  0  0
 37108  1  0  0  0
 38 43  2  0  0  0
 38 46  1  0  0  0
 38 47  1  0  0  0
 39 64  1  0  0  0
 39 67  2  0  0  0
 40 52  1  0  0  0
 40 53  2  0  0  0
 40 58  1  0  0  0
 41109  1  0  0  0
 41110  1  0  0  0
 41111  1  0  0  0
 41 48  1  0  0  0
 42 43  1  0  0  0
 42 66  1  0  0  0
 42112  1  0  0  0
 42113  1  0  0  0
 43 44  1  0  0  0
 44114  1  0  0  0
 45 46  2  0  0  0
 45115  1  0  0  0
 46116  1  0  0  0
 47117  1  0  0  0
 47118  1  0  0  0
 48 56  1  0  0  0
 48 65  1  0  0  0
 48119  1  0  0  0
 49 50  1  0  0  0
 49 53  1  0  0  0
 49 64  1  0  0  0
 49120  1  0  0  0
 50 51  1  0  0  0
 50121  1  0  0  0
 50122  1  0  0  0
 51 52  1  0  0  0
 51123  1  0  0  0
 51124  1  0  0  0
 52125  1  0  0  0
 52126  1  0  0  0
 53 54  1  0  0  0
 54 55  2  0  0  0
 54127  1  0  0  0
 55 57  1  0  0  0
 55128  1  0  0  0
 56 69  2  0  0  0
 57 58  2  0  0  0
 57129  1  0  0  0
 58130  1  0  0  0
 59 60  1  0  0  0
 59 61  1  0  0  0
 59 62  1  0  0  0
 60131  1  0  0  0
 60132  1  0  0  0
 60133  1  0  0  0
 61134  1  0  0  0
 61135  1  0  0  0
 61136  1  0  0  0
 62137  1  0  0  0
 62138  1  0  0  0
 62139  1  0  0  0
 63 65  1  0  0  0
 63140  1  0  0  0
 63141  1  0  0  0
 63142  1  0  0  0
 64143  1  0  0  0
 65144  1  0  0  0
 68 84  1  0  0  0
 71 73  2  0  0  0
 71 75  1  0  0  0
 71145  1  0  0  0
 72 74  1  0  0  0
 72 75  2  0  0  0
 72146  1  0  0  0
 73 76  1  0  0  0
 73147  1  0  0  0
 74 76  2  0  0  0
 74148  1  0  0  0
 75 82  1  0  0  0
 76 85  1  0  0  0
 77 78  2  0  0  0
 77 82  1  0  0  0
 77149  1  0  0  0
 78 79  1  0  0  0
 78 84  1  0  0  0
 79 80  1  0  0  0
 79150  1  0  0  0
 79151  1  0  0  0
 80 81  1  0  0  0
 80152  1  0  0  0
 80153  1  0  0  0
 81 82  1  0  0  0
 81154  1  0  0  0
 81155  1  0  0  0
 82 83  1  0  0  0
 83156  1  0  0  0
 83157  1  0  0  0
 83158  1  0  0  0
 84159  1  0  0  0
 84160  1  0  0  0
 85161  1  0  0  0
M  ISO  4   1 100  68 101  84 101  85 100
M  END
> <chiral flag>
0

> <version>
0

> <s_m_source_file>
/data/baiqing/PycharmProjects/Reinvent-master-3.2/result/LINK_invent/BTK/process_docking_weight1_custom_product_contain_oxygen_bond_distance_aromatic_linkinvent_7_9_3/rearranged_h_0136.sdf

> <i_m_source_file_index>
27

> <r_mmod_Potential_Energy-OPLS-2005>
119.862274169922

> <r_mmod_Stretch_Energy-OPLS-2005>
87.5521011352539

> <r_mmod_Bend_Energy-OPLS-2005>
156.688812255859

> <r_mmod_Torsional_Energy-OPLS-2005>
232.748962402344

> <r_mmod_Improper_Torsional_Energy-OPLS-2005>
5.51684522628784

> <r_mmod_Van_der_Waal_Energy-OPLS-2005>
163.924819946289

> <r_mmod_Electrostatic_Energy-OPLS-2005>
-383.563293457031

> <r_mmod_Solvation_Energy-OPLS-2005>
-197.609497070312

> <b_mmod_Minimization_Converged-OPLS-2005>
0

> <r_mmod_RMS_Derivative-OPLS-2005>
1.60119247436523

$$$$
27
                    3D
 Structure written by MMmdl.
171179  0  0  1  0            999 V2000
  -30.5765  -14.7155   20.5038 C   0  0  0  0  0  0
  -30.4612  -12.4471   19.4338 C   0  0  0  0  0  0
  -29.5116  -12.5062   18.2140 C   0  0  0  0  0  0
  -28.0362  -12.3278   18.6328 C   0  0  0  0  0  0
  -27.6525  -13.2057   19.8541 C   0  0  2  0  0  0
  -28.7110  -13.0630   20.9699 C   0  0  0  0  0  0
  -25.2591  -13.8144   20.5664 C   0  0  0  0  0  0
  -24.1847  -13.0420   20.9179 C   0  0  0  0  0  0
  -24.6405  -11.6889   20.8742 C   0  0  0  0  0  0
  -23.9058  -10.4279   21.0404 C   0  0  0  0  0  0
  -24.3613   -9.4198   21.9180 C   0  0  0  0  0  0
  -23.6289   -8.2236   22.0758 C   0  0  0  0  0  0
  -22.4273   -8.0271   21.3544 C   0  0  0  0  0  0
  -21.9906   -9.0245   20.4644 C   0  0  0  0  0  0
  -22.7236  -10.2121   20.3050 C   0  0  0  0  0  0
  -21.6847   -6.0725   22.5269 C   0  0  0  0  0  0
  -21.4018   -6.5630   23.8205 C   0  0  0  0  0  0
  -21.3658   -5.6787   24.9170 C   0  0  0  0  0  0
  -21.6050   -4.3055   24.7220 C   0  0  0  0  0  0
  -21.8817   -3.8141   23.4348 C   0  0  0  0  0  0
  -21.9194   -4.6952   22.3404 C   0  0  0  0  0  0
  -22.7871  -13.5226   21.1853 C   0  0  0  0  0  0
  -22.1651   -4.2131   21.0979 F   0  0  0  0  0  0
  -21.5633   -3.4545   25.7744 F   0  0  0  0  0  0
  -30.0051  -13.4661   20.4011 N   0  0  0  0  0  0
  -26.3005  -12.9286   20.3300 N   0  0  0  0  0  0
  -25.9325  -11.6455   20.5757 N   0  0  0  0  0  0
  -22.0511  -12.8194   22.0390 N   0  0  0  0  0  0
  -25.4297  -15.1861   20.4028 N   0  0  0  0  0  0
  -31.7637  -14.8951   20.2187 O   0  0  0  0  0  0
  -21.6638   -6.8868   21.4236 O   0  0  0  0  0  0
  -22.3547  -14.5530   20.6705 O   0  0  0  0  0  0
  -24.6314  -31.8522   23.1998 C   0  0  0  0  0  0
  -25.9141  -32.4725   23.8327 C   0  0  1  0  0  0
  -27.2246  -27.2749   20.1286 C   0  0  0  0  0  0
  -25.5956  -33.8524   24.2236 N   0  0  0  0  0  0
  -23.4288  -30.4755   21.5463 C   0  0  2  0  0  0
  -24.8726  -28.9277   20.1175 C   0  0  0  0  0  0
  -22.7520  -29.4531   22.4935 C   0  0  0  0  0  0
  -18.0287  -28.1349   22.8461 C   0  0  0  0  0  0
  -24.1501  -36.7259   23.2640 C   0  0  0  0  0  0
  -25.9743  -30.7720   21.3765 C   0  0  0  0  0  0
  -26.0482  -29.3993   20.7142 C   0  0  0  0  0  0
  -27.2274  -28.5904   20.7022 C   0  0  0  0  0  0
  -26.0186  -26.8662   19.5102 C   0  0  0  0  0  0
  -24.8623  -27.6678   19.5048 C   0  0  0  0  0  0
  -23.6442  -29.8140   20.1628 C   0  0  0  0  0  0
  -25.4120  -36.3037   24.0323 C   0  0  1  0  0  0
  -20.5897  -28.3629   23.1272 C   0  0  2  0  0  0
  -20.6779  -26.9367   22.5388 C   0  0  0  0  0  0
  -19.5765  -26.6349   21.5187 C   0  0  0  0  0  0
  -18.1937  -26.7889   22.1593 C   0  0  0  0  0  0
  -19.1546  -28.8818   23.2848 C   0  0  0  0  0  0
  -18.9465  -30.1430   23.8852 C   0  0  0  0  0  0
  -17.6466  -30.6558   24.0539 C   0  0  0  0  0  0
  -25.9059  -34.9411   23.5058 C   0  0  0  0  0  0
  -16.5350  -29.9034   23.6352 C   0  0  0  0  0  0
  -16.7268  -28.6466   23.0338 C   0  0  0  0  0  0
  -26.4514  -31.6569   25.0721 C   0  0  0  0  0  0
  -25.3724  -31.3739   26.1445 C   0  0  0  0  0  0
  -27.0391  -30.2999   24.6183 C   0  0  0  0  0  0
  -27.6048  -32.4344   25.7493 C   0  0  0  0  0  0
  -27.5568  -37.1787   24.8464 C   0  0  0  0  0  0
  -21.4224  -29.2998   22.3696 N   0  0  0  0  0  0
  -26.4295  -37.3734   23.9401 N   0  0  0  0  0  0
  -24.6979  -31.0507   22.0962 N   0  0  0  0  0  0
  -23.4242  -28.8004   23.2964 O   0  0  0  0  0  0
  -28.3314  -26.3984   20.1805 O   0  0  0  0  0  0
  -26.5631  -34.8889   22.4625 O   0  0  0  0  0  0
  -23.5472  -32.1317   23.7315 O   0  0  0  0  0  0
  -28.8541  -19.6513   22.3034 C   0  0  0  0  0  0
  -28.5217  -18.4487   22.9433 C   0  0  0  0  0  0
  -29.9533  -18.3683   20.5424 C   0  0  0  0  0  0
  -29.5971  -19.6697   21.1103 C   0  0  0  0  0  0
  -28.9053  -17.2008   22.4155 C   0  0  0  0  0  0
  -29.6162  -17.1046   21.1877 C   0  0  0  0  0  0
  -28.4918  -15.9670   23.1973 C   0  0  0  0  0  0
  -32.2090  -19.8380   23.0085 C   0  0  0  0  0  0
  -33.0968  -20.3270   20.6849 C   0  0  0  0  0  0
  -33.4350  -21.9361   22.5598 C   0  0  0  0  0  0
  -29.2499  -23.8431   20.3807 C   0  0  0  0  0  0
  -28.9039  -22.2539   20.4138 C   0  0  0  0  0  0
  -31.1327  -21.7058   21.5891 C   0  0  0  0  0  0
  -28.0858  -24.9215   20.1027 C   0  0  0  0  0  0
  -30.0543  -21.1153   20.6212 C   0  0  1  0  0  0
  -32.4414  -20.9287   21.9418 C   0  0  0  0  0  0
  -29.6634  -15.7483   20.5967 N   0  0  0  0  0  0
  -31.4918  -12.6167   19.1178 H   0  0  0  0  0  0
  -30.4429  -11.4550   19.8863 H   0  0  0  0  0  0
  -29.7851  -11.7360   17.4903 H   0  0  0  0  0  0
  -29.6321  -13.4614   17.6981 H   0  0  0  0  0  0
  -27.8902  -11.2748   18.8794 H   0  0  0  0  0  0
  -27.3736  -12.5350   17.7914 H   0  0  0  0  0  0
  -27.6606  -14.2356   19.5006 H   0  0  0  0  0  0
  -28.7562  -12.0322   21.3244 H   0  0  0  0  0  0
  -28.4544  -13.6521   21.8439 H   0  0  0  0  0  0
  -25.2761   -9.5670   22.4745 H   0  0  0  0  0  0
  -23.9994   -7.4629   22.7472 H   0  0  0  0  0  0
  -21.0842   -8.8761   19.8938 H   0  0  0  0  0  0
  -22.3705  -10.9655   19.6149 H   0  0  0  0  0  0
  -21.2003   -7.6139   23.9703 H   0  0  0  0  0  0
  -21.1484   -6.0522   25.9072 H   0  0  0  0  0  0
  -22.0601   -2.7601   23.2859 H   0  0  0  0  0  0
  -22.4142  -11.9832   22.4730 H   0  0  0  0  0  0
  -21.1127  -13.1189   22.2608 H   0  0  0  0  0  0
  -24.6587  -15.8363   20.5025 H   0  0  0  0  0  0
  -26.2678  -15.6262   20.0478 H   0  0  0  0  0  0
  -26.7190  -32.5370   23.1055 H   0  0  0  0  0  0
  -25.0239  -33.9685   25.0476 H   0  0  0  0  0  0
  -22.7241  -31.2970   21.4048 H   0  0  0  0  0  0
  -23.3762  -35.9595   23.3298 H   0  0  0  0  0  0
  -24.3608  -36.8884   22.2058 H   0  0  0  0  0  0
  -23.7283  -37.6467   23.6667 H   0  0  0  0  0  0
  -26.1166  -31.5321   20.6074 H   0  0  0  0  0  0
  -26.8504  -30.8124   22.0127 H   0  0  0  0  0  0
  -28.1306  -28.9537   21.1727 H   0  0  0  0  0  0
  -25.9288  -25.9026   19.0357 H   0  0  0  0  0  0
  -23.9606  -27.2978   19.0369 H   0  0  0  0  0  0
  -23.7675  -30.5912   19.4064 H   0  0  0  0  0  0
  -22.7610  -29.2473   19.8632 H   0  0  0  0  0  0
  -25.1310  -36.1886   25.0822 H   0  0  0  0  0  0
  -20.9963  -28.3167   24.1393 H   0  0  0  0  0  0
  -20.5687  -26.2217   23.3568 H   0  0  0  0  0  0
  -21.6637  -26.7380   22.1174 H   0  0  0  0  0  0
  -19.6937  -25.6259   21.1222 H   0  0  0  0  0  0
  -19.6725  -27.3155   20.6723 H   0  0  0  0  0  0
  -17.4215  -26.6634   21.3993 H   0  0  0  0  0  0
  -18.0314  -25.9995   22.8967 H   0  0  0  0  0  0
  -19.7942  -30.7252   24.2181 H   0  0  0  0  0  0
  -17.5019  -31.6246   24.5135 H   0  0  0  0  0  0
  -15.5346  -30.2927   23.7712 H   0  0  0  0  0  0
  -15.8651  -28.0798   22.7051 H   0  0  0  0  0  0
  -24.5885  -30.7109   25.7776 H   0  0  0  0  0  0
  -24.8955  -32.2932   26.4838 H   0  0  0  0  0  0
  -25.8020  -30.8933   27.0240 H   0  0  0  0  0  0
  -26.2985  -29.6748   24.1172 H   0  0  0  0  0  0
  -27.4092  -29.7250   25.4684 H   0  0  0  0  0  0
  -27.8830  -30.4319   23.9407 H   0  0  0  0  0  0
  -27.2622  -33.3664   26.2006 H   0  0  0  0  0  0
  -28.3874  -32.6881   25.0327 H   0  0  0  0  0  0
  -28.0686  -31.8525   26.5479 H   0  0  0  0  0  0
  -28.2556  -38.0098   24.7481 H   0  0  0  0  0  0
  -28.1097  -36.2621   24.6332 H   0  0  0  0  0  0
  -27.2280  -37.1466   25.8865 H   0  0  0  0  0  0
  -20.9412  -29.8743   21.6929 H   0  0  0  0  0  0
  -26.0162  -38.2807   24.1401 H   0  0  0  0  0  0
  -28.5655  -20.5814   22.7725 H   0  0  0  0  0  0
  -27.9557  -18.4944   23.8645 H   0  0  0  0  0  0
  -30.4819  -18.3392   19.6002 H   0  0  0  0  0  0
  -28.1684  -16.2306   24.2048 H   0  0  0  0  0  0
  -29.3263  -15.2732   23.3028 H   0  0  0  0  0  0
  -27.6550  -15.4728   22.7043 H   0  0  0  0  0  0
  -33.1509  -19.4354   23.3839 H   0  0  0  0  0  0
  -31.6509  -18.9901   22.6202 H   0  0  0  0  0  0
  -31.6564  -20.2302   23.8636 H   0  0  0  0  0  0
  -34.0842  -19.9198   20.9062 H   0  0  0  0  0  0
  -33.2204  -21.0778   19.9030 H   0  0  0  0  0  0
  -32.5019  -19.5161   20.2697 H   0  0  0  0  0  0
  -34.3627  -21.4548   22.8769 H   0  0  0  0  0  0
  -33.0103  -22.4274   23.4367 H   0  0  0  0  0  0
  -33.7060  -22.7202   21.8506 H   0  0  0  0  0  0
  -30.0389  -24.0086   19.6488 H   0  0  0  0  0  0
  -29.6920  -24.1062   21.3406 H   0  0  0  0  0  0
  -28.3566  -21.9982   19.5052 H   0  0  0  0  0  0
  -28.1716  -22.1439   21.2129 H   0  0  0  0  0  0
  -30.6439  -21.9816   22.5240 H   0  0  0  0  0  0
  -31.4534  -22.6530   21.1581 H   0  0  0  0  0  0
  -27.2741  -24.6951   20.7975 H   0  0  0  0  0  0
  -27.7074  -24.6972   19.1053 H   0  0  0  0  0  0
  -30.5394  -20.9764   19.6547 H   0  0  0  0  0  0
  -28.7500  -15.3249   20.6034 H   0  0  0  0  0  0
  1 25  1  0  0  0
  1 30  2  0  0  0
  1 87  1  0  0  0
  2  3  1  0  0  0
  2 25  1  0  0  0
  2 88  1  0  0  0
  2 89  1  0  0  0
  3  4  1  0  0  0
  3 90  1  0  0  0
  3 91  1  0  0  0
  4  5  1  0  0  0
  4 92  1  0  0  0
  4 93  1  0  0  0
  5  6  1  0  0  0
  5 26  1  0  0  0
  5 94  1  0  0  0
  6 25  1  0  0  0
  6 95  1  0  0  0
  6 96  1  0  0  0
  7  8  2  0  0  0
  7 26  1  0  0  0
  7 29  1  0  0  0
  8  9  1  0  0  0
  8 22  1  0  0  0
  9 10  1  0  0  0
  9 27  2  0  0  0
 10 11  2  0  0  0
 10 15  1  0  0  0
 11 12  1  0  0  0
 11 97  1  0  0  0
 12 13  2  0  0  0
 12 98  1  0  0  0
 13 14  1  0  0  0
 13 31  1  0  0  0
 14 15  2  0  0  0
 14 99  1  0  0  0
 15100  1  0  0  0
 16 17  2  0  0  0
 16 21  1  0  0  0
 16 31  1  0  0  0
 17 18  1  0  0  0
 17101  1  0  0  0
 18 19  2  0  0  0
 18102  1  0  0  0
 19 20  1  0  0  0
 19 24  1  0  0  0
 20 21  2  0  0  0
 20103  1  0  0  0
 21 23  1  0  0  0
 22 28  1  0  0  0
 22 32  2  0  0  0
 26 27  1  0  0  0
 28104  1  0  0  0
 28105  1  0  0  0
 29106  1  0  0  0
 29107  1  0  0  0
 33 34  1  0  0  0
 33 66  1  0  0  0
 33 70  2  0  0  0
 34 36  1  0  0  0
 34 59  1  0  0  0
 34108  1  0  0  0
 35 44  2  0  0  0
 35 45  1  0  0  0
 35 68  1  0  0  0
 36 56  1  0  0  0
 36109  1  0  0  0
 37 39  1  0  0  0
 37 47  1  0  0  0
 37 66  1  0  0  0
 37110  1  0  0  0
 38 43  2  0  0  0
 38 46  1  0  0  0
 38 47  1  0  0  0
 39 64  1  0  0  0
 39 67  2  0  0  0
 40 52  1  0  0  0
 40 53  2  0  0  0
 40 58  1  0  0  0
 41111  1  0  0  0
 41112  1  0  0  0
 41113  1  0  0  0
 41 48  1  0  0  0
 42 43  1  0  0  0
 42 66  1  0  0  0
 42114  1  0  0  0
 42115  1  0  0  0
 43 44  1  0  0  0
 44116  1  0  0  0
 45 46  2  0  0  0
 45117  1  0  0  0
 46118  1  0  0  0
 47119  1  0  0  0
 47120  1  0  0  0
 48 56  1  0  0  0
 48 65  1  0  0  0
 48121  1  0  0  0
 49 50  1  0  0  0
 49 53  1  0  0  0
 49 64  1  0  0  0
 49122  1  0  0  0
 50 51  1  0  0  0
 50123  1  0  0  0
 50124  1  0  0  0
 51 52  1  0  0  0
 51125  1  0  0  0
 51126  1  0  0  0
 52127  1  0  0  0
 52128  1  0  0  0
 53 54  1  0  0  0
 54 55  2  0  0  0
 54129  1  0  0  0
 55 57  1  0  0  0
 55130  1  0  0  0
 56 69  2  0  0  0
 57 58  2  0  0  0
 57131  1  0  0  0
 58132  1  0  0  0
 59 60  1  0  0  0
 59 61  1  0  0  0
 59 62  1  0  0  0
 60133  1  0  0  0
 60134  1  0  0  0
 60135  1  0  0  0
 61136  1  0  0  0
 61137  1  0  0  0
 61138  1  0  0  0
 62139  1  0  0  0
 62140  1  0  0  0
 62141  1  0  0  0
 63 65  1  0  0  0
 63142  1  0  0  0
 63143  1  0  0  0
 63144  1  0  0  0
 64145  1  0  0  0
 65146  1  0  0  0
 68 84  1  0  0  0
 71 72  2  0  0  0
 71 74  1  0  0  0
 71147  1  0  0  0
 72 75  1  0  0  0
 72148  1  0  0  0
 73 74  2  0  0  0
 73 76  1  0  0  0
 73149  1  0  0  0
 74 85  1  0  0  0
 75 76  2  0  0  0
 75 77  1  0  0  0
 76 87  1  0  0  0
 77150  1  0  0  0
 77151  1  0  0  0
 77152  1  0  0  0
 78153  1  0  0  0
 78154  1  0  0  0
 78155  1  0  0  0
 78 86  1  0  0  0
 79 86  1  0  0  0
 79156  1  0  0  0
 79157  1  0  0  0
 79158  1  0  0  0
 80 86  1  0  0  0
 80159  1  0  0  0
 80160  1  0  0  0
 80161  1  0  0  0
 81 82  1  0  0  0
 81 84  1  0  0  0
 81162  1  0  0  0
 81163  1  0  0  0
 82164  1  0  0  0
 82165  1  0  0  0
 82 85  1  0  0  0
 83 85  1  0  0  0
 83 86  1  0  0  0
 83166  1  0  0  0
 83167  1  0  0  0
 84168  1  0  0  0
 84169  1  0  0  0
 85170  1  0  0  0
 87171  1  0  0  0
M  ISO  4   1 100  68 101  84 101  87 100
M  END
> <chiral flag>
0

> <version>
0

> <s_m_source_file>
/data/baiqing/PycharmProjects/Reinvent-master-3.2/result/LINK_invent/BTK/process_docking_weight1_custom_product_contain_oxygen_bond_distance_aromatic_linkinvent_7_9_3/rearranged_h_0136.sdf

> <i_m_source_file_index>
28

> <r_mmod_Potential_Energy-OPLS-2005>
223.526260375977

> <r_mmod_Stretch_Energy-OPLS-2005>
124.048217773438

> <r_mmod_Bend_Energy-OPLS-2005>
191.622985839844

> <r_mmod_Torsional_Energy-OPLS-2005>
265.185272216797

> <r_mmod_Improper_Torsional_Energy-OPLS-2005>
13.3654518127441

> <r_mmod_Van_der_Waal_Energy-OPLS-2005>
139.479904174805

> <r_mmod_Electrostatic_Energy-OPLS-2005>
-395.163024902344

> <r_mmod_Solvation_Energy-OPLS-2005>
-190.353317260742

> <b_mmod_Minimization_Converged-OPLS-2005>
0

> <r_mmod_RMS_Derivative-OPLS-2005>
3.42793679237366

$$$$
28
                    3D
 Structure written by MMmdl.
169177  0  0  1  0            999 V2000
  -30.6173  -14.7362   20.4337 C   0  0  0  0  0  0
  -30.4469  -12.4203   19.5029 C   0  0  0  0  0  0
  -29.5263  -12.3949   18.2598 C   0  0  0  0  0  0
  -28.0355  -12.3190   18.6523 C   0  0  0  0  0  0
  -27.6463  -13.2271   19.8523 C   0  0  2  0  0  0
  -28.6908  -13.1637   20.9877 C   0  0  0  0  0  0
  -25.2535  -13.8192   20.5714 C   0  0  0  0  0  0
  -24.1813  -13.0445   20.9205 C   0  0  0  0  0  0
  -24.6396  -11.6921   20.8774 C   0  0  0  0  0  0
  -23.9073  -10.4297   21.0436 C   0  0  0  0  0  0
  -24.3625   -9.4200   21.9202 C   0  0  0  0  0  0
  -23.6295   -8.2245   22.0759 C   0  0  0  0  0  0
  -22.4278   -8.0293   21.3553 C   0  0  0  0  0  0
  -21.9919   -9.0269   20.4657 C   0  0  0  0  0  0
  -22.7259  -10.2139   20.3067 C   0  0  0  0  0  0
  -21.6844   -6.0744   22.5280 C   0  0  0  0  0  0
  -21.4021   -6.5637   23.8226 C   0  0  0  0  0  0
  -21.3660   -5.6783   24.9177 C   0  0  0  0  0  0
  -21.6036   -4.3045   24.7216 C   0  0  0  0  0  0
  -21.8828   -3.8147   23.4334 C   0  0  0  0  0  0
  -21.9196   -4.6970   22.3397 C   0  0  0  0  0  0
  -22.7833  -13.5236   21.1854 C   0  0  0  0  0  0
  -22.1666   -4.2168   21.0970 F   0  0  0  0  0  0
  -21.5622   -3.4524   25.7723 F   0  0  0  0  0  0
  -29.9987  -13.5040   20.4102 N   0  0  0  0  0  0
  -26.2967  -12.9394   20.3314 N   0  0  0  0  0  0
  -25.9325  -11.6541   20.5798 N   0  0  0  0  0  0
  -22.0469  -12.8238   22.0417 N   0  0  0  0  0  0
  -25.4219  -15.1926   20.4151 N   0  0  0  0  0  0
  -31.8007  -14.8385   20.1053 O   0  0  0  0  0  0
  -21.6637   -6.8888   21.4251 O   0  0  0  0  0  0
  -22.3520  -14.5532   20.6686 O   0  0  0  0  0  0
  -24.6318  -31.8547   23.1998 C   0  0  0  0  0  0
  -25.9145  -32.4742   23.8341 C   0  0  1  0  0  0
  -27.2249  -27.2624   20.1407 C   0  0  0  0  0  0
  -25.5949  -33.8542   24.2272 N   0  0  0  0  0  0
  -23.4283  -30.4783   21.5414 C   0  0  2  0  0  0
  -24.8774  -28.9274   20.1097 C   0  0  0  0  0  0
  -22.7509  -29.4582   22.4890 C   0  0  0  0  0  0
  -18.0297  -28.1393   22.8460 C   0  0  0  0  0  0
  -24.1479  -36.7270   23.2637 C   0  0  0  0  0  0
  -25.9729  -30.7699   21.3790 C   0  0  0  0  0  0
  -26.0470  -29.3910   20.7244 C   0  0  0  0  0  0
  -27.2197  -28.5708   20.7322 C   0  0  0  0  0  0
  -26.0386  -26.8793   19.4709 C   0  0  0  0  0  0
  -24.8784  -27.6785   19.4708 C   0  0  0  0  0  0
  -23.6489  -29.8148   20.1562 C   0  0  0  0  0  0
  -25.4104  -36.3054   24.0330 C   0  0  1  0  0  0
  -20.5899  -28.3698   23.1251 C   0  0  2  0  0  0
  -20.6779  -26.9405   22.5404 C   0  0  0  0  0  0
  -19.5763  -26.6373   21.5199 C   0  0  0  0  0  0
  -18.1942  -26.7928   22.1608 C   0  0  0  0  0  0
  -19.1548  -28.8860   23.2851 C   0  0  0  0  0  0
  -18.9474  -30.1458   23.8880 C   0  0  0  0  0  0
  -17.6471  -30.6571   24.0569 C   0  0  0  0  0  0
  -25.9052  -34.9424   23.5097 C   0  0  0  0  0  0
  -16.5360  -29.9069   23.6331 C   0  0  0  0  0  0
  -16.7283  -28.6498   23.0322 C   0  0  0  0  0  0
  -26.4519  -31.6558   25.0721 C   0  0  0  0  0  0
  -25.3753  -31.3711   26.1449 C   0  0  0  0  0  0
  -27.0367  -30.2973   24.6201 C   0  0  0  0  0  0
  -27.6074  -32.4289   25.7508 C   0  0  0  0  0  0
  -27.5565  -37.1792   24.8463 C   0  0  0  0  0  0
  -21.4214  -29.3037   22.3635 N   0  0  0  0  0  0
  -26.4275  -37.3757   23.9412 N   0  0  0  0  0  0
  -24.6961  -31.0519   22.0962 N   0  0  0  0  0  0
  -23.4203  -28.8115   23.2986 O   0  0  0  0  0  0
  -28.3212  -26.3695   20.2455 O   0  0  0  0  0  0
  -26.5609  -34.8904   22.4656 O   0  0  0  0  0  0
  -23.5466  -32.1363   23.7294 O   0  0  0  0  0  0
  -29.1700  -19.7000   18.7124 C   0  0  0  0  0  0
  -29.6874  -18.4523   20.7157 C   0  0  0  0  0  0
  -29.2241  -18.5118   17.9648 C   0  0  0  0  0  0
  -29.5305  -17.2635   18.5765 C   0  0  0  0  0  0
  -29.7530  -17.1849   19.9917 C   0  0  0  0  0  0
  -29.4142  -19.7435   20.0969 C   0  0  0  0  0  0
  -30.8921  -15.7968   16.9761 C   0  0  0  0  0  0
  -26.9594  -18.7735   14.7900 C   0  0  0  0  0  0
  -28.4561  -23.6548   22.1888 C   0  0  0  0  0  0
  -28.8684  -18.6487   16.4855 C   0  0  0  0  0  0
  -29.5427  -16.0257   17.6808 C   0  0  0  0  0  0
  -27.3561  -18.4996   16.2460 C   0  0  0  0  0  0
  -28.1528  -24.9010   19.9548 C   0  0  0  0  0  0
  -28.9019  -22.2466   20.0753 C   0  0  0  0  0  0
  -28.9511  -23.7256   20.7371 C   0  0  2  0  0  0
  -29.8381  -15.8602   20.6792 N   0  0  0  0  0  0
  -29.3662  -21.0027   20.7759 O   0  0  0  0  0  0
  -31.4858  -12.5430   19.1917 H   0  0  0  0  0  0
  -30.4080  -11.4633   20.0273 H   0  0  0  0  0  0
  -29.7756  -11.5291   17.6452 H   0  0  0  0  0  0
  -29.7214  -13.2423   17.6122 H   0  0  0  0  0  0
  -27.8367  -11.2780   18.9089 H   0  0  0  0  0  0
  -27.4053  -12.5399   17.7900 H   0  0  0  0  0  0
  -27.6333  -14.2487   19.4768 H   0  0  0  0  0  0
  -28.7164  -12.1675   21.4327 H   0  0  0  0  0  0
  -28.4260  -13.8508   21.7931 H   0  0  0  0  0  0
  -25.2779   -9.5664   22.4758 H   0  0  0  0  0  0
  -24.0014   -7.4620   22.7452 H   0  0  0  0  0  0
  -21.0862   -8.8801   19.8940 H   0  0  0  0  0  0
  -22.3754  -10.9681   19.6162 H   0  0  0  0  0  0
  -21.2025   -7.6144   23.9734 H   0  0  0  0  0  0
  -21.1466   -6.0503   25.9080 H   0  0  0  0  0  0
  -22.0608   -2.7611   23.2829 H   0  0  0  0  0  0
  -22.4061  -11.9900   22.4832 H   0  0  0  0  0  0
  -21.1080  -13.1276   22.2571 H   0  0  0  0  0  0
  -24.6547  -15.8460   20.5246 H   0  0  0  0  0  0
  -26.2736  -15.6371   20.0985 H   0  0  0  0  0  0
  -26.7205  -32.5414   23.1083 H   0  0  0  0  0  0
  -25.0131  -33.9683   25.0439 H   0  0  0  0  0  0
  -22.7251  -31.3005   21.3958 H   0  0  0  0  0  0
  -23.3740  -35.9604   23.3297 H   0  0  0  0  0  0
  -24.3571  -36.8896   22.2052 H   0  0  0  0  0  0
  -23.7240  -37.6474   23.6661 H   0  0  0  0  0  0
  -26.1077  -31.5268   20.6055 H   0  0  0  0  0  0
  -26.8533  -30.8255   22.0072 H   0  0  0  0  0  0
  -28.1100  -28.9160   21.2389 H   0  0  0  0  0  0
  -25.9710  -25.9382   18.9474 H   0  0  0  0  0  0
  -23.9862  -27.3207   18.9761 H   0  0  0  0  0  0
  -23.7814  -30.5934   19.4042 H   0  0  0  0  0  0
  -22.7675  -29.2528   19.8427 H   0  0  0  0  0  0
  -25.1276  -36.1903   25.0824 H   0  0  0  0  0  0
  -20.9997  -28.3289   24.1366 H   0  0  0  0  0  0
  -20.5651  -26.2304   23.3613 H   0  0  0  0  0  0
  -21.6655  -26.7405   22.1220 H   0  0  0  0  0  0
  -19.6919  -25.6280   21.1228 H   0  0  0  0  0  0
  -19.6698  -27.3178   20.6724 H   0  0  0  0  0  0
  -17.4200  -26.6649   21.4022 H   0  0  0  0  0  0
  -18.0349  -26.0087   22.9022 H   0  0  0  0  0  0
  -19.7958  -30.7277   24.2235 H   0  0  0  0  0  0
  -17.5024  -31.6245   24.5187 H   0  0  0  0  0  0
  -15.5357  -30.2958   23.7677 H   0  0  0  0  0  0
  -15.8685  -28.0823   22.7018 H   0  0  0  0  0  0
  -24.5938  -30.7036   25.7797 H   0  0  0  0  0  0
  -24.8932  -32.2878   26.4852 H   0  0  0  0  0  0
  -25.8089  -30.8919   27.0238 H   0  0  0  0  0  0
  -26.2947  -29.6706   24.1237 H   0  0  0  0  0  0
  -27.4066  -29.7246   25.4720 H   0  0  0  0  0  0
  -27.8815  -30.4242   23.9428 H   0  0  0  0  0  0
  -27.2688  -33.3601   26.2066 H   0  0  0  0  0  0
  -28.3913  -32.6825   25.0356 H   0  0  0  0  0  0
  -28.0704  -31.8417   26.5453 H   0  0  0  0  0  0
  -28.2576  -38.0091   24.7499 H   0  0  0  0  0  0
  -28.1063  -36.2622   24.6290 H   0  0  0  0  0  0
  -27.2283  -37.1452   25.8867 H   0  0  0  0  0  0
  -20.9393  -29.8779   21.6864 H   0  0  0  0  0  0
  -26.0144  -38.2823   24.1440 H   0  0  0  0  0  0
  -28.9112  -20.5941   18.1695 H   0  0  0  0  0  0
  -29.8339  -18.4284   21.7866 H   0  0  0  0  0  0
  -30.8568  -14.9131   16.3385 H   0  0  0  0  0  0
  -31.7072  -15.6572   17.6836 H   0  0  0  0  0  0
  -31.1654  -16.6383   16.3420 H   0  0  0  0  0  0
  -25.9005  -18.5675   14.6272 H   0  0  0  0  0  0
  -27.5267  -18.1505   14.0977 H   0  0  0  0  0  0
  -27.1376  -19.8168   14.5278 H   0  0  0  0  0  0
  -28.4825  -24.6370   22.6617 H   0  0  0  0  0  0
  -29.0790  -22.9859   22.7838 H   0  0  0  0  0  0
  -27.4311  -23.2859   22.2384 H   0  0  0  0  0  0
  -29.4227  -17.9472   15.8660 H   0  0  0  0  0  0
  -29.1912  -19.6301   16.1365 H   0  0  0  0  0  0
  -28.7591  -16.0843   16.9294 H   0  0  0  0  0  0
  -29.2375  -15.1650   18.2520 H   0  0  0  0  0  0
  -27.0319  -17.4983   16.5293 H   0  0  0  0  0  0
  -26.8122  -19.1874   16.8948 H   0  0  0  0  0  0
  -27.1095  -24.6231   20.0880 H   0  0  0  0  0  0
  -28.3538  -24.7823   18.8896 H   0  0  0  0  0  0
  -29.4838  -22.3433   19.1593 H   0  0  0  0  0  0
  -27.8722  -22.0570   19.7704 H   0  0  0  0  0  0
  -30.0013  -24.0185   20.7677 H   0  0  0  0  0  0
  -29.0072  -15.6322   21.2059 H   0  0  0  0  0  0
  1 25  1  0  0  0
  1 30  2  0  0  0
  1 86  1  0  0  0
  2  3  1  0  0  0
  2 25  1  0  0  0
  2 88  1  0  0  0
  2 89  1  0  0  0
  3  4  1  0  0  0
  3 90  1  0  0  0
  3 91  1  0  0  0
  4  5  1  0  0  0
  4 92  1  0  0  0
  4 93  1  0  0  0
  5  6  1  0  0  0
  5 26  1  0  0  0
  5 94  1  0  0  0
  6 25  1  0  0  0
  6 95  1  0  0  0
  6 96  1  0  0  0
  7  8  2  0  0  0
  7 26  1  0  0  0
  7 29  1  0  0  0
  8  9  1  0  0  0
  8 22  1  0  0  0
  9 10  1  0  0  0
  9 27  2  0  0  0
 10 11  2  0  0  0
 10 15  1  0  0  0
 11 12  1  0  0  0
 11 97  1  0  0  0
 12 13  2  0  0  0
 12 98  1  0  0  0
 13 14  1  0  0  0
 13 31  1  0  0  0
 14 15  2  0  0  0
 14 99  1  0  0  0
 15100  1  0  0  0
 16 17  2  0  0  0
 16 21  1  0  0  0
 16 31  1  0  0  0
 17 18  1  0  0  0
 17101  1  0  0  0
 18 19  2  0  0  0
 18102  1  0  0  0
 19 20  1  0  0  0
 19 24  1  0  0  0
 20 21  2  0  0  0
 20103  1  0  0  0
 21 23  1  0  0  0
 22 28  1  0  0  0
 22 32  2  0  0  0
 26 27  1  0  0  0
 28104  1  0  0  0
 28105  1  0  0  0
 29106  1  0  0  0
 29107  1  0  0  0
 33 34  1  0  0  0
 33 66  1  0  0  0
 33 70  2  0  0  0
 34 36  1  0  0  0
 34 59  1  0  0  0
 34108  1  0  0  0
 35 44  2  0  0  0
 35 45  1  0  0  0
 35 68  1  0  0  0
 36 56  1  0  0  0
 36109  1  0  0  0
 37 39  1  0  0  0
 37 47  1  0  0  0
 37 66  1  0  0  0
 37110  1  0  0  0
 38 43  2  0  0  0
 38 46  1  0  0  0
 38 47  1  0  0  0
 39 64  1  0  0  0
 39 67  2  0  0  0
 40 52  1  0  0  0
 40 53  2  0  0  0
 40 58  1  0  0  0
 41111  1  0  0  0
 41112  1  0  0  0
 41113  1  0  0  0
 41 48  1  0  0  0
 42 43  1  0  0  0
 42 66  1  0  0  0
 42114  1  0  0  0
 42115  1  0  0  0
 43 44  1  0  0  0
 44116  1  0  0  0
 45 46  2  0  0  0
 45117  1  0  0  0
 46118  1  0  0  0
 47119  1  0  0  0
 47120  1  0  0  0
 48 56  1  0  0  0
 48 65  1  0  0  0
 48121  1  0  0  0
 49 50  1  0  0  0
 49 53  1  0  0  0
 49 64  1  0  0  0
 49122  1  0  0  0
 50 51  1  0  0  0
 50123  1  0  0  0
 50124  1  0  0  0
 51 52  1  0  0  0
 51125  1  0  0  0
 51126  1  0  0  0
 52127  1  0  0  0
 52128  1  0  0  0
 53 54  1  0  0  0
 54 55  2  0  0  0
 54129  1  0  0  0
 55 57  1  0  0  0
 55130  1  0  0  0
 56 69  2  0  0  0
 57 58  2  0  0  0
 57131  1  0  0  0
 58132  1  0  0  0
 59 60  1  0  0  0
 59 61  1  0  0  0
 59 62  1  0  0  0
 60133  1  0  0  0
 60134  1  0  0  0
 60135  1  0  0  0
 61136  1  0  0  0
 61137  1  0  0  0
 61138  1  0  0  0
 62139  1  0  0  0
 62140  1  0  0  0
 62141  1  0  0  0
 63 65  1  0  0  0
 63142  1  0  0  0
 63143  1  0  0  0
 63144  1  0  0  0
 64145  1  0  0  0
 65146  1  0  0  0
 68 83  1  0  0  0
 71 73  2  0  0  0
 71 76  1  0  0  0
 71147  1  0  0  0
 72 75  1  0  0  0
 72 76  2  0  0  0
 72148  1  0  0  0
 73 74  1  0  0  0
 73 80  1  0  0  0
 74 75  2  0  0  0
 74 81  1  0  0  0
 75 86  1  0  0  0
 76 87  1  0  0  0
 77 81  1  0  0  0
 77149  1  0  0  0
 77150  1  0  0  0
 77151  1  0  0  0
 78 82  1  0  0  0
 78152  1  0  0  0
 78153  1  0  0  0
 78154  1  0  0  0
 79155  1  0  0  0
 79156  1  0  0  0
 79157  1  0  0  0
 79 85  1  0  0  0
 80 82  1  0  0  0
 80158  1  0  0  0
 80159  1  0  0  0
 81160  1  0  0  0
 81161  1  0  0  0
 82162  1  0  0  0
 82163  1  0  0  0
 83 85  1  0  0  0
 83164  1  0  0  0
 83165  1  0  0  0
 84 85  1  0  0  0
 84 87  1  0  0  0
 84166  1  0  0  0
 84167  1  0  0  0
 85168  1  0  0  0
 86169  1  0  0  0
M  ISO  4   1 100  68 101  83 101  86 100
M  END
> <chiral flag>
0

> <version>
0

> <s_m_source_file>
/data/baiqing/PycharmProjects/Reinvent-master-3.2/result/LINK_invent/BTK/process_docking_weight1_custom_product_contain_oxygen_bond_distance_aromatic_linkinvent_7_9_3/rearranged_h_0136.sdf

> <i_m_source_file_index>
29

> <r_mmod_Potential_Energy-OPLS-2005>
239.573638916016

> <r_mmod_Stretch_Energy-OPLS-2005>
132.667999267578

> <r_mmod_Bend_Energy-OPLS-2005>
175.389205932617

> <r_mmod_Torsional_Energy-OPLS-2005>
257.900421142578

> <r_mmod_Improper_Torsional_Energy-OPLS-2005>
5.56265640258789

> <r_mmod_Van_der_Waal_Energy-OPLS-2005>
151.304077148438

> <r_mmod_Electrostatic_Energy-OPLS-2005>
-365.258026123047

> <r_mmod_Solvation_Energy-OPLS-2005>
-205.461990356445

> <b_mmod_Minimization_Converged-OPLS-2005>
0

> <r_mmod_RMS_Derivative-OPLS-2005>
2.22673344612122

$$$$
29
                    3D
 Structure written by MMmdl.
179187  0  0  1  0            999 V2000
  -30.7260  -14.5129   20.5738 C   0  0  0  0  0  0
  -30.4178  -12.3363   19.4326 C   0  0  0  0  0  0
  -29.4914  -12.4814   18.2096 C   0  0  0  0  0  0
  -28.0132  -12.3474   18.6257 C   0  0  0  0  0  0
  -27.6485  -13.2058   19.8678 C   0  0  2  0  0  0
  -28.6973  -13.0526   20.9908 C   0  0  0  0  0  0
  -25.2563  -13.8170   20.5721 C   0  0  0  0  0  0
  -24.1814  -13.0436   20.9204 C   0  0  0  0  0  0
  -24.6376  -11.6902   20.8760 C   0  0  0  0  0  0
  -23.9048  -10.4287   21.0415 C   0  0  0  0  0  0
  -24.3606   -9.4207   21.9190 C   0  0  0  0  0  0
  -23.6287   -8.2241   22.0760 C   0  0  0  0  0  0
  -22.4276   -8.0283   21.3543 C   0  0  0  0  0  0
  -21.9907   -9.0250   20.4641 C   0  0  0  0  0  0
  -22.7226  -10.2129   20.3059 C   0  0  0  0  0  0
  -21.6852   -6.0737   22.5278 C   0  0  0  0  0  0
  -21.4005   -6.5641   23.8211 C   0  0  0  0  0  0
  -21.3655   -5.6795   24.9170 C   0  0  0  0  0  0
  -21.6046   -4.3061   24.7220 C   0  0  0  0  0  0
  -21.8820   -3.8150   23.4342 C   0  0  0  0  0  0
  -21.9191   -4.6964   22.3394 C   0  0  0  0  0  0
  -22.7833  -13.5229   21.1842 C   0  0  0  0  0  0
  -22.1667   -4.2150   21.0969 F   0  0  0  0  0  0
  -21.5624   -3.4543   25.7734 F   0  0  0  0  0  0
  -30.0187  -13.3547   20.4198 N   0  0  0  0  0  0
  -26.2969  -12.9308   20.3390 N   0  0  0  0  0  0
  -25.9290  -11.6476   20.5781 N   0  0  0  0  0  0
  -22.0457  -12.8221   22.0394 N   0  0  0  0  0  0
  -25.4310  -15.1895   20.4162 N   0  0  0  0  0  0
  -31.8632  -14.6527   20.1147 O   0  0  0  0  0  0
  -21.6642   -6.8880   21.4241 O   0  0  0  0  0  0
  -22.3519  -14.5520   20.6670 O   0  0  0  0  0  0
  -24.6173  -31.8668   23.2071 C   0  0  0  0  0  0
  -25.9063  -32.4814   23.8374 C   0  0  1  0  0  0
  -27.2292  -27.4144   20.1047 C   0  0  0  0  0  0
  -25.5918  -33.8605   24.2320 N   0  0  0  0  0  0
  -23.4066  -30.4907   21.5471 C   0  0  2  0  0  0
  -24.8536  -28.9557   20.1105 C   0  0  0  0  0  0
  -22.7420  -29.4667   22.4955 C   0  0  0  0  0  0
  -18.0274  -28.1396   22.8481 C   0  0  0  0  0  0
  -24.1489  -36.7301   23.2637 C   0  0  0  0  0  0
  -25.9367  -30.8322   21.3576 C   0  0  0  0  0  0
  -26.0170  -29.4645   20.7030 C   0  0  0  0  0  0
  -27.2133  -28.7048   20.6906 C   0  0  0  0  0  0
  -26.0514  -26.9245   19.5044 C   0  0  0  0  0  0
  -24.8680  -27.6879   19.5024 C   0  0  0  0  0  0
  -23.6138  -29.8222   20.1622 C   0  0  0  0  0  0
  -25.4116  -36.3091   24.0321 C   0  0  1  0  0  0
  -20.5867  -28.3694   23.1291 C   0  0  2  0  0  0
  -20.6769  -26.9427   22.5409 C   0  0  0  0  0  0
  -19.5754  -26.6401   21.5203 C   0  0  0  0  0  0
  -18.1926  -26.7943   22.1611 C   0  0  0  0  0  0
  -19.1526  -28.8857   23.2885 C   0  0  0  0  0  0
  -18.9456  -30.1450   23.8917 C   0  0  0  0  0  0
  -17.6460  -30.6594   24.0565 C   0  0  0  0  0  0
  -25.9037  -34.9459   23.5113 C   0  0  0  0  0  0
  -16.5348  -29.9099   23.6333 C   0  0  0  0  0  0
  -16.7262  -28.6514   23.0358 C   0  0  0  0  0  0
  -26.4499  -31.6593   25.0703 C   0  0  0  0  0  0
  -25.3744  -31.3655   26.1421 C   0  0  0  0  0  0
  -27.0364  -30.3047   24.6074 C   0  0  0  0  0  0
  -27.6055  -32.4325   25.7488 C   0  0  0  0  0  0
  -27.5579  -37.1807   24.8468 C   0  0  0  0  0  0
  -21.4142  -29.3054   22.3687 N   0  0  0  0  0  0
  -26.4299  -37.3780   23.9392 N   0  0  0  0  0  0
  -24.6720  -31.0756   22.0971 N   0  0  0  0  0  0
  -23.4183  -28.8201   23.3002 O   0  0  0  0  0  0
  -28.3631  -26.6265   20.1242 O   0  0  0  0  0  0
  -26.5608  -34.8925   22.4681 O   0  0  0  0  0  0
  -23.5363  -32.1426   23.7455 O   0  0  0  0  0  0
  -29.0506  -16.4047   19.0438 C   0  0  0  0  0  0
  -29.2759  -17.9656   20.8753 C   0  0  0  0  0  0
  -28.0506  -18.6390   18.8688 C   0  0  0  0  0  0
  -28.3162  -17.3555   18.3149 C   0  0  0  0  0  0
  -29.4868  -16.6477   20.3627 C   0  0  0  0  0  0
  -28.6147  -18.9903   20.1360 C   0  0  0  0  0  0
  -27.1322  -19.5405   18.1202 C   0  0  0  0  0  0
  -26.8914  -22.5922   21.3859 C   0  0  0  0  0  0
  -27.7721  -16.9217   16.9564 C   0  0  0  0  0  0
  -25.7403  -19.7148   18.7082 C   0  0  0  0  0  0
  -25.7590  -19.8821   22.6868 C   0  0  0  0  0  0
  -26.5446  -23.5897   23.6658 C   0  0  0  0  0  0
  -30.4652  -15.8573   22.5353 C   0  0  0  0  0  0
  -25.5116  -21.3235   23.1566 C   0  0  0  0  0  0
  -28.5104  -24.0863   20.0759 C   0  0  0  0  0  0
  -28.2333  -25.3967   20.8764 C   0  0  0  0  0  0
  -28.7582  -21.4749   20.0772 C   0  0  0  0  0  0
  -26.6972  -22.2774   22.8793 C   0  0  1  0  0  0
  -28.3349  -22.7462   20.8820 C   0  0  2  0  0  0
  -30.0919  -15.5789   21.1448 N   0  0  0  0  0  0
  -27.4255  -20.0955   17.0579 O   0  0  0  0  0  0
  -25.9286  -22.7499   20.6300 O   0  0  0  0  0  0
  -28.4693  -20.2294   20.7663 O   0  0  0  0  0  0
  -31.4609  -12.4279   19.1254 H   0  0  0  0  0  0
  -30.3274  -11.3404   19.8684 H   0  0  0  0  0  0
  -29.7360  -11.7234   17.4650 H   0  0  0  0  0  0
  -29.6589  -13.4427   17.7246 H   0  0  0  0  0  0
  -27.8288  -11.2939   18.8402 H   0  0  0  0  0  0
  -27.3640  -12.6040   17.7875 H   0  0  0  0  0  0
  -27.6549  -14.2396   19.5403 H   0  0  0  0  0  0
  -28.6890  -12.0367   21.3890 H   0  0  0  0  0  0
  -28.4551  -13.7047   21.8314 H   0  0  0  0  0  0
  -25.2747   -9.5688   22.4772 H   0  0  0  0  0  0
  -23.9995   -7.4637   22.7485 H   0  0  0  0  0  0
  -21.0844   -8.8756   19.8941 H   0  0  0  0  0  0
  -22.3685  -10.9671   19.6172 H   0  0  0  0  0  0
  -21.2000   -7.6153   23.9715 H   0  0  0  0  0  0
  -21.1480   -6.0523   25.9074 H   0  0  0  0  0  0
  -22.0608   -2.7613   23.2838 H   0  0  0  0  0  0
  -22.4055  -11.9887   22.4806 H   0  0  0  0  0  0
  -21.1066  -13.1232   22.2579 H   0  0  0  0  0  0
  -24.6689  -15.8473   20.5373 H   0  0  0  0  0  0
  -26.2987  -15.6312   20.1395 H   0  0  0  0  0  0
  -26.7125  -32.5536   23.1135 H   0  0  0  0  0  0
  -25.0071  -33.9751   25.0465 H   0  0  0  0  0  0
  -22.6957  -31.3077   21.4068 H   0  0  0  0  0  0
  -23.3751  -35.9638   23.3311 H   0  0  0  0  0  0
  -24.3564  -36.8921   22.2050 H   0  0  0  0  0  0
  -23.7243  -37.6497   23.6673 H   0  0  0  0  0  0
  -26.0445  -31.5997   20.5891 H   0  0  0  0  0  0
  -26.8237  -30.8891   21.9760 H   0  0  0  0  0  0
  -28.1133  -29.0918   21.1498 H   0  0  0  0  0  0
  -26.0459  -25.9457   19.0444 H   0  0  0  0  0  0
  -23.9745  -27.2940   19.0383 H   0  0  0  0  0  0
  -23.7135  -30.5968   19.4005 H   0  0  0  0  0  0
  -22.7396  -29.2379   19.8714 H   0  0  0  0  0  0
  -25.1295  -36.1956   25.0813 H   0  0  0  0  0  0
  -20.9970  -28.3291   24.1405 H   0  0  0  0  0  0
  -20.5696  -26.2295   23.3595 H   0  0  0  0  0  0
  -21.6636  -26.7476   22.1198 H   0  0  0  0  0  0
  -19.6924  -25.6317   21.1231 H   0  0  0  0  0  0
  -19.6704  -27.3198   20.6722 H   0  0  0  0  0  0
  -17.4202  -26.6690   21.4008 H   0  0  0  0  0  0
  -18.0325  -26.0077   22.9003 H   0  0  0  0  0  0
  -19.7930  -30.7244   24.2328 H   0  0  0  0  0  0
  -17.5024  -31.6279   24.5170 H   0  0  0  0  0  0
  -15.5360  -30.3021   23.7643 H   0  0  0  0  0  0
  -15.8651  -28.0832   22.7097 H   0  0  0  0  0  0
  -24.5969  -30.6962   25.7721 H   0  0  0  0  0  0
  -24.8870  -32.2783   26.4853 H   0  0  0  0  0  0
  -25.8082  -30.8838   27.0189 H   0  0  0  0  0  0
  -26.2913  -29.6752   24.1198 H   0  0  0  0  0  0
  -27.4226  -29.7331   25.4523 H   0  0  0  0  0  0
  -27.8702  -30.4379   23.9168 H   0  0  0  0  0  0
  -27.2680  -33.3639   26.2047 H   0  0  0  0  0  0
  -28.3896  -32.6858   25.0338 H   0  0  0  0  0  0
  -28.0703  -31.8463   26.5425 H   0  0  0  0  0  0
  -28.2599  -38.0106   24.7524 H   0  0  0  0  0  0
  -28.1074  -36.2629   24.6314 H   0  0  0  0  0  0
  -27.2277  -37.1479   25.8867 H   0  0  0  0  0  0
  -20.9308  -29.8747   21.6874 H   0  0  0  0  0  0
  -26.0189  -38.2854   24.1403 H   0  0  0  0  0  0
  -29.2199  -15.4456   18.5831 H   0  0  0  0  0  0
  -29.6214  -18.2199   21.8661 H   0  0  0  0  0  0
  -28.0882  -15.9119   16.6941 H   0  0  0  0  0  0
  -28.1183  -17.5868   16.1646 H   0  0  0  0  0  0
  -26.6815  -16.9219   16.9572 H   0  0  0  0  0  0
  -25.5745  -18.9989   19.5120 H   0  0  0  0  0  0
  -24.9850  -19.5451   17.9418 H   0  0  0  0  0  0
  -25.6161  -20.7215   19.1031 H   0  0  0  0  0  0
  -24.9380  -19.2272   22.9795 H   0  0  0  0  0  0
  -26.6762  -19.4750   23.1165 H   0  0  0  0  0  0
  -25.8467  -19.8295   21.6036 H   0  0  0  0  0  0
  -27.4162  -24.2324   23.5386 H   0  0  0  0  0  0
  -26.4445  -23.3976   24.7341 H   0  0  0  0  0  0
  -25.6652  -24.1525   23.3462 H   0  0  0  0  0  0
  -29.6047  -16.2156   23.1019 H   0  0  0  0  0  0
  -31.2485  -16.6154   22.5769 H   0  0  0  0  0  0
  -30.8457  -14.9735   23.0540 H   0  0  0  0  0  0
  -25.3112  -21.3020   24.2287 H   0  0  0  0  0  0
  -24.6005  -21.7057   22.6935 H   0  0  0  0  0  0
  -29.5300  -24.1307   19.6946 H   0  0  0  0  0  0
  -27.8695  -24.0627   19.1941 H   0  0  0  0  0  0
  -28.9453  -25.4514   21.6995 H   0  0  0  0  0  0
  -27.2534  -25.3425   21.3535 H   0  0  0  0  0  0
  -29.8338  -21.5180   19.9009 H   0  0  0  0  0  0
  -28.3016  -21.5523   19.0984 H   0  0  0  0  0  0
  -27.6079  -21.7896   23.2291 H   0  0  0  0  0  0
  -28.9731  -22.8012   21.7635 H   0  0  0  0  0  0
  1 25  1  0  0  0
  1 30  2  0  0  0
  1 90  1  0  0  0
  2  3  1  0  0  0
  2 25  1  0  0  0
  2 94  1  0  0  0
  2 95  1  0  0  0
  3  4  1  0  0  0
  3 96  1  0  0  0
  3 97  1  0  0  0
  4  5  1  0  0  0
  4 98  1  0  0  0
  4 99  1  0  0  0
  5  6  1  0  0  0
  5 26  1  0  0  0
  5100  1  0  0  0
  6 25  1  0  0  0
  6101  1  0  0  0
  6102  1  0  0  0
  7  8  2  0  0  0
  7 26  1  0  0  0
  7 29  1  0  0  0
  8  9  1  0  0  0
  8 22  1  0  0  0
  9 10  1  0  0  0
  9 27  2  0  0  0
 10 11  2  0  0  0
 10 15  1  0  0  0
 11 12  1  0  0  0
 11103  1  0  0  0
 12 13  2  0  0  0
 12104  1  0  0  0
 13 14  1  0  0  0
 13 31  1  0  0  0
 14 15  2  0  0  0
 14105  1  0  0  0
 15106  1  0  0  0
 16 17  2  0  0  0
 16 21  1  0  0  0
 16 31  1  0  0  0
 17 18  1  0  0  0
 17107  1  0  0  0
 18 19  2  0  0  0
 18108  1  0  0  0
 19 20  1  0  0  0
 19 24  1  0  0  0
 20 21  2  0  0  0
 20109  1  0  0  0
 21 23  1  0  0  0
 22 28  1  0  0  0
 22 32  2  0  0  0
 26 27  1  0  0  0
 28110  1  0  0  0
 28111  1  0  0  0
 29112  1  0  0  0
 29113  1  0  0  0
 33 34  1  0  0  0
 33 66  1  0  0  0
 33 70  2  0  0  0
 34 36  1  0  0  0
 34 59  1  0  0  0
 34114  1  0  0  0
 35 44  2  0  0  0
 35 45  1  0  0  0
 35 68  1  0  0  0
 36 56  1  0  0  0
 36115  1  0  0  0
 37 39  1  0  0  0
 37 47  1  0  0  0
 37 66  1  0  0  0
 37116  1  0  0  0
 38 43  2  0  0  0
 38 46  1  0  0  0
 38 47  1  0  0  0
 39 64  1  0  0  0
 39 67  2  0  0  0
 40 52  1  0  0  0
 40 53  2  0  0  0
 40 58  1  0  0  0
 41117  1  0  0  0
 41118  1  0  0  0
 41119  1  0  0  0
 41 48  1  0  0  0
 42 43  1  0  0  0
 42 66  1  0  0  0
 42120  1  0  0  0
 42121  1  0  0  0
 43 44  1  0  0  0
 44122  1  0  0  0
 45 46  2  0  0  0
 45123  1  0  0  0
 46124  1  0  0  0
 47125  1  0  0  0
 47126  1  0  0  0
 48 56  1  0  0  0
 48 65  1  0  0  0
 48127  1  0  0  0
 49 50  1  0  0  0
 49 53  1  0  0  0
 49 64  1  0  0  0
 49128  1  0  0  0
 50 51  1  0  0  0
 50129  1  0  0  0
 50130  1  0  0  0
 51 52  1  0  0  0
 51131  1  0  0  0
 51132  1  0  0  0
 52133  1  0  0  0
 52134  1  0  0  0
 53 54  1  0  0  0
 54 55  2  0  0  0
 54135  1  0  0  0
 55 57  1  0  0  0
 55136  1  0  0  0
 56 69  2  0  0  0
 57 58  2  0  0  0
 57137  1  0  0  0
 58138  1  0  0  0
 59 60  1  0  0  0
 59 61  1  0  0  0
 59 62  1  0  0  0
 60139  1  0  0  0
 60140  1  0  0  0
 60141  1  0  0  0
 61142  1  0  0  0
 61143  1  0  0  0
 61144  1  0  0  0
 62145  1  0  0  0
 62146  1  0  0  0
 62147  1  0  0  0
 63 65  1  0  0  0
 63148  1  0  0  0
 63149  1  0  0  0
 63150  1  0  0  0
 64151  1  0  0  0
 65152  1  0  0  0
 68 86  1  0  0  0
 71 74  2  0  0  0
 71 75  1  0  0  0
 71153  1  0  0  0
 72 75  2  0  0  0
 72 76  1  0  0  0
 72154  1  0  0  0
 73 74  1  0  0  0
 73 76  2  0  0  0
 73 77  1  0  0  0
 74 79  1  0  0  0
 75 90  1  0  0  0
 76 93  1  0  0  0
 77 80  1  0  0  0
 77 91  2  0  0  0
 78 88  1  0  0  0
 78 89  1  0  0  0
 78 92  2  0  0  0
 79155  1  0  0  0
 79156  1  0  0  0
 79157  1  0  0  0
 80158  1  0  0  0
 80159  1  0  0  0
 80160  1  0  0  0
 81 84  1  0  0  0
 81161  1  0  0  0
 81162  1  0  0  0
 81163  1  0  0  0
 82164  1  0  0  0
 82165  1  0  0  0
 82166  1  0  0  0
 82 88  1  0  0  0
 83 90  1  0  0  0
 83167  1  0  0  0
 83168  1  0  0  0
 83169  1  0  0  0
 84 88  1  0  0  0
 84170  1  0  0  0
 84171  1  0  0  0
 85 86  1  0  0  0
 85172  1  0  0  0
 85173  1  0  0  0
 85 89  1  0  0  0
 86174  1  0  0  0
 86175  1  0  0  0
 87 89  1  0  0  0
 87 93  1  0  0  0
 87176  1  0  0  0
 87177  1  0  0  0
 88178  1  0  0  0
 89179  1  0  0  0
M  ISO  4   1 100  68 101  86 101  90 100
M  END
> <chiral flag>
0

> <version>
0

> <s_m_source_file>
/data/baiqing/PycharmProjects/Reinvent-master-3.2/result/LINK_invent/BTK/process_docking_weight1_custom_product_contain_oxygen_bond_distance_aromatic_linkinvent_7_9_3/rearranged_h_0136.sdf

> <i_m_source_file_index>
30

> <r_mmod_Potential_Energy-OPLS-2005>
244.522705078125

> <r_mmod_Stretch_Energy-OPLS-2005>
56.5831298828125

> <r_mmod_Bend_Energy-OPLS-2005>
120.1533203125

> <r_mmod_Torsional_Energy-OPLS-2005>
365.075073242188

> <r_mmod_Improper_Torsional_Energy-OPLS-2005>
4.42855596542358

> <r_mmod_Van_der_Waal_Energy-OPLS-2005>
140.383544921875

> <r_mmod_Electrostatic_Energy-OPLS-2005>
-263.149017333984

> <r_mmod_Solvation_Energy-OPLS-2005>
-198.555099487305

> <b_mmod_Minimization_Converged-OPLS-2005>
0

> <r_mmod_RMS_Derivative-OPLS-2005>
2.33729600906372

$$$$
30
                    3D
 Structure written by MMmdl.
168176  0  0  1  0            999 V2000
  -30.6975  -14.4697   20.5954 C   0  0  0  0  0  0
  -30.4294  -12.3091   19.4258 C   0  0  0  0  0  0
  -29.5004  -12.5125   18.2107 C   0  0  0  0  0  0
  -28.0216  -12.3690   18.6206 C   0  0  0  0  0  0
  -27.6667  -13.2041   19.8796 C   0  0  2  0  0  0
  -28.7055  -12.9694   20.9999 C   0  0  0  0  0  0
  -25.2586  -13.8133   20.5624 C   0  0  0  0  0  0
  -24.1841  -13.0424   20.9167 C   0  0  0  0  0  0
  -24.6395  -11.6891   20.8728 C   0  0  0  0  0  0
  -23.9054  -10.4280   21.0401 C   0  0  0  0  0  0
  -24.3605   -9.4199   21.9184 C   0  0  0  0  0  0
  -23.6283   -8.2235   22.0753 C   0  0  0  0  0  0
  -22.4263   -8.0274   21.3549 C   0  0  0  0  0  0
  -21.9899   -9.0245   20.4651 C   0  0  0  0  0  0
  -22.7219  -10.2130   20.3054 C   0  0  0  0  0  0
  -21.6848   -6.0727   22.5281 C   0  0  0  0  0  0
  -21.4007   -6.5637   23.8211 C   0  0  0  0  0  0
  -21.3659   -5.6792   24.9177 C   0  0  0  0  0  0
  -21.6046   -4.3057   24.7224 C   0  0  0  0  0  0
  -21.8816   -3.8142   23.4348 C   0  0  0  0  0  0
  -21.9187   -4.6956   22.3401 C   0  0  0  0  0  0
  -22.7864  -13.5235   21.1836 C   0  0  0  0  0  0
  -22.1662   -4.2143   21.0980 F   0  0  0  0  0  0
  -21.5626   -3.4545   25.7743 F   0  0  0  0  0  0
  -30.0431  -13.2823   20.4609 N   0  0  0  0  0  0
  -26.3046  -12.9314   20.3369 N   0  0  0  0  0  0
  -25.9327  -11.6476   20.5772 N   0  0  0  0  0  0
  -22.0497  -12.8247   22.0403 N   0  0  0  0  0  0
  -25.4252  -15.1835   20.3912 N   0  0  0  0  0  0
  -31.7961  -14.6839   20.0746 O   0  0  0  0  0  0
  -21.6627   -6.8873   21.4247 O   0  0  0  0  0  0
  -22.3556  -14.5544   20.6686 O   0  0  0  0  0  0
  -24.6177  -31.8677   23.2116 C   0  0  0  0  0  0
  -25.9066  -32.4821   23.8405 C   0  0  1  0  0  0
  -27.2257  -27.4066   20.0831 C   0  0  0  0  0  0
  -25.5918  -33.8620   24.2332 N   0  0  0  0  0  0
  -23.4054  -30.4955   21.5533 C   0  0  2  0  0  0
  -24.8472  -28.9661   20.1136 C   0  0  0  0  0  0
  -22.7425  -29.4665   22.4980 C   0  0  0  0  0  0
  -18.0276  -28.1383   22.8489 C   0  0  0  0  0  0
  -24.1492  -36.7315   23.2636 C   0  0  0  0  0  0
  -25.9396  -30.8223   21.3724 C   0  0  0  0  0  0
  -26.0114  -29.4565   20.7160 C   0  0  0  0  0  0
  -27.1987  -28.6821   20.7041 C   0  0  0  0  0  0
  -26.0325  -26.9493   19.4680 C   0  0  0  0  0  0
  -24.8544  -27.7122   19.4888 C   0  0  0  0  0  0
  -23.6135  -29.8372   20.1653 C   0  0  0  0  0  0
  -25.4112  -36.3108   24.0334 C   0  0  1  0  0  0
  -20.5871  -28.3675   23.1308 C   0  0  2  0  0  0
  -20.6768  -26.9409   22.5414 C   0  0  0  0  0  0
  -19.5745  -26.6390   21.5212 C   0  0  0  0  0  0
  -18.1924  -26.7929   22.1622 C   0  0  0  0  0  0
  -19.1526  -28.8844   23.2898 C   0  0  0  0  0  0
  -18.9452  -30.1449   23.8910 C   0  0  0  0  0  0
  -17.6454  -30.6585   24.0567 C   0  0  0  0  0  0
  -25.9039  -34.9473   23.5127 C   0  0  0  0  0  0
  -16.5345  -29.9088   23.6326 C   0  0  0  0  0  0
  -16.7266  -28.6508   23.0344 C   0  0  0  0  0  0
  -26.4484  -31.6601   25.0737 C   0  0  0  0  0  0
  -25.3748  -31.3721   26.1486 C   0  0  0  0  0  0
  -27.0302  -30.3033   24.6132 C   0  0  0  0  0  0
  -27.6066  -32.4318   25.7490 C   0  0  0  0  0  0
  -27.5583  -37.1812   24.8464 C   0  0  0  0  0  0
  -21.4152  -29.3040   22.3714 N   0  0  0  0  0  0
  -26.4298  -37.3791   23.9405 N   0  0  0  0  0  0
  -24.6727  -31.0763   22.1034 N   0  0  0  0  0  0
  -23.4190  -28.8195   23.3018 O   0  0  0  0  0  0
  -28.3962  -26.6539   20.1160 O   0  0  0  0  0  0
  -26.5595  -34.8923   22.4685 O   0  0  0  0  0  0
  -23.5361  -32.1442   23.7492 O   0  0  0  0  0  0
  -30.7108  -18.9678   20.1662 C   0  0  0  0  0  0
  -30.8886  -17.5795   20.3660 C   0  0  0  0  0  0
  -28.6791  -18.8977   21.4828 C   0  0  0  0  0  0
  -29.5950  -19.6415   20.7082 C   0  0  0  0  0  0
  -28.8594  -17.5121   21.7061 C   0  0  0  0  0  0
  -29.9548  -16.8241   21.1212 C   0  0  0  0  0  0
  -27.8498  -16.7754   22.5722 C   0  0  0  0  0  0
  -28.7694  -25.7304   17.9263 C   0  0  0  0  0  0
  -31.2912  -22.3861   21.4166 C   0  0  0  0  0  0
  -29.3722  -21.7372   22.8705 C   0  0  0  0  0  0
  -29.3382  -21.1259   20.3870 C   0  0  0  0  0  0
  -29.5126  -24.4020   19.9670 C   0  0  0  0  0  0
  -29.0385  -23.5672   21.1890 C   0  0  0  0  0  0
  -28.4661  -25.4005   19.3974 C   0  0  1  0  0  0
  -29.7612  -22.1985   21.4489 C   0  0  0  0  0  0
  -30.0333  -15.4028   21.3088 N   0  0  0  0  0  0
  -31.4737  -12.4123   19.1266 H   0  0  0  0  0  0
  -30.3338  -11.2938   19.8146 H   0  0  0  0  0  0
  -29.7438  -11.7929   17.4278 H   0  0  0  0  0  0
  -29.6682  -13.5004   17.7792 H   0  0  0  0  0  0
  -27.8342  -11.3120   18.8143 H   0  0  0  0  0  0
  -27.3713  -12.6445   17.7898 H   0  0  0  0  0  0
  -27.7175  -14.2546   19.5916 H   0  0  0  0  0  0
  -28.6809  -11.9277   21.3251 H   0  0  0  0  0  0
  -28.4541  -13.5481   21.8896 H   0  0  0  0  0  0
  -25.2745   -9.5676   22.4769 H   0  0  0  0  0  0
  -23.9988   -7.4623   22.7469 H   0  0  0  0  0  0
  -21.0826   -8.8747   19.8965 H   0  0  0  0  0  0
  -22.3656  -10.9665   19.6164 H   0  0  0  0  0  0
  -21.2002   -7.6147   23.9714 H   0  0  0  0  0  0
  -21.1492   -6.0526   25.9083 H   0  0  0  0  0  0
  -22.0598   -2.7607   23.2843 H   0  0  0  0  0  0
  -22.4103  -11.9909   22.4798 H   0  0  0  0  0  0
  -21.1124  -13.1296   22.2610 H   0  0  0  0  0  0
  -24.6537  -15.8341   20.4872 H   0  0  0  0  0  0
  -26.2697  -15.6196   20.0431 H   0  0  0  0  0  0
  -26.7133  -32.5518   23.1160 H   0  0  0  0  0  0
  -25.0081  -33.9786   25.0485 H   0  0  0  0  0  0
  -22.6952  -31.3138   21.4183 H   0  0  0  0  0  0
  -23.3743  -35.9660   23.3315 H   0  0  0  0  0  0
  -24.3584  -36.8912   22.2047 H   0  0  0  0  0  0
  -23.7257  -37.6532   23.6638 H   0  0  0  0  0  0
  -26.0603  -31.5887   20.6054 H   0  0  0  0  0  0
  -26.8257  -30.8699   21.9938 H   0  0  0  0  0  0
  -28.0953  -29.0576   21.1779 H   0  0  0  0  0  0
  -25.9594  -26.0060   18.9521 H   0  0  0  0  0  0
  -23.9610  -27.3315   19.0133 H   0  0  0  0  0  0
  -23.7272  -30.6165   19.4106 H   0  0  0  0  0  0
  -22.7356  -29.2625   19.8645 H   0  0  0  0  0  0
  -25.1288  -36.1975   25.0826 H   0  0  0  0  0  0
  -20.9962  -28.3241   24.1430 H   0  0  0  0  0  0
  -20.5678  -26.2281   23.3603 H   0  0  0  0  0  0
  -21.6638  -26.7455   22.1204 H   0  0  0  0  0  0
  -19.6910  -25.6304   21.1233 H   0  0  0  0  0  0
  -19.6688  -27.3207   20.6748 H   0  0  0  0  0  0
  -17.4198  -26.6681   21.4022 H   0  0  0  0  0  0
  -18.0324  -26.0070   22.9016 H   0  0  0  0  0  0
  -19.7927  -30.7262   24.2287 H   0  0  0  0  0  0
  -17.5008  -31.6265   24.5170 H   0  0  0  0  0  0
  -15.5346  -30.2994   23.7645 H   0  0  0  0  0  0
  -15.8666  -28.0834   22.7046 H   0  0  0  0  0  0
  -24.5920  -30.7065   25.7831 H   0  0  0  0  0  0
  -24.8940  -32.2879   26.4933 H   0  0  0  0  0  0
  -25.8099  -30.8895   27.0246 H   0  0  0  0  0  0
  -26.2842  -29.6803   24.1183 H   0  0  0  0  0  0
  -27.4049  -29.7266   25.4600 H   0  0  0  0  0  0
  -27.8698  -30.4331   23.9298 H   0  0  0  0  0  0
  -27.2692  -33.3605   26.2106 H   0  0  0  0  0  0
  -28.3851  -32.6902   25.0299 H   0  0  0  0  0  0
  -28.0766  -31.8422   26.5372 H   0  0  0  0  0  0
  -28.2614  -38.0095   24.7493 H   0  0  0  0  0  0
  -28.1063  -36.2626   24.6308 H   0  0  0  0  0  0
  -27.2300  -37.1487   25.8868 H   0  0  0  0  0  0
  -20.9314  -29.8770   21.6942 H   0  0  0  0  0  0
  -26.0187  -38.2872   24.1398 H   0  0  0  0  0  0
  -31.4267  -19.5115   19.5647 H   0  0  0  0  0  0
  -31.7493  -17.1137   19.9098 H   0  0  0  0  0  0
  -27.8175  -19.3980   21.9027 H   0  0  0  0  0  0
  -28.3105  -16.4680   23.5110 H   0  0  0  0  0  0
  -27.4706  -15.8875   22.0693 H   0  0  0  0  0  0
  -26.9930  -17.4054   22.8123 H   0  0  0  0  0  0
  -28.7930  -24.8273   17.3156 H   0  0  0  0  0  0
  -29.7347  -26.2266   17.8244 H   0  0  0  0  0  0
  -28.0145  -26.3884   17.4960 H   0  0  0  0  0  0
  -31.8078  -21.4641   21.6849 H   0  0  0  0  0  0
  -31.6143  -23.1575   22.1169 H   0  0  0  0  0  0
  -31.6458  -22.6703   20.4254 H   0  0  0  0  0  0
  -29.8889  -20.8219   23.1619 H   0  0  0  0  0  0
  -28.3005  -21.5492   22.9473 H   0  0  0  0  0  0
  -29.6234  -22.4890   23.6193 H   0  0  0  0  0  0
  -28.2657  -21.2148   20.2080 H   0  0  0  0  0  0
  -29.7946  -21.3559   19.4233 H   0  0  0  0  0  0
  -29.7603  -23.6987   19.1722 H   0  0  0  0  0  0
  -30.4436  -24.9218   20.1969 H   0  0  0  0  0  0
  -27.9690  -23.3703   21.0998 H   0  0  0  0  0  0
  -29.1293  -24.2063   22.0685 H   0  0  0  0  0  0
  -27.5288  -24.8522   19.4449 H   0  0  0  0  0  0
  -29.2578  -15.0133   21.8202 H   0  0  0  0  0  0
  1 25  1  0  0  0
  1 30  2  0  0  0
  1 86  1  0  0  0
  2  3  1  0  0  0
  2 25  1  0  0  0
  2 87  1  0  0  0
  2 88  1  0  0  0
  3  4  1  0  0  0
  3 89  1  0  0  0
  3 90  1  0  0  0
  4  5  1  0  0  0
  4 91  1  0  0  0
  4 92  1  0  0  0
  5  6  1  0  0  0
  5 26  1  0  0  0
  5 93  1  0  0  0
  6 25  1  0  0  0
  6 94  1  0  0  0
  6 95  1  0  0  0
  7  8  2  0  0  0
  7 26  1  0  0  0
  7 29  1  0  0  0
  8  9  1  0  0  0
  8 22  1  0  0  0
  9 10  1  0  0  0
  9 27  2  0  0  0
 10 11  2  0  0  0
 10 15  1  0  0  0
 11 12  1  0  0  0
 11 96  1  0  0  0
 12 13  2  0  0  0
 12 97  1  0  0  0
 13 14  1  0  0  0
 13 31  1  0  0  0
 14 15  2  0  0  0
 14 98  1  0  0  0
 15 99  1  0  0  0
 16 17  2  0  0  0
 16 21  1  0  0  0
 16 31  1  0  0  0
 17 18  1  0  0  0
 17100  1  0  0  0
 18 19  2  0  0  0
 18101  1  0  0  0
 19 20  1  0  0  0
 19 24  1  0  0  0
 20 21  2  0  0  0
 20102  1  0  0  0
 21 23  1  0  0  0
 22 28  1  0  0  0
 22 32  2  0  0  0
 26 27  1  0  0  0
 28103  1  0  0  0
 28104  1  0  0  0
 29105  1  0  0  0
 29106  1  0  0  0
 33 34  1  0  0  0
 33 66  1  0  0  0
 33 70  2  0  0  0
 34 36  1  0  0  0
 34 59  1  0  0  0
 34107  1  0  0  0
 35 44  2  0  0  0
 35 45  1  0  0  0
 35 68  1  0  0  0
 36 56  1  0  0  0
 36108  1  0  0  0
 37 39  1  0  0  0
 37 47  1  0  0  0
 37 66  1  0  0  0
 37109  1  0  0  0
 38 43  2  0  0  0
 38 46  1  0  0  0
 38 47  1  0  0  0
 39 64  1  0  0  0
 39 67  2  0  0  0
 40 52  1  0  0  0
 40 53  2  0  0  0
 40 58  1  0  0  0
 41110  1  0  0  0
 41111  1  0  0  0
 41112  1  0  0  0
 41 48  1  0  0  0
 42 43  1  0  0  0
 42 66  1  0  0  0
 42113  1  0  0  0
 42114  1  0  0  0
 43 44  1  0  0  0
 44115  1  0  0  0
 45 46  2  0  0  0
 45116  1  0  0  0
 46117  1  0  0  0
 47118  1  0  0  0
 47119  1  0  0  0
 48 56  1  0  0  0
 48 65  1  0  0  0
 48120  1  0  0  0
 49 50  1  0  0  0
 49 53  1  0  0  0
 49 64  1  0  0  0
 49121  1  0  0  0
 50 51  1  0  0  0
 50122  1  0  0  0
 50123  1  0  0  0
 51 52  1  0  0  0
 51124  1  0  0  0
 51125  1  0  0  0
 52126  1  0  0  0
 52127  1  0  0  0
 53 54  1  0  0  0
 54 55  2  0  0  0
 54128  1  0  0  0
 55 57  1  0  0  0
 55129  1  0  0  0
 56 69  2  0  0  0
 57 58  2  0  0  0
 57130  1  0  0  0
 58131  1  0  0  0
 59 60  1  0  0  0
 59 61  1  0  0  0
 59 62  1  0  0  0
 60132  1  0  0  0
 60133  1  0  0  0
 60134  1  0  0  0
 61135  1  0  0  0
 61136  1  0  0  0
 61137  1  0  0  0
 62138  1  0  0  0
 62139  1  0  0  0
 62140  1  0  0  0
 63 65  1  0  0  0
 63141  1  0  0  0
 63142  1  0  0  0
 63143  1  0  0  0
 64144  1  0  0  0
 65145  1  0  0  0
 68 84  1  0  0  0
 71 72  2  0  0  0
 71 74  1  0  0  0
 71146  1  0  0  0
 72 76  1  0  0  0
 72147  1  0  0  0
 73 74  2  0  0  0
 73 75  1  0  0  0
 73148  1  0  0  0
 74 81  1  0  0  0
 75 76  2  0  0  0
 75 77  1  0  0  0
 76 86  1  0  0  0
 77149  1  0  0  0
 77150  1  0  0  0
 77151  1  0  0  0
 78152  1  0  0  0
 78153  1  0  0  0
 78154  1  0  0  0
 78 84  1  0  0  0
 79155  1  0  0  0
 79156  1  0  0  0
 79157  1  0  0  0
 79 85  1  0  0  0
 80 85  1  0  0  0
 80158  1  0  0  0
 80159  1  0  0  0
 80160  1  0  0  0
 81 85  1  0  0  0
 81161  1  0  0  0
 81162  1  0  0  0
 82 83  1  0  0  0
 82 84  1  0  0  0
 82163  1  0  0  0
 82164  1  0  0  0
 83 85  1  0  0  0
 83165  1  0  0  0
 83166  1  0  0  0
 84167  1  0  0  0
 86168  1  0  0  0
M  ISO  4   1 100  68 101  84 101  86 100
M  END
> <chiral flag>
0

> <version>
0

> <s_m_source_file>
/data/baiqing/PycharmProjects/Reinvent-master-3.2/result/LINK_invent/BTK/process_docking_weight1_custom_product_contain_oxygen_bond_distance_aromatic_linkinvent_7_9_3/rearranged_h_0136.sdf

> <i_m_source_file_index>
31

> <r_mmod_Potential_Energy-OPLS-2005>
-37.735408782959

> <r_mmod_Stretch_Energy-OPLS-2005>
45.2096061706543

> <r_mmod_Bend_Energy-OPLS-2005>
118.49683380127

> <r_mmod_Torsional_Energy-OPLS-2005>
218.853485107422

> <r_mmod_Improper_Torsional_Energy-OPLS-2005>
3.72571110725403

> <r_mmod_Van_der_Waal_Energy-OPLS-2005>
159.394165039062

> <r_mmod_Electrostatic_Energy-OPLS-2005>
-411.1240234375

> <r_mmod_Solvation_Energy-OPLS-2005>
-186.681411743164

> <b_mmod_Minimization_Converged-OPLS-2005>
0

> <r_mmod_RMS_Derivative-OPLS-2005>
1.12817656993866

$$$$
31
                    3D
 Structure written by MMmdl.
160168  0  0  1  0            999 V2000
  -30.6229  -14.7189   20.4678 C   0  0  0  0  0  0
  -30.4018  -12.4266   19.4719 C   0  0  0  0  0  0
  -29.4865  -12.4974   18.2304 C   0  0  0  0  0  0
  -28.0122  -12.3377   18.6466 C   0  0  0  0  0  0
  -27.6312  -13.2338   19.8568 C   0  0  2  0  0  0
  -28.6767  -13.1436   20.9883 C   0  0  0  0  0  0
  -25.2432  -13.8184   20.5722 C   0  0  0  0  0  0
  -24.1757  -13.0433   20.9220 C   0  0  0  0  0  0
  -24.6330  -11.6895   20.8766 C   0  0  0  0  0  0
  -23.9029  -10.4278   21.0409 C   0  0  0  0  0  0
  -24.3590   -9.4191   21.9184 C   0  0  0  0  0  0
  -23.6281   -8.2231   22.0749 C   0  0  0  0  0  0
  -22.4268   -8.0260   21.3534 C   0  0  0  0  0  0
  -21.9880   -9.0216   20.4632 C   0  0  0  0  0  0
  -22.7202  -10.2111   20.3040 C   0  0  0  0  0  0
  -21.6834   -6.0719   22.5287 C   0  0  0  0  0  0
  -21.4013   -6.5621   23.8225 C   0  0  0  0  0  0
  -21.3663   -5.6784   24.9190 C   0  0  0  0  0  0
  -21.6048   -4.3040   24.7246 C   0  0  0  0  0  0
  -21.8815   -3.8131   23.4350 C   0  0  0  0  0  0
  -21.9189   -4.6954   22.3399 C   0  0  0  0  0  0
  -22.7763  -13.5178   21.1923 C   0  0  0  0  0  0
  -22.1668   -4.2133   21.0989 F   0  0  0  0  0  0
  -21.5617   -3.4533   25.7751 F   0  0  0  0  0  0
  -29.9759  -13.5006   20.4054 N   0  0  0  0  0  0
  -26.2852  -12.9403   20.3305 N   0  0  0  0  0  0
  -25.9257  -11.6528   20.5745 N   0  0  0  0  0  0
  -22.0459  -12.8139   22.0481 N   0  0  0  0  0  0
  -25.4058  -15.1938   20.4227 N   0  0  0  0  0  0
  -31.8112  -14.7569   20.1427 O   0  0  0  0  0  0
  -21.6625   -6.8854   21.4245 O   0  0  0  0  0  0
  -22.3435  -14.5503   20.6794 O   0  0  0  0  0  0
  -24.6231  -31.8599   23.1981 C   0  0  0  0  0  0
  -25.9061  -32.4768   23.8347 C   0  0  1  0  0  0
  -27.1967  -27.2458   20.1568 C   0  0  0  0  0  0
  -25.5940  -33.8568   24.2313 N   0  0  0  0  0  0
  -23.4207  -30.4791   21.5382 C   0  0  2  0  0  0
  -24.8650  -28.9219   20.1119 C   0  0  0  0  0  0
  -22.7482  -29.4572   22.4888 C   0  0  0  0  0  0
  -18.0301  -28.1272   22.8429 C   0  0  0  0  0  0
  -24.1564  -36.7299   23.2659 C   0  0  0  0  0  0
  -25.9648  -30.7728   21.3783 C   0  0  0  0  0  0
  -26.0390  -29.3880   20.7262 C   0  0  0  0  0  0
  -27.2140  -28.5649   20.7313 C   0  0  0  0  0  0
  -26.0033  -26.8432   19.5329 C   0  0  0  0  0  0
  -24.8563  -27.6549   19.5035 C   0  0  0  0  0  0
  -23.6435  -29.8200   20.1516 C   0  0  0  0  0  0
  -25.4164  -36.3067   24.0349 C   0  0  1  0  0  0
  -20.5891  -28.3613   23.1268 C   0  0  2  0  0  0
  -20.6792  -26.9358   22.5382 C   0  0  0  0  0  0
  -19.5777  -26.6286   21.5172 C   0  0  0  0  0  0
  -18.1954  -26.7816   22.1566 C   0  0  0  0  0  0
  -19.1535  -28.8758   23.2838 C   0  0  0  0  0  0
  -18.9501  -30.1372   23.8833 C   0  0  0  0  0  0
  -17.6497  -30.6504   24.0512 C   0  0  0  0  0  0
  -25.9074  -34.9443   23.5116 C   0  0  0  0  0  0
  -16.5379  -29.8997   23.6279 C   0  0  0  0  0  0
  -16.7297  -28.6411   23.0303 C   0  0  0  0  0  0
  -26.4429  -31.6608   25.0730 C   0  0  0  0  0  0
  -25.3615  -31.3762   26.1467 C   0  0  0  0  0  0
  -27.0389  -30.3100   24.6142 C   0  0  0  0  0  0
  -27.6000  -32.4346   25.7483 C   0  0  0  0  0  0
  -27.5642  -37.1805   24.8456 C   0  0  0  0  0  0
  -21.4175  -29.3012   22.3712 N   0  0  0  0  0  0
  -26.4383  -37.3742   23.9367 N   0  0  0  0  0  0
  -24.6878  -31.0574   22.0936 N   0  0  0  0  0  0
  -23.4220  -28.8067   23.2912 O   0  0  0  0  0  0
  -28.2927  -26.3628   20.1018 O   0  0  0  0  0  0
  -26.5640  -34.8903   22.4692 O   0  0  0  0  0  0
  -23.5389  -32.1454   23.7269 O   0  0  0  0  0  0
  -31.6030  -17.7188   20.4187 C   0  0  0  0  0  0
  -32.0093  -19.0656   20.4326 C   0  0  0  0  0  0
  -29.3299  -18.4656   20.7781 C   0  0  0  0  0  0
  -30.2567  -17.3397   20.6317 C   0  0  0  0  0  0
  -29.7118  -19.8776   20.7435 C   0  0  0  0  0  0
  -31.1047  -20.1266   20.6216 C   0  0  0  0  0  0
  -25.8260  -21.9258   21.0896 C   0  0  0  0  0  0
  -27.5799  -23.4909   18.9905 C   0  0  0  0  0  0
  -26.6068  -23.2575   21.2956 C   0  0  0  0  0  0
  -28.3447  -25.1035   20.9253 C   0  0  0  0  0  0
  -29.0759  -22.4079   20.7646 C   0  0  0  0  0  0
  -27.9275  -23.5582   20.4946 C   0  0  2  0  0  0
  -29.8836  -15.8853   20.7000 N   0  0  0  0  0  0
  -28.7489  -20.9394   20.8188 O   0  0  0  0  0  0
  -31.6187  -21.3776   20.7023 F   0  0  0  0  0  0
  -31.4518  -12.5056   19.1884 H   0  0  0  0  0  0
  -30.3037  -11.4473   19.9451 H   0  0  0  0  0  0
  -29.7491  -11.7179   17.5157 H   0  0  0  0  0  0
  -29.6253  -13.4448   17.7137 H   0  0  0  0  0  0
  -27.8537  -11.2898   18.9014 H   0  0  0  0  0  0
  -27.3494  -12.5382   17.8015 H   0  0  0  0  0  0
  -27.6303  -14.2589   19.4886 H   0  0  0  0  0  0
  -28.7025  -12.1264   21.3846 H   0  0  0  0  0  0
  -28.4177  -13.7880   21.8300 H   0  0  0  0  0  0
  -25.2724   -9.5683   22.4766 H   0  0  0  0  0  0
  -23.9994   -7.4595   22.7446 H   0  0  0  0  0  0
  -21.0810   -8.8691   19.8924 H   0  0  0  0  0  0
  -22.3620  -10.9634   19.6152 H   0  0  0  0  0  0
  -21.2016   -7.6132   23.9722 H   0  0  0  0  0  0
  -21.1496   -6.0518   25.9096 H   0  0  0  0  0  0
  -22.0591   -2.7583   23.2859 H   0  0  0  0  0  0
  -22.4076  -11.9782   22.4830 H   0  0  0  0  0  0
  -21.1089  -13.1121   22.2763 H   0  0  0  0  0  0
  -24.6194  -15.8269   20.5265 H   0  0  0  0  0  0
  -26.2405  -15.6499   20.0767 H   0  0  0  0  0  0
  -26.7111  -32.5458   23.1071 H   0  0  0  0  0  0
  -25.0063  -33.9678   25.0446 H   0  0  0  0  0  0
  -22.7128  -31.2991   21.3933 H   0  0  0  0  0  0
  -23.3833  -35.9644   23.3286 H   0  0  0  0  0  0
  -24.3669  -36.8954   22.2083 H   0  0  0  0  0  0
  -23.7341  -37.6493   23.6689 H   0  0  0  0  0  0
  -26.1066  -31.5415   20.6189 H   0  0  0  0  0  0
  -26.8377  -30.8159   22.0187 H   0  0  0  0  0  0
  -28.1245  -28.9183   21.1976 H   0  0  0  0  0  0
  -25.9522  -25.8754   19.0618 H   0  0  0  0  0  0
  -23.9646  -27.2881   19.0126 H   0  0  0  0  0  0
  -23.7736  -30.6094   19.4069 H   0  0  0  0  0  0
  -22.7558  -29.2642   19.8350 H   0  0  0  0  0  0
  -25.1342  -36.1958   25.0847 H   0  0  0  0  0  0
  -20.9965  -28.3192   24.1394 H   0  0  0  0  0  0
  -20.5738  -26.2211   23.3578 H   0  0  0  0  0  0
  -21.6646  -26.7418   22.1154 H   0  0  0  0  0  0
  -19.6992  -25.6189   21.1248 H   0  0  0  0  0  0
  -19.6716  -27.3070   20.6670 H   0  0  0  0  0  0
  -17.4226  -26.6591   21.3945 H   0  0  0  0  0  0
  -18.0331  -25.9973   22.8961 H   0  0  0  0  0  0
  -19.8014  -30.7148   24.2200 H   0  0  0  0  0  0
  -17.5074  -31.6205   24.5089 H   0  0  0  0  0  0
  -15.5374  -30.2856   23.7631 H   0  0  0  0  0  0
  -15.8713  -28.0722   22.6972 H   0  0  0  0  0  0
  -24.5821  -30.7068   25.7800 H   0  0  0  0  0  0
  -24.8752  -32.2936   26.4804 H   0  0  0  0  0  0
  -25.7910  -30.9042   27.0334 H   0  0  0  0  0  0
  -26.3069  -29.6744   24.1162 H   0  0  0  0  0  0
  -27.4207  -29.7410   25.4625 H   0  0  0  0  0  0
  -27.8787  -30.4480   23.9346 H   0  0  0  0  0  0
  -27.2660  -33.3728   26.1919 H   0  0  0  0  0  0
  -28.3815  -32.6771   25.0265 H   0  0  0  0  0  0
  -28.0599  -31.8553   26.5496 H   0  0  0  0  0  0
  -28.2558  -38.0200   24.7529 H   0  0  0  0  0  0
  -28.1260  -36.2703   24.6260 H   0  0  0  0  0  0
  -27.2327  -37.1338   25.8858 H   0  0  0  0  0  0
  -20.9348  -29.8939   21.7140 H   0  0  0  0  0  0
  -26.0306  -38.2848   24.1333 H   0  0  0  0  0  0
  -32.3833  -16.9903   20.2664 H   0  0  0  0  0  0
  -33.0576  -19.2957   20.3030 H   0  0  0  0  0  0
  -28.2808  -18.2602   20.9339 H   0  0  0  0  0  0
  -24.8788  -21.9544   21.6323 H   0  0  0  0  0  0
  -26.3428  -21.0487   21.4827 H   0  0  0  0  0  0
  -25.5532  -21.7287   20.0503 H   0  0  0  0  0  0
  -26.5775  -23.8593   18.7849 H   0  0  0  0  0  0
  -27.5894  -22.4586   18.6347 H   0  0  0  0  0  0
  -28.2790  -24.0577   18.3746 H   0  0  0  0  0  0
  -26.8077  -23.3686   22.3623 H   0  0  0  0  0  0
  -25.9010  -24.0562   21.0603 H   0  0  0  0  0  0
  -29.3863  -25.0731   21.2607 H   0  0  0  0  0  0
  -27.8248  -25.3581   21.8528 H   0  0  0  0  0  0
  -29.6210  -22.6418   21.6810 H   0  0  0  0  0  0
  -29.8051  -22.5537   19.9655 H   0  0  0  0  0  0
  -28.9161  -15.7138   20.9244 H   0  0  0  0  0  0
  1 25  1  0  0  0
  1 30  2  0  0  0
  1 83  1  0  0  0
  2  3  1  0  0  0
  2 25  1  0  0  0
  2 86  1  0  0  0
  2 87  1  0  0  0
  3  4  1  0  0  0
  3 88  1  0  0  0
  3 89  1  0  0  0
  4  5  1  0  0  0
  4 90  1  0  0  0
  4 91  1  0  0  0
  5  6  1  0  0  0
  5 26  1  0  0  0
  5 92  1  0  0  0
  6 25  1  0  0  0
  6 93  1  0  0  0
  6 94  1  0  0  0
  7  8  2  0  0  0
  7 26  1  0  0  0
  7 29  1  0  0  0
  8  9  1  0  0  0
  8 22  1  0  0  0
  9 10  1  0  0  0
  9 27  2  0  0  0
 10 11  2  0  0  0
 10 15  1  0  0  0
 11 12  1  0  0  0
 11 95  1  0  0  0
 12 13  2  0  0  0
 12 96  1  0  0  0
 13 14  1  0  0  0
 13 31  1  0  0  0
 14 15  2  0  0  0
 14 97  1  0  0  0
 15 98  1  0  0  0
 16 17  2  0  0  0
 16 21  1  0  0  0
 16 31  1  0  0  0
 17 18  1  0  0  0
 17 99  1  0  0  0
 18 19  2  0  0  0
 18100  1  0  0  0
 19 20  1  0  0  0
 19 24  1  0  0  0
 20 21  2  0  0  0
 20101  1  0  0  0
 21 23  1  0  0  0
 22 28  1  0  0  0
 22 32  2  0  0  0
 26 27  1  0  0  0
 28102  1  0  0  0
 28103  1  0  0  0
 29104  1  0  0  0
 29105  1  0  0  0
 33 34  1  0  0  0
 33 66  1  0  0  0
 33 70  2  0  0  0
 34 36  1  0  0  0
 34 59  1  0  0  0
 34106  1  0  0  0
 35 44  2  0  0  0
 35 45  1  0  0  0
 35 68  1  0  0  0
 36 56  1  0  0  0
 36107  1  0  0  0
 37 39  1  0  0  0
 37 47  1  0  0  0
 37 66  1  0  0  0
 37108  1  0  0  0
 38 43  2  0  0  0
 38 46  1  0  0  0
 38 47  1  0  0  0
 39 64  1  0  0  0
 39 67  2  0  0  0
 40 52  1  0  0  0
 40 53  2  0  0  0
 40 58  1  0  0  0
 41109  1  0  0  0
 41110  1  0  0  0
 41111  1  0  0  0
 41 48  1  0  0  0
 42 43  1  0  0  0
 42 66  1  0  0  0
 42112  1  0  0  0
 42113  1  0  0  0
 43 44  1  0  0  0
 44114  1  0  0  0
 45 46  2  0  0  0
 45115  1  0  0  0
 46116  1  0  0  0
 47117  1  0  0  0
 47118  1  0  0  0
 48 56  1  0  0  0
 48 65  1  0  0  0
 48119  1  0  0  0
 49 50  1  0  0  0
 49 53  1  0  0  0
 49 64  1  0  0  0
 49120  1  0  0  0
 50 51  1  0  0  0
 50121  1  0  0  0
 50122  1  0  0  0
 51 52  1  0  0  0
 51123  1  0  0  0
 51124  1  0  0  0
 52125  1  0  0  0
 52126  1  0  0  0
 53 54  1  0  0  0
 54 55  2  0  0  0
 54127  1  0  0  0
 55 57  1  0  0  0
 55128  1  0  0  0
 56 69  2  0  0  0
 57 58  2  0  0  0
 57129  1  0  0  0
 58130  1  0  0  0
 59 60  1  0  0  0
 59 61  1  0  0  0
 59 62  1  0  0  0
 60131  1  0  0  0
 60132  1  0  0  0
 60133  1  0  0  0
 61134  1  0  0  0
 61135  1  0  0  0
 61136  1  0  0  0
 62137  1  0  0  0
 62138  1  0  0  0
 62139  1  0  0  0
 63 65  1  0  0  0
 63140  1  0  0  0
 63141  1  0  0  0
 63142  1  0  0  0
 64143  1  0  0  0
 65144  1  0  0  0
 68 80  1  0  0  0
 71 72  2  0  0  0
 71 74  1  0  0  0
 71145  1  0  0  0
 72 76  1  0  0  0
 72146  1  0  0  0
 73 74  2  0  0  0
 73 75  1  0  0  0
 73147  1  0  0  0
 74 83  1  0  0  0
 75 76  2  0  0  0
 75 84  1  0  0  0
 76 85  1  0  0  0
 77 79  1  0  0  0
 77148  1  0  0  0
 77149  1  0  0  0
 77150  1  0  0  0
 78151  1  0  0  0
 78152  1  0  0  0
 78153  1  0  0  0
 78 82  1  0  0  0
 79 82  1  0  0  0
 79154  1  0  0  0
 79155  1  0  0  0
 80 82  1  0  0  0
 80156  1  0  0  0
 80157  1  0  0  0
 81 82  1  0  0  0
 81 84  1  0  0  0
 81158  1  0  0  0
 81159  1  0  0  0
 83160  1  0  0  0
M  ISO  4   1 100  68 101  80 101  83 100
M  END
> <chiral flag>
0

> <version>
0

> <s_m_source_file>
/data/baiqing/PycharmProjects/Reinvent-master-3.2/result/LINK_invent/BTK/process_docking_weight1_custom_product_contain_oxygen_bond_distance_aromatic_linkinvent_7_9_3/rearranged_h_0136.sdf

> <i_m_source_file_index>
32

> <r_mmod_Potential_Energy-OPLS-2005>
311.672454833984

> <r_mmod_Stretch_Energy-OPLS-2005>
156.61164855957

> <r_mmod_Bend_Energy-OPLS-2005>
212.893539428711

> <r_mmod_Torsional_Energy-OPLS-2005>
265.490661621094

> <r_mmod_Improper_Torsional_Energy-OPLS-2005>
4.43316316604614

> <r_mmod_Van_der_Waal_Energy-OPLS-2005>
144.490280151367

> <r_mmod_Electrostatic_Energy-OPLS-2005>
-354.367919921875

> <r_mmod_Solvation_Energy-OPLS-2005>
-196.141830444336

> <b_mmod_Minimization_Converged-OPLS-2005>
0

> <r_mmod_RMS_Derivative-OPLS-2005>
8.50612449645996

$$$$
32
                    3D
 Structure written by MMmdl.
170179  0  0  1  0            999 V2000
  -30.7425  -14.5020   20.6745 C   0  0  0  0  0  0
  -30.4197  -12.3719   19.4223 C   0  0  0  0  0  0
  -29.4878  -12.5417   18.2081 C   0  0  0  0  0  0
  -28.0178  -12.3705   18.6292 C   0  0  0  0  0  0
  -27.6631  -13.2153   19.8815 C   0  0  2  0  0  0
  -28.7070  -13.0233   21.0062 C   0  0  0  0  0  0
  -25.2588  -13.8176   20.5723 C   0  0  0  0  0  0
  -24.1830  -13.0442   20.9160 C   0  0  0  0  0  0
  -24.6397  -11.6913   20.8716 C   0  0  0  0  0  0
  -23.9073  -10.4300   21.0393 C   0  0  0  0  0  0
  -24.3622   -9.4225   21.9179 C   0  0  0  0  0  0
  -23.6305   -8.2259   22.0755 C   0  0  0  0  0  0
  -22.4283   -8.0289   21.3550 C   0  0  0  0  0  0
  -21.9917   -9.0255   20.4641 C   0  0  0  0  0  0
  -22.7245  -10.2137   20.3051 C   0  0  0  0  0  0
  -21.6859   -6.0745   22.5286 C   0  0  0  0  0  0
  -21.4013   -6.5647   23.8220 C   0  0  0  0  0  0
  -21.3656   -5.6793   24.9176 C   0  0  0  0  0  0
  -21.6044   -4.3060   24.7227 C   0  0  0  0  0  0
  -21.8816   -3.8158   23.4347 C   0  0  0  0  0  0
  -21.9198   -4.6974   22.3406 C   0  0  0  0  0  0
  -22.7856  -13.5235   21.1830 C   0  0  0  0  0  0
  -22.1665   -4.2165   21.0985 F   0  0  0  0  0  0
  -21.5624   -3.4545   25.7742 F   0  0  0  0  0  0
  -30.0334  -13.3491   20.4622 N   0  0  0  0  0  0
  -26.3051  -12.9361   20.3453 N   0  0  0  0  0  0
  -25.9337  -11.6505   20.5783 N   0  0  0  0  0  0
  -22.0502  -12.8230   22.0385 N   0  0  0  0  0  0
  -25.4278  -15.1898   20.4132 N   0  0  0  0  0  0
  -31.7257  -14.7583   19.9717 O   0  0  0  0  0  0
  -21.6642   -6.8890   21.4251 O   0  0  0  0  0  0
  -22.3551  -14.5562   20.6719 O   0  0  0  0  0  0
  -24.6215  -31.8612   23.2085 C   0  0  0  0  0  0
  -25.9067  -32.4787   23.8393 C   0  0  1  0  0  0
  -27.2408  -27.3674   20.1024 C   0  0  0  0  0  0
  -25.5887  -33.8576   24.2306 N   0  0  0  0  0  0
  -23.4117  -30.4859   21.5515 C   0  0  2  0  0  0
  -24.8610  -28.9482   20.1116 C   0  0  0  0  0  0
  -22.7442  -29.4636   22.4996 C   0  0  0  0  0  0
  -18.0278  -28.1360   22.8496 C   0  0  0  0  0  0
  -24.1470  -36.7297   23.2641 C   0  0  0  0  0  0
  -25.9492  -30.8062   21.3725 C   0  0  0  0  0  0
  -26.0268  -29.4372   20.7164 C   0  0  0  0  0  0
  -27.2136  -28.6550   20.7082 C   0  0  0  0  0  0
  -26.0523  -26.9228   19.4709 C   0  0  0  0  0  0
  -24.8740  -27.6941   19.4832 C   0  0  0  0  0  0
  -23.6220  -29.8163   20.1678 C   0  0  0  0  0  0
  -25.4095  -36.3077   24.0327 C   0  0  1  0  0  0
  -20.5876  -28.3649   23.1311 C   0  0  2  0  0  0
  -20.6770  -26.9373   22.5428 C   0  0  0  0  0  0
  -19.5739  -26.6366   21.5225 C   0  0  0  0  0  0
  -18.1915  -26.7904   22.1623 C   0  0  0  0  0  0
  -19.1534  -28.8825   23.2895 C   0  0  0  0  0  0
  -18.9452  -30.1437   23.8883 C   0  0  0  0  0  0
  -17.6454  -30.6569   24.0548 C   0  0  0  0  0  0
  -25.9033  -34.9435   23.5125 C   0  0  0  0  0  0
  -16.5346  -29.9061   23.6334 C   0  0  0  0  0  0
  -16.7269  -28.6485   23.0350 C   0  0  0  0  0  0
  -26.4481  -31.6579   25.0731 C   0  0  0  0  0  0
  -25.3720  -31.3678   26.1461 C   0  0  0  0  0  0
  -27.0340  -30.3007   24.6167 C   0  0  0  0  0  0
  -27.6070  -32.4309   25.7474 C   0  0  0  0  0  0
  -27.5566  -37.1785   24.8457 C   0  0  0  0  0  0
  -21.4171  -29.2984   22.3690 N   0  0  0  0  0  0
  -26.4266  -37.3768   23.9412 N   0  0  0  0  0  0
  -24.6796  -31.0658   22.1019 N   0  0  0  0  0  0
  -23.4184  -28.8160   23.3045 O   0  0  0  0  0  0
  -28.3939  -26.5754   20.1557 O   0  0  0  0  0  0
  -26.5611  -34.8895   22.4694 O   0  0  0  0  0  0
  -23.5378  -32.1404   23.7433 O   0  0  0  0  0  0
  -27.5168  -17.8594   22.5504 C   0  0  0  0  0  0
  -29.8662  -17.8790   21.0436 C   0  0  0  0  0  0
  -27.8451  -19.0293   21.8392 C   0  0  0  0  0  0
  -29.5324  -16.6835   21.7688 C   0  0  0  0  0  0
  -28.3403  -16.7204   22.5412 C   0  0  0  0  0  0
  -29.0605  -19.0687   21.0960 C   0  0  0  0  0  0
  -29.6309  -21.5155   20.7907 C   0  0  0  0  0  0
  -25.4858  -21.4959   22.9033 C   0  0  0  0  0  0
  -25.3857  -20.1021   22.2764 C   0  0  0  0  0  0
  -26.9875  -21.2345   23.0548 C   0  0  0  0  0  0
  -26.8796  -20.2214   21.9011 C   0  0  0  0  0  0
  -31.8508  -15.9079   22.4962 C   0  0  0  0  0  0
  -29.3999  -22.7180   19.8176 C   0  0  0  0  0  0
  -29.3910  -24.1939   20.3982 C   0  0  0  0  0  0
  -28.3160  -25.1619   19.7792 C   0  0  0  0  0  0
  -30.4990  -15.4510   21.9026 C   0  0  2  0  0  0
  -27.9466  -15.6659   23.3647 N   0  0  0  0  0  0
  -29.3930  -20.2539   20.3305 N   0  0  0  0  0  0
  -30.0571  -21.7236   21.9287 O   0  0  0  0  0  0
  -31.4588  -12.4823   19.1098 H   0  0  0  0  0  0
  -30.3418  -11.3604   19.8224 H   0  0  0  0  0  0
  -29.7421  -11.8156   17.4357 H   0  0  0  0  0  0
  -29.6333  -13.5293   17.7639 H   0  0  0  0  0  0
  -27.8526  -11.3119   18.8367 H   0  0  0  0  0  0
  -27.3545  -12.6254   17.8009 H   0  0  0  0  0  0
  -27.6997  -14.2636   19.5812 H   0  0  0  0  0  0
  -28.6946  -11.9957   21.3728 H   0  0  0  0  0  0
  -28.4388  -13.6412   21.8567 H   0  0  0  0  0  0
  -25.2765   -9.5709   22.4751 H   0  0  0  0  0  0
  -24.0022   -7.4658   22.7479 H   0  0  0  0  0  0
  -21.0851   -8.8770   19.8943 H   0  0  0  0  0  0
  -22.3705  -10.9675   19.6156 H   0  0  0  0  0  0
  -21.1998   -7.6152   23.9738 H   0  0  0  0  0  0
  -21.1477   -6.0515   25.9086 H   0  0  0  0  0  0
  -22.0595   -2.7626   23.2844 H   0  0  0  0  0  0
  -22.4132  -11.9908   22.4788 H   0  0  0  0  0  0
  -21.1110  -13.1250   22.2566 H   0  0  0  0  0  0
  -24.6810  -15.8508   20.5947 H   0  0  0  0  0  0
  -26.3267  -15.6345   20.2769 H   0  0  0  0  0  0
  -26.7132  -32.5474   23.1147 H   0  0  0  0  0  0
  -24.9963  -33.9737   25.0398 H   0  0  0  0  0  0
  -22.7012  -31.3037   21.4122 H   0  0  0  0  0  0
  -23.3725  -35.9636   23.3293 H   0  0  0  0  0  0
  -24.3570  -36.8955   22.2064 H   0  0  0  0  0  0
  -23.7251  -37.6502   23.6682 H   0  0  0  0  0  0
  -26.0658  -31.5668   20.6009 H   0  0  0  0  0  0
  -26.8355  -30.8640   21.9931 H   0  0  0  0  0  0
  -28.1078  -29.0253   21.1898 H   0  0  0  0  0  0
  -26.0030  -25.9724   18.9643 H   0  0  0  0  0  0
  -23.9803  -27.3146   19.0058 H   0  0  0  0  0  0
  -23.7205  -30.5896   19.4049 H   0  0  0  0  0  0
  -22.7453  -29.2324   19.8821 H   0  0  0  0  0  0
  -25.1273  -36.1921   25.0818 H   0  0  0  0  0  0
  -20.9972  -28.3217   24.1431 H   0  0  0  0  0  0
  -20.5700  -26.2232   23.3608 H   0  0  0  0  0  0
  -21.6634  -26.7413   22.1197 H   0  0  0  0  0  0
  -19.6891  -25.6286   21.1234 H   0  0  0  0  0  0
  -19.6682  -27.3186   20.6758 H   0  0  0  0  0  0
  -17.4190  -26.6663   21.4016 H   0  0  0  0  0  0
  -18.0301  -26.0042   22.9007 H   0  0  0  0  0  0
  -19.7932  -30.7262   24.2243 H   0  0  0  0  0  0
  -17.5004  -31.6259   24.5117 H   0  0  0  0  0  0
  -15.5344  -30.2936   23.7691 H   0  0  0  0  0  0
  -15.8669  -28.0815   22.7043 H   0  0  0  0  0  0
  -24.5905  -30.7029   25.7773 H   0  0  0  0  0  0
  -24.8873  -32.2812   26.4907 H   0  0  0  0  0  0
  -25.8042  -30.8833   27.0224 H   0  0  0  0  0  0
  -26.2919  -29.6725   24.1229 H   0  0  0  0  0  0
  -27.4106  -29.7283   25.4662 H   0  0  0  0  0  0
  -27.8738  -30.4327   23.9344 H   0  0  0  0  0  0
  -27.2750  -33.3650   26.2019 H   0  0  0  0  0  0
  -28.3881  -32.6811   25.0280 H   0  0  0  0  0  0
  -28.0718  -31.8436   26.5413 H   0  0  0  0  0  0
  -28.2561  -38.0099   24.7537 H   0  0  0  0  0  0
  -28.1098  -36.2637   24.6250 H   0  0  0  0  0  0
  -27.2288  -37.1407   25.8860 H   0  0  0  0  0  0
  -20.9333  -29.8677   21.6886 H   0  0  0  0  0  0
  -26.0145  -38.2830   24.1455 H   0  0  0  0  0  0
  -26.6212  -17.8376   23.1512 H   0  0  0  0  0  0
  -30.7838  -17.8977   20.4735 H   0  0  0  0  0  0
  -24.9461  -21.6208   23.8432 H   0  0  0  0  0  0
  -25.2631  -22.2988   22.1967 H   0  0  0  0  0  0
  -24.7006  -20.0201   21.4325 H   0  0  0  0  0  0
  -25.1551  -19.3567   23.0383 H   0  0  0  0  0  0
  -27.2344  -20.7585   24.0067 H   0  0  0  0  0  0
  -27.6232  -22.0983   22.8692 H   0  0  0  0  0  0
  -26.9123  -20.7488   20.9447 H   0  0  0  0  0  0
  -31.7145  -16.3605   23.4784 H   0  0  0  0  0  0
  -32.3466  -16.6394   21.8593 H   0  0  0  0  0  0
  -32.5343  -15.0663   22.6210 H   0  0  0  0  0  0
  -28.4433  -22.5350   19.3268 H   0  0  0  0  0  0
  -30.1497  -22.6537   19.0290 H   0  0  0  0  0  0
  -30.3788  -24.6274   20.2341 H   0  0  0  0  0  0
  -29.2596  -24.1762   21.4817 H   0  0  0  0  0  0
  -27.3510  -24.7422   20.0630 H   0  0  0  0  0  0
  -28.3737  -25.1130   18.6906 H   0  0  0  0  0  0
  -30.1194  -14.7806   22.6686 H   0  0  0  0  0  0
  -27.1882  -15.8233   24.0209 H   0  0  0  0  0  0
  -28.6514  -15.0441   23.7391 H   0  0  0  0  0  0
  -29.2273  -20.1823   19.3351 H   0  0  0  0  0  0
  1 25  1  0  0  0
  1 30  2  0  0  0
  1 86  1  0  0  0
  2  3  1  0  0  0
  2 25  1  0  0  0
  2 90  1  0  0  0
  2 91  1  0  0  0
  3  4  1  0  0  0
  3 92  1  0  0  0
  3 93  1  0  0  0
  4  5  1  0  0  0
  4 94  1  0  0  0
  4 95  1  0  0  0
  5  6  1  0  0  0
  5 26  1  0  0  0
  5 96  1  0  0  0
  6 25  1  0  0  0
  6 97  1  0  0  0
  6 98  1  0  0  0
  7  8  2  0  0  0
  7 26  1  0  0  0
  7 29  1  0  0  0
  8  9  1  0  0  0
  8 22  1  0  0  0
  9 10  1  0  0  0
  9 27  2  0  0  0
 10 11  2  0  0  0
 10 15  1  0  0  0
 11 12  1  0  0  0
 11 99  1  0  0  0
 12 13  2  0  0  0
 12100  1  0  0  0
 13 14  1  0  0  0
 13 31  1  0  0  0
 14 15  2  0  0  0
 14101  1  0  0  0
 15102  1  0  0  0
 16 17  2  0  0  0
 16 21  1  0  0  0
 16 31  1  0  0  0
 17 18  1  0  0  0
 17103  1  0  0  0
 18 19  2  0  0  0
 18104  1  0  0  0
 19 20  1  0  0  0
 19 24  1  0  0  0
 20 21  2  0  0  0
 20105  1  0  0  0
 21 23  1  0  0  0
 22 28  1  0  0  0
 22 32  2  0  0  0
 26 27  1  0  0  0
 28106  1  0  0  0
 28107  1  0  0  0
 29108  1  0  0  0
 29109  1  0  0  0
 33 34  1  0  0  0
 33 66  1  0  0  0
 33 70  2  0  0  0
 34 36  1  0  0  0
 34 59  1  0  0  0
 34110  1  0  0  0
 35 44  2  0  0  0
 35 45  1  0  0  0
 35 68  1  0  0  0
 36 56  1  0  0  0
 36111  1  0  0  0
 37 39  1  0  0  0
 37 47  1  0  0  0
 37 66  1  0  0  0
 37112  1  0  0  0
 38 43  2  0  0  0
 38 46  1  0  0  0
 38 47  1  0  0  0
 39 64  1  0  0  0
 39 67  2  0  0  0
 40 52  1  0  0  0
 40 53  2  0  0  0
 40 58  1  0  0  0
 41113  1  0  0  0
 41114  1  0  0  0
 41115  1  0  0  0
 41 48  1  0  0  0
 42 43  1  0  0  0
 42 66  1  0  0  0
 42116  1  0  0  0
 42117  1  0  0  0
 43 44  1  0  0  0
 44118  1  0  0  0
 45 46  2  0  0  0
 45119  1  0  0  0
 46120  1  0  0  0
 47121  1  0  0  0
 47122  1  0  0  0
 48 56  1  0  0  0
 48 65  1  0  0  0
 48123  1  0  0  0
 49 50  1  0  0  0
 49 53  1  0  0  0
 49 64  1  0  0  0
 49124  1  0  0  0
 50 51  1  0  0  0
 50125  1  0  0  0
 50126  1  0  0  0
 51 52  1  0  0  0
 51127  1  0  0  0
 51128  1  0  0  0
 52129  1  0  0  0
 52130  1  0  0  0
 53 54  1  0  0  0
 54 55  2  0  0  0
 54131  1  0  0  0
 55 57  1  0  0  0
 55132  1  0  0  0
 56 69  2  0  0  0
 57 58  2  0  0  0
 57133  1  0  0  0
 58134  1  0  0  0
 59 60  1  0  0  0
 59 61  1  0  0  0
 59 62  1  0  0  0
 60135  1  0  0  0
 60136  1  0  0  0
 60137  1  0  0  0
 61138  1  0  0  0
 61139  1  0  0  0
 61140  1  0  0  0
 62141  1  0  0  0
 62142  1  0  0  0
 62143  1  0  0  0
 63 65  1  0  0  0
 63144  1  0  0  0
 63145  1  0  0  0
 63146  1  0  0  0
 64147  1  0  0  0
 65148  1  0  0  0
 68 85  1  0  0  0
 71 73  2  0  0  0
 71 75  1  0  0  0
 71149  1  0  0  0
 72 74  1  0  0  0
 72 76  2  0  0  0
 72150  1  0  0  0
 73 76  1  0  0  0
 73 81  1  0  0  0
 74 75  2  0  0  0
 74 86  1  0  0  0
 75 87  1  0  0  0
 76 88  1  0  0  0
 77 83  1  0  0  0
 77 88  1  0  0  0
 77 89  2  0  0  0
 78 79  1  0  0  0
 78 80  1  0  0  0
 78151  1  0  0  0
 78152  1  0  0  0
 79 81  1  0  0  0
 79153  1  0  0  0
 79154  1  0  0  0
 80 81  1  0  0  0
 80155  1  0  0  0
 80156  1  0  0  0
 81157  1  0  0  0
 82158  1  0  0  0
 82159  1  0  0  0
 82160  1  0  0  0
 82 86  1  0  0  0
 83 84  1  0  0  0
 83161  1  0  0  0
 83162  1  0  0  0
 84 85  1  0  0  0
 84163  1  0  0  0
 84164  1  0  0  0
 85165  1  0  0  0
 85166  1  0  0  0
 86167  1  0  0  0
 87168  1  0  0  0
 87169  1  0  0  0
 88170  1  0  0  0
M  ISO  4   1 100  68 101  85 101  86 100
M  END
> <chiral flag>
0

> <version>
0

> <s_m_source_file>
/data/baiqing/PycharmProjects/Reinvent-master-3.2/result/LINK_invent/BTK/process_docking_weight1_custom_product_contain_oxygen_bond_distance_aromatic_linkinvent_7_9_3/rearranged_h_0136.sdf

> <i_m_source_file_index>
33

> <r_mmod_Potential_Energy-OPLS-2005>
5.59670495986938

> <r_mmod_Stretch_Energy-OPLS-2005>
69.974494934082

> <r_mmod_Bend_Energy-OPLS-2005>
153.291976928711

> <r_mmod_Torsional_Energy-OPLS-2005>
241.603179931641

> <r_mmod_Improper_Torsional_Energy-OPLS-2005>
8.69558429718018

> <r_mmod_Van_der_Waal_Energy-OPLS-2005>
148.489288330078

> <r_mmod_Electrostatic_Energy-OPLS-2005>
-424.7470703125

> <r_mmod_Solvation_Energy-OPLS-2005>
-215.480270385742

> <b_mmod_Minimization_Converged-OPLS-2005>
0

> <r_mmod_RMS_Derivative-OPLS-2005>
3.21054816246033

$$$$
33
                    3D
 Structure written by MMmdl.
163171  0  0  1  0            999 V2000
  -30.5422  -15.0542   20.5113 C   0  0  0  0  0  0
  -30.4461  -12.6807   19.5227 C   0  0  0  0  0  0
  -29.5282  -12.5910   18.2784 C   0  0  0  0  0  0
  -28.0646  -12.3372   18.6852 C   0  0  0  0  0  0
  -27.6266  -13.2535   19.8540 C   0  0  2  0  0  0
  -28.6679  -13.2824   20.9943 C   0  0  0  0  0  0
  -25.2257  -13.7799   20.5701 C   0  0  0  0  0  0
  -24.1636  -13.0106   20.9327 C   0  0  0  0  0  0
  -24.6370  -11.6685   20.8816 C   0  0  0  0  0  0
  -23.9043  -10.4120   21.0442 C   0  0  0  0  0  0
  -24.3616   -9.4068   21.9205 C   0  0  0  0  0  0
  -23.6290   -8.2126   22.0758 C   0  0  0  0  0  0
  -22.4258   -8.0195   21.3566 C   0  0  0  0  0  0
  -21.9887   -9.0156   20.4677 C   0  0  0  0  0  0
  -22.7213  -10.2022   20.3093 C   0  0  0  0  0  0
  -21.6818   -6.0716   22.5309 C   0  0  0  0  0  0
  -21.3958   -6.5624   23.8238 C   0  0  0  0  0  0
  -21.3671   -5.6782   24.9211 C   0  0  0  0  0  0
  -21.6085   -4.3051   24.7252 C   0  0  0  0  0  0
  -21.8814   -3.8143   23.4366 C   0  0  0  0  0  0
  -21.9165   -4.6953   22.3424 C   0  0  0  0  0  0
  -22.7684  -13.4998   21.1913 C   0  0  0  0  0  0
  -22.1611   -4.2157   21.0993 F   0  0  0  0  0  0
  -21.5673   -3.4528   25.7759 F   0  0  0  0  0  0
  -29.9423  -13.7735   20.4337 N   0  0  0  0  0  0
  -26.2836  -12.9246   20.3305 N   0  0  0  0  0  0
  -25.9334  -11.6363   20.5809 N   0  0  0  0  0  0
  -22.0256  -12.8149   22.0514 N   0  0  0  0  0  0
  -25.3448  -15.1356   20.3942 N   0  0  0  0  0  0
  -31.6757  -15.0890   20.0100 O   0  0  0  0  0  0
  -21.6577   -6.8843   21.4281 O   0  0  0  0  0  0
  -22.3438  -14.5295   20.6706 O   0  0  0  0  0  0
  -24.6434  -31.8432   23.1835 C   0  0  0  0  0  0
  -25.9223  -32.4664   23.8231 C   0  0  1  0  0  0
  -27.2523  -27.1268   20.1847 C   0  0  0  0  0  0
  -25.5979  -33.8469   24.2160 N   0  0  0  0  0  0
  -23.4518  -30.4559   21.5241 C   0  0  2  0  0  0
  -24.9109  -28.8709   20.1174 C   0  0  0  0  0  0
  -22.7608  -29.4542   22.4824 C   0  0  0  0  0  0
  -18.0351  -28.1398   22.8492 C   0  0  0  0  0  0
  -24.1508  -36.7229   23.2635 C   0  0  0  0  0  0
  -26.0071  -30.7135   21.3876 C   0  0  0  0  0  0
  -26.0846  -29.3196   20.7376 C   0  0  0  0  0  0
  -27.2542  -28.4690   20.7458 C   0  0  0  0  0  0
  -26.0463  -26.7701   19.5392 C   0  0  0  0  0  0
  -24.9050  -27.6075   19.5034 C   0  0  0  0  0  0
  -23.6815  -29.7719   20.1505 C   0  0  0  0  0  0
  -25.4136  -36.2989   24.0302 C   0  0  1  0  0  0
  -20.5978  -28.3709   23.1247 C   0  0  2  0  0  0
  -20.6843  -26.9421   22.5357 C   0  0  0  0  0  0
  -19.5747  -26.6359   21.5228 C   0  0  0  0  0  0
  -18.1956  -26.7929   22.1656 C   0  0  0  0  0  0
  -19.1602  -28.8874   23.2876 C   0  0  0  0  0  0
  -18.9547  -30.1463   23.8914 C   0  0  0  0  0  0
  -17.6536  -30.6578   24.0625 C   0  0  0  0  0  0
  -25.9089  -34.9377   23.5029 C   0  0  0  0  0  0
  -16.5428  -29.9101   23.6360 C   0  0  0  0  0  0
  -16.7333  -28.6541   23.0352 C   0  0  0  0  0  0
  -26.4548  -31.6509   25.0658 C   0  0  0  0  0  0
  -25.3756  -31.3698   26.1356 C   0  0  0  0  0  0
  -27.0430  -30.2897   24.6277 C   0  0  0  0  0  0
  -27.6073  -32.4291   25.7455 C   0  0  0  0  0  0
  -27.5586  -37.1753   24.8461 C   0  0  0  0  0  0
  -21.4306  -29.3059   22.3628 N   0  0  0  0  0  0
  -26.4284  -37.3718   23.9404 N   0  0  0  0  0  0
  -24.7201  -31.0261   22.0868 N   0  0  0  0  0  0
  -23.4257  -28.8077   23.2976 O   0  0  0  0  0  0
  -28.3478  -26.1844   20.1527 O   0  0  0  0  0  0
  -26.5663  -34.8910   22.4616 O   0  0  0  0  0  0
  -23.5554  -32.1319   23.7022 O   0  0  0  0  0  0
  -28.2313  -19.8505   20.3724 C   0  0  0  0  0  0
  -30.2743  -19.2836   20.8099 C   0  0  0  0  0  0
  -29.4798  -20.4641   20.6010 C   0  0  0  0  0  0
  -28.2738  -18.4752   20.5179 C   0  0  0  0  0  0
  -28.7515  -23.3416   20.0762 C   0  0  0  0  0  0
  -30.3351  -22.4941   22.0284 C   0  0  0  0  0  0
  -26.1551  -18.0189   19.3072 C   0  0  0  0  0  0
  -26.2420  -17.9172   21.8352 C   0  0  0  0  0  0
  -29.3183  -16.1488   22.6046 C   0  0  0  0  0  0
  -28.3344  -24.7730   20.8283 C   0  0  0  0  0  0
  -29.7382  -22.1165   20.6633 C   0  0  1  0  0  0
  -27.0318  -17.6665   20.5277 C   0  0  0  0  0  0
  -30.0358  -16.4946   21.2834 C   0  0  2  0  0  0
  -29.5787  -17.9909   20.7886 N   0  0  0  0  0  0
  -28.2594  -23.1554   18.9600 O   0  0  0  0  0  0
  -31.4716  -12.8584   19.2013 H   0  0  0  0  0  0
  -30.4754  -11.7233   20.0428 H   0  0  0  0  0  0
  -29.8777  -11.8075   17.6030 H   0  0  0  0  0  0
  -29.5886  -13.5299   17.7252 H   0  0  0  0  0  0
  -27.9788  -11.2913   18.9772 H   0  0  0  0  0  0
  -27.3997  -12.4655   17.8293 H   0  0  0  0  0  0
  -27.5816  -14.2633   19.4460 H   0  0  0  0  0  0
  -28.7894  -12.2883   21.4261 H   0  0  0  0  0  0
  -28.3113  -13.9089   21.8039 H   0  0  0  0  0  0
  -25.2766   -9.5536   22.4777 H   0  0  0  0  0  0
  -23.9997   -7.4528   22.7479 H   0  0  0  0  0  0
  -21.0797   -8.8690   19.9038 H   0  0  0  0  0  0
  -22.3644  -10.9577   19.6230 H   0  0  0  0  0  0
  -21.1861   -7.6115   23.9725 H   0  0  0  0  0  0
  -21.1528   -6.0515   25.9119 H   0  0  0  0  0  0
  -22.0584   -2.7605   23.2852 H   0  0  0  0  0  0
  -22.3755  -11.9817   22.5015 H   0  0  0  0  0  0
  -21.0913  -13.1356   22.2642 H   0  0  0  0  0  0
  -24.5594  -15.7564   20.5490 H   0  0  0  0  0  0
  -26.1518  -15.6016   20.0067 H   0  0  0  0  0  0
  -26.7275  -32.5288   23.0942 H   0  0  0  0  0  0
  -25.0135  -33.9603   25.0309 H   0  0  0  0  0  0
  -22.7517  -31.2810   21.3600 H   0  0  0  0  0  0
  -23.3790  -35.9541   23.3251 H   0  0  0  0  0  0
  -24.3602  -36.8917   22.2065 H   0  0  0  0  0  0
  -23.7271  -37.6411   23.6714 H   0  0  0  0  0  0
  -26.1721  -31.4618   20.6134 H   0  0  0  0  0  0
  -26.8742  -30.7629   22.0343 H   0  0  0  0  0  0
  -28.1545  -28.8226   21.2254 H   0  0  0  0  0  0
  -25.9810  -25.8044   19.0607 H   0  0  0  0  0  0
  -24.0116  -27.2556   19.0050 H   0  0  0  0  0  0
  -23.8132  -30.5414   19.3885 H   0  0  0  0  0  0
  -22.7978  -29.2081   19.8449 H   0  0  0  0  0  0
  -25.1324  -36.1768   25.0789 H   0  0  0  0  0  0
  -21.0134  -28.3270   24.1334 H   0  0  0  0  0  0
  -20.5843  -26.2299   23.3565 H   0  0  0  0  0  0
  -21.6657  -26.7487   22.1014 H   0  0  0  0  0  0
  -19.6879  -25.6259   21.1280 H   0  0  0  0  0  0
  -19.6613  -27.3160   20.6739 H   0  0  0  0  0  0
  -17.4191  -26.6722   21.4070 H   0  0  0  0  0  0
  -18.0322  -26.0082   22.9083 H   0  0  0  0  0  0
  -19.8047  -30.7271   24.2252 H   0  0  0  0  0  0
  -17.5100  -31.6210   24.5329 H   0  0  0  0  0  0
  -15.5433  -30.2983   23.7725 H   0  0  0  0  0  0
  -15.8744  -28.0892   22.6998 H   0  0  0  0  0  0
  -24.5928  -30.7044   25.7664 H   0  0  0  0  0  0
  -24.8962  -32.2891   26.4726 H   0  0  0  0  0  0
  -25.8051  -30.8886   27.0154 H   0  0  0  0  0  0
  -26.3050  -29.6581   24.1313 H   0  0  0  0  0  0
  -27.4063  -29.7197   25.4838 H   0  0  0  0  0  0
  -27.8944  -30.4085   23.9579 H   0  0  0  0  0  0
  -27.2630  -33.3598   26.1969 H   0  0  0  0  0  0
  -28.3917  -32.6852   25.0318 H   0  0  0  0  0  0
  -28.0718  -31.8481   26.5426 H   0  0  0  0  0  0
  -28.2529  -38.0116   24.7543 H   0  0  0  0  0  0
  -28.1156  -36.2645   24.6212 H   0  0  0  0  0  0
  -27.2316  -37.1289   25.8866 H   0  0  0  0  0  0
  -20.9471  -29.8786   21.6860 H   0  0  0  0  0  0
  -26.0129  -38.2767   24.1445 H   0  0  0  0  0  0
  -27.3213  -20.4072   20.1990 H   0  0  0  0  0  0
  -31.3251  -19.2500   21.0678 H   0  0  0  0  0  0
  -31.1874  -21.8571   22.2635 H   0  0  0  0  0  0
  -29.6078  -22.3850   22.8319 H   0  0  0  0  0  0
  -30.7078  -23.5179   22.0350 H   0  0  0  0  0  0
  -26.7038  -17.8762   18.3740 H   0  0  0  0  0  0
  -25.8146  -19.0545   19.3318 H   0  0  0  0  0  0
  -25.2526  -17.4149   19.2523 H   0  0  0  0  0  0
  -26.8367  -17.6997   22.7212 H   0  0  0  0  0  0
  -25.3349  -17.3170   21.8989 H   0  0  0  0  0  0
  -25.9366  -18.9620   21.9243 H   0  0  0  0  0  0
  -29.4828  -16.9099   23.3688 H   0  0  0  0  0  0
  -29.6734  -15.2081   23.0250 H   0  0  0  0  0  0
  -28.2460  -16.0476   22.4646 H   0  0  0  0  0  0
  -28.9481  -24.8564   21.7242 H   0  0  0  0  0  0
  -27.3232  -24.6098   21.1963 H   0  0  0  0  0  0
  -30.5806  -22.2113   19.9785 H   0  0  0  0  0  0
  -27.3264  -16.6243   20.4675 H   0  0  0  0  0  0
  -31.0254  -16.7432   21.6689 H   0  0  0  0  0  0
  1 25  1  0  0  0
  1 30  2  0  0  0
  1 83  1  0  0  0
  2  3  1  0  0  0
  2 25  1  0  0  0
  2 86  1  0  0  0
  2 87  1  0  0  0
  3  4  1  0  0  0
  3 88  1  0  0  0
  3 89  1  0  0  0
  4  5  1  0  0  0
  4 90  1  0  0  0
  4 91  1  0  0  0
  5  6  1  0  0  0
  5 26  1  0  0  0
  5 92  1  0  0  0
  6 25  1  0  0  0
  6 93  1  0  0  0
  6 94  1  0  0  0
  7  8  2  0  0  0
  7 26  1  0  0  0
  7 29  1  0  0  0
  8  9  1  0  0  0
  8 22  1  0  0  0
  9 10  1  0  0  0
  9 27  2  0  0  0
 10 11  2  0  0  0
 10 15  1  0  0  0
 11 12  1  0  0  0
 11 95  1  0  0  0
 12 13  2  0  0  0
 12 96  1  0  0  0
 13 14  1  0  0  0
 13 31  1  0  0  0
 14 15  2  0  0  0
 14 97  1  0  0  0
 15 98  1  0  0  0
 16 17  2  0  0  0
 16 21  1  0  0  0
 16 31  1  0  0  0
 17 18  1  0  0  0
 17 99  1  0  0  0
 18 19  2  0  0  0
 18100  1  0  0  0
 19 20  1  0  0  0
 19 24  1  0  0  0
 20 21  2  0  0  0
 20101  1  0  0  0
 21 23  1  0  0  0
 22 28  1  0  0  0
 22 32  2  0  0  0
 26 27  1  0  0  0
 28102  1  0  0  0
 28103  1  0  0  0
 29104  1  0  0  0
 29105  1  0  0  0
 33 34  1  0  0  0
 33 66  1  0  0  0
 33 70  2  0  0  0
 34 36  1  0  0  0
 34 59  1  0  0  0
 34106  1  0  0  0
 35 44  2  0  0  0
 35 45  1  0  0  0
 35 68  1  0  0  0
 36 56  1  0  0  0
 36107  1  0  0  0
 37 39  1  0  0  0
 37 47  1  0  0  0
 37 66  1  0  0  0
 37108  1  0  0  0
 38 43  2  0  0  0
 38 46  1  0  0  0
 38 47  1  0  0  0
 39 64  1  0  0  0
 39 67  2  0  0  0
 40 52  1  0  0  0
 40 53  2  0  0  0
 40 58  1  0  0  0
 41109  1  0  0  0
 41110  1  0  0  0
 41111  1  0  0  0
 41 48  1  0  0  0
 42 43  1  0  0  0
 42 66  1  0  0  0
 42112  1  0  0  0
 42113  1  0  0  0
 43 44  1  0  0  0
 44114  1  0  0  0
 45 46  2  0  0  0
 45115  1  0  0  0
 46116  1  0  0  0
 47117  1  0  0  0
 47118  1  0  0  0
 48 56  1  0  0  0
 48 65  1  0  0  0
 48119  1  0  0  0
 49 50  1  0  0  0
 49 53  1  0  0  0
 49 64  1  0  0  0
 49120  1  0  0  0
 50 51  1  0  0  0
 50121  1  0  0  0
 50122  1  0  0  0
 51 52  1  0  0  0
 51123  1  0  0  0
 51124  1  0  0  0
 52125  1  0  0  0
 52126  1  0  0  0
 53 54  1  0  0  0
 54 55  2  0  0  0
 54127  1  0  0  0
 55 57  1  0  0  0
 55128  1  0  0  0
 56 69  2  0  0  0
 57 58  2  0  0  0
 57129  1  0  0  0
 58130  1  0  0  0
 59 60  1  0  0  0
 59 61  1  0  0  0
 59 62  1  0  0  0
 60131  1  0  0  0
 60132  1  0  0  0
 60133  1  0  0  0
 61134  1  0  0  0
 61135  1  0  0  0
 61136  1  0  0  0
 62137  1  0  0  0
 62138  1  0  0  0
 62139  1  0  0  0
 63 65  1  0  0  0
 63140  1  0  0  0
 63141  1  0  0  0
 63142  1  0  0  0
 64143  1  0  0  0
 65144  1  0  0  0
 68 80  1  0  0  0
 71 73  1  0  0  0
 71 74  2  0  0  0
 71145  1  0  0  0
 72 73  2  0  0  0
 72 84  1  0  0  0
 72146  1  0  0  0
 73 81  1  0  0  0
 74 82  1  0  0  0
 74 84  1  0  0  0
 75 80  1  0  0  0
 75 81  1  0  0  0
 75 85  2  0  0  0
 76147  1  0  0  0
 76148  1  0  0  0
 76149  1  0  0  0
 76 81  1  0  0  0
 77150  1  0  0  0
 77151  1  0  0  0
 77152  1  0  0  0
 77 82  1  0  0  0
 78 82  1  0  0  0
 78153  1  0  0  0
 78154  1  0  0  0
 78155  1  0  0  0
 79156  1  0  0  0
 79157  1  0  0  0
 79158  1  0  0  0
 79 83  1  0  0  0
 80159  1  0  0  0
 80160  1  0  0  0
 81161  1  0  0  0
 82162  1  0  0  0
 83 84  1  0  0  0
 83163  1  0  0  0
M  ISO  4   1 100  68 101  80 101  83 100
M  END
> <chiral flag>
0

> <version>
0

> <s_m_source_file>
/data/baiqing/PycharmProjects/Reinvent-master-3.2/result/LINK_invent/BTK/process_docking_weight1_custom_product_contain_oxygen_bond_distance_aromatic_linkinvent_7_9_3/rearranged_h_0136.sdf

> <i_m_source_file_index>
34

> <r_mmod_Potential_Energy-OPLS-2005>
851.804504394531

> <r_mmod_Stretch_Energy-OPLS-2005>
331.869476318359

> <r_mmod_Bend_Energy-OPLS-2005>
375.982879638672

> <r_mmod_Torsional_Energy-OPLS-2005>
253.680389404297

> <r_mmod_Improper_Torsional_Energy-OPLS-2005>
6.79676914215088

> <r_mmod_Van_der_Waal_Energy-OPLS-2005>
116.561515808105

> <r_mmod_Electrostatic_Energy-OPLS-2005>
-253.639678955078

> <r_mmod_Solvation_Energy-OPLS-2005>
-203.61083984375

> <b_mmod_Minimization_Converged-OPLS-2005>
0

> <r_mmod_RMS_Derivative-OPLS-2005>
5.32080459594727

$$$$
34
                    3D
 Structure written by MMmdl.
166174  0  0  1  0            999 V2000
  -30.6964  -14.5230   20.5441 C   0  0  0  0  0  0
  -30.4217  -12.3280   19.4483 C   0  0  0  0  0  0
  -29.4986  -12.4858   18.2223 C   0  0  0  0  0  0
  -28.0214  -12.3313   18.6310 C   0  0  0  0  0  0
  -27.6527  -13.1930   19.8665 C   0  0  2  0  0  0
  -28.6950  -13.0371   20.9973 C   0  0  0  0  0  0
  -25.2521  -13.8065   20.5730 C   0  0  0  0  0  0
  -24.1796  -13.0364   20.9227 C   0  0  0  0  0  0
  -24.6369  -11.6846   20.8753 C   0  0  0  0  0  0
  -23.9046  -10.4259   21.0405 C   0  0  0  0  0  0
  -24.3616   -9.4183   21.9164 C   0  0  0  0  0  0
  -23.6292   -8.2223   22.0736 C   0  0  0  0  0  0
  -22.4275   -8.0265   21.3534 C   0  0  0  0  0  0
  -21.9904   -9.0243   20.4631 C   0  0  0  0  0  0
  -22.7229  -10.2115   20.3043 C   0  0  0  0  0  0
  -21.6851   -6.0742   22.5284 C   0  0  0  0  0  0
  -21.4010   -6.5647   23.8215 C   0  0  0  0  0  0
  -21.3661   -5.6788   24.9175 C   0  0  0  0  0  0
  -21.6049   -4.3058   24.7214 C   0  0  0  0  0  0
  -21.8824   -3.8156   23.4335 C   0  0  0  0  0  0
  -21.9198   -4.6973   22.3401 C   0  0  0  0  0  0
  -22.7830  -13.5170   21.1874 C   0  0  0  0  0  0
  -22.1683   -4.2172   21.0972 F   0  0  0  0  0  0
  -21.5611   -3.4536   25.7724 F   0  0  0  0  0  0
  -30.0235  -13.3410   20.4400 N   0  0  0  0  0  0
  -26.2958  -12.9250   20.3325 N   0  0  0  0  0  0
  -25.9280  -11.6419   20.5750 N   0  0  0  0  0  0
  -22.0468  -12.8191   22.0427 N   0  0  0  0  0  0
  -25.4101  -15.1783   20.4221 N   0  0  0  0  0  0
  -31.8426  -14.6602   20.1099 O   0  0  0  0  0  0
  -21.6637   -6.8877   21.4245 O   0  0  0  0  0  0
  -22.3524  -14.5479   20.6703 O   0  0  0  0  0  0
  -24.6146  -31.8652   23.2058 C   0  0  0  0  0  0
  -25.9033  -32.4801   23.8369 C   0  0  1  0  0  0
  -27.2540  -27.4342   20.1047 C   0  0  0  0  0  0
  -25.5881  -33.8600   24.2301 N   0  0  0  0  0  0
  -23.4017  -30.4864   21.5467 C   0  0  2  0  0  0
  -24.8516  -28.9484   20.1117 C   0  0  0  0  0  0
  -22.7395  -29.4642   22.4991 C   0  0  0  0  0  0
  -18.0281  -28.1371   22.8477 C   0  0  0  0  0  0
  -24.1481  -36.7315   23.2648 C   0  0  0  0  0  0
  -25.9249  -30.8344   21.3499 C   0  0  0  0  0  0
  -26.0064  -29.4637   20.7113 C   0  0  0  0  0  0
  -27.2046  -28.7124   20.7076 C   0  0  0  0  0  0
  -26.0790  -26.9357   19.4896 C   0  0  0  0  0  0
  -24.8846  -27.6839   19.4964 C   0  0  0  0  0  0
  -23.6082  -29.8102   20.1640 C   0  0  0  0  0  0
  -25.4093  -36.3107   24.0348 C   0  0  1  0  0  0
  -20.5861  -28.3656   23.1321 C   0  0  2  0  0  0
  -20.6745  -26.9385   22.5436 C   0  0  0  0  0  0
  -19.5735  -26.6381   21.5211 C   0  0  0  0  0  0
  -18.1913  -26.7916   22.1608 C   0  0  0  0  0  0
  -19.1524  -28.8831   23.2900 C   0  0  0  0  0  0
  -18.9453  -30.1438   23.8911 C   0  0  0  0  0  0
  -17.6458  -30.6574   24.0577 C   0  0  0  0  0  0
  -25.9025  -34.9475   23.5132 C   0  0  0  0  0  0
  -16.5350  -29.9079   23.6340 C   0  0  0  0  0  0
  -16.7273  -28.6502   23.0338 C   0  0  0  0  0  0
  -26.4485  -31.6572   25.0683 C   0  0  0  0  0  0
  -25.3796  -31.3662   26.1468 C   0  0  0  0  0  0
  -27.0298  -30.3039   24.5972 C   0  0  0  0  0  0
  -27.6077  -32.4285   25.7429 C   0  0  0  0  0  0
  -27.5566  -37.1795   24.8474 C   0  0  0  0  0  0
  -21.4120  -29.3023   22.3723 N   0  0  0  0  0  0
  -26.4279  -37.3788   23.9437 N   0  0  0  0  0  0
  -24.6663  -31.0764   22.0941 N   0  0  0  0  0  0
  -23.4169  -28.8205   23.3054 O   0  0  0  0  0  0
  -28.4511  -26.7381   20.1440 O   0  0  0  0  0  0
  -26.5601  -34.8934   22.4702 O   0  0  0  0  0  0
  -23.5346  -32.1390   23.7465 O   0  0  0  0  0  0
  -29.7221  -19.2895   20.1641 C   0  0  0  0  0  0
  -31.6109  -17.4699   21.1331 C   0  0  0  0  0  0
  -29.3381  -17.9495   20.4127 C   0  0  0  0  0  0
  -31.0424  -19.7270   20.3644 C   0  0  0  0  0  0
  -30.3085  -16.9876   20.8374 C   0  0  0  0  0  0
  -31.9792  -18.8139   20.8958 C   0  0  0  0  0  0
  -27.9308  -17.6177   20.0787 C   0  0  0  0  0  0
  -29.8948  -23.1677   20.1589 C   0  0  0  0  0  0
  -26.8549  -18.5934   20.5486 C   0  0  0  0  0  0
  -30.6948  -21.9546   22.2182 C   0  0  0  0  0  0
  -32.3403  -23.2783   20.8598 C   0  0  0  0  0  0
  -31.4548  -21.1261   19.8892 C   0  0  0  0  0  0
  -29.7065  -24.6585   20.5187 C   0  0  0  0  0  0
  -28.4688  -25.3302   19.8655 C   0  0  0  0  0  0
  -31.0852  -22.3704   20.7818 C   0  0  0  0  0  0
  -29.9859  -15.5837   21.0029 N   0  0  0  0  0  0
  -27.6046  -16.6199   19.4401 O   0  0  0  0  0  0
  -29.0805  -22.6077   19.4176 O   0  0  0  0  0  0
  -33.2532  -19.2044   21.1424 F   0  0  0  0  0  0
  -31.4659  -12.4228   19.1474 H   0  0  0  0  0  0
  -30.3250  -11.3290   19.8779 H   0  0  0  0  0  0
  -29.7519  -11.7436   17.4655 H   0  0  0  0  0  0
  -29.6579  -13.4617   17.7589 H   0  0  0  0  0  0
  -27.8519  -11.2768   18.8533 H   0  0  0  0  0  0
  -27.3693  -12.5717   17.7899 H   0  0  0  0  0  0
  -27.6796  -14.2211   19.5264 H   0  0  0  0  0  0
  -28.6833  -12.0180   21.3879 H   0  0  0  0  0  0
  -28.4464  -13.6781   21.8439 H   0  0  0  0  0  0
  -25.2768   -9.5692   22.4725 H   0  0  0  0  0  0
  -24.0008   -7.4631   22.7467 H   0  0  0  0  0  0
  -21.0812   -8.8758   19.8953 H   0  0  0  0  0  0
  -22.3666  -10.9660   19.6161 H   0  0  0  0  0  0
  -21.2009   -7.6154   23.9728 H   0  0  0  0  0  0
  -21.1473   -6.0514   25.9071 H   0  0  0  0  0  0
  -22.0600   -2.7620   23.2823 H   0  0  0  0  0  0
  -22.4055  -11.9857   22.4867 H   0  0  0  0  0  0
  -21.1078  -13.1211   22.2601 H   0  0  0  0  0  0
  -24.6407  -15.8229   20.5494 H   0  0  0  0  0  0
  -26.2378  -15.6190   20.0187 H   0  0  0  0  0  0
  -26.7096  -32.5540   23.1139 H   0  0  0  0  0  0
  -25.0093  -33.9752   25.0480 H   0  0  0  0  0  0
  -22.6926  -31.3045   21.4044 H   0  0  0  0  0  0
  -23.3739  -35.9658   23.3332 H   0  0  0  0  0  0
  -24.3596  -36.8906   22.2068 H   0  0  0  0  0  0
  -23.7228  -37.6524   23.6640 H   0  0  0  0  0  0
  -26.0147  -31.5846   20.5630 H   0  0  0  0  0  0
  -26.8214  -30.9107   21.9529 H   0  0  0  0  0  0
  -28.0947  -29.1024   21.1825 H   0  0  0  0  0  0
  -26.0714  -25.9774   18.9936 H   0  0  0  0  0  0
  -24.0025  -27.2779   19.0220 H   0  0  0  0  0  0
  -23.7039  -30.5784   19.3960 H   0  0  0  0  0  0
  -22.7314  -29.2235   19.8798 H   0  0  0  0  0  0
  -25.1256  -36.1986   25.0835 H   0  0  0  0  0  0
  -20.9977  -28.3226   24.1428 H   0  0  0  0  0  0
  -20.5626  -26.2257   23.3626 H   0  0  0  0  0  0
  -21.6610  -26.7394   22.1231 H   0  0  0  0  0  0
  -19.6901  -25.6305   21.1198 H   0  0  0  0  0  0
  -19.6675  -27.3228   20.6772 H   0  0  0  0  0  0
  -17.4178  -26.6709   21.4006 H   0  0  0  0  0  0
  -18.0288  -26.0039   22.8983 H   0  0  0  0  0  0
  -19.7951  -30.7256   24.2242 H   0  0  0  0  0  0
  -17.5028  -31.6249   24.5193 H   0  0  0  0  0  0
  -15.5351  -30.2993   23.7649 H   0  0  0  0  0  0
  -15.8671  -28.0855   22.7009 H   0  0  0  0  0  0
  -24.5979  -30.6966   25.7852 H   0  0  0  0  0  0
  -24.8972  -32.2803   26.4934 H   0  0  0  0  0  0
  -25.8204  -30.8858   27.0214 H   0  0  0  0  0  0
  -26.2770  -29.6776   24.1151 H   0  0  0  0  0  0
  -27.4274  -29.7288   25.4347 H   0  0  0  0  0  0
  -27.8515  -30.4422   23.8942 H   0  0  0  0  0  0
  -27.2704  -33.3582   26.2035 H   0  0  0  0  0  0
  -28.3850  -32.6839   25.0211 H   0  0  0  0  0  0
  -28.0774  -31.8385   26.5313 H   0  0  0  0  0  0
  -28.2591  -38.0080   24.7495 H   0  0  0  0  0  0
  -28.1036  -36.2608   24.6301 H   0  0  0  0  0  0
  -27.2308  -37.1465   25.8885 H   0  0  0  0  0  0
  -20.9282  -29.8782   21.6973 H   0  0  0  0  0  0
  -26.0178  -38.2871   24.1443 H   0  0  0  0  0  0
  -29.0046  -19.9914   19.7588 H   0  0  0  0  0  0
  -32.3673  -16.8015   21.5167 H   0  0  0  0  0  0
  -27.2404  -19.2656   21.3147 H   0  0  0  0  0  0
  -26.0082  -18.0443   20.9598 H   0  0  0  0  0  0
  -26.5058  -19.1964   19.7117 H   0  0  0  0  0  0
  -30.5186  -22.8258   22.8521 H   0  0  0  0  0  0
  -31.4774  -21.3629   22.6978 H   0  0  0  0  0  0
  -29.7790  -21.3635   22.2342 H   0  0  0  0  0  0
  -32.2222  -24.0826   21.5865 H   0  0  0  0  0  0
  -32.5818  -23.7315   19.8950 H   0  0  0  0  0  0
  -33.2198  -22.7160   21.1726 H   0  0  0  0  0  0
  -31.0749  -21.2465   18.8730 H   0  0  0  0  0  0
  -32.5331  -21.0907   19.7299 H   0  0  0  0  0  0
  -29.6414  -24.7448   21.6031 H   0  0  0  0  0  0
  -30.6025  -25.1968   20.2127 H   0  0  0  0  0  0
  -28.4894  -25.1911   18.7841 H   0  0  0  0  0  0
  -27.5677  -24.8455   20.2447 H   0  0  0  0  0  0
  -29.0313  -15.3631   21.2438 H   0  0  0  0  0  0
  1 25  1  0  0  0
  1 30  2  0  0  0
  1 86  1  0  0  0
  2  3  1  0  0  0
  2 25  1  0  0  0
  2 90  1  0  0  0
  2 91  1  0  0  0
  3  4  1  0  0  0
  3 92  1  0  0  0
  3 93  1  0  0  0
  4  5  1  0  0  0
  4 94  1  0  0  0
  4 95  1  0  0  0
  5  6  1  0  0  0
  5 26  1  0  0  0
  5 96  1  0  0  0
  6 25  1  0  0  0
  6 97  1  0  0  0
  6 98  1  0  0  0
  7  8  2  0  0  0
  7 26  1  0  0  0
  7 29  1  0  0  0
  8  9  1  0  0  0
  8 22  1  0  0  0
  9 10  1  0  0  0
  9 27  2  0  0  0
 10 11  2  0  0  0
 10 15  1  0  0  0
 11 12  1  0  0  0
 11 99  1  0  0  0
 12 13  2  0  0  0
 12100  1  0  0  0
 13 14  1  0  0  0
 13 31  1  0  0  0
 14 15  2  0  0  0
 14101  1  0  0  0
 15102  1  0  0  0
 16 17  2  0  0  0
 16 21  1  0  0  0
 16 31  1  0  0  0
 17 18  1  0  0  0
 17103  1  0  0  0
 18 19  2  0  0  0
 18104  1  0  0  0
 19 20  1  0  0  0
 19 24  1  0  0  0
 20 21  2  0  0  0
 20105  1  0  0  0
 21 23  1  0  0  0
 22 28  1  0  0  0
 22 32  2  0  0  0
 26 27  1  0  0  0
 28106  1  0  0  0
 28107  1  0  0  0
 29108  1  0  0  0
 29109  1  0  0  0
 33 34  1  0  0  0
 33 66  1  0  0  0
 33 70  2  0  0  0
 34 36  1  0  0  0
 34 59  1  0  0  0
 34110  1  0  0  0
 35 44  2  0  0  0
 35 45  1  0  0  0
 35 68  1  0  0  0
 36 56  1  0  0  0
 36111  1  0  0  0
 37 39  1  0  0  0
 37 47  1  0  0  0
 37 66  1  0  0  0
 37112  1  0  0  0
 38 43  2  0  0  0
 38 46  1  0  0  0
 38 47  1  0  0  0
 39 64  1  0  0  0
 39 67  2  0  0  0
 40 52  1  0  0  0
 40 53  2  0  0  0
 40 58  1  0  0  0
 41113  1  0  0  0
 41114  1  0  0  0
 41115  1  0  0  0
 41 48  1  0  0  0
 42 43  1  0  0  0
 42 66  1  0  0  0
 42116  1  0  0  0
 42117  1  0  0  0
 43 44  1  0  0  0
 44118  1  0  0  0
 45 46  2  0  0  0
 45119  1  0  0  0
 46120  1  0  0  0
 47121  1  0  0  0
 47122  1  0  0  0
 48 56  1  0  0  0
 48 65  1  0  0  0
 48123  1  0  0  0
 49 50  1  0  0  0
 49 53  1  0  0  0
 49 64  1  0  0  0
 49124  1  0  0  0
 50 51  1  0  0  0
 50125  1  0  0  0
 50126  1  0  0  0
 51 52  1  0  0  0
 51127  1  0  0  0
 51128  1  0  0  0
 52129  1  0  0  0
 52130  1  0  0  0
 53 54  1  0  0  0
 54 55  2  0  0  0
 54131  1  0  0  0
 55 57  1  0  0  0
 55132  1  0  0  0
 56 69  2  0  0  0
 57 58  2  0  0  0
 57133  1  0  0  0
 58134  1  0  0  0
 59 60  1  0  0  0
 59 61  1  0  0  0
 59 62  1  0  0  0
 60135  1  0  0  0
 60136  1  0  0  0
 60137  1  0  0  0
 61138  1  0  0  0
 61139  1  0  0  0
 61140  1  0  0  0
 62141  1  0  0  0
 62142  1  0  0  0
 62143  1  0  0  0
 63 65  1  0  0  0
 63144  1  0  0  0
 63145  1  0  0  0
 63146  1  0  0  0
 64147  1  0  0  0
 65148  1  0  0  0
 68 84  1  0  0  0
 71 73  2  0  0  0
 71 74  1  0  0  0
 71149  1  0  0  0
 72 75  2  0  0  0
 72 76  1  0  0  0
 72150  1  0  0  0
 73 75  1  0  0  0
 73 77  1  0  0  0
 74 76  2  0  0  0
 74 82  1  0  0  0
 75 86  1  0  0  0
 76 89  1  0  0  0
 77 79  1  0  0  0
 77 87  2  0  0  0
 78 83  1  0  0  0
 78 85  1  0  0  0
 78 88  2  0  0  0
 79151  1  0  0  0
 79152  1  0  0  0
 79153  1  0  0  0
 80154  1  0  0  0
 80155  1  0  0  0
 80156  1  0  0  0
 80 85  1  0  0  0
 81 85  1  0  0  0
 81157  1  0  0  0
 81158  1  0  0  0
 81159  1  0  0  0
 82 85  1  0  0  0
 82160  1  0  0  0
 82161  1  0  0  0
 83 84  1  0  0  0
 83162  1  0  0  0
 83163  1  0  0  0
 84164  1  0  0  0
 84165  1  0  0  0
 86166  1  0  0  0
M  ISO  4   1 100  68 101  84 101  86 100
M  END
> <chiral flag>
0

> <version>
0

> <s_m_source_file>
/data/baiqing/PycharmProjects/Reinvent-master-3.2/result/LINK_invent/BTK/process_docking_weight1_custom_product_contain_oxygen_bond_distance_aromatic_linkinvent_7_9_3/rearranged_h_0136.sdf

> <i_m_source_file_index>
35

> <r_mmod_Potential_Energy-OPLS-2005>
45.6080360412598

> <r_mmod_Stretch_Energy-OPLS-2005>
47.2470512390137

> <r_mmod_Bend_Energy-OPLS-2005>
111.593124389648

> <r_mmod_Torsional_Energy-OPLS-2005>
266.313598632812

> <r_mmod_Improper_Torsional_Energy-OPLS-2005>
5.36459159851074

> <r_mmod_Van_der_Waal_Energy-OPLS-2005>
165.790130615234

> <r_mmod_Electrostatic_Energy-OPLS-2005>
-368.887329101562

> <r_mmod_Solvation_Energy-OPLS-2005>
-200.315414428711

> <b_mmod_Minimization_Converged-OPLS-2005>
0

> <r_mmod_RMS_Derivative-OPLS-2005>
3.48610663414001

$$$$
35
                    3D
 Structure written by MMmdl.
171179  0  0  1  0            999 V2000
  -30.6066  -14.7397   20.4227 C   0  0  0  0  0  0
  -30.4363  -12.4340   19.4859 C   0  0  0  0  0  0
  -29.5137  -12.4454   18.2463 C   0  0  0  0  0  0
  -28.0337  -12.3158   18.6547 C   0  0  0  0  0  0
  -27.6438  -13.2285   19.8483 C   0  0  2  0  0  0
  -28.6868  -13.1682   20.9848 C   0  0  0  0  0  0
  -25.2532  -13.8201   20.5694 C   0  0  0  0  0  0
  -24.1817  -13.0444   20.9207 C   0  0  0  0  0  0
  -24.6403  -11.6924   20.8758 C   0  0  0  0  0  0
  -23.9085  -10.4296   21.0417 C   0  0  0  0  0  0
  -24.3636   -9.4205   21.9191 C   0  0  0  0  0  0
  -23.6306   -8.2244   22.0760 C   0  0  0  0  0  0
  -22.4289   -8.0285   21.3548 C   0  0  0  0  0  0
  -21.9928   -9.0261   20.4653 C   0  0  0  0  0  0
  -22.7261  -10.2140   20.3063 C   0  0  0  0  0  0
  -21.6858   -6.0740   22.5277 C   0  0  0  0  0  0
  -21.4017   -6.5645   23.8210 C   0  0  0  0  0  0
  -21.3659   -5.6800   24.9172 C   0  0  0  0  0  0
  -21.6043   -4.3061   24.7225 C   0  0  0  0  0  0
  -21.8820   -3.8151   23.4346 C   0  0  0  0  0  0
  -21.9197   -4.6968   22.3400 C   0  0  0  0  0  0
  -22.7840  -13.5228   21.1859 C   0  0  0  0  0  0
  -22.1671   -4.2154   21.0978 F   0  0  0  0  0  0
  -21.5626   -3.4542   25.7736 F   0  0  0  0  0  0
  -29.9893  -13.5095   20.4014 N   0  0  0  0  0  0
  -26.2954  -12.9402   20.3285 N   0  0  0  0  0  0
  -25.9330  -11.6550   20.5774 N   0  0  0  0  0  0
  -22.0487  -12.8219   22.0417 N   0  0  0  0  0  0
  -25.4229  -15.1918   20.4096 N   0  0  0  0  0  0
  -31.8078  -14.8218   20.1525 O   0  0  0  0  0  0
  -21.6647   -6.8885   21.4242 O   0  0  0  0  0  0
  -22.3523  -14.5528   20.6698 O   0  0  0  0  0  0
  -24.6297  -31.8571   23.2015 C   0  0  0  0  0  0
  -25.9134  -32.4756   23.8349 C   0  0  1  0  0  0
  -27.2102  -27.2722   20.1494 C   0  0  0  0  0  0
  -25.5939  -33.8557   24.2269 N   0  0  0  0  0  0
  -23.4258  -30.4805   21.5441 C   0  0  2  0  0  0
  -24.8737  -28.9308   20.1116 C   0  0  0  0  0  0
  -22.7496  -29.4613   22.4923 C   0  0  0  0  0  0
  -18.0293  -28.1390   22.8480 C   0  0  0  0  0  0
  -24.1495  -36.7286   23.2642 C   0  0  0  0  0  0
  -25.9695  -30.7744   21.3810 C   0  0  0  0  0  0
  -26.0421  -29.3956   20.7304 C   0  0  0  0  0  0
  -27.2154  -28.5773   20.7425 C   0  0  0  0  0  0
  -26.0379  -26.8917   19.4652 C   0  0  0  0  0  0
  -24.8757  -27.6850   19.4662 C   0  0  0  0  0  0
  -23.6440  -29.8163   20.1593 C   0  0  0  0  0  0
  -25.4117  -36.3065   24.0328 C   0  0  1  0  0  0
  -20.5895  -28.3693   23.1273 C   0  0  2  0  0  0
  -20.6778  -26.9409   22.5412 C   0  0  0  0  0  0
  -19.5753  -26.6383   21.5213 C   0  0  0  0  0  0
  -18.1933  -26.7930   22.1625 C   0  0  0  0  0  0
  -19.1545  -28.8856   23.2873 C   0  0  0  0  0  0
  -18.9471  -30.1457   23.8889 C   0  0  0  0  0  0
  -17.6468  -30.6585   24.0559 C   0  0  0  0  0  0
  -25.9059  -34.9436   23.5096 C   0  0  0  0  0  0
  -16.5359  -29.9084   23.6332 C   0  0  0  0  0  0
  -16.7279  -28.6507   23.0345 C   0  0  0  0  0  0
  -26.4506  -31.6566   25.0726 C   0  0  0  0  0  0
  -25.3734  -31.3716   26.1447 C   0  0  0  0  0  0
  -27.0354  -30.2984   24.6199 C   0  0  0  0  0  0
  -27.6056  -32.4302   25.7505 C   0  0  0  0  0  0
  -27.5577  -37.1796   24.8464 C   0  0  0  0  0  0
  -21.4205  -29.3045   22.3665 N   0  0  0  0  0  0
  -26.4290  -37.3761   23.9410 N   0  0  0  0  0  0
  -24.6937  -31.0553   22.0984 N   0  0  0  0  0  0
  -23.4199  -28.8152   23.3020 O   0  0  0  0  0  0
  -28.2990  -26.3736   20.1501 O   0  0  0  0  0  0
  -26.5623  -34.8905   22.4662 O   0  0  0  0  0  0
  -23.5453  -32.1393   23.7319 O   0  0  0  0  0  0
  -29.8784  -19.8158   18.6352 C   0  0  0  0  0  0
  -30.3094  -18.6617   17.9681 C   0  0  0  0  0  0
  -29.4611  -18.4604   20.6084 C   0  0  0  0  0  0
  -29.4355  -19.7719   19.9677 C   0  0  0  0  0  0
  -30.2976  -17.3911   18.5804 C   0  0  0  0  0  0
  -29.9087  -17.2342   19.9477 C   0  0  0  0  0  0
  -30.6088  -16.2255   17.6585 C   0  0  0  0  0  0
  -30.9919  -23.2744   23.0365 C   0  0  0  0  0  0
  -31.1253  -22.2113   20.2917 C   0  0  0  0  0  0
  -26.8739  -24.4169   21.0197 C   0  0  0  0  0  0
  -28.6866  -25.5704   22.3067 C   0  0  0  0  0  0
  -28.8159  -21.1317   20.5360 C   0  0  0  0  0  0
  -29.8507  -22.4356   22.4284 C   0  0  0  0  0  0
  -29.2631  -23.9348   20.2929 C   0  0  0  0  0  0
  -29.7093  -22.4512   20.8801 C   0  0  1  0  0  0
  -28.2679  -25.0673   20.9108 C   0  0  0  0  0  0
  -29.8186  -15.8770   20.5680 N   0  0  0  0  0  0
  -31.4755  -12.5587   19.1768 H   0  0  0  0  0  0
  -30.3889  -11.4677   19.9907 H   0  0  0  0  0  0
  -29.7814  -11.6249   17.5796 H   0  0  0  0  0  0
  -29.6643  -13.3517   17.6663 H   0  0  0  0  0  0
  -27.8670  -11.2723   18.9246 H   0  0  0  0  0  0
  -27.3880  -12.5133   17.7984 H   0  0  0  0  0  0
  -27.6398  -14.2474   19.4599 H   0  0  0  0  0  0
  -28.7163  -12.1755   21.4365 H   0  0  0  0  0  0
  -28.4264  -13.8609   21.7867 H   0  0  0  0  0  0
  -25.2781   -9.5673   22.4768 H   0  0  0  0  0  0
  -24.0005   -7.4636   22.7488 H   0  0  0  0  0  0
  -21.0856   -8.8788   19.8964 H   0  0  0  0  0  0
  -22.3724  -10.9680   19.6174 H   0  0  0  0  0  0
  -21.2012   -7.6156   23.9710 H   0  0  0  0  0  0
  -21.1483   -6.0534   25.9075 H   0  0  0  0  0  0
  -22.0600   -2.7614   23.2846 H   0  0  0  0  0  0
  -22.4107  -11.9885   22.4809 H   0  0  0  0  0  0
  -21.1096  -13.1233   22.2602 H   0  0  0  0  0  0
  -24.6535  -15.8442   20.5151 H   0  0  0  0  0  0
  -26.2685  -15.6311   20.0684 H   0  0  0  0  0  0
  -26.7202  -32.5411   23.1094 H   0  0  0  0  0  0
  -25.0071  -33.9699   25.0401 H   0  0  0  0  0  0
  -22.7219  -31.3024   21.3994 H   0  0  0  0  0  0
  -23.3749  -35.9627   23.3298 H   0  0  0  0  0  0
  -24.3595  -36.8916   22.2061 H   0  0  0  0  0  0
  -23.7259  -37.6489   23.6669 H   0  0  0  0  0  0
  -26.1054  -31.5327   20.6085 H   0  0  0  0  0  0
  -26.8484  -30.8257   22.0119 H   0  0  0  0  0  0
  -28.1103  -28.9250   21.2392 H   0  0  0  0  0  0
  -26.0110  -25.9502   18.9374 H   0  0  0  0  0  0
  -23.9885  -27.3312   18.9591 H   0  0  0  0  0  0
  -23.7652  -30.5933   19.4038 H   0  0  0  0  0  0
  -22.7625  -29.2500   19.8535 H   0  0  0  0  0  0
  -25.1297  -36.1909   25.0819 H   0  0  0  0  0  0
  -20.9983  -28.3266   24.1396 H   0  0  0  0  0  0
  -20.5686  -26.2298   23.3616 H   0  0  0  0  0  0
  -21.6645  -26.7436   22.1200 H   0  0  0  0  0  0
  -19.6918  -25.6296   21.1240 H   0  0  0  0  0  0
  -19.6695  -27.3192   20.6741 H   0  0  0  0  0  0
  -17.4205  -26.6674   21.4030 H   0  0  0  0  0  0
  -18.0330  -26.0082   22.9029 H   0  0  0  0  0  0
  -19.7948  -30.7270   24.2255 H   0  0  0  0  0  0
  -17.5027  -31.6262   24.5162 H   0  0  0  0  0  0
  -15.5359  -30.2979   23.7663 H   0  0  0  0  0  0
  -15.8684  -28.0823   22.7057 H   0  0  0  0  0  0
  -24.5916  -30.7052   25.7780 H   0  0  0  0  0  0
  -24.8916  -32.2887   26.4844 H   0  0  0  0  0  0
  -25.8057  -30.8917   27.0236 H   0  0  0  0  0  0
  -26.2937  -29.6736   24.1210 H   0  0  0  0  0  0
  -27.4030  -29.7235   25.4708 H   0  0  0  0  0  0
  -27.8814  -30.4261   23.9444 H   0  0  0  0  0  0
  -27.2655  -33.3601   26.2071 H   0  0  0  0  0  0
  -28.3873  -32.6862   25.0342 H   0  0  0  0  0  0
  -28.0714  -31.8437   26.5436 H   0  0  0  0  0  0
  -28.2578  -38.0104   24.7491 H   0  0  0  0  0  0
  -28.1080  -36.2626   24.6295 H   0  0  0  0  0  0
  -27.2293  -37.1447   25.8867 H   0  0  0  0  0  0
  -20.9390  -29.8768   21.6869 H   0  0  0  0  0  0
  -26.0167  -38.2834   24.1402 H   0  0  0  0  0  0
  -29.8447  -20.7468   18.0864 H   0  0  0  0  0  0
  -30.6002  -18.7574   16.9308 H   0  0  0  0  0  0
  -29.0895  -18.3893   21.6209 H   0  0  0  0  0  0
  -30.6020  -16.5294   16.6114 H   0  0  0  0  0  0
  -29.8407  -15.4653   17.7619 H   0  0  0  0  0  0
  -31.5896  -15.7991   17.8601 H   0  0  0  0  0  0
  -31.9547  -22.7801   22.9040 H   0  0  0  0  0  0
  -30.8469  -23.4044   24.1091 H   0  0  0  0  0  0
  -31.0747  -24.2608   22.5858 H   0  0  0  0  0  0
  -31.5620  -21.2733   20.6369 H   0  0  0  0  0  0
  -31.8316  -22.9975   20.5584 H   0  0  0  0  0  0
  -31.1084  -22.1971   19.2031 H   0  0  0  0  0  0
  -26.9119  -23.5282   21.6502 H   0  0  0  0  0  0
  -26.5018  -24.0929   20.0486 H   0  0  0  0  0  0
  -26.1372  -25.0825   21.4708 H   0  0  0  0  0  0
  -28.0154  -26.3542   22.6594 H   0  0  0  0  0  0
  -29.6876  -26.0003   22.2880 H   0  0  0  0  0  0
  -28.6565  -24.8013   23.0720 H   0  0  0  0  0  0
  -28.1818  -20.8759   21.3861 H   0  0  0  0  0  0
  -28.0948  -21.4426   19.7794 H   0  0  0  0  0  0
  -28.8966  -22.6997   22.8808 H   0  0  0  0  0  0
  -30.0212  -21.4093   22.7590 H   0  0  0  0  0  0
  -28.9333  -23.7632   19.2675 H   0  0  0  0  0  0
  -30.1900  -24.4943   20.1624 H   0  0  0  0  0  0
  -28.9389  -15.6913   21.0250 H   0  0  0  0  0  0
  1 25  1  0  0  0
  1 30  2  0  0  0
  1 87  1  0  0  0
  2  3  1  0  0  0
  2 25  1  0  0  0
  2 88  1  0  0  0
  2 89  1  0  0  0
  3  4  1  0  0  0
  3 90  1  0  0  0
  3 91  1  0  0  0
  4  5  1  0  0  0
  4 92  1  0  0  0
  4 93  1  0  0  0
  5  6  1  0  0  0
  5 26  1  0  0  0
  5 94  1  0  0  0
  6 25  1  0  0  0
  6 95  1  0  0  0
  6 96  1  0  0  0
  7  8  2  0  0  0
  7 26  1  0  0  0
  7 29  1  0  0  0
  8  9  1  0  0  0
  8 22  1  0  0  0
  9 10  1  0  0  0
  9 27  2  0  0  0
 10 11  2  0  0  0
 10 15  1  0  0  0
 11 12  1  0  0  0
 11 97  1  0  0  0
 12 13  2  0  0  0
 12 98  1  0  0  0
 13 14  1  0  0  0
 13 31  1  0  0  0
 14 15  2  0  0  0
 14 99  1  0  0  0
 15100  1  0  0  0
 16 17  2  0  0  0
 16 21  1  0  0  0
 16 31  1  0  0  0
 17 18  1  0  0  0
 17101  1  0  0  0
 18 19  2  0  0  0
 18102  1  0  0  0
 19 20  1  0  0  0
 19 24  1  0  0  0
 20 21  2  0  0  0
 20103  1  0  0  0
 21 23  1  0  0  0
 22 28  1  0  0  0
 22 32  2  0  0  0
 26 27  1  0  0  0
 28104  1  0  0  0
 28105  1  0  0  0
 29106  1  0  0  0
 29107  1  0  0  0
 33 34  1  0  0  0
 33 66  1  0  0  0
 33 70  2  0  0  0
 34 36  1  0  0  0
 34 59  1  0  0  0
 34108  1  0  0  0
 35 44  2  0  0  0
 35 45  1  0  0  0
 35 68  1  0  0  0
 36 56  1  0  0  0
 36109  1  0  0  0
 37 39  1  0  0  0
 37 47  1  0  0  0
 37 66  1  0  0  0
 37110  1  0  0  0
 38 43  2  0  0  0
 38 46  1  0  0  0
 38 47  1  0  0  0
 39 64  1  0  0  0
 39 67  2  0  0  0
 40 52  1  0  0  0
 40 53  2  0  0  0
 40 58  1  0  0  0
 41111  1  0  0  0
 41112  1  0  0  0
 41113  1  0  0  0
 41 48  1  0  0  0
 42 43  1  0  0  0
 42 66  1  0  0  0
 42114  1  0  0  0
 42115  1  0  0  0
 43 44  1  0  0  0
 44116  1  0  0  0
 45 46  2  0  0  0
 45117  1  0  0  0
 46118  1  0  0  0
 47119  1  0  0  0
 47120  1  0  0  0
 48 56  1  0  0  0
 48 65  1  0  0  0
 48121  1  0  0  0
 49 50  1  0  0  0
 49 53  1  0  0  0
 49 64  1  0  0  0
 49122  1  0  0  0
 50 51  1  0  0  0
 50123  1  0  0  0
 50124  1  0  0  0
 51 52  1  0  0  0
 51125  1  0  0  0
 51126  1  0  0  0
 52127  1  0  0  0
 52128  1  0  0  0
 53 54  1  0  0  0
 54 55  2  0  0  0
 54129  1  0  0  0
 55 57  1  0  0  0
 55130  1  0  0  0
 56 69  2  0  0  0
 57 58  2  0  0  0
 57131  1  0  0  0
 58132  1  0  0  0
 59 60  1  0  0  0
 59 61  1  0  0  0
 59 62  1  0  0  0
 60133  1  0  0  0
 60134  1  0  0  0
 60135  1  0  0  0
 61136  1  0  0  0
 61137  1  0  0  0
 61138  1  0  0  0
 62139  1  0  0  0
 62140  1  0  0  0
 62141  1  0  0  0
 63 65  1  0  0  0
 63142  1  0  0  0
 63143  1  0  0  0
 63144  1  0  0  0
 64145  1  0  0  0
 65146  1  0  0  0
 68 86  1  0  0  0
 71 72  2  0  0  0
 71 74  1  0  0  0
 71147  1  0  0  0
 72 75  1  0  0  0
 72148  1  0  0  0
 73 74  2  0  0  0
 73 76  1  0  0  0
 73149  1  0  0  0
 74 82  1  0  0  0
 75 76  2  0  0  0
 75 77  1  0  0  0
 76 87  1  0  0  0
 77150  1  0  0  0
 77151  1  0  0  0
 77152  1  0  0  0
 78 83  1  0  0  0
 78153  1  0  0  0
 78154  1  0  0  0
 78155  1  0  0  0
 79156  1  0  0  0
 79157  1  0  0  0
 79158  1  0  0  0
 79 85  1  0  0  0
 80159  1  0  0  0
 80160  1  0  0  0
 80161  1  0  0  0
 80 86  1  0  0  0
 81 86  1  0  0  0
 81162  1  0  0  0
 81163  1  0  0  0
 81164  1  0  0  0
 82 85  1  0  0  0
 82165  1  0  0  0
 82166  1  0  0  0
 83 85  1  0  0  0
 83167  1  0  0  0
 83168  1  0  0  0
 84 85  1  0  0  0
 84 86  1  0  0  0
 84169  1  0  0  0
 84170  1  0  0  0
 87171  1  0  0  0
M  ISO  4   1 100  68 101  86 101  87 100
M  END
> <chiral flag>
0

> <version>
0

> <s_m_source_file>
/data/baiqing/PycharmProjects/Reinvent-master-3.2/result/LINK_invent/BTK/process_docking_weight1_custom_product_contain_oxygen_bond_distance_aromatic_linkinvent_7_9_3/rearranged_h_0136.sdf

> <i_m_source_file_index>
36

> <r_mmod_Potential_Energy-OPLS-2005>
294.105010986328

> <r_mmod_Stretch_Energy-OPLS-2005>
143.931655883789

> <r_mmod_Bend_Energy-OPLS-2005>
212.785995483398

> <r_mmod_Torsional_Energy-OPLS-2005>
283.763000488281

> <r_mmod_Improper_Torsional_Energy-OPLS-2005>
6.03692817687988

> <r_mmod_Van_der_Waal_Energy-OPLS-2005>
153.528167724609

> <r_mmod_Electrostatic_Energy-OPLS-2005>
-399.582122802734

> <r_mmod_Solvation_Energy-OPLS-2005>
-189.859146118164

> <b_mmod_Minimization_Converged-OPLS-2005>
0

> <r_mmod_RMS_Derivative-OPLS-2005>
0.963352024555206

$$$$
36
                    3D
 Structure written by MMmdl.
165173  0  0  1  0            999 V2000
  -30.7385  -14.6203   20.4002 C   0  0  0  0  0  0
  -30.4018  -12.3636   19.4714 C   0  0  0  0  0  0
  -29.4933  -12.4257   18.2298 C   0  0  0  0  0  0
  -28.0241  -12.2418   18.6519 C   0  0  0  0  0  0
  -27.6182  -13.1737   19.8181 C   0  0  2  0  0  0
  -28.6733  -13.2241   20.9499 C   0  0  0  0  0  0
  -25.2521  -13.8016   20.5725 C   0  0  0  0  0  0
  -24.1769  -13.0345   20.9241 C   0  0  0  0  0  0
  -24.6290  -11.6802   20.8798 C   0  0  0  0  0  0
  -23.8970  -10.4220   21.0451 C   0  0  0  0  0  0
  -24.3549   -9.4152   21.9227 C   0  0  0  0  0  0
  -23.6239   -8.2187   22.0772 C   0  0  0  0  0  0
  -22.4232   -8.0237   21.3543 C   0  0  0  0  0  0
  -21.9850   -9.0210   20.4657 C   0  0  0  0  0  0
  -22.7158  -10.2094   20.3085 C   0  0  0  0  0  0
  -21.6829   -6.0714   22.5283 C   0  0  0  0  0  0
  -21.3998   -6.5633   23.8212 C   0  0  0  0  0  0
  -21.3653   -5.6792   24.9177 C   0  0  0  0  0  0
  -21.6040   -4.3052   24.7235 C   0  0  0  0  0  0
  -21.8817   -3.8135   23.4357 C   0  0  0  0  0  0
  -21.9181   -4.6945   22.3405 C   0  0  0  0  0  0
  -22.7818  -13.5222   21.1862 C   0  0  0  0  0  0
  -22.1652   -4.2127   21.0982 F   0  0  0  0  0  0
  -21.5631   -3.4540   25.7748 F   0  0  0  0  0  0
  -29.9983  -13.4672   20.3673 N   0  0  0  0  0  0
  -26.2822  -12.9079   20.3223 N   0  0  0  0  0  0
  -25.9180  -11.6295   20.5778 N   0  0  0  0  0  0
  -22.0429  -12.8260   22.0413 N   0  0  0  0  0  0
  -25.4265  -15.1740   20.4154 N   0  0  0  0  0  0
  -31.9590  -14.5279   20.2738 O   0  0  0  0  0  0
  -21.6597   -6.8842   21.4238 O   0  0  0  0  0  0
  -22.3550  -14.5541   20.6687 O   0  0  0  0  0  0
  -24.6181  -31.8656   23.2065 C   0  0  0  0  0  0
  -25.9056  -32.4794   23.8373 C   0  0  1  0  0  0
  -27.2366  -27.4000   20.1051 C   0  0  0  0  0  0
  -25.5908  -33.8597   24.2316 N   0  0  0  0  0  0
  -23.4069  -30.4889   21.5465 C   0  0  2  0  0  0
  -24.8520  -28.9476   20.1142 C   0  0  0  0  0  0
  -22.7435  -29.4655   22.4968 C   0  0  0  0  0  0
  -18.0288  -28.1383   22.8490 C   0  0  0  0  0  0
  -24.1486  -36.7305   23.2638 C   0  0  0  0  0  0
  -25.9373  -30.8230   21.3605 C   0  0  0  0  0  0
  -26.0128  -29.4529   20.7111 C   0  0  0  0  0  0
  -27.2034  -28.6862   20.7018 C   0  0  0  0  0  0
  -26.0501  -26.9149   19.5056 C   0  0  0  0  0  0
  -24.8673  -27.6798   19.5093 C   0  0  0  0  0  0
  -23.6158  -29.8179   20.1624 C   0  0  0  0  0  0
  -25.4104  -36.3091   24.0338 C   0  0  1  0  0  0
  -20.5883  -28.3674   23.1303 C   0  0  2  0  0  0
  -20.6775  -26.9409   22.5406 C   0  0  0  0  0  0
  -19.5745  -26.6388   21.5213 C   0  0  0  0  0  0
  -18.1931  -26.7928   22.1634 C   0  0  0  0  0  0
  -19.1537  -28.8843   23.2893 C   0  0  0  0  0  0
  -18.9463  -30.1451   23.8900 C   0  0  0  0  0  0
  -17.6462  -30.6586   24.0568 C   0  0  0  0  0  0
  -25.9041  -34.9459   23.5125 C   0  0  0  0  0  0
  -16.5350  -29.9084   23.6329 C   0  0  0  0  0  0
  -16.7276  -28.6503   23.0341 C   0  0  0  0  0  0
  -26.4482  -31.6558   25.0698 C   0  0  0  0  0  0
  -25.3748  -31.3657   26.1445 C   0  0  0  0  0  0
  -27.0302  -30.2998   24.6072 C   0  0  0  0  0  0
  -27.6065  -32.4268   25.7464 C   0  0  0  0  0  0
  -27.5575  -37.1807   24.8464 C   0  0  0  0  0  0
  -21.4161  -29.3051   22.3721 N   0  0  0  0  0  0
  -26.4281  -37.3780   23.9410 N   0  0  0  0  0  0
  -24.6722  -31.0752   22.0957 N   0  0  0  0  0  0
  -23.4203  -28.8207   23.3022 O   0  0  0  0  0  0
  -28.4174  -26.6698   20.1513 O   0  0  0  0  0  0
  -26.5588  -34.8914   22.4679 O   0  0  0  0  0  0
  -23.5364  -32.1406   23.7450 O   0  0  0  0  0  0
  -29.0729  -18.1152   21.4316 C   0  0  0  0  0  0
  -29.6358  -18.7114   23.7183 C   0  0  0  0  0  0
  -30.6281  -16.7237   22.6894 C   0  0  0  0  0  0
  -28.9333  -18.9960   22.5309 C   0  0  0  0  0  0
  -29.9187  -16.9606   21.4898 C   0  0  0  0  0  0
  -30.4823  -17.5882   23.7939 C   0  0  0  0  0  0
  -27.9224  -20.0763   22.5398 C   0  0  0  0  0  0
  -29.1421  -21.9902   21.4171 C   0  0  0  0  0  0
  -31.2516  -16.9242   19.4513 C   0  0  0  0  0  0
  -28.9464  -16.1591   19.2741 C   0  0  0  0  0  0
  -29.0653  -23.5397   21.3263 C   0  0  0  0  0  0
  -28.0599  -24.1256   20.2857 C   0  0  0  0  0  0
  -28.5340  -25.3890   19.4948 C   0  0  0  0  0  0
  -30.1678  -16.1091   20.2156 C   0  0  0  0  0  0
  -28.0466  -21.3576   22.0983 N   0  0  0  0  0  0
  -26.7622  -19.7355   23.1073 N   0  3  0  0  0  0
  -30.1071  -21.3557   20.9829 O   0  0  0  0  0  0
  -31.1592  -17.3345   24.9391 F   0  0  0  0  0  0
  -31.4482  -12.4186   19.1665 H   0  0  0  0  0  0
  -30.2912  -11.4047   19.9799 H   0  0  0  0  0  0
  -29.7736  -11.6420   17.5248 H   0  0  0  0  0  0
  -29.6261  -13.3705   17.7042 H   0  0  0  0  0  0
  -27.9007  -11.2005   18.9536 H   0  0  0  0  0  0
  -27.3610  -12.3904   17.7981 H   0  0  0  0  0  0
  -27.5310  -14.1269   19.3306 H   0  0  0  0  0  0
  -28.6835  -12.2884   21.5109 H   0  0  0  0  0  0
  -28.4240  -14.0107   21.6641 H   0  0  0  0  0  0
  -25.2691   -9.5642   22.4807 H   0  0  0  0  0  0
  -23.9938   -7.4571   22.7496 H   0  0  0  0  0  0
  -21.0773   -8.8726   19.8964 H   0  0  0  0  0  0
  -22.3613  -10.9644   19.6206 H   0  0  0  0  0  0
  -21.1985   -7.6140   23.9707 H   0  0  0  0  0  0
  -21.1481   -6.0529   25.9081 H   0  0  0  0  0  0
  -22.0594   -2.7596   23.2863 H   0  0  0  0  0  0
  -22.4007  -11.9919   22.4819 H   0  0  0  0  0  0
  -21.1058  -13.1344   22.2583 H   0  0  0  0  0  0
  -24.6576  -15.8255   20.5277 H   0  0  0  0  0  0
  -26.2756  -15.6149   20.0888 H   0  0  0  0  0  0
  -26.7135  -32.5501   23.1135 H   0  0  0  0  0  0
  -25.0081  -33.9758   25.0474 H   0  0  0  0  0  0
  -22.6958  -31.3055   21.4053 H   0  0  0  0  0  0
  -23.3735  -35.9654   23.3313 H   0  0  0  0  0  0
  -24.3578  -36.8917   22.2051 H   0  0  0  0  0  0
  -23.7259  -37.6519   23.6649 H   0  0  0  0  0  0
  -26.0491  -31.5850   20.5876 H   0  0  0  0  0  0
  -26.8270  -30.8821   21.9760 H   0  0  0  0  0  0
  -28.0996  -29.0766   21.1639 H   0  0  0  0  0  0
  -26.0086  -25.9392   19.0453 H   0  0  0  0  0  0
  -23.9720  -27.2822   19.0509 H   0  0  0  0  0  0
  -23.7291  -30.5920   19.4030 H   0  0  0  0  0  0
  -22.7389  -29.2392   19.8654 H   0  0  0  0  0  0
  -25.1280  -36.1948   25.0830 H   0  0  0  0  0  0
  -20.9971  -28.3239   24.1422 H   0  0  0  0  0  0
  -20.5681  -26.2283   23.3594 H   0  0  0  0  0  0
  -21.6640  -26.7449   22.1191 H   0  0  0  0  0  0
  -19.6900  -25.6300   21.1237 H   0  0  0  0  0  0
  -19.6674  -27.3203   20.6748 H   0  0  0  0  0  0
  -17.4196  -26.6664   21.4046 H   0  0  0  0  0  0
  -18.0345  -26.0075   22.9040 H   0  0  0  0  0  0
  -19.7934  -30.7271   24.2256 H   0  0  0  0  0  0
  -17.5016  -31.6263   24.5176 H   0  0  0  0  0  0
  -15.5348  -30.2990   23.7643 H   0  0  0  0  0  0
  -15.8674  -28.0833   22.7030 H   0  0  0  0  0  0
  -24.5895  -30.7042   25.7762 H   0  0  0  0  0  0
  -24.8970  -32.2811   26.4943 H   0  0  0  0  0  0
  -25.8098  -30.8773   27.0173 H   0  0  0  0  0  0
  -26.2838  -29.6771   24.1119 H   0  0  0  0  0  0
  -27.4067  -29.7219   25.4524 H   0  0  0  0  0  0
  -27.8673  -30.4313   23.9207 H   0  0  0  0  0  0
  -27.2686  -33.3545   26.2090 H   0  0  0  0  0  0
  -28.3853  -32.6869   25.0275 H   0  0  0  0  0  0
  -28.0763  -31.8363   26.5345 H   0  0  0  0  0  0
  -28.2596  -38.0098   24.7488 H   0  0  0  0  0  0
  -28.1065  -36.2627   24.6304 H   0  0  0  0  0  0
  -27.2298  -37.1483   25.8871 H   0  0  0  0  0  0
  -20.9324  -29.8782   21.6947 H   0  0  0  0  0  0
  -26.0168  -38.2858   24.1409 H   0  0  0  0  0  0
  -28.5095  -18.3514   20.5411 H   0  0  0  0  0  0
  -29.5109  -19.3403   24.5884 H   0  0  0  0  0  0
  -31.3137  -15.8947   22.7748 H   0  0  0  0  0  0
  -31.5250  -16.4526   18.5058 H   0  0  0  0  0  0
  -32.1635  -17.0365   20.0394 H   0  0  0  0  0  0
  -30.9181  -17.9368   19.2193 H   0  0  0  0  0  0
  -28.8538  -17.1147   18.7589 H   0  0  0  0  0  0
  -28.0247  -16.0411   19.8384 H   0  0  0  0  0  0
  -29.0109  -15.4195   18.4774 H   0  0  0  0  0  0
  -30.0706  -23.8844   21.0806 H   0  0  0  0  0  0
  -28.8567  -23.9465   22.3160 H   0  0  0  0  0  0
  -27.1038  -24.3290   20.7668 H   0  0  0  0  0  0
  -27.8458  -23.3497   19.5495 H   0  0  0  0  0  0
  -28.0410  -25.4290   18.5228 H   0  0  0  0  0  0
  -29.5860  -25.2578   19.2398 H   0  0  0  0  0  0
  -27.2679  -21.9307   22.3675 H   0  0  0  0  0  0
  -26.6676  -18.7948   23.4609 H   0  0  0  0  0  0
  -25.9621  -20.3441   23.1758 H   0  0  0  0  0  0
  1 25  1  0  0  0
  1 30  2  0  0  0
  1 84  1  0  0  0
  2  3  1  0  0  0
  2 25  1  0  0  0
  2 89  1  0  0  0
  2 90  1  0  0  0
  3  4  1  0  0  0
  3 91  1  0  0  0
  3 92  1  0  0  0
  4  5  1  0  0  0
  4 93  1  0  0  0
  4 94  1  0  0  0
  5  6  1  0  0  0
  5 26  1  0  0  0
  5 95  1  0  0  0
  6 25  1  0  0  0
  6 96  1  0  0  0
  6 97  1  0  0  0
  7  8  2  0  0  0
  7 26  1  0  0  0
  7 29  1  0  0  0
  8  9  1  0  0  0
  8 22  1  0  0  0
  9 10  1  0  0  0
  9 27  2  0  0  0
 10 11  2  0  0  0
 10 15  1  0  0  0
 11 12  1  0  0  0
 11 98  1  0  0  0
 12 13  2  0  0  0
 12 99  1  0  0  0
 13 14  1  0  0  0
 13 31  1  0  0  0
 14 15  2  0  0  0
 14100  1  0  0  0
 15101  1  0  0  0
 16 17  2  0  0  0
 16 21  1  0  0  0
 16 31  1  0  0  0
 17 18  1  0  0  0
 17102  1  0  0  0
 18 19  2  0  0  0
 18103  1  0  0  0
 19 20  1  0  0  0
 19 24  1  0  0  0
 20 21  2  0  0  0
 20104  1  0  0  0
 21 23  1  0  0  0
 22 28  1  0  0  0
 22 32  2  0  0  0
 26 27  1  0  0  0
 28105  1  0  0  0
 28106  1  0  0  0
 29107  1  0  0  0
 29108  1  0  0  0
 33 34  1  0  0  0
 33 66  1  0  0  0
 33 70  2  0  0  0
 34 36  1  0  0  0
 34 59  1  0  0  0
 34109  1  0  0  0
 35 44  2  0  0  0
 35 45  1  0  0  0
 35 68  1  0  0  0
 36 56  1  0  0  0
 36110  1  0  0  0
 37 39  1  0  0  0
 37 47  1  0  0  0
 37 66  1  0  0  0
 37111  1  0  0  0
 38 43  2  0  0  0
 38 46  1  0  0  0
 38 47  1  0  0  0
 39 64  1  0  0  0
 39 67  2  0  0  0
 40 52  1  0  0  0
 40 53  2  0  0  0
 40 58  1  0  0  0
 41112  1  0  0  0
 41113  1  0  0  0
 41114  1  0  0  0
 41 48  1  0  0  0
 42 43  1  0  0  0
 42 66  1  0  0  0
 42115  1  0  0  0
 42116  1  0  0  0
 43 44  1  0  0  0
 44117  1  0  0  0
 45 46  2  0  0  0
 45118  1  0  0  0
 46119  1  0  0  0
 47120  1  0  0  0
 47121  1  0  0  0
 48 56  1  0  0  0
 48 65  1  0  0  0
 48122  1  0  0  0
 49 50  1  0  0  0
 49 53  1  0  0  0
 49 64  1  0  0  0
 49123  1  0  0  0
 50 51  1  0  0  0
 50124  1  0  0  0
 50125  1  0  0  0
 51 52  1  0  0  0
 51126  1  0  0  0
 51127  1  0  0  0
 52128  1  0  0  0
 52129  1  0  0  0
 53 54  1  0  0  0
 54 55  2  0  0  0
 54130  1  0  0  0
 55 57  1  0  0  0
 55131  1  0  0  0
 56 69  2  0  0  0
 57 58  2  0  0  0
 57132  1  0  0  0
 58133  1  0  0  0
 59 60  1  0  0  0
 59 61  1  0  0  0
 59 62  1  0  0  0
 60134  1  0  0  0
 60135  1  0  0  0
 60136  1  0  0  0
 61137  1  0  0  0
 61138  1  0  0  0
 61139  1  0  0  0
 62140  1  0  0  0
 62141  1  0  0  0
 62142  1  0  0  0
 63 65  1  0  0  0
 63143  1  0  0  0
 63144  1  0  0  0
 63145  1  0  0  0
 64146  1  0  0  0
 65147  1  0  0  0
 68 83  1  0  0  0
 71 74  2  0  0  0
 71 75  1  0  0  0
 71148  1  0  0  0
 72 74  1  0  0  0
 72 76  2  0  0  0
 72149  1  0  0  0
 73 75  2  0  0  0
 73 76  1  0  0  0
 73150  1  0  0  0
 74 77  1  0  0  0
 75 84  1  0  0  0
 76 88  1  0  0  0
 77 85  1  0  0  0
 77 86  2  0  0  0
 78 81  1  0  0  0
 78 85  1  0  0  0
 78 87  2  0  0  0
 79151  1  0  0  0
 79152  1  0  0  0
 79153  1  0  0  0
 79 84  1  0  0  0
 80 84  1  0  0  0
 80154  1  0  0  0
 80155  1  0  0  0
 80156  1  0  0  0
 81 82  1  0  0  0
 81157  1  0  0  0
 81158  1  0  0  0
 82 83  1  0  0  0
 82159  1  0  0  0
 82160  1  0  0  0
 83161  1  0  0  0
 83162  1  0  0  0
 85163  1  0  0  0
 86164  1  0  0  0
 86165  1  0  0  0
M  CHG  1  86   1
M  ISO  4   1 100  68 101  83 101  84 100
M  END
> <chiral flag>
0

> <version>
0

> <s_m_source_file>
/data/baiqing/PycharmProjects/Reinvent-master-3.2/result/LINK_invent/BTK/process_docking_weight1_custom_product_contain_oxygen_bond_distance_aromatic_linkinvent_7_9_3/rearranged_h_0136.sdf

> <i_m_source_file_index>
37

> <r_mmod_Potential_Energy-OPLS-2005>
-146.522888183594

> <r_mmod_Stretch_Energy-OPLS-2005>
55.8628120422363

> <r_mmod_Bend_Energy-OPLS-2005>
170.016632080078

> <r_mmod_Torsional_Energy-OPLS-2005>
241.611938476562

> <r_mmod_Improper_Torsional_Energy-OPLS-2005>
10.3398523330688

> <r_mmod_Van_der_Waal_Energy-OPLS-2005>
163.661880493164

> <r_mmod_Electrostatic_Energy-OPLS-2005>
-401.076416015625

> <r_mmod_Solvation_Energy-OPLS-2005>
-444.508850097656

> <b_mmod_Minimization_Converged-OPLS-2005>
0

> <r_mmod_RMS_Derivative-OPLS-2005>
2.11438846588135

$$$$
37
                    3D
 Structure written by MMmdl.
165173  0  0  1  0            999 V2000
  -30.6595  -14.6139   20.5379 C   0  0  0  0  0  0
  -30.4208  -12.3803   19.4614 C   0  0  0  0  0  0
  -29.4965  -12.5097   18.2306 C   0  0  0  0  0  0
  -28.0213  -12.3448   18.6428 C   0  0  0  0  0  0
  -27.6455  -13.2218   19.8661 C   0  0  2  0  0  0
  -28.6876  -13.0774   20.9993 C   0  0  0  0  0  0
  -25.2373  -13.8098   20.5503 C   0  0  0  0  0  0
  -24.1742  -13.0374   20.9200 C   0  0  0  0  0  0
  -24.6378  -11.6872   20.8807 C   0  0  0  0  0  0
  -23.9064  -10.4254   21.0452 C   0  0  0  0  0  0
  -24.3611   -9.4163   21.9210 C   0  0  0  0  0  0
  -23.6286   -8.2204   22.0760 C   0  0  0  0  0  0
  -22.4265   -8.0262   21.3549 C   0  0  0  0  0  0
  -21.9912   -9.0238   20.4647 C   0  0  0  0  0  0
  -22.7247  -10.2118   20.3074 C   0  0  0  0  0  0
  -21.6837   -6.0732   22.5286 C   0  0  0  0  0  0
  -21.4003   -6.5638   23.8226 C   0  0  0  0  0  0
  -21.3660   -5.6795   24.9187 C   0  0  0  0  0  0
  -21.6046   -4.3058   24.7238 C   0  0  0  0  0  0
  -21.8814   -3.8146   23.4355 C   0  0  0  0  0  0
  -21.9182   -4.6961   22.3414 C   0  0  0  0  0  0
  -22.7761  -13.5154   21.1879 C   0  0  0  0  0  0
  -22.1651   -4.2151   21.0986 F   0  0  0  0  0  0
  -21.5636   -3.4533   25.7745 F   0  0  0  0  0  0
  -30.0124  -13.4068   20.4461 N   0  0  0  0  0  0
  -26.2914  -12.9372   20.3322 N   0  0  0  0  0  0
  -25.9318  -11.6524   20.5849 N   0  0  0  0  0  0
  -22.0434  -12.8170   22.0476 N   0  0  0  0  0  0
  -25.3768  -15.1757   20.3476 N   0  0  0  0  0  0
  -31.7978  -14.7382   20.0863 O   0  0  0  0  0  0
  -21.6625   -6.8871   21.4250 O   0  0  0  0  0  0
  -22.3440  -14.5467   20.6734 O   0  0  0  0  0  0
  -24.6220  -31.8619   23.2042 C   0  0  0  0  0  0
  -25.9103  -32.4796   23.8364 C   0  0  1  0  0  0
  -27.2276  -27.3477   20.1212 C   0  0  0  0  0  0
  -25.5925  -33.8591   24.2296 N   0  0  0  0  0  0
  -23.4153  -30.4817   21.5496 C   0  0  2  0  0  0
  -24.8624  -28.9417   20.1099 C   0  0  0  0  0  0
  -22.7471  -29.4594   22.4968 C   0  0  0  0  0  0
  -18.0292  -28.1305   22.8438 C   0  0  0  0  0  0
  -24.1519  -36.7303   23.2632 C   0  0  0  0  0  0
  -25.9506  -30.8005   21.3708 C   0  0  0  0  0  0
  -26.0279  -29.4309   20.7124 C   0  0  0  0  0  0
  -27.2135  -28.6457   20.7059 C   0  0  0  0  0  0
  -26.0406  -26.9013   19.4924 C   0  0  0  0  0  0
  -24.8688  -27.6817   19.4902 C   0  0  0  0  0  0
  -23.6263  -29.8154   20.1647 C   0  0  0  0  0  0
  -25.4148  -36.3078   24.0318 C   0  0  1  0  0  0
  -20.5872  -28.3630   23.1257 C   0  0  2  0  0  0
  -20.6798  -26.9357   22.5376 C   0  0  0  0  0  0
  -19.5791  -26.6313   21.5159 C   0  0  0  0  0  0
  -18.1962  -26.7859   22.1556 C   0  0  0  0  0  0
  -19.1529  -28.8785   23.2842 C   0  0  0  0  0  0
  -18.9453  -30.1383   23.8854 C   0  0  0  0  0  0
  -17.6455  -30.6524   24.0510 C   0  0  0  0  0  0
  -25.9054  -34.9450   23.5102 C   0  0  0  0  0  0
  -16.5346  -29.9002   23.6305 C   0  0  0  0  0  0
  -16.7275  -28.6419   23.0322 C   0  0  0  0  0  0
  -26.4500  -31.6600   25.0720 C   0  0  0  0  0  0
  -25.3734  -31.3738   26.1441 C   0  0  0  0  0  0
  -27.0379  -30.3041   24.6157 C   0  0  0  0  0  0
  -27.6062  -32.4339   25.7485 C   0  0  0  0  0  0
  -27.5607  -37.1818   24.8464 C   0  0  0  0  0  0
  -21.4193  -29.2991   22.3690 N   0  0  0  0  0  0
  -26.4336  -37.3750   23.9378 N   0  0  0  0  0  0
  -24.6813  -31.0634   22.0999 N   0  0  0  0  0  0
  -23.4205  -28.8163   23.3058 O   0  0  0  0  0  0
  -28.3630  -26.5352   20.1870 O   0  0  0  0  0  0
  -26.5610  -34.8898   22.4667 O   0  0  0  0  0  0
  -23.5385  -32.1416   23.7381 O   0  0  0  0  0  0
  -28.9628  -19.3760   21.1191 C   0  0  0  0  0  0
  -31.2905  -19.2510   20.5580 C   0  0  0  0  0  0
  -30.1559  -20.0639   20.8077 C   0  0  0  0  0  0
  -28.9085  -17.9498   21.1798 C   0  0  0  0  0  0
  -30.0542  -17.1252   20.9283 C   0  0  0  0  0  0
  -31.2565  -17.8315   20.6264 C   0  0  0  0  0  0
  -27.3285  -17.2143   23.0405 C   0  0  0  0  0  0
  -30.6702  -24.6184   19.9380 C   0  0  0  0  0  0
  -29.5179  -24.4741   22.1694 C   0  0  0  0  0  0
  -30.3149  -21.6207   20.8643 C   0  0  0  0  0  0
  -27.5648  -17.3350   21.5315 C   0  0  0  0  0  0
  -29.1436  -22.6082   20.4580 C   0  0  0  0  0  0
  -28.1935  -25.0772   20.1011 C   0  0  0  0  0  0
  -29.3792  -24.1814   20.6598 C   0  0  0  0  0  0
  -29.9310  -15.6619   21.0361 N   0  0  0  0  0  0
  -32.4263  -17.1810   20.4394 F   0  0  0  0  0  0
  -31.4648  -12.4791   19.1622 H   0  0  0  0  0  0
  -30.3344  -11.3841   19.9010 H   0  0  0  0  0  0
  -29.7593  -11.7664   17.4775 H   0  0  0  0  0  0
  -29.6387  -13.4852   17.7626 H   0  0  0  0  0  0
  -27.8639  -11.2923   18.8836 H   0  0  0  0  0  0
  -27.3626  -12.5615   17.8003 H   0  0  0  0  0  0
  -27.6639  -14.2566   19.5234 H   0  0  0  0  0  0
  -28.6879  -12.0554   21.3811 H   0  0  0  0  0  0
  -28.4262  -13.7072   21.8509 H   0  0  0  0  0  0
  -25.2750   -9.5636   22.4800 H   0  0  0  0  0  0
  -23.9991   -7.4580   22.7470 H   0  0  0  0  0  0
  -21.0845   -8.8759   19.8938 H   0  0  0  0  0  0
  -22.3705  -10.9669   19.6190 H   0  0  0  0  0  0
  -21.1992   -7.6146   23.9733 H   0  0  0  0  0  0
  -21.1491   -6.0523   25.9101 H   0  0  0  0  0  0
  -22.0591   -2.7607   23.2855 H   0  0  0  0  0  0
  -22.4059  -11.9828   22.4861 H   0  0  0  0  0  0
  -21.1078  -13.1225   22.2754 H   0  0  0  0  0  0
  -24.5630  -15.7800   20.3524 H   0  0  0  0  0  0
  -26.1678  -15.5843   19.8692 H   0  0  0  0  0  0
  -26.7201  -32.5455   23.1129 H   0  0  0  0  0  0
  -25.0156  -33.9750   25.0499 H   0  0  0  0  0  0
  -22.7031  -31.2990   21.4110 H   0  0  0  0  0  0
  -23.3770  -35.9642   23.3292 H   0  0  0  0  0  0
  -24.3626  -36.8906   22.2055 H   0  0  0  0  0  0
  -23.7285  -37.6498   23.6670 H   0  0  0  0  0  0
  -26.0832  -31.5667   20.6051 H   0  0  0  0  0  0
  -26.8319  -30.8488   21.9984 H   0  0  0  0  0  0
  -28.1103  -29.0178   21.1788 H   0  0  0  0  0  0
  -25.9994  -25.9374   19.0067 H   0  0  0  0  0  0
  -23.9730  -27.3005   19.0176 H   0  0  0  0  0  0
  -23.7395  -30.5909   19.4062 H   0  0  0  0  0  0
  -22.7495  -29.2394   19.8667 H   0  0  0  0  0  0
  -25.1335  -36.1954   25.0817 H   0  0  0  0  0  0
  -20.9944  -28.3192   24.1384 H   0  0  0  0  0  0
  -20.5679  -26.2232   23.3569 H   0  0  0  0  0  0
  -21.6671  -26.7400   22.1171 H   0  0  0  0  0  0
  -19.6967  -25.6227   21.1183 H   0  0  0  0  0  0
  -19.6718  -27.3114   20.6685 H   0  0  0  0  0  0
  -17.4233  -26.6545   21.3956 H   0  0  0  0  0  0
  -18.0395  -25.9993   22.8942 H   0  0  0  0  0  0
  -19.7938  -30.7185   24.2198 H   0  0  0  0  0  0
  -17.5013  -31.6198   24.5122 H   0  0  0  0  0  0
  -15.5347  -30.2871   23.7646 H   0  0  0  0  0  0
  -15.8685  -28.0715   22.7052 H   0  0  0  0  0  0
  -24.5896  -30.7102   25.7769 H   0  0  0  0  0  0
  -24.8942  -32.2907   26.4881 H   0  0  0  0  0  0
  -25.8028  -30.8895   27.0220 H   0  0  0  0  0  0
  -26.2959  -29.6761   24.1198 H   0  0  0  0  0  0
  -27.4153  -29.7304   25.4632 H   0  0  0  0  0  0
  -27.8772  -30.4366   23.9322 H   0  0  0  0  0  0
  -27.2688  -33.3659   26.2053 H   0  0  0  0  0  0
  -28.3870  -32.6894   25.0308 H   0  0  0  0  0  0
  -28.0750  -31.8486   26.5408 H   0  0  0  0  0  0
  -28.2613  -38.0132   24.7520 H   0  0  0  0  0  0
  -28.1116  -36.2649   24.6293 H   0  0  0  0  0  0
  -27.2312  -37.1449   25.8862 H   0  0  0  0  0  0
  -20.9399  -29.8663   21.6836 H   0  0  0  0  0  0
  -26.0211  -38.2820   24.1354 H   0  0  0  0  0  0
  -28.0725  -19.9488   21.3429 H   0  0  0  0  0  0
  -32.2415  -19.7203   20.3452 H   0  0  0  0  0  0
  -26.3586  -16.7576   23.2418 H   0  0  0  0  0  0
  -27.3393  -18.1930   23.5222 H   0  0  0  0  0  0
  -28.0900  -16.5954   23.5139 H   0  0  0  0  0  0
  -31.5582  -24.1537   20.3671 H   0  0  0  0  0  0
  -30.8198  -25.6974   20.0084 H   0  0  0  0  0  0
  -30.6351  -24.3672   18.8769 H   0  0  0  0  0  0
  -30.3882  -23.9822   22.6008 H   0  0  0  0  0  0
  -28.6403  -24.1344   22.7219 H   0  0  0  0  0  0
  -29.6335  -25.5404   22.3663 H   0  0  0  0  0  0
  -31.1792  -21.8664   20.2467 H   0  0  0  0  0  0
  -30.6232  -21.8453   21.8835 H   0  0  0  0  0  0
  -27.4877  -16.3579   21.0657 H   0  0  0  0  0  0
  -26.7686  -17.9363   21.0893 H   0  0  0  0  0  0
  -28.2518  -22.3252   21.0145 H   0  0  0  0  0  0
  -28.9020  -22.4240   19.4114 H   0  0  0  0  0  0
  -27.2835  -24.7911   20.6342 H   0  0  0  0  0  0
  -28.0310  -24.8224   19.0524 H   0  0  0  0  0  0
  -29.0479  -15.3572   21.4123 H   0  0  0  0  0  0
  1 25  1  0  0  0
  1 30  2  0  0  0
  1 85  1  0  0  0
  2  3  1  0  0  0
  2 25  1  0  0  0
  2 87  1  0  0  0
  2 88  1  0  0  0
  3  4  1  0  0  0
  3 89  1  0  0  0
  3 90  1  0  0  0
  4  5  1  0  0  0
  4 91  1  0  0  0
  4 92  1  0  0  0
  5  6  1  0  0  0
  5 26  1  0  0  0
  5 93  1  0  0  0
  6 25  1  0  0  0
  6 94  1  0  0  0
  6 95  1  0  0  0
  7  8  2  0  0  0
  7 26  1  0  0  0
  7 29  1  0  0  0
  8  9  1  0  0  0
  8 22  1  0  0  0
  9 10  1  0  0  0
  9 27  2  0  0  0
 10 11  2  0  0  0
 10 15  1  0  0  0
 11 12  1  0  0  0
 11 96  1  0  0  0
 12 13  2  0  0  0
 12 97  1  0  0  0
 13 14  1  0  0  0
 13 31  1  0  0  0
 14 15  2  0  0  0
 14 98  1  0  0  0
 15 99  1  0  0  0
 16 17  2  0  0  0
 16 21  1  0  0  0
 16 31  1  0  0  0
 17 18  1  0  0  0
 17100  1  0  0  0
 18 19  2  0  0  0
 18101  1  0  0  0
 19 20  1  0  0  0
 19 24  1  0  0  0
 20 21  2  0  0  0
 20102  1  0  0  0
 21 23  1  0  0  0
 22 28  1  0  0  0
 22 32  2  0  0  0
 26 27  1  0  0  0
 28103  1  0  0  0
 28104  1  0  0  0
 29105  1  0  0  0
 29106  1  0  0  0
 33 34  1  0  0  0
 33 66  1  0  0  0
 33 70  2  0  0  0
 34 36  1  0  0  0
 34 59  1  0  0  0
 34107  1  0  0  0
 35 44  2  0  0  0
 35 45  1  0  0  0
 35 68  1  0  0  0
 36 56  1  0  0  0
 36108  1  0  0  0
 37 39  1  0  0  0
 37 47  1  0  0  0
 37 66  1  0  0  0
 37109  1  0  0  0
 38 43  2  0  0  0
 38 46  1  0  0  0
 38 47  1  0  0  0
 39 64  1  0  0  0
 39 67  2  0  0  0
 40 52  1  0  0  0
 40 53  2  0  0  0
 40 58  1  0  0  0
 41110  1  0  0  0
 41111  1  0  0  0
 41112  1  0  0  0
 41 48  1  0  0  0
 42 43  1  0  0  0
 42 66  1  0  0  0
 42113  1  0  0  0
 42114  1  0  0  0
 43 44  1  0  0  0
 44115  1  0  0  0
 45 46  2  0  0  0
 45116  1  0  0  0
 46117  1  0  0  0
 47118  1  0  0  0
 47119  1  0  0  0
 48 56  1  0  0  0
 48 65  1  0  0  0
 48120  1  0  0  0
 49 50  1  0  0  0
 49 53  1  0  0  0
 49 64  1  0  0  0
 49121  1  0  0  0
 50 51  1  0  0  0
 50122  1  0  0  0
 50123  1  0  0  0
 51 52  1  0  0  0
 51124  1  0  0  0
 51125  1  0  0  0
 52126  1  0  0  0
 52127  1  0  0  0
 53 54  1  0  0  0
 54 55  2  0  0  0
 54128  1  0  0  0
 55 57  1  0  0  0
 55129  1  0  0  0
 56 69  2  0  0  0
 57 58  2  0  0  0
 57130  1  0  0  0
 58131  1  0  0  0
 59 60  1  0  0  0
 59 61  1  0  0  0
 59 62  1  0  0  0
 60132  1  0  0  0
 60133  1  0  0  0
 60134  1  0  0  0
 61135  1  0  0  0
 61136  1  0  0  0
 61137  1  0  0  0
 62138  1  0  0  0
 62139  1  0  0  0
 62140  1  0  0  0
 63 65  1  0  0  0
 63141  1  0  0  0
 63142  1  0  0  0
 63143  1  0  0  0
 64144  1  0  0  0
 65145  1  0  0  0
 68 83  1  0  0  0
 71 73  2  0  0  0
 71 74  1  0  0  0
 71146  1  0  0  0
 72 73  1  0  0  0
 72 76  2  0  0  0
 72147  1  0  0  0
 73 80  1  0  0  0
 74 75  2  0  0  0
 74 81  1  0  0  0
 75 76  1  0  0  0
 75 85  1  0  0  0
 76 86  1  0  0  0
 77 81  1  0  0  0
 77148  1  0  0  0
 77149  1  0  0  0
 77150  1  0  0  0
 78151  1  0  0  0
 78152  1  0  0  0
 78153  1  0  0  0
 78 84  1  0  0  0
 79 84  1  0  0  0
 79154  1  0  0  0
 79155  1  0  0  0
 79156  1  0  0  0
 80 82  1  0  0  0
 80157  1  0  0  0
 80158  1  0  0  0
 81159  1  0  0  0
 81160  1  0  0  0
 82 84  1  0  0  0
 82161  1  0  0  0
 82162  1  0  0  0
 83 84  1  0  0  0
 83163  1  0  0  0
 83164  1  0  0  0
 85165  1  0  0  0
M  ISO  4   1 100  68 101  83 101  85 100
M  END
> <chiral flag>
0

> <version>
0

> <s_m_source_file>
/data/baiqing/PycharmProjects/Reinvent-master-3.2/result/LINK_invent/BTK/process_docking_weight1_custom_product_contain_oxygen_bond_distance_aromatic_linkinvent_7_9_3/rearranged_h_0136.sdf

> <i_m_source_file_index>
38

> <r_mmod_Potential_Energy-OPLS-2005>
39.3808326721191

> <r_mmod_Stretch_Energy-OPLS-2005>
75.2098693847656

> <r_mmod_Bend_Energy-OPLS-2005>
139.008865356445

> <r_mmod_Torsional_Energy-OPLS-2005>
221.271240234375

> <r_mmod_Improper_Torsional_Energy-OPLS-2005>
5.08104848861694

> <r_mmod_Van_der_Waal_Energy-OPLS-2005>
147.446151733398

> <r_mmod_Electrostatic_Energy-OPLS-2005>
-392.296966552734

> <r_mmod_Solvation_Energy-OPLS-2005>
-195.14501953125

> <b_mmod_Minimization_Converged-OPLS-2005>
0

> <r_mmod_RMS_Derivative-OPLS-2005>
3.18280696868896

$$$$
38
                    3D
 Structure written by MMmdl.
169177  0  0  1  0            999 V2000
  -30.6836  -14.5266   20.4808 C   0  0  0  0  0  0
  -30.4293  -12.3171   19.4222 C   0  0  0  0  0  0
  -29.4942  -12.4788   18.2051 C   0  0  0  0  0  0
  -28.0162  -12.3449   18.6188 C   0  0  0  0  0  0
  -27.6573  -13.2069   19.8593 C   0  0  2  0  0  0
  -28.7095  -13.0328   20.9807 C   0  0  0  0  0  0
  -25.2586  -13.8160   20.5644 C   0  0  0  0  0  0
  -24.1840  -13.0430   20.9167 C   0  0  0  0  0  0
  -24.6401  -11.6898   20.8750 C   0  0  0  0  0  0
  -23.9065  -10.4278   21.0418 C   0  0  0  0  0  0
  -24.3625   -9.4195   21.9194 C   0  0  0  0  0  0
  -23.6292   -8.2240   22.0764 C   0  0  0  0  0  0
  -22.4280   -8.0284   21.3552 C   0  0  0  0  0  0
  -21.9914   -9.0252   20.4659 C   0  0  0  0  0  0
  -22.7245  -10.2121   20.3060 C   0  0  0  0  0  0
  -21.6846   -6.0739   22.5275 C   0  0  0  0  0  0
  -21.4023   -6.5643   23.8210 C   0  0  0  0  0  0
  -21.3649   -5.6797   24.9171 C   0  0  0  0  0  0
  -21.6041   -4.3061   24.7229 C   0  0  0  0  0  0
  -21.8823   -3.8149   23.4353 C   0  0  0  0  0  0
  -21.9191   -4.6963   22.3403 C   0  0  0  0  0  0
  -22.7865  -13.5233   21.1826 C   0  0  0  0  0  0
  -22.1658   -4.2147   21.0979 F   0  0  0  0  0  0
  -21.5615   -3.4546   25.7738 F   0  0  0  0  0  0
  -30.0358  -13.3296   20.4111 N   0  0  0  0  0  0
  -26.3021  -12.9325   20.3321 N   0  0  0  0  0  0
  -25.9332  -11.6491   20.5773 N   0  0  0  0  0  0
  -22.0505  -12.8221   22.0385 N   0  0  0  0  0  0
  -25.4268  -15.1883   20.4018 N   0  0  0  0  0  0
  -31.8587  -14.6780   20.1395 O   0  0  0  0  0  0
  -21.6645   -6.8890   21.4243 O   0  0  0  0  0  0
  -22.3532  -14.5522   20.6649 O   0  0  0  0  0  0
  -24.6127  -31.8640   23.2040 C   0  0  0  0  0  0
  -25.9005  -32.4819   23.8365 C   0  0  1  0  0  0
  -27.2528  -27.4261   20.1000 C   0  0  0  0  0  0
  -25.5834  -33.8609   24.2296 N   0  0  0  0  0  0
  -23.4069  -30.4835   21.5432 C   0  0  2  0  0  0
  -24.8579  -28.9436   20.1071 C   0  0  0  0  0  0
  -22.7431  -29.4602   22.4920 C   0  0  0  0  0  0
  -18.0274  -28.1368   22.8391 C   0  0  0  0  0  0
  -24.1486  -36.7348   23.2647 C   0  0  0  0  0  0
  -25.9294  -30.8283   21.3587 C   0  0  0  0  0  0
  -26.0104  -29.4570   20.7163 C   0  0  0  0  0  0
  -27.1993  -28.6970   20.7242 C   0  0  0  0  0  0
  -26.0812  -26.9249   19.4835 C   0  0  0  0  0  0
  -24.8880  -27.6775   19.4903 C   0  0  0  0  0  0
  -23.6232  -29.8162   20.1537 C   0  0  0  0  0  0
  -25.4112  -36.3117   24.0339 C   0  0  1  0  0  0
  -20.5871  -28.3648   23.1268 C   0  0  2  0  0  0
  -20.6764  -26.9366   22.5391 C   0  0  0  0  0  0
  -19.5763  -26.6363   21.5158 C   0  0  0  0  0  0
  -18.1935  -26.7890   22.1565 C   0  0  0  0  0  0
  -19.1524  -28.8815   23.2813 C   0  0  0  0  0  0
  -18.9477  -30.1410   23.8843 C   0  0  0  0  0  0
  -17.6487  -30.6554   24.0549 C   0  0  0  0  0  0
  -25.9037  -34.9477   23.5123 C   0  0  0  0  0  0
  -16.5367  -29.9066   23.6321 C   0  0  0  0  0  0
  -16.7270  -28.6502   23.0288 C   0  0  0  0  0  0
  -26.4442  -31.6633   25.0709 C   0  0  0  0  0  0
  -25.3702  -31.3798   26.1465 C   0  0  0  0  0  0
  -27.0292  -30.3087   24.6074 C   0  0  0  0  0  0
  -27.5974  -32.4382   25.7487 C   0  0  0  0  0  0
  -27.5600  -37.1842   24.8465 C   0  0  0  0  0  0
  -21.4147  -29.3031   22.3693 N   0  0  0  0  0  0
  -26.4295  -37.3806   23.9419 N   0  0  0  0  0  0
  -24.6668  -31.0764   22.0941 N   0  0  0  0  0  0
  -23.4168  -28.8101   23.2951 O   0  0  0  0  0  0
  -28.4421  -26.7241   20.1579 O   0  0  0  0  0  0
  -26.5620  -34.8959   22.4710 O   0  0  0  0  0  0
  -23.5314  -32.1362   23.7455 O   0  0  0  0  0  0
  -31.1027  -17.7171   21.1533 C   0  0  0  0  0  0
  -29.2124  -17.6711   19.6468 C   0  0  0  0  0  0
  -30.2792  -19.8331   20.1648 C   0  0  0  0  0  0
  -31.1931  -19.1261   21.0026 C   0  0  0  0  0  0
  -29.2908  -19.0736   19.4816 C   0  0  0  0  0  0
  -30.1050  -16.9720   20.4842 C   0  0  0  0  0  0
  -29.4243  -22.1085   20.6210 C   0  0  0  0  0  0
  -30.3518  -21.3211   20.0230 C   0  0  0  0  0  0
  -32.2675  -19.8533   21.8047 C   0  0  0  0  0  0
  -28.2533  -19.7354   18.5890 C   0  0  0  0  0  0
  -31.4764  -21.3878   17.7244 C   0  0  0  0  0  0
  -28.8697  -24.0805   22.0759 C   0  0  0  0  0  0
  -31.5013  -21.8791   19.1793 C   0  0  0  0  0  0
  -28.5300  -24.2547   19.5383 C   0  0  0  0  0  0
  -28.7734  -25.7450   19.1641 C   0  0  0  0  0  0
  -29.3785  -23.6450   20.6887 C   0  0  2  0  0  0
  -29.8735  -15.5803   20.7253 N   0  0  0  0  0  0
  -31.4711  -12.4183   19.1147 H   0  0  0  0  0  0
  -30.3380  -11.3167   19.8492 H   0  0  0  0  0  0
  -29.7345  -11.7308   17.4497 H   0  0  0  0  0  0
  -29.6564  -13.4517   17.7375 H   0  0  0  0  0  0
  -27.8310  -11.2914   18.8325 H   0  0  0  0  0  0
  -27.3662  -12.5990   17.7811 H   0  0  0  0  0  0
  -27.6808  -14.2449   19.5286 H   0  0  0  0  0  0
  -28.6931  -12.0115   21.3655 H   0  0  0  0  0  0
  -28.4783  -13.6748   21.8324 H   0  0  0  0  0  0
  -25.2776   -9.5652   22.4772 H   0  0  0  0  0  0
  -23.9988   -7.4631   22.7485 H   0  0  0  0  0  0
  -21.0851   -8.8783   19.8964 H   0  0  0  0  0  0
  -22.3730  -10.9666   19.6166 H   0  0  0  0  0  0
  -21.2036   -7.6154   23.9709 H   0  0  0  0  0  0
  -21.1462   -6.0534   25.9069 H   0  0  0  0  0  0
  -22.0613   -2.7615   23.2853 H   0  0  0  0  0  0
  -22.4132  -11.9893   22.4792 H   0  0  0  0  0  0
  -21.1119  -13.1239   22.2594 H   0  0  0  0  0  0
  -24.6560  -15.8398   20.5078 H   0  0  0  0  0  0
  -26.2749  -15.6327   20.0740 H   0  0  0  0  0  0
  -26.7077  -32.5545   23.1140 H   0  0  0  0  0  0
  -24.9943  -33.9732   25.0409 H   0  0  0  0  0  0
  -22.6998  -31.3023   21.4006 H   0  0  0  0  0  0
  -23.3731  -35.9702   23.3292 H   0  0  0  0  0  0
  -24.3579  -36.8984   22.2068 H   0  0  0  0  0  0
  -23.7258  -37.6554   23.6660 H   0  0  0  0  0  0
  -26.0391  -31.5872   20.5801 H   0  0  0  0  0  0
  -26.8200  -30.8948   21.9725 H   0  0  0  0  0  0
  -28.0855  -29.0778   21.2128 H   0  0  0  0  0  0
  -26.0741  -25.9515   19.0127 H   0  0  0  0  0  0
  -23.9993  -27.2753   19.0189 H   0  0  0  0  0  0
  -23.7441  -30.5961   19.4012 H   0  0  0  0  0  0
  -22.7480  -29.2471   19.8401 H   0  0  0  0  0  0
  -25.1281  -36.1998   25.0831 H   0  0  0  0  0  0
  -20.9965  -28.3242   24.1394 H   0  0  0  0  0  0
  -20.5709  -26.2242   23.3594 H   0  0  0  0  0  0
  -21.6642  -26.7429   22.1202 H   0  0  0  0  0  0
  -19.6970  -25.6264   21.1195 H   0  0  0  0  0  0
  -19.6752  -27.3165   20.6664 H   0  0  0  0  0  0
  -17.4235  -26.6584   21.3962 H   0  0  0  0  0  0
  -18.0349  -26.0041   22.8990 H   0  0  0  0  0  0
  -19.7992  -30.7159   24.2248 H   0  0  0  0  0  0
  -17.5092  -31.6260   24.5116 H   0  0  0  0  0  0
  -15.5374  -30.2980   23.7687 H   0  0  0  0  0  0
  -15.8657  -28.0853   22.7005 H   0  0  0  0  0  0
  -24.5805  -30.7213   25.7846 H   0  0  0  0  0  0
  -24.8948  -32.2969   26.4932 H   0  0  0  0  0  0
  -25.8008  -30.8962   27.0241 H   0  0  0  0  0  0
  -26.2839  -29.6853   24.1106 H   0  0  0  0  0  0
  -27.4075  -29.7323   25.4538 H   0  0  0  0  0  0
  -27.8658  -30.4454   23.9215 H   0  0  0  0  0  0
  -27.2527  -33.3670   26.2072 H   0  0  0  0  0  0
  -28.3760  -32.7008   25.0306 H   0  0  0  0  0  0
  -28.0645  -31.8522   26.5415 H   0  0  0  0  0  0
  -28.2585  -38.0171   24.7512 H   0  0  0  0  0  0
  -28.1104  -36.2688   24.6235 H   0  0  0  0  0  0
  -27.2308  -37.1436   25.8864 H   0  0  0  0  0  0
  -20.9328  -29.8789   21.6944 H   0  0  0  0  0  0
  -26.0199  -38.2886   24.1441 H   0  0  0  0  0  0
  -31.7801  -17.2140   21.8277 H   0  0  0  0  0  0
  -28.4387  -17.1260   19.1252 H   0  0  0  0  0  0
  -28.6210  -21.6099   21.1475 H   0  0  0  0  0  0
  -32.3636  -19.3974   22.7901 H   0  0  0  0  0  0
  -32.0449  -20.9084   21.9697 H   0  0  0  0  0  0
  -33.2373  -19.7857   21.3085 H   0  0  0  0  0  0
  -27.8294  -19.0211   17.8839 H   0  0  0  0  0  0
  -28.6751  -20.5506   18.0036 H   0  0  0  0  0  0
  -27.4393  -20.1306   19.1961 H   0  0  0  0  0  0
  -32.3542  -21.7451   17.1838 H   0  0  0  0  0  0
  -30.6001  -21.7582   17.1923 H   0  0  0  0  0  0
  -31.4714  -20.2990   17.6613 H   0  0  0  0  0  0
  -29.4609  -23.6339   22.8743 H   0  0  0  0  0  0
  -27.8334  -23.7837   22.2457 H   0  0  0  0  0  0
  -28.9290  -25.1622   22.2035 H   0  0  0  0  0  0
  -32.4496  -21.6106   19.6457 H   0  0  0  0  0  0
  -31.4813  -22.9677   19.1469 H   0  0  0  0  0  0
  -28.7744  -23.6879   18.6388 H   0  0  0  0  0  0
  -27.4710  -24.0759   19.7159 H   0  0  0  0  0  0
  -28.2687  -25.9767   18.2252 H   0  0  0  0  0  0
  -29.8350  -25.8778   18.9406 H   0  0  0  0  0  0
  -30.3983  -24.0206   20.6112 H   0  0  0  0  0  0
  -28.9068  -15.3151   20.8312 H   0  0  0  0  0  0
  1 25  1  0  0  0
  1 30  2  0  0  0
  1 87  1  0  0  0
  2  3  1  0  0  0
  2 25  1  0  0  0
  2 88  1  0  0  0
  2 89  1  0  0  0
  3  4  1  0  0  0
  3 90  1  0  0  0
  3 91  1  0  0  0
  4  5  1  0  0  0
  4 92  1  0  0  0
  4 93  1  0  0  0
  5  6  1  0  0  0
  5 26  1  0  0  0
  5 94  1  0  0  0
  6 25  1  0  0  0
  6 95  1  0  0  0
  6 96  1  0  0  0
  7  8  2  0  0  0
  7 26  1  0  0  0
  7 29  1  0  0  0
  8  9  1  0  0  0
  8 22  1  0  0  0
  9 10  1  0  0  0
  9 27  2  0  0  0
 10 11  2  0  0  0
 10 15  1  0  0  0
 11 12  1  0  0  0
 11 97  1  0  0  0
 12 13  2  0  0  0
 12 98  1  0  0  0
 13 14  1  0  0  0
 13 31  1  0  0  0
 14 15  2  0  0  0
 14 99  1  0  0  0
 15100  1  0  0  0
 16 17  2  0  0  0
 16 21  1  0  0  0
 16 31  1  0  0  0
 17 18  1  0  0  0
 17101  1  0  0  0
 18 19  2  0  0  0
 18102  1  0  0  0
 19 20  1  0  0  0
 19 24  1  0  0  0
 20 21  2  0  0  0
 20103  1  0  0  0
 21 23  1  0  0  0
 22 28  1  0  0  0
 22 32  2  0  0  0
 26 27  1  0  0  0
 28104  1  0  0  0
 28105  1  0  0  0
 29106  1  0  0  0
 29107  1  0  0  0
 33 34  1  0  0  0
 33 66  1  0  0  0
 33 70  2  0  0  0
 34 36  1  0  0  0
 34 59  1  0  0  0
 34108  1  0  0  0
 35 44  2  0  0  0
 35 45  1  0  0  0
 35 68  1  0  0  0
 36 56  1  0  0  0
 36109  1  0  0  0
 37 39  1  0  0  0
 37 47  1  0  0  0
 37 66  1  0  0  0
 37110  1  0  0  0
 38 43  2  0  0  0
 38 46  1  0  0  0
 38 47  1  0  0  0
 39 64  1  0  0  0
 39 67  2  0  0  0
 40 52  1  0  0  0
 40 53  2  0  0  0
 40 58  1  0  0  0
 41111  1  0  0  0
 41112  1  0  0  0
 41113  1  0  0  0
 41 48  1  0  0  0
 42 43  1  0  0  0
 42 66  1  0  0  0
 42114  1  0  0  0
 42115  1  0  0  0
 43 44  1  0  0  0
 44116  1  0  0  0
 45 46  2  0  0  0
 45117  1  0  0  0
 46118  1  0  0  0
 47119  1  0  0  0
 47120  1  0  0  0
 48 56  1  0  0  0
 48 65  1  0  0  0
 48121  1  0  0  0
 49 50  1  0  0  0
 49 53  1  0  0  0
 49 64  1  0  0  0
 49122  1  0  0  0
 50 51  1  0  0  0
 50123  1  0  0  0
 50124  1  0  0  0
 51 52  1  0  0  0
 51125  1  0  0  0
 51126  1  0  0  0
 52127  1  0  0  0
 52128  1  0  0  0
 53 54  1  0  0  0
 54 55  2  0  0  0
 54129  1  0  0  0
 55 57  1  0  0  0
 55130  1  0  0  0
 56 69  2  0  0  0
 57 58  2  0  0  0
 57131  1  0  0  0
 58132  1  0  0  0
 59 60  1  0  0  0
 59 61  1  0  0  0
 59 62  1  0  0  0
 60133  1  0  0  0
 60134  1  0  0  0
 60135  1  0  0  0
 61136  1  0  0  0
 61137  1  0  0  0
 61138  1  0  0  0
 62139  1  0  0  0
 62140  1  0  0  0
 62141  1  0  0  0
 63 65  1  0  0  0
 63142  1  0  0  0
 63143  1  0  0  0
 63144  1  0  0  0
 64145  1  0  0  0
 65146  1  0  0  0
 68 85  1  0  0  0
 71 74  2  0  0  0
 71 76  1  0  0  0
 71147  1  0  0  0
 72 75  1  0  0  0
 72 76  2  0  0  0
 72148  1  0  0  0
 73 74  1  0  0  0
 73 75  2  0  0  0
 73 78  1  0  0  0
 74 79  1  0  0  0
 75 80  1  0  0  0
 76 87  1  0  0  0
 77 78  2  0  0  0
 77 86  1  0  0  0
 77149  1  0  0  0
 78 83  1  0  0  0
 79150  1  0  0  0
 79151  1  0  0  0
 79152  1  0  0  0
 80153  1  0  0  0
 80154  1  0  0  0
 80155  1  0  0  0
 81 83  1  0  0  0
 81156  1  0  0  0
 81157  1  0  0  0
 81158  1  0  0  0
 82159  1  0  0  0
 82160  1  0  0  0
 82161  1  0  0  0
 82 86  1  0  0  0
 83162  1  0  0  0
 83163  1  0  0  0
 84 85  1  0  0  0
 84 86  1  0  0  0
 84164  1  0  0  0
 84165  1  0  0  0
 85166  1  0  0  0
 85167  1  0  0  0
 86168  1  0  0  0
 87169  1  0  0  0
M  ISO  4   1 100  68 101  85 101  87 100
M  END
> <chiral flag>
0

> <version>
0

> <s_m_source_file>
/data/baiqing/PycharmProjects/Reinvent-master-3.2/result/LINK_invent/BTK/process_docking_weight1_custom_product_contain_oxygen_bond_distance_aromatic_linkinvent_7_9_3/rearranged_h_0136.sdf

> <i_m_source_file_index>
39

> <r_mmod_Potential_Energy-OPLS-2005>
24.6076164245605

> <r_mmod_Stretch_Energy-OPLS-2005>
43.1310920715332

> <r_mmod_Bend_Energy-OPLS-2005>
115.610816955566

> <r_mmod_Torsional_Energy-OPLS-2005>
250.577697753906

> <r_mmod_Improper_Torsional_Energy-OPLS-2005>
6.87817621231079

> <r_mmod_Van_der_Waal_Energy-OPLS-2005>
140.962142944336

> <r_mmod_Electrostatic_Energy-OPLS-2005>
-360.899475097656

> <r_mmod_Solvation_Energy-OPLS-2005>
-193.453521728516

> <b_mmod_Minimization_Converged-OPLS-2005>
0

> <r_mmod_RMS_Derivative-OPLS-2005>
5.12941026687622

$$$$
39
                    3D
 Structure written by MMmdl.
188197  0  0  1  0            999 V2000
  -30.7671  -14.2984   20.6879 C   0  0  0  0  0  0
  -30.4162  -12.2378   19.3952 C   0  0  0  0  0  0
  -29.4935  -12.5260   18.1959 C   0  0  0  0  0  0
  -28.0103  -12.4102   18.5985 C   0  0  0  0  0  0
  -27.6783  -13.1949   19.8970 C   0  0  2  0  0  0
  -28.7097  -12.8758   21.0024 C   0  0  0  0  0  0
  -25.2654  -13.8140   20.5645 C   0  0  0  0  0  0
  -24.1895  -13.0452   20.9145 C   0  0  0  0  0  0
  -24.6417  -11.6901   20.8734 C   0  0  0  0  0  0
  -23.9066  -10.4294   21.0406 C   0  0  0  0  0  0
  -24.3605   -9.4206   21.9192 C   0  0  0  0  0  0
  -23.6271   -8.2252   22.0774 C   0  0  0  0  0  0
  -22.4266   -8.0281   21.3552 C   0  0  0  0  0  0
  -21.9903   -9.0253   20.4650 C   0  0  0  0  0  0
  -22.7237  -10.2129   20.3054 C   0  0  0  0  0  0
  -21.6849   -6.0730   22.5273 C   0  0  0  0  0  0
  -21.4016   -6.5633   23.8206 C   0  0  0  0  0  0
  -21.3663   -5.6789   24.9167 C   0  0  0  0  0  0
  -21.6046   -4.3052   24.7219 C   0  0  0  0  0  0
  -21.8826   -3.8142   23.4339 C   0  0  0  0  0  0
  -21.9187   -4.6958   22.3394 C   0  0  0  0  0  0
  -22.7904  -13.5246   21.1804 C   0  0  0  0  0  0
  -22.1657   -4.2141   21.0971 F   0  0  0  0  0  0
  -21.5624   -3.4540   25.7737 F   0  0  0  0  0  0
  -30.0596  -13.1607   20.4801 N   0  0  0  0  0  0
  -26.3119  -12.9305   20.3447 N   0  0  0  0  0  0
  -25.9344  -11.6472   20.5780 N   0  0  0  0  0  0
  -22.0518  -12.8251   22.0336 N   0  0  0  0  0  0
  -25.4362  -15.1850   20.3973 N   0  0  0  0  0  0
  -31.8138  -14.5597   20.0858 O   0  0  0  0  0  0
  -21.6634   -6.8878   21.4242 O   0  0  0  0  0  0
  -22.3606  -14.5565   20.6646 O   0  0  0  0  0  0
  -24.5972  -31.8710   23.2137 C   0  0  0  0  0  0
  -25.8925  -32.4831   23.8400 C   0  0  1  0  0  0
  -27.3061  -27.5430   20.0650 C   0  0  0  0  0  0
  -25.5853  -33.8628   24.2346 N   0  0  0  0  0  0
  -23.3858  -30.4913   21.5394 C   0  0  2  0  0  0
  -24.8442  -28.9498   20.1169 C   0  0  0  0  0  0
  -22.7331  -29.4668   22.4939 C   0  0  0  0  0  0
  -18.0282  -28.1357   22.8534 C   0  0  0  0  0  0
  -24.1491  -36.7314   23.2637 C   0  0  0  0  0  0
  -25.8972  -30.8480   21.3721 C   0  0  0  0  0  0
  -25.9725  -29.4776   20.7457 C   0  0  0  0  0  0
  -27.1660  -28.7493   20.7824 C   0  0  0  0  0  0
  -26.1427  -26.9811   19.4849 C   0  0  0  0  0  0
  -24.9140  -27.6808   19.5069 C   0  0  0  0  0  0
  -23.6021  -29.8123   20.1530 C   0  0  0  0  0  0
  -25.4122  -36.3130   24.0349 C   0  0  1  0  0  0
  -20.5866  -28.3613   23.1364 C   0  0  2  0  0  0
  -20.6750  -26.9344   22.5431 C   0  0  0  0  0  0
  -19.5727  -26.6385   21.5215 C   0  0  0  0  0  0
  -18.1917  -26.7928   22.1652 C   0  0  0  0  0  0
  -19.1529  -28.8803   23.2978 C   0  0  0  0  0  0
  -18.9469  -30.1442   23.8952 C   0  0  0  0  0  0
  -17.6461  -30.6578   24.0581 C   0  0  0  0  0  0
  -25.9018  -34.9478   23.5147 C   0  0  0  0  0  0
  -16.5356  -29.9083   23.6316 C   0  0  0  0  0  0
  -16.7283  -28.6507   23.0334 C   0  0  0  0  0  0
  -26.4414  -31.6553   25.0672 C   0  0  0  0  0  0
  -25.3695  -31.3674   26.1428 C   0  0  0  0  0  0
  -27.0205  -30.2997   24.5970 C   0  0  0  0  0  0
  -27.5986  -32.4218   25.7490 C   0  0  0  0  0  0
  -27.5598  -37.1839   24.8481 C   0  0  0  0  0  0
  -21.4071  -29.3010   22.3746 N   0  0  0  0  0  0
  -26.4317  -37.3808   23.9414 N   0  0  0  0  0  0
  -24.6415  -31.0851   22.1020 N   0  0  0  0  0  0
  -23.4133  -28.8227   23.2981 O   0  0  0  0  0  0
  -28.5402  -26.9455   19.8461 O   0  0  0  0  0  0
  -26.5570  -34.8916   22.4701 O   0  0  0  0  0  0
  -23.5195  -32.1471   23.7550 O   0  0  0  0  0  0
  -30.2616  -18.5355   20.1524 C   0  0  0  0  0  0
  -28.9347  -24.4336   18.2146 C   0  0  0  0  0  0
  -30.6526  -17.2345   20.4490 C   0  0  0  0  0  0
  -28.7296  -23.2031   18.8575 C   0  0  0  0  0  0
  -28.5755  -18.4420   21.9024 C   0  0  0  0  0  0
  -31.1303  -22.7910   18.7699 C   0  0  0  0  0  0
  -29.2113  -19.1545   20.8629 C   0  0  0  0  0  0
  -30.2380  -24.8751   17.8897 C   0  0  0  0  0  0
  -28.9533  -17.1111   22.2069 C   0  0  0  0  0  0
  -31.3494  -24.0147   18.1214 C   0  0  0  0  0  0
  -29.8441  -22.4052   19.1792 C   0  0  0  0  0  0
  -29.9737  -16.4876   21.4370 C   0  0  0  0  0  0
  -28.7835  -20.5385   20.4735 C   0  0  0  0  0  0
  -33.2959  -23.5815   16.5468 C   0  0  0  0  0  0
  -26.1830  -15.8262   24.6906 C   0  0  0  0  0  0
  -30.3840  -27.9236   21.0918 C   0  0  0  0  0  0
  -29.4922  -29.1801   19.0220 C   0  0  0  0  0  0
  -28.2767  -16.3585   23.3569 C   0  0  0  0  0  0
  -32.8030  -24.3497   17.7837 C   0  0  0  0  0  0
  -26.8310  -16.7741   23.6760 C   0  0  0  0  0  0
  -30.8271  -27.0993   18.8073 C   0  0  0  0  0  0
  -30.4563  -26.3320   17.5107 C   0  0  2  0  0  0
  -29.7353  -27.7867   19.6899 C   0  0  0  0  0  0
  -29.7852  -21.1996   19.8894 N   0  0  0  0  0  0
  -30.2519  -15.1087   21.6225 N   0  0  0  0  0  0
  -29.3927  -26.9227   16.6777 N   0  3  0  0  0  0
  -27.6634  -20.9865   20.7307 O   0  0  0  0  0  0
  -31.4632  -12.3219   19.0979 H   0  0  0  0  0  0
  -30.2913  -11.2069   19.7303 H   0  0  0  0  0  0
  -29.7132  -11.8373   17.3800 H   0  0  0  0  0  0
  -29.6950  -13.5272   17.8129 H   0  0  0  0  0  0
  -27.7828  -11.3528   18.7309 H   0  0  0  0  0  0
  -27.3764  -12.7569   17.7824 H   0  0  0  0  0  0
  -27.7564  -14.2589   19.6742 H   0  0  0  0  0  0
  -28.6557  -11.8198   21.2748 H   0  0  0  0  0  0
  -28.4663  -13.4066   21.9211 H   0  0  0  0  0  0
  -25.2745   -9.5673   22.4771 H   0  0  0  0  0  0
  -23.9966   -7.4651   22.7510 H   0  0  0  0  0  0
  -21.0836   -8.8763   19.8943 H   0  0  0  0  0  0
  -22.3697  -10.9666   19.6154 H   0  0  0  0  0  0
  -21.2024   -7.6144   23.9707 H   0  0  0  0  0  0
  -21.1480   -6.0521   25.9070 H   0  0  0  0  0  0
  -22.0608   -2.7600   23.2845 H   0  0  0  0  0  0
  -22.4093  -11.9881   22.4717 H   0  0  0  0  0  0
  -21.1130  -13.1300   22.2502 H   0  0  0  0  0  0
  -24.6699  -15.8396   20.5051 H   0  0  0  0  0  0
  -26.2918  -15.6217   20.0810 H   0  0  0  0  0  0
  -26.6987  -32.5631   23.1170 H   0  0  0  0  0  0
  -24.9959  -33.9791   25.0464 H   0  0  0  0  0  0
  -22.6745  -31.3061   21.3907 H   0  0  0  0  0  0
  -23.3748  -35.9646   23.3315 H   0  0  0  0  0  0
  -24.3602  -36.8884   22.2046 H   0  0  0  0  0  0
  -23.7203  -37.6519   23.6615 H   0  0  0  0  0  0
  -25.9961  -31.6064   20.5943 H   0  0  0  0  0  0
  -26.7885  -30.9177   21.9825 H   0  0  0  0  0  0
  -27.9879  -29.1923   21.3138 H   0  0  0  0  0  0
  -26.1977  -26.0331   18.9675 H   0  0  0  0  0  0
  -24.0476  -27.2580   19.0175 H   0  0  0  0  0  0
  -23.7165  -30.5849   19.3915 H   0  0  0  0  0  0
  -22.7322  -29.2264   19.8486 H   0  0  0  0  0  0
  -25.1270  -36.2030   25.0840 H   0  0  0  0  0  0
  -21.0031  -28.3129   24.1457 H   0  0  0  0  0  0
  -20.5673  -26.2162   23.3586 H   0  0  0  0  0  0
  -21.6618  -26.7382   22.1203 H   0  0  0  0  0  0
  -19.6876  -25.6316   21.1190 H   0  0  0  0  0  0
  -19.6674  -27.3242   20.6785 H   0  0  0  0  0  0
  -17.4183  -26.6733   21.4053 H   0  0  0  0  0  0
  -18.0327  -26.0035   22.9022 H   0  0  0  0  0  0
  -19.7935  -30.7292   24.2279 H   0  0  0  0  0  0
  -17.4996  -31.6273   24.5157 H   0  0  0  0  0  0
  -15.5360  -30.2998   23.7578 H   0  0  0  0  0  0
  -15.8706  -28.0864   22.6933 H   0  0  0  0  0  0
  -24.5892  -30.6969   25.7814 H   0  0  0  0  0  0
  -24.8872  -32.2838   26.4840 H   0  0  0  0  0  0
  -25.8084  -30.8917   27.0203 H   0  0  0  0  0  0
  -26.2756  -29.6898   24.0841 H   0  0  0  0  0  0
  -27.3785  -29.7090   25.4411 H   0  0  0  0  0  0
  -27.8685  -30.4308   23.9233 H   0  0  0  0  0  0
  -27.2569  -33.3490   26.2116 H   0  0  0  0  0  0
  -28.3843  -32.6784   25.0365 H   0  0  0  0  0  0
  -28.0559  -31.8256   26.5400 H   0  0  0  0  0  0
  -28.2593  -38.0147   24.7502 H   0  0  0  0  0  0
  -28.1094  -36.2667   24.6335 H   0  0  0  0  0  0
  -27.2295  -37.1507   25.8870 H   0  0  0  0  0  0
  -20.9153  -29.8753   21.7039 H   0  0  0  0  0  0
  -26.0211  -38.2898   24.1378 H   0  0  0  0  0  0
  -30.7845  -19.0288   19.3449 H   0  0  0  0  0  0
  -28.0780  -25.0682   18.0487 H   0  0  0  0  0  0
  -31.4622  -16.8390   19.8547 H   0  0  0  0  0  0
  -27.7273  -22.9085   19.1295 H   0  0  0  0  0  0
  -27.7819  -18.9288   22.4494 H   0  0  0  0  0  0
  -31.9809  -22.1586   18.9882 H   0  0  0  0  0  0
  -34.3510  -23.7827   16.3537 H   0  0  0  0  0  0
  -32.7396  -23.8562   15.6511 H   0  0  0  0  0  0
  -33.1933  -22.5041   16.6841 H   0  0  0  0  0  0
  -25.1616  -16.1351   24.9127 H   0  0  0  0  0  0
  -26.7423  -15.8116   25.6276 H   0  0  0  0  0  0
  -26.1454  -14.8057   24.3039 H   0  0  0  0  0  0
  -31.2879  -28.5309   21.0402 H   0  0  0  0  0  0
  -30.6773  -26.9460   21.4827 H   0  0  0  0  0  0
  -29.7533  -28.3652   21.8572 H   0  0  0  0  0  0
  -29.0991  -29.9334   19.6982 H   0  0  0  0  0  0
  -28.8124  -29.1246   18.1718 H   0  0  0  0  0  0
  -30.4201  -29.6321   18.6703 H   0  0  0  0  0  0
  -28.8994  -16.4670   24.2478 H   0  0  0  0  0  0
  -28.2565  -15.2939   23.1364 H   0  0  0  0  0  0
  -33.4196  -24.0676   18.6386 H   0  0  0  0  0  0
  -32.9916  -25.4150   17.6642 H   0  0  0  0  0  0
  -26.8027  -17.7903   24.0699 H   0  0  0  0  0  0
  -26.2352  -16.7641   22.7628 H   0  0  0  0  0  0
  -31.3905  -26.4051   19.4325 H   0  0  0  0  0  0
  -31.5918  -27.8320   18.5455 H   0  0  0  0  0  0
  -31.3148  -26.3649   16.8442 H   0  0  0  0  0  0
  -30.6450  -20.6706   19.9033 H   0  0  0  0  0  0
  -29.5948  -14.6385   22.2245 H   0  0  0  0  0  0
  -28.5325  -27.0239   17.1837 H   0  0  0  0  0  0
  -29.2327  -26.3312   15.8820 H   0  0  0  0  0  0
  -29.6846  -27.8195   16.3280 H   0  0  0  0  0  0
  1 25  1  0  0  0
  1 30  2  0  0  0
  1 95  1  0  0  0
  2  3  1  0  0  0
  2 25  1  0  0  0
  2 98  1  0  0  0
  2 99  1  0  0  0
  3  4  1  0  0  0
  3100  1  0  0  0
  3101  1  0  0  0
  4  5  1  0  0  0
  4102  1  0  0  0
  4103  1  0  0  0
  5  6  1  0  0  0
  5 26  1  0  0  0
  5104  1  0  0  0
  6 25  1  0  0  0
  6105  1  0  0  0
  6106  1  0  0  0
  7  8  2  0  0  0
  7 26  1  0  0  0
  7 29  1  0  0  0
  8  9  1  0  0  0
  8 22  1  0  0  0
  9 10  1  0  0  0
  9 27  2  0  0  0
 10 11  2  0  0  0
 10 15  1  0  0  0
 11 12  1  0  0  0
 11107  1  0  0  0
 12 13  2  0  0  0
 12108  1  0  0  0
 13 14  1  0  0  0
 13 31  1  0  0  0
 14 15  2  0  0  0
 14109  1  0  0  0
 15110  1  0  0  0
 16 17  2  0  0  0
 16 21  1  0  0  0
 16 31  1  0  0  0
 17 18  1  0  0  0
 17111  1  0  0  0
 18 19  2  0  0  0
 18112  1  0  0  0
 19 20  1  0  0  0
 19 24  1  0  0  0
 20 21  2  0  0  0
 20113  1  0  0  0
 21 23  1  0  0  0
 22 28  1  0  0  0
 22 32  2  0  0  0
 26 27  1  0  0  0
 28114  1  0  0  0
 28115  1  0  0  0
 29116  1  0  0  0
 29117  1  0  0  0
 33 34  1  0  0  0
 33 66  1  0  0  0
 33 70  2  0  0  0
 34 36  1  0  0  0
 34 59  1  0  0  0
 34118  1  0  0  0
 35 44  2  0  0  0
 35 45  1  0  0  0
 35 68  1  0  0  0
 36 56  1  0  0  0
 36119  1  0  0  0
 37 39  1  0  0  0
 37 47  1  0  0  0
 37 66  1  0  0  0
 37120  1  0  0  0
 38 43  2  0  0  0
 38 46  1  0  0  0
 38 47  1  0  0  0
 39 64  1  0  0  0
 39 67  2  0  0  0
 40 52  1  0  0  0
 40 53  2  0  0  0
 40 58  1  0  0  0
 41121  1  0  0  0
 41122  1  0  0  0
 41123  1  0  0  0
 41 48  1  0  0  0
 42 43  1  0  0  0
 42 66  1  0  0  0
 42124  1  0  0  0
 42125  1  0  0  0
 43 44  1  0  0  0
 44126  1  0  0  0
 45 46  2  0  0  0
 45127  1  0  0  0
 46128  1  0  0  0
 47129  1  0  0  0
 47130  1  0  0  0
 48 56  1  0  0  0
 48 65  1  0  0  0
 48131  1  0  0  0
 49 50  1  0  0  0
 49 53  1  0  0  0
 49 64  1  0  0  0
 49132  1  0  0  0
 50 51  1  0  0  0
 50133  1  0  0  0
 50134  1  0  0  0
 51 52  1  0  0  0
 51135  1  0  0  0
 51136  1  0  0  0
 52137  1  0  0  0
 52138  1  0  0  0
 53 54  1  0  0  0
 54 55  2  0  0  0
 54139  1  0  0  0
 55 57  1  0  0  0
 55140  1  0  0  0
 56 69  2  0  0  0
 57 58  2  0  0  0
 57141  1  0  0  0
 58142  1  0  0  0
 59 60  1  0  0  0
 59 61  1  0  0  0
 59 62  1  0  0  0
 60143  1  0  0  0
 60144  1  0  0  0
 60145  1  0  0  0
 61146  1  0  0  0
 61147  1  0  0  0
 61148  1  0  0  0
 62149  1  0  0  0
 62150  1  0  0  0
 62151  1  0  0  0
 63 65  1  0  0  0
 63152  1  0  0  0
 63153  1  0  0  0
 63154  1  0  0  0
 64155  1  0  0  0
 65156  1  0  0  0
 68 93  1  0  0  0
 71 73  2  0  0  0
 71 77  1  0  0  0
 71157  1  0  0  0
 72 74  2  0  0  0
 72 78  1  0  0  0
 72158  1  0  0  0
 73 82  1  0  0  0
 73159  1  0  0  0
 74 81  1  0  0  0
 74160  1  0  0  0
 75 77  2  0  0  0
 75 79  1  0  0  0
 75161  1  0  0  0
 76 80  1  0  0  0
 76 81  2  0  0  0
 76162  1  0  0  0
 77 83  1  0  0  0
 78 80  2  0  0  0
 78 92  1  0  0  0
 79 82  2  0  0  0
 79 88  1  0  0  0
 80 89  1  0  0  0
 81 94  1  0  0  0
 82 95  1  0  0  0
 83 94  1  0  0  0
 83 97  2  0  0  0
 84 89  1  0  0  0
 84163  1  0  0  0
 84164  1  0  0  0
 84165  1  0  0  0
 85 90  1  0  0  0
 85166  1  0  0  0
 85167  1  0  0  0
 85168  1  0  0  0
 86169  1  0  0  0
 86170  1  0  0  0
 86171  1  0  0  0
 86 93  1  0  0  0
 87 93  1  0  0  0
 87172  1  0  0  0
 87173  1  0  0  0
 87174  1  0  0  0
 88 90  1  0  0  0
 88175  1  0  0  0
 88176  1  0  0  0
 89177  1  0  0  0
 89178  1  0  0  0
 90179  1  0  0  0
 90180  1  0  0  0
 91 92  1  0  0  0
 91 93  1  0  0  0
 91181  1  0  0  0
 91182  1  0  0  0
 92 96  1  0  0  0
 92183  1  0  0  0
 94184  1  0  0  0
 95185  1  0  0  0
 96186  1  0  0  0
 96187  1  0  0  0
 96188  1  0  0  0
M  CHG  1  96   1
M  ISO  4   1 100  68 101  93 101  95 100
M  END
> <chiral flag>
0

> <version>
0

> <s_m_source_file>
/data/baiqing/PycharmProjects/Reinvent-master-3.2/result/LINK_invent/BTK/process_docking_weight1_custom_product_contain_oxygen_bond_distance_aromatic_linkinvent_7_9_3/rearranged_h_0136.sdf

> <i_m_source_file_index>
40

> <r_mmod_Potential_Energy-OPLS-2005>
-180.760803222656

> <r_mmod_Stretch_Energy-OPLS-2005>
44.8286285400391

> <r_mmod_Bend_Energy-OPLS-2005>
155.401657104492

> <r_mmod_Torsional_Energy-OPLS-2005>
283.439208984375

> <r_mmod_Improper_Torsional_Energy-OPLS-2005>
6.66122055053711

> <r_mmod_Van_der_Waal_Energy-OPLS-2005>
213.204727172852

> <r_mmod_Electrostatic_Energy-OPLS-2005>
-428.876525878906

> <r_mmod_Solvation_Energy-OPLS-2005>
-473.817749023438

> <b_mmod_Minimization_Converged-OPLS-2005>
0

> <r_mmod_RMS_Derivative-OPLS-2005>
3.78581070899963

$$$$
40
                    3D
 Structure written by MMmdl.
166174  0  0  1  0            999 V2000
  -30.6507  -14.5285   20.5648 C   0  0  0  0  0  0
  -30.4365  -12.3434   19.4171 C   0  0  0  0  0  0
  -29.5014  -12.5355   18.2030 C   0  0  0  0  0  0
  -28.0220  -12.3774   18.6127 C   0  0  0  0  0  0
  -27.6594  -13.2083   19.8738 C   0  0  2  0  0  0
  -28.7037  -12.9800   20.9890 C   0  0  0  0  0  0
  -25.2538  -13.8137   20.5690 C   0  0  0  0  0  0
  -24.1799  -13.0385   20.9139 C   0  0  0  0  0  0
  -24.6408  -11.6886   20.8720 C   0  0  0  0  0  0
  -23.9088  -10.4261   21.0394 C   0  0  0  0  0  0
  -24.3646   -9.4174   21.9177 C   0  0  0  0  0  0
  -23.6303   -8.2213   22.0749 C   0  0  0  0  0  0
  -22.4266   -8.0266   21.3542 C   0  0  0  0  0  0
  -21.9908   -9.0239   20.4634 C   0  0  0  0  0  0
  -22.7258  -10.2108   20.3036 C   0  0  0  0  0  0
  -21.6852   -6.0729   22.5282 C   0  0  0  0  0  0
  -21.4010   -6.5633   23.8220 C   0  0  0  0  0  0
  -21.3667   -5.6782   24.9174 C   0  0  0  0  0  0
  -21.6056   -4.3049   24.7226 C   0  0  0  0  0  0
  -21.8824   -3.8142   23.4349 C   0  0  0  0  0  0
  -21.9191   -4.6959   22.3403 C   0  0  0  0  0  0
  -22.7818  -13.5194   21.1805 C   0  0  0  0  0  0
  -22.1653   -4.2159   21.0980 F   0  0  0  0  0  0
  -21.5634   -3.4531   25.7737 F   0  0  0  0  0  0
  -30.0316  -13.3184   20.4422 N   0  0  0  0  0  0
  -26.3014  -12.9338   20.3366 N   0  0  0  0  0  0
  -25.9327  -11.6488   20.5735 N   0  0  0  0  0  0
  -22.0467  -12.8206   22.0398 N   0  0  0  0  0  0
  -25.4114  -15.1854   20.4235 N   0  0  0  0  0  0
  -31.7943  -14.7413   20.1472 O   0  0  0  0  0  0
  -21.6629   -6.8859   21.4239 O   0  0  0  0  0  0
  -22.3494  -14.5485   20.6645 O   0  0  0  0  0  0
  -24.6134  -31.8697   23.2134 C   0  0  0  0  0  0
  -25.9021  -32.4841   23.8393 C   0  0  1  0  0  0
  -27.2396  -27.4390   20.1065 C   0  0  0  0  0  0
  -25.5879  -33.8635   24.2330 N   0  0  0  0  0  0
  -23.4012  -30.4944   21.5544 C   0  0  2  0  0  0
  -24.8516  -28.9592   20.1242 C   0  0  0  0  0  0
  -22.7387  -29.4684   22.5019 C   0  0  0  0  0  0
  -18.0267  -28.1369   22.8504 C   0  0  0  0  0  0
  -24.1489  -36.7332   23.2638 C   0  0  0  0  0  0
  -25.9283  -30.8381   21.3668 C   0  0  0  0  0  0
  -26.0107  -29.4687   20.7234 C   0  0  0  0  0  0
  -27.2115  -28.7200   20.7122 C   0  0  0  0  0  0
  -26.0681  -26.9541   19.4917 C   0  0  0  0  0  0
  -24.8733  -27.6985   19.5067 C   0  0  0  0  0  0
  -23.6136  -29.8264   20.1703 C   0  0  0  0  0  0
  -25.4110  -36.3129   24.0346 C   0  0  1  0  0  0
  -20.5851  -28.3666   23.1338 C   0  0  2  0  0  0
  -20.6767  -26.9415   22.5426 C   0  0  0  0  0  0
  -19.5754  -26.6385   21.5213 C   0  0  0  0  0  0
  -18.1927  -26.7920   22.1626 C   0  0  0  0  0  0
  -19.1517  -28.8835   23.2918 C   0  0  0  0  0  0
  -18.9444  -30.1438   23.8926 C   0  0  0  0  0  0
  -17.6451  -30.6583   24.0575 C   0  0  0  0  0  0
  -25.9037  -34.9496   23.5135 C   0  0  0  0  0  0
  -16.5339  -29.9091   23.6322 C   0  0  0  0  0  0
  -16.7256  -28.6507   23.0340 C   0  0  0  0  0  0
  -26.4490  -31.6595   25.0686 C   0  0  0  0  0  0
  -25.3783  -31.3646   26.1444 C   0  0  0  0  0  0
  -27.0322  -30.3050   24.6005 C   0  0  0  0  0  0
  -27.6057  -32.4320   25.7438 C   0  0  0  0  0  0
  -27.5589  -37.1831   24.8461 C   0  0  0  0  0  0
  -21.4122  -29.3037   22.3744 N   0  0  0  0  0  0
  -26.4297  -37.3808   23.9407 N   0  0  0  0  0  0
  -24.6655  -31.0798   22.1049 N   0  0  0  0  0  0
  -23.4156  -28.8232   23.3075 O   0  0  0  0  0  0
  -28.3449  -26.6150   20.0016 O   0  0  0  0  0  0
  -26.5603  -34.8947   22.4699 O   0  0  0  0  0  0
  -23.5333  -32.1456   23.7536 O   0  0  0  0  0  0
  -31.1151  -17.6275   21.4986 C   0  0  0  0  0  0
  -28.7801  -19.0810   20.9297 C   0  0  0  0  0  0
  -31.0856  -19.0393   21.6863 C   0  0  0  0  0  0
  -29.8985  -19.7868   21.4256 C   0  0  0  0  0  0
  -28.8260  -17.6881   20.7089 C   0  0  0  0  0  0
  -29.9726  -16.9343   21.0380 C   0  0  0  0  0  0
  -28.7025  -23.6139   21.1553 C   0  0  0  0  0  0
  -32.3441  -19.7170   22.2032 C   0  0  0  0  0  0
  -30.4372  -27.1965   20.9377 C   0  0  0  0  0  0
  -28.5936  -26.5372   22.5106 C   0  0  0  0  0  0
  -29.7560  -21.3004   21.7492 C   0  0  0  0  0  0
  -29.1009  -22.2015   20.6597 C   0  0  0  0  0  0
  -29.6728  -24.7974   20.8964 C   0  0  0  0  0  0
  -29.2047  -26.2879   21.1086 C   0  0  0  0  0  0
  -27.7219  -17.0497   20.1458 N   0  0  0  0  0  0
  -29.8433  -15.5055   21.0249 N   0  0  0  0  0  0
  -27.6305  -23.7642   21.7469 O   0  0  0  0  0  0
  -31.4775  -12.4728   19.1151 H   0  0  0  0  0  0
  -30.3542  -11.3286   19.8100 H   0  0  0  0  0  0
  -29.7512  -11.8249   17.4153 H   0  0  0  0  0  0
  -29.6546  -13.5275   17.7736 H   0  0  0  0  0  0
  -27.8408  -11.3178   18.7959 H   0  0  0  0  0  0
  -27.3718  -12.6562   17.7828 H   0  0  0  0  0  0
  -27.6952  -14.2566   19.5825 H   0  0  0  0  0  0
  -28.6900  -11.9326   21.2950 H   0  0  0  0  0  0
  -28.4546  -13.5500   21.8848 H   0  0  0  0  0  0
  -25.2804   -9.5656   22.4748 H   0  0  0  0  0  0
  -24.0021   -7.4610   22.7470 H   0  0  0  0  0  0
  -21.0830   -8.8765   19.8954 H   0  0  0  0  0  0
  -22.3721  -10.9649   19.6143 H   0  0  0  0  0  0
  -21.1984   -7.6138   23.9740 H   0  0  0  0  0  0
  -21.1494   -6.0495   25.9085 H   0  0  0  0  0  0
  -22.0596   -2.7606   23.2846 H   0  0  0  0  0  0
  -22.4110  -11.9911   22.4846 H   0  0  0  0  0  0
  -21.1079  -13.1236   22.2587 H   0  0  0  0  0  0
  -24.6395  -15.8265   20.5599 H   0  0  0  0  0  0
  -26.2991  -15.6783   20.3299 H   0  0  0  0  0  0
  -26.7085  -32.5585   23.1154 H   0  0  0  0  0  0
  -24.9915  -33.9808   25.0395 H   0  0  0  0  0  0
  -22.6874  -31.3094   21.4150 H   0  0  0  0  0  0
  -23.3757  -35.9661   23.3301 H   0  0  0  0  0  0
  -24.3558  -36.8946   22.2045 H   0  0  0  0  0  0
  -23.7268  -37.6540   23.6663 H   0  0  0  0  0  0
  -26.0215  -31.5999   20.5917 H   0  0  0  0  0  0
  -26.8228  -30.9055   21.9732 H   0  0  0  0  0  0
  -28.1015  -29.1339   21.1619 H   0  0  0  0  0  0
  -26.0846  -25.9889   19.0044 H   0  0  0  0  0  0
  -23.9847  -27.2990   19.0369 H   0  0  0  0  0  0
  -23.7241  -30.6017   19.4115 H   0  0  0  0  0  0
  -22.7390  -29.2457   19.8738 H   0  0  0  0  0  0
  -25.1308  -36.1967   25.0848 H   0  0  0  0  0  0
  -20.9932  -28.3229   24.1461 H   0  0  0  0  0  0
  -20.5652  -26.2288   23.3606 H   0  0  0  0  0  0
  -21.6639  -26.7461   22.1222 H   0  0  0  0  0  0
  -19.6921  -25.6289   21.1246 H   0  0  0  0  0  0
  -19.6695  -27.3191   20.6732 H   0  0  0  0  0  0
  -17.4200  -26.6678   21.4021 H   0  0  0  0  0  0
  -18.0340  -26.0046   22.9009 H   0  0  0  0  0  0
  -19.7913  -30.7256   24.2303 H   0  0  0  0  0  0
  -17.5003  -31.6265   24.5153 H   0  0  0  0  0  0
  -15.5346  -30.3013   23.7605 H   0  0  0  0  0  0
  -15.8654  -28.0835   22.7026 H   0  0  0  0  0  0
  -24.5982  -30.6977   25.7764 H   0  0  0  0  0  0
  -24.8959  -32.2777   26.4936 H   0  0  0  0  0  0
  -25.8187  -30.8783   27.0157 H   0  0  0  0  0  0
  -26.2819  -29.6770   24.1190 H   0  0  0  0  0  0
  -27.4256  -29.7314   25.4409 H   0  0  0  0  0  0
  -27.8576  -30.4376   23.9003 H   0  0  0  0  0  0
  -27.2657  -33.3610   26.2020 H   0  0  0  0  0  0
  -28.3850  -32.6896   25.0255 H   0  0  0  0  0  0
  -28.0732  -31.8440   26.5344 H   0  0  0  0  0  0
  -28.2600  -38.0133   24.7501 H   0  0  0  0  0  0
  -28.1100  -36.2674   24.6294 H   0  0  0  0  0  0
  -27.2300  -37.1444   25.8857 H   0  0  0  0  0  0
  -20.9273  -29.8734   21.6956 H   0  0  0  0  0  0
  -26.0197  -38.2884   24.1418 H   0  0  0  0  0  0
  -32.0073  -17.0694   21.7452 H   0  0  0  0  0  0
  -27.8604  -19.6118   20.7342 H   0  0  0  0  0  0
  -33.0441  -18.9870   22.6083 H   0  0  0  0  0  0
  -32.1277  -20.4205   23.0064 H   0  0  0  0  0  0
  -32.8452  -20.2541   21.3966 H   0  0  0  0  0  0
  -30.1852  -28.2523   21.0342 H   0  0  0  0  0  0
  -31.2016  -26.9781   21.6839 H   0  0  0  0  0  0
  -30.9004  -27.0623   19.9595 H   0  0  0  0  0  0
  -29.1819  -26.0460   23.2853 H   0  0  0  0  0  0
  -27.5697  -26.1715   22.5856 H   0  0  0  0  0  0
  -28.5738  -27.5973   22.7713 H   0  0  0  0  0  0
  -30.7199  -21.7464   21.9861 H   0  0  0  0  0  0
  -29.1738  -21.3720   22.6715 H   0  0  0  0  0  0
  -29.7597  -22.2908   19.7954 H   0  0  0  0  0  0
  -28.1854  -21.7323   20.3012 H   0  0  0  0  0  0
  -30.0384  -24.6960   19.8751 H   0  0  0  0  0  0
  -30.5379  -24.6134   21.5327 H   0  0  0  0  0  0
  -27.0156  -17.6845   19.7869 H   0  0  0  0  0  0
  -27.9871  -16.3903   19.4233 H   0  0  0  0  0  0
  -28.8994  -15.1971   21.2059 H   0  0  0  0  0  0
  1 25  1  0  0  0
  1 30  2  0  0  0
  1 86  1  0  0  0
  2  3  1  0  0  0
  2 25  1  0  0  0
  2 88  1  0  0  0
  2 89  1  0  0  0
  3  4  1  0  0  0
  3 90  1  0  0  0
  3 91  1  0  0  0
  4  5  1  0  0  0
  4 92  1  0  0  0
  4 93  1  0  0  0
  5  6  1  0  0  0
  5 26  1  0  0  0
  5 94  1  0  0  0
  6 25  1  0  0  0
  6 95  1  0  0  0
  6 96  1  0  0  0
  7  8  2  0  0  0
  7 26  1  0  0  0
  7 29  1  0  0  0
  8  9  1  0  0  0
  8 22  1  0  0  0
  9 10  1  0  0  0
  9 27  2  0  0  0
 10 11  2  0  0  0
 10 15  1  0  0  0
 11 12  1  0  0  0
 11 97  1  0  0  0
 12 13  2  0  0  0
 12 98  1  0  0  0
 13 14  1  0  0  0
 13 31  1  0  0  0
 14 15  2  0  0  0
 14 99  1  0  0  0
 15100  1  0  0  0
 16 17  2  0  0  0
 16 21  1  0  0  0
 16 31  1  0  0  0
 17 18  1  0  0  0
 17101  1  0  0  0
 18 19  2  0  0  0
 18102  1  0  0  0
 19 20  1  0  0  0
 19 24  1  0  0  0
 20 21  2  0  0  0
 20103  1  0  0  0
 21 23  1  0  0  0
 22 28  1  0  0  0
 22 32  2  0  0  0
 26 27  1  0  0  0
 28104  1  0  0  0
 28105  1  0  0  0
 29106  1  0  0  0
 29107  1  0  0  0
 33 34  1  0  0  0
 33 66  1  0  0  0
 33 70  2  0  0  0
 34 36  1  0  0  0
 34 59  1  0  0  0
 34108  1  0  0  0
 35 44  2  0  0  0
 35 45  1  0  0  0
 35 68  1  0  0  0
 36 56  1  0  0  0
 36109  1  0  0  0
 37 39  1  0  0  0
 37 47  1  0  0  0
 37 66  1  0  0  0
 37110  1  0  0  0
 38 43  2  0  0  0
 38 46  1  0  0  0
 38 47  1  0  0  0
 39 64  1  0  0  0
 39 67  2  0  0  0
 40 52  1  0  0  0
 40 53  2  0  0  0
 40 58  1  0  0  0
 41111  1  0  0  0
 41112  1  0  0  0
 41113  1  0  0  0
 41 48  1  0  0  0
 42 43  1  0  0  0
 42 66  1  0  0  0
 42114  1  0  0  0
 42115  1  0  0  0
 43 44  1  0  0  0
 44116  1  0  0  0
 45 46  2  0  0  0
 45117  1  0  0  0
 46118  1  0  0  0
 47119  1  0  0  0
 47120  1  0  0  0
 48 56  1  0  0  0
 48 65  1  0  0  0
 48121  1  0  0  0
 49 50  1  0  0  0
 49 53  1  0  0  0
 49 64  1  0  0  0
 49122  1  0  0  0
 50 51  1  0  0  0
 50123  1  0  0  0
 50124  1  0  0  0
 51 52  1  0  0  0
 51125  1  0  0  0
 51126  1  0  0  0
 52127  1  0  0  0
 52128  1  0  0  0
 53 54  1  0  0  0
 54 55  2  0  0  0
 54129  1  0  0  0
 55 57  1  0  0  0
 55130  1  0  0  0
 56 69  2  0  0  0
 57 58  2  0  0  0
 57131  1  0  0  0
 58132  1  0  0  0
 59 60  1  0  0  0
 59 61  1  0  0  0
 59 62  1  0  0  0
 60133  1  0  0  0
 60134  1  0  0  0
 60135  1  0  0  0
 61136  1  0  0  0
 61137  1  0  0  0
 61138  1  0  0  0
 62139  1  0  0  0
 62140  1  0  0  0
 62141  1  0  0  0
 63 65  1  0  0  0
 63142  1  0  0  0
 63143  1  0  0  0
 63144  1  0  0  0
 64145  1  0  0  0
 65146  1  0  0  0
 68 84  1  0  0  0
 71 73  2  0  0  0
 71 76  1  0  0  0
 71147  1  0  0  0
 72 74  2  0  0  0
 72 75  1  0  0  0
 72148  1  0  0  0
 73 74  1  0  0  0
 73 78  1  0  0  0
 74 81  1  0  0  0
 75 76  2  0  0  0
 75 85  1  0  0  0
 76 86  1  0  0  0
 77 82  1  0  0  0
 77 83  1  0  0  0
 77 87  2  0  0  0
 78149  1  0  0  0
 78150  1  0  0  0
 78151  1  0  0  0
 79152  1  0  0  0
 79153  1  0  0  0
 79154  1  0  0  0
 79 84  1  0  0  0
 80 84  1  0  0  0
 80155  1  0  0  0
 80156  1  0  0  0
 80157  1  0  0  0
 81 82  1  0  0  0
 81158  1  0  0  0
 81159  1  0  0  0
 82160  1  0  0  0
 82161  1  0  0  0
 83 84  1  0  0  0
 83162  1  0  0  0
 83163  1  0  0  0
 85164  1  0  0  0
 85165  1  0  0  0
 86166  1  0  0  0
M  ISO  4   1 100  68 101  84 101  86 100
M  END
> <chiral flag>
0

> <version>
0

> <s_m_source_file>
/data/baiqing/PycharmProjects/Reinvent-master-3.2/result/LINK_invent/BTK/process_docking_weight1_custom_product_contain_oxygen_bond_distance_aromatic_linkinvent_7_9_3/rearranged_h_0136.sdf

> <i_m_source_file_index>
41

> <r_mmod_Potential_Energy-OPLS-2005>
-134.103088378906

> <r_mmod_Stretch_Energy-OPLS-2005>
46.259220123291

> <r_mmod_Bend_Energy-OPLS-2005>
137.043991088867

> <r_mmod_Torsional_Energy-OPLS-2005>
235.317321777344

> <r_mmod_Improper_Torsional_Energy-OPLS-2005>
10.9644651412964

> <r_mmod_Van_der_Waal_Energy-OPLS-2005>
152.709213256836

> <r_mmod_Electrostatic_Energy-OPLS-2005>
-521.83544921875

> <r_mmod_Solvation_Energy-OPLS-2005>
-211.614639282227

> <b_mmod_Minimization_Converged-OPLS-2005>
0

> <r_mmod_RMS_Derivative-OPLS-2005>
3.3209171295166

$$$$
41
                    3D
 Structure written by MMmdl.
166174  0  0  1  0            999 V2000
  -30.7171  -14.5549   20.4135 C   0  0  0  0  0  0
  -30.4028  -12.3169   19.4485 C   0  0  0  0  0  0
  -29.4942  -12.4502   18.2113 C   0  0  0  0  0  0
  -28.0084  -12.3393   18.6133 C   0  0  0  0  0  0
  -27.6335  -13.2148   19.8420 C   0  0  2  0  0  0
  -28.6860  -13.1343   20.9682 C   0  0  0  0  0  0
  -25.2518  -13.8168   20.5674 C   0  0  0  0  0  0
  -24.1800  -13.0457   20.9212 C   0  0  0  0  0  0
  -24.6364  -11.6912   20.8761 C   0  0  0  0  0  0
  -23.9044  -10.4297   21.0389 C   0  0  0  0  0  0
  -24.3600   -9.4199   21.9174 C   0  0  0  0  0  0
  -23.6274   -8.2224   22.0759 C   0  0  0  0  0  0
  -22.4252   -8.0272   21.3556 C   0  0  0  0  0  0
  -21.9881   -9.0250   20.4628 C   0  0  0  0  0  0
  -22.7217  -10.2122   20.3036 C   0  0  0  0  0  0
  -21.6840   -6.0736   22.5300 C   0  0  0  0  0  0
  -21.4002   -6.5632   23.8222 C   0  0  0  0  0  0
  -21.3662   -5.6776   24.9194 C   0  0  0  0  0  0
  -21.6049   -4.3045   24.7225 C   0  0  0  0  0  0
  -21.8815   -3.8146   23.4356 C   0  0  0  0  0  0
  -21.9192   -4.6963   22.3404 C   0  0  0  0  0  0
  -22.7811  -13.5211   21.1885 C   0  0  0  0  0  0
  -22.1653   -4.2141   21.0995 F   0  0  0  0  0  0
  -21.5639   -3.4546   25.7751 F   0  0  0  0  0  0
  -30.0054  -13.3883   20.3765 N   0  0  0  0  0  0
  -26.2907  -12.9321   20.3237 N   0  0  0  0  0  0
  -25.9298  -11.6499   20.5776 N   0  0  0  0  0  0
  -22.0457  -12.8202   22.0412 N   0  0  0  0  0  0
  -25.4357  -15.1892   20.4090 N   0  0  0  0  0  0
  -31.9363  -14.5232   20.2871 O   0  0  0  0  0  0
  -21.6629   -6.8872   21.4238 O   0  0  0  0  0  0
  -22.3466  -14.5536   20.6721 O   0  0  0  0  0  0
  -24.6234  -31.8754   23.2157 C   0  0  0  0  0  0
  -25.9110  -32.4838   23.8501 C   0  0  1  0  0  0
  -27.1623  -27.3574   20.0841 C   0  0  0  0  0  0
  -25.5920  -33.8647   24.2426 N   0  0  0  0  0  0
  -23.4076  -30.5108   21.5543 C   0  0  2  0  0  0
  -24.8486  -28.9862   20.1094 C   0  0  0  0  0  0
  -22.7381  -29.4744   22.4918 C   0  0  0  0  0  0
  -18.0273  -28.1459   22.8434 C   0  0  0  0  0  0
  -24.1463  -36.7298   23.2655 C   0  0  0  0  0  0
  -25.9636  -30.8050   21.3943 C   0  0  0  0  0  0
  -26.0211  -29.4386   20.7339 C   0  0  0  0  0  0
  -27.1875  -28.6261   20.7252 C   0  0  0  0  0  0
  -26.0149  -26.9961   19.3743 C   0  0  0  0  0  0
  -24.8457  -27.7612   19.4312 C   0  0  0  0  0  0
  -23.6209  -29.8729   20.1579 C   0  0  0  0  0  0
  -25.4089  -36.3193   24.0399 C   0  0  1  0  0  0
  -20.5900  -28.3713   23.1364 C   0  0  2  0  0  0
  -20.6633  -26.9341   22.5664 C   0  0  0  0  0  0
  -19.5835  -26.6585   21.5176 C   0  0  0  0  0  0
  -18.1952  -26.8139   22.1452 C   0  0  0  0  0  0
  -19.1527  -28.8862   23.2947 C   0  0  0  0  0  0
  -18.9450  -30.1470   23.8936 C   0  0  0  0  0  0
  -17.6445  -30.6527   24.0666 C   0  0  0  0  0  0
  -25.9044  -34.9501   23.5220 C   0  0  0  0  0  0
  -16.5324  -29.9037   23.6365 C   0  0  0  0  0  0
  -16.7253  -28.6502   23.0333 C   0  0  0  0  0  0
  -26.4516  -31.6640   25.0817 C   0  0  0  0  0  0
  -25.3761  -31.3660   26.1513 C   0  0  0  0  0  0
  -27.0344  -30.3093   24.6230 C   0  0  0  0  0  0
  -27.6142  -32.4327   25.7537 C   0  0  0  0  0  0
  -27.5588  -37.1818   24.8498 C   0  0  0  0  0  0
  -21.4146  -29.2850   22.3490 N   0  0  0  0  0  0
  -26.4306  -37.3835   23.9426 N   0  0  0  0  0  0
  -24.6812  -31.0798   22.1067 N   0  0  0  0  0  0
  -23.4157  -28.8425   23.3062 O   0  0  0  0  0  0
  -28.2166  -26.4696   20.0421 O   0  0  0  0  0  0
  -26.5595  -34.8983   22.4790 O   0  0  0  0  0  0
  -23.5393  -32.1568   23.7514 O   0  0  0  0  0  0
  -31.1751  -18.7955   22.2937 C   0  0  0  0  0  0
  -30.0186  -19.5736   22.3535 C   0  0  0  0  0  0
  -28.9571  -18.0532   20.8074 C   0  0  0  0  0  0
  -30.0957  -17.1720   20.7937 C   0  0  0  0  0  0
  -31.2740  -17.7195   21.3897 C   0  0  0  0  0  0
  -28.9585  -19.3190   21.4579 C   0  0  0  0  0  0
  -29.9934  -15.8779   19.9817 C   0  0  0  0  0  0
  -27.7410  -22.7284   20.6435 C   0  0  0  0  0  0
  -33.0842  -18.5618   19.8800 C   0  0  0  0  0  0
  -25.7846  -24.2455   20.5597 C   0  0  0  0  0  0
  -26.9279  -24.0303   22.6811 C   0  0  0  0  0  0
  -32.6978  -17.4796   20.9027 C   0  0  0  0  0  0
  -28.1767  -21.6302   21.6542 C   0  0  0  0  0  0
  -28.2301  -25.3531   20.9909 C   0  0  0  0  0  0
  -27.2023  -24.1164   21.1607 C   0  0  0  0  0  0
  -29.3326  -15.9060   18.8967 N   0  0  0  0  0  0
  -27.8069  -22.5017   19.4341 O   0  0  0  0  0  0
  -27.9888  -20.2728   21.1655 O   0  0  0  0  0  0
  -31.4517  -12.3780   19.1522 H   0  0  0  0  0  0
  -30.2879  -11.3392   19.9186 H   0  0  0  0  0  0
  -29.7345  -11.6838   17.4756 H   0  0  0  0  0  0
  -29.6809  -13.4055   17.7194 H   0  0  0  0  0  0
  -27.8051  -11.2883   18.8317 H   0  0  0  0  0  0
  -27.3724  -12.6051   17.7659 H   0  0  0  0  0  0
  -27.6100  -14.2383   19.4817 H   0  0  0  0  0  0
  -28.6703  -12.1483   21.4352 H   0  0  0  0  0  0
  -28.4661  -13.8553   21.7583 H   0  0  0  0  0  0
  -25.2756   -9.5698   22.4735 H   0  0  0  0  0  0
  -24.0010   -7.4625   22.7485 H   0  0  0  0  0  0
  -21.0819   -8.8757   19.8930 H   0  0  0  0  0  0
  -22.3682  -10.9660   19.6134 H   0  0  0  0  0  0
  -21.1962   -7.6145   23.9726 H   0  0  0  0  0  0
  -21.1493   -6.0519   25.9092 H   0  0  0  0  0  0
  -22.0588   -2.7611   23.2863 H   0  0  0  0  0  0
  -22.4081  -11.9834   22.4713 H   0  0  0  0  0  0
  -21.1093  -13.1230   22.2670 H   0  0  0  0  0  0
  -24.7036  -15.8799   20.5292 H   0  0  0  0  0  0
  -26.3077  -15.5888   20.0774 H   0  0  0  0  0  0
  -26.7171  -32.5559   23.1275 H   0  0  0  0  0  0
  -25.0096  -33.9802   25.0588 H   0  0  0  0  0  0
  -22.7013  -31.3304   21.4201 H   0  0  0  0  0  0
  -23.3794  -35.9560   23.3372 H   0  0  0  0  0  0
  -24.3561  -36.8819   22.2054 H   0  0  0  0  0  0
  -23.7106  -37.6494   23.6581 H   0  0  0  0  0  0
  -26.1099  -31.5513   20.6094 H   0  0  0  0  0  0
  -26.8387  -30.8394   22.0296 H   0  0  0  0  0  0
  -28.1054  -28.9592   21.1933 H   0  0  0  0  0  0
  -26.0048  -26.1107   18.7620 H   0  0  0  0  0  0
  -23.9560  -27.4230   18.9206 H   0  0  0  0  0  0
  -23.7281  -30.6621   19.4094 H   0  0  0  0  0  0
  -22.7390  -29.3018   19.8577 H   0  0  0  0  0  0
  -25.1247  -36.2146   25.0882 H   0  0  0  0  0  0
  -21.0142  -28.3452   24.1458 H   0  0  0  0  0  0
  -20.4804  -26.2449   23.3894 H   0  0  0  0  0  0
  -21.6609  -26.6899   22.1963 H   0  0  0  0  0  0
  -19.6995  -25.6583   21.0887 H   0  0  0  0  0  0
  -19.6813  -27.3652   20.6948 H   0  0  0  0  0  0
  -17.4272  -26.6971   21.3786 H   0  0  0  0  0  0
  -18.0308  -26.0324   22.8791 H   0  0  0  0  0  0
  -19.7961  -30.7254   24.2309 H   0  0  0  0  0  0
  -17.5005  -31.6168   24.5346 H   0  0  0  0  0  0
  -15.5350  -30.3014   23.7605 H   0  0  0  0  0  0
  -15.8680  -28.0868   22.6842 H   0  0  0  0  0  0
  -24.6015  -30.6945   25.7778 H   0  0  0  0  0  0
  -24.8845  -32.2736   26.5029 H   0  0  0  0  0  0
  -25.8114  -30.8776   27.0252 H   0  0  0  0  0  0
  -26.2883  -29.6859   24.1276 H   0  0  0  0  0  0
  -27.4083  -29.7338   25.4724 H   0  0  0  0  0  0
  -27.8783  -30.4423   23.9448 H   0  0  0  0  0  0
  -27.2885  -33.3662   26.2166 H   0  0  0  0  0  0
  -28.3933  -32.6833   25.0305 H   0  0  0  0  0  0
  -28.0879  -31.8405   26.5395 H   0  0  0  0  0  0
  -28.2700  -38.0042   24.7557 H   0  0  0  0  0  0
  -28.1018  -36.2597   24.6355 H   0  0  0  0  0  0
  -27.2315  -37.1499   25.8908 H   0  0  0  0  0  0
  -20.9399  -29.7916   21.6193 H   0  0  0  0  0  0
  -26.0287  -38.2969   24.1337 H   0  0  0  0  0  0
  -32.0491  -19.1508   22.8200 H   0  0  0  0  0  0
  -30.0550  -20.4401   22.9911 H   0  0  0  0  0  0
  -28.0802  -17.7947   20.2328 H   0  0  0  0  0  0
  -34.1009  -18.4116   19.5158 H   0  0  0  0  0  0
  -33.0331  -19.5601   20.3168 H   0  0  0  0  0  0
  -32.4141  -18.5489   19.0194 H   0  0  0  0  0  0
  -25.7786  -24.2186   19.4690 H   0  0  0  0  0  0
  -25.2698  -25.1397   20.8985 H   0  0  0  0  0  0
  -25.1497  -23.4136   20.8859 H   0  0  0  0  0  0
  -26.4325  -24.9406   23.0330 H   0  0  0  0  0  0
  -27.8653  -23.9160   23.2368 H   0  0  0  0  0  0
  -26.2879  -23.1924   22.9691 H   0  0  0  0  0  0
  -32.8674  -16.5321   20.4278 H   0  0  0  0  0  0
  -33.3849  -17.5173   21.7510 H   0  0  0  0  0  0
  -27.6203  -21.6847   22.5872 H   0  0  0  0  0  0
  -29.2139  -21.8669   21.8746 H   0  0  0  0  0  0
  -29.1998  -24.8981   20.7808 H   0  0  0  0  0  0
  -28.3981  -25.8277   21.9572 H   0  0  0  0  0  0
  -28.9576  -16.8311   18.7313 H   0  0  0  0  0  0
  1 25  1  0  0  0
  1 30  2  0  0  0
  1 77  1  0  0  0
  2  3  1  0  0  0
  2 25  1  0  0  0
  2 89  1  0  0  0
  2 90  1  0  0  0
  3  4  1  0  0  0
  3 91  1  0  0  0
  3 92  1  0  0  0
  4  5  1  0  0  0
  4 93  1  0  0  0
  4 94  1  0  0  0
  5  6  1  0  0  0
  5 26  1  0  0  0
  5 95  1  0  0  0
  6 25  1  0  0  0
  6 96  1  0  0  0
  6 97  1  0  0  0
  7  8  2  0  0  0
  7 26  1  0  0  0
  7 29  1  0  0  0
  8  9  1  0  0  0
  8 22  1  0  0  0
  9 10  1  0  0  0
  9 27  2  0  0  0
 10 11  2  0  0  0
 10 15  1  0  0  0
 11 12  1  0  0  0
 11 98  1  0  0  0
 12 13  2  0  0  0
 12 99  1  0  0  0
 13 14  1  0  0  0
 13 31  1  0  0  0
 14 15  2  0  0  0
 14100  1  0  0  0
 15101  1  0  0  0
 16 17  2  0  0  0
 16 21  1  0  0  0
 16 31  1  0  0  0
 17 18  1  0  0  0
 17102  1  0  0  0
 18 19  2  0  0  0
 18103  1  0  0  0
 19 20  1  0  0  0
 19 24  1  0  0  0
 20 21  2  0  0  0
 20104  1  0  0  0
 21 23  1  0  0  0
 22 28  1  0  0  0
 22 32  2  0  0  0
 26 27  1  0  0  0
 28105  1  0  0  0
 28106  1  0  0  0
 29107  1  0  0  0
 29108  1  0  0  0
 33 34  1  0  0  0
 33 66  1  0  0  0
 33 70  2  0  0  0
 34 36  1  0  0  0
 34 59  1  0  0  0
 34109  1  0  0  0
 35 44  2  0  0  0
 35 45  1  0  0  0
 35 68  1  0  0  0
 36 56  1  0  0  0
 36110  1  0  0  0
 37 39  1  0  0  0
 37 47  1  0  0  0
 37 66  1  0  0  0
 37111  1  0  0  0
 38 43  2  0  0  0
 38 46  1  0  0  0
 38 47  1  0  0  0
 39 64  1  0  0  0
 39 67  2  0  0  0
 40 52  1  0  0  0
 40 53  2  0  0  0
 40 58  1  0  0  0
 41112  1  0  0  0
 41113  1  0  0  0
 41114  1  0  0  0
 41 48  1  0  0  0
 42 43  1  0  0  0
 42 66  1  0  0  0
 42115  1  0  0  0
 42116  1  0  0  0
 43 44  1  0  0  0
 44117  1  0  0  0
 45 46  2  0  0  0
 45118  1  0  0  0
 46119  1  0  0  0
 47120  1  0  0  0
 47121  1  0  0  0
 48 56  1  0  0  0
 48 65  1  0  0  0
 48122  1  0  0  0
 49 50  1  0  0  0
 49 53  1  0  0  0
 49 64  1  0  0  0
 49123  1  0  0  0
 50 51  1  0  0  0
 50124  1  0  0  0
 50125  1  0  0  0
 51 52  1  0  0  0
 51126  1  0  0  0
 51127  1  0  0  0
 52128  1  0  0  0
 52129  1  0  0  0
 53 54  1  0  0  0
 54 55  2  0  0  0
 54130  1  0  0  0
 55 57  1  0  0  0
 55131  1  0  0  0
 56 69  2  0  0  0
 57 58  2  0  0  0
 57132  1  0  0  0
 58133  1  0  0  0
 59 60  1  0  0  0
 59 61  1  0  0  0
 59 62  1  0  0  0
 60134  1  0  0  0
 60135  1  0  0  0
 60136  1  0  0  0
 61137  1  0  0  0
 61138  1  0  0  0
 61139  1  0  0  0
 62140  1  0  0  0
 62141  1  0  0  0
 62142  1  0  0  0
 63 65  1  0  0  0
 63143  1  0  0  0
 63144  1  0  0  0
 63145  1  0  0  0
 64146  1  0  0  0
 65147  1  0  0  0
 68 84  1  0  0  0
 71 72  2  0  0  0
 71 75  1  0  0  0
 71148  1  0  0  0
 72 76  1  0  0  0
 72149  1  0  0  0
 73 74  1  0  0  0
 73 76  2  0  0  0
 73150  1  0  0  0
 74 75  2  0  0  0
 74 77  1  0  0  0
 75 82  1  0  0  0
 76 88  1  0  0  0
 77 86  2  0  0  0
 78 83  1  0  0  0
 78 85  1  0  0  0
 78 87  2  0  0  0
 79 82  1  0  0  0
 79151  1  0  0  0
 79152  1  0  0  0
 79153  1  0  0  0
 80154  1  0  0  0
 80155  1  0  0  0
 80156  1  0  0  0
 80 85  1  0  0  0
 81 85  1  0  0  0
 81157  1  0  0  0
 81158  1  0  0  0
 81159  1  0  0  0
 82160  1  0  0  0
 82161  1  0  0  0
 83 88  1  0  0  0
 83162  1  0  0  0
 83163  1  0  0  0
 84 85  1  0  0  0
 84164  1  0  0  0
 84165  1  0  0  0
 86166  1  0  0  0
M  ISO  4   1 100  68 101  77 100  84 101
M  END
> <chiral flag>
0

> <version>
0

> <s_m_source_file>
/data/baiqing/PycharmProjects/Reinvent-master-3.2/result/LINK_invent/BTK/process_docking_weight1_custom_product_contain_oxygen_bond_distance_aromatic_linkinvent_7_9_3/rearranged_h_0136.sdf

> <i_m_source_file_index>
42

> <r_mmod_Potential_Energy-OPLS-2005>
474.250762939453

> <r_mmod_Stretch_Energy-OPLS-2005>
76.3224105834961

> <r_mmod_Bend_Energy-OPLS-2005>
192.952178955078

> <r_mmod_Torsional_Energy-OPLS-2005>
344.437774658203

> <r_mmod_Improper_Torsional_Energy-OPLS-2005>
22.94114112854

> <r_mmod_Van_der_Waal_Energy-OPLS-2005>
185.892608642578

> <r_mmod_Electrostatic_Energy-OPLS-2005>
-197.416000366211

> <r_mmod_Solvation_Energy-OPLS-2005>
-209.223251342773

> <b_mmod_Minimization_Converged-OPLS-2005>
0

> <r_mmod_RMS_Derivative-OPLS-2005>
11.1296701431274

$$$$
42
                    3D
 Structure written by MMmdl.
165173  0  0  1  0            999 V2000
  -30.6761  -14.5338   20.5376 C   0  0  0  0  0  0
  -30.4240  -12.3371   19.4393 C   0  0  0  0  0  0
  -29.4983  -12.5052   18.2151 C   0  0  0  0  0  0
  -28.0200  -12.3536   18.6276 C   0  0  0  0  0  0
  -27.6544  -13.2069   19.8714 C   0  0  2  0  0  0
  -28.6983  -13.0300   20.9986 C   0  0  0  0  0  0
  -25.2512  -13.8042   20.5681 C   0  0  0  0  0  0
  -24.1812  -13.0333   20.9224 C   0  0  0  0  0  0
  -24.6404  -11.6818   20.8788 C   0  0  0  0  0  0
  -23.9072  -10.4220   21.0446 C   0  0  0  0  0  0
  -24.3613   -9.4126   21.9225 C   0  0  0  0  0  0
  -23.6273   -8.2174   22.0782 C   0  0  0  0  0  0
  -22.4262   -8.0239   21.3549 C   0  0  0  0  0  0
  -21.9908   -9.0225   20.4656 C   0  0  0  0  0  0
  -22.7249  -10.2095   20.3081 C   0  0  0  0  0  0
  -21.6829   -6.0721   22.5285 C   0  0  0  0  0  0
  -21.3984   -6.5631   23.8215 C   0  0  0  0  0  0
  -21.3671   -5.6795   24.9189 C   0  0  0  0  0  0
  -21.6062   -4.3055   24.7238 C   0  0  0  0  0  0
  -21.8811   -3.8133   23.4357 C   0  0  0  0  0  0
  -21.9179   -4.6950   22.3411 C   0  0  0  0  0  0
  -22.7836  -13.5144   21.1878 C   0  0  0  0  0  0
  -22.1654   -4.2136   21.0992 F   0  0  0  0  0  0
  -21.5650   -3.4541   25.7749 F   0  0  0  0  0  0
  -30.0232  -13.3410   20.4391 N   0  0  0  0  0  0
  -26.2988  -12.9277   20.3357 N   0  0  0  0  0  0
  -25.9334  -11.6428   20.5804 N   0  0  0  0  0  0
  -22.0484  -12.8153   22.0441 N   0  0  0  0  0  0
  -25.4043  -15.1728   20.3955 N   0  0  0  0  0  0
  -31.8265  -14.6822   20.1159 O   0  0  0  0  0  0
  -21.6606   -6.8858   21.4244 O   0  0  0  0  0  0
  -22.3531  -14.5465   20.6726 O   0  0  0  0  0  0
  -24.6121  -31.8682   23.2085 C   0  0  0  0  0  0
  -25.9019  -32.4823   23.8386 C   0  0  1  0  0  0
  -27.2448  -27.4399   20.0889 C   0  0  0  0  0  0
  -25.5879  -33.8628   24.2320 N   0  0  0  0  0  0
  -23.4008  -30.4884   21.5508 C   0  0  2  0  0  0
  -24.8476  -28.9486   20.1220 C   0  0  0  0  0  0
  -22.7387  -29.4659   22.5011 C   0  0  0  0  0  0
  -18.0259  -28.1372   22.8496 C   0  0  0  0  0  0
  -24.1489  -36.7323   23.2634 C   0  0  0  0  0  0
  -25.9285  -30.8337   21.3606 C   0  0  0  0  0  0
  -26.0072  -29.4673   20.7094 C   0  0  0  0  0  0
  -27.2066  -28.7200   20.6883 C   0  0  0  0  0  0
  -26.0607  -26.9298   19.5069 C   0  0  0  0  0  0
  -24.8676  -27.6768   19.5232 C   0  0  0  0  0  0
  -23.6082  -29.8131   20.1693 C   0  0  0  0  0  0
  -25.4114  -36.3125   24.0332 C   0  0  1  0  0  0
  -20.5847  -28.3654   23.1330 C   0  0  2  0  0  0
  -20.6755  -26.9399   22.5421 C   0  0  0  0  0  0
  -19.5738  -26.6385   21.5211 C   0  0  0  0  0  0
  -18.1913  -26.7920   22.1622 C   0  0  0  0  0  0
  -19.1509  -28.8835   23.2904 C   0  0  0  0  0  0
  -18.9442  -30.1445   23.8905 C   0  0  0  0  0  0
  -17.6448  -30.6582   24.0565 C   0  0  0  0  0  0
  -25.9041  -34.9484   23.5135 C   0  0  0  0  0  0
  -16.5337  -29.9087   23.6326 C   0  0  0  0  0  0
  -16.7252  -28.6504   23.0348 C   0  0  0  0  0  0
  -26.4437  -31.6596   25.0714 C   0  0  0  0  0  0
  -25.3700  -31.3711   26.1458 C   0  0  0  0  0  0
  -27.0252  -30.3032   24.6094 C   0  0  0  0  0  0
  -27.6020  -32.4294   25.7484 C   0  0  0  0  0  0
  -27.5590  -37.1817   24.8457 C   0  0  0  0  0  0
  -21.4118  -29.3028   22.3740 N   0  0  0  0  0  0
  -26.4303  -37.3806   23.9399 N   0  0  0  0  0  0
  -24.6653  -31.0776   22.0989 N   0  0  0  0  0  0
  -23.4158  -28.8202   23.3053 O   0  0  0  0  0  0
  -28.4390  -26.7470   20.0757 O   0  0  0  0  0  0
  -26.5617  -34.8928   22.4707 O   0  0  0  0  0  0
  -23.5311  -32.1432   23.7480 O   0  0  0  0  0  0
  -29.4118  -19.3191   20.5434 C   0  0  0  0  0  0
  -31.4974  -17.5153   21.0376 C   0  0  0  0  0  0
  -29.1364  -17.9263   20.6105 C   0  0  0  0  0  0
  -30.1930  -16.9973   20.8497 C   0  0  0  0  0  0
  -30.7212  -19.8232   20.7081 C   0  0  0  0  0  0
  -31.7566  -18.9002   20.9669 C   0  0  0  0  0  0
  -29.6884  -23.2162   20.7524 C   0  0  0  0  0  0
  -26.7308  -18.3959   19.7255 C   0  0  0  0  0  0
  -32.1403  -25.0469   21.3416 C   0  0  0  0  0  0
  -27.7000  -17.4347   20.4391 C   0  0  0  0  0  0
  -30.2769  -22.0867   19.8855 C   0  0  0  0  0  0
  -30.6831  -25.5226   21.2038 C   0  0  0  0  0  0
  -28.4059  -25.3128   19.9980 C   0  0  0  0  0  0
  -29.8064  -24.6747   20.2408 C   0  0  2  0  0  0
  -29.9199  -15.5815   20.9533 N   0  0  0  0  0  0
  -29.1579  -22.9676   21.8402 O   0  0  0  0  0  0
  -31.0431  -21.1712   20.6872 O   0  0  0  0  0  0
  -33.0226  -19.3475   21.1541 F   0  0  0  0  0  0
  -31.4693  -12.4376   19.1408 H   0  0  0  0  0  0
  -30.3279  -11.3353   19.8597 H   0  0  0  0  0  0
  -29.7465  -11.7678   17.4507 H   0  0  0  0  0  0
  -29.6567  -13.4839   17.7580 H   0  0  0  0  0  0
  -27.8407  -11.2986   18.8351 H   0  0  0  0  0  0
  -27.3704  -12.6122   17.7914 H   0  0  0  0  0  0
  -27.6804  -14.2454   19.5466 H   0  0  0  0  0  0
  -28.6909  -12.0051   21.3735 H   0  0  0  0  0  0
  -28.4558  -13.6566   21.8583 H   0  0  0  0  0  0
  -25.2762   -9.5563   22.4799 H   0  0  0  0  0  0
  -23.9962   -7.4547   22.7492 H   0  0  0  0  0  0
  -21.0856   -8.8759   19.8935 H   0  0  0  0  0  0
  -22.3751  -10.9651   19.6188 H   0  0  0  0  0  0
  -21.1953   -7.6133   23.9702 H   0  0  0  0  0  0
  -21.1526   -6.0541   25.9101 H   0  0  0  0  0  0
  -22.0583   -2.7586   23.2871 H   0  0  0  0  0  0
  -22.4112  -11.9806   22.4798 H   0  0  0  0  0  0
  -21.1112  -13.1198   22.2675 H   0  0  0  0  0  0
  -24.6106  -15.7993   20.4660 H   0  0  0  0  0  0
  -26.2132  -15.6011   19.9701 H   0  0  0  0  0  0
  -26.7085  -32.5539   23.1148 H   0  0  0  0  0  0
  -25.0005  -33.9785   25.0450 H   0  0  0  0  0  0
  -22.6891  -31.3042   21.4074 H   0  0  0  0  0  0
  -23.3755  -35.9652   23.3294 H   0  0  0  0  0  0
  -24.3578  -36.8944   22.2046 H   0  0  0  0  0  0
  -23.7222  -37.6522   23.6650 H   0  0  0  0  0  0
  -26.0362  -31.5994   20.5907 H   0  0  0  0  0  0
  -26.8177  -30.8904   21.9777 H   0  0  0  0  0  0
  -28.1043  -29.1208   21.1378 H   0  0  0  0  0  0
  -26.0444  -25.9628   19.0268 H   0  0  0  0  0  0
  -23.9717  -27.2659   19.0773 H   0  0  0  0  0  0
  -23.7128  -30.5826   19.4032 H   0  0  0  0  0  0
  -22.7339  -29.2266   19.8797 H   0  0  0  0  0  0
  -25.1283  -36.2010   25.0825 H   0  0  0  0  0  0
  -20.9924  -28.3218   24.1451 H   0  0  0  0  0  0
  -20.5660  -26.2256   23.3598 H   0  0  0  0  0  0
  -21.6627  -26.7449   22.1212 H   0  0  0  0  0  0
  -19.6905  -25.6304   21.1218 H   0  0  0  0  0  0
  -19.6680  -27.3212   20.6754 H   0  0  0  0  0  0
  -17.4183  -26.6666   21.4021 H   0  0  0  0  0  0
  -18.0318  -26.0059   22.9012 H   0  0  0  0  0  0
  -19.7917  -30.7259   24.2267 H   0  0  0  0  0  0
  -17.5007  -31.6267   24.5168 H   0  0  0  0  0  0
  -15.5340  -30.3003   23.7649 H   0  0  0  0  0  0
  -15.8644  -28.0840   22.7053 H   0  0  0  0  0  0
  -24.5889  -30.7034   25.7796 H   0  0  0  0  0  0
  -24.8865  -32.2867   26.4878 H   0  0  0  0  0  0
  -25.8051  -30.8907   27.0228 H   0  0  0  0  0  0
  -26.2805  -29.6835   24.1081 H   0  0  0  0  0  0
  -27.3921  -29.7229   25.4567 H   0  0  0  0  0  0
  -27.8681  -30.4325   23.9304 H   0  0  0  0  0  0
  -27.2652  -33.3582   26.2098 H   0  0  0  0  0  0
  -28.3823  -32.6861   25.0313 H   0  0  0  0  0  0
  -28.0685  -31.8387   26.5374 H   0  0  0  0  0  0
  -28.2607  -38.0118   24.7531 H   0  0  0  0  0  0
  -28.1089  -36.2651   24.6263 H   0  0  0  0  0  0
  -27.2305  -37.1441   25.8859 H   0  0  0  0  0  0
  -20.9268  -29.8757   21.6977 H   0  0  0  0  0  0
  -26.0203  -38.2887   24.1413 H   0  0  0  0  0  0
  -28.6049  -20.0176   20.3936 H   0  0  0  0  0  0
  -32.3249  -16.8577   21.2542 H   0  0  0  0  0  0
  -25.7680  -17.9125   19.5529 H   0  0  0  0  0  0
  -27.1158  -18.7019   18.7525 H   0  0  0  0  0  0
  -26.5271  -19.2906   20.3141 H   0  0  0  0  0  0
  -32.6960  -25.6983   22.0190 H   0  0  0  0  0  0
  -32.6544  -25.0604   20.3801 H   0  0  0  0  0  0
  -32.2085  -24.0355   21.7446 H   0  0  0  0  0  0
  -27.3019  -17.1833   21.4236 H   0  0  0  0  0  0
  -27.7276  -16.5155   19.8602 H   0  0  0  0  0  0
  -30.9485  -22.5251   19.1480 H   0  0  0  0  0  0
  -29.4811  -21.6019   19.3237 H   0  0  0  0  0  0
  -30.7203  -26.5541   20.8510 H   0  0  0  0  0  0
  -30.2119  -25.5620   22.1872 H   0  0  0  0  0  0
  -27.6714  -24.9261   20.7081 H   0  0  0  0  0  0
  -28.0736  -25.0193   19.0009 H   0  0  0  0  0  0
  -30.3219  -24.6516   19.2795 H   0  0  0  0  0  0
  -28.9744  -15.3348   21.2017 H   0  0  0  0  0  0
  1 25  1  0  0  0
  1 30  2  0  0  0
  1 85  1  0  0  0
  2  3  1  0  0  0
  2 25  1  0  0  0
  2 89  1  0  0  0
  2 90  1  0  0  0
  3  4  1  0  0  0
  3 91  1  0  0  0
  3 92  1  0  0  0
  4  5  1  0  0  0
  4 93  1  0  0  0
  4 94  1  0  0  0
  5  6  1  0  0  0
  5 26  1  0  0  0
  5 95  1  0  0  0
  6 25  1  0  0  0
  6 96  1  0  0  0
  6 97  1  0  0  0
  7  8  2  0  0  0
  7 26  1  0  0  0
  7 29  1  0  0  0
  8  9  1  0  0  0
  8 22  1  0  0  0
  9 10  1  0  0  0
  9 27  2  0  0  0
 10 11  2  0  0  0
 10 15  1  0  0  0
 11 12  1  0  0  0
 11 98  1  0  0  0
 12 13  2  0  0  0
 12 99  1  0  0  0
 13 14  1  0  0  0
 13 31  1  0  0  0
 14 15  2  0  0  0
 14100  1  0  0  0
 15101  1  0  0  0
 16 17  2  0  0  0
 16 21  1  0  0  0
 16 31  1  0  0  0
 17 18  1  0  0  0
 17102  1  0  0  0
 18 19  2  0  0  0
 18103  1  0  0  0
 19 20  1  0  0  0
 19 24  1  0  0  0
 20 21  2  0  0  0
 20104  1  0  0  0
 21 23  1  0  0  0
 22 28  1  0  0  0
 22 32  2  0  0  0
 26 27  1  0  0  0
 28105  1  0  0  0
 28106  1  0  0  0
 29107  1  0  0  0
 29108  1  0  0  0
 33 34  1  0  0  0
 33 66  1  0  0  0
 33 70  2  0  0  0
 34 36  1  0  0  0
 34 59  1  0  0  0
 34109  1  0  0  0
 35 44  2  0  0  0
 35 45  1  0  0  0
 35 68  1  0  0  0
 36 56  1  0  0  0
 36110  1  0  0  0
 37 39  1  0  0  0
 37 47  1  0  0  0
 37 66  1  0  0  0
 37111  1  0  0  0
 38 43  2  0  0  0
 38 46  1  0  0  0
 38 47  1  0  0  0
 39 64  1  0  0  0
 39 67  2  0  0  0
 40 52  1  0  0  0
 40 53  2  0  0  0
 40 58  1  0  0  0
 41112  1  0  0  0
 41113  1  0  0  0
 41114  1  0  0  0
 41 48  1  0  0  0
 42 43  1  0  0  0
 42 66  1  0  0  0
 42115  1  0  0  0
 42116  1  0  0  0
 43 44  1  0  0  0
 44117  1  0  0  0
 45 46  2  0  0  0
 45118  1  0  0  0
 46119  1  0  0  0
 47120  1  0  0  0
 47121  1  0  0  0
 48 56  1  0  0  0
 48 65  1  0  0  0
 48122  1  0  0  0
 49 50  1  0  0  0
 49 53  1  0  0  0
 49 64  1  0  0  0
 49123  1  0  0  0
 50 51  1  0  0  0
 50124  1  0  0  0
 50125  1  0  0  0
 51 52  1  0  0  0
 51126  1  0  0  0
 51127  1  0  0  0
 52128  1  0  0  0
 52129  1  0  0  0
 53 54  1  0  0  0
 54 55  2  0  0  0
 54130  1  0  0  0
 55 57  1  0  0  0
 55131  1  0  0  0
 56 69  2  0  0  0
 57 58  2  0  0  0
 57132  1  0  0  0
 58133  1  0  0  0
 59 60  1  0  0  0
 59 61  1  0  0  0
 59 62  1  0  0  0
 60134  1  0  0  0
 60135  1  0  0  0
 60136  1  0  0  0
 61137  1  0  0  0
 61138  1  0  0  0
 61139  1  0  0  0
 62140  1  0  0  0
 62141  1  0  0  0
 62142  1  0  0  0
 63 65  1  0  0  0
 63143  1  0  0  0
 63144  1  0  0  0
 63145  1  0  0  0
 64146  1  0  0  0
 65147  1  0  0  0
 68 83  1  0  0  0
 71 73  2  0  0  0
 71 75  1  0  0  0
 71148  1  0  0  0
 72 74  2  0  0  0
 72 76  1  0  0  0
 72149  1  0  0  0
 73 74  1  0  0  0
 73 80  1  0  0  0
 74 85  1  0  0  0
 75 76  2  0  0  0
 75 87  1  0  0  0
 76 88  1  0  0  0
 77 81  1  0  0  0
 77 84  1  0  0  0
 77 86  2  0  0  0
 78 80  1  0  0  0
 78150  1  0  0  0
 78151  1  0  0  0
 78152  1  0  0  0
 79 82  1  0  0  0
 79153  1  0  0  0
 79154  1  0  0  0
 79155  1  0  0  0
 80156  1  0  0  0
 80157  1  0  0  0
 81 87  1  0  0  0
 81158  1  0  0  0
 81159  1  0  0  0
 82160  1  0  0  0
 82161  1  0  0  0
 82 84  1  0  0  0
 83 84  1  0  0  0
 83162  1  0  0  0
 83163  1  0  0  0
 84164  1  0  0  0
 85165  1  0  0  0
M  ISO  4   1 100  68 101  83 101  85 100
M  END
> <chiral flag>
0

> <version>
0

> <s_m_source_file>
/data/baiqing/PycharmProjects/Reinvent-master-3.2/result/LINK_invent/BTK/process_docking_weight1_custom_product_contain_oxygen_bond_distance_aromatic_linkinvent_7_9_3/rearranged_h_0136.sdf

> <i_m_source_file_index>
43

> <r_mmod_Potential_Energy-OPLS-2005>
40.3523292541504

> <r_mmod_Stretch_Energy-OPLS-2005>
44.1323776245117

> <r_mmod_Bend_Energy-OPLS-2005>
108.674385070801

> <r_mmod_Torsional_Energy-OPLS-2005>
240.15461730957

> <r_mmod_Improper_Torsional_Energy-OPLS-2005>
5.27114343643188

> <r_mmod_Van_der_Waal_Energy-OPLS-2005>
158.164520263672

> <r_mmod_Electrostatic_Energy-OPLS-2005>
-315.325866699219

> <r_mmod_Solvation_Energy-OPLS-2005>
-218.224227905273

> <b_mmod_Minimization_Converged-OPLS-2005>
0

> <r_mmod_RMS_Derivative-OPLS-2005>
2.3160834312439

$$$$
43
                    3D
 Structure written by MMmdl.
167175  0  0  1  0            999 V2000
  -30.7691  -14.4932   20.6667 C   0  0  0  0  0  0
  -30.4079  -12.3522   19.4478 C   0  0  0  0  0  0
  -29.4959  -12.5298   18.2190 C   0  0  0  0  0  0
  -28.0221  -12.3522   18.6206 C   0  0  0  0  0  0
  -27.6541  -13.2078   19.8577 C   0  0  2  0  0  0
  -28.6859  -13.0430   20.9937 C   0  0  0  0  0  0
  -25.2587  -13.8169   20.5673 C   0  0  0  0  0  0
  -24.1825  -13.0441   20.9119 C   0  0  0  0  0  0
  -24.6380  -11.6905   20.8677 C   0  0  0  0  0  0
  -23.9050  -10.4299   21.0374 C   0  0  0  0  0  0
  -24.3608   -9.4223   21.9162 C   0  0  0  0  0  0
  -23.6288   -8.2256   22.0748 C   0  0  0  0  0  0
  -22.4268   -8.0287   21.3543 C   0  0  0  0  0  0
  -21.9893   -9.0251   20.4642 C   0  0  0  0  0  0
  -22.7215  -10.2131   20.3035 C   0  0  0  0  0  0
  -21.6857   -6.0743   22.5284 C   0  0  0  0  0  0
  -21.4016   -6.5644   23.8219 C   0  0  0  0  0  0
  -21.3653   -5.6793   24.9177 C   0  0  0  0  0  0
  -21.6041   -4.3057   24.7224 C   0  0  0  0  0  0
  -21.8818   -3.8152   23.4346 C   0  0  0  0  0  0
  -21.9191   -4.6972   22.3404 C   0  0  0  0  0  0
  -22.7854  -13.5235   21.1817 C   0  0  0  0  0  0
  -22.1662   -4.2159   21.0982 F   0  0  0  0  0  0
  -21.5620   -3.4539   25.7735 F   0  0  0  0  0  0
  -30.0264  -13.3534   20.4703 N   0  0  0  0  0  0
  -26.2987  -12.9322   20.3260 N   0  0  0  0  0  0
  -25.9300  -11.6483   20.5682 N   0  0  0  0  0  0
  -22.0515  -12.8225   22.0392 N   0  0  0  0  0  0
  -25.4410  -15.1886   20.4247 N   0  0  0  0  0  0
  -31.7823  -14.6612   19.9783 O   0  0  0  0  0  0
  -21.6636   -6.8882   21.4247 O   0  0  0  0  0  0
  -22.3516  -14.5534   20.6672 O   0  0  0  0  0  0
  -24.6186  -31.8660   23.2089 C   0  0  0  0  0  0
  -25.9068  -32.4808   23.8391 C   0  0  1  0  0  0
  -27.2219  -27.3877   20.0959 C   0  0  0  0  0  0
  -25.5916  -33.8611   24.2313 N   0  0  0  0  0  0
  -23.4072  -30.4927   21.5501 C   0  0  2  0  0  0
  -24.8503  -28.9600   20.1095 C   0  0  0  0  0  0
  -22.7427  -29.4663   22.4969 C   0  0  0  0  0  0
  -18.0275  -28.1382   22.8490 C   0  0  0  0  0  0
  -24.1486  -36.7309   23.2639 C   0  0  0  0  0  0
  -25.9422  -30.8156   21.3715 C   0  0  0  0  0  0
  -26.0149  -29.4489   20.7135 C   0  0  0  0  0  0
  -27.2015  -28.6706   20.7049 C   0  0  0  0  0  0
  -26.0371  -26.9407   19.4619 C   0  0  0  0  0  0
  -24.8596  -27.7072   19.4788 C   0  0  0  0  0  0
  -23.6153  -29.8315   20.1628 C   0  0  0  0  0  0
  -25.4109  -36.3100   24.0331 C   0  0  1  0  0  0
  -20.5869  -28.3678   23.1301 C   0  0  2  0  0  0
  -20.6765  -26.9411   22.5406 C   0  0  0  0  0  0
  -19.5745  -26.6386   21.5203 C   0  0  0  0  0  0
  -18.1924  -26.7927   22.1616 C   0  0  0  0  0  0
  -19.1527  -28.8845   23.2892 C   0  0  0  0  0  0
  -18.9458  -30.1447   23.8908 C   0  0  0  0  0  0
  -17.6462  -30.6588   24.0565 C   0  0  0  0  0  0
  -25.9042  -34.9467   23.5114 C   0  0  0  0  0  0
  -16.5352  -29.9089   23.6334 C   0  0  0  0  0  0
  -16.7265  -28.6505   23.0353 C   0  0  0  0  0  0
  -26.4478  -31.6604   25.0742 C   0  0  0  0  0  0
  -25.3729  -31.3711   26.1481 C   0  0  0  0  0  0
  -27.0318  -30.3040   24.6155 C   0  0  0  0  0  0
  -27.6049  -32.4332   25.7502 C   0  0  0  0  0  0
  -27.5579  -37.1809   24.8467 C   0  0  0  0  0  0
  -21.4152  -29.3048   22.3711 N   0  0  0  0  0  0
  -26.4291  -37.3790   23.9413 N   0  0  0  0  0  0
  -24.6743  -31.0729   22.1008 N   0  0  0  0  0  0
  -23.4182  -28.8193   23.3017 O   0  0  0  0  0  0
  -28.3689  -26.6008   20.1484 O   0  0  0  0  0  0
  -26.5600  -34.8920   22.4676 O   0  0  0  0  0  0
  -23.5372  -32.1441   23.7460 O   0  0  0  0  0  0
  -29.5443  -20.3634   20.4881 C   0  0  0  0  0  0
  -27.4676  -21.5379   20.9670 C   0  0  0  0  0  0
  -27.7081  -19.1803   21.5623 C   0  0  0  0  0  0
  -28.7772  -21.5693   20.4418 C   0  0  0  0  0  0
  -29.0208  -19.1532   21.0348 C   0  0  0  0  0  0
  -26.9415  -20.3603   21.5276 C   0  0  0  0  0  0
  -29.2591  -22.8058   19.7288 C   0  0  0  0  0  0
  -29.4677  -16.6585   21.2179 C   0  0  0  0  0  0
  -29.1481  -24.1620   21.9340 C   0  0  0  0  0  0
  -30.7353  -24.8359   20.1312 C   0  0  0  0  0  0
  -31.8574  -16.3157   22.0909 C   0  0  0  0  0  0
  -30.0158  -15.0127   23.1229 C   0  0  0  0  0  0
  -28.2534  -25.1906   19.7986 C   0  0  0  0  0  0
  -29.3373  -24.2296   20.4011 C   0  0  0  0  0  0
  -30.5035  -15.6063   21.7692 C   0  0  0  0  0  0
  -29.6547  -22.6797   18.5324 N   0  0  0  0  0  0
  -29.8406  -17.9669   21.1260 N   0  0  0  0  0  0
  -28.3308  -16.2921   20.9100 O   0  0  0  0  0  0
  -25.6850  -20.3618   22.0331 F   0  0  0  0  0  0
  -31.4552  -12.4196   19.1504 H   0  0  0  0  0  0
  -30.2950  -11.3473   19.8582 H   0  0  0  0  0  0
  -29.7633  -11.8129   17.4418 H   0  0  0  0  0  0
  -29.6459  -13.5219   17.7896 H   0  0  0  0  0  0
  -27.8582  -11.2955   18.8359 H   0  0  0  0  0  0
  -27.3688  -12.5980   17.7827 H   0  0  0  0  0  0
  -27.6825  -14.2444   19.5253 H   0  0  0  0  0  0
  -28.6683  -12.0262   21.3882 H   0  0  0  0  0  0
  -28.3752  -13.6826   21.8098 H   0  0  0  0  0  0
  -25.2758   -9.5712   22.4726 H   0  0  0  0  0  0
  -24.0006   -7.4656   22.7472 H   0  0  0  0  0  0
  -21.0820   -8.8762   19.8956 H   0  0  0  0  0  0
  -22.3666  -10.9661   19.6140 H   0  0  0  0  0  0
  -21.2013   -7.6152   23.9726 H   0  0  0  0  0  0
  -21.1471   -6.0521   25.9078 H   0  0  0  0  0  0
  -22.0598   -2.7617   23.2841 H   0  0  0  0  0  0
  -22.4148  -11.9890   22.4775 H   0  0  0  0  0  0
  -21.1133  -13.1240   22.2614 H   0  0  0  0  0  0
  -24.7077  -15.8623   20.6138 H   0  0  0  0  0  0
  -26.3596  -15.6153   20.3229 H   0  0  0  0  0  0
  -26.7137  -32.5490   23.1144 H   0  0  0  0  0  0
  -25.0084  -33.9774   25.0468 H   0  0  0  0  0  0
  -22.6982  -31.3120   21.4133 H   0  0  0  0  0  0
  -23.3742  -35.9648   23.3310 H   0  0  0  0  0  0
  -24.3582  -36.8923   22.2053 H   0  0  0  0  0  0
  -23.7244  -37.6518   23.6654 H   0  0  0  0  0  0
  -26.0662  -31.5819   20.6051 H   0  0  0  0  0  0
  -26.8267  -30.8624   21.9952 H   0  0  0  0  0  0
  -28.0959  -29.0409   21.1862 H   0  0  0  0  0  0
  -25.9882  -25.9952   18.9433 H   0  0  0  0  0  0
  -23.9684  -27.3307   18.9962 H   0  0  0  0  0  0
  -23.7253  -30.6105   19.4076 H   0  0  0  0  0  0
  -22.7370  -29.2569   19.8639 H   0  0  0  0  0  0
  -25.1283  -36.1959   25.0823 H   0  0  0  0  0  0
  -20.9962  -28.3242   24.1420 H   0  0  0  0  0  0
  -20.5663  -26.2290   23.3598 H   0  0  0  0  0  0
  -21.6640  -26.7451   22.1204 H   0  0  0  0  0  0
  -19.6911  -25.6293   21.1239 H   0  0  0  0  0  0
  -19.6683  -27.3193   20.6728 H   0  0  0  0  0  0
  -17.4193  -26.6675   21.4018 H   0  0  0  0  0  0
  -18.0335  -26.0059   22.9006 H   0  0  0  0  0  0
  -19.7933  -30.7258   24.2284 H   0  0  0  0  0  0
  -17.5018  -31.6271   24.5159 H   0  0  0  0  0  0
  -15.5355  -30.2993   23.7656 H   0  0  0  0  0  0
  -15.8663  -28.0826   22.7069 H   0  0  0  0  0  0
  -24.5919  -30.7034   25.7823 H   0  0  0  0  0  0
  -24.8889  -32.2858   26.4919 H   0  0  0  0  0  0
  -25.8077  -30.8900   27.0249 H   0  0  0  0  0  0
  -26.2872  -29.6791   24.1206 H   0  0  0  0  0  0
  -27.4071  -29.7295   25.4634 H   0  0  0  0  0  0
  -27.8714  -30.4353   23.9324 H   0  0  0  0  0  0
  -27.2677  -33.3639   26.2078 H   0  0  0  0  0  0
  -28.3858  -32.6887   25.0326 H   0  0  0  0  0  0
  -28.0711  -31.8454   26.5419 H   0  0  0  0  0  0
  -28.2599  -38.0102   24.7519 H   0  0  0  0  0  0
  -28.1072  -36.2640   24.6285 H   0  0  0  0  0  0
  -27.2302  -37.1453   25.8871 H   0  0  0  0  0  0
  -20.9310  -29.8787   21.6949 H   0  0  0  0  0  0
  -26.0174  -38.2868   24.1408 H   0  0  0  0  0  0
  -30.5441  -20.3696   20.0757 H   0  0  0  0  0  0
  -26.8401  -22.4157   20.9206 H   0  0  0  0  0  0
  -27.2714  -18.3025   22.0142 H   0  0  0  0  0  0
  -29.8633  -23.4819   22.3985 H   0  0  0  0  0  0
  -28.1473  -23.8411   22.2180 H   0  0  0  0  0  0
  -29.2944  -25.1428   22.3874 H   0  0  0  0  0  0
  -31.5352  -24.1765   20.4702 H   0  0  0  0  0  0
  -30.8635  -25.7920   20.6395 H   0  0  0  0  0  0
  -30.8915  -25.0229   19.0680 H   0  0  0  0  0  0
  -31.7495  -17.0657   22.8758 H   0  0  0  0  0  0
  -32.2887  -16.8185   21.2234 H   0  0  0  0  0  0
  -32.6005  -15.5982   22.4418 H   0  0  0  0  0  0
  -30.5131  -15.4738   23.9764 H   0  0  0  0  0  0
  -30.2159  -13.9438   23.2050 H   0  0  0  0  0  0
  -28.9497  -15.1693   23.2917 H   0  0  0  0  0  0
  -27.2930  -24.7919   20.1268 H   0  0  0  0  0  0
  -28.2630  -25.1271   18.7096 H   0  0  0  0  0  0
  -29.5674  -21.7203   18.2162 H   0  0  0  0  0  0
  -30.8322  -18.1292   21.2374 H   0  0  0  0  0  0
  1 25  1  0  0  0
  1 30  2  0  0  0
  1 85  1  0  0  0
  2  3  1  0  0  0
  2 25  1  0  0  0
  2 90  1  0  0  0
  2 91  1  0  0  0
  3  4  1  0  0  0
  3 92  1  0  0  0
  3 93  1  0  0  0
  4  5  1  0  0  0
  4 94  1  0  0  0
  4 95  1  0  0  0
  5  6  1  0  0  0
  5 26  1  0  0  0
  5 96  1  0  0  0
  6 25  1  0  0  0
  6 97  1  0  0  0
  6 98  1  0  0  0
  7  8  2  0  0  0
  7 26  1  0  0  0
  7 29  1  0  0  0
  8  9  1  0  0  0
  8 22  1  0  0  0
  9 10  1  0  0  0
  9 27  2  0  0  0
 10 11  2  0  0  0
 10 15  1  0  0  0
 11 12  1  0  0  0
 11 99  1  0  0  0
 12 13  2  0  0  0
 12100  1  0  0  0
 13 14  1  0  0  0
 13 31  1  0  0  0
 14 15  2  0  0  0
 14101  1  0  0  0
 15102  1  0  0  0
 16 17  2  0  0  0
 16 21  1  0  0  0
 16 31  1  0  0  0
 17 18  1  0  0  0
 17103  1  0  0  0
 18 19  2  0  0  0
 18104  1  0  0  0
 19 20  1  0  0  0
 19 24  1  0  0  0
 20 21  2  0  0  0
 20105  1  0  0  0
 21 23  1  0  0  0
 22 28  1  0  0  0
 22 32  2  0  0  0
 26 27  1  0  0  0
 28106  1  0  0  0
 28107  1  0  0  0
 29108  1  0  0  0
 29109  1  0  0  0
 33 34  1  0  0  0
 33 66  1  0  0  0
 33 70  2  0  0  0
 34 36  1  0  0  0
 34 59  1  0  0  0
 34110  1  0  0  0
 35 44  2  0  0  0
 35 45  1  0  0  0
 35 68  1  0  0  0
 36 56  1  0  0  0
 36111  1  0  0  0
 37 39  1  0  0  0
 37 47  1  0  0  0
 37 66  1  0  0  0
 37112  1  0  0  0
 38 43  2  0  0  0
 38 46  1  0  0  0
 38 47  1  0  0  0
 39 64  1  0  0  0
 39 67  2  0  0  0
 40 52  1  0  0  0
 40 53  2  0  0  0
 40 58  1  0  0  0
 41113  1  0  0  0
 41114  1  0  0  0
 41115  1  0  0  0
 41 48  1  0  0  0
 42 43  1  0  0  0
 42 66  1  0  0  0
 42116  1  0  0  0
 42117  1  0  0  0
 43 44  1  0  0  0
 44118  1  0  0  0
 45 46  2  0  0  0
 45119  1  0  0  0
 46120  1  0  0  0
 47121  1  0  0  0
 47122  1  0  0  0
 48 56  1  0  0  0
 48 65  1  0  0  0
 48123  1  0  0  0
 49 50  1  0  0  0
 49 53  1  0  0  0
 49 64  1  0  0  0
 49124  1  0  0  0
 50 51  1  0  0  0
 50125  1  0  0  0
 50126  1  0  0  0
 51 52  1  0  0  0
 51127  1  0  0  0
 51128  1  0  0  0
 52129  1  0  0  0
 52130  1  0  0  0
 53 54  1  0  0  0
 54 55  2  0  0  0
 54131  1  0  0  0
 55 57  1  0  0  0
 55132  1  0  0  0
 56 69  2  0  0  0
 57 58  2  0  0  0
 57133  1  0  0  0
 58134  1  0  0  0
 59 60  1  0  0  0
 59 61  1  0  0  0
 59 62  1  0  0  0
 60135  1  0  0  0
 60136  1  0  0  0
 60137  1  0  0  0
 61138  1  0  0  0
 61139  1  0  0  0
 61140  1  0  0  0
 62141  1  0  0  0
 62142  1  0  0  0
 62143  1  0  0  0
 63 65  1  0  0  0
 63144  1  0  0  0
 63145  1  0  0  0
 63146  1  0  0  0
 64147  1  0  0  0
 65148  1  0  0  0
 68 83  1  0  0  0
 71 74  2  0  0  0
 71 75  1  0  0  0
 71149  1  0  0  0
 72 74  1  0  0  0
 72 76  2  0  0  0
 72150  1  0  0  0
 73 75  2  0  0  0
 73 76  1  0  0  0
 73151  1  0  0  0
 74 77  1  0  0  0
 75 87  1  0  0  0
 76 89  1  0  0  0
 77 84  1  0  0  0
 77 86  2  0  0  0
 78 85  1  0  0  0
 78 87  1  0  0  0
 78 88  2  0  0  0
 79152  1  0  0  0
 79153  1  0  0  0
 79154  1  0  0  0
 79 84  1  0  0  0
 80 84  1  0  0  0
 80155  1  0  0  0
 80156  1  0  0  0
 80157  1  0  0  0
 81158  1  0  0  0
 81159  1  0  0  0
 81160  1  0  0  0
 81 85  1  0  0  0
 82 85  1  0  0  0
 82161  1  0  0  0
 82162  1  0  0  0
 82163  1  0  0  0
 83 84  1  0  0  0
 83164  1  0  0  0
 83165  1  0  0  0
 86166  1  0  0  0
 87167  1  0  0  0
M  ISO  4   1 100  68 101  83 101  85 100
M  END
> <chiral flag>
0

> <version>
0

> <s_m_source_file>
/data/baiqing/PycharmProjects/Reinvent-master-3.2/result/LINK_invent/BTK/process_docking_weight1_custom_product_contain_oxygen_bond_distance_aromatic_linkinvent_7_9_3/rearranged_h_0136.sdf

> <i_m_source_file_index>
44

> <r_mmod_Potential_Energy-OPLS-2005>
48.2757034301758

> <r_mmod_Stretch_Energy-OPLS-2005>
67.3301239013672

> <r_mmod_Bend_Energy-OPLS-2005>
134.085067749023

> <r_mmod_Torsional_Energy-OPLS-2005>
212.176727294922

> <r_mmod_Improper_Torsional_Energy-OPLS-2005>
3.20511722564697

> <r_mmod_Van_der_Waal_Energy-OPLS-2005>
175.264144897461

> <r_mmod_Electrostatic_Energy-OPLS-2005>
-375.456176757812

> <r_mmod_Solvation_Energy-OPLS-2005>
-189.531509399414

> <b_mmod_Minimization_Converged-OPLS-2005>
0

> <r_mmod_RMS_Derivative-OPLS-2005>
1.01193785667419

$$$$
44
                    3D
 Structure written by MMmdl.
157166  0  0  1  0            999 V2000
  -30.6048  -14.7617   20.4659 C   0  0  0  0  0  0
  -30.4464  -12.4658   19.4701 C   0  0  0  0  0  0
  -29.5151  -12.5129   18.2369 C   0  0  0  0  0  0
  -28.0406  -12.3342   18.6513 C   0  0  0  0  0  0
  -27.6438  -13.2294   19.8550 C   0  0  2  0  0  0
  -28.6967  -13.1564   20.9861 C   0  0  0  0  0  0
  -25.2388  -13.8018   20.5606 C   0  0  0  0  0  0
  -24.1750  -13.0291   20.9242 C   0  0  0  0  0  0
  -24.6411  -11.6811   20.8798 C   0  0  0  0  0  0
  -23.9090  -10.4213   21.0432 C   0  0  0  0  0  0
  -24.3627   -9.4130   21.9211 C   0  0  0  0  0  0
  -23.6278   -8.2184   22.0766 C   0  0  0  0  0  0
  -22.4262   -8.0251   21.3545 C   0  0  0  0  0  0
  -21.9912   -9.0229   20.4649 C   0  0  0  0  0  0
  -22.7264  -10.2092   20.3068 C   0  0  0  0  0  0
  -21.6837   -6.0722   22.5281 C   0  0  0  0  0  0
  -21.4005   -6.5632   23.8216 C   0  0  0  0  0  0
  -21.3653   -5.6785   24.9176 C   0  0  0  0  0  0
  -21.6044   -4.3048   24.7228 C   0  0  0  0  0  0
  -21.8818   -3.8138   23.4352 C   0  0  0  0  0  0
  -21.9184   -4.6952   22.3406 C   0  0  0  0  0  0
  -22.7778  -13.5106   21.1879 C   0  0  0  0  0  0
  -22.1656   -4.2140   21.0985 F   0  0  0  0  0  0
  -21.5626   -3.4534   25.7743 F   0  0  0  0  0  0
  -30.0009  -13.5211   20.4082 N   0  0  0  0  0  0
  -26.2936  -12.9331   20.3307 N   0  0  0  0  0  0
  -25.9362  -11.6474   20.5831 N   0  0  0  0  0  0
  -22.0417  -12.8134   22.0454 N   0  0  0  0  0  0
  -25.3720  -15.1666   20.3756 N   0  0  0  0  0  0
  -31.7882  -14.8923   20.1425 O   0  0  0  0  0  0
  -21.6612   -6.8861   21.4244 O   0  0  0  0  0  0
  -22.3478  -14.5421   20.6721 O   0  0  0  0  0  0
  -24.6299  -31.8551   23.1981 C   0  0  0  0  0  0
  -25.9123  -32.4758   23.8332 C   0  0  1  0  0  0
  -27.2405  -27.2844   20.1307 C   0  0  0  0  0  0
  -25.5921  -33.8558   24.2256 N   0  0  0  0  0  0
  -23.4289  -30.4741   21.5403 C   0  0  2  0  0  0
  -24.8831  -28.9173   20.1175 C   0  0  0  0  0  0
  -22.7504  -29.4593   22.4918 C   0  0  0  0  0  0
  -18.0294  -28.1383   22.8482 C   0  0  0  0  0  0
  -24.1487  -36.7287   23.2636 C   0  0  0  0  0  0
  -25.9726  -30.7735   21.3771 C   0  0  0  0  0  0
  -26.0524  -29.3942   20.7267 C   0  0  0  0  0  0
  -27.2369  -28.5888   20.7254 C   0  0  0  0  0  0
  -26.0500  -26.8635   19.5058 C   0  0  0  0  0  0
  -24.8843  -27.6564   19.4988 C   0  0  0  0  0  0
  -23.6505  -29.8012   20.1596 C   0  0  0  0  0  0
  -25.4110  -36.3070   24.0327 C   0  0  1  0  0  0
  -20.5896  -28.3696   23.1266 C   0  0  2  0  0  0
  -20.6781  -26.9413   22.5406 C   0  0  0  0  0  0
  -19.5758  -26.6382   21.5208 C   0  0  0  0  0  0
  -18.1939  -26.7924   22.1623 C   0  0  0  0  0  0
  -19.1547  -28.8857   23.2868 C   0  0  0  0  0  0
  -18.9468  -30.1456   23.8889 C   0  0  0  0  0  0
  -17.6466  -30.6583   24.0563 C   0  0  0  0  0  0
  -25.9053  -34.9442   23.5096 C   0  0  0  0  0  0
  -16.5357  -29.9080   23.6331 C   0  0  0  0  0  0
  -16.7280  -28.6499   23.0350 C   0  0  0  0  0  0
  -26.4496  -31.6579   25.0717 C   0  0  0  0  0  0
  -25.3722  -31.3733   26.1441 C   0  0  0  0  0  0
  -27.0345  -30.2994   24.6201 C   0  0  0  0  0  0
  -27.6048  -32.4320   25.7490 C   0  0  0  0  0  0
  -27.5584  -37.1786   24.8453 C   0  0  0  0  0  0
  -21.4212  -29.3038   22.3654 N   0  0  0  0  0  0
  -26.4280  -37.3775   23.9421 N   0  0  0  0  0  0
  -24.6955  -31.0522   22.0952 N   0  0  0  0  0  0
  -23.4199  -28.8148   23.3032 O   0  0  0  0  0  0
  -28.3219  -26.3812   20.1000 O   0  0  0  0  0  0
  -26.5630  -34.8916   22.4668 O   0  0  0  0  0  0
  -23.5448  -32.1365   23.7275 O   0  0  0  0  0  0
  -28.6729  -19.5619   20.5001 C   0  0  0  0  0  0
  -31.0638  -18.1194   20.6870 C   0  0  0  0  0  0
  -28.6848  -18.1278   20.5064 C   0  0  0  0  0  0
  -29.8451  -20.3417   20.6332 C   0  0  0  0  0  0
  -29.8759  -17.3373   20.6069 C   0  0  0  0  0  0
  -31.0492  -19.5610   20.7178 C   0  0  0  0  0  0
  -28.7136  -24.0221   21.1148 C   0  0  0  0  0  0
  -28.3757  -25.3747   21.0875 C   0  0  0  0  0  0
  -28.7683  -23.2933   22.4391 C   0  0  0  0  0  0
  -29.1387  -22.9049   20.1000 C   0  0  0  0  0  0
  -29.7737  -22.1387   22.2725 C   0  0  0  0  0  0
  -27.3502  -17.4350   20.4296 C   0  0  0  0  0  0
  -29.8098  -21.7814   20.8574 N   0  0  0  0  0  0
  -29.7708  -15.8475   20.6910 N   0  0  0  0  0  0
  -32.5665  -20.3711   20.9032 Cl  0  0  0  0  0  0
  -31.4842  -12.6041   19.1621 H   0  0  0  0  0  0
  -30.4043  -11.4870   19.9506 H   0  0  0  0  0  0
  -29.7964  -11.7389   17.5215 H   0  0  0  0  0  0
  -29.6374  -13.4660   17.7201 H   0  0  0  0  0  0
  -27.8995  -11.2847   18.9126 H   0  0  0  0  0  0
  -27.3827  -12.5275   17.8031 H   0  0  0  0  0  0
  -27.6337  -14.2525   19.4800 H   0  0  0  0  0  0
  -28.7372  -12.1536   21.4132 H   0  0  0  0  0  0
  -28.4301  -13.8236   21.8074 H   0  0  0  0  0  0
  -25.2773   -9.5588   22.4790 H   0  0  0  0  0  0
  -23.9963   -7.4570   22.7493 H   0  0  0  0  0  0
  -21.0834   -8.8768   19.8963 H   0  0  0  0  0  0
  -22.3743  -10.9641   19.6175 H   0  0  0  0  0  0
  -21.2002   -7.6142   23.9715 H   0  0  0  0  0  0
  -21.1476   -6.0519   25.9078 H   0  0  0  0  0  0
  -22.0605   -2.7599   23.2860 H   0  0  0  0  0  0
  -22.4021  -11.9802   22.4866 H   0  0  0  0  0  0
  -21.1048  -13.1194   22.2659 H   0  0  0  0  0  0
  -24.5669  -15.7806   20.4374 H   0  0  0  0  0  0
  -26.1603  -15.5924   19.9111 H   0  0  0  0  0  0
  -26.7194  -32.5426   23.1083 H   0  0  0  0  0  0
  -25.0057  -33.9695   25.0392 H   0  0  0  0  0  0
  -22.7247  -31.2948   21.3898 H   0  0  0  0  0  0
  -23.3750  -35.9617   23.3282 H   0  0  0  0  0  0
  -24.3584  -36.8923   22.2054 H   0  0  0  0  0  0
  -23.7234  -37.6482   23.6666 H   0  0  0  0  0  0
  -26.1066  -31.5316   20.6043 H   0  0  0  0  0  0
  -26.8509  -30.8279   22.0083 H   0  0  0  0  0  0
  -28.1364  -28.9524   21.2018 H   0  0  0  0  0  0
  -26.0227  -25.8916   19.0334 H   0  0  0  0  0  0
  -23.9896  -27.2823   19.0201 H   0  0  0  0  0  0
  -23.7726  -30.5738   19.3996 H   0  0  0  0  0  0
  -22.7713  -29.2296   19.8569 H   0  0  0  0  0  0
  -25.1285  -36.1914   25.0818 H   0  0  0  0  0  0
  -20.9986  -28.3278   24.1387 H   0  0  0  0  0  0
  -20.5675  -26.2309   23.3612 H   0  0  0  0  0  0
  -21.6650  -26.7431   22.1205 H   0  0  0  0  0  0
  -19.6922  -25.6294   21.1233 H   0  0  0  0  0  0
  -19.6692  -27.3197   20.6740 H   0  0  0  0  0  0
  -17.4206  -26.6662   21.4031 H   0  0  0  0  0  0
  -18.0348  -26.0066   22.9023 H   0  0  0  0  0  0
  -19.7944  -30.7272   24.2256 H   0  0  0  0  0  0
  -17.5020  -31.6259   24.5172 H   0  0  0  0  0  0
  -15.5357  -30.2979   23.7657 H   0  0  0  0  0  0
  -15.8683  -28.0815   22.7065 H   0  0  0  0  0  0
  -24.5904  -30.7070   25.7778 H   0  0  0  0  0  0
  -24.8908  -32.2905   26.4845 H   0  0  0  0  0  0
  -25.8043  -30.8932   27.0231 H   0  0  0  0  0  0
  -26.2933  -29.6739   24.1213 H   0  0  0  0  0  0
  -27.4015  -29.7259   25.4724 H   0  0  0  0  0  0
  -27.8815  -30.4267   23.9455 H   0  0  0  0  0  0
  -27.2653  -33.3625   26.2054 H   0  0  0  0  0  0
  -28.3868  -32.6872   25.0326 H   0  0  0  0  0  0
  -28.0706  -31.8455   26.5420 H   0  0  0  0  0  0
  -28.2562  -38.0122   24.7555 H   0  0  0  0  0  0
  -28.1118  -36.2657   24.6200 H   0  0  0  0  0  0
  -27.2316  -37.1337   25.8857 H   0  0  0  0  0  0
  -20.9406  -29.8743   21.6839 H   0  0  0  0  0  0
  -26.0155  -38.2839   24.1461 H   0  0  0  0  0  0
  -27.7251  -20.0791   20.4563 H   0  0  0  0  0  0
  -32.0156  -17.6164   20.7732 H   0  0  0  0  0  0
  -28.1292  -25.8338   22.0356 H   0  0  0  0  0  0
  -27.7756  -22.8869   22.6377 H   0  0  0  0  0  0
  -29.0293  -23.9501   23.2698 H   0  0  0  0  0  0
  -29.8081  -23.3222   19.3467 H   0  0  0  0  0  0
  -28.2540  -22.5279   19.5851 H   0  0  0  0  0  0
  -29.5050  -21.2951   22.9118 H   0  0  0  0  0  0
  -30.7711  -22.4653   22.5711 H   0  0  0  0  0  0
  -26.5193  -18.1401   20.3892 H   0  0  0  0  0  0
  -27.2134  -16.8103   21.3130 H   0  0  0  0  0  0
  -27.3144  -16.8217   19.5296 H   0  0  0  0  0  0
  -28.8310  -15.5307   20.8693 H   0  0  0  0  0  0
  1 25  1  0  0  0
  1 30  2  0  0  0
  1 84  1  0  0  0
  2  3  1  0  0  0
  2 25  1  0  0  0
  2 86  1  0  0  0
  2 87  1  0  0  0
  3  4  1  0  0  0
  3 88  1  0  0  0
  3 89  1  0  0  0
  4  5  1  0  0  0
  4 90  1  0  0  0
  4 91  1  0  0  0
  5  6  1  0  0  0
  5 26  1  0  0  0
  5 92  1  0  0  0
  6 25  1  0  0  0
  6 93  1  0  0  0
  6 94  1  0  0  0
  7  8  2  0  0  0
  7 26  1  0  0  0
  7 29  1  0  0  0
  8  9  1  0  0  0
  8 22  1  0  0  0
  9 10  1  0  0  0
  9 27  2  0  0  0
 10 11  2  0  0  0
 10 15  1  0  0  0
 11 12  1  0  0  0
 11 95  1  0  0  0
 12 13  2  0  0  0
 12 96  1  0  0  0
 13 14  1  0  0  0
 13 31  1  0  0  0
 14 15  2  0  0  0
 14 97  1  0  0  0
 15 98  1  0  0  0
 16 17  2  0  0  0
 16 21  1  0  0  0
 16 31  1  0  0  0
 17 18  1  0  0  0
 17 99  1  0  0  0
 18 19  2  0  0  0
 18100  1  0  0  0
 19 20  1  0  0  0
 19 24  1  0  0  0
 20 21  2  0  0  0
 20101  1  0  0  0
 21 23  1  0  0  0
 22 28  1  0  0  0
 22 32  2  0  0  0
 26 27  1  0  0  0
 28102  1  0  0  0
 28103  1  0  0  0
 29104  1  0  0  0
 29105  1  0  0  0
 33 34  1  0  0  0
 33 66  1  0  0  0
 33 70  2  0  0  0
 34 36  1  0  0  0
 34 59  1  0  0  0
 34106  1  0  0  0
 35 44  2  0  0  0
 35 45  1  0  0  0
 35 68  1  0  0  0
 36 56  1  0  0  0
 36107  1  0  0  0
 37 39  1  0  0  0
 37 47  1  0  0  0
 37 66  1  0  0  0
 37108  1  0  0  0
 38 43  2  0  0  0
 38 46  1  0  0  0
 38 47  1  0  0  0
 39 64  1  0  0  0
 39 67  2  0  0  0
 40 52  1  0  0  0
 40 53  2  0  0  0
 40 58  1  0  0  0
 41109  1  0  0  0
 41110  1  0  0  0
 41111  1  0  0  0
 41 48  1  0  0  0
 42 43  1  0  0  0
 42 66  1  0  0  0
 42112  1  0  0  0
 42113  1  0  0  0
 43 44  1  0  0  0
 44114  1  0  0  0
 45 46  2  0  0  0
 45115  1  0  0  0
 46116  1  0  0  0
 47117  1  0  0  0
 47118  1  0  0  0
 48 56  1  0  0  0
 48 65  1  0  0  0
 48119  1  0  0  0
 49 50  1  0  0  0
 49 53  1  0  0  0
 49 64  1  0  0  0
 49120  1  0  0  0
 50 51  1  0  0  0
 50121  1  0  0  0
 50122  1  0  0  0
 51 52  1  0  0  0
 51123  1  0  0  0
 51124  1  0  0  0
 52125  1  0  0  0
 52126  1  0  0  0
 53 54  1  0  0  0
 54 55  2  0  0  0
 54127  1  0  0  0
 55 57  1  0  0  0
 55128  1  0  0  0
 56 69  2  0  0  0
 57 58  2  0  0  0
 57129  1  0  0  0
 58130  1  0  0  0
 59 60  1  0  0  0
 59 61  1  0  0  0
 59 62  1  0  0  0
 60131  1  0  0  0
 60132  1  0  0  0
 60133  1  0  0  0
 61134  1  0  0  0
 61135  1  0  0  0
 61136  1  0  0  0
 62137  1  0  0  0
 62138  1  0  0  0
 62139  1  0  0  0
 63 65  1  0  0  0
 63140  1  0  0  0
 63141  1  0  0  0
 63142  1  0  0  0
 64143  1  0  0  0
 65144  1  0  0  0
 68 78  1  0  0  0
 71 73  2  0  0  0
 71 74  1  0  0  0
 71145  1  0  0  0
 72 75  2  0  0  0
 72 76  1  0  0  0
 72146  1  0  0  0
 73 75  1  0  0  0
 73 82  1  0  0  0
 74 76  2  0  0  0
 74 83  1  0  0  0
 75 84  1  0  0  0
 76 85  1  0  0  0
 77 78  2  0  0  0
 77 79  1  0  0  0
 77 80  1  0  0  0
 78147  1  0  0  0
 79 81  1  0  0  0
 79148  1  0  0  0
 79149  1  0  0  0
 80 83  1  0  0  0
 80150  1  0  0  0
 80151  1  0  0  0
 81 83  1  0  0  0
 81152  1  0  0  0
 81153  1  0  0  0
 82154  1  0  0  0
 82155  1  0  0  0
 82156  1  0  0  0
 84157  1  0  0  0
M  ISO  4   1 100  68 101  78 101  84 100
M  END
> <chiral flag>
0

> <version>
0

> <s_m_source_file>
/data/baiqing/PycharmProjects/Reinvent-master-3.2/result/LINK_invent/BTK/process_docking_weight1_custom_product_contain_oxygen_bond_distance_aromatic_linkinvent_7_9_3/rearranged_h_0136.sdf

> <i_m_source_file_index>
45

> <r_mmod_Potential_Energy-OPLS-2005>
280.690124511719

> <r_mmod_Stretch_Energy-OPLS-2005>
104.078384399414

> <r_mmod_Bend_Energy-OPLS-2005>
236.925445556641

> <r_mmod_Torsional_Energy-OPLS-2005>
271.019744873047

> <r_mmod_Improper_Torsional_Energy-OPLS-2005>
9.59220695495605

> <r_mmod_Van_der_Waal_Energy-OPLS-2005>
131.313201904297

> <r_mmod_Electrostatic_Energy-OPLS-2005>
-343.027496337891

> <r_mmod_Solvation_Energy-OPLS-2005>
-212.919937133789

> <b_mmod_Minimization_Converged-OPLS-2005>
0

> <r_mmod_RMS_Derivative-OPLS-2005>
0.823757469654083

$$$$
45
                    3D
 Structure written by MMmdl.
159167  0  0  1  0            999 V2000
  -30.6581  -14.5411   20.4600 C   0  0  0  0  0  0
  -30.4343  -12.2924   19.4726 C   0  0  0  0  0  0
  -29.5062  -12.3424   18.2385 C   0  0  0  0  0  0
  -28.0158  -12.3074   18.6382 C   0  0  0  0  0  0
  -27.6545  -13.1996   19.8591 C   0  0  2  0  0  0
  -28.6964  -13.0518   20.9896 C   0  0  0  0  0  0
  -25.2582  -13.8164   20.5689 C   0  0  0  0  0  0
  -24.1825  -13.0452   20.9206 C   0  0  0  0  0  0
  -24.6359  -11.6915   20.8763 C   0  0  0  0  0  0
  -23.9027  -10.4301   21.0420 C   0  0  0  0  0  0
  -24.3593   -9.4213   21.9188 C   0  0  0  0  0  0
  -23.6283   -8.2241   22.0738 C   0  0  0  0  0  0
  -22.4266   -8.0274   21.3536 C   0  0  0  0  0  0
  -21.9895   -9.0247   20.4645 C   0  0  0  0  0  0
  -22.7202  -10.2141   20.3064 C   0  0  0  0  0  0
  -21.6855   -6.0732   22.5272 C   0  0  0  0  0  0
  -21.4016   -6.5636   23.8203 C   0  0  0  0  0  0
  -21.3660   -5.6795   24.9168 C   0  0  0  0  0  0
  -21.6043   -4.3056   24.7223 C   0  0  0  0  0  0
  -21.8822   -3.8144   23.4346 C   0  0  0  0  0  0
  -21.9193   -4.6959   22.3402 C   0  0  0  0  0  0
  -22.7855  -13.5256   21.1879 C   0  0  0  0  0  0
  -22.1662   -4.2145   21.0980 F   0  0  0  0  0  0
  -21.5632   -3.4541   25.7737 F   0  0  0  0  0  0
  -30.0196  -13.3398   20.4204 N   0  0  0  0  0  0
  -26.2988  -12.9312   20.3337 N   0  0  0  0  0  0
  -25.9283  -11.6489   20.5824 N   0  0  0  0  0  0
  -22.0510  -12.8225   22.0433 N   0  0  0  0  0  0
  -25.4364  -15.1871   20.4069 N   0  0  0  0  0  0
  -31.8414  -14.6745   20.1347 O   0  0  0  0  0  0
  -21.6639   -6.8864   21.4230 O   0  0  0  0  0  0
  -22.3536  -14.5561   20.6728 O   0  0  0  0  0  0
  -24.6132  -31.8692   23.2116 C   0  0  0  0  0  0
  -25.9030  -32.4834   23.8411 C   0  0  1  0  0  0
  -27.2372  -27.4467   20.1028 C   0  0  0  0  0  0
  -25.5897  -33.8633   24.2343 N   0  0  0  0  0  0
  -23.4011  -30.4911   21.5511 C   0  0  2  0  0  0
  -24.8501  -28.9555   20.1184 C   0  0  0  0  0  0
  -22.7401  -29.4669   22.5004 C   0  0  0  0  0  0
  -18.0270  -28.1384   22.8486 C   0  0  0  0  0  0
  -24.1499  -36.7319   23.2641 C   0  0  0  0  0  0
  -25.9280  -30.8396   21.3610 C   0  0  0  0  0  0
  -26.0085  -29.4731   20.7123 C   0  0  0  0  0  0
  -27.2081  -28.7257   20.7014 C   0  0  0  0  0  0
  -26.0673  -26.9425   19.4960 C   0  0  0  0  0  0
  -24.8733  -27.6886   19.5083 C   0  0  0  0  0  0
  -23.6104  -29.8198   20.1666 C   0  0  0  0  0  0
  -25.4118  -36.3114   24.0340 C   0  0  1  0  0  0
  -20.5860  -28.3665   23.1333 C   0  0  2  0  0  0
  -20.6773  -26.9398   22.5444 C   0  0  0  0  0  0
  -19.5770  -26.6386   21.5228 C   0  0  0  0  0  0
  -18.1929  -26.7933   22.1599 C   0  0  0  0  0  0
  -19.1516  -28.8833   23.2915 C   0  0  0  0  0  0
  -18.9447  -30.1435   23.8934 C   0  0  0  0  0  0
  -17.6451  -30.6587   24.0573 C   0  0  0  0  0  0
  -25.9035  -34.9478   23.5132 C   0  0  0  0  0  0
  -16.5341  -29.9089   23.6325 C   0  0  0  0  0  0
  -16.7260  -28.6510   23.0341 C   0  0  0  0  0  0
  -26.4471  -31.6605   25.0719 C   0  0  0  0  0  0
  -25.3737  -31.3712   26.1468 C   0  0  0  0  0  0
  -27.0272  -30.3045   24.6064 C   0  0  0  0  0  0
  -27.6093  -32.4278   25.7429 C   0  0  0  0  0  0
  -27.5594  -37.1799   24.8455 C   0  0  0  0  0  0
  -21.4132  -29.3031   22.3731 N   0  0  0  0  0  0
  -26.4302  -37.3793   23.9402 N   0  0  0  0  0  0
  -24.6659  -31.0801   22.1010 N   0  0  0  0  0  0
  -23.4178  -28.8212   23.3046 O   0  0  0  0  0  0
  -28.3903  -26.6978   20.0985 O   0  0  0  0  0  0
  -26.5601  -34.8926   22.4693 O   0  0  0  0  0  0
  -23.5329  -32.1410   23.7534 O   0  0  0  0  0  0
  -30.1007  -19.4401   18.7290 C   0  0  0  0  0  0
  -29.8063  -18.1004   20.7351 C   0  0  0  0  0  0
  -30.2097  -18.2756   17.9548 C   0  0  0  0  0  0
  -30.0684  -17.0076   18.5628 C   0  0  0  0  0  0
  -29.9499  -16.8995   19.9823 C   0  0  0  0  0  0
  -29.8418  -19.3825   20.1180 C   0  0  0  0  0  0
  -29.0629  -24.3266   20.2572 C   0  0  0  0  0  0
  -30.4491  -18.4297   16.4591 C   0  0  0  0  0  0
  -29.9610  -15.7847   17.6702 C   0  0  0  0  0  0
  -29.0919  -22.9890   21.0310 C   0  0  0  0  0  0
  -28.3085  -25.5057   20.9004 C   0  0  0  0  0  0
  -29.5411  -21.7860   20.1676 C   0  0  0  0  0  0
  -29.8573  -15.6203   20.6499 N   0  0  0  0  0  0
  -29.6270  -24.4497   19.1639 O   0  0  0  0  0  0
  -29.6145  -20.5297   20.8741 O   0  0  0  0  0  0
  -31.4756  -12.3963   19.1621 H   0  0  0  0  0  0
  -30.3670  -11.3160   19.9556 H   0  0  0  0  0  0
  -29.7158  -11.4769   17.6074 H   0  0  0  0  0  0
  -29.7326  -13.1912   17.6056 H   0  0  0  0  0  0
  -27.7878  -11.2681   18.8776 H   0  0  0  0  0  0
  -27.3856  -12.5570   17.7843 H   0  0  0  0  0  0
  -27.6750  -14.2315   19.5126 H   0  0  0  0  0  0
  -28.6790  -12.0427   21.4024 H   0  0  0  0  0  0
  -28.4654  -13.7191   21.8219 H   0  0  0  0  0  0
  -25.2745   -9.5693   22.4750 H   0  0  0  0  0  0
  -24.0013   -7.4624   22.7432 H   0  0  0  0  0  0
  -21.0838   -8.8743   19.8942 H   0  0  0  0  0  0
  -22.3648  -10.9676   19.6166 H   0  0  0  0  0  0
  -21.2001   -7.6141   23.9703 H   0  0  0  0  0  0
  -21.1480   -6.0527   25.9071 H   0  0  0  0  0  0
  -22.0601   -2.7608   23.2845 H   0  0  0  0  0  0
  -22.4147  -11.9867   22.4773 H   0  0  0  0  0  0
  -21.1122  -13.1223   22.2673 H   0  0  0  0  0  0
  -24.6741  -15.8487   20.5041 H   0  0  0  0  0  0
  -26.2906  -15.6167   20.0753 H   0  0  0  0  0  0
  -26.7101  -32.5557   23.1179 H   0  0  0  0  0  0
  -25.0080  -33.9822   25.0506 H   0  0  0  0  0  0
  -22.6892  -31.3071   21.4108 H   0  0  0  0  0  0
  -23.3769  -35.9645   23.3298 H   0  0  0  0  0  0
  -24.3597  -36.8938   22.2055 H   0  0  0  0  0  0
  -23.7243  -37.6520   23.6657 H   0  0  0  0  0  0
  -26.0325  -31.6035   20.5896 H   0  0  0  0  0  0
  -26.8185  -30.8998   21.9753 H   0  0  0  0  0  0
  -28.1028  -29.1193   21.1618 H   0  0  0  0  0  0
  -26.0817  -25.9749   19.0131 H   0  0  0  0  0  0
  -23.9811  -27.2858   19.0480 H   0  0  0  0  0  0
  -23.7181  -30.5929   19.4051 H   0  0  0  0  0  0
  -22.7362  -29.2372   19.8701 H   0  0  0  0  0  0
  -25.1301  -36.1991   25.0835 H   0  0  0  0  0  0
  -20.9952  -28.3243   24.1455 H   0  0  0  0  0  0
  -20.5682  -26.2276   23.3640 H   0  0  0  0  0  0
  -21.6645  -26.7454   22.1235 H   0  0  0  0  0  0
  -19.6940  -25.6301   21.1253 H   0  0  0  0  0  0
  -19.6742  -27.3207   20.6773 H   0  0  0  0  0  0
  -17.4228  -26.6720   21.3966 H   0  0  0  0  0  0
  -18.0289  -26.0052   22.8961 H   0  0  0  0  0  0
  -19.7926  -30.7238   24.2334 H   0  0  0  0  0  0
  -17.5007  -31.6268   24.5165 H   0  0  0  0  0  0
  -15.5345  -30.3009   23.7633 H   0  0  0  0  0  0
  -15.8657  -28.0847   22.7039 H   0  0  0  0  0  0
  -24.5971  -30.6979   25.7823 H   0  0  0  0  0  0
  -24.8848  -32.2858   26.4829 H   0  0  0  0  0  0
  -25.8087  -30.8973   27.0271 H   0  0  0  0  0  0
  -26.2777  -29.6809   24.1176 H   0  0  0  0  0  0
  -27.4117  -29.7289   25.4493 H   0  0  0  0  0  0
  -27.8588  -30.4379   23.9139 H   0  0  0  0  0  0
  -27.2794  -33.3597   26.2023 H   0  0  0  0  0  0
  -28.3868  -32.6783   25.0197 H   0  0  0  0  0  0
  -28.0794  -31.8370   26.5300 H   0  0  0  0  0  0
  -28.2626  -38.0083   24.7481 H   0  0  0  0  0  0
  -28.1074  -36.2612   24.6293 H   0  0  0  0  0  0
  -27.2315  -37.1458   25.8861 H   0  0  0  0  0  0
  -20.9299  -29.8724   21.6926 H   0  0  0  0  0  0
  -26.0212  -38.2881   24.1396 H   0  0  0  0  0  0
  -30.1864  -20.3814   18.2078 H   0  0  0  0  0  0
  -29.6451  -18.0419   21.8021 H   0  0  0  0  0  0
  -30.8230  -19.4237   16.2108 H   0  0  0  0  0  0
  -29.5220  -18.2755   15.9062 H   0  0  0  0  0  0
  -31.1930  -17.7141   16.1066 H   0  0  0  0  0  0
  -29.6929  -16.0118   16.6398 H   0  0  0  0  0  0
  -29.1490  -15.1666   18.0416 H   0  0  0  0  0  0
  -30.8934  -15.2216   17.6612 H   0  0  0  0  0  0
  -28.0962  -22.8043   21.4323 H   0  0  0  0  0  0
  -29.7592  -23.1069   21.8836 H   0  0  0  0  0  0
  -28.7460  -25.7160   21.8760 H   0  0  0  0  0  0
  -27.2751  -25.2055   21.0766 H   0  0  0  0  0  0
  -30.5231  -22.0021   19.7417 H   0  0  0  0  0  0
  -28.8291  -21.6966   19.3439 H   0  0  0  0  0  0
  -28.9794  -15.4302   21.1081 H   0  0  0  0  0  0
  1 25  1  0  0  0
  1 30  2  0  0  0
  1 83  1  0  0  0
  2  3  1  0  0  0
  2 25  1  0  0  0
  2 86  1  0  0  0
  2 87  1  0  0  0
  3  4  1  0  0  0
  3 88  1  0  0  0
  3 89  1  0  0  0
  4  5  1  0  0  0
  4 90  1  0  0  0
  4 91  1  0  0  0
  5  6  1  0  0  0
  5 26  1  0  0  0
  5 92  1  0  0  0
  6 25  1  0  0  0
  6 93  1  0  0  0
  6 94  1  0  0  0
  7  8  2  0  0  0
  7 26  1  0  0  0
  7 29  1  0  0  0
  8  9  1  0  0  0
  8 22  1  0  0  0
  9 10  1  0  0  0
  9 27  2  0  0  0
 10 11  2  0  0  0
 10 15  1  0  0  0
 11 12  1  0  0  0
 11 95  1  0  0  0
 12 13  2  0  0  0
 12 96  1  0  0  0
 13 14  1  0  0  0
 13 31  1  0  0  0
 14 15  2  0  0  0
 14 97  1  0  0  0
 15 98  1  0  0  0
 16 17  2  0  0  0
 16 21  1  0  0  0
 16 31  1  0  0  0
 17 18  1  0  0  0
 17 99  1  0  0  0
 18 19  2  0  0  0
 18100  1  0  0  0
 19 20  1  0  0  0
 19 24  1  0  0  0
 20 21  2  0  0  0
 20101  1  0  0  0
 21 23  1  0  0  0
 22 28  1  0  0  0
 22 32  2  0  0  0
 26 27  1  0  0  0
 28102  1  0  0  0
 28103  1  0  0  0
 29104  1  0  0  0
 29105  1  0  0  0
 33 34  1  0  0  0
 33 66  1  0  0  0
 33 70  2  0  0  0
 34 36  1  0  0  0
 34 59  1  0  0  0
 34106  1  0  0  0
 35 44  2  0  0  0
 35 45  1  0  0  0
 35 68  1  0  0  0
 36 56  1  0  0  0
 36107  1  0  0  0
 37 39  1  0  0  0
 37 47  1  0  0  0
 37 66  1  0  0  0
 37108  1  0  0  0
 38 43  2  0  0  0
 38 46  1  0  0  0
 38 47  1  0  0  0
 39 64  1  0  0  0
 39 67  2  0  0  0
 40 52  1  0  0  0
 40 53  2  0  0  0
 40 58  1  0  0  0
 41109  1  0  0  0
 41110  1  0  0  0
 41111  1  0  0  0
 41 48  1  0  0  0
 42 43  1  0  0  0
 42 66  1  0  0  0
 42112  1  0  0  0
 42113  1  0  0  0
 43 44  1  0  0  0
 44114  1  0  0  0
 45 46  2  0  0  0
 45115  1  0  0  0
 46116  1  0  0  0
 47117  1  0  0  0
 47118  1  0  0  0
 48 56  1  0  0  0
 48 65  1  0  0  0
 48119  1  0  0  0
 49 50  1  0  0  0
 49 53  1  0  0  0
 49 64  1  0  0  0
 49120  1  0  0  0
 50 51  1  0  0  0
 50121  1  0  0  0
 50122  1  0  0  0
 51 52  1  0  0  0
 51123  1  0  0  0
 51124  1  0  0  0
 52125  1  0  0  0
 52126  1  0  0  0
 53 54  1  0  0  0
 54 55  2  0  0  0
 54127  1  0  0  0
 55 57  1  0  0  0
 55128  1  0  0  0
 56 69  2  0  0  0
 57 58  2  0  0  0
 57129  1  0  0  0
 58130  1  0  0  0
 59 60  1  0  0  0
 59 61  1  0  0  0
 59 62  1  0  0  0
 60131  1  0  0  0
 60132  1  0  0  0
 60133  1  0  0  0
 61134  1  0  0  0
 61135  1  0  0  0
 61136  1  0  0  0
 62137  1  0  0  0
 62138  1  0  0  0
 62139  1  0  0  0
 63 65  1  0  0  0
 63140  1  0  0  0
 63141  1  0  0  0
 63142  1  0  0  0
 64143  1  0  0  0
 65144  1  0  0  0
 68 81  1  0  0  0
 71 73  2  0  0  0
 71 76  1  0  0  0
 71145  1  0  0  0
 72 75  1  0  0  0
 72 76  2  0  0  0
 72146  1  0  0  0
 73 74  1  0  0  0
 73 78  1  0  0  0
 74 75  2  0  0  0
 74 79  1  0  0  0
 75 83  1  0  0  0
 76 85  1  0  0  0
 77 80  1  0  0  0
 77 81  1  0  0  0
 77 84  2  0  0  0
 78147  1  0  0  0
 78148  1  0  0  0
 78149  1  0  0  0
 79150  1  0  0  0
 79151  1  0  0  0
 79152  1  0  0  0
 80 82  1  0  0  0
 80153  1  0  0  0
 80154  1  0  0  0
 81155  1  0  0  0
 81156  1  0  0  0
 82 85  1  0  0  0
 82157  1  0  0  0
 82158  1  0  0  0
 83159  1  0  0  0
M  ISO  4   1 100  68 101  81 101  83 100
M  END
> <chiral flag>
0

> <version>
0

> <s_m_source_file>
/data/baiqing/PycharmProjects/Reinvent-master-3.2/result/LINK_invent/BTK/process_docking_weight1_custom_product_contain_oxygen_bond_distance_aromatic_linkinvent_7_9_3/rearranged_h_0136.sdf

> <i_m_source_file_index>
46

> <r_mmod_Potential_Energy-OPLS-2005>
-0.586691319942474

> <r_mmod_Stretch_Energy-OPLS-2005>
43.6492195129395

> <r_mmod_Bend_Energy-OPLS-2005>
95.2772979736328

> <r_mmod_Torsional_Energy-OPLS-2005>
270.814483642578

> <r_mmod_Improper_Torsional_Energy-OPLS-2005>
6.42993259429932

> <r_mmod_Van_der_Waal_Energy-OPLS-2005>
167.0888671875

> <r_mmod_Electrostatic_Energy-OPLS-2005>
-378.090454101562

> <r_mmod_Solvation_Energy-OPLS-2005>
-231.400375366211

> <b_mmod_Minimization_Converged-OPLS-2005>
0

> <r_mmod_RMS_Derivative-OPLS-2005>
1.85616135597229

$$$$
46
                    3D
 Structure written by MMmdl.
164172  0  0  1  0            999 V2000
  -30.5417  -14.6555   20.4184 C   0  0  0  0  0  0
  -30.4504  -12.3712   19.4423 C   0  0  0  0  0  0
  -29.5214  -12.4773   18.2079 C   0  0  0  0  0  0
  -28.0306  -12.3326   18.6092 C   0  0  0  0  0  0
  -27.6468  -13.1991   19.8382 C   0  0  2  0  0  0
  -28.6961  -13.0430   20.9641 C   0  0  0  0  0  0
  -25.2524  -13.8127   20.5697 C   0  0  0  0  0  0
  -24.1783  -13.0413   20.9195 C   0  0  0  0  0  0
  -24.6325  -11.6830   20.8695 C   0  0  0  0  0  0
  -23.9019  -10.4302   21.0387 C   0  0  0  0  0  0
  -24.3588   -9.4203   21.9161 C   0  0  0  0  0  0
  -23.6276   -8.2217   22.0736 C   0  0  0  0  0  0
  -22.4236   -8.0257   21.3534 C   0  0  0  0  0  0
  -21.9881   -9.0225   20.4613 C   0  0  0  0  0  0
  -22.7196  -10.2106   20.3024 C   0  0  0  0  0  0
  -21.6862   -6.0695   22.5274 C   0  0  0  0  0  0
  -21.4010   -6.5611   23.8200 C   0  0  0  0  0  0
  -21.3654   -5.6777   24.9180 C   0  0  0  0  0  0
  -21.6045   -4.3038   24.7241 C   0  0  0  0  0  0
  -21.8808   -3.8115   23.4375 C   0  0  0  0  0  0
  -21.9169   -4.6917   22.3412 C   0  0  0  0  0  0
  -22.7799  -13.5176   21.1906 C   0  0  0  0  0  0
  -22.1636   -4.2102   21.1000 F   0  0  0  0  0  0
  -21.5626   -3.4523   25.7772 F   0  0  0  0  0  0
  -30.0054  -13.3996   20.4005 N   0  0  0  0  0  0
  -26.2965  -12.9270   20.3217 N   0  0  0  0  0  0
  -25.9242  -11.6435   20.5706 N   0  0  0  0  0  0
  -22.0462  -12.8154   22.0431 N   0  0  0  0  0  0
  -25.4273  -15.1889   20.4233 N   0  0  0  0  0  0
  -31.7321  -14.8672   20.1495 O   0  0  0  0  0  0
  -21.6575   -6.8821   21.4232 O   0  0  0  0  0  0
  -22.3442  -14.5482   20.6767 O   0  0  0  0  0  0
  -24.6284  -31.8581   23.2029 C   0  0  0  0  0  0
  -25.9139  -32.4811   23.8379 C   0  0  1  0  0  0
  -27.1774  -27.3139   20.1430 C   0  0  0  0  0  0
  -25.5925  -33.8588   24.2342 N   0  0  0  0  0  0
  -23.4055  -30.4799   21.5579 C   0  0  2  0  0  0
  -24.8497  -28.9636   20.0921 C   0  0  0  0  0  0
  -22.7516  -29.4438   22.5022 C   0  0  0  0  0  0
  -18.0170  -28.1440   22.8754 C   0  0  0  0  0  0
  -24.1485  -36.7335   23.2642 C   0  0  0  0  0  0
  -25.9418  -30.7982   21.3608 C   0  0  0  0  0  0
  -26.0132  -29.4184   20.7218 C   0  0  0  0  0  0
  -27.1861  -28.6049   20.7470 C   0  0  0  0  0  0
  -26.0022  -26.9287   19.4486 C   0  0  0  0  0  0
  -24.8514  -27.7318   19.4405 C   0  0  0  0  0  0
  -23.6135  -29.8423   20.1559 C   0  0  0  0  0  0
  -25.4123  -36.3098   24.0322 C   0  0  1  0  0  0
  -20.5765  -28.3539   23.1415 C   0  0  2  0  0  0
  -20.6402  -26.9252   22.5497 C   0  0  0  0  0  0
  -19.5350  -26.6122   21.5393 C   0  0  0  0  0  0
  -18.1555  -26.8037   22.1835 C   0  0  0  0  0  0
  -19.1529  -28.8867   23.2986 C   0  0  0  0  0  0
  -18.9641  -30.1649   23.8850 C   0  0  0  0  0  0
  -17.6674  -30.6805   24.0510 C   0  0  0  0  0  0
  -25.9006  -34.9457   23.5112 C   0  0  0  0  0  0
  -16.5482  -29.9326   23.6582 C   0  0  0  0  0  0
  -16.7194  -28.6645   23.0725 C   0  0  0  0  0  0
  -26.4479  -31.6545   25.0737 C   0  0  0  0  0  0
  -25.3736  -31.3577   26.1517 C   0  0  0  0  0  0
  -27.0263  -30.2987   24.6041 C   0  0  0  0  0  0
  -27.6050  -32.4280   25.7533 C   0  0  0  0  0  0
  -27.5573  -37.1823   24.8480 C   0  0  0  0  0  0
  -21.4224  -29.2935   22.3972 N   0  0  0  0  0  0
  -26.4309  -37.3773   23.9362 N   0  0  0  0  0  0
  -24.6739  -31.0654   22.0997 N   0  0  0  0  0  0
  -23.4355  -28.7957   23.3041 O   0  0  0  0  0  0
  -28.2583  -26.4434   20.2597 O   0  0  0  0  0  0
  -26.5627  -34.8921   22.4681 O   0  0  0  0  0  0
  -23.5454  -32.1357   23.7361 O   0  0  0  0  0  0
  -29.6884  -19.0014   22.1648 C   0  0  0  0  0  0
  -29.9582  -17.6426   21.8375 C   0  0  0  0  0  0
  -28.8846  -19.3734   19.9441 C   0  0  0  0  0  0
  -29.0962  -19.9183   21.2452 C   0  0  0  0  0  0
  -29.0908  -18.0037   19.6070 C   0  0  0  0  0  0
  -29.6354  -17.1004   20.5760 C   0  0  0  0  0  0
  -28.1402  -23.9953   21.2046 C   0  0  0  0  0  0
  -28.6998  -18.6082   17.0842 C   0  0  0  0  0  0
  -27.3822  -22.1705   19.5658 C   0  0  0  0  0  0
  -26.4066  -22.2499   21.7892 C   0  0  0  0  0  0
  -28.8242  -21.4173   21.6929 C   0  0  0  0  0  0
  -28.6755  -17.5253   18.2037 C   0  0  0  0  0  0
  -28.0834  -24.9972   19.9771 C   0  0  0  0  0  0
  -27.7509  -22.4525   21.0449 C   0  0  0  0  0  0
  -29.6029  -15.6536   20.4215 N   0  0  0  0  0  0
  -28.4580  -24.4318   22.3140 O   0  0  0  0  0  0
  -31.4970  -12.5309   19.1453 H   0  0  0  0  0  0
  -30.3849  -11.3742   19.8769 H   0  0  0  0  0  0
  -29.7763  -11.7160   17.4646 H   0  0  0  0  0  0
  -29.6806  -13.4389   17.7264 H   0  0  0  0  0  0
  -27.8581  -11.2856   18.8469 H   0  0  0  0  0  0
  -27.3843  -12.5572   17.7562 H   0  0  0  0  0  0
  -27.6468  -14.2250   19.4721 H   0  0  0  0  0  0
  -28.7070  -12.0195   21.3340 H   0  0  0  0  0  0
  -28.4689  -13.6726   21.8229 H   0  0  0  0  0  0
  -25.2727   -9.5612   22.4729 H   0  0  0  0  0  0
  -23.9935   -7.4588   22.7465 H   0  0  0  0  0  0
  -21.0793   -8.8693   19.8980 H   0  0  0  0  0  0
  -22.3631  -10.9588   19.6107 H   0  0  0  0  0  0
  -21.2021   -7.6122   23.9706 H   0  0  0  0  0  0
  -21.1499   -6.0516   25.9086 H   0  0  0  0  0  0
  -22.0606   -2.7576   23.2898 H   0  0  0  0  0  0
  -22.4129  -11.9790   22.4764 H   0  0  0  0  0  0
  -21.1146  -13.1179   22.2770 H   0  0  0  0  0  0
  -24.6680  -15.8500   20.5500 H   0  0  0  0  0  0
  -26.2885  -15.6406   20.1426 H   0  0  0  0  0  0
  -26.7271  -32.5506   23.1189 H   0  0  0  0  0  0
  -25.0034  -33.9706   25.0493 H   0  0  0  0  0  0
  -22.6787  -31.2935   21.4452 H   0  0  0  0  0  0
  -23.3714  -35.9677   23.3310 H   0  0  0  0  0  0
  -24.3576  -36.8950   22.2037 H   0  0  0  0  0  0
  -23.7274  -37.6545   23.6689 H   0  0  0  0  0  0
  -26.0428  -31.5413   20.5682 H   0  0  0  0  0  0
  -26.8381  -30.8636   21.9584 H   0  0  0  0  0  0
  -28.0671  -28.9628   21.2656 H   0  0  0  0  0  0
  -25.8879  -26.0120   18.8984 H   0  0  0  0  0  0
  -23.9847  -27.3656   18.9059 H   0  0  0  0  0  0
  -23.7407  -30.6375   19.4179 H   0  0  0  0  0  0
  -22.7208  -29.2874   19.8439 H   0  0  0  0  0  0
  -25.1288  -36.1895   25.0804 H   0  0  0  0  0  0
  -20.9790  -28.2996   24.1602 H   0  0  0  0  0  0
  -20.5038  -26.2310   23.3723 H   0  0  0  0  0  0
  -21.6362  -26.6830   22.1611 H   0  0  0  0  0  0
  -19.6162  -25.5922   21.1438 H   0  0  0  0  0  0
  -19.6051  -27.2837   20.6886 H   0  0  0  0  0  0
  -17.3630  -26.6875   21.4475 H   0  0  0  0  0  0
  -17.9792  -26.0070   22.9119 H   0  0  0  0  0  0
  -19.8122  -30.7505   24.2249 H   0  0  0  0  0  0
  -17.5343  -31.6471   24.5055 H   0  0  0  0  0  0
  -15.5584  -30.3309   23.8250 H   0  0  0  0  0  0
  -15.8477  -28.1109   22.7643 H   0  0  0  0  0  0
  -24.5987  -30.6862   25.7845 H   0  0  0  0  0  0
  -24.8906  -32.2674   26.5045 H   0  0  0  0  0  0
  -25.8168  -30.8718   27.0213 H   0  0  0  0  0  0
  -26.2716  -29.6870   24.1134 H   0  0  0  0  0  0
  -27.4061  -29.7140   25.4400 H   0  0  0  0  0  0
  -27.8573  -30.4382   23.9173 H   0  0  0  0  0  0
  -27.2685  -33.3609   26.2079 H   0  0  0  0  0  0
  -28.3899  -32.6761   25.0386 H   0  0  0  0  0  0
  -28.0689  -31.8416   26.5457 H   0  0  0  0  0  0
  -28.2637  -38.0071   24.7457 H   0  0  0  0  0  0
  -28.1020  -36.2593   24.6395 H   0  0  0  0  0  0
  -27.2319  -37.1621   25.8901 H   0  0  0  0  0  0
  -20.9318  -29.9336   21.7875 H   0  0  0  0  0  0
  -26.0186  -38.2845   24.1262 H   0  0  0  0  0  0
  -29.9100  -19.3014   23.1772 H   0  0  0  0  0  0
  -30.3414  -16.9478   22.5772 H   0  0  0  0  0  0
  -28.5249  -19.9968   19.1455 H   0  0  0  0  0  0
  -28.2912  -18.2103   16.1523 H   0  0  0  0  0  0
  -29.7075  -18.9850   16.8927 H   0  0  0  0  0  0
  -28.0533  -19.4632   17.2861 H   0  0  0  0  0  0
  -26.5493  -22.7995   19.2424 H   0  0  0  0  0  0
  -26.9529  -21.1819   19.4610 H   0  0  0  0  0  0
  -28.2190  -22.3172   18.8784 H   0  0  0  0  0  0
  -25.6990  -23.0301   21.5261 H   0  0  0  0  0  0
  -26.5257  -22.2356   22.8697 H   0  0  0  0  0  0
  -25.9590  -21.2926   21.5063 H   0  0  0  0  0  0
  -29.8066  -21.8815   21.6639 H   0  0  0  0  0  0
  -28.6129  -21.3516   22.7736 H   0  0  0  0  0  0
  -27.6533  -17.1269   18.2329 H   0  0  0  0  0  0
  -29.3272  -16.7103   17.8919 H   0  0  0  0  0  0
  -28.9150  -24.7133   19.3405 H   0  0  0  0  0  0
  -27.2077  -24.7596   19.3889 H   0  0  0  0  0  0
  -28.6604  -15.3099   20.3742 H   0  0  0  0  0  0
  1 25  1  0  0  0
  1 30  2  0  0  0
  1 85  1  0  0  0
  2  3  1  0  0  0
  2 25  1  0  0  0
  2 87  1  0  0  0
  2 88  1  0  0  0
  3  4  1  0  0  0
  3 89  1  0  0  0
  3 90  1  0  0  0
  4  5  1  0  0  0
  4 91  1  0  0  0
  4 92  1  0  0  0
  5  6  1  0  0  0
  5 26  1  0  0  0
  5 93  1  0  0  0
  6 25  1  0  0  0
  6 94  1  0  0  0
  6 95  1  0  0  0
  7  8  2  0  0  0
  7 26  1  0  0  0
  7 29  1  0  0  0
  8  9  1  0  0  0
  8 22  1  0  0  0
  9 10  1  0  0  0
  9 27  2  0  0  0
 10 11  2  0  0  0
 10 15  1  0  0  0
 11 12  1  0  0  0
 11 96  1  0  0  0
 12 13  2  0  0  0
 12 97  1  0  0  0
 13 14  1  0  0  0
 13 31  1  0  0  0
 14 15  2  0  0  0
 14 98  1  0  0  0
 15 99  1  0  0  0
 16 17  2  0  0  0
 16 21  1  0  0  0
 16 31  1  0  0  0
 17 18  1  0  0  0
 17100  1  0  0  0
 18 19  2  0  0  0
 18101  1  0  0  0
 19 20  1  0  0  0
 19 24  1  0  0  0
 20 21  2  0  0  0
 20102  1  0  0  0
 21 23  1  0  0  0
 22 28  1  0  0  0
 22 32  2  0  0  0
 26 27  1  0  0  0
 28103  1  0  0  0
 28104  1  0  0  0
 29105  1  0  0  0
 29106  1  0  0  0
 33 34  1  0  0  0
 33 66  1  0  0  0
 33 70  2  0  0  0
 34 36  1  0  0  0
 34 59  1  0  0  0
 34107  1  0  0  0
 35 44  2  0  0  0
 35 45  1  0  0  0
 35 68  1  0  0  0
 36 56  1  0  0  0
 36108  1  0  0  0
 37 39  1  0  0  0
 37 47  1  0  0  0
 37 66  1  0  0  0
 37109  1  0  0  0
 38 43  2  0  0  0
 38 46  1  0  0  0
 38 47  1  0  0  0
 39 64  1  0  0  0
 39 67  2  0  0  0
 40 52  1  0  0  0
 40 53  2  0  0  0
 40 58  1  0  0  0
 41110  1  0  0  0
 41111  1  0  0  0
 41112  1  0  0  0
 41 48  1  0  0  0
 42 43  1  0  0  0
 42 66  1  0  0  0
 42113  1  0  0  0
 42114  1  0  0  0
 43 44  1  0  0  0
 44115  1  0  0  0
 45 46  2  0  0  0
 45116  1  0  0  0
 46117  1  0  0  0
 47118  1  0  0  0
 47119  1  0  0  0
 48 56  1  0  0  0
 48 65  1  0  0  0
 48120  1  0  0  0
 49 50  1  0  0  0
 49 53  1  0  0  0
 49 64  1  0  0  0
 49121  1  0  0  0
 50 51  1  0  0  0
 50122  1  0  0  0
 50123  1  0  0  0
 51 52  1  0  0  0
 51124  1  0  0  0
 51125  1  0  0  0
 52126  1  0  0  0
 52127  1  0  0  0
 53 54  1  0  0  0
 54 55  2  0  0  0
 54128  1  0  0  0
 55 57  1  0  0  0
 55129  1  0  0  0
 56 69  2  0  0  0
 57 58  2  0  0  0
 57130  1  0  0  0
 58131  1  0  0  0
 59 60  1  0  0  0
 59 61  1  0  0  0
 59 62  1  0  0  0
 60132  1  0  0  0
 60133  1  0  0  0
 60134  1  0  0  0
 61135  1  0  0  0
 61136  1  0  0  0
 61137  1  0  0  0
 62138  1  0  0  0
 62139  1  0  0  0
 62140  1  0  0  0
 63 65  1  0  0  0
 63141  1  0  0  0
 63142  1  0  0  0
 63143  1  0  0  0
 64144  1  0  0  0
 65145  1  0  0  0
 68 83  1  0  0  0
 71 72  2  0  0  0
 71 74  1  0  0  0
 71146  1  0  0  0
 72 76  1  0  0  0
 72147  1  0  0  0
 73 74  2  0  0  0
 73 75  1  0  0  0
 73148  1  0  0  0
 74 81  1  0  0  0
 75 76  2  0  0  0
 75 82  1  0  0  0
 76 85  1  0  0  0
 77 83  1  0  0  0
 77 84  1  0  0  0
 77 86  2  0  0  0
 78 82  1  0  0  0
 78149  1  0  0  0
 78150  1  0  0  0
 78151  1  0  0  0
 79152  1  0  0  0
 79153  1  0  0  0
 79154  1  0  0  0
 79 84  1  0  0  0
 80 84  1  0  0  0
 80155  1  0  0  0
 80156  1  0  0  0
 80157  1  0  0  0
 81 84  1  0  0  0
 81158  1  0  0  0
 81159  1  0  0  0
 82160  1  0  0  0
 82161  1  0  0  0
 83162  1  0  0  0
 83163  1  0  0  0
 85164  1  0  0  0
M  ISO  4   1 100  68 101  83 101  85 100
M  END
> <chiral flag>
0

> <version>
0

> <s_m_source_file>
/data/baiqing/PycharmProjects/Reinvent-master-3.2/result/LINK_invent/BTK/process_docking_weight1_custom_product_contain_oxygen_bond_distance_aromatic_linkinvent_7_9_3/rearranged_h_0136.sdf

> <i_m_source_file_index>
47

> <r_mmod_Potential_Energy-OPLS-2005>
231.673599243164

> <r_mmod_Stretch_Energy-OPLS-2005>
95.0387496948242

> <r_mmod_Bend_Energy-OPLS-2005>
184.62760925293

> <r_mmod_Torsional_Energy-OPLS-2005>
265.280395507812

> <r_mmod_Improper_Torsional_Energy-OPLS-2005>
10.9714679718018

> <r_mmod_Van_der_Waal_Energy-OPLS-2005>
163.192657470703

> <r_mmod_Electrostatic_Energy-OPLS-2005>
-333.212493896484

> <r_mmod_Solvation_Energy-OPLS-2005>
-222.142379760742

> <b_mmod_Minimization_Converged-OPLS-2005>
0

> <r_mmod_RMS_Derivative-OPLS-2005>
19.6850528717041

$$$$
47
                    3D
 Structure written by MMmdl.
157165  0  0  1  0            999 V2000
  -30.6027  -14.7357   20.4627 C   0  0  0  0  0  0
  -30.4410  -12.4496   19.4541 C   0  0  0  0  0  0
  -29.5083  -12.5004   18.2247 C   0  0  0  0  0  0
  -28.0344  -12.3236   18.6448 C   0  0  0  0  0  0
  -27.6429  -13.2234   19.8472 C   0  0  2  0  0  0
  -28.6939  -13.1446   20.9758 C   0  0  0  0  0  0
  -25.2525  -13.8177   20.5677 C   0  0  0  0  0  0
  -24.1815  -13.0434   20.9199 C   0  0  0  0  0  0
  -24.6394  -11.6905   20.8755 C   0  0  0  0  0  0
  -23.9075  -10.4288   21.0415 C   0  0  0  0  0  0
  -24.3618   -9.4193   21.9185 C   0  0  0  0  0  0
  -23.6288   -8.2235   22.0753 C   0  0  0  0  0  0
  -22.4270   -8.0274   21.3541 C   0  0  0  0  0  0
  -21.9911   -9.0253   20.4644 C   0  0  0  0  0  0
  -22.7252  -10.2129   20.3060 C   0  0  0  0  0  0
  -21.6843   -6.0729   22.5275 C   0  0  0  0  0  0
  -21.4016   -6.5638   23.8204 C   0  0  0  0  0  0
  -21.3661   -5.6787   24.9169 C   0  0  0  0  0  0
  -21.6046   -4.3050   24.7222 C   0  0  0  0  0  0
  -21.8823   -3.8143   23.4347 C   0  0  0  0  0  0
  -21.9192   -4.6958   22.3401 C   0  0  0  0  0  0
  -22.7838  -13.5218   21.1877 C   0  0  0  0  0  0
  -22.1658   -4.2145   21.0974 F   0  0  0  0  0  0
  -21.5631   -3.4534   25.7737 F   0  0  0  0  0  0
  -29.9899  -13.5060   20.3849 N   0  0  0  0  0  0
  -26.2949  -12.9370   20.3268 N   0  0  0  0  0  0
  -25.9317  -11.6515   20.5755 N   0  0  0  0  0  0
  -22.0478  -12.8200   22.0420 N   0  0  0  0  0  0
  -25.4205  -15.1907   20.4067 N   0  0  0  0  0  0
  -31.8023  -14.8493   20.2004 O   0  0  0  0  0  0
  -21.6637   -6.8870   21.4238 O   0  0  0  0  0  0
  -22.3511  -14.5519   20.6715 O   0  0  0  0  0  0
  -24.6314  -31.8577   23.1979 C   0  0  0  0  0  0
  -25.9127  -32.4775   23.8342 C   0  0  1  0  0  0
  -27.2179  -27.2544   20.1249 C   0  0  0  0  0  0
  -25.5910  -33.8579   24.2261 N   0  0  0  0  0  0
  -23.4291  -30.4790   21.5421 C   0  0  2  0  0  0
  -24.8759  -28.9290   20.1136 C   0  0  0  0  0  0
  -22.7516  -29.4605   22.4903 C   0  0  0  0  0  0
  -18.0294  -28.1394   22.8476 C   0  0  0  0  0  0
  -24.1486  -36.7274   23.2643 C   0  0  0  0  0  0
  -25.9747  -30.7698   21.3763 C   0  0  0  0  0  0
  -26.0514  -29.3908   20.7193 C   0  0  0  0  0  0
  -27.2267  -28.5679   20.7122 C   0  0  0  0  0  0
  -26.0128  -26.8672   19.4928 C   0  0  0  0  0  0
  -24.8627  -27.6756   19.4889 C   0  0  0  0  0  0
  -23.6501  -29.8175   20.1580 C   0  0  0  0  0  0
  -25.4115  -36.3076   24.0328 C   0  0  1  0  0  0
  -20.5900  -28.3710   23.1255 C   0  0  2  0  0  0
  -20.6773  -26.9417   22.5400 C   0  0  0  0  0  0
  -19.5749  -26.6380   21.5204 C   0  0  0  0  0  0
  -18.1935  -26.7933   22.1617 C   0  0  0  0  0  0
  -19.1544  -28.8866   23.2868 C   0  0  0  0  0  0
  -18.9472  -30.1457   23.8893 C   0  0  0  0  0  0
  -17.6483  -30.6595   24.0561 C   0  0  0  0  0  0
  -25.9054  -34.9454   23.5112 C   0  0  0  0  0  0
  -16.5372  -29.9104   23.6328 C   0  0  0  0  0  0
  -16.7283  -28.6519   23.0348 C   0  0  0  0  0  0
  -26.4500  -31.6600   25.0724 C   0  0  0  0  0  0
  -25.3708  -31.3728   26.1431 C   0  0  0  0  0  0
  -27.0335  -30.3029   24.6153 C   0  0  0  0  0  0
  -27.6083  -32.4329   25.7478 C   0  0  0  0  0  0
  -27.5575  -37.1792   24.8473 C   0  0  0  0  0  0
  -21.4222  -29.3054   22.3652 N   0  0  0  0  0  0
  -26.4285  -37.3777   23.9426 N   0  0  0  0  0  0
  -24.6983  -31.0529   22.0966 N   0  0  0  0  0  0
  -23.4212  -28.8125   23.2996 O   0  0  0  0  0  0
  -28.3074  -26.3451   20.1730 O   0  0  0  0  0  0
  -26.5627  -34.8933   22.4683 O   0  0  0  0  0  0
  -23.5460  -32.1406   23.7255 O   0  0  0  0  0  0
  -30.6287  -18.8628   22.7213 C   0  0  0  0  0  0
  -30.1750  -19.9675   21.9712 C   0  0  0  0  0  0
  -29.5544  -18.4239   20.2017 C   0  0  0  0  0  0
  -30.5414  -17.5336   22.2437 C   0  0  0  0  0  0
  -30.0041  -17.2593   20.9577 C   0  0  0  0  0  0
  -29.6272  -19.7984   20.6860 C   0  0  0  0  0  0
  -30.9941  -16.4163   23.1720 C   0  0  0  0  0  0
  -30.0737  -24.0246   21.4609 C   0  0  0  0  0  0
  -28.0116  -24.8619   20.1542 C   0  0  0  0  0  0
  -28.5849  -22.1524   20.4882 C   0  0  0  0  0  0
  -29.1199  -23.6829   20.3057 C   0  0  2  0  0  0
  -29.7749  -15.8482   20.5499 N   0  0  0  0  0  0
  -29.2738  -20.9494   19.9225 O   0  0  0  0  0  0
  -31.4778  -12.5880   19.1450 H   0  0  0  0  0  0
  -30.3977  -11.4696   19.9328 H   0  0  0  0  0  0
  -29.7849  -11.7285   17.5061 H   0  0  0  0  0  0
  -29.6321  -13.4543   17.7094 H   0  0  0  0  0  0
  -27.8929  -11.2753   18.9080 H   0  0  0  0  0  0
  -27.3735  -12.5138   17.7983 H   0  0  0  0  0  0
  -27.6376  -14.2460   19.4675 H   0  0  0  0  0  0
  -28.7312  -12.1400   21.4012 H   0  0  0  0  0  0
  -28.4355  -13.8147   21.7972 H   0  0  0  0  0  0
  -25.2763   -9.5662   22.4756 H   0  0  0  0  0  0
  -23.9992   -7.4626   22.7473 H   0  0  0  0  0  0
  -21.0838   -8.8773   19.8950 H   0  0  0  0  0  0
  -22.3708  -10.9662   19.6164 H   0  0  0  0  0  0
  -21.2009   -7.6144   23.9708 H   0  0  0  0  0  0
  -21.1478   -6.0519   25.9071 H   0  0  0  0  0  0
  -22.0603   -2.7608   23.2845 H   0  0  0  0  0  0
  -22.4097  -11.9851   22.4794 H   0  0  0  0  0  0
  -21.1099  -13.1218   22.2651 H   0  0  0  0  0  0
  -24.6499  -15.8401   20.5192 H   0  0  0  0  0  0
  -26.2563  -15.6309   20.0475 H   0  0  0  0  0  0
  -26.7185  -32.5453   23.1087 H   0  0  0  0  0  0
  -25.0051  -33.9732   25.0399 H   0  0  0  0  0  0
  -22.7227  -31.2997   21.3950 H   0  0  0  0  0  0
  -23.3753  -35.9596   23.3312 H   0  0  0  0  0  0
  -24.3559  -36.8895   22.2052 H   0  0  0  0  0  0
  -23.7232  -37.6473   23.6671 H   0  0  0  0  0  0
  -26.1009  -31.5251   20.6015 H   0  0  0  0  0  0
  -26.8582  -30.8335   21.9997 H   0  0  0  0  0  0
  -28.1267  -28.9167   21.1997 H   0  0  0  0  0  0
  -25.9142  -25.9129   19.0005 H   0  0  0  0  0  0
  -23.9616  -27.3155   19.0104 H   0  0  0  0  0  0
  -23.7804  -30.5962   19.4068 H   0  0  0  0  0  0
  -22.7660  -29.2582   19.8471 H   0  0  0  0  0  0
  -25.1292  -36.1931   25.0814 H   0  0  0  0  0  0
  -20.9994  -28.3286   24.1376 H   0  0  0  0  0  0
  -20.5655  -26.2322   23.3613 H   0  0  0  0  0  0
  -21.6651  -26.7427   22.1205 H   0  0  0  0  0  0
  -19.6909  -25.6283   21.1246 H   0  0  0  0  0  0
  -19.6693  -27.3174   20.6716 H   0  0  0  0  0  0
  -17.4202  -26.6665   21.4023 H   0  0  0  0  0  0
  -18.0344  -26.0085   22.9019 H   0  0  0  0  0  0
  -19.7957  -30.7253   24.2276 H   0  0  0  0  0  0
  -17.5052  -31.6276   24.5154 H   0  0  0  0  0  0
  -15.5377  -30.3014   23.7649 H   0  0  0  0  0  0
  -15.8678  -28.0842   22.7067 H   0  0  0  0  0  0
  -24.5930  -30.7020   25.7760 H   0  0  0  0  0  0
  -24.8819  -32.2871   26.4799 H   0  0  0  0  0  0
  -25.8017  -30.8962   27.0245 H   0  0  0  0  0  0
  -26.2884  -29.6775   24.1211 H   0  0  0  0  0  0
  -27.4091  -29.7290   25.4634 H   0  0  0  0  0  0
  -27.8742  -30.4335   23.9339 H   0  0  0  0  0  0
  -27.2746  -33.3684   26.1979 H   0  0  0  0  0  0
  -28.3922  -32.6787   25.0306 H   0  0  0  0  0  0
  -28.0707  -31.8480   26.5437 H   0  0  0  0  0  0
  -28.2600  -38.0087   24.7519 H   0  0  0  0  0  0
  -28.1064  -36.2607   24.6304 H   0  0  0  0  0  0
  -27.2284  -37.1458   25.8879 H   0  0  0  0  0  0
  -20.9403  -29.8835   21.6911 H   0  0  0  0  0  0
  -26.0153  -38.2845   24.1455 H   0  0  0  0  0  0
  -31.0426  -19.0503   23.7025 H   0  0  0  0  0  0
  -30.2828  -20.9601   22.3854 H   0  0  0  0  0  0
  -29.1316  -18.2598   19.2210 H   0  0  0  0  0  0
  -31.1363  -16.7752   24.1915 H   0  0  0  0  0  0
  -31.9383  -15.9940   22.8278 H   0  0  0  0  0  0
  -30.2529  -15.6185   23.2153 H   0  0  0  0  0  0
  -30.5117  -25.0145   21.3310 H   0  0  0  0  0  0
  -30.8919  -23.3078   21.5246 H   0  0  0  0  0  0
  -29.5527  -24.0216   22.4188 H   0  0  0  0  0  0
  -27.5347  -24.6410   19.2005 H   0  0  0  0  0  0
  -27.2551  -24.6879   20.9199 H   0  0  0  0  0  0
  -27.6092  -22.1262   20.0013 H   0  0  0  0  0  0
  -28.3489  -21.9773   21.5380 H   0  0  0  0  0  0
  -29.7045  -23.7045   19.3850 H   0  0  0  0  0  0
  -28.8012  -15.6043   20.4558 H   0  0  0  0  0  0
  1 25  1  0  0  0
  1 30  2  0  0  0
  1 82  1  0  0  0
  2  3  1  0  0  0
  2 25  1  0  0  0
  2 84  1  0  0  0
  2 85  1  0  0  0
  3  4  1  0  0  0
  3 86  1  0  0  0
  3 87  1  0  0  0
  4  5  1  0  0  0
  4 88  1  0  0  0
  4 89  1  0  0  0
  5  6  1  0  0  0
  5 26  1  0  0  0
  5 90  1  0  0  0
  6 25  1  0  0  0
  6 91  1  0  0  0
  6 92  1  0  0  0
  7  8  2  0  0  0
  7 26  1  0  0  0
  7 29  1  0  0  0
  8  9  1  0  0  0
  8 22  1  0  0  0
  9 10  1  0  0  0
  9 27  2  0  0  0
 10 11  2  0  0  0
 10 15  1  0  0  0
 11 12  1  0  0  0
 11 93  1  0  0  0
 12 13  2  0  0  0
 12 94  1  0  0  0
 13 14  1  0  0  0
 13 31  1  0  0  0
 14 15  2  0  0  0
 14 95  1  0  0  0
 15 96  1  0  0  0
 16 17  2  0  0  0
 16 21  1  0  0  0
 16 31  1  0  0  0
 17 18  1  0  0  0
 17 97  1  0  0  0
 18 19  2  0  0  0
 18 98  1  0  0  0
 19 20  1  0  0  0
 19 24  1  0  0  0
 20 21  2  0  0  0
 20 99  1  0  0  0
 21 23  1  0  0  0
 22 28  1  0  0  0
 22 32  2  0  0  0
 26 27  1  0  0  0
 28100  1  0  0  0
 28101  1  0  0  0
 29102  1  0  0  0
 29103  1  0  0  0
 33 34  1  0  0  0
 33 66  1  0  0  0
 33 70  2  0  0  0
 34 36  1  0  0  0
 34 59  1  0  0  0
 34104  1  0  0  0
 35 44  2  0  0  0
 35 45  1  0  0  0
 35 68  1  0  0  0
 36 56  1  0  0  0
 36105  1  0  0  0
 37 39  1  0  0  0
 37 47  1  0  0  0
 37 66  1  0  0  0
 37106  1  0  0  0
 38 43  2  0  0  0
 38 46  1  0  0  0
 38 47  1  0  0  0
 39 64  1  0  0  0
 39 67  2  0  0  0
 40 52  1  0  0  0
 40 53  2  0  0  0
 40 58  1  0  0  0
 41107  1  0  0  0
 41108  1  0  0  0
 41109  1  0  0  0
 41 48  1  0  0  0
 42 43  1  0  0  0
 42 66  1  0  0  0
 42110  1  0  0  0
 42111  1  0  0  0
 43 44  1  0  0  0
 44112  1  0  0  0
 45 46  2  0  0  0
 45113  1  0  0  0
 46114  1  0  0  0
 47115  1  0  0  0
 47116  1  0  0  0
 48 56  1  0  0  0
 48 65  1  0  0  0
 48117  1  0  0  0
 49 50  1  0  0  0
 49 53  1  0  0  0
 49 64  1  0  0  0
 49118  1  0  0  0
 50 51  1  0  0  0
 50119  1  0  0  0
 50120  1  0  0  0
 51 52  1  0  0  0
 51121  1  0  0  0
 51122  1  0  0  0
 52123  1  0  0  0
 52124  1  0  0  0
 53 54  1  0  0  0
 54 55  2  0  0  0
 54125  1  0  0  0
 55 57  1  0  0  0
 55126  1  0  0  0
 56 69  2  0  0  0
 57 58  2  0  0  0
 57127  1  0  0  0
 58128  1  0  0  0
 59 60  1  0  0  0
 59 61  1  0  0  0
 59 62  1  0  0  0
 60129  1  0  0  0
 60130  1  0  0  0
 60131  1  0  0  0
 61132  1  0  0  0
 61133  1  0  0  0
 61134  1  0  0  0
 62135  1  0  0  0
 62136  1  0  0  0
 62137  1  0  0  0
 63 65  1  0  0  0
 63138  1  0  0  0
 63139  1  0  0  0
 63140  1  0  0  0
 64141  1  0  0  0
 65142  1  0  0  0
 68 79  1  0  0  0
 71 72  2  0  0  0
 71 74  1  0  0  0
 71143  1  0  0  0
 72 76  1  0  0  0
 72144  1  0  0  0
 73 75  1  0  0  0
 73 76  2  0  0  0
 73145  1  0  0  0
 74 75  2  0  0  0
 74 77  1  0  0  0
 75 82  1  0  0  0
 76 83  1  0  0  0
 77146  1  0  0  0
 77147  1  0  0  0
 77148  1  0  0  0
 78149  1  0  0  0
 78150  1  0  0  0
 78151  1  0  0  0
 78 81  1  0  0  0
 79 81  1  0  0  0
 79152  1  0  0  0
 79153  1  0  0  0
 80 81  1  0  0  0
 80 83  1  0  0  0
 80154  1  0  0  0
 80155  1  0  0  0
 81156  1  0  0  0
 82157  1  0  0  0
M  ISO  4   1 100  68 101  79 101  82 100
M  END
> <chiral flag>
0

> <version>
0

> <s_m_source_file>
/data/baiqing/PycharmProjects/Reinvent-master-3.2/result/LINK_invent/BTK/process_docking_weight1_custom_product_contain_oxygen_bond_distance_aromatic_linkinvent_7_9_3/rearranged_h_0136.sdf

> <i_m_source_file_index>
48

> <r_mmod_Potential_Energy-OPLS-2005>
222.008712768555

> <r_mmod_Stretch_Energy-OPLS-2005>
129.545913696289

> <r_mmod_Bend_Energy-OPLS-2005>
177.144073486328

> <r_mmod_Torsional_Energy-OPLS-2005>
263.344268798828

> <r_mmod_Improper_Torsional_Energy-OPLS-2005>
8.17847442626953

> <r_mmod_Van_der_Waal_Energy-OPLS-2005>
139.703109741211

> <r_mmod_Electrostatic_Energy-OPLS-2005>
-373.211761474609

> <r_mmod_Solvation_Energy-OPLS-2005>
-209.464004516602

> <b_mmod_Minimization_Converged-OPLS-2005>
0

> <r_mmod_RMS_Derivative-OPLS-2005>
2.43532633781433

$$$$
48
                    3D
 Structure written by MMmdl.
166174  0  0  1  0            999 V2000
  -30.5680  -14.8233   20.4174 C   0  0  0  0  0  0
  -30.4421  -12.4921   19.4965 C   0  0  0  0  0  0
  -29.5214  -12.4857   18.2537 C   0  0  0  0  0  0
  -28.0461  -12.3178   18.6660 C   0  0  0  0  0  0
  -27.6416  -13.2273   19.8582 C   0  0  2  0  0  0
  -28.6868  -13.1899   20.9934 C   0  0  0  0  0  0
  -25.2504  -13.8171   20.5711 C   0  0  0  0  0  0
  -24.1778  -13.0430   20.9209 C   0  0  0  0  0  0
  -24.6362  -11.6895   20.8748 C   0  0  0  0  0  0
  -23.9039  -10.4272   21.0399 C   0  0  0  0  0  0
  -24.3592   -9.4200   21.9175 C   0  0  0  0  0  0
  -23.6277   -8.2232   22.0743 C   0  0  0  0  0  0
  -22.4265   -8.0267   21.3534 C   0  0  0  0  0  0
  -21.9888   -9.0238   20.4647 C   0  0  0  0  0  0
  -22.7212  -10.2116   20.3047 C   0  0  0  0  0  0
  -21.6856   -6.0721   22.5267 C   0  0  0  0  0  0
  -21.4031   -6.5628   23.8207 C   0  0  0  0  0  0
  -21.3649   -5.6783   24.9163 C   0  0  0  0  0  0
  -21.6031   -4.3043   24.7219 C   0  0  0  0  0  0
  -21.8823   -3.8135   23.4343 C   0  0  0  0  0  0
  -21.9194   -4.6946   22.3396 C   0  0  0  0  0  0
  -22.7808  -13.5226   21.1863 C   0  0  0  0  0  0
  -22.1675   -4.2130   21.0976 F   0  0  0  0  0  0
  -21.5610   -3.4533   25.7734 F   0  0  0  0  0  0
  -29.9811  -13.5689   20.4093 N   0  0  0  0  0  0
  -26.2934  -12.9366   20.3340 N   0  0  0  0  0  0
  -25.9302  -11.6515   20.5780 N   0  0  0  0  0  0
  -22.0446  -12.8223   22.0411 N   0  0  0  0  0  0
  -25.4198  -15.1888   20.4085 N   0  0  0  0  0  0
  -31.7472  -14.9316   20.0667 O   0  0  0  0  0  0
  -21.6637   -6.8864   21.4235 O   0  0  0  0  0  0
  -22.3502  -14.5536   20.6713 O   0  0  0  0  0  0
  -24.6339  -31.8487   23.1927 C   0  0  0  0  0  0
  -25.9150  -32.4723   23.8293 C   0  0  1  0  0  0
  -27.2342  -27.2249   20.1311 C   0  0  0  0  0  0
  -25.5926  -33.8523   24.2218 N   0  0  0  0  0  0
  -23.4352  -30.4662   21.5339 C   0  0  2  0  0  0
  -24.8882  -28.9047   20.0987 C   0  0  0  0  0  0
  -22.7535  -29.4556   22.4881 C   0  0  0  0  0  0
  -18.0299  -28.1390   22.8491 C   0  0  0  0  0  0
  -24.1490  -36.7268   23.2640 C   0  0  0  0  0  0
  -25.9812  -30.7472   21.3806 C   0  0  0  0  0  0
  -26.0533  -29.3658   20.7225 C   0  0  0  0  0  0
  -27.2191  -28.5324   20.7367 C   0  0  0  0  0  0
  -26.0562  -26.8438   19.4584 C   0  0  0  0  0  0
  -24.8969  -27.6539   19.4550 C   0  0  0  0  0  0
  -23.6574  -29.7936   20.1507 C   0  0  0  0  0  0
  -25.4118  -36.3048   24.0326 C   0  0  1  0  0  0
  -20.5909  -28.3696   23.1269 C   0  0  2  0  0  0
  -20.6782  -26.9407   22.5418 C   0  0  0  0  0  0
  -19.5754  -26.6380   21.5223 C   0  0  0  0  0  0
  -18.1933  -26.7933   22.1628 C   0  0  0  0  0  0
  -19.1554  -28.8860   23.2874 C   0  0  0  0  0  0
  -18.9474  -30.1463   23.8891 C   0  0  0  0  0  0
  -17.6468  -30.6591   24.0561 C   0  0  0  0  0  0
  -25.9059  -34.9422   23.5085 C   0  0  0  0  0  0
  -16.5360  -29.9084   23.6333 C   0  0  0  0  0  0
  -16.7287  -28.6502   23.0358 C   0  0  0  0  0  0
  -26.4506  -31.6573   25.0706 C   0  0  0  0  0  0
  -25.3715  -31.3739   26.1422 C   0  0  0  0  0  0
  -27.0369  -30.2985   24.6228 C   0  0  0  0  0  0
  -27.6060  -32.4318   25.7470 C   0  0  0  0  0  0
  -27.5585  -37.1779   24.8463 C   0  0  0  0  0  0
  -21.4232  -29.3024   22.3637 N   0  0  0  0  0  0
  -26.4287  -37.3759   23.9422 N   0  0  0  0  0  0
  -24.7021  -31.0417   22.0914 N   0  0  0  0  0  0
  -23.4214  -28.8112   23.3006 O   0  0  0  0  0  0
  -28.3171  -26.3223   20.3061 O   0  0  0  0  0  0
  -26.5648  -34.8909   22.4660 O   0  0  0  0  0  0
  -23.5483  -32.1328   23.7198 O   0  0  0  0  0  0
  -28.7938  -19.8594   18.9009 C   0  0  0  0  0  0
  -29.6989  -18.5970   20.7646 C   0  0  0  0  0  0
  -28.7497  -18.6617   18.1569 C   0  0  0  0  0  0
  -29.2052  -17.4179   18.6943 C   0  0  0  0  0  0
  -29.6323  -17.3138   20.0553 C   0  0  0  0  0  0
  -29.3192  -19.8974   20.1979 C   0  0  0  0  0  0
  -28.2010  -18.7615   16.7405 C   0  0  0  0  0  0
  -29.2175  -16.1970   17.7811 C   0  0  0  0  0  0
  -26.3764  -23.3253   17.9014 C   0  0  0  0  0  0
  -30.1958  -25.1694   19.4843 C   0  0  0  0  0  0
  -26.7721  -23.2205   19.3850 C   0  0  0  0  0  0
  -28.7582  -22.4382   20.8521 C   0  0  0  0  0  0
  -28.2727  -23.4634   19.6736 C   0  0  2  0  0  0
  -28.6636  -25.0777   19.5180 C   0  0  1  0  0  0
  -29.7789  -15.9491   20.6922 N   0  0  0  0  0  0
  -29.5937  -21.1709   20.7875 O   0  0  0  0  0  0
  -31.4810  -12.6276   19.1932 H   0  0  0  0  0  0
  -30.4069  -11.5276   20.0036 H   0  0  0  0  0  0
  -29.8140  -11.6803   17.5792 H   0  0  0  0  0  0
  -29.6465  -13.4051   17.6843 H   0  0  0  0  0  0
  -27.9061  -11.2717   18.9422 H   0  0  0  0  0  0
  -27.3906  -12.4953   17.8127 H   0  0  0  0  0  0
  -27.6223  -14.2450   19.4783 H   0  0  0  0  0  0
  -28.7398  -12.1957   21.4393 H   0  0  0  0  0  0
  -28.4057  -13.8689   21.7997 H   0  0  0  0  0  0
  -25.2737   -9.5689   22.4748 H   0  0  0  0  0  0
  -23.9986   -7.4627   22.7465 H   0  0  0  0  0  0
  -21.0816   -8.8756   19.8956 H   0  0  0  0  0  0
  -22.3666  -10.9653   19.6155 H   0  0  0  0  0  0
  -21.2050   -7.6143   23.9702 H   0  0  0  0  0  0
  -21.1470   -6.0515   25.9064 H   0  0  0  0  0  0
  -22.0616   -2.7597   23.2842 H   0  0  0  0  0  0
  -22.4094  -11.9916   22.4835 H   0  0  0  0  0  0
  -21.1057  -13.1236   22.2615 H   0  0  0  0  0  0
  -24.6443  -15.8361   20.4995 H   0  0  0  0  0  0
  -26.2588  -15.6273   20.0507 H   0  0  0  0  0  0
  -26.7214  -32.5356   23.1024 H   0  0  0  0  0  0
  -25.0050  -33.9642   25.0352 H   0  0  0  0  0  0
  -22.7330  -31.2883   21.3826 H   0  0  0  0  0  0
  -23.3763  -35.9589   23.3280 H   0  0  0  0  0  0
  -24.3582  -36.8915   22.2059 H   0  0  0  0  0  0
  -23.7231  -37.6455   23.6681 H   0  0  0  0  0  0
  -26.1282  -31.5056   20.6102 H   0  0  0  0  0  0
  -26.8555  -30.7960   22.0187 H   0  0  0  0  0  0
  -28.1013  -28.8696   21.2619 H   0  0  0  0  0  0
  -26.0030  -25.8833   18.9743 H   0  0  0  0  0  0
  -24.0060  -27.2960   18.9581 H   0  0  0  0  0  0
  -23.7828  -30.5671   19.3925 H   0  0  0  0  0  0
  -22.7765  -29.2256   19.8467 H   0  0  0  0  0  0
  -25.1299  -36.1882   25.0818 H   0  0  0  0  0  0
  -21.0005  -28.3280   24.1391 H   0  0  0  0  0  0
  -20.5684  -26.2305   23.3628 H   0  0  0  0  0  0
  -21.6647  -26.7422   22.1210 H   0  0  0  0  0  0
  -19.6906  -25.6289   21.1257 H   0  0  0  0  0  0
  -19.6693  -27.3191   20.6755 H   0  0  0  0  0  0
  -17.4210  -26.6702   21.4024 H   0  0  0  0  0  0
  -18.0311  -26.0078   22.9020 H   0  0  0  0  0  0
  -19.7945  -30.7281   24.2263 H   0  0  0  0  0  0
  -17.5020  -31.6269   24.5156 H   0  0  0  0  0  0
  -15.5361  -30.2976   23.7658 H   0  0  0  0  0  0
  -15.8692  -28.0812   22.7076 H   0  0  0  0  0  0
  -24.5879  -30.7104   25.7746 H   0  0  0  0  0  0
  -24.8918  -32.2915   26.4832 H   0  0  0  0  0  0
  -25.8013  -30.8914   27.0209 H   0  0  0  0  0  0
  -26.2966  -29.6703   24.1255 H   0  0  0  0  0  0
  -27.4050  -29.7275   25.4763 H   0  0  0  0  0  0
  -27.8843  -30.4258   23.9487 H   0  0  0  0  0  0
  -27.2676  -33.3626   26.2027 H   0  0  0  0  0  0
  -28.3868  -32.6859   25.0292 H   0  0  0  0  0  0
  -28.0730  -31.8455   26.5391 H   0  0  0  0  0  0
  -28.2585  -38.0094   24.7537 H   0  0  0  0  0  0
  -28.1096  -36.2627   24.6248 H   0  0  0  0  0  0
  -27.2310  -37.1384   25.8866 H   0  0  0  0  0  0
  -20.9432  -29.8726   21.6816 H   0  0  0  0  0  0
  -26.0160  -38.2828   24.1433 H   0  0  0  0  0  0
  -28.4886  -20.7836   18.4330 H   0  0  0  0  0  0
  -30.0657  -18.5891   21.7808 H   0  0  0  0  0  0
  -27.6991  -19.7155   16.5696 H   0  0  0  0  0  0
  -27.4688  -17.9777   16.5486 H   0  0  0  0  0  0
  -29.0038  -18.6786   16.0075 H   0  0  0  0  0  0
  -29.2513  -16.4551   16.7249 H   0  0  0  0  0  0
  -28.3359  -15.5820   17.9376 H   0  0  0  0  0  0
  -30.1145  -15.6026   17.9332 H   0  0  0  0  0  0
  -25.2968  -23.2284   17.7830 H   0  0  0  0  0  0
  -26.8376  -22.5272   17.3183 H   0  0  0  0  0  0
  -26.6671  -24.2738   17.4525 H   0  0  0  0  0  0
  -30.6297  -24.4317   18.8090 H   0  0  0  0  0  0
  -30.6199  -25.0008   20.4748 H   0  0  0  0  0  0
  -30.5289  -26.1511   19.1450 H   0  0  0  0  0  0
  -26.4908  -22.2156   19.7033 H   0  0  0  0  0  0
  -26.1719  -23.8947   19.9946 H   0  0  0  0  0  0
  -27.8853  -22.1694   21.4479 H   0  0  0  0  0  0
  -29.3274  -23.0657   21.5376 H   0  0  0  0  0  0
  -28.7783  -23.0240   18.8136 H   0  0  0  0  0  0
  -28.3488  -25.3381   18.5070 H   0  0  0  0  0  0
  -28.9460  -15.6757   21.1921 H   0  0  0  0  0  0
  1 25  1  0  0  0
  1 30  2  0  0  0
  1 85  1  0  0  0
  2  3  1  0  0  0
  2 25  1  0  0  0
  2 87  1  0  0  0
  2 88  1  0  0  0
  3  4  1  0  0  0
  3 89  1  0  0  0
  3 90  1  0  0  0
  4  5  1  0  0  0
  4 91  1  0  0  0
  4 92  1  0  0  0
  5  6  1  0  0  0
  5 26  1  0  0  0
  5 93  1  0  0  0
  6 25  1  0  0  0
  6 94  1  0  0  0
  6 95  1  0  0  0
  7  8  2  0  0  0
  7 26  1  0  0  0
  7 29  1  0  0  0
  8  9  1  0  0  0
  8 22  1  0  0  0
  9 10  1  0  0  0
  9 27  2  0  0  0
 10 11  2  0  0  0
 10 15  1  0  0  0
 11 12  1  0  0  0
 11 96  1  0  0  0
 12 13  2  0  0  0
 12 97  1  0  0  0
 13 14  1  0  0  0
 13 31  1  0  0  0
 14 15  2  0  0  0
 14 98  1  0  0  0
 15 99  1  0  0  0
 16 17  2  0  0  0
 16 21  1  0  0  0
 16 31  1  0  0  0
 17 18  1  0  0  0
 17100  1  0  0  0
 18 19  2  0  0  0
 18101  1  0  0  0
 19 20  1  0  0  0
 19 24  1  0  0  0
 20 21  2  0  0  0
 20102  1  0  0  0
 21 23  1  0  0  0
 22 28  1  0  0  0
 22 32  2  0  0  0
 26 27  1  0  0  0
 28103  1  0  0  0
 28104  1  0  0  0
 29105  1  0  0  0
 29106  1  0  0  0
 33 34  1  0  0  0
 33 66  1  0  0  0
 33 70  2  0  0  0
 34 36  1  0  0  0
 34 59  1  0  0  0
 34107  1  0  0  0
 35 44  2  0  0  0
 35 45  1  0  0  0
 35 68  1  0  0  0
 36 56  1  0  0  0
 36108  1  0  0  0
 37 39  1  0  0  0
 37 47  1  0  0  0
 37 66  1  0  0  0
 37109  1  0  0  0
 38 43  2  0  0  0
 38 46  1  0  0  0
 38 47  1  0  0  0
 39 64  1  0  0  0
 39 67  2  0  0  0
 40 52  1  0  0  0
 40 53  2  0  0  0
 40 58  1  0  0  0
 41110  1  0  0  0
 41111  1  0  0  0
 41112  1  0  0  0
 41 48  1  0  0  0
 42 43  1  0  0  0
 42 66  1  0  0  0
 42113  1  0  0  0
 42114  1  0  0  0
 43 44  1  0  0  0
 44115  1  0  0  0
 45 46  2  0  0  0
 45116  1  0  0  0
 46117  1  0  0  0
 47118  1  0  0  0
 47119  1  0  0  0
 48 56  1  0  0  0
 48 65  1  0  0  0
 48120  1  0  0  0
 49 50  1  0  0  0
 49 53  1  0  0  0
 49 64  1  0  0  0
 49121  1  0  0  0
 50 51  1  0  0  0
 50122  1  0  0  0
 50123  1  0  0  0
 51 52  1  0  0  0
 51124  1  0  0  0
 51125  1  0  0  0
 52126  1  0  0  0
 52127  1  0  0  0
 53 54  1  0  0  0
 54 55  2  0  0  0
 54128  1  0  0  0
 55 57  1  0  0  0
 55129  1  0  0  0
 56 69  2  0  0  0
 57 58  2  0  0  0
 57130  1  0  0  0
 58131  1  0  0  0
 59 60  1  0  0  0
 59 61  1  0  0  0
 59 62  1  0  0  0
 60132  1  0  0  0
 60133  1  0  0  0
 60134  1  0  0  0
 61135  1  0  0  0
 61136  1  0  0  0
 61137  1  0  0  0
 62138  1  0  0  0
 62139  1  0  0  0
 62140  1  0  0  0
 63 65  1  0  0  0
 63141  1  0  0  0
 63142  1  0  0  0
 63143  1  0  0  0
 64144  1  0  0  0
 65145  1  0  0  0
 68 84  1  0  0  0
 71 73  2  0  0  0
 71 76  1  0  0  0
 71146  1  0  0  0
 72 75  1  0  0  0
 72 76  2  0  0  0
 72147  1  0  0  0
 73 74  1  0  0  0
 73 77  1  0  0  0
 74 75  2  0  0  0
 74 78  1  0  0  0
 75 85  1  0  0  0
 76 86  1  0  0  0
 77148  1  0  0  0
 77149  1  0  0  0
 77150  1  0  0  0
 78151  1  0  0  0
 78152  1  0  0  0
 78153  1  0  0  0
 79 81  1  0  0  0
 79154  1  0  0  0
 79155  1  0  0  0
 79156  1  0  0  0
 80157  1  0  0  0
 80158  1  0  0  0
 80159  1  0  0  0
 80 84  1  0  0  0
 81160  1  0  0  0
 81161  1  0  0  0
 81 83  1  0  0  0
 82 83  1  0  0  0
 82 86  1  0  0  0
 82162  1  0  0  0
 82163  1  0  0  0
 83 84  1  0  0  0
 83164  1  0  0  0
 84165  1  0  0  0
 85166  1  0  0  0
M  ISO  4   1 100  68 101  84 101  85 100
M  END
> <chiral flag>
0

> <version>
0

> <s_m_source_file>
/data/baiqing/PycharmProjects/Reinvent-master-3.2/result/LINK_invent/BTK/process_docking_weight1_custom_product_contain_oxygen_bond_distance_aromatic_linkinvent_7_9_3/rearranged_h_0136.sdf

> <i_m_source_file_index>
49

> <r_mmod_Potential_Energy-OPLS-2005>
453.812469482422

> <r_mmod_Stretch_Energy-OPLS-2005>
170.701690673828

> <r_mmod_Bend_Energy-OPLS-2005>
311.784698486328

> <r_mmod_Torsional_Energy-OPLS-2005>
291.528869628906

> <r_mmod_Improper_Torsional_Energy-OPLS-2005>
6.70137786865234

> <r_mmod_Van_der_Waal_Energy-OPLS-2005>
129.175964355469

> <r_mmod_Electrostatic_Energy-OPLS-2005>
-369.916839599609

> <r_mmod_Solvation_Energy-OPLS-2005>
-208.143325805664

> <b_mmod_Minimization_Converged-OPLS-2005>
0

> <r_mmod_RMS_Derivative-OPLS-2005>
1.83357799053192

$$$$
49
                    3D
 Structure written by MMmdl.
162170  0  0  1  0            999 V2000
  -29.8228  -16.8955   20.2548 C   0  0  0  0  0  0
  -30.2726  -14.0397   19.5348 C   0  0  0  0  0  0
  -29.5816  -13.0815   18.4557 C   0  0  0  0  0  0
  -28.2847  -12.4459   18.9557 C   0  0  0  0  0  0
  -27.5767  -13.4859   19.8304 C   0  0  2  0  0  0
  -28.4825  -14.3010   20.8523 C   0  0  0  0  0  0
  -25.2125  -13.8588   20.5989 C   0  0  0  0  0  0
  -24.1687  -13.0491   20.9343 C   0  0  0  0  0  0
  -24.6636  -11.7088   20.8711 C   0  0  0  0  0  0
  -23.9349  -10.4350   21.0310 C   0  0  0  0  0  0
  -24.3799   -9.4251   21.9131 C   0  0  0  0  0  0
  -23.6403   -8.2315   22.0746 C   0  0  0  0  0  0
  -22.4376   -8.0352   21.3549 C   0  0  0  0  0  0
  -22.0069   -9.0338   20.4633 C   0  0  0  0  0  0
  -22.7476  -10.2179   20.3004 C   0  0  0  0  0  0
  -21.6884   -6.0786   22.5279 C   0  0  0  0  0  0
  -21.4039   -6.5670   23.8219 C   0  0  0  0  0  0
  -21.3671   -5.6811   24.9172 C   0  0  0  0  0  0
  -21.6041   -4.3074   24.7214 C   0  0  0  0  0  0
  -21.8816   -3.8177   23.4332 C   0  0  0  0  0  0
  -21.9202   -4.7005   22.3393 C   0  0  0  0  0  0
  -22.7642  -13.5062   21.1930 C   0  0  0  0  0  0
  -22.1663   -4.2193   21.0968 F   0  0  0  0  0  0
  -21.5623   -3.4547   25.7718 F   0  0  0  0  0  0
  -29.4411  -15.3040   20.1480 N   0  0  0  0  0  0
  -26.2875  -13.0323   20.3582 N   0  0  0  0  0  0
  -25.9678  -11.7174   20.5650 N   0  0  0  0  0  0
  -22.0355  -12.7998   22.0484 N   0  0  0  0  0  0
  -25.3353  -15.2357   20.4371 N   0  0  0  0  0  0
  -31.0742  -16.6249   20.1914 O   0  0  0  0  0  0
  -21.6696   -6.8966   21.4262 O   0  0  0  0  0  0
  -22.3253  -14.5335   20.6761 O   0  0  0  0  0  0
  -24.7695  -31.6905   23.0832 C   0  0  0  0  0  0
  -25.9818  -32.3948   23.7710 C   0  0  1  0  0  0
  -27.2870  -25.8320   20.2742 C   0  0  0  0  0  0
  -25.6021  -33.7826   24.1480 N   0  0  0  0  0  0
  -23.6381  -30.2491   21.4588 C   0  0  2  0  0  0
  -25.1140  -28.4108   20.1500 C   0  0  0  0  0  0
  -22.8162  -29.3725   22.4512 C   0  0  0  0  0  0
  -18.0404  -28.1460   22.8422 C   0  0  0  0  0  0
  -24.1492  -36.6927   23.2675 C   0  0  0  0  0  0
  -26.2438  -30.1313   21.4880 C   0  0  0  0  0  0
  -26.3114  -28.5971   20.8522 C   0  0  0  0  0  0
  -27.3396  -27.3679   20.8719 C   0  0  0  0  0  0
  -26.0676  -26.0978   19.5045 C   0  0  0  0  0  0
  -25.0845  -27.1870   19.4476 C   0  0  0  0  0  0
  -23.9435  -29.4620   20.1358 C   0  0  0  0  0  0
  -25.4169  -36.2591   24.0229 C   0  0  1  0  0  0
  -20.6080  -28.3844   23.0988 C   0  0  2  0  0  0
  -20.6810  -26.9420   22.5421 C   0  0  0  0  0  0
  -19.5792  -26.6337   21.5234 C   0  0  0  0  0  0
  -18.1984  -26.7972   22.1618 C   0  0  0  0  0  0
  -19.1693  -28.9002   23.2656 C   0  0  0  0  0  0
  -18.9576  -30.1570   23.8726 C   0  0  0  0  0  0
  -17.6554  -30.6617   24.0533 C   0  0  0  0  0  0
  -25.9205  -34.9003   23.4763 C   0  0  0  0  0  0
  -16.5440  -29.9079   23.6376 C   0  0  0  0  0  0
  -16.7380  -28.6509   23.0388 C   0  0  0  0  0  0
  -26.4730  -31.6373   25.0679 C   0  0  0  0  0  0
  -25.3575  -31.3922   26.1130 C   0  0  0  0  0  0
  -27.0816  -30.2642   24.7197 C   0  0  0  0  0  0
  -27.6005  -32.4459   25.7529 C   0  0  0  0  0  0
  -27.5538  -37.1600   24.8461 C   0  0  0  0  0  0
  -21.4737  -29.2904   22.3216 N   0  0  0  0  0  0
  -26.4216  -37.3454   23.9427 N   0  0  0  0  0  0
  -24.9190  -30.7438   22.0619 N   0  0  0  0  0  0
  -23.4175  -28.7494   23.3282 O   0  0  0  0  0  0
  -27.9374  -24.1137   20.2325 O   0  0  0  0  0  0
  -26.5967  -34.8756   22.4466 O   0  0  0  0  0  0
  -23.6529  -32.0383   23.5193 O   0  0  0  0  0  0
  -28.7927  -23.5007   22.0921 C   0  0  0  0  0  0
  -29.8168  -24.5811   20.9553 C   0  0  0  0  0  0
  -28.3035  -21.8498   21.5539 C   0  0  0  0  0  0
  -29.1903  -22.0182   19.1769 C   0  0  0  0  0  0
  -29.8061  -23.7083   19.2960 C   0  0  0  0  0  0
  -28.8588  -20.7290   20.3134 C   0  0  0  0  0  0
  -31.9310  -22.4209   20.3359 C   0  0  0  0  0  0
  -33.4622  -26.5650   18.6794 C   0  0  0  0  0  0
  -30.3020  -24.3573   18.0167 C   0  0  0  0  0  0
  -30.5011  -22.4864   21.0598 C   0  0  0  0  0  0
  -32.8646  -23.6335   20.4471 C   0  0  0  0  0  0
  -31.1752  -25.6174   18.1410 C   0  0  0  0  0  0
  -32.3739  -25.5763   19.1155 C   0  0  1  0  0  0
  -29.0654  -18.5997   20.2917 N   0  0  0  0  0  0
  -32.2859  -21.4154   19.7107 O   0  0  0  0  0  0
  -32.9894  -24.2886   19.1770 O   0  0  0  0  0  0
  -31.1420  -14.4576   19.0265 H   0  0  0  0  0  0
  -30.7234  -13.4435   20.3309 H   0  0  0  0  0  0
  -30.2780  -12.3074   18.1286 H   0  0  0  0  0  0
  -29.3590  -13.6766   17.5684 H   0  0  0  0  0  0
  -28.5237  -11.5673   19.5566 H   0  0  0  0  0  0
  -27.6588  -12.1101   18.1275 H   0  0  0  0  0  0
  -27.2948  -14.2374   19.0900 H   0  0  0  0  0  0
  -28.9797  -13.6392   21.5641 H   0  0  0  0  0  0
  -27.8367  -14.9154   21.4785 H   0  0  0  0  0  0
  -25.2932   -9.5694   22.4738 H   0  0  0  0  0  0
  -24.0070   -7.4718   22.7495 H   0  0  0  0  0  0
  -21.0995   -8.8904   19.8940 H   0  0  0  0  0  0
  -22.3950  -10.9716   19.6105 H   0  0  0  0  0  0
  -21.2041   -7.6178   23.9740 H   0  0  0  0  0  0
  -21.1488   -6.0531   25.9079 H   0  0  0  0  0  0
  -22.0578   -2.7640   23.2815 H   0  0  0  0  0  0
  -22.4060  -11.9713   22.4908 H   0  0  0  0  0  0
  -21.0928  -13.0916   22.2643 H   0  0  0  0  0  0
  -24.5443  -15.8627   20.5377 H   0  0  0  0  0  0
  -26.1735  -15.7004   20.1132 H   0  0  0  0  0  0
  -26.8011  -32.4297   23.0521 H   0  0  0  0  0  0
  -24.9933  -33.8720   24.9476 H   0  0  0  0  0  0
  -23.0174  -31.1058   21.1899 H   0  0  0  0  0  0
  -23.3810  -35.9189   23.3163 H   0  0  0  0  0  0
  -24.3546  -36.8812   22.2126 H   0  0  0  0  0  0
  -23.7196  -37.6001   23.6935 H   0  0  0  0  0  0
  -26.5344  -30.7980   20.6750 H   0  0  0  0  0  0
  -27.0654  -30.2260   22.1820 H   0  0  0  0  0  0
  -28.2072  -27.5509   21.4892 H   0  0  0  0  0  0
  -25.7698  -25.2460   18.9086 H   0  0  0  0  0  0
  -24.2193  -27.0063   18.8241 H   0  0  0  0  0  0
  -24.1798  -30.1839   19.3536 H   0  0  0  0  0  0
  -23.0370  -28.9605   19.7936 H   0  0  0  0  0  0
  -25.1412  -36.1226   25.0711 H   0  0  0  0  0  0
  -21.0121  -28.3522   24.1136 H   0  0  0  0  0  0
  -20.5599  -26.2490   23.3761 H   0  0  0  0  0  0
  -21.6661  -26.7222   22.1289 H   0  0  0  0  0  0
  -19.6916  -25.6213   21.1353 H   0  0  0  0  0  0
  -19.6755  -27.3074   20.6709 H   0  0  0  0  0  0
  -17.4262  -26.6746   21.4012 H   0  0  0  0  0  0
  -18.0312  -26.0154   22.9038 H   0  0  0  0  0  0
  -19.8054  -30.7427   24.2013 H   0  0  0  0  0  0
  -17.5101  -31.6278   24.5162 H   0  0  0  0  0  0
  -15.5429  -30.2919   23.7792 H   0  0  0  0  0  0
  -15.8789  -28.0763   22.7188 H   0  0  0  0  0  0
  -24.5825  -30.7215   25.7396 H   0  0  0  0  0  0
  -24.8709  -32.3213   26.4115 H   0  0  0  0  0  0
  -25.7552  -30.9365   27.0207 H   0  0  0  0  0  0
  -26.3672  -29.5952   24.2394 H   0  0  0  0  0  0
  -27.4104  -29.7475   25.6227 H   0  0  0  0  0  0
  -27.9701  -30.3617   24.0957 H   0  0  0  0  0  0
  -27.2428  -33.3932   26.1585 H   0  0  0  0  0  0
  -28.4062  -32.6749   25.0537 H   0  0  0  0  0  0
  -28.0401  -31.8967   26.5868 H   0  0  0  0  0  0
  -28.2430  -38.0006   24.7569 H   0  0  0  0  0  0
  -28.1156  -36.2526   24.6206 H   0  0  0  0  0  0
  -27.2266  -37.1103   25.8859 H   0  0  0  0  0  0
  -21.0254  -29.8410   21.6021 H   0  0  0  0  0  0
  -25.9966  -38.2450   24.1500 H   0  0  0  0  0  0
  -28.4741  -23.8768   23.0551 H   0  0  0  0  0  0
  -30.1299  -25.5947   21.1603 H   0  0  0  0  0  0
  -27.7866  -21.3355   22.3514 H   0  0  0  0  0  0
  -29.3453  -21.6303   18.1806 H   0  0  0  0  0  0
  -33.0626  -27.5761   18.5896 H   0  0  0  0  0  0
  -33.8812  -26.2913   17.7100 H   0  0  0  0  0  0
  -34.2798  -26.5973   19.4000 H   0  0  0  0  0  0
  -29.4328  -24.5799   17.3975 H   0  0  0  0  0  0
  -30.8666  -23.5992   17.4725 H   0  0  0  0  0  0
  -30.9458  -22.9148   21.9717 H   0  0  0  0  0  0
  -30.4930  -21.5054   21.5389 H   0  0  0  0  0  0
  -33.8509  -23.2712   20.7365 H   0  0  0  0  0  0
  -32.5418  -24.2965   21.2500 H   0  0  0  0  0  0
  -30.5383  -26.4590   18.4178 H   0  0  0  0  0  0
  -31.5333  -25.8478   17.1362 H   0  0  0  0  0  0
  -32.0358  -25.9120   20.0944 H   0  0  0  0  0  0
  -28.1074  -18.2880   20.3870 H   0  0  0  0  0  0
  1 25  1  0  0  0
  1 30  2  0  0  0
  1 84  1  0  0  0
  2  3  1  0  0  0
  2 25  1  0  0  0
  2 87  1  0  0  0
  2 88  1  0  0  0
  3  4  1  0  0  0
  3 89  1  0  0  0
  3 90  1  0  0  0
  4  5  1  0  0  0
  4 91  1  0  0  0
  4 92  1  0  0  0
  5  6  1  0  0  0
  5 26  1  0  0  0
  5 93  1  0  0  0
  6 25  1  0  0  0
  6 94  1  0  0  0
  6 95  1  0  0  0
  7  8  2  0  0  0
  7 26  1  0  0  0
  7 29  1  0  0  0
  8  9  1  0  0  0
  8 22  1  0  0  0
  9 10  1  0  0  0
  9 27  2  0  0  0
 10 11  2  0  0  0
 10 15  1  0  0  0
 11 12  1  0  0  0
 11 96  1  0  0  0
 12 13  2  0  0  0
 12 97  1  0  0  0
 13 14  1  0  0  0
 13 31  1  0  0  0
 14 15  2  0  0  0
 14 98  1  0  0  0
 15 99  1  0  0  0
 16 17  2  0  0  0
 16 21  1  0  0  0
 16 31  1  0  0  0
 17 18  1  0  0  0
 17100  1  0  0  0
 18 19  2  0  0  0
 18101  1  0  0  0
 19 20  1  0  0  0
 19 24  1  0  0  0
 20 21  2  0  0  0
 20102  1  0  0  0
 21 23  1  0  0  0
 22 28  1  0  0  0
 22 32  2  0  0  0
 26 27  1  0  0  0
 28103  1  0  0  0
 28104  1  0  0  0
 29105  1  0  0  0
 29106  1  0  0  0
 33 34  1  0  0  0
 33 66  1  0  0  0
 33 70  2  0  0  0
 34 36  1  0  0  0
 34 59  1  0  0  0
 34107  1  0  0  0
 35 44  2  0  0  0
 35 45  1  0  0  0
 35 68  1  0  0  0
 36 56  1  0  0  0
 36108  1  0  0  0
 37 39  1  0  0  0
 37 47  1  0  0  0
 37 66  1  0  0  0
 37109  1  0  0  0
 38 43  2  0  0  0
 38 46  1  0  0  0
 38 47  1  0  0  0
 39 64  1  0  0  0
 39 67  2  0  0  0
 40 52  1  0  0  0
 40 53  2  0  0  0
 40 58  1  0  0  0
 41110  1  0  0  0
 41111  1  0  0  0
 41112  1  0  0  0
 41 48  1  0  0  0
 42 43  1  0  0  0
 42 66  1  0  0  0
 42113  1  0  0  0
 42114  1  0  0  0
 43 44  1  0  0  0
 44115  1  0  0  0
 45 46  2  0  0  0
 45116  1  0  0  0
 46117  1  0  0  0
 47118  1  0  0  0
 47119  1  0  0  0
 48 56  1  0  0  0
 48 65  1  0  0  0
 48120  1  0  0  0
 49 50  1  0  0  0
 49 53  1  0  0  0
 49 64  1  0  0  0
 49121  1  0  0  0
 50 51  1  0  0  0
 50122  1  0  0  0
 50123  1  0  0  0
 51 52  1  0  0  0
 51124  1  0  0  0
 51125  1  0  0  0
 52126  1  0  0  0
 52127  1  0  0  0
 53 54  1  0  0  0
 54 55  2  0  0  0
 54128  1  0  0  0
 55 57  1  0  0  0
 55129  1  0  0  0
 56 69  2  0  0  0
 57 58  2  0  0  0
 57130  1  0  0  0
 58131  1  0  0  0
 59 60  1  0  0  0
 59 61  1  0  0  0
 59 62  1  0  0  0
 60132  1  0  0  0
 60133  1  0  0  0
 60134  1  0  0  0
 61135  1  0  0  0
 61136  1  0  0  0
 61137  1  0  0  0
 62138  1  0  0  0
 62139  1  0  0  0
 62140  1  0  0  0
 63 65  1  0  0  0
 63141  1  0  0  0
 63142  1  0  0  0
 63143  1  0  0  0
 64144  1  0  0  0
 65145  1  0  0  0
 68 80  1  0  0  0
 71 72  2  0  0  0
 71 73  1  0  0  0
 71146  1  0  0  0
 72 75  1  0  0  0
 72147  1  0  0  0
 73 76  2  0  0  0
 73148  1  0  0  0
 74 75  2  0  0  0
 74 76  1  0  0  0
 74149  1  0  0  0
 75 79  1  0  0  0
 76 84  1  0  0  0
 77 80  1  0  0  0
 77 81  1  0  0  0
 77 85  2  0  0  0
 78150  1  0  0  0
 78151  1  0  0  0
 78152  1  0  0  0
 78 83  1  0  0  0
 79 82  1  0  0  0
 79153  1  0  0  0
 79154  1  0  0  0
 80155  1  0  0  0
 80156  1  0  0  0
 81 86  1  0  0  0
 81157  1  0  0  0
 81158  1  0  0  0
 82 83  1  0  0  0
 82159  1  0  0  0
 82160  1  0  0  0
 83 86  1  0  0  0
 83161  1  0  0  0
 84162  1  0  0  0
M  ISO  4   1 100  68 101  80 101  84 100
M  END
> <chiral flag>
0

> <version>
0

> <s_m_source_file>
/data/baiqing/PycharmProjects/Reinvent-master-3.2/result/LINK_invent/BTK/process_docking_weight1_custom_product_contain_oxygen_bond_distance_aromatic_linkinvent_7_9_3/rearranged_h_0136.sdf

> <i_m_source_file_index>
50

> <r_mmod_Potential_Energy-OPLS-2005>
15349.1689453125

> <r_mmod_Stretch_Energy-OPLS-2005>
8469.0400390625

> <r_mmod_Bend_Energy-OPLS-2005>
1171.21350097656

> <r_mmod_Torsional_Energy-OPLS-2005>
371.988739013672

> <r_mmod_Improper_Torsional_Energy-OPLS-2005>
7.16404056549072

> <r_mmod_Van_der_Waal_Energy-OPLS-2005>
2067.9775390625

> <r_mmod_Electrostatic_Energy-OPLS-2005>
-332.211303710938

> <r_mmod_Solvation_Energy-OPLS-2005>
-249.208587646484

> <b_mmod_Minimization_Converged-OPLS-2005>
0

> <r_mmod_RMS_Derivative-OPLS-2005>
2.81762552261353

$$$$
50
                    3D
 Structure written by MMmdl.
172180  0  0  1  0            999 V2000
  -30.7052  -14.4250   20.6353 C   0  0  0  0  0  0
  -30.4263  -12.2982   19.4094 C   0  0  0  0  0  0
  -29.4958  -12.5381   18.2020 C   0  0  0  0  0  0
  -28.0152  -12.4005   18.6081 C   0  0  0  0  0  0
  -27.6711  -13.2058   19.8899 C   0  0  2  0  0  0
  -28.7093  -12.9281   21.0008 C   0  0  0  0  0  0
  -25.2613  -13.8155   20.5659 C   0  0  0  0  0  0
  -24.1858  -13.0440   20.9163 C   0  0  0  0  0  0
  -24.6409  -11.6903   20.8731 C   0  0  0  0  0  0
  -23.9066  -10.4287   21.0400 C   0  0  0  0  0  0
  -24.3618   -9.4207   21.9177 C   0  0  0  0  0  0
  -23.6289   -8.2246   22.0760 C   0  0  0  0  0  0
  -22.4272   -8.0282   21.3555 C   0  0  0  0  0  0
  -21.9907   -9.0252   20.4646 C   0  0  0  0  0  0
  -22.7238  -10.2127   20.3050 C   0  0  0  0  0  0
  -21.6852   -6.0736   22.5280 C   0  0  0  0  0  0
  -21.4016   -6.5637   23.8215 C   0  0  0  0  0  0
  -21.3660   -5.6789   24.9174 C   0  0  0  0  0  0
  -21.6044   -4.3057   24.7223 C   0  0  0  0  0  0
  -21.8817   -3.8145   23.4346 C   0  0  0  0  0  0
  -21.9189   -4.6961   22.3404 C   0  0  0  0  0  0
  -22.7889  -13.5247   21.1834 C   0  0  0  0  0  0
  -22.1651   -4.2149   21.0983 F   0  0  0  0  0  0
  -21.5628   -3.4539   25.7738 F   0  0  0  0  0  0
  -30.0515  -13.2430   20.4730 N   0  0  0  0  0  0
  -26.3078  -12.9325   20.3426 N   0  0  0  0  0  0
  -25.9344  -11.6480   20.5778 N   0  0  0  0  0  0
  -22.0522  -12.8230   22.0379 N   0  0  0  0  0  0
  -25.4308  -15.1863   20.3989 N   0  0  0  0  0  0
  -31.7544  -14.7075   20.0480 O   0  0  0  0  0  0
  -21.6641   -6.8880   21.4248 O   0  0  0  0  0  0
  -22.3570  -14.5554   20.6695 O   0  0  0  0  0  0
  -24.6114  -31.8696   23.2118 C   0  0  0  0  0  0
  -25.9017  -32.4836   23.8406 C   0  0  1  0  0  0
  -27.2365  -27.4467   20.1036 C   0  0  0  0  0  0
  -25.5899  -33.8634   24.2355 N   0  0  0  0  0  0
  -23.4014  -30.4917   21.5492 C   0  0  2  0  0  0
  -24.8520  -28.9613   20.1126 C   0  0  0  0  0  0
  -22.7410  -29.4653   22.4975 C   0  0  0  0  0  0
  -18.0285  -28.1352   22.8477 C   0  0  0  0  0  0
  -24.1488  -36.7313   23.2646 C   0  0  0  0  0  0
  -25.9286  -30.8409   21.3640 C   0  0  0  0  0  0
  -26.0102  -29.4764   20.7109 C   0  0  0  0  0  0
  -27.2090  -28.7272   20.7004 C   0  0  0  0  0  0
  -26.0680  -26.9439   19.4973 C   0  0  0  0  0  0
  -24.8773  -27.6942   19.5005 C   0  0  0  0  0  0
  -23.6118  -29.8260   20.1625 C   0  0  0  0  0  0
  -25.4099  -36.3114   24.0362 C   0  0  1  0  0  0
  -20.5873  -28.3643   23.1312 C   0  0  2  0  0  0
  -20.6784  -26.9378   22.5400 C   0  0  0  0  0  0
  -19.5769  -26.6362   21.5201 C   0  0  0  0  0  0
  -18.1941  -26.7898   22.1607 C   0  0  0  0  0  0
  -19.1534  -28.8813   23.2895 C   0  0  0  0  0  0
  -18.9468  -30.1426   23.8897 C   0  0  0  0  0  0
  -17.6472  -30.6557   24.0561 C   0  0  0  0  0  0
  -25.9019  -34.9484   23.5141 C   0  0  0  0  0  0
  -16.5358  -29.9064   23.6314 C   0  0  0  0  0  0
  -16.7279  -28.6486   23.0321 C   0  0  0  0  0  0
  -26.4452  -31.6605   25.0723 C   0  0  0  0  0  0
  -25.3745  -31.3719   26.1496 C   0  0  0  0  0  0
  -27.0246  -30.3047   24.6054 C   0  0  0  0  0  0
  -27.6030  -32.4318   25.7485 C   0  0  0  0  0  0
  -27.5587  -37.1804   24.8466 C   0  0  0  0  0  0
  -21.4136  -29.3027   22.3736 N   0  0  0  0  0  0
  -26.4284  -37.3791   23.9427 N   0  0  0  0  0  0
  -24.6650  -31.0807   22.1005 N   0  0  0  0  0  0
  -23.4200  -28.8192   23.2998 O   0  0  0  0  0  0
  -28.3742  -26.6718   20.1060 O   0  0  0  0  0  0
  -26.5557  -34.8935   22.4688 O   0  0  0  0  0  0
  -23.5310  -32.1433   23.7522 O   0  0  0  0  0  0
  -28.9582  -18.7549   22.1888 C   0  0  0  0  0  0
  -30.3387  -17.4153   20.2311 C   0  0  0  0  0  0
  -29.2680  -17.3956   22.4005 C   0  0  0  0  0  0
  -29.9521  -16.6869   21.3835 C   0  0  0  0  0  0
  -29.3186  -19.3719   20.9760 C   0  0  0  0  0  0
  -29.0654  -24.4138   20.8002 C   0  0  0  0  0  0
  -29.0786  -23.2001   21.4316 C   0  0  0  0  0  0
  -26.8305  -15.5150   24.8144 C   0  0  0  0  0  0
  -29.3462  -26.4355   22.2844 C   0  0  0  0  0  0
  -30.7672  -22.2146   19.7383 C   0  0  0  0  0  0
  -27.2635  -23.5214   22.9973 C   0  0  0  0  0  0
  -28.7943  -16.7173   23.6795 C   0  0  0  0  0  0
  -28.8245  -20.7810   20.6278 C   0  0  0  0  0  0
  -27.3547  -16.1951   23.5434 C   0  0  0  0  0  0
  -28.4674  -25.7641   21.2182 C   0  0  1  0  0  0
  -29.8118  -21.9459   20.9188 C   0  0  2  0  0  0
  -30.0248  -18.7161   20.0284 N   0  0  0  0  0  0
  -30.1280  -15.2704   21.5070 N   0  0  0  0  0  0
  -28.4789  -22.8841   22.6333 O   0  0  0  0  0  0
  -31.4718  -12.4007   19.1150 H   0  0  0  0  0  0
  -30.3217  -11.2734   19.7689 H   0  0  0  0  0  0
  -29.7300  -11.8380   17.3987 H   0  0  0  0  0  0
  -29.6724  -13.5356   17.7962 H   0  0  0  0  0  0
  -27.8086  -11.3419   18.7669 H   0  0  0  0  0  0
  -27.3712  -12.7151   17.7860 H   0  0  0  0  0  0
  -27.7323  -14.2642   19.6358 H   0  0  0  0  0  0
  -28.6755  -11.8761   21.2877 H   0  0  0  0  0  0
  -28.4581  -13.4732   21.9102 H   0  0  0  0  0  0
  -25.2762   -9.5682   22.4746 H   0  0  0  0  0  0
  -23.9996   -7.4645   22.7483 H   0  0  0  0  0  0
  -21.0840   -8.8761   19.8952 H   0  0  0  0  0  0
  -22.3696  -10.9662   19.6157 H   0  0  0  0  0  0
  -21.2012   -7.6145   23.9721 H   0  0  0  0  0  0
  -21.1480   -6.0518   25.9076 H   0  0  0  0  0  0
  -22.0595   -2.7606   23.2847 H   0  0  0  0  0  0
  -22.4133  -11.9888   22.4766 H   0  0  0  0  0  0
  -21.1138  -13.1258   22.2579 H   0  0  0  0  0  0
  -24.6603  -15.8389   20.4919 H   0  0  0  0  0  0
  -26.2826  -15.6230   20.0696 H   0  0  0  0  0  0
  -26.7089  -32.5548   23.1171 H   0  0  0  0  0  0
  -25.0132  -33.9803   25.0555 H   0  0  0  0  0  0
  -22.6882  -31.3075   21.4086 H   0  0  0  0  0  0
  -23.3763  -35.9627   23.3287 H   0  0  0  0  0  0
  -24.3606  -36.8914   22.2061 H   0  0  0  0  0  0
  -23.7217  -37.6517   23.6640 H   0  0  0  0  0  0
  -26.0396  -31.6124   20.6002 H   0  0  0  0  0  0
  -26.8164  -30.8917   21.9827 H   0  0  0  0  0  0
  -28.1053  -29.1229   21.1571 H   0  0  0  0  0  0
  -26.0805  -25.9677   19.0318 H   0  0  0  0  0  0
  -23.9879  -27.2954   19.0307 H   0  0  0  0  0  0
  -23.7191  -30.6044   19.4057 H   0  0  0  0  0  0
  -22.7373  -29.2463   19.8630 H   0  0  0  0  0  0
  -25.1266  -36.1985   25.0852 H   0  0  0  0  0  0
  -20.9963  -28.3187   24.1437 H   0  0  0  0  0  0
  -20.5687  -26.2242   23.3580 H   0  0  0  0  0  0
  -21.6653  -26.7400   22.1192 H   0  0  0  0  0  0
  -19.6939  -25.6284   21.1211 H   0  0  0  0  0  0
  -19.6729  -27.3198   20.6752 H   0  0  0  0  0  0
  -17.4216  -26.6667   21.3995 H   0  0  0  0  0  0
  -18.0326  -26.0017   22.8977 H   0  0  0  0  0  0
  -19.7955  -30.7236   24.2253 H   0  0  0  0  0  0
  -17.5035  -31.6237   24.5163 H   0  0  0  0  0  0
  -15.5367  -30.2979   23.7621 H   0  0  0  0  0  0
  -15.8679  -28.0821   22.7005 H   0  0  0  0  0  0
  -24.5938  -30.7021   25.7876 H   0  0  0  0  0  0
  -24.8926  -32.2880   26.4926 H   0  0  0  0  0  0
  -25.8132  -30.8940   27.0265 H   0  0  0  0  0  0
  -26.2761  -29.6873   24.1076 H   0  0  0  0  0  0
  -27.3998  -29.7212   25.4468 H   0  0  0  0  0  0
  -27.8608  -30.4377   23.9187 H   0  0  0  0  0  0
  -27.2640  -33.3613   26.2073 H   0  0  0  0  0  0
  -28.3835  -32.6874   25.0310 H   0  0  0  0  0  0
  -28.0697  -31.8447   26.5402 H   0  0  0  0  0  0
  -28.2559  -38.0142   24.7520 H   0  0  0  0  0  0
  -28.1117  -36.2663   24.6240 H   0  0  0  0  0  0
  -27.2329  -37.1391   25.8878 H   0  0  0  0  0  0
  -20.9294  -29.8773   21.6977 H   0  0  0  0  0  0
  -26.0187  -38.2862   24.1456 H   0  0  0  0  0  0
  -28.3937  -19.3051   22.9304 H   0  0  0  0  0  0
  -30.8534  -16.9486   19.4063 H   0  0  0  0  0  0
  -29.5799  -24.4891   19.8556 H   0  0  0  0  0  0
  -25.8009  -15.1833   24.6758 H   0  0  0  0  0  0
  -26.8443  -16.1984   25.6647 H   0  0  0  0  0  0
  -27.4282  -14.6407   25.0738 H   0  0  0  0  0  0
  -29.5367  -25.7675   23.1233 H   0  0  0  0  0  0
  -28.8731  -27.3321   22.6842 H   0  0  0  0  0  0
  -30.3109  -26.7260   21.8685 H   0  0  0  0  0  0
  -31.5212  -22.9569   20.0029 H   0  0  0  0  0  0
  -30.2337  -22.5716   18.8566 H   0  0  0  0  0  0
  -31.2975  -21.3057   19.4501 H   0  0  0  0  0  0
  -27.4352  -24.4897   23.4652 H   0  0  0  0  0  0
  -26.7505  -22.9041   23.7354 H   0  0  0  0  0  0
  -26.5853  -23.6221   22.1485 H   0  0  0  0  0  0
  -28.8544  -17.4334   24.5004 H   0  0  0  0  0  0
  -29.4717  -15.9081   23.9537 H   0  0  0  0  0  0
  -27.9071  -20.9297   21.1993 H   0  0  0  0  0  0
  -28.5013  -20.8109   19.5860 H   0  0  0  0  0  0
  -26.6957  -17.0237   23.2837 H   0  0  0  0  0  0
  -27.2982  -15.4916   22.7126 H   0  0  0  0  0  0
  -27.4675  -25.6138   21.6158 H   0  0  0  0  0  0
  -30.4282  -21.6317   21.7624 H   0  0  0  0  0  0
  -29.4809  -14.8171   22.1331 H   0  0  0  0  0  0
  1 25  1  0  0  0
  1 30  2  0  0  0
  1 88  1  0  0  0
  2  3  1  0  0  0
  2 25  1  0  0  0
  2 90  1  0  0  0
  2 91  1  0  0  0
  3  4  1  0  0  0
  3 92  1  0  0  0
  3 93  1  0  0  0
  4  5  1  0  0  0
  4 94  1  0  0  0
  4 95  1  0  0  0
  5  6  1  0  0  0
  5 26  1  0  0  0
  5 96  1  0  0  0
  6 25  1  0  0  0
  6 97  1  0  0  0
  6 98  1  0  0  0
  7  8  2  0  0  0
  7 26  1  0  0  0
  7 29  1  0  0  0
  8  9  1  0  0  0
  8 22  1  0  0  0
  9 10  1  0  0  0
  9 27  2  0  0  0
 10 11  2  0  0  0
 10 15  1  0  0  0
 11 12  1  0  0  0
 11 99  1  0  0  0
 12 13  2  0  0  0
 12100  1  0  0  0
 13 14  1  0  0  0
 13 31  1  0  0  0
 14 15  2  0  0  0
 14101  1  0  0  0
 15102  1  0  0  0
 16 17  2  0  0  0
 16 21  1  0  0  0
 16 31  1  0  0  0
 17 18  1  0  0  0
 17103  1  0  0  0
 18 19  2  0  0  0
 18104  1  0  0  0
 19 20  1  0  0  0
 19 24  1  0  0  0
 20 21  2  0  0  0
 20105  1  0  0  0
 21 23  1  0  0  0
 22 28  1  0  0  0
 22 32  2  0  0  0
 26 27  1  0  0  0
 28106  1  0  0  0
 28107  1  0  0  0
 29108  1  0  0  0
 29109  1  0  0  0
 33 34  1  0  0  0
 33 66  1  0  0  0
 33 70  2  0  0  0
 34 36  1  0  0  0
 34 59  1  0  0  0
 34110  1  0  0  0
 35 44  2  0  0  0
 35 45  1  0  0  0
 35 68  1  0  0  0
 36 56  1  0  0  0
 36111  1  0  0  0
 37 39  1  0  0  0
 37 47  1  0  0  0
 37 66  1  0  0  0
 37112  1  0  0  0
 38 43  2  0  0  0
 38 46  1  0  0  0
 38 47  1  0  0  0
 39 64  1  0  0  0
 39 67  2  0  0  0
 40 52  1  0  0  0
 40 53  2  0  0  0
 40 58  1  0  0  0
 41113  1  0  0  0
 41114  1  0  0  0
 41115  1  0  0  0
 41 48  1  0  0  0
 42 43  1  0  0  0
 42 66  1  0  0  0
 42116  1  0  0  0
 42117  1  0  0  0
 43 44  1  0  0  0
 44118  1  0  0  0
 45 46  2  0  0  0
 45119  1  0  0  0
 46120  1  0  0  0
 47121  1  0  0  0
 47122  1  0  0  0
 48 56  1  0  0  0
 48 65  1  0  0  0
 48123  1  0  0  0
 49 50  1  0  0  0
 49 53  1  0  0  0
 49 64  1  0  0  0
 49124  1  0  0  0
 50 51  1  0  0  0
 50125  1  0  0  0
 50126  1  0  0  0
 51 52  1  0  0  0
 51127  1  0  0  0
 51128  1  0  0  0
 52129  1  0  0  0
 52130  1  0  0  0
 53 54  1  0  0  0
 54 55  2  0  0  0
 54131  1  0  0  0
 55 57  1  0  0  0
 55132  1  0  0  0
 56 69  2  0  0  0
 57 58  2  0  0  0
 57133  1  0  0  0
 58134  1  0  0  0
 59 60  1  0  0  0
 59 61  1  0  0  0
 59 62  1  0  0  0
 60135  1  0  0  0
 60136  1  0  0  0
 60137  1  0  0  0
 61138  1  0  0  0
 61139  1  0  0  0
 61140  1  0  0  0
 62141  1  0  0  0
 62142  1  0  0  0
 62143  1  0  0  0
 63 65  1  0  0  0
 63144  1  0  0  0
 63145  1  0  0  0
 63146  1  0  0  0
 64147  1  0  0  0
 65148  1  0  0  0
 68 85  1  0  0  0
 71 73  2  0  0  0
 71 75  1  0  0  0
 71149  1  0  0  0
 72 74  2  0  0  0
 72 87  1  0  0  0
 72150  1  0  0  0
 73 74  1  0  0  0
 73 82  1  0  0  0
 74 88  1  0  0  0
 75 83  1  0  0  0
 75 87  2  0  0  0
 76 77  2  0  0  0
 76 85  1  0  0  0
 76151  1  0  0  0
 77 86  1  0  0  0
 77 89  1  0  0  0
 78 84  1  0  0  0
 78152  1  0  0  0
 78153  1  0  0  0
 78154  1  0  0  0
 79155  1  0  0  0
 79156  1  0  0  0
 79157  1  0  0  0
 79 85  1  0  0  0
 80158  1  0  0  0
 80159  1  0  0  0
 80160  1  0  0  0
 80 86  1  0  0  0
 81 89  1  0  0  0
 81161  1  0  0  0
 81162  1  0  0  0
 81163  1  0  0  0
 82 84  1  0  0  0
 82164  1  0  0  0
 82165  1  0  0  0
 83 86  1  0  0  0
 83166  1  0  0  0
 83167  1  0  0  0
 84168  1  0  0  0
 84169  1  0  0  0
 85170  1  0  0  0
 86171  1  0  0  0
 88172  1  0  0  0
M  ISO  4   1 100  68 101  85 101  88 100
M  END
> <chiral flag>
0

> <version>
0

> <s_m_source_file>
/data/baiqing/PycharmProjects/Reinvent-master-3.2/result/LINK_invent/BTK/process_docking_weight1_custom_product_contain_oxygen_bond_distance_aromatic_linkinvent_7_9_3/rearranged_h_0136.sdf

> <i_m_source_file_index>
51

> <r_mmod_Potential_Energy-OPLS-2005>
-203.678482055664

> <r_mmod_Stretch_Energy-OPLS-2005>
40.9965476989746

> <r_mmod_Bend_Energy-OPLS-2005>
116.307723999023

> <r_mmod_Torsional_Energy-OPLS-2005>
230.323013305664

> <r_mmod_Improper_Torsional_Energy-OPLS-2005>
4.34475564956665

> <r_mmod_Van_der_Waal_Energy-OPLS-2005>
151.676895141602

> <r_mmod_Electrostatic_Energy-OPLS-2005>
-552.884887695312

> <r_mmod_Solvation_Energy-OPLS-2005>
-203.859359741211

> <b_mmod_Minimization_Converged-OPLS-2005>
0

> <r_mmod_RMS_Derivative-OPLS-2005>
2.13146066665649

$$$$
51
                    3D
 Structure written by MMmdl.
162170  0  0  1  0            999 V2000
  -30.7514  -14.4572   20.5820 C   0  0  0  0  0  0
  -30.4046  -12.2976   19.4379 C   0  0  0  0  0  0
  -29.4906  -12.5038   18.2127 C   0  0  0  0  0  0
  -28.0126  -12.3683   18.6207 C   0  0  0  0  0  0
  -27.6598  -13.2162   19.8726 C   0  0  2  0  0  0
  -28.7003  -13.0240   21.0015 C   0  0  0  0  0  0
  -25.2575  -13.8196   20.5701 C   0  0  0  0  0  0
  -24.1834  -13.0472   20.9181 C   0  0  0  0  0  0
  -24.6392  -11.6936   20.8732 C   0  0  0  0  0  0
  -23.9060  -10.4324   21.0401 C   0  0  0  0  0  0
  -24.3602   -9.4235   21.9181 C   0  0  0  0  0  0
  -23.6282   -8.2261   22.0748 C   0  0  0  0  0  0
  -22.4270   -8.0287   21.3532 C   0  0  0  0  0  0
  -21.9908   -9.0268   20.4647 C   0  0  0  0  0  0
  -22.7229  -10.2150   20.3063 C   0  0  0  0  0  0
  -21.6855   -6.0743   22.5277 C   0  0  0  0  0  0
  -21.4021   -6.5641   23.8215 C   0  0  0  0  0  0
  -21.3660   -5.6785   24.9171 C   0  0  0  0  0  0
  -21.6039   -4.3048   24.7213 C   0  0  0  0  0  0
  -21.8816   -3.8147   23.4332 C   0  0  0  0  0  0
  -21.9197   -4.6973   22.3396 C   0  0  0  0  0  0
  -22.7850  -13.5257   21.1817 C   0  0  0  0  0  0
  -22.1658   -4.2165   21.0970 F   0  0  0  0  0  0
  -21.5629   -3.4527   25.7723 F   0  0  0  0  0  0
  -30.0363  -13.3046   20.4512 N   0  0  0  0  0  0
  -26.3023  -12.9382   20.3363 N   0  0  0  0  0  0
  -25.9321  -11.6539   20.5752 N   0  0  0  0  0  0
  -22.0485  -12.8285   22.0377 N   0  0  0  0  0  0
  -25.4315  -15.1926   20.4125 N   0  0  0  0  0  0
  -31.8499  -14.5914   20.0401 O   0  0  0  0  0  0
  -21.6628   -6.8881   21.4233 O   0  0  0  0  0  0
  -22.3547  -14.5569   20.6656 O   0  0  0  0  0  0
  -24.6160  -31.8673   23.2057 C   0  0  0  0  0  0
  -25.9043  -32.4817   23.8401 C   0  0  1  0  0  0
  -27.2387  -27.4054   20.1319 C   0  0  0  0  0  0
  -25.5908  -33.8617   24.2345 N   0  0  0  0  0  0
  -23.4074  -30.4855   21.5461 C   0  0  2  0  0  0
  -24.8592  -28.9452   20.1218 C   0  0  0  0  0  0
  -22.7440  -29.4624   22.4960 C   0  0  0  0  0  0
  -18.0279  -28.1339   22.8451 C   0  0  0  0  0  0
  -24.1490  -36.7301   23.2641 C   0  0  0  0  0  0
  -25.9411  -30.8249   21.3668 C   0  0  0  0  0  0
  -26.0194  -29.4558   20.7190 C   0  0  0  0  0  0
  -27.2146  -28.6951   20.7160 C   0  0  0  0  0  0
  -26.0684  -26.9245   19.5119 C   0  0  0  0  0  0
  -24.8791  -27.6780   19.5139 C   0  0  0  0  0  0
  -23.6220  -29.8133   20.1636 C   0  0  0  0  0  0
  -25.4110  -36.3101   24.0337 C   0  0  1  0  0  0
  -20.5869  -28.3623   23.1304 C   0  0  2  0  0  0
  -20.6767  -26.9369   22.5372 C   0  0  0  0  0  0
  -19.5777  -26.6397   21.5138 C   0  0  0  0  0  0
  -18.1936  -26.7899   22.1526 C   0  0  0  0  0  0
  -19.1524  -28.8788   23.2887 C   0  0  0  0  0  0
  -18.9440  -30.1397   23.8892 C   0  0  0  0  0  0
  -17.6440  -30.6536   24.0538 C   0  0  0  0  0  0
  -25.9035  -34.9463   23.5130 C   0  0  0  0  0  0
  -16.5340  -29.9032   23.6292 C   0  0  0  0  0  0
  -16.7259  -28.6442   23.0329 C   0  0  0  0  0  0
  -26.4490  -31.6589   25.0727 C   0  0  0  0  0  0
  -25.3766  -31.3696   26.1481 C   0  0  0  0  0  0
  -27.0356  -30.3030   24.6123 C   0  0  0  0  0  0
  -27.6063  -32.4320   25.7483 C   0  0  0  0  0  0
  -27.5584  -37.1811   24.8466 C   0  0  0  0  0  0
  -21.4157  -29.3026   22.3741 N   0  0  0  0  0  0
  -26.4301  -37.3779   23.9401 N   0  0  0  0  0  0
  -24.6725  -31.0759   22.0968 N   0  0  0  0  0  0
  -23.4218  -28.8181   23.3018 O   0  0  0  0  0  0
  -28.3903  -26.6425   20.1160 O   0  0  0  0  0  0
  -26.5587  -34.8901   22.4687 O   0  0  0  0  0  0
  -23.5327  -32.1452   23.7409 O   0  0  0  0  0  0
  -29.7225  -17.9279   21.3497 C   0  0  0  0  0  0
  -31.5555  -19.5330   21.4482 C   0  0  0  0  0  0
  -32.0268  -17.1449   21.3932 C   0  0  0  0  0  0
  -30.1697  -19.2808   21.3864 C   0  0  0  0  0  0
  -30.6430  -16.8436   21.3219 C   0  0  0  0  0  0
  -32.4780  -18.4751   21.4531 C   0  0  0  0  0  0
  -29.2185  -20.4308   21.3748 C   0  0  0  0  0  0
  -28.9823  -24.2627   18.7910 C   0  0  0  0  0  0
  -27.0552  -23.4356   20.2149 C   0  0  0  0  0  0
  -29.4838  -21.5928   20.3968 C   0  0  0  0  0  0
  -29.4060  -23.0465   20.9868 C   0  0  0  0  0  0
  -28.4229  -25.4623   20.9612 C   0  0  0  0  0  0
  -28.4704  -24.0614   20.2332 C   0  0  0  0  0  0
  -28.1827  -20.4390   22.1010 N   0  0  0  0  0  0
  -30.1628  -15.4853   21.2370 N   0  0  0  0  0  0
  -33.8048  -18.7402   21.5068 F   0  0  0  0  0  0
  -31.4535  -12.3540   19.1434 H   0  0  0  0  0  0
  -30.2668  -11.2931   19.8468 H   0  0  0  0  0  0
  -29.7295  -11.7824   17.4314 H   0  0  0  0  0  0
  -29.6640  -13.4898   17.7770 H   0  0  0  0  0  0
  -27.8193  -11.3131   18.8177 H   0  0  0  0  0  0
  -27.3656  -12.6404   17.7865 H   0  0  0  0  0  0
  -27.6975  -14.2608   19.5610 H   0  0  0  0  0  0
  -28.6678  -11.9986   21.3755 H   0  0  0  0  0  0
  -28.4602  -13.6563   21.8557 H   0  0  0  0  0  0
  -25.2749   -9.5704   22.4756 H   0  0  0  0  0  0
  -24.0000   -7.4647   22.7474 H   0  0  0  0  0  0
  -21.0839   -8.8784   19.8952 H   0  0  0  0  0  0
  -22.3688  -10.9680   19.6174 H   0  0  0  0  0  0
  -21.2015   -7.6149   23.9724 H   0  0  0  0  0  0
  -21.1479   -6.0509   25.9072 H   0  0  0  0  0  0
  -22.0596   -2.7614   23.2820 H   0  0  0  0  0  0
  -22.4078  -11.9945   22.4789 H   0  0  0  0  0  0
  -21.1103  -13.1334   22.2562 H   0  0  0  0  0  0
  -24.6692  -15.8512   20.5263 H   0  0  0  0  0  0
  -26.2863  -15.6276   20.0903 H   0  0  0  0  0  0
  -26.7133  -32.5554   23.1186 H   0  0  0  0  0  0
  -25.0109  -33.9794   25.0523 H   0  0  0  0  0  0
  -22.6931  -31.2998   21.4014 H   0  0  0  0  0  0
  -23.3740  -35.9652   23.3329 H   0  0  0  0  0  0
  -24.3585  -36.8873   22.2052 H   0  0  0  0  0  0
  -23.7246  -37.6512   23.6641 H   0  0  0  0  0  0
  -26.0646  -31.5916   20.6001 H   0  0  0  0  0  0
  -26.8247  -30.8777   21.9922 H   0  0  0  0  0  0
  -28.1145  -29.0867   21.1730 H   0  0  0  0  0  0
  -26.0771  -25.9712   19.0110 H   0  0  0  0  0  0
  -23.9912  -27.2754   19.0459 H   0  0  0  0  0  0
  -23.7399  -30.5891   19.4051 H   0  0  0  0  0  0
  -22.7489  -29.2332   19.8593 H   0  0  0  0  0  0
  -25.1286  -36.1975   25.0833 H   0  0  0  0  0  0
  -20.9947  -28.3152   24.1426 H   0  0  0  0  0  0
  -20.5624  -26.2227   23.3528 H   0  0  0  0  0  0
  -21.6658  -26.7408   22.1207 H   0  0  0  0  0  0
  -19.6969  -25.6330   21.1107 H   0  0  0  0  0  0
  -19.6715  -27.3261   20.6712 H   0  0  0  0  0  0
  -17.4244  -26.6671   21.3874 H   0  0  0  0  0  0
  -18.0294  -25.9999   22.8869 H   0  0  0  0  0  0
  -19.7924  -30.7184   24.2301 H   0  0  0  0  0  0
  -17.4987  -31.6201   24.5164 H   0  0  0  0  0  0
  -15.5332  -30.2928   23.7591 H   0  0  0  0  0  0
  -15.8655  -28.0747   22.7041 H   0  0  0  0  0  0
  -24.5874  -30.7135   25.7802 H   0  0  0  0  0  0
  -24.9075  -32.2874   26.5032 H   0  0  0  0  0  0
  -25.8116  -30.8769   27.0182 H   0  0  0  0  0  0
  -26.2940  -29.6744   24.1186 H   0  0  0  0  0  0
  -27.4142  -29.7292   25.4592 H   0  0  0  0  0  0
  -27.8753  -30.4351   23.9292 H   0  0  0  0  0  0
  -27.2662  -33.3548   26.2176 H   0  0  0  0  0  0
  -28.3802  -32.6982   25.0282 H   0  0  0  0  0  0
  -28.0830  -31.8405   26.5301 H   0  0  0  0  0  0
  -28.2610  -38.0101   24.7490 H   0  0  0  0  0  0
  -28.1068  -36.2620   24.6322 H   0  0  0  0  0  0
  -27.2308  -37.1489   25.8875 H   0  0  0  0  0  0
  -20.9300  -29.8835   21.7044 H   0  0  0  0  0  0
  -26.0181  -38.2857   24.1392 H   0  0  0  0  0  0
  -28.6603  -17.7275   21.3071 H   0  0  0  0  0  0
  -31.9251  -20.5463   21.5000 H   0  0  0  0  0  0
  -32.7740  -16.3653   21.3979 H   0  0  0  0  0  0
  -29.0717  -23.3234   18.2459 H   0  0  0  0  0  0
  -29.9657  -24.7322   18.7739 H   0  0  0  0  0  0
  -28.3058  -24.8984   18.2185 H   0  0  0  0  0  0
  -26.8067  -22.9953   21.1807 H   0  0  0  0  0  0
  -26.9682  -22.6461   19.4703 H   0  0  0  0  0  0
  -26.2711  -24.1498   19.9978 H   0  0  0  0  0  0
  -28.7927  -21.4617   19.5682 H   0  0  0  0  0  0
  -30.4615  -21.4627   19.9336 H   0  0  0  0  0  0
  -30.4192  -23.4517   21.0028 H   0  0  0  0  0  0
  -29.1165  -23.0022   22.0382 H   0  0  0  0  0  0
  -27.6137  -25.4837   21.6923 H   0  0  0  0  0  0
  -29.3234  -25.5715   21.5670 H   0  0  0  0  0  0
  -28.1286  -19.6087   22.6791 H   0  0  0  0  0  0
  -29.2319  -15.3027   21.5830 H   0  0  0  0  0  0
  1 25  1  0  0  0
  1 30  2  0  0  0
  1 85  1  0  0  0
  2  3  1  0  0  0
  2 25  1  0  0  0
  2 87  1  0  0  0
  2 88  1  0  0  0
  3  4  1  0  0  0
  3 89  1  0  0  0
  3 90  1  0  0  0
  4  5  1  0  0  0
  4 91  1  0  0  0
  4 92  1  0  0  0
  5  6  1  0  0  0
  5 26  1  0  0  0
  5 93  1  0  0  0
  6 25  1  0  0  0
  6 94  1  0  0  0
  6 95  1  0  0  0
  7  8  2  0  0  0
  7 26  1  0  0  0
  7 29  1  0  0  0
  8  9  1  0  0  0
  8 22  1  0  0  0
  9 10  1  0  0  0
  9 27  2  0  0  0
 10 11  2  0  0  0
 10 15  1  0  0  0
 11 12  1  0  0  0
 11 96  1  0  0  0
 12 13  2  0  0  0
 12 97  1  0  0  0
 13 14  1  0  0  0
 13 31  1  0  0  0
 14 15  2  0  0  0
 14 98  1  0  0  0
 15 99  1  0  0  0
 16 17  2  0  0  0
 16 21  1  0  0  0
 16 31  1  0  0  0
 17 18  1  0  0  0
 17100  1  0  0  0
 18 19  2  0  0  0
 18101  1  0  0  0
 19 20  1  0  0  0
 19 24  1  0  0  0
 20 21  2  0  0  0
 20102  1  0  0  0
 21 23  1  0  0  0
 22 28  1  0  0  0
 22 32  2  0  0  0
 26 27  1  0  0  0
 28103  1  0  0  0
 28104  1  0  0  0
 29105  1  0  0  0
 29106  1  0  0  0
 33 34  1  0  0  0
 33 66  1  0  0  0
 33 70  2  0  0  0
 34 36  1  0  0  0
 34 59  1  0  0  0
 34107  1  0  0  0
 35 44  2  0  0  0
 35 45  1  0  0  0
 35 68  1  0  0  0
 36 56  1  0  0  0
 36108  1  0  0  0
 37 39  1  0  0  0
 37 47  1  0  0  0
 37 66  1  0  0  0
 37109  1  0  0  0
 38 43  2  0  0  0
 38 46  1  0  0  0
 38 47  1  0  0  0
 39 64  1  0  0  0
 39 67  2  0  0  0
 40 52  1  0  0  0
 40 53  2  0  0  0
 40 58  1  0  0  0
 41110  1  0  0  0
 41111  1  0  0  0
 41112  1  0  0  0
 41 48  1  0  0  0
 42 43  1  0  0  0
 42 66  1  0  0  0
 42113  1  0  0  0
 42114  1  0  0  0
 43 44  1  0  0  0
 44115  1  0  0  0
 45 46  2  0  0  0
 45116  1  0  0  0
 46117  1  0  0  0
 47118  1  0  0  0
 47119  1  0  0  0
 48 56  1  0  0  0
 48 65  1  0  0  0
 48120  1  0  0  0
 49 50  1  0  0  0
 49 53  1  0  0  0
 49 64  1  0  0  0
 49121  1  0  0  0
 50 51  1  0  0  0
 50122  1  0  0  0
 50123  1  0  0  0
 51 52  1  0  0  0
 51124  1  0  0  0
 51125  1  0  0  0
 52126  1  0  0  0
 52127  1  0  0  0
 53 54  1  0  0  0
 54 55  2  0  0  0
 54128  1  0  0  0
 55 57  1  0  0  0
 55129  1  0  0  0
 56 69  2  0  0  0
 57 58  2  0  0  0
 57130  1  0  0  0
 58131  1  0  0  0
 59 60  1  0  0  0
 59 61  1  0  0  0
 59 62  1  0  0  0
 60132  1  0  0  0
 60133  1  0  0  0
 60134  1  0  0  0
 61135  1  0  0  0
 61136  1  0  0  0
 61137  1  0  0  0
 62138  1  0  0  0
 62139  1  0  0  0
 62140  1  0  0  0
 63 65  1  0  0  0
 63141  1  0  0  0
 63142  1  0  0  0
 63143  1  0  0  0
 64144  1  0  0  0
 65145  1  0  0  0
 68 82  1  0  0  0
 71 74  2  0  0  0
 71 75  1  0  0  0
 71146  1  0  0  0
 72 74  1  0  0  0
 72 76  2  0  0  0
 72147  1  0  0  0
 73 75  2  0  0  0
 73 76  1  0  0  0
 73148  1  0  0  0
 74 77  1  0  0  0
 75 85  1  0  0  0
 76 86  1  0  0  0
 77 80  1  0  0  0
 77 84  2  0  0  0
 78149  1  0  0  0
 78150  1  0  0  0
 78151  1  0  0  0
 78 83  1  0  0  0
 79 83  1  0  0  0
 79152  1  0  0  0
 79153  1  0  0  0
 79154  1  0  0  0
 80 81  1  0  0  0
 80155  1  0  0  0
 80156  1  0  0  0
 81 83  1  0  0  0
 81157  1  0  0  0
 81158  1  0  0  0
 82 83  1  0  0  0
 82159  1  0  0  0
 82160  1  0  0  0
 84161  1  0  0  0
 85162  1  0  0  0
M  ISO  4   1 100  68 101  82 101  85 100
M  END
> <chiral flag>
0

> <version>
0

> <s_m_source_file>
/data/baiqing/PycharmProjects/Reinvent-master-3.2/result/LINK_invent/BTK/process_docking_weight1_custom_product_contain_oxygen_bond_distance_aromatic_linkinvent_7_9_3/rearranged_h_0136.sdf

> <i_m_source_file_index>
52

> <r_mmod_Potential_Energy-OPLS-2005>
-8.52656269073486

> <r_mmod_Stretch_Energy-OPLS-2005>
49.8617935180664

> <r_mmod_Bend_Energy-OPLS-2005>
108.581474304199

> <r_mmod_Torsional_Energy-OPLS-2005>
270.2275390625

> <r_mmod_Improper_Torsional_Energy-OPLS-2005>
3.07738661766052

> <r_mmod_Van_der_Waal_Energy-OPLS-2005>
159.30827331543

> <r_mmod_Electrostatic_Energy-OPLS-2005>
-409.779113769531

> <r_mmod_Solvation_Energy-OPLS-2005>
-204.756790161133

> <b_mmod_Minimization_Converged-OPLS-2005>
0

> <r_mmod_RMS_Derivative-OPLS-2005>
3.9890468120575

$$$$
52
                    3D
 Structure written by MMmdl.
164172  0  0  1  0            999 V2000
  -30.6702  -14.4992   20.6418 C   0  0  0  0  0  0
  -30.4433  -12.3445   19.4241 C   0  0  0  0  0  0
  -29.5054  -12.5375   18.2125 C   0  0  0  0  0  0
  -28.0270  -12.3792   18.6209 C   0  0  0  0  0  0
  -27.6712  -13.2045   19.8856 C   0  0  2  0  0  0
  -28.7098  -12.9490   21.0011 C   0  0  0  0  0  0
  -25.2609  -13.8137   20.5646 C   0  0  0  0  0  0
  -24.1855  -13.0425   20.9134 C   0  0  0  0  0  0
  -24.6412  -11.6892   20.8721 C   0  0  0  0  0  0
  -23.9064  -10.4287   21.0402 C   0  0  0  0  0  0
  -24.3617   -9.4201   21.9181 C   0  0  0  0  0  0
  -23.6287   -8.2244   22.0757 C   0  0  0  0  0  0
  -22.4268   -8.0283   21.3549 C   0  0  0  0  0  0
  -21.9905   -9.0254   20.4650 C   0  0  0  0  0  0
  -22.7237  -10.2128   20.3049 C   0  0  0  0  0  0
  -21.6847   -6.0731   22.5280 C   0  0  0  0  0  0
  -21.4016   -6.5634   23.8212 C   0  0  0  0  0  0
  -21.3658   -5.6787   24.9174 C   0  0  0  0  0  0
  -21.6043   -4.3050   24.7226 C   0  0  0  0  0  0
  -21.8814   -3.8141   23.4348 C   0  0  0  0  0  0
  -21.9194   -4.6961   22.3404 C   0  0  0  0  0  0
  -22.7873  -13.5234   21.1808 C   0  0  0  0  0  0
  -22.1659   -4.2139   21.0982 F   0  0  0  0  0  0
  -21.5631   -3.4536   25.7742 F   0  0  0  0  0  0
  -30.0473  -13.2938   20.4794 N   0  0  0  0  0  0
  -26.3079  -12.9317   20.3394 N   0  0  0  0  0  0
  -25.9348  -11.6473   20.5765 N   0  0  0  0  0  0
  -22.0519  -12.8240   22.0380 N   0  0  0  0  0  0
  -25.4297  -15.1853   20.4062 N   0  0  0  0  0  0
  -31.6872  -14.8168   20.0161 O   0  0  0  0  0  0
  -21.6637   -6.8877   21.4241 O   0  0  0  0  0  0
  -22.3546  -14.5543   20.6659 O   0  0  0  0  0  0
  -24.6187  -31.8631   23.2049 C   0  0  0  0  0  0
  -25.9064  -32.4787   23.8360 C   0  0  1  0  0  0
  -27.2420  -27.3872   20.0970 C   0  0  0  0  0  0
  -25.5909  -33.8588   24.2294 N   0  0  0  0  0  0
  -23.4088  -30.4845   21.5464 C   0  0  2  0  0  0
  -24.8554  -28.9411   20.1143 C   0  0  0  0  0  0
  -22.7434  -29.4631   22.4974 C   0  0  0  0  0  0
  -18.0273  -28.1366   22.8490 C   0  0  0  0  0  0
  -24.1483  -36.7296   23.2641 C   0  0  0  0  0  0
  -25.9424  -30.8123   21.3654 C   0  0  0  0  0  0
  -26.0171  -29.4426   20.7118 C   0  0  0  0  0  0
  -27.2076  -28.6731   20.6994 C   0  0  0  0  0  0
  -26.0509  -26.9040   19.5049 C   0  0  0  0  0  0
  -24.8701  -27.6730   19.5090 C   0  0  0  0  0  0
  -23.6189  -29.8120   20.1630 C   0  0  0  0  0  0
  -25.4106  -36.3086   24.0336 C   0  0  1  0  0  0
  -20.5868  -28.3652   23.1314 C   0  0  2  0  0  0
  -20.6755  -26.9386   22.5413 C   0  0  0  0  0  0
  -19.5734  -26.6377   21.5205 C   0  0  0  0  0  0
  -18.1917  -26.7913   22.1623 C   0  0  0  0  0  0
  -19.1524  -28.8829   23.2895 C   0  0  0  0  0  0
  -18.9453  -30.1438   23.8898 C   0  0  0  0  0  0
  -17.6456  -30.6577   24.0561 C   0  0  0  0  0  0
  -25.9039  -34.9454   23.5114 C   0  0  0  0  0  0
  -16.5344  -29.9072   23.6332 C   0  0  0  0  0  0
  -16.7264  -28.6489   23.0353 C   0  0  0  0  0  0
  -26.4481  -31.6583   25.0714 C   0  0  0  0  0  0
  -25.3748  -31.3703   26.1468 C   0  0  0  0  0  0
  -27.0319  -30.3019   24.6120 C   0  0  0  0  0  0
  -27.6042  -32.4317   25.7482 C   0  0  0  0  0  0
  -27.5576  -37.1801   24.8474 C   0  0  0  0  0  0
  -21.4158  -29.3019   22.3723 N   0  0  0  0  0  0
  -26.4288  -37.3779   23.9419 N   0  0  0  0  0  0
  -24.6747  -31.0704   22.0956 N   0  0  0  0  0  0
  -23.4195  -28.8186   23.3037 O   0  0  0  0  0  0
  -28.4241  -26.6550   20.1407 O   0  0  0  0  0  0
  -26.5608  -34.8920   22.4679 O   0  0  0  0  0  0
  -23.5375  -32.1407   23.7424 O   0  0  0  0  0  0
  -27.2725  -17.5344   22.1602 C   0  0  0  0  0  0
  -28.1680  -16.4588   22.2203 C   0  0  0  0  0  0
  -29.7171  -17.6734   20.7880 C   0  0  0  0  0  0
  -27.5654  -18.6800   21.3986 C   0  0  0  0  0  0
  -28.8270  -18.8021   20.7489 C   0  0  0  0  0  0
  -29.3762  -16.4801   21.4990 C   0  0  0  0  0  0
  -28.6720  -24.1248   20.2526 C   0  0  0  0  0  0
  -26.4571  -19.7140   21.2769 C   0  0  0  0  0  0
  -27.4640  -22.5077   18.7596 C   0  0  0  0  0  0
  -29.9653  -22.7685   18.5352 C   0  0  0  0  0  0
  -29.1693  -20.0587   19.8992 C   0  0  0  0  0  0
  -28.5919  -25.4248   19.3836 C   0  0  0  0  0  0
  -29.0328  -21.5094   20.5298 C   0  0  0  0  0  0
  -28.7872  -22.7242   19.5336 C   0  0  0  0  0  0
  -30.1599  -15.2787   21.6193 N   0  0  0  0  0  0
  -28.6439  -24.1973   21.4857 O   0  0  0  0  0  0
  -31.4840  -12.4785   19.1236 H   0  0  0  0  0  0
  -30.3754  -11.3233   19.8024 H   0  0  0  0  0  0
  -29.7561  -11.8237   17.4265 H   0  0  0  0  0  0
  -29.6616  -13.5285   17.7839 H   0  0  0  0  0  0
  -27.8449  -11.3205   18.8088 H   0  0  0  0  0  0
  -27.3746  -12.6559   17.7916 H   0  0  0  0  0  0
  -27.7258  -14.2590   19.6141 H   0  0  0  0  0  0
  -28.6936  -11.8970   21.2915 H   0  0  0  0  0  0
  -28.4421  -13.4924   21.9055 H   0  0  0  0  0  0
  -25.2768   -9.5671   22.4744 H   0  0  0  0  0  0
  -23.9988   -7.4638   22.7483 H   0  0  0  0  0  0
  -21.0826   -8.8775   19.8967 H   0  0  0  0  0  0
  -22.3701  -10.9661   19.6152 H   0  0  0  0  0  0
  -21.2007   -7.6143   23.9711 H   0  0  0  0  0  0
  -21.1485   -6.0520   25.9073 H   0  0  0  0  0  0
  -22.0600   -2.7604   23.2854 H   0  0  0  0  0  0
  -22.4132  -11.9902   22.4766 H   0  0  0  0  0  0
  -21.1149  -13.1287   22.2606 H   0  0  0  0  0  0
  -24.6698  -15.8421   20.5398 H   0  0  0  0  0  0
  -26.3062  -15.6372   20.1765 H   0  0  0  0  0  0
  -26.7135  -32.5487   23.1118 H   0  0  0  0  0  0
  -25.0072  -33.9738   25.0449 H   0  0  0  0  0  0
  -22.6997  -31.3024   21.4032 H   0  0  0  0  0  0
  -23.3737  -35.9638   23.3312 H   0  0  0  0  0  0
  -24.3575  -36.8900   22.2053 H   0  0  0  0  0  0
  -23.7244  -37.6507   23.6649 H   0  0  0  0  0  0
  -26.0673  -31.5755   20.5960 H   0  0  0  0  0  0
  -26.8261  -30.8625   21.9895 H   0  0  0  0  0  0
  -28.1032  -29.0601   21.1645 H   0  0  0  0  0  0
  -25.9953  -25.9251   19.0551 H   0  0  0  0  0  0
  -23.9743  -27.2741   19.0530 H   0  0  0  0  0  0
  -23.7299  -30.5836   19.4006 H   0  0  0  0  0  0
  -22.7422  -29.2322   19.8675 H   0  0  0  0  0  0
  -25.1281  -36.1936   25.0830 H   0  0  0  0  0  0
  -20.9956  -28.3195   24.1437 H   0  0  0  0  0  0
  -20.5635  -26.2258   23.3597 H   0  0  0  0  0  0
  -21.6627  -26.7409   22.1218 H   0  0  0  0  0  0
  -19.6893  -25.6294   21.1219 H   0  0  0  0  0  0
  -19.6667  -27.3201   20.6745 H   0  0  0  0  0  0
  -17.4185  -26.6666   21.4026 H   0  0  0  0  0  0
  -18.0316  -26.0045   22.9011 H   0  0  0  0  0  0
  -19.7932  -30.7253   24.2262 H   0  0  0  0  0  0
  -17.5014  -31.6259   24.5155 H   0  0  0  0  0  0
  -15.5347  -30.2975   23.7660 H   0  0  0  0  0  0
  -15.8664  -28.0814   22.7064 H   0  0  0  0  0  0
  -24.5908  -30.7057   25.7823 H   0  0  0  0  0  0
  -24.8958  -32.2861   26.4935 H   0  0  0  0  0  0
  -25.8108  -30.8866   27.0216 H   0  0  0  0  0  0
  -26.2870  -29.6774   24.1170 H   0  0  0  0  0  0
  -27.4075  -29.7266   25.4593 H   0  0  0  0  0  0
  -27.8712  -30.4333   23.9286 H   0  0  0  0  0  0
  -27.2636  -33.3601   26.2078 H   0  0  0  0  0  0
  -28.3833  -32.6902   25.0300 H   0  0  0  0  0  0
  -28.0726  -31.8435   26.5383 H   0  0  0  0  0  0
  -28.2607  -38.0086   24.7506 H   0  0  0  0  0  0
  -28.1056  -36.2618   24.6305 H   0  0  0  0  0  0
  -27.2303  -37.1460   25.8882 H   0  0  0  0  0  0
  -20.9322  -29.8740   21.6945 H   0  0  0  0  0  0
  -26.0166  -38.2860   24.1403 H   0  0  0  0  0  0
  -26.3283  -17.4541   22.6824 H   0  0  0  0  0  0
  -27.8854  -15.5940   22.8044 H   0  0  0  0  0  0
  -30.6556  -17.7179   20.2530 H   0  0  0  0  0  0
  -26.5195  -20.4511   22.0768 H   0  0  0  0  0  0
  -25.4788  -19.2383   21.3553 H   0  0  0  0  0  0
  -26.4754  -20.2229   20.3144 H   0  0  0  0  0  0
  -27.4731  -21.6057   18.1515 H   0  0  0  0  0  0
  -27.2524  -23.3197   18.0652 H   0  0  0  0  0  0
  -26.6151  -22.4354   19.4395 H   0  0  0  0  0  0
  -30.0489  -21.8360   17.9763 H   0  0  0  0  0  0
  -30.9141  -22.9253   19.0501 H   0  0  0  0  0  0
  -29.8597  -23.5610   17.7943 H   0  0  0  0  0  0
  -28.5432  -19.9718   19.0150 H   0  0  0  0  0  0
  -30.1882  -19.9494   19.5268 H   0  0  0  0  0  0
  -27.8658  -25.3182   18.5832 H   0  0  0  0  0  0
  -29.5514  -25.5194   18.8769 H   0  0  0  0  0  0
  -28.2362  -21.5343   21.2641 H   0  0  0  0  0  0
  -29.9289  -21.7031   21.1213 H   0  0  0  0  0  0
  -29.7601  -14.6703   22.3180 H   0  0  0  0  0  0
  1 25  1  0  0  0
  1 30  2  0  0  0
  1 85  1  0  0  0
  2  3  1  0  0  0
  2 25  1  0  0  0
  2 87  1  0  0  0
  2 88  1  0  0  0
  3  4  1  0  0  0
  3 89  1  0  0  0
  3 90  1  0  0  0
  4  5  1  0  0  0
  4 91  1  0  0  0
  4 92  1  0  0  0
  5  6  1  0  0  0
  5 26  1  0  0  0
  5 93  1  0  0  0
  6 25  1  0  0  0
  6 94  1  0  0  0
  6 95  1  0  0  0
  7  8  2  0  0  0
  7 26  1  0  0  0
  7 29  1  0  0  0
  8  9  1  0  0  0
  8 22  1  0  0  0
  9 10  1  0  0  0
  9 27  2  0  0  0
 10 11  2  0  0  0
 10 15  1  0  0  0
 11 12  1  0  0  0
 11 96  1  0  0  0
 12 13  2  0  0  0
 12 97  1  0  0  0
 13 14  1  0  0  0
 13 31  1  0  0  0
 14 15  2  0  0  0
 14 98  1  0  0  0
 15 99  1  0  0  0
 16 17  2  0  0  0
 16 21  1  0  0  0
 16 31  1  0  0  0
 17 18  1  0  0  0
 17100  1  0  0  0
 18 19  2  0  0  0
 18101  1  0  0  0
 19 20  1  0  0  0
 19 24  1  0  0  0
 20 21  2  0  0  0
 20102  1  0  0  0
 21 23  1  0  0  0
 22 28  1  0  0  0
 22 32  2  0  0  0
 26 27  1  0  0  0
 28103  1  0  0  0
 28104  1  0  0  0
 29105  1  0  0  0
 29106  1  0  0  0
 33 34  1  0  0  0
 33 66  1  0  0  0
 33 70  2  0  0  0
 34 36  1  0  0  0
 34 59  1  0  0  0
 34107  1  0  0  0
 35 44  2  0  0  0
 35 45  1  0  0  0
 35 68  1  0  0  0
 36 56  1  0  0  0
 36108  1  0  0  0
 37 39  1  0  0  0
 37 47  1  0  0  0
 37 66  1  0  0  0
 37109  1  0  0  0
 38 43  2  0  0  0
 38 46  1  0  0  0
 38 47  1  0  0  0
 39 64  1  0  0  0
 39 67  2  0  0  0
 40 52  1  0  0  0
 40 53  2  0  0  0
 40 58  1  0  0  0
 41110  1  0  0  0
 41111  1  0  0  0
 41112  1  0  0  0
 41 48  1  0  0  0
 42 43  1  0  0  0
 42 66  1  0  0  0
 42113  1  0  0  0
 42114  1  0  0  0
 43 44  1  0  0  0
 44115  1  0  0  0
 45 46  2  0  0  0
 45116  1  0  0  0
 46117  1  0  0  0
 47118  1  0  0  0
 47119  1  0  0  0
 48 56  1  0  0  0
 48 65  1  0  0  0
 48120  1  0  0  0
 49 50  1  0  0  0
 49 53  1  0  0  0
 49 64  1  0  0  0
 49121  1  0  0  0
 50 51  1  0  0  0
 50122  1  0  0  0
 50123  1  0  0  0
 51 52  1  0  0  0
 51124  1  0  0  0
 51125  1  0  0  0
 52126  1  0  0  0
 52127  1  0  0  0
 53 54  1  0  0  0
 54 55  2  0  0  0
 54128  1  0  0  0
 55 57  1  0  0  0
 55129  1  0  0  0
 56 69  2  0  0  0
 57 58  2  0  0  0
 57130  1  0  0  0
 58131  1  0  0  0
 59 60  1  0  0  0
 59 61  1  0  0  0
 59 62  1  0  0  0
 60132  1  0  0  0
 60133  1  0  0  0
 60134  1  0  0  0
 61135  1  0  0  0
 61136  1  0  0  0
 61137  1  0  0  0
 62138  1  0  0  0
 62139  1  0  0  0
 62140  1  0  0  0
 63 65  1  0  0  0
 63141  1  0  0  0
 63142  1  0  0  0
 63143  1  0  0  0
 64144  1  0  0  0
 65145  1  0  0  0
 68 82  1  0  0  0
 71 72  2  0  0  0
 71 74  1  0  0  0
 71146  1  0  0  0
 72 76  1  0  0  0
 72147  1  0  0  0
 73 75  1  0  0  0
 73 76  2  0  0  0
 73148  1  0  0  0
 74 75  2  0  0  0
 74 78  1  0  0  0
 75 81  1  0  0  0
 76 85  1  0  0  0
 77 82  1  0  0  0
 77 84  1  0  0  0
 77 86  2  0  0  0
 78149  1  0  0  0
 78150  1  0  0  0
 78151  1  0  0  0
 79152  1  0  0  0
 79153  1  0  0  0
 79154  1  0  0  0
 79 84  1  0  0  0
 80 84  1  0  0  0
 80155  1  0  0  0
 80156  1  0  0  0
 80157  1  0  0  0
 81 83  1  0  0  0
 81158  1  0  0  0
 81159  1  0  0  0
 82160  1  0  0  0
 82161  1  0  0  0
 83 84  1  0  0  0
 83162  1  0  0  0
 83163  1  0  0  0
 85164  1  0  0  0
M  ISO  4   1 100  68 101  82 101  85 100
M  END
> <chiral flag>
0

> <version>
0

> <s_m_source_file>
/data/baiqing/PycharmProjects/Reinvent-master-3.2/result/LINK_invent/BTK/process_docking_weight1_custom_product_contain_oxygen_bond_distance_aromatic_linkinvent_7_9_3/rearranged_h_0136.sdf

> <i_m_source_file_index>
53

> <r_mmod_Potential_Energy-OPLS-2005>
77.7473831176758

> <r_mmod_Stretch_Energy-OPLS-2005>
62.9382514953613

> <r_mmod_Bend_Energy-OPLS-2005>
140.752822875977

> <r_mmod_Torsional_Energy-OPLS-2005>
253.3115234375

> <r_mmod_Improper_Torsional_Energy-OPLS-2005>
7.36744022369385

> <r_mmod_Van_der_Waal_Energy-OPLS-2005>
145.776733398438

> <r_mmod_Electrostatic_Energy-OPLS-2005>
-335.106018066406

> <r_mmod_Solvation_Energy-OPLS-2005>
-217.633071899414

> <b_mmod_Minimization_Converged-OPLS-2005>
0

> <r_mmod_RMS_Derivative-OPLS-2005>
1.38126528263092

$$$$
53
                    3D
 Structure written by MMmdl.
167175  0  0  1  0            999 V2000
  -30.7221  -14.4930   20.5739 C   0  0  0  0  0  0
  -30.4172  -12.3249   19.4266 C   0  0  0  0  0  0
  -29.4937  -12.5126   18.2063 C   0  0  0  0  0  0
  -28.0154  -12.3714   18.6176 C   0  0  0  0  0  0
  -27.6581  -13.2173   19.8696 C   0  0  2  0  0  0
  -28.7023  -13.0292   20.9931 C   0  0  0  0  0  0
  -25.2571  -13.8186   20.5686 C   0  0  0  0  0  0
  -24.1837  -13.0444   20.9184 C   0  0  0  0  0  0
  -24.6412  -11.6914   20.8747 C   0  0  0  0  0  0
  -23.9087  -10.4297   21.0418 C   0  0  0  0  0  0
  -24.3636   -9.4208   21.9193 C   0  0  0  0  0  0
  -23.6306   -8.2246   22.0761 C   0  0  0  0  0  0
  -22.4285   -8.0293   21.3552 C   0  0  0  0  0  0
  -21.9929   -9.0269   20.4650 C   0  0  0  0  0  0
  -22.7264  -10.2142   20.3064 C   0  0  0  0  0  0
  -21.6852   -6.0751   22.5285 C   0  0  0  0  0  0
  -21.4006   -6.5650   23.8220 C   0  0  0  0  0  0
  -21.3658   -5.6800   24.9181 C   0  0  0  0  0  0
  -21.6045   -4.3065   24.7224 C   0  0  0  0  0  0
  -21.8816   -3.8161   23.4345 C   0  0  0  0  0  0
  -21.9186   -4.6979   22.3405 C   0  0  0  0  0  0
  -22.7854  -13.5231   21.1841 C   0  0  0  0  0  0
  -22.1657   -4.2170   21.0980 F   0  0  0  0  0  0
  -21.5632   -3.4544   25.7736 F   0  0  0  0  0  0
  -30.0281  -13.3293   20.4309 N   0  0  0  0  0  0
  -26.3018  -12.9376   20.3355 N   0  0  0  0  0  0
  -25.9341  -11.6526   20.5772 N   0  0  0  0  0  0
  -22.0488  -12.8229   22.0395 N   0  0  0  0  0  0
  -25.4267  -15.1909   20.4087 N   0  0  0  0  0  0
  -31.8630  -14.6332   20.1229 O   0  0  0  0  0  0
  -21.6638   -6.8895   21.4250 O   0  0  0  0  0  0
  -22.3543  -14.5535   20.6685 O   0  0  0  0  0  0
  -24.6207  -31.8679   23.2127 C   0  0  0  0  0  0
  -25.9093  -32.4826   23.8409 C   0  0  1  0  0  0
  -27.2148  -27.3836   20.0810 C   0  0  0  0  0  0
  -25.5955  -33.8628   24.2333 N   0  0  0  0  0  0
  -23.4095  -30.4990   21.5554 C   0  0  2  0  0  0
  -24.8485  -28.9748   20.1113 C   0  0  0  0  0  0
  -22.7446  -29.4672   22.4963 C   0  0  0  0  0  0
  -18.0286  -28.1396   22.8481 C   0  0  0  0  0  0
  -24.1492  -36.7320   23.2631 C   0  0  0  0  0  0
  -25.9468  -30.8171   21.3762 C   0  0  0  0  0  0
  -26.0182  -29.4528   20.7136 C   0  0  0  0  0  0
  -27.2011  -28.6668   20.6960 C   0  0  0  0  0  0
  -26.0179  -26.9603   19.4527 C   0  0  0  0  0  0
  -24.8463  -27.7274   19.4795 C   0  0  0  0  0  0
  -23.6181  -29.8505   20.1652 C   0  0  0  0  0  0
  -25.4118  -36.3108   24.0317 C   0  0  1  0  0  0
  -20.5880  -28.3704   23.1285 C   0  0  2  0  0  0
  -20.6799  -26.9440   22.5398 C   0  0  0  0  0  0
  -19.5775  -26.6400   21.5207 C   0  0  0  0  0  0
  -18.1939  -26.7949   22.1601 C   0  0  0  0  0  0
  -19.1533  -28.8864   23.2883 C   0  0  0  0  0  0
  -18.9459  -30.1462   23.8904 C   0  0  0  0  0  0
  -17.6460  -30.6597   24.0562 C   0  0  0  0  0  0
  -25.9056  -34.9474   23.5111 C   0  0  0  0  0  0
  -16.5349  -29.9098   23.6329 C   0  0  0  0  0  0
  -16.7273  -28.6516   23.0347 C   0  0  0  0  0  0
  -26.4507  -31.6612   25.0747 C   0  0  0  0  0  0
  -25.3739  -31.3716   26.1465 C   0  0  0  0  0  0
  -27.0370  -30.3055   24.6158 C   0  0  0  0  0  0
  -27.6083  -32.4348   25.7486 C   0  0  0  0  0  0
  -27.5580  -37.1798   24.8463 C   0  0  0  0  0  0
  -21.4167  -29.3064   22.3685 N   0  0  0  0  0  0
  -26.4301  -37.3793   23.9405 N   0  0  0  0  0  0
  -24.6781  -31.0751   22.1051 N   0  0  0  0  0  0
  -23.4191  -28.8177   23.3003 O   0  0  0  0  0  0
  -28.3733  -26.6017   20.1246 O   0  0  0  0  0  0
  -26.5591  -34.8912   22.4654 O   0  0  0  0  0  0
  -23.5394  -32.1458   23.7490 O   0  0  0  0  0  0
  -31.6614  -19.4085   21.9344 C   0  0  0  0  0  0
  -31.7552  -16.9745   22.1291 C   0  0  0  0  0  0
  -29.9356  -18.0335   20.9011 C   0  0  0  0  0  0
  -32.2913  -18.2446   22.4190 C   0  0  0  0  0  0
  -30.4802  -19.3236   21.1623 C   0  0  0  0  0  0
  -30.5784  -16.8496   21.3572 C   0  0  0  0  0  0
  -30.0729  -23.0918   19.8877 C   0  0  0  0  0  0
  -33.5628  -18.3633   23.2346 C   0  0  0  0  0  0
  -29.9475  -22.3909   22.3868 C   0  0  0  0  0  0
  -28.2770  -25.0237   18.2548 C   0  0  0  0  0  0
  -27.2995  -24.3790   20.5906 C   0  0  0  0  0  0
  -29.8116  -20.5806   20.5602 C   0  0  0  0  0  0
  -29.7574  -24.5753   20.2760 C   0  0  0  0  0  0
  -30.3715  -21.9969   20.9578 C   0  0  1  0  0  0
  -28.3825  -25.1691   19.7980 C   0  0  0  0  0  0
  -30.0399  -15.5493   21.0737 N   0  0  0  0  0  0
  -30.1908  -22.7932   18.6959 O   0  0  0  0  0  0
  -31.4630  -12.4118   19.1261 H   0  0  0  0  0  0
  -30.3093  -11.3205   19.8393 H   0  0  0  0  0  0
  -29.7372  -11.7840   17.4315 H   0  0  0  0  0  0
  -29.6607  -13.4968   17.7642 H   0  0  0  0  0  0
  -27.8262  -11.3162   18.8166 H   0  0  0  0  0  0
  -27.3665  -12.6440   17.7845 H   0  0  0  0  0  0
  -27.6913  -14.2617   19.5589 H   0  0  0  0  0  0
  -28.6855  -12.0025   21.3614 H   0  0  0  0  0  0
  -28.4670  -13.6554   21.8543 H   0  0  0  0  0  0
  -25.2781   -9.5672   22.4769 H   0  0  0  0  0  0
  -24.0009   -7.4633   22.7481 H   0  0  0  0  0  0
  -21.0862   -8.8801   19.8954 H   0  0  0  0  0  0
  -22.3740  -10.9689   19.6174 H   0  0  0  0  0  0
  -21.1996   -7.6156   23.9729 H   0  0  0  0  0  0
  -21.1483   -6.0530   25.9085 H   0  0  0  0  0  0
  -22.0595   -2.7623   23.2839 H   0  0  0  0  0  0
  -22.4097  -11.9885   22.4777 H   0  0  0  0  0  0
  -21.1108  -13.1263   22.2592 H   0  0  0  0  0  0
  -24.6575  -15.8444   20.5127 H   0  0  0  0  0  0
  -26.2770  -15.6317   20.0809 H   0  0  0  0  0  0
  -26.7158  -32.5508   23.1160 H   0  0  0  0  0  0
  -25.0188  -33.9815   25.0528 H   0  0  0  0  0  0
  -22.7001  -31.3183   21.4258 H   0  0  0  0  0  0
  -23.3752  -35.9656   23.3308 H   0  0  0  0  0  0
  -24.3591  -36.8936   22.2045 H   0  0  0  0  0  0
  -23.7251  -37.6520   23.6654 H   0  0  0  0  0  0
  -26.0732  -31.5844   20.6116 H   0  0  0  0  0  0
  -26.8308  -30.8622   22.0000 H   0  0  0  0  0  0
  -28.1014  -29.0322   21.1703 H   0  0  0  0  0  0
  -25.9280  -26.0288   18.9245 H   0  0  0  0  0  0
  -23.9499  -27.3570   19.0014 H   0  0  0  0  0  0
  -23.7359  -30.6365   19.4184 H   0  0  0  0  0  0
  -22.7378  -29.2847   19.8550 H   0  0  0  0  0  0
  -25.1279  -36.1976   25.0810 H   0  0  0  0  0  0
  -20.9969  -28.3289   24.1411 H   0  0  0  0  0  0
  -20.5776  -26.2297   23.3586 H   0  0  0  0  0  0
  -21.6656  -26.7532   22.1140 H   0  0  0  0  0  0
  -19.6956  -25.6315   21.1239 H   0  0  0  0  0  0
  -19.6723  -27.3202   20.6726 H   0  0  0  0  0  0
  -17.4224  -26.6705   21.3989 H   0  0  0  0  0  0
  -18.0331  -26.0077   22.8979 H   0  0  0  0  0  0
  -19.7931  -30.7269   24.2290 H   0  0  0  0  0  0
  -17.5014  -31.6274   24.5173 H   0  0  0  0  0  0
  -15.5352  -30.2994   23.7689 H   0  0  0  0  0  0
  -15.8664  -28.0846   22.7073 H   0  0  0  0  0  0
  -24.5923  -30.7077   25.7751 H   0  0  0  0  0  0
  -24.8906  -32.2865   26.4892 H   0  0  0  0  0  0
  -25.8029  -30.8857   27.0238 H   0  0  0  0  0  0
  -26.2921  -29.6765   24.1273 H   0  0  0  0  0  0
  -27.4213  -29.7344   25.4621 H   0  0  0  0  0  0
  -27.8715  -30.4383   23.9276 H   0  0  0  0  0  0
  -27.2725  -33.3657   26.2075 H   0  0  0  0  0  0
  -28.3857  -32.6925   25.0275 H   0  0  0  0  0  0
  -28.0809  -31.8488   26.5381 H   0  0  0  0  0  0
  -28.2595  -38.0101   24.7522 H   0  0  0  0  0  0
  -28.1074  -36.2624   24.6271 H   0  0  0  0  0  0
  -27.2290  -37.1434   25.8866 H   0  0  0  0  0  0
  -20.9354  -29.8780   21.6882 H   0  0  0  0  0  0
  -26.0185  -38.2859   24.1432 H   0  0  0  0  0  0
  -32.1109  -20.3641   22.1620 H   0  0  0  0  0  0
  -32.2552  -16.0906   22.5005 H   0  0  0  0  0  0
  -29.0326  -17.9542   20.3117 H   0  0  0  0  0  0
  -33.4733  -19.1586   23.9756 H   0  0  0  0  0  0
  -34.4061  -18.5959   22.5833 H   0  0  0  0  0  0
  -33.7879  -17.4362   23.7636 H   0  0  0  0  0  0
  -30.5309  -23.2345   22.7569 H   0  0  0  0  0  0
  -30.1152  -21.5710   23.0838 H   0  0  0  0  0  0
  -28.8904  -22.6515   22.4429 H   0  0  0  0  0  0
  -27.9821  -24.0137   17.9679 H   0  0  0  0  0  0
  -29.2393  -25.2268   17.7837 H   0  0  0  0  0  0
  -27.5864  -25.7061   17.7688 H   0  0  0  0  0  0
  -26.2713  -24.5771   20.3125 H   0  0  0  0  0  0
  -27.3805  -24.5792   21.6599 H   0  0  0  0  0  0
  -27.4077  -23.3022   20.4613 H   0  0  0  0  0  0
  -28.7482  -20.5430   20.8017 H   0  0  0  0  0  0
  -29.8630  -20.4475   19.4797 H   0  0  0  0  0  0
  -30.5570  -25.1800   19.8513 H   0  0  0  0  0  0
  -29.8437  -24.7115   21.3514 H   0  0  0  0  0  0
  -31.4587  -21.9359   20.9348 H   0  0  0  0  0  0
  -29.0516  -15.4143   21.2240 H   0  0  0  0  0  0
  1 25  1  0  0  0
  1 30  2  0  0  0
  1 86  1  0  0  0
  2  3  1  0  0  0
  2 25  1  0  0  0
  2 88  1  0  0  0
  2 89  1  0  0  0
  3  4  1  0  0  0
  3 90  1  0  0  0
  3 91  1  0  0  0
  4  5  1  0  0  0
  4 92  1  0  0  0
  4 93  1  0  0  0
  5  6  1  0  0  0
  5 26  1  0  0  0
  5 94  1  0  0  0
  6 25  1  0  0  0
  6 95  1  0  0  0
  6 96  1  0  0  0
  7  8  2  0  0  0
  7 26  1  0  0  0
  7 29  1  0  0  0
  8  9  1  0  0  0
  8 22  1  0  0  0
  9 10  1  0  0  0
  9 27  2  0  0  0
 10 11  2  0  0  0
 10 15  1  0  0  0
 11 12  1  0  0  0
 11 97  1  0  0  0
 12 13  2  0  0  0
 12 98  1  0  0  0
 13 14  1  0  0  0
 13 31  1  0  0  0
 14 15  2  0  0  0
 14 99  1  0  0  0
 15100  1  0  0  0
 16 17  2  0  0  0
 16 21  1  0  0  0
 16 31  1  0  0  0
 17 18  1  0  0  0
 17101  1  0  0  0
 18 19  2  0  0  0
 18102  1  0  0  0
 19 20  1  0  0  0
 19 24  1  0  0  0
 20 21  2  0  0  0
 20103  1  0  0  0
 21 23  1  0  0  0
 22 28  1  0  0  0
 22 32  2  0  0  0
 26 27  1  0  0  0
 28104  1  0  0  0
 28105  1  0  0  0
 29106  1  0  0  0
 29107  1  0  0  0
 33 34  1  0  0  0
 33 66  1  0  0  0
 33 70  2  0  0  0
 34 36  1  0  0  0
 34 59  1  0  0  0
 34108  1  0  0  0
 35 44  2  0  0  0
 35 45  1  0  0  0
 35 68  1  0  0  0
 36 56  1  0  0  0
 36109  1  0  0  0
 37 39  1  0  0  0
 37 47  1  0  0  0
 37 66  1  0  0  0
 37110  1  0  0  0
 38 43  2  0  0  0
 38 46  1  0  0  0
 38 47  1  0  0  0
 39 64  1  0  0  0
 39 67  2  0  0  0
 40 52  1  0  0  0
 40 53  2  0  0  0
 40 58  1  0  0  0
 41111  1  0  0  0
 41112  1  0  0  0
 41113  1  0  0  0
 41 48  1  0  0  0
 42 43  1  0  0  0
 42 66  1  0  0  0
 42114  1  0  0  0
 42115  1  0  0  0
 43 44  1  0  0  0
 44116  1  0  0  0
 45 46  2  0  0  0
 45117  1  0  0  0
 46118  1  0  0  0
 47119  1  0  0  0
 47120  1  0  0  0
 48 56  1  0  0  0
 48 65  1  0  0  0
 48121  1  0  0  0
 49 50  1  0  0  0
 49 53  1  0  0  0
 49 64  1  0  0  0
 49122  1  0  0  0
 50 51  1  0  0  0
 50123  1  0  0  0
 50124  1  0  0  0
 51 52  1  0  0  0
 51125  1  0  0  0
 51126  1  0  0  0
 52127  1  0  0  0
 52128  1  0  0  0
 53 54  1  0  0  0
 54 55  2  0  0  0
 54129  1  0  0  0
 55 57  1  0  0  0
 55130  1  0  0  0
 56 69  2  0  0  0
 57 58  2  0  0  0
 57131  1  0  0  0
 58132  1  0  0  0
 59 60  1  0  0  0
 59 61  1  0  0  0
 59 62  1  0  0  0
 60133  1  0  0  0
 60134  1  0  0  0
 60135  1  0  0  0
 61136  1  0  0  0
 61137  1  0  0  0
 61138  1  0  0  0
 62139  1  0  0  0
 62140  1  0  0  0
 62141  1  0  0  0
 63 65  1  0  0  0
 63142  1  0  0  0
 63143  1  0  0  0
 63144  1  0  0  0
 64145  1  0  0  0
 65146  1  0  0  0
 68 85  1  0  0  0
 71 74  2  0  0  0
 71 75  1  0  0  0
 71147  1  0  0  0
 72 74  1  0  0  0
 72 76  2  0  0  0
 72148  1  0  0  0
 73 75  2  0  0  0
 73 76  1  0  0  0
 73149  1  0  0  0
 74 78  1  0  0  0
 75 82  1  0  0  0
 76 86  1  0  0  0
 77 83  1  0  0  0
 77 84  1  0  0  0
 77 87  2  0  0  0
 78150  1  0  0  0
 78151  1  0  0  0
 78152  1  0  0  0
 79153  1  0  0  0
 79154  1  0  0  0
 79155  1  0  0  0
 79 84  1  0  0  0
 80156  1  0  0  0
 80157  1  0  0  0
 80158  1  0  0  0
 80 85  1  0  0  0
 81 85  1  0  0  0
 81159  1  0  0  0
 81160  1  0  0  0
 81161  1  0  0  0
 82 84  1  0  0  0
 82162  1  0  0  0
 82163  1  0  0  0
 83 85  1  0  0  0
 83164  1  0  0  0
 83165  1  0  0  0
 84166  1  0  0  0
 86167  1  0  0  0
M  ISO  4   1 100  68 101  85 101  86 100
M  END
> <chiral flag>
0

> <version>
0

> <s_m_source_file>
/data/baiqing/PycharmProjects/Reinvent-master-3.2/result/LINK_invent/BTK/process_docking_weight1_custom_product_contain_oxygen_bond_distance_aromatic_linkinvent_7_9_3/rearranged_h_0136.sdf

> <i_m_source_file_index>
54

> <r_mmod_Potential_Energy-OPLS-2005>
19.8751602172852

> <r_mmod_Stretch_Energy-OPLS-2005>
55.1858596801758

> <r_mmod_Bend_Energy-OPLS-2005>
126.387771606445

> <r_mmod_Torsional_Energy-OPLS-2005>
216.459320068359

> <r_mmod_Improper_Torsional_Energy-OPLS-2005>
4.57023954391479

> <r_mmod_Van_der_Waal_Energy-OPLS-2005>
173.227188110352

> <r_mmod_Electrostatic_Energy-OPLS-2005>
-367.216827392578

> <r_mmod_Solvation_Energy-OPLS-2005>
-209.936584472656

> <b_mmod_Minimization_Converged-OPLS-2005>
0

> <r_mmod_RMS_Derivative-OPLS-2005>
1.77635562419891

$$$$
54
                    3D
 Structure written by MMmdl.
161169  0  0  1  0            999 V2000
  -30.5915  -14.6970   20.4858 C   0  0  0  0  0  0
  -30.4371  -12.4234   19.4673 C   0  0  0  0  0  0
  -29.5105  -12.5064   18.2325 C   0  0  0  0  0  0
  -28.0348  -12.3383   18.6439 C   0  0  0  0  0  0
  -27.6474  -13.2193   19.8600 C   0  0  2  0  0  0
  -28.6906  -13.1029   20.9944 C   0  0  0  0  0  0
  -25.2520  -13.8147   20.5668 C   0  0  0  0  0  0
  -24.1816  -13.0428   20.9236 C   0  0  0  0  0  0
  -24.6382  -11.6900   20.8737 C   0  0  0  0  0  0
  -23.9050  -10.4286   21.0392 C   0  0  0  0  0  0
  -24.3600   -9.4207   21.9182 C   0  0  0  0  0  0
  -23.6279   -8.2241   22.0766 C   0  0  0  0  0  0
  -22.4268   -8.0258   21.3543 C   0  0  0  0  0  0
  -21.9894   -9.0240   20.4653 C   0  0  0  0  0  0
  -22.7214  -10.2118   20.3053 C   0  0  0  0  0  0
  -21.6847   -6.0710   22.5271 C   0  0  0  0  0  0
  -21.4005   -6.5621   23.8199 C   0  0  0  0  0  0
  -21.3663   -5.6781   24.9168 C   0  0  0  0  0  0
  -21.6055   -4.3048   24.7227 C   0  0  0  0  0  0
  -21.8819   -3.8126   23.4355 C   0  0  0  0  0  0
  -21.9194   -4.6938   22.3400 C   0  0  0  0  0  0
  -22.7839  -13.5225   21.1887 C   0  0  0  0  0  0
  -22.1663   -4.2122   21.0979 F   0  0  0  0  0  0
  -21.5643   -3.4535   25.7749 F   0  0  0  0  0  0
  -29.9973  -13.4596   20.4266 N   0  0  0  0  0  0
  -26.2959  -12.9344   20.3285 N   0  0  0  0  0  0
  -25.9315  -11.6499   20.5759 N   0  0  0  0  0  0
  -22.0471  -12.8228   22.0407 N   0  0  0  0  0  0
  -25.4179  -15.1860   20.4020 N   0  0  0  0  0  0
  -31.7689  -14.8310   20.1327 O   0  0  0  0  0  0
  -21.6630   -6.8853   21.4233 O   0  0  0  0  0  0
  -22.3536  -14.5555   20.6730 O   0  0  0  0  0  0
  -24.6305  -31.8578   23.2034 C   0  0  0  0  0  0
  -25.9156  -32.4763   23.8349 C   0  0  1  0  0  0
  -27.2079  -27.2704   20.1441 C   0  0  0  0  0  0
  -25.5961  -33.8567   24.2257 N   0  0  0  0  0  0
  -23.4250  -30.4823   21.5480 C   0  0  2  0  0  0
  -24.8694  -28.9250   20.1209 C   0  0  0  0  0  0
  -22.7500  -29.4633   22.4967 C   0  0  0  0  0  0
  -18.0282  -28.1382   22.8476 C   0  0  0  0  0  0
  -24.1483  -36.7268   23.2635 C   0  0  0  0  0  0
  -25.9707  -30.7689   21.3894 C   0  0  0  0  0  0
  -26.0393  -29.3911   20.7361 C   0  0  0  0  0  0
  -27.2131  -28.5720   20.7439 C   0  0  0  0  0  0
  -26.0360  -26.8897   19.4687 C   0  0  0  0  0  0
  -24.8698  -27.6788   19.4769 C   0  0  0  0  0  0
  -23.6429  -29.8166   20.1645 C   0  0  0  0  0  0
  -25.4117  -36.3070   24.0321 C   0  0  1  0  0  0
  -20.5876  -28.3692   23.1296 C   0  0  2  0  0  0
  -20.6789  -26.9416   22.5427 C   0  0  0  0  0  0
  -19.5755  -26.6376   21.5234 C   0  0  0  0  0  0
  -18.1909  -26.7916   22.1618 C   0  0  0  0  0  0
  -19.1531  -28.8855   23.2859 C   0  0  0  0  0  0
  -18.9463  -30.1450   23.8886 C   0  0  0  0  0  0
  -17.6469  -30.6593   24.0556 C   0  0  0  0  0  0
  -25.9064  -34.9445   23.5081 C   0  0  0  0  0  0
  -16.5363  -29.9088   23.6345 C   0  0  0  0  0  0
  -16.7279  -28.6511   23.0368 C   0  0  0  0  0  0
  -26.4518  -31.6594   25.0739 C   0  0  0  0  0  0
  -25.3730  -31.3768   26.1458 C   0  0  0  0  0  0
  -27.0397  -30.3011   24.6277 C   0  0  0  0  0  0
  -27.6066  -32.4358   25.7506 C   0  0  0  0  0  0
  -27.5581  -37.1789   24.8454 C   0  0  0  0  0  0
  -21.4209  -29.3053   22.3700 N   0  0  0  0  0  0
  -26.4287  -37.3784   23.9414 N   0  0  0  0  0  0
  -24.6938  -31.0540   22.1024 N   0  0  0  0  0  0
  -23.4214  -28.8186   23.3062 O   0  0  0  0  0  0
  -28.3024  -26.3869   20.1382 O   0  0  0  0  0  0
  -26.5629  -34.8897   22.4644 O   0  0  0  0  0  0
  -23.5473  -32.1426   23.7351 O   0  0  0  0  0  0
  -30.6597  -19.5020   19.9099 C   0  0  0  0  0  0
  -28.9340  -18.1967   20.7508 C   0  0  0  0  0  0
  -29.3438  -19.5446   20.2988 C   0  0  0  0  0  0
  -29.8836  -17.1561   20.5946 C   0  0  0  0  0  0
  -27.5747  -17.9551   21.2417 C   0  0  0  0  0  0
  -27.4661  -17.3112   22.6195 C   0  0  0  0  0  0
  -26.6143  -23.2546   19.8329 C   0  0  0  0  0  0
  -28.7524  -23.8121   18.6182 C   0  0  0  0  0  0
  -28.4584  -20.8389   20.0981 C   0  0  0  0  0  0
  -28.8118  -22.3057   20.6761 C   0  0  0  0  0  0
  -28.2164  -25.0332   20.7897 C   0  0  0  0  0  0
  -28.1102  -23.6134   19.9984 C   0  0  0  0  0  0
  -29.7671  -15.7662   20.7911 N   0  0  0  0  0  0
  -26.5369  -18.2815   20.6581 O   0  0  0  0  0  0
  -31.3648  -17.9023   20.0178 S   0  0  0  0  0  0
  -31.4791  -12.5532   19.1689 H   0  0  0  0  0  0
  -30.3814  -11.4348   19.9274 H   0  0  0  0  0  0
  -29.7835  -11.7403   17.5065 H   0  0  0  0  0  0
  -29.6449  -13.4660   17.7298 H   0  0  0  0  0  0
  -27.8874  -11.2868   18.8915 H   0  0  0  0  0  0
  -27.3775  -12.5491   17.7994 H   0  0  0  0  0  0
  -27.6572  -14.2482   19.5005 H   0  0  0  0  0  0
  -28.7178  -12.0871   21.3937 H   0  0  0  0  0  0
  -28.4323  -13.7501   21.8339 H   0  0  0  0  0  0
  -25.2745   -9.5689   22.4754 H   0  0  0  0  0  0
  -23.9978   -7.4641   22.7501 H   0  0  0  0  0  0
  -21.0818   -8.8756   19.8964 H   0  0  0  0  0  0
  -22.3675  -10.9655   19.6160 H   0  0  0  0  0  0
  -21.1981   -7.6125   23.9692 H   0  0  0  0  0  0
  -21.1496   -6.0517   25.9071 H   0  0  0  0  0  0
  -22.0593   -2.7589   23.2868 H   0  0  0  0  0  0
  -22.4085  -11.9891   22.4810 H   0  0  0  0  0  0
  -21.1093  -13.1260   22.2621 H   0  0  0  0  0  0
  -24.6361  -15.8253   20.5028 H   0  0  0  0  0  0
  -26.2178  -15.6167   19.9606 H   0  0  0  0  0  0
  -26.7239  -32.5423   23.1094 H   0  0  0  0  0  0
  -25.0170  -33.9696   25.0449 H   0  0  0  0  0  0
  -22.7208  -31.3034   21.4028 H   0  0  0  0  0  0
  -23.3769  -35.9579   23.3273 H   0  0  0  0  0  0
  -24.3593  -36.8935   22.2056 H   0  0  0  0  0  0
  -23.7199  -37.6438   23.6706 H   0  0  0  0  0  0
  -26.1187  -31.5347   20.6285 H   0  0  0  0  0  0
  -26.8447  -30.8103   22.0268 H   0  0  0  0  0  0
  -28.1096  -28.9174   21.2350 H   0  0  0  0  0  0
  -26.0294  -25.9833   18.8933 H   0  0  0  0  0  0
  -23.9850  -27.3261   18.9635 H   0  0  0  0  0  0
  -23.7721  -30.5956   19.4124 H   0  0  0  0  0  0
  -22.7611  -29.2549   19.8506 H   0  0  0  0  0  0
  -25.1291  -36.1903   25.0825 H   0  0  0  0  0  0
  -20.9943  -28.3282   24.1424 H   0  0  0  0  0  0
  -20.5731  -26.2301   23.3624 H   0  0  0  0  0  0
  -21.6647  -26.7485   22.1189 H   0  0  0  0  0  0
  -19.6931  -25.6291   21.1272 H   0  0  0  0  0  0
  -19.6698  -27.3170   20.6741 H   0  0  0  0  0  0
  -17.4194  -26.6701   21.3972 H   0  0  0  0  0  0
  -18.0279  -26.0035   22.8992 H   0  0  0  0  0  0
  -19.7945  -30.7252   24.2275 H   0  0  0  0  0  0
  -17.5024  -31.6276   24.5138 H   0  0  0  0  0  0
  -15.5361  -30.2985   23.7684 H   0  0  0  0  0  0
  -15.8672  -28.0838   22.7108 H   0  0  0  0  0  0
  -24.5897  -30.7129   25.7766 H   0  0  0  0  0  0
  -24.8914  -32.2933   26.4865 H   0  0  0  0  0  0
  -25.7990  -30.8946   27.0254 H   0  0  0  0  0  0
  -26.3004  -29.6713   24.1309 H   0  0  0  0  0  0
  -27.4070  -29.7330   25.4834 H   0  0  0  0  0  0
  -27.8876  -30.4273   23.9545 H   0  0  0  0  0  0
  -27.2704  -33.3717   26.1979 H   0  0  0  0  0  0
  -28.3909  -32.6832   25.0330 H   0  0  0  0  0  0
  -28.0691  -31.8546   26.5492 H   0  0  0  0  0  0
  -28.2573  -38.0107   24.7583 H   0  0  0  0  0  0
  -28.1104  -36.2657   24.6202 H   0  0  0  0  0  0
  -27.2311  -37.1331   25.8853 H   0  0  0  0  0  0
  -20.9409  -29.8760   21.6874 H   0  0  0  0  0  0
  -26.0154  -38.2850   24.1466 H   0  0  0  0  0  0
  -31.2628  -20.3097   19.5088 H   0  0  0  0  0  0
  -26.9904  -16.3345   22.5416 H   0  0  0  0  0  0
  -26.8548  -17.9405   23.2661 H   0  0  0  0  0  0
  -28.4450  -17.1968   23.0872 H   0  0  0  0  0  0
  -26.4647  -22.4184   19.1483 H   0  0  0  0  0  0
  -26.0140  -24.0647   19.4418 H   0  0  0  0  0  0
  -26.1731  -22.9796   20.7927 H   0  0  0  0  0  0
  -28.5158  -23.0002   17.9302 H   0  0  0  0  0  0
  -29.8368  -23.8630   18.7052 H   0  0  0  0  0  0
  -28.4159  -24.7368   18.1506 H   0  0  0  0  0  0
  -27.4438  -20.6367   20.4345 H   0  0  0  0  0  0
  -28.3464  -20.9521   19.0196 H   0  0  0  0  0  0
  -29.8924  -22.4387   20.6398 H   0  0  0  0  0  0
  -28.5699  -22.2965   21.7402 H   0  0  0  0  0  0
  -29.1366  -24.9724   21.3715 H   0  0  0  0  0  0
  -27.4340  -25.0676   21.5509 H   0  0  0  0  0  0
  -28.8622  -15.4503   21.1001 H   0  0  0  0  0  0
  1 25  1  0  0  0
  1 30  2  0  0  0
  1 83  1  0  0  0
  2  3  1  0  0  0
  2 25  1  0  0  0
  2 86  1  0  0  0
  2 87  1  0  0  0
  3  4  1  0  0  0
  3 88  1  0  0  0
  3 89  1  0  0  0
  4  5  1  0  0  0
  4 90  1  0  0  0
  4 91  1  0  0  0
  5  6  1  0  0  0
  5 26  1  0  0  0
  5 92  1  0  0  0
  6 25  1  0  0  0
  6 93  1  0  0  0
  6 94  1  0  0  0
  7  8  2  0  0  0
  7 26  1  0  0  0
  7 29  1  0  0  0
  8  9  1  0  0  0
  8 22  1  0  0  0
  9 10  1  0  0  0
  9 27  2  0  0  0
 10 11  2  0  0  0
 10 15  1  0  0  0
 11 12  1  0  0  0
 11 95  1  0  0  0
 12 13  2  0  0  0
 12 96  1  0  0  0
 13 14  1  0  0  0
 13 31  1  0  0  0
 14 15  2  0  0  0
 14 97  1  0  0  0
 15 98  1  0  0  0
 16 17  2  0  0  0
 16 21  1  0  0  0
 16 31  1  0  0  0
 17 18  1  0  0  0
 17 99  1  0  0  0
 18 19  2  0  0  0
 18100  1  0  0  0
 19 20  1  0  0  0
 19 24  1  0  0  0
 20 21  2  0  0  0
 20101  1  0  0  0
 21 23  1  0  0  0
 22 28  1  0  0  0
 22 32  2  0  0  0
 26 27  1  0  0  0
 28102  1  0  0  0
 28103  1  0  0  0
 29104  1  0  0  0
 29105  1  0  0  0
 33 34  1  0  0  0
 33 66  1  0  0  0
 33 70  2  0  0  0
 34 36  1  0  0  0
 34 59  1  0  0  0
 34106  1  0  0  0
 35 44  2  0  0  0
 35 45  1  0  0  0
 35 68  1  0  0  0
 36 56  1  0  0  0
 36107  1  0  0  0
 37 39  1  0  0  0
 37 47  1  0  0  0
 37 66  1  0  0  0
 37108  1  0  0  0
 38 43  2  0  0  0
 38 46  1  0  0  0
 38 47  1  0  0  0
 39 64  1  0  0  0
 39 67  2  0  0  0
 40 52  1  0  0  0
 40 53  2  0  0  0
 40 58  1  0  0  0
 41109  1  0  0  0
 41110  1  0  0  0
 41111  1  0  0  0
 41 48  1  0  0  0
 42 43  1  0  0  0
 42 66  1  0  0  0
 42112  1  0  0  0
 42113  1  0  0  0
 43 44  1  0  0  0
 44114  1  0  0  0
 45 46  2  0  0  0
 45115  1  0  0  0
 46116  1  0  0  0
 47117  1  0  0  0
 47118  1  0  0  0
 48 56  1  0  0  0
 48 65  1  0  0  0
 48119  1  0  0  0
 49 50  1  0  0  0
 49 53  1  0  0  0
 49 64  1  0  0  0
 49120  1  0  0  0
 50 51  1  0  0  0
 50121  1  0  0  0
 50122  1  0  0  0
 51 52  1  0  0  0
 51123  1  0  0  0
 51124  1  0  0  0
 52125  1  0  0  0
 52126  1  0  0  0
 53 54  1  0  0  0
 54 55  2  0  0  0
 54127  1  0  0  0
 55 57  1  0  0  0
 55128  1  0  0  0
 56 69  2  0  0  0
 57 58  2  0  0  0
 57129  1  0  0  0
 58130  1  0  0  0
 59 60  1  0  0  0
 59 61  1  0  0  0
 59 62  1  0  0  0
 60131  1  0  0  0
 60132  1  0  0  0
 60133  1  0  0  0
 61134  1  0  0  0
 61135  1  0  0  0
 61136  1  0  0  0
 62137  1  0  0  0
 62138  1  0  0  0
 62139  1  0  0  0
 63 65  1  0  0  0
 63140  1  0  0  0
 63141  1  0  0  0
 63142  1  0  0  0
 64143  1  0  0  0
 65144  1  0  0  0
 68 81  1  0  0  0
 71 73  2  0  0  0
 71 85  1  0  0  0
 71145  1  0  0  0
 72 73  1  0  0  0
 72 74  2  0  0  0
 72 75  1  0  0  0
 73 79  1  0  0  0
 74 83  1  0  0  0
 74 85  1  0  0  0
 75 76  1  0  0  0
 75 84  2  0  0  0
 76146  1  0  0  0
 76147  1  0  0  0
 76148  1  0  0  0
 77149  1  0  0  0
 77150  1  0  0  0
 77151  1  0  0  0
 77 82  1  0  0  0
 78 82  1  0  0  0
 78152  1  0  0  0
 78153  1  0  0  0
 78154  1  0  0  0
 79 80  1  0  0  0
 79155  1  0  0  0
 79156  1  0  0  0
 80 82  1  0  0  0
 80157  1  0  0  0
 80158  1  0  0  0
 81 82  1  0  0  0
 81159  1  0  0  0
 81160  1  0  0  0
 83161  1  0  0  0
M  ISO  4   1 100  68 101  81 101  83 100
M  END
> <chiral flag>
0

> <version>
0

> <s_m_source_file>
/data/baiqing/PycharmProjects/Reinvent-master-3.2/result/LINK_invent/BTK/process_docking_weight1_custom_product_contain_oxygen_bond_distance_aromatic_linkinvent_7_9_3/rearranged_h_0136.sdf

> <i_m_source_file_index>
55

> <r_mmod_Potential_Energy-OPLS-2005>
232.372863769531

> <r_mmod_Stretch_Energy-OPLS-2005>
116.249504089355

> <r_mmod_Bend_Energy-OPLS-2005>
177.25553894043

> <r_mmod_Torsional_Energy-OPLS-2005>
289.065521240234

> <r_mmod_Improper_Torsional_Energy-OPLS-2005>
5.6069598197937

> <r_mmod_Van_der_Waal_Energy-OPLS-2005>
115.634605407715

> <r_mmod_Electrostatic_Energy-OPLS-2005>
-333.919128417969

> <r_mmod_Solvation_Energy-OPLS-2005>
-207.500762939453

> <b_mmod_Minimization_Converged-OPLS-2005>
0

> <r_mmod_RMS_Derivative-OPLS-2005>
3.8767101764679

$$$$
55
                    3D
 Structure written by MMmdl.
163171  0  0  1  0            999 V2000
  -30.5742  -14.7944   20.4375 C   0  0  0  0  0  0
  -30.4418  -12.4725   19.4984 C   0  0  0  0  0  0
  -29.5198  -12.4724   18.2569 C   0  0  0  0  0  0
  -28.0402  -12.3246   18.6634 C   0  0  0  0  0  0
  -27.6428  -13.2273   19.8625 C   0  0  2  0  0  0
  -28.6866  -13.1731   20.9987 C   0  0  0  0  0  0
  -25.2519  -13.8175   20.5710 C   0  0  0  0  0  0
  -24.1808  -13.0431   20.9222 C   0  0  0  0  0  0
  -24.6398  -11.6907   20.8780 C   0  0  0  0  0  0
  -23.9070  -10.4284   21.0435 C   0  0  0  0  0  0
  -24.3622   -9.4195   21.9209 C   0  0  0  0  0  0
  -23.6291   -8.2234   22.0767 C   0  0  0  0  0  0
  -22.4271   -8.0281   21.3550 C   0  0  0  0  0  0
  -21.9915   -9.0259   20.4654 C   0  0  0  0  0  0
  -22.7246  -10.2139   20.3074 C   0  0  0  0  0  0
  -21.6851   -6.0737   22.5279 C   0  0  0  0  0  0
  -21.4009   -6.5640   23.8207 C   0  0  0  0  0  0
  -21.3658   -5.6793   24.9173 C   0  0  0  0  0  0
  -21.6044   -4.3054   24.7223 C   0  0  0  0  0  0
  -21.8814   -3.8147   23.4340 C   0  0  0  0  0  0
  -21.9191   -4.6966   22.3400 C   0  0  0  0  0  0
  -22.7823  -13.5228   21.1859 C   0  0  0  0  0  0
  -22.1661   -4.2150   21.0978 F   0  0  0  0  0  0
  -21.5632   -3.4539   25.7737 F   0  0  0  0  0  0
  -29.9836  -13.5438   20.4199 N   0  0  0  0  0  0
  -26.2954  -12.9369   20.3359 N   0  0  0  0  0  0
  -25.9335  -11.6521   20.5826 N   0  0  0  0  0  0
  -22.0457  -12.8232   22.0414 N   0  0  0  0  0  0
  -25.4220  -15.1901   20.4101 N   0  0  0  0  0  0
  -31.7480  -14.9068   20.0708 O   0  0  0  0  0  0
  -21.6634   -6.8885   21.4240 O   0  0  0  0  0  0
  -22.3527  -14.5535   20.6703 O   0  0  0  0  0  0
  -24.6335  -31.8554   23.2017 C   0  0  0  0  0  0
  -25.9157  -32.4758   23.8352 C   0  0  1  0  0  0
  -27.2060  -27.2317   20.1627 C   0  0  0  0  0  0
  -25.5933  -33.8556   24.2258 N   0  0  0  0  0  0
  -23.4303  -30.4768   21.5475 C   0  0  2  0  0  0
  -24.8753  -28.9172   20.1195 C   0  0  0  0  0  0
  -22.7527  -29.4602   22.4972 C   0  0  0  0  0  0
  -18.0344  -28.1343   22.8510 C   0  0  0  0  0  0
  -24.1489  -36.7281   23.2642 C   0  0  0  0  0  0
  -25.9773  -30.7551   21.3903 C   0  0  0  0  0  0
  -26.0447  -29.3721   20.7428 C   0  0  0  0  0  0
  -27.2123  -28.5390   20.7596 C   0  0  0  0  0  0
  -26.0417  -26.8810   19.4552 C   0  0  0  0  0  0
  -24.8790  -27.6769   19.4633 C   0  0  0  0  0  0
  -23.6489  -29.8096   20.1642 C   0  0  0  0  0  0
  -25.4117  -36.3076   24.0329 C   0  0  1  0  0  0
  -20.5934  -28.3681   23.1320 C   0  0  2  0  0  0
  -20.6840  -26.9414   22.5420 C   0  0  0  0  0  0
  -19.5820  -26.6442   21.5195 C   0  0  0  0  0  0
  -18.2009  -26.7898   22.1634 C   0  0  0  0  0  0
  -19.1581  -28.8827   23.2909 C   0  0  0  0  0  0
  -18.9488  -30.1433   23.8903 C   0  0  0  0  0  0
  -17.6483  -30.6569   24.0520 C   0  0  0  0  0  0
  -25.9057  -34.9441   23.5098 C   0  0  0  0  0  0
  -16.5387  -29.9041   23.6302 C   0  0  0  0  0  0
  -16.7327  -28.6438   23.0380 C   0  0  0  0  0  0
  -26.4507  -31.6591   25.0749 C   0  0  0  0  0  0
  -25.3717  -31.3745   26.1459 C   0  0  0  0  0  0
  -27.0355  -30.3003   24.6256 C   0  0  0  0  0  0
  -27.6056  -32.4345   25.7514 C   0  0  0  0  0  0
  -27.5576  -37.1792   24.8465 C   0  0  0  0  0  0
  -21.4237  -29.3044   22.3723 N   0  0  0  0  0  0
  -26.4295  -37.3770   23.9408 N   0  0  0  0  0  0
  -24.6995  -31.0500   22.1010 N   0  0  0  0  0  0
  -23.4223  -28.8132   23.3062 O   0  0  0  0  0  0
  -28.2973  -26.3318   20.1554 O   0  0  0  0  0  0
  -26.5640  -34.8921   22.4673 O   0  0  0  0  0  0
  -23.5487  -32.1377   23.7313 O   0  0  0  0  0  0
  -29.1473  -18.6083   18.0873 C   0  0  0  0  0  0
  -29.0436  -19.8060   18.8140 C   0  0  0  0  0  0
  -29.5780  -18.5511   20.8239 C   0  0  0  0  0  0
  -29.4565  -17.3717   18.6969 C   0  0  0  0  0  0
  -29.6685  -17.2733   20.1040 C   0  0  0  0  0  0
  -29.2738  -19.8437   20.1971 C   0  0  0  0  0  0
  -29.5041  -16.1678   17.7758 C   0  0  0  0  0  0
  -25.4526  -22.8942   19.1404 C   0  0  0  0  0  0
  -28.3132  -23.5332   18.7161 C   0  0  0  0  0  0
  -26.2512  -23.5742   20.2697 C   0  0  0  0  0  0
  -28.2896  -24.9666   20.8352 C   0  0  0  0  0  0
  -28.1440  -22.0636   20.8767 C   0  0  0  0  0  0
  -27.8172  -23.5368   20.1739 C   0  0  2  0  0  0
  -29.7957  -15.9158   20.7434 N   0  0  0  0  0  0
  -29.3226  -21.1420   20.8006 O   0  0  0  0  0  0
  -31.4793  -12.6095   19.1894 H   0  0  0  0  0  0
  -30.4090  -11.5035   19.9999 H   0  0  0  0  0  0
  -29.7975  -11.6578   17.5870 H   0  0  0  0  0  0
  -29.6657  -13.3866   17.6839 H   0  0  0  0  0  0
  -27.8831  -11.2788   18.9304 H   0  0  0  0  0  0
  -27.3890  -12.5196   17.8103 H   0  0  0  0  0  0
  -27.6257  -14.2486   19.4911 H   0  0  0  0  0  0
  -28.7324  -12.1741   21.4366 H   0  0  0  0  0  0
  -28.4117  -13.8482   21.8099 H   0  0  0  0  0  0
  -25.2768   -9.5657   22.4796 H   0  0  0  0  0  0
  -23.9985   -7.4618   22.7486 H   0  0  0  0  0  0
  -21.0841   -8.8783   19.8962 H   0  0  0  0  0  0
  -22.3709  -10.9685   19.6187 H   0  0  0  0  0  0
  -21.1994   -7.6148   23.9705 H   0  0  0  0  0  0
  -21.1495   -6.0533   25.9075 H   0  0  0  0  0  0
  -22.0596   -2.7609   23.2842 H   0  0  0  0  0  0
  -22.4061  -11.9893   22.4805 H   0  0  0  0  0  0
  -21.1094  -13.1295   22.2635 H   0  0  0  0  0  0
  -24.6491  -15.8404   20.5022 H   0  0  0  0  0  0
  -26.2715  -15.6290   20.0797 H   0  0  0  0  0  0
  -26.7214  -32.5404   23.1087 H   0  0  0  0  0  0
  -25.0048  -33.9675   25.0382 H   0  0  0  0  0  0
  -22.7278  -31.3005   21.4029 H   0  0  0  0  0  0
  -23.3763  -35.9602   23.3315 H   0  0  0  0  0  0
  -24.3584  -36.8897   22.2054 H   0  0  0  0  0  0
  -23.7219  -37.6472   23.6663 H   0  0  0  0  0  0
  -26.1208  -31.5072   20.6142 H   0  0  0  0  0  0
  -26.8549  -30.8027   22.0242 H   0  0  0  0  0  0
  -28.1067  -28.8810   21.2604 H   0  0  0  0  0  0
  -26.0290  -25.9690   18.8794 H   0  0  0  0  0  0
  -23.9957  -27.3344   18.9414 H   0  0  0  0  0  0
  -23.7774  -30.5845   19.4087 H   0  0  0  0  0  0
  -22.7657  -29.2469   19.8583 H   0  0  0  0  0  0
  -25.1299  -36.1928   25.0821 H   0  0  0  0  0  0
  -21.0019  -28.3234   24.1439 H   0  0  0  0  0  0
  -20.5734  -26.2275   23.3589 H   0  0  0  0  0  0
  -21.6713  -26.7456   22.1207 H   0  0  0  0  0  0
  -19.7020  -25.6411   21.1085 H   0  0  0  0  0  0
  -19.6727  -27.3377   20.6820 H   0  0  0  0  0  0
  -17.4274  -26.6667   21.4043 H   0  0  0  0  0  0
  -18.0441  -26.0003   22.9003 H   0  0  0  0  0  0
  -19.7960  -30.7244   24.2276 H   0  0  0  0  0  0
  -17.5048  -31.6265   24.5090 H   0  0  0  0  0  0
  -15.5373  -30.2914   23.7595 H   0  0  0  0  0  0
  -15.8744  -28.0724   22.7113 H   0  0  0  0  0  0
  -24.5895  -30.7095   25.7782 H   0  0  0  0  0  0
  -24.8912  -32.2914   26.4878 H   0  0  0  0  0  0
  -25.8020  -30.8916   27.0241 H   0  0  0  0  0  0
  -26.2945  -29.6762   24.1248 H   0  0  0  0  0  0
  -27.3979  -29.7255   25.4791 H   0  0  0  0  0  0
  -27.8858  -30.4276   23.9553 H   0  0  0  0  0  0
  -27.2650  -33.3646   26.2074 H   0  0  0  0  0  0
  -28.3857  -32.6902   25.0332 H   0  0  0  0  0  0
  -28.0732  -31.8486   26.5431 H   0  0  0  0  0  0
  -28.2600  -38.0082   24.7520 H   0  0  0  0  0  0
  -28.1059  -36.2616   24.6291 H   0  0  0  0  0  0
  -27.2298  -37.1451   25.8866 H   0  0  0  0  0  0
  -20.9425  -29.8785   21.6950 H   0  0  0  0  0  0
  -26.0185  -38.2851   24.1392 H   0  0  0  0  0  0
  -28.9811  -18.6560   17.0200 H   0  0  0  0  0  0
  -28.8349  -20.7163   18.2757 H   0  0  0  0  0  0
  -29.7497  -18.5402   21.8903 H   0  0  0  0  0  0
  -29.3112  -16.4467   16.7407 H   0  0  0  0  0  0
  -28.7434  -15.4453   18.0553 H   0  0  0  0  0  0
  -30.4849  -15.6944   17.7974 H   0  0  0  0  0  0
  -24.3838  -22.9287   19.3522 H   0  0  0  0  0  0
  -25.7242  -21.8453   19.0222 H   0  0  0  0  0  0
  -25.6029  -23.3922   18.1833 H   0  0  0  0  0  0
  -28.0093  -24.4396   18.1909 H   0  0  0  0  0  0
  -27.9223  -22.6895   18.1509 H   0  0  0  0  0  0
  -29.4013  -23.4751   18.6719 H   0  0  0  0  0  0
  -25.8747  -24.5787   20.3957 H   0  0  0  0  0  0
  -25.9406  -23.1237   21.2139 H   0  0  0  0  0  0
  -27.7839  -25.0915   21.7936 H   0  0  0  0  0  0
  -29.3320  -24.8160   21.1155 H   0  0  0  0  0  0
  -27.3202  -21.3961   20.6230 H   0  0  0  0  0  0
  -28.0136  -22.2226   21.9468 H   0  0  0  0  0  0
  -28.9918  -15.6715   21.3034 H   0  0  0  0  0  0
  1 25  1  0  0  0
  1 30  2  0  0  0
  1 84  1  0  0  0
  2  3  1  0  0  0
  2 25  1  0  0  0
  2 86  1  0  0  0
  2 87  1  0  0  0
  3  4  1  0  0  0
  3 88  1  0  0  0
  3 89  1  0  0  0
  4  5  1  0  0  0
  4 90  1  0  0  0
  4 91  1  0  0  0
  5  6  1  0  0  0
  5 26  1  0  0  0
  5 92  1  0  0  0
  6 25  1  0  0  0
  6 93  1  0  0  0
  6 94  1  0  0  0
  7  8  2  0  0  0
  7 26  1  0  0  0
  7 29  1  0  0  0
  8  9  1  0  0  0
  8 22  1  0  0  0
  9 10  1  0  0  0
  9 27  2  0  0  0
 10 11  2  0  0  0
 10 15  1  0  0  0
 11 12  1  0  0  0
 11 95  1  0  0  0
 12 13  2  0  0  0
 12 96  1  0  0  0
 13 14  1  0  0  0
 13 31  1  0  0  0
 14 15  2  0  0  0
 14 97  1  0  0  0
 15 98  1  0  0  0
 16 17  2  0  0  0
 16 21  1  0  0  0
 16 31  1  0  0  0
 17 18  1  0  0  0
 17 99  1  0  0  0
 18 19  2  0  0  0
 18100  1  0  0  0
 19 20  1  0  0  0
 19 24  1  0  0  0
 20 21  2  0  0  0
 20101  1  0  0  0
 21 23  1  0  0  0
 22 28  1  0  0  0
 22 32  2  0  0  0
 26 27  1  0  0  0
 28102  1  0  0  0
 28103  1  0  0  0
 29104  1  0  0  0
 29105  1  0  0  0
 33 34  1  0  0  0
 33 66  1  0  0  0
 33 70  2  0  0  0
 34 36  1  0  0  0
 34 59  1  0  0  0
 34106  1  0  0  0
 35 44  2  0  0  0
 35 45  1  0  0  0
 35 68  1  0  0  0
 36 56  1  0  0  0
 36107  1  0  0  0
 37 39  1  0  0  0
 37 47  1  0  0  0
 37 66  1  0  0  0
 37108  1  0  0  0
 38 43  2  0  0  0
 38 46  1  0  0  0
 38 47  1  0  0  0
 39 64  1  0  0  0
 39 67  2  0  0  0
 40 52  1  0  0  0
 40 53  2  0  0  0
 40 58  1  0  0  0
 41109  1  0  0  0
 41110  1  0  0  0
 41111  1  0  0  0
 41 48  1  0  0  0
 42 43  1  0  0  0
 42 66  1  0  0  0
 42112  1  0  0  0
 42113  1  0  0  0
 43 44  1  0  0  0
 44114  1  0  0  0
 45 46  2  0  0  0
 45115  1  0  0  0
 46116  1  0  0  0
 47117  1  0  0  0
 47118  1  0  0  0
 48 56  1  0  0  0
 48 65  1  0  0  0
 48119  1  0  0  0
 49 50  1  0  0  0
 49 53  1  0  0  0
 49 64  1  0  0  0
 49120  1  0  0  0
 50 51  1  0  0  0
 50121  1  0  0  0
 50122  1  0  0  0
 51 52  1  0  0  0
 51123  1  0  0  0
 51124  1  0  0  0
 52125  1  0  0  0
 52126  1  0  0  0
 53 54  1  0  0  0
 54 55  2  0  0  0
 54127  1  0  0  0
 55 57  1  0  0  0
 55128  1  0  0  0
 56 69  2  0  0  0
 57 58  2  0  0  0
 57129  1  0  0  0
 58130  1  0  0  0
 59 60  1  0  0  0
 59 61  1  0  0  0
 59 62  1  0  0  0
 60131  1  0  0  0
 60132  1  0  0  0
 60133  1  0  0  0
 61134  1  0  0  0
 61135  1  0  0  0
 61136  1  0  0  0
 62137  1  0  0  0
 62138  1  0  0  0
 62139  1  0  0  0
 63 65  1  0  0  0
 63140  1  0  0  0
 63141  1  0  0  0
 63142  1  0  0  0
 64143  1  0  0  0
 65144  1  0  0  0
 68 81  1  0  0  0
 71 72  2  0  0  0
 71 74  1  0  0  0
 71145  1  0  0  0
 72 76  1  0  0  0
 72146  1  0  0  0
 73 75  1  0  0  0
 73 76  2  0  0  0
 73147  1  0  0  0
 74 75  2  0  0  0
 74 77  1  0  0  0
 75 84  1  0  0  0
 76 85  1  0  0  0
 77148  1  0  0  0
 77149  1  0  0  0
 77150  1  0  0  0
 78 80  1  0  0  0
 78151  1  0  0  0
 78152  1  0  0  0
 78153  1  0  0  0
 79154  1  0  0  0
 79155  1  0  0  0
 79156  1  0  0  0
 79 83  1  0  0  0
 80 83  1  0  0  0
 80157  1  0  0  0
 80158  1  0  0  0
 81 83  1  0  0  0
 81159  1  0  0  0
 81160  1  0  0  0
 82 83  1  0  0  0
 82 85  1  0  0  0
 82161  1  0  0  0
 82162  1  0  0  0
 84163  1  0  0  0
M  ISO  4   1 100  68 101  81 101  84 100
M  END
> <chiral flag>
0

> <version>
0

> <s_m_source_file>
/data/baiqing/PycharmProjects/Reinvent-master-3.2/result/LINK_invent/BTK/process_docking_weight1_custom_product_contain_oxygen_bond_distance_aromatic_linkinvent_7_9_3/rearranged_h_0136.sdf

> <i_m_source_file_index>
56

> <r_mmod_Potential_Energy-OPLS-2005>
408.282867431641

> <r_mmod_Stretch_Energy-OPLS-2005>
163.319213867188

> <r_mmod_Bend_Energy-OPLS-2005>
252.720230102539

> <r_mmod_Torsional_Energy-OPLS-2005>
320.057769775391

> <r_mmod_Improper_Torsional_Energy-OPLS-2005>
5.56806182861328

> <r_mmod_Van_der_Waal_Energy-OPLS-2005>
140.588180541992

> <r_mmod_Electrostatic_Energy-OPLS-2005>
-371.974548339844

> <r_mmod_Solvation_Energy-OPLS-2005>
-205.873550415039

> <b_mmod_Minimization_Converged-OPLS-2005>
0

> <r_mmod_RMS_Derivative-OPLS-2005>
2.22785997390747

$$$$
56
                    3D
 Structure written by MMmdl.
173181  0  0  1  0            999 V2000
  -30.6170  -14.6987   20.4585 C   0  0  0  0  0  0
  -30.4318  -12.4196   19.4774 C   0  0  0  0  0  0
  -29.5114  -12.5022   18.2391 C   0  0  0  0  0  0
  -28.0361  -12.3335   18.6495 C   0  0  0  0  0  0
  -27.6473  -13.2264   19.8582 C   0  0  2  0  0  0
  -28.6900  -13.1357   20.9960 C   0  0  0  0  0  0
  -25.2529  -13.8190   20.5688 C   0  0  0  0  0  0
  -24.1814  -13.0444   20.9198 C   0  0  0  0  0  0
  -24.6398  -11.6918   20.8747 C   0  0  0  0  0  0
  -23.9074  -10.4294   21.0409 C   0  0  0  0  0  0
  -24.3622   -9.4206   21.9188 C   0  0  0  0  0  0
  -23.6293   -8.2244   22.0758 C   0  0  0  0  0  0
  -22.4277   -8.0282   21.3547 C   0  0  0  0  0  0
  -21.9915   -9.0256   20.4649 C   0  0  0  0  0  0
  -22.7246  -10.2134   20.3056 C   0  0  0  0  0  0
  -21.6851   -6.0737   22.5278 C   0  0  0  0  0  0
  -21.4016   -6.5641   23.8211 C   0  0  0  0  0  0
  -21.3658   -5.6794   24.9174 C   0  0  0  0  0  0
  -21.6043   -4.3055   24.7225 C   0  0  0  0  0  0
  -21.8819   -3.8149   23.4345 C   0  0  0  0  0  0
  -21.9195   -4.6965   22.3402 C   0  0  0  0  0  0
  -22.7833  -13.5224   21.1856 C   0  0  0  0  0  0
  -22.1661   -4.2149   21.0979 F   0  0  0  0  0  0
  -21.5627   -3.4539   25.7739 F   0  0  0  0  0  0
  -30.0003  -13.4714   20.4247 N   0  0  0  0  0  0
  -26.2962  -12.9391   20.3307 N   0  0  0  0  0  0
  -25.9329  -11.6537   20.5765 N   0  0  0  0  0  0
  -22.0481  -12.8213   22.0410 N   0  0  0  0  0  0
  -25.4231  -15.1913   20.4099 N   0  0  0  0  0  0
  -31.7912  -14.8146   20.0967 O   0  0  0  0  0  0
  -21.6642   -6.8880   21.4241 O   0  0  0  0  0  0
  -22.3518  -14.5532   20.6706 O   0  0  0  0  0  0
  -24.6289  -31.8569   23.2000 C   0  0  0  0  0  0
  -25.9121  -32.4768   23.8341 C   0  0  1  0  0  0
  -27.2244  -27.2861   20.1137 C   0  0  0  0  0  0
  -25.5923  -33.8569   24.2272 N   0  0  0  0  0  0
  -23.4236  -30.4797   21.5438 C   0  0  2  0  0  0
  -24.8688  -28.9271   20.1116 C   0  0  0  0  0  0
  -22.7488  -29.4608   22.4929 C   0  0  0  0  0  0
  -18.0288  -28.1385   22.8480 C   0  0  0  0  0  0
  -24.1489  -36.7289   23.2639 C   0  0  0  0  0  0
  -25.9672  -30.7767   21.3755 C   0  0  0  0  0  0
  -26.0386  -29.4007   20.7171 C   0  0  0  0  0  0
  -27.2155  -28.5913   20.7074 C   0  0  0  0  0  0
  -26.0257  -26.8686   19.4915 C   0  0  0  0  0  0
  -24.8657  -27.6681   19.4916 C   0  0  0  0  0  0
  -23.6392  -29.8117   20.1603 C   0  0  0  0  0  0
  -25.4115  -36.3077   24.0327 C   0  0  1  0  0  0
  -20.5888  -28.3694   23.1274 C   0  0  2  0  0  0
  -20.6773  -26.9414   22.5405 C   0  0  0  0  0  0
  -19.5748  -26.6380   21.5209 C   0  0  0  0  0  0
  -18.1930  -26.7926   22.1619 C   0  0  0  0  0  0
  -19.1541  -28.8854   23.2874 C   0  0  0  0  0  0
  -18.9467  -30.1457   23.8892 C   0  0  0  0  0  0
  -17.6466  -30.6588   24.0560 C   0  0  0  0  0  0
  -25.9049  -34.9446   23.5102 C   0  0  0  0  0  0
  -16.5358  -29.9082   23.6330 C   0  0  0  0  0  0
  -16.7276  -28.6502   23.0348 C   0  0  0  0  0  0
  -26.4495  -31.6589   25.0725 C   0  0  0  0  0  0
  -25.3715  -31.3733   26.1442 C   0  0  0  0  0  0
  -27.0356  -30.3013   24.6198 C   0  0  0  0  0  0
  -27.6054  -32.4333   25.7491 C   0  0  0  0  0  0
  -27.5584  -37.1796   24.8459 C   0  0  0  0  0  0
  -21.4197  -29.3048   22.3673 N   0  0  0  0  0  0
  -26.4294  -37.3774   23.9407 N   0  0  0  0  0  0
  -24.6925  -31.0555   22.0964 N   0  0  0  0  0  0
  -23.4200  -28.8151   23.3019 O   0  0  0  0  0  0
  -28.3672  -26.4617   20.1628 O   0  0  0  0  0  0
  -26.5625  -34.8915   22.4674 O   0  0  0  0  0  0
  -23.5443  -32.1382   23.7306 O   0  0  0  0  0  0
  -29.2494  -19.8003   20.4146 C   0  0  0  0  0  0
  -29.5331  -18.3440   22.3263 C   0  0  0  0  0  0
  -29.5681  -18.4813   20.9356 C   0  0  0  0  0  0
  -28.8506  -20.9499   21.2149 C   0  0  0  0  0  0
  -28.7807  -20.6898   22.6341 C   0  0  0  0  0  0
  -29.1569  -19.4123   23.1542 C   0  0  0  0  0  0
  -26.8034  -21.4379   24.0652 C   0  0  0  0  0  0
  -29.7039  -25.2269   22.8325 C   0  0  0  0  0  0
  -29.3699  -17.2385   18.6867 C   0  0  0  0  0  0
  -27.0960  -24.1883   21.6833 C   0  0  0  0  0  0
  -28.4058  -22.3095   20.4459 C   0  0  0  0  0  0
  -28.2683  -21.6932   23.6687 C   0  0  0  0  0  0
  -29.7461  -24.1236   21.7599 C   0  0  0  0  0  0
  -28.3949  -25.0067   19.7977 C   0  0  0  0  0  0
  -30.0101  -17.2149   20.0863 C   0  0  2  0  0  0
  -28.4321  -23.8747   20.9533 C   0  0  2  0  0  0
  -29.1485  -19.1416   24.5240 N   0  0  0  0  0  0
  -29.8233  -15.8118   20.6518 N   0  0  0  0  0  0
  -31.4761  -12.5311   19.1800 H   0  0  0  0  0  0
  -30.3606  -11.4375   19.9471 H   0  0  0  0  0  0
  -29.7867  -11.7366   17.5127 H   0  0  0  0  0  0
  -29.6475  -13.4628   17.7396 H   0  0  0  0  0  0
  -27.8849  -11.2839   18.9041 H   0  0  0  0  0  0
  -27.3808  -12.5372   17.8018 H   0  0  0  0  0  0
  -27.6504  -14.2519   19.4879 H   0  0  0  0  0  0
  -28.7099  -12.1330   21.4255 H   0  0  0  0  0  0
  -28.4327  -13.8113   21.8133 H   0  0  0  0  0  0
  -25.2764   -9.5683   22.4764 H   0  0  0  0  0  0
  -24.0000   -7.4638   22.7479 H   0  0  0  0  0  0
  -21.0847   -8.8778   19.8952 H   0  0  0  0  0  0
  -22.3707  -10.9676   19.6165 H   0  0  0  0  0  0
  -21.2010   -7.6151   23.9714 H   0  0  0  0  0  0
  -21.1479   -6.0526   25.9077 H   0  0  0  0  0  0
  -22.0600   -2.7611   23.2847 H   0  0  0  0  0  0
  -22.4100  -11.9868   22.4790 H   0  0  0  0  0  0
  -21.1100  -13.1236   22.2622 H   0  0  0  0  0  0
  -24.6560  -15.8448   20.5216 H   0  0  0  0  0  0
  -26.2698  -15.6316   20.0749 H   0  0  0  0  0  0
  -26.7187  -32.5425   23.1085 H   0  0  0  0  0  0
  -25.0050  -33.9701   25.0404 H   0  0  0  0  0  0
  -22.7196  -31.3018   21.3986 H   0  0  0  0  0  0
  -23.3752  -35.9619   23.3291 H   0  0  0  0  0  0
  -24.3566  -36.8923   22.2053 H   0  0  0  0  0  0
  -23.7242  -37.6485   23.6671 H   0  0  0  0  0  0
  -26.1023  -31.5389   20.6070 H   0  0  0  0  0  0
  -26.8468  -30.8263   22.0059 H   0  0  0  0  0  0
  -28.1144  -28.9501   21.1891 H   0  0  0  0  0  0
  -25.9405  -25.9107   19.0061 H   0  0  0  0  0  0
  -23.9667  -27.2984   19.0173 H   0  0  0  0  0  0
  -23.7612  -30.5866   19.4029 H   0  0  0  0  0  0
  -22.7586  -29.2421   19.8582 H   0  0  0  0  0  0
  -25.1299  -36.1925   25.0820 H   0  0  0  0  0  0
  -20.9987  -28.3273   24.1392 H   0  0  0  0  0  0
  -20.5681  -26.2305   23.3609 H   0  0  0  0  0  0
  -21.6643  -26.7447   22.1203 H   0  0  0  0  0  0
  -19.6913  -25.6290   21.1242 H   0  0  0  0  0  0
  -19.6685  -27.3187   20.6737 H   0  0  0  0  0  0
  -17.4203  -26.6675   21.4019 H   0  0  0  0  0  0
  -18.0328  -26.0076   22.9023 H   0  0  0  0  0  0
  -19.7946  -30.7266   24.2265 H   0  0  0  0  0  0
  -17.5023  -31.6268   24.5163 H   0  0  0  0  0  0
  -15.5356  -30.2981   23.7661 H   0  0  0  0  0  0
  -15.8672  -28.0820   22.7061 H   0  0  0  0  0  0
  -24.5892  -30.7089   25.7752 H   0  0  0  0  0  0
  -24.8899  -32.2898   26.4860 H   0  0  0  0  0  0
  -25.8020  -30.8906   27.0225 H   0  0  0  0  0  0
  -26.2949  -29.6737   24.1225 H   0  0  0  0  0  0
  -27.4055  -29.7292   25.4716 H   0  0  0  0  0  0
  -27.8812  -30.4295   23.9436 H   0  0  0  0  0  0
  -27.2679  -33.3645   26.2051 H   0  0  0  0  0  0
  -28.3868  -32.6875   25.0318 H   0  0  0  0  0  0
  -28.0718  -31.8470   26.5415 H   0  0  0  0  0  0
  -28.2591  -38.0106   24.7527 H   0  0  0  0  0  0
  -28.1101  -36.2638   24.6275 H   0  0  0  0  0  0
  -27.2296  -37.1423   25.8860 H   0  0  0  0  0  0
  -20.9380  -29.8783   21.6889 H   0  0  0  0  0  0
  -26.0176  -38.2847   24.1413 H   0  0  0  0  0  0
  -29.2860  -19.9406   19.3442 H   0  0  0  0  0  0
  -29.8001  -17.3931   22.7664 H   0  0  0  0  0  0
  -26.4545  -22.1964   24.7661 H   0  0  0  0  0  0
  -26.6843  -20.4666   24.5462 H   0  0  0  0  0  0
  -26.1444  -21.4520   23.1972 H   0  0  0  0  0  0
  -30.6825  -25.3425   23.2993 H   0  0  0  0  0  0
  -28.9960  -24.9922   23.6269 H   0  0  0  0  0  0
  -29.4294  -26.1948   22.4158 H   0  0  0  0  0  0
  -29.6679  -18.1209   18.1215 H   0  0  0  0  0  0
  -28.2813  -17.2298   18.7488 H   0  0  0  0  0  0
  -29.6740  -16.3752   18.0935 H   0  0  0  0  0  0
  -26.7803  -23.4760   22.4284 H   0  0  0  0  0  0
  -26.2724  -24.2025   20.9687 H   0  0  0  0  0  0
  -27.1031  -25.1709   22.1536 H   0  0  0  0  0  0
  -27.4051  -22.1107   20.0612 H   0  0  0  0  0  0
  -29.0302  -22.3080   19.5515 H   0  0  0  0  0  0
  -28.4093  -22.7108   23.3641 H   0  0  0  0  0  0
  -28.8907  -21.6522   24.5622 H   0  0  0  0  0  0
  -30.1085  -23.2074   22.2219 H   0  0  0  0  0  0
  -30.5438  -24.3678   21.0563 H   0  0  0  0  0  0
  -27.6184  -24.7541   19.0803 H   0  0  0  0  0  0
  -29.3019  -24.8898   19.2038 H   0  0  0  0  0  0
  -31.0844  -17.3460   19.9450 H   0  0  0  0  0  0
  -29.6580  -18.3402   24.8811 H   0  0  0  0  0  0
  -29.0813  -19.9092   25.1819 H   0  0  0  0  0  0
  -28.8949  -15.6113   20.9900 H   0  0  0  0  0  0
  1 25  1  0  0  0
  1 30  2  0  0  0
  1 88  1  0  0  0
  2  3  1  0  0  0
  2 25  1  0  0  0
  2 89  1  0  0  0
  2 90  1  0  0  0
  3  4  1  0  0  0
  3 91  1  0  0  0
  3 92  1  0  0  0
  4  5  1  0  0  0
  4 93  1  0  0  0
  4 94  1  0  0  0
  5  6  1  0  0  0
  5 26  1  0  0  0
  5 95  1  0  0  0
  6 25  1  0  0  0
  6 96  1  0  0  0
  6 97  1  0  0  0
  7  8  2  0  0  0
  7 26  1  0  0  0
  7 29  1  0  0  0
  8  9  1  0  0  0
  8 22  1  0  0  0
  9 10  1  0  0  0
  9 27  2  0  0  0
 10 11  2  0  0  0
 10 15  1  0  0  0
 11 12  1  0  0  0
 11 98  1  0  0  0
 12 13  2  0  0  0
 12 99  1  0  0  0
 13 14  1  0  0  0
 13 31  1  0  0  0
 14 15  2  0  0  0
 14100  1  0  0  0
 15101  1  0  0  0
 16 17  2  0  0  0
 16 21  1  0  0  0
 16 31  1  0  0  0
 17 18  1  0  0  0
 17102  1  0  0  0
 18 19  2  0  0  0
 18103  1  0  0  0
 19 20  1  0  0  0
 19 24  1  0  0  0
 20 21  2  0  0  0
 20104  1  0  0  0
 21 23  1  0  0  0
 22 28  1  0  0  0
 22 32  2  0  0  0
 26 27  1  0  0  0
 28105  1  0  0  0
 28106  1  0  0  0
 29107  1  0  0  0
 29108  1  0  0  0
 33 34  1  0  0  0
 33 66  1  0  0  0
 33 70  2  0  0  0
 34 36  1  0  0  0
 34 59  1  0  0  0
 34109  1  0  0  0
 35 44  2  0  0  0
 35 45  1  0  0  0
 35 68  1  0  0  0
 36 56  1  0  0  0
 36110  1  0  0  0
 37 39  1  0  0  0
 37 47  1  0  0  0
 37 66  1  0  0  0
 37111  1  0  0  0
 38 43  2  0  0  0
 38 46  1  0  0  0
 38 47  1  0  0  0
 39 64  1  0  0  0
 39 67  2  0  0  0
 40 52  1  0  0  0
 40 53  2  0  0  0
 40 58  1  0  0  0
 41112  1  0  0  0
 41113  1  0  0  0
 41114  1  0  0  0
 41 48  1  0  0  0
 42 43  1  0  0  0
 42 66  1  0  0  0
 42115  1  0  0  0
 42116  1  0  0  0
 43 44  1  0  0  0
 44117  1  0  0  0
 45 46  2  0  0  0
 45118  1  0  0  0
 46119  1  0  0  0
 47120  1  0  0  0
 47121  1  0  0  0
 48 56  1  0  0  0
 48 65  1  0  0  0
 48122  1  0  0  0
 49 50  1  0  0  0
 49 53  1  0  0  0
 49 64  1  0  0  0
 49123  1  0  0  0
 50 51  1  0  0  0
 50124  1  0  0  0
 50125  1  0  0  0
 51 52  1  0  0  0
 51126  1  0  0  0
 51127  1  0  0  0
 52128  1  0  0  0
 52129  1  0  0  0
 53 54  1  0  0  0
 54 55  2  0  0  0
 54130  1  0  0  0
 55 57  1  0  0  0
 55131  1  0  0  0
 56 69  2  0  0  0
 57 58  2  0  0  0
 57132  1  0  0  0
 58133  1  0  0  0
 59 60  1  0  0  0
 59 61  1  0  0  0
 59 62  1  0  0  0
 60134  1  0  0  0
 60135  1  0  0  0
 60136  1  0  0  0
 61137  1  0  0  0
 61138  1  0  0  0
 61139  1  0  0  0
 62140  1  0  0  0
 62141  1  0  0  0
 62142  1  0  0  0
 63 65  1  0  0  0
 63143  1  0  0  0
 63144  1  0  0  0
 63145  1  0  0  0
 64146  1  0  0  0
 65147  1  0  0  0
 68 84  1  0  0  0
 71 73  2  0  0  0
 71 74  1  0  0  0
 71148  1  0  0  0
 72 73  1  0  0  0
 72 76  2  0  0  0
 72149  1  0  0  0
 73 85  1  0  0  0
 74 75  2  0  0  0
 74 81  1  0  0  0
 75 76  1  0  0  0
 75 82  1  0  0  0
 76 87  1  0  0  0
 77 82  1  0  0  0
 77150  1  0  0  0
 77151  1  0  0  0
 77152  1  0  0  0
 78 83  1  0  0  0
 78153  1  0  0  0
 78154  1  0  0  0
 78155  1  0  0  0
 79156  1  0  0  0
 79157  1  0  0  0
 79158  1  0  0  0
 79 85  1  0  0  0
 80159  1  0  0  0
 80160  1  0  0  0
 80161  1  0  0  0
 80 86  1  0  0  0
 81 86  1  0  0  0
 81162  1  0  0  0
 81163  1  0  0  0
 82164  1  0  0  0
 82165  1  0  0  0
 83 86  1  0  0  0
 83166  1  0  0  0
 83167  1  0  0  0
 84 86  1  0  0  0
 84168  1  0  0  0
 84169  1  0  0  0
 85 88  1  0  0  0
 85170  1  0  0  0
 87171  1  0  0  0
 87172  1  0  0  0
 88173  1  0  0  0
M  ISO  4   1 100  68 101  84 101  88 100
M  END
> <chiral flag>
0

> <version>
0

> <s_m_source_file>
/data/baiqing/PycharmProjects/Reinvent-master-3.2/result/LINK_invent/BTK/process_docking_weight1_custom_product_contain_oxygen_bond_distance_aromatic_linkinvent_7_9_3/rearranged_h_0136.sdf

> <i_m_source_file_index>
57

> <r_mmod_Potential_Energy-OPLS-2005>
149.256195068359

> <r_mmod_Stretch_Energy-OPLS-2005>
133.84001159668

> <r_mmod_Bend_Energy-OPLS-2005>
216.808822631836

> <r_mmod_Torsional_Energy-OPLS-2005>
221.378555297852

> <r_mmod_Improper_Torsional_Energy-OPLS-2005>
9.68800735473633

> <r_mmod_Van_der_Waal_Energy-OPLS-2005>
154.934844970703

> <r_mmod_Electrostatic_Energy-OPLS-2005>
-451.879638671875

> <r_mmod_Solvation_Energy-OPLS-2005>
-200.118133544922

> <b_mmod_Minimization_Converged-OPLS-2005>
0

> <r_mmod_RMS_Derivative-OPLS-2005>
0.881380915641785

$$$$
57
                    3D
 Structure written by MMmdl.
160168  0  0  1  0            999 V2000
  -30.6334  -14.6074   20.5187 C   0  0  0  0  0  0
  -30.4374  -12.3740   19.4474 C   0  0  0  0  0  0
  -29.5060  -12.5086   18.2220 C   0  0  0  0  0  0
  -28.0280  -12.3511   18.6327 C   0  0  0  0  0  0
  -27.6567  -13.2127   19.8688 C   0  0  2  0  0  0
  -28.7005  -13.0439   20.9963 C   0  0  0  0  0  0
  -25.2575  -13.8165   20.5684 C   0  0  0  0  0  0
  -24.1834  -13.0438   20.9184 C   0  0  0  0  0  0
  -24.6395  -11.6906   20.8737 C   0  0  0  0  0  0
  -23.9062  -10.4291   21.0405 C   0  0  0  0  0  0
  -24.3614   -9.4207   21.9183 C   0  0  0  0  0  0
  -23.6289   -8.2243   22.0754 C   0  0  0  0  0  0
  -22.4272   -8.0280   21.3543 C   0  0  0  0  0  0
  -21.9906   -9.0254   20.4647 C   0  0  0  0  0  0
  -22.7233  -10.2134   20.3055 C   0  0  0  0  0  0
  -21.6853   -6.0734   22.5278 C   0  0  0  0  0  0
  -21.4013   -6.5638   23.8211 C   0  0  0  0  0  0
  -21.3659   -5.6792   24.9174 C   0  0  0  0  0  0
  -21.6044   -4.3054   24.7225 C   0  0  0  0  0  0
  -21.8820   -3.8145   23.4346 C   0  0  0  0  0  0
  -21.9193   -4.6962   22.3402 C   0  0  0  0  0  0
  -22.7856  -13.5235   21.1848 C   0  0  0  0  0  0
  -22.1662   -4.2147   21.0980 F   0  0  0  0  0  0
  -21.5629   -3.4538   25.7738 F   0  0  0  0  0  0
  -30.0211  -13.3838   20.4401 N   0  0  0  0  0  0
  -26.3005  -12.9339   20.3339 N   0  0  0  0  0  0
  -25.9324  -11.6498   20.5762 N   0  0  0  0  0  0
  -22.0495  -12.8230   22.0404 N   0  0  0  0  0  0
  -25.4299  -15.1885   20.4095 N   0  0  0  0  0  0
  -31.7838  -14.7728   20.0965 O   0  0  0  0  0  0
  -21.6638   -6.8876   21.4240 O   0  0  0  0  0  0
  -22.3545  -14.5545   20.6700 O   0  0  0  0  0  0
  -24.6236  -31.8615   23.2042 C   0  0  0  0  0  0
  -25.9093  -32.4789   23.8362 C   0  0  1  0  0  0
  -27.2258  -27.3438   20.1104 C   0  0  0  0  0  0
  -25.5917  -33.8589   24.2288 N   0  0  0  0  0  0
  -23.4158  -30.4862   21.5463 C   0  0  2  0  0  0
  -24.8617  -28.9450   20.1105 C   0  0  0  0  0  0
  -22.7461  -29.4633   22.4944 C   0  0  0  0  0  0
  -18.0284  -28.1382   22.8488 C   0  0  0  0  0  0
  -24.1489  -36.7297   23.2640 C   0  0  0  0  0  0
  -25.9550  -30.8000   21.3716 C   0  0  0  0  0  0
  -26.0293  -29.4298   20.7131 C   0  0  0  0  0  0
  -27.2140  -28.6402   20.7041 C   0  0  0  0  0  0
  -26.0349  -26.9063   19.4843 C   0  0  0  0  0  0
  -24.8651  -27.6874   19.4885 C   0  0  0  0  0  0
  -23.6285  -29.8219   20.1608 C   0  0  0  0  0  0
  -25.4114  -36.3090   24.0332 C   0  0  1  0  0  0
  -20.5883  -28.3681   23.1290 C   0  0  2  0  0  0
  -20.6773  -26.9408   22.5411 C   0  0  0  0  0  0
  -19.5750  -26.6384   21.5212 C   0  0  0  0  0  0
  -18.1929  -26.7926   22.1624 C   0  0  0  0  0  0
  -19.1536  -28.8849   23.2886 C   0  0  0  0  0  0
  -18.9461  -30.1452   23.8901 C   0  0  0  0  0  0
  -17.6462  -30.6585   24.0565 C   0  0  0  0  0  0
  -25.9047  -34.9459   23.5110 C   0  0  0  0  0  0
  -16.5353  -29.9087   23.6330 C   0  0  0  0  0  0
  -16.7271  -28.6503   23.0350 C   0  0  0  0  0  0
  -26.4487  -31.6592   25.0722 C   0  0  0  0  0  0
  -25.3730  -31.3721   26.1455 C   0  0  0  0  0  0
  -27.0329  -30.3021   24.6156 C   0  0  0  0  0  0
  -27.6048  -32.4325   25.7492 C   0  0  0  0  0  0
  -27.5581  -37.1805   24.8467 C   0  0  0  0  0  0
  -21.4178  -29.3039   22.3687 N   0  0  0  0  0  0
  -26.4294  -37.3782   23.9410 N   0  0  0  0  0  0
  -24.6836  -31.0650   22.0979 N   0  0  0  0  0  0
  -23.4197  -28.8173   23.3013 O   0  0  0  0  0  0
  -28.3557  -26.5193   20.1616 O   0  0  0  0  0  0
  -26.5615  -34.8925   22.4676 O   0  0  0  0  0  0
  -23.5407  -32.1402   23.7386 O   0  0  0  0  0  0
  -29.0231  -17.8115   21.6681 C   0  0  0  0  0  0
  -30.6970  -19.1259   19.9801 C   0  0  0  0  0  0
  -28.9970  -19.2379   21.6614 C   0  0  0  0  0  0
  -29.8691  -19.9466   20.7870 C   0  0  0  0  0  0
  -29.9166  -17.0716   20.8599 C   0  0  0  0  0  0
  -28.0901  -19.9378   22.6117 C   0  0  0  0  0  0
  -30.5984  -24.4680   19.7212 C   0  0  0  0  0  0
  -29.5518  -24.4150   22.0074 C   0  0  0  0  0  0
  -30.0989  -21.5026   20.8287 C   0  0  0  0  0  0
  -29.0069  -22.5468   20.3311 C   0  0  0  0  0  0
  -28.1643  -25.0653   20.0096 C   0  0  0  0  0  0
  -29.3261  -24.1090   20.5129 C   0  0  0  0  0  0
  -30.7258  -17.7617   20.0161 N   0  0  0  0  0  0
  -29.8509  -15.6253   20.9853 N   0  0  0  0  0  0
  -27.2956  -19.3625   23.3630 O   0  0  0  0  0  0
  -31.4790  -12.4953   19.1445 H   0  0  0  0  0  0
  -30.3678  -11.3730   19.8762 H   0  0  0  0  0  0
  -29.7650  -11.7637   17.4685 H   0  0  0  0  0  0
  -29.6537  -13.4821   17.7519 H   0  0  0  0  0  0
  -27.8582  -11.2968   18.8540 H   0  0  0  0  0  0
  -27.3746  -12.5933   17.7936 H   0  0  0  0  0  0
  -27.6828  -14.2520   19.5413 H   0  0  0  0  0  0
  -28.7046  -12.0153   21.3605 H   0  0  0  0  0  0
  -28.4453  -13.6576   21.8612 H   0  0  0  0  0  0
  -25.2759   -9.5684   22.4756 H   0  0  0  0  0  0
  -23.9999   -7.4634   22.7473 H   0  0  0  0  0  0
  -21.0837   -8.8772   19.8953 H   0  0  0  0  0  0
  -22.3693  -10.9672   19.6163 H   0  0  0  0  0  0
  -21.2005   -7.6147   23.9714 H   0  0  0  0  0  0
  -21.1480   -6.0522   25.9077 H   0  0  0  0  0  0
  -22.0600   -2.7607   23.2847 H   0  0  0  0  0  0
  -22.4105  -11.9886   22.4788 H   0  0  0  0  0  0
  -21.1116  -13.1262   22.2613 H   0  0  0  0  0  0
  -24.6615  -15.8420   20.5144 H   0  0  0  0  0  0
  -26.2759  -15.6267   20.0685 H   0  0  0  0  0  0
  -26.7160  -32.5465   23.1111 H   0  0  0  0  0  0
  -25.0069  -33.9736   25.0437 H   0  0  0  0  0  0
  -22.7086  -31.3061   21.4048 H   0  0  0  0  0  0
  -23.3751  -35.9630   23.3306 H   0  0  0  0  0  0
  -24.3579  -36.8909   22.2053 H   0  0  0  0  0  0
  -23.7244  -37.6503   23.6654 H   0  0  0  0  0  0
  -26.0834  -31.5652   20.6047 H   0  0  0  0  0  0
  -26.8369  -30.8475   21.9988 H   0  0  0  0  0  0
  -28.1107  -29.0073   21.1837 H   0  0  0  0  0  0
  -25.9811  -25.9471   18.9914 H   0  0  0  0  0  0
  -23.9702  -27.3105   19.0123 H   0  0  0  0  0  0
  -23.7451  -30.5986   19.4041 H   0  0  0  0  0  0
  -22.7494  -29.2491   19.8597 H   0  0  0  0  0  0
  -25.1294  -36.1945   25.0825 H   0  0  0  0  0  0
  -20.9978  -28.3252   24.1409 H   0  0  0  0  0  0
  -20.5674  -26.2291   23.3606 H   0  0  0  0  0  0
  -21.6643  -26.7439   22.1204 H   0  0  0  0  0  0
  -19.6912  -25.6297   21.1236 H   0  0  0  0  0  0
  -19.6690  -27.3199   20.6746 H   0  0  0  0  0  0
  -17.4201  -26.6676   21.4025 H   0  0  0  0  0  0
  -18.0327  -26.0066   22.9017 H   0  0  0  0  0  0
  -19.7939  -30.7265   24.2271 H   0  0  0  0  0  0
  -17.5019  -31.6267   24.5165 H   0  0  0  0  0  0
  -15.5354  -30.2991   23.7653 H   0  0  0  0  0  0
  -15.8671  -28.0826   22.7062 H   0  0  0  0  0  0
  -24.5906  -30.7067   25.7788 H   0  0  0  0  0  0
  -24.8921  -32.2886   26.4885 H   0  0  0  0  0  0
  -25.8065  -30.8900   27.0226 H   0  0  0  0  0  0
  -26.2897  -29.6775   24.1186 H   0  0  0  0  0  0
  -27.4048  -29.7269   25.4644 H   0  0  0  0  0  0
  -27.8754  -30.4318   23.9359 H   0  0  0  0  0  0
  -27.2655  -33.3622   26.2073 H   0  0  0  0  0  0
  -28.3856  -32.6892   25.0319 H   0  0  0  0  0  0
  -28.0717  -31.8449   26.5406 H   0  0  0  0  0  0
  -28.2602  -38.0100   24.7508 H   0  0  0  0  0  0
  -28.1072  -36.2630   24.6296 H   0  0  0  0  0  0
  -27.2297  -37.1459   25.8869 H   0  0  0  0  0  0
  -20.9347  -29.8768   21.6909 H   0  0  0  0  0  0
  -26.0176  -38.2859   24.1407 H   0  0  0  0  0  0
  -28.3625  -17.2819   22.3425 H   0  0  0  0  0  0
  -31.4132  -19.5794   19.3107 H   0  0  0  0  0  0
  -28.1750  -21.0231   22.6159 H   0  0  0  0  0  0
  -31.4751  -23.9341   20.0868 H   0  0  0  0  0  0
  -30.8234  -25.5327   19.7956 H   0  0  0  0  0  0
  -30.4850  -24.2341   18.6621 H   0  0  0  0  0  0
  -30.4247  -23.9009   22.4084 H   0  0  0  0  0  0
  -28.6887  -24.1228   22.6069 H   0  0  0  0  0  0
  -29.7148  -25.4805   22.1739 H   0  0  0  0  0  0
  -31.0157  -21.6956   20.2712 H   0  0  0  0  0  0
  -30.3603  -21.7333   21.8608 H   0  0  0  0  0  0
  -28.0624  -22.3405   20.8330 H   0  0  0  0  0  0
  -28.8104  -22.3539   19.2758 H   0  0  0  0  0  0
  -27.2576  -24.7734   20.5428 H   0  0  0  0  0  0
  -27.9800  -24.8575   18.9544 H   0  0  0  0  0  0
  -29.0052  -15.2906   21.4165 H   0  0  0  0  0  0
  1 25  1  0  0  0
  1 30  2  0  0  0
  1 84  1  0  0  0
  2  3  1  0  0  0
  2 25  1  0  0  0
  2 86  1  0  0  0
  2 87  1  0  0  0
  3  4  1  0  0  0
  3 88  1  0  0  0
  3 89  1  0  0  0
  4  5  1  0  0  0
  4 90  1  0  0  0
  4 91  1  0  0  0
  5  6  1  0  0  0
  5 26  1  0  0  0
  5 92  1  0  0  0
  6 25  1  0  0  0
  6 93  1  0  0  0
  6 94  1  0  0  0
  7  8  2  0  0  0
  7 26  1  0  0  0
  7 29  1  0  0  0
  8  9  1  0  0  0
  8 22  1  0  0  0
  9 10  1  0  0  0
  9 27  2  0  0  0
 10 11  2  0  0  0
 10 15  1  0  0  0
 11 12  1  0  0  0
 11 95  1  0  0  0
 12 13  2  0  0  0
 12 96  1  0  0  0
 13 14  1  0  0  0
 13 31  1  0  0  0
 14 15  2  0  0  0
 14 97  1  0  0  0
 15 98  1  0  0  0
 16 17  2  0  0  0
 16 21  1  0  0  0
 16 31  1  0  0  0
 17 18  1  0  0  0
 17 99  1  0  0  0
 18 19  2  0  0  0
 18100  1  0  0  0
 19 20  1  0  0  0
 19 24  1  0  0  0
 20 21  2  0  0  0
 20101  1  0  0  0
 21 23  1  0  0  0
 22 28  1  0  0  0
 22 32  2  0  0  0
 26 27  1  0  0  0
 28102  1  0  0  0
 28103  1  0  0  0
 29104  1  0  0  0
 29105  1  0  0  0
 33 34  1  0  0  0
 33 66  1  0  0  0
 33 70  2  0  0  0
 34 36  1  0  0  0
 34 59  1  0  0  0
 34106  1  0  0  0
 35 44  2  0  0  0
 35 45  1  0  0  0
 35 68  1  0  0  0
 36 56  1  0  0  0
 36107  1  0  0  0
 37 39  1  0  0  0
 37 47  1  0  0  0
 37 66  1  0  0  0
 37108  1  0  0  0
 38 43  2  0  0  0
 38 46  1  0  0  0
 38 47  1  0  0  0
 39 64  1  0  0  0
 39 67  2  0  0  0
 40 52  1  0  0  0
 40 53  2  0  0  0
 40 58  1  0  0  0
 41109  1  0  0  0
 41110  1  0  0  0
 41111  1  0  0  0
 41 48  1  0  0  0
 42 43  1  0  0  0
 42 66  1  0  0  0
 42112  1  0  0  0
 42113  1  0  0  0
 43 44  1  0  0  0
 44114  1  0  0  0
 45 46  2  0  0  0
 45115  1  0  0  0
 46116  1  0  0  0
 47117  1  0  0  0
 47118  1  0  0  0
 48 56  1  0  0  0
 48 65  1  0  0  0
 48119  1  0  0  0
 49 50  1  0  0  0
 49 53  1  0  0  0
 49 64  1  0  0  0
 49120  1  0  0  0
 50 51  1  0  0  0
 50121  1  0  0  0
 50122  1  0  0  0
 51 52  1  0  0  0
 51123  1  0  0  0
 51124  1  0  0  0
 52125  1  0  0  0
 52126  1  0  0  0
 53 54  1  0  0  0
 54 55  2  0  0  0
 54127  1  0  0  0
 55 57  1  0  0  0
 55128  1  0  0  0
 56 69  2  0  0  0
 57 58  2  0  0  0
 57129  1  0  0  0
 58130  1  0  0  0
 59 60  1  0  0  0
 59 61  1  0  0  0
 59 62  1  0  0  0
 60131  1  0  0  0
 60132  1  0  0  0
 60133  1  0  0  0
 61134  1  0  0  0
 61135  1  0  0  0
 61136  1  0  0  0
 62137  1  0  0  0
 62138  1  0  0  0
 62139  1  0  0  0
 63 65  1  0  0  0
 63140  1  0  0  0
 63141  1  0  0  0
 63142  1  0  0  0
 64143  1  0  0  0
 65144  1  0  0  0
 68 81  1  0  0  0
 71 73  2  0  0  0
 71 75  1  0  0  0
 71145  1  0  0  0
 72 74  2  0  0  0
 72 83  1  0  0  0
 72146  1  0  0  0
 73 74  1  0  0  0
 73 76  1  0  0  0
 74 79  1  0  0  0
 75 83  2  0  0  0
 75 84  1  0  0  0
 76 85  2  0  0  0
 76147  1  0  0  0
 77148  1  0  0  0
 77149  1  0  0  0
 77150  1  0  0  0
 77 82  1  0  0  0
 78 82  1  0  0  0
 78151  1  0  0  0
 78152  1  0  0  0
 78153  1  0  0  0
 79 80  1  0  0  0
 79154  1  0  0  0
 79155  1  0  0  0
 80 82  1  0  0  0
 80156  1  0  0  0
 80157  1  0  0  0
 81 82  1  0  0  0
 81158  1  0  0  0
 81159  1  0  0  0
 84160  1  0  0  0
M  ISO  4   1 100  68 101  81 101  84 100
M  END
> <chiral flag>
0

> <version>
0

> <s_m_source_file>
/data/baiqing/PycharmProjects/Reinvent-master-3.2/result/LINK_invent/BTK/process_docking_weight1_custom_product_contain_oxygen_bond_distance_aromatic_linkinvent_7_9_3/rearranged_h_0136.sdf

> <i_m_source_file_index>
58

> <r_mmod_Potential_Energy-OPLS-2005>
-103.672645568848

> <r_mmod_Stretch_Energy-OPLS-2005>
73.3557891845703

> <r_mmod_Bend_Energy-OPLS-2005>
137.351837158203

> <r_mmod_Torsional_Energy-OPLS-2005>
213.463989257812

> <r_mmod_Improper_Torsional_Energy-OPLS-2005>
4.10247755050659

> <r_mmod_Van_der_Waal_Energy-OPLS-2005>
151.500930786133

> <r_mmod_Electrostatic_Energy-OPLS-2005>
-485.469573974609

> <r_mmod_Solvation_Energy-OPLS-2005>
-235.634429931641

> <b_mmod_Minimization_Converged-OPLS-2005>
0

> <r_mmod_RMS_Derivative-OPLS-2005>
0.282604277133942

$$$$
58
                    3D
 Structure written by MMmdl.
165173  0  0  1  0            999 V2000
  -30.6868  -14.4377   20.5256 C   0  0  0  0  0  0
  -30.4151  -12.2709   19.4297 C   0  0  0  0  0  0
  -29.4904  -12.4949   18.2136 C   0  0  0  0  0  0
  -28.0098  -12.3649   18.6190 C   0  0  0  0  0  0
  -27.6563  -13.2047   19.8747 C   0  0  2  0  0  0
  -28.6938  -12.9810   21.0008 C   0  0  0  0  0  0
  -25.2543  -13.8170   20.5624 C   0  0  0  0  0  0
  -24.1802  -13.0447   20.9167 C   0  0  0  0  0  0
  -24.6365  -11.6920   20.8749 C   0  0  0  0  0  0
  -23.9032  -10.4304   21.0408 C   0  0  0  0  0  0
  -24.3605   -9.4230   21.9178 C   0  0  0  0  0  0
  -23.6288   -8.2260   22.0743 C   0  0  0  0  0  0
  -22.4273   -8.0280   21.3540 C   0  0  0  0  0  0
  -21.9898   -9.0246   20.4648 C   0  0  0  0  0  0
  -22.7211  -10.2136   20.3052 C   0  0  0  0  0  0
  -21.6851   -6.0730   22.5270 C   0  0  0  0  0  0
  -21.4015   -6.5636   23.8205 C   0  0  0  0  0  0
  -21.3666   -5.6792   24.9168 C   0  0  0  0  0  0
  -21.6045   -4.3056   24.7233 C   0  0  0  0  0  0
  -21.8821   -3.8148   23.4357 C   0  0  0  0  0  0
  -21.9200   -4.6957   22.3407 C   0  0  0  0  0  0
  -22.7831  -13.5250   21.1848 C   0  0  0  0  0  0
  -22.1665   -4.2130   21.0981 F   0  0  0  0  0  0
  -21.5633   -3.4545   25.7757 F   0  0  0  0  0  0
  -30.0332  -13.2518   20.4539 N   0  0  0  0  0  0
  -26.2973  -12.9328   20.3343 N   0  0  0  0  0  0
  -25.9291  -11.6496   20.5803 N   0  0  0  0  0  0
  -22.0497  -12.8230   22.0434 N   0  0  0  0  0  0
  -25.4281  -15.1875   20.3961 N   0  0  0  0  0  0
  -31.8427  -14.6079   20.1284 O   0  0  0  0  0  0
  -21.6653   -6.8868   21.4228 O   0  0  0  0  0  0
  -22.3518  -14.5555   20.6704 O   0  0  0  0  0  0
  -24.6140  -31.8692   23.2101 C   0  0  0  0  0  0
  -25.9051  -32.4823   23.8391 C   0  0  1  0  0  0
  -27.2266  -27.4331   20.0896 C   0  0  0  0  0  0
  -25.5923  -33.8618   24.2344 N   0  0  0  0  0  0
  -23.4019  -30.4982   21.5450 C   0  0  2  0  0  0
  -24.8481  -28.9627   20.1113 C   0  0  0  0  0  0
  -22.7382  -29.4722   22.4904 C   0  0  0  0  0  0
  -18.0308  -28.1354   22.8480 C   0  0  0  0  0  0
  -24.1497  -36.7341   23.2643 C   0  0  0  0  0  0
  -25.9314  -30.8329   21.3634 C   0  0  0  0  0  0
  -26.0063  -29.4662   20.7144 C   0  0  0  0  0  0
  -27.1993  -28.7069   20.7048 C   0  0  0  0  0  0
  -26.0566  -26.9502   19.4664 C   0  0  0  0  0  0
  -24.8698  -27.7042   19.4842 C   0  0  0  0  0  0
  -23.6132  -29.8356   20.1574 C   0  0  0  0  0  0
  -25.4117  -36.3125   24.0345 C   0  0  1  0  0  0
  -20.5895  -28.3674   23.1258 C   0  0  2  0  0  0
  -20.6842  -26.9437   22.5329 C   0  0  0  0  0  0
  -19.5785  -26.6373   21.5177 C   0  0  0  0  0  0
  -18.1954  -26.7919   22.1563 C   0  0  0  0  0  0
  -19.1556  -28.8809   23.2917 C   0  0  0  0  0  0
  -18.9465  -30.1401   23.8947 C   0  0  0  0  0  0
  -17.6472  -30.6550   24.0549 C   0  0  0  0  0  0
  -25.9051  -34.9481   23.5148 C   0  0  0  0  0  0
  -16.5366  -29.9071   23.6254 C   0  0  0  0  0  0
  -16.7299  -28.6473   23.0303 C   0  0  0  0  0  0
  -26.4485  -31.6568   25.0693 C   0  0  0  0  0  0
  -25.3758  -31.3656   26.1431 C   0  0  0  0  0  0
  -27.0303  -30.3016   24.6040 C   0  0  0  0  0  0
  -27.6079  -32.4260   25.7470 C   0  0  0  0  0  0
  -27.5591  -37.1835   24.8464 C   0  0  0  0  0  0
  -21.4112  -29.3074   22.3632 N   0  0  0  0  0  0
  -26.4317  -37.3794   23.9403 N   0  0  0  0  0  0
  -24.6675  -31.0814   22.0988 N   0  0  0  0  0  0
  -23.4141  -28.8292   23.2980 O   0  0  0  0  0  0
  -28.3936  -26.6944   20.0736 O   0  0  0  0  0  0
  -26.5584  -34.8931   22.4695 O   0  0  0  0  0  0
  -23.5344  -32.1442   23.7524 O   0  0  0  0  0  0
  -29.9073  -17.8897   17.9681 C   0  0  0  0  0  0
  -29.5385  -19.0822   18.6191 C   0  0  0  0  0  0
  -30.0671  -16.7036   18.7034 C   0  0  0  0  0  0
  -29.4612  -17.8891   20.7434 C   0  0  0  0  0  0
  -29.3193  -19.0920   20.0138 C   0  0  0  0  0  0
  -29.8453  -16.6898   20.1004 C   0  0  0  0  0  0
  -26.6485  -22.5498   21.1553 C   0  0  0  0  0  0
  -29.9540  -25.4559   21.2716 C   0  0  0  0  0  0
  -27.5940  -25.5347   22.1137 C   0  0  0  0  0  0
  -28.9056  -20.3530   20.7691 C   0  0  0  0  0  0
  -28.7123  -21.6432   19.9290 C   0  0  0  0  0  0
  -28.1843  -24.2019   19.9786 C   0  0  0  0  0  0
  -28.1119  -22.8323   20.7343 C   0  0  1  0  0  0
  -28.4759  -25.4702   20.8466 C   0  0  0  0  0  0
  -29.9123  -15.4838   20.8539 N   0  0  0  0  0  0
  -31.4614  -12.3652   19.1334 H   0  0  0  0  0  0
  -30.3074  -11.2564   19.8178 H   0  0  0  0  0  0
  -29.7247  -11.7790   17.4235 H   0  0  0  0  0  0
  -29.6670  -13.4885   17.7964 H   0  0  0  0  0  0
  -27.8119  -11.3104   18.8110 H   0  0  0  0  0  0
  -27.3605  -12.6446   17.7875 H   0  0  0  0  0  0
  -27.7024  -14.2519   19.5744 H   0  0  0  0  0  0
  -28.6459  -11.9533   21.3633 H   0  0  0  0  0  0
  -28.4697  -13.6068   21.8666 H   0  0  0  0  0  0
  -25.2757   -9.5716   22.4762 H   0  0  0  0  0  0
  -24.0011   -7.4645   22.7458 H   0  0  0  0  0  0
  -21.0826   -8.8753   19.8951 H   0  0  0  0  0  0
  -22.3648  -10.9671   19.6177 H   0  0  0  0  0  0
  -21.1989   -7.6142   23.9700 H   0  0  0  0  0  0
  -21.1488   -6.0524   25.9065 H   0  0  0  0  0  0
  -22.0595   -2.7608   23.2857 H   0  0  0  0  0  0
  -22.4102  -11.9890   22.4821 H   0  0  0  0  0  0
  -21.1106  -13.1232   22.2648 H   0  0  0  0  0  0
  -24.6591  -15.8455   20.4688 H   0  0  0  0  0  0
  -26.2830  -15.6221   20.0707 H   0  0  0  0  0  0
  -26.7147  -32.5534   23.1174 H   0  0  0  0  0  0
  -25.0064  -33.9778   25.0491 H   0  0  0  0  0  0
  -22.6952  -31.3192   21.4053 H   0  0  0  0  0  0
  -23.3732  -35.9701   23.3322 H   0  0  0  0  0  0
  -24.3601  -36.8916   22.2052 H   0  0  0  0  0  0
  -23.7267  -37.6578   23.6622 H   0  0  0  0  0  0
  -26.0403  -31.5959   20.5927 H   0  0  0  0  0  0
  -26.8226  -30.8914   21.9747 H   0  0  0  0  0  0
  -28.0930  -29.0902   21.1801 H   0  0  0  0  0  0
  -26.0562  -26.0045   18.9466 H   0  0  0  0  0  0
  -23.9827  -27.3182   19.0001 H   0  0  0  0  0  0
  -23.7307  -30.6161   19.4052 H   0  0  0  0  0  0
  -22.7340  -29.2674   19.8505 H   0  0  0  0  0  0
  -25.1281  -36.2014   25.0836 H   0  0  0  0  0  0
  -21.0034  -28.3263   24.1364 H   0  0  0  0  0  0
  -20.5876  -26.2246   23.3471 H   0  0  0  0  0  0
  -21.6707  -26.7641   22.1006 H   0  0  0  0  0  0
  -19.6924  -25.6283   21.1191 H   0  0  0  0  0  0
  -19.6646  -27.3169   20.6704 H   0  0  0  0  0  0
  -17.4288  -26.6780   21.3877 H   0  0  0  0  0  0
  -18.0300  -26.0018   22.8883 H   0  0  0  0  0  0
  -19.7944  -30.7187   24.2344 H   0  0  0  0  0  0
  -17.4990  -31.6229   24.5131 H   0  0  0  0  0  0
  -15.5358  -30.2977   23.7497 H   0  0  0  0  0  0
  -15.8702  -28.0798   22.6984 H   0  0  0  0  0  0
  -24.5956  -30.6978   25.7762 H   0  0  0  0  0  0
  -24.8910  -32.2789   26.4880 H   0  0  0  0  0  0
  -25.8120  -30.8829   27.0180 H   0  0  0  0  0  0
  -26.2827  -29.6779   24.1114 H   0  0  0  0  0  0
  -27.4113  -29.7242   25.4473 H   0  0  0  0  0  0
  -27.8652  -30.4353   23.9153 H   0  0  0  0  0  0
  -27.2727  -33.3551   26.2097 H   0  0  0  0  0  0
  -28.3874  -32.6820   25.0283 H   0  0  0  0  0  0
  -28.0758  -31.8313   26.5326 H   0  0  0  0  0  0
  -28.2621  -38.0119   24.7476 H   0  0  0  0  0  0
  -28.1065  -36.2644   24.6320 H   0  0  0  0  0  0
  -27.2296  -37.1516   25.8864 H   0  0  0  0  0  0
  -20.9255  -29.8715   21.6793 H   0  0  0  0  0  0
  -26.0204  -38.2892   24.1346 H   0  0  0  0  0  0
  -30.0590  -17.8786   16.8984 H   0  0  0  0  0  0
  -29.4248  -19.9743   18.0203 H   0  0  0  0  0  0
  -30.3488  -15.8059   18.1711 H   0  0  0  0  0  0
  -29.2826  -17.8931   21.8089 H   0  0  0  0  0  0
  -26.4895  -21.5448   21.5366 H   0  0  0  0  0  0
  -25.9621  -22.6872   20.3199 H   0  0  0  0  0  0
  -26.3164  -23.2099   21.9534 H   0  0  0  0  0  0
  -30.2087  -24.5564   21.8286 H   0  0  0  0  0  0
  -30.1898  -26.3132   21.9038 H   0  0  0  0  0  0
  -30.6223  -25.4903   20.4104 H   0  0  0  0  0  0
  -26.5334  -25.5014   21.8614 H   0  0  0  0  0  0
  -27.7667  -26.4506   22.6757 H   0  0  0  0  0  0
  -27.7939  -24.7056   22.7939 H   0  0  0  0  0  0
  -29.6414  -20.5372   21.5539 H   0  0  0  0  0  0
  -27.9884  -20.0962   21.2937 H   0  0  0  0  0  0
  -28.0710  -21.4405   19.0699 H   0  0  0  0  0  0
  -29.6913  -21.9247   19.5311 H   0  0  0  0  0  0
  -27.2539  -24.3354   19.4369 H   0  0  0  0  0  0
  -28.9405  -24.1462   19.1961 H   0  0  0  0  0  0
  -28.7224  -22.8971   21.6349 H   0  0  0  0  0  0
  -29.0833  -15.2605   21.3825 H   0  0  0  0  0  0
  1 25  1  0  0  0
  1 30  2  0  0  0
  1 85  1  0  0  0
  2  3  1  0  0  0
  2 25  1  0  0  0
  2 86  1  0  0  0
  2 87  1  0  0  0
  3  4  1  0  0  0
  3 88  1  0  0  0
  3 89  1  0  0  0
  4  5  1  0  0  0
  4 90  1  0  0  0
  4 91  1  0  0  0
  5  6  1  0  0  0
  5 26  1  0  0  0
  5 92  1  0  0  0
  6 25  1  0  0  0
  6 93  1  0  0  0
  6 94  1  0  0  0
  7  8  2  0  0  0
  7 26  1  0  0  0
  7 29  1  0  0  0
  8  9  1  0  0  0
  8 22  1  0  0  0
  9 10  1  0  0  0
  9 27  2  0  0  0
 10 11  2  0  0  0
 10 15  1  0  0  0
 11 12  1  0  0  0
 11 95  1  0  0  0
 12 13  2  0  0  0
 12 96  1  0  0  0
 13 14  1  0  0  0
 13 31  1  0  0  0
 14 15  2  0  0  0
 14 97  1  0  0  0
 15 98  1  0  0  0
 16 17  2  0  0  0
 16 21  1  0  0  0
 16 31  1  0  0  0
 17 18  1  0  0  0
 17 99  1  0  0  0
 18 19  2  0  0  0
 18100  1  0  0  0
 19 20  1  0  0  0
 19 24  1  0  0  0
 20 21  2  0  0  0
 20101  1  0  0  0
 21 23  1  0  0  0
 22 28  1  0  0  0
 22 32  2  0  0  0
 26 27  1  0  0  0
 28102  1  0  0  0
 28103  1  0  0  0
 29104  1  0  0  0
 29105  1  0  0  0
 33 34  1  0  0  0
 33 66  1  0  0  0
 33 70  2  0  0  0
 34 36  1  0  0  0
 34 59  1  0  0  0
 34106  1  0  0  0
 35 44  2  0  0  0
 35 45  1  0  0  0
 35 68  1  0  0  0
 36 56  1  0  0  0
 36107  1  0  0  0
 37 39  1  0  0  0
 37 47  1  0  0  0
 37 66  1  0  0  0
 37108  1  0  0  0
 38 43  2  0  0  0
 38 46  1  0  0  0
 38 47  1  0  0  0
 39 64  1  0  0  0
 39 67  2  0  0  0
 40 52  1  0  0  0
 40 53  2  0  0  0
 40 58  1  0  0  0
 41109  1  0  0  0
 41110  1  0  0  0
 41111  1  0  0  0
 41 48  1  0  0  0
 42 43  1  0  0  0
 42 66  1  0  0  0
 42112  1  0  0  0
 42113  1  0  0  0
 43 44  1  0  0  0
 44114  1  0  0  0
 45 46  2  0  0  0
 45115  1  0  0  0
 46116  1  0  0  0
 47117  1  0  0  0
 47118  1  0  0  0
 48 56  1  0  0  0
 48 65  1  0  0  0
 48119  1  0  0  0
 49 50  1  0  0  0
 49 53  1  0  0  0
 49 64  1  0  0  0
 49120  1  0  0  0
 50 51  1  0  0  0
 50121  1  0  0  0
 50122  1  0  0  0
 51 52  1  0  0  0
 51123  1  0  0  0
 51124  1  0  0  0
 52125  1  0  0  0
 52126  1  0  0  0
 53 54  1  0  0  0
 54 55  2  0  0  0
 54127  1  0  0  0
 55 57  1  0  0  0
 55128  1  0  0  0
 56 69  2  0  0  0
 57 58  2  0  0  0
 57129  1  0  0  0
 58130  1  0  0  0
 59 60  1  0  0  0
 59 61  1  0  0  0
 59 62  1  0  0  0
 60131  1  0  0  0
 60132  1  0  0  0
 60133  1  0  0  0
 61134  1  0  0  0
 61135  1  0  0  0
 61136  1  0  0  0
 62137  1  0  0  0
 62138  1  0  0  0
 62139  1  0  0  0
 63 65  1  0  0  0
 63140  1  0  0  0
 63141  1  0  0  0
 63142  1  0  0  0
 64143  1  0  0  0
 65144  1  0  0  0
 68 84  1  0  0  0
 71 72  2  0  0  0
 71 73  1  0  0  0
 71145  1  0  0  0
 72 75  1  0  0  0
 72146  1  0  0  0
 73 76  2  0  0  0
 73147  1  0  0  0
 74 75  2  0  0  0
 74 76  1  0  0  0
 74148  1  0  0  0
 75 80  1  0  0  0
 76 85  1  0  0  0
 77149  1  0  0  0
 77150  1  0  0  0
 77151  1  0  0  0
 77 83  1  0  0  0
 78152  1  0  0  0
 78153  1  0  0  0
 78154  1  0  0  0
 78 84  1  0  0  0
 79 84  1  0  0  0
 79155  1  0  0  0
 79156  1  0  0  0
 79157  1  0  0  0
 80 81  1  0  0  0
 80158  1  0  0  0
 80159  1  0  0  0
 81 83  1  0  0  0
 81160  1  0  0  0
 81161  1  0  0  0
 82 83  1  0  0  0
 82 84  1  0  0  0
 82162  1  0  0  0
 82163  1  0  0  0
 83164  1  0  0  0
 85165  1  0  0  0
M  ISO  4   1 100  68 101  84 101  85 100
M  END
> <chiral flag>
0

> <version>
0

> <s_m_source_file>
/data/baiqing/PycharmProjects/Reinvent-master-3.2/result/LINK_invent/BTK/process_docking_weight1_custom_product_contain_oxygen_bond_distance_aromatic_linkinvent_7_9_3/rearranged_h_0136.sdf

> <i_m_source_file_index>
59

> <r_mmod_Potential_Energy-OPLS-2005>
31.6618938446045

> <r_mmod_Stretch_Energy-OPLS-2005>
39.0950813293457

> <r_mmod_Bend_Energy-OPLS-2005>
102.792350769043

> <r_mmod_Torsional_Energy-OPLS-2005>
275.050140380859

> <r_mmod_Improper_Torsional_Energy-OPLS-2005>
7.2510838508606

> <r_mmod_Van_der_Waal_Energy-OPLS-2005>
163.085342407227

> <r_mmod_Electrostatic_Energy-OPLS-2005>
-376.791839599609

> <r_mmod_Solvation_Energy-OPLS-2005>
-192.023483276367

> <b_mmod_Minimization_Converged-OPLS-2005>
0

> <r_mmod_RMS_Derivative-OPLS-2005>
4.42379665374756

$$$$
59
                    3D
 Structure written by MMmdl.
156164  0  0  1  0            999 V2000
  -30.6262  -14.6090   20.5240 C   0  0  0  0  0  0
  -30.4427  -12.3772   19.4556 C   0  0  0  0  0  0
  -29.5132  -12.5055   18.2281 C   0  0  0  0  0  0
  -28.0343  -12.3463   18.6371 C   0  0  0  0  0  0
  -27.6589  -13.2111   19.8699 C   0  0  2  0  0  0
  -28.6993  -13.0391   20.9999 C   0  0  0  0  0  0
  -25.2582  -13.8159   20.5701 C   0  0  0  0  0  0
  -24.1829  -13.0441   20.9189 C   0  0  0  0  0  0
  -24.6380  -11.6908   20.8727 C   0  0  0  0  0  0
  -23.9049  -10.4285   21.0393 C   0  0  0  0  0  0
  -24.3600   -9.4205   21.9166 C   0  0  0  0  0  0
  -23.6288   -8.2234   22.0740 C   0  0  0  0  0  0
  -22.4264   -8.0269   21.3534 C   0  0  0  0  0  0
  -21.9896   -9.0245   20.4643 C   0  0  0  0  0  0
  -22.7222  -10.2125   20.3050 C   0  0  0  0  0  0
  -21.6848   -6.0733   22.5276 C   0  0  0  0  0  0
  -21.4015   -6.5636   23.8212 C   0  0  0  0  0  0
  -21.3666   -5.6784   24.9174 C   0  0  0  0  0  0
  -21.6036   -4.3045   24.7220 C   0  0  0  0  0  0
  -21.8822   -3.8144   23.4342 C   0  0  0  0  0  0
  -21.9191   -4.6960   22.3400 C   0  0  0  0  0  0
  -22.7850  -13.5245   21.1854 C   0  0  0  0  0  0
  -22.1656   -4.2154   21.0980 F   0  0  0  0  0  0
  -21.5632   -3.4533   25.7734 F   0  0  0  0  0  0
  -30.0209  -13.3831   20.4488 N   0  0  0  0  0  0
  -26.3008  -12.9334   20.3339 N   0  0  0  0  0  0
  -25.9305  -11.6494   20.5740 N   0  0  0  0  0  0
  -22.0488  -12.8248   22.0417 N   0  0  0  0  0  0
  -25.4316  -15.1880   20.4148 N   0  0  0  0  0  0
  -31.7609  -14.8003   20.0768 O   0  0  0  0  0  0
  -21.6632   -6.8869   21.4236 O   0  0  0  0  0  0
  -22.3535  -14.5550   20.6700 O   0  0  0  0  0  0
  -24.6225  -31.8619   23.2037 C   0  0  0  0  0  0
  -25.9073  -32.4802   23.8361 C   0  0  1  0  0  0
  -27.2283  -27.3426   20.1053 C   0  0  0  0  0  0
  -25.5894  -33.8606   24.2273 N   0  0  0  0  0  0
  -23.4164  -30.4846   21.5474 C   0  0  2  0  0  0
  -24.8633  -28.9452   20.1139 C   0  0  0  0  0  0
  -22.7466  -29.4620   22.4959 C   0  0  0  0  0  0
  -18.0280  -28.1393   22.8490 C   0  0  0  0  0  0
  -24.1488  -36.7304   23.2636 C   0  0  0  0  0  0
  -25.9561  -30.7979   21.3753 C   0  0  0  0  0  0
  -26.0313  -29.4273   20.7180 C   0  0  0  0  0  0
  -27.2147  -28.6346   20.7094 C   0  0  0  0  0  0
  -26.0357  -26.9124   19.4751 C   0  0  0  0  0  0
  -24.8653  -27.6906   19.4880 C   0  0  0  0  0  0
  -23.6306  -29.8209   20.1630 C   0  0  0  0  0  0
  -25.4114  -36.3101   24.0329 C   0  0  1  0  0  0
  -20.5878  -28.3678   23.1303 C   0  0  2  0  0  0
  -20.6773  -26.9407   22.5414 C   0  0  0  0  0  0
  -19.5750  -26.6387   21.5218 C   0  0  0  0  0  0
  -18.1929  -26.7932   22.1631 C   0  0  0  0  0  0
  -19.1532  -28.8852   23.2892 C   0  0  0  0  0  0
  -18.9460  -30.1460   23.8900 C   0  0  0  0  0  0
  -17.6463  -30.6595   24.0561 C   0  0  0  0  0  0
  -25.9045  -34.9470   23.5107 C   0  0  0  0  0  0
  -16.5353  -29.9094   23.6336 C   0  0  0  0  0  0
  -16.7269  -28.6516   23.0347 C   0  0  0  0  0  0
  -26.4453  -31.6612   25.0728 C   0  0  0  0  0  0
  -25.3683  -31.3775   26.1458 C   0  0  0  0  0  0
  -27.0276  -30.3030   24.6178 C   0  0  0  0  0  0
  -27.6021  -32.4338   25.7495 C   0  0  0  0  0  0
  -27.5582  -37.1808   24.8460 C   0  0  0  0  0  0
  -21.4177  -29.3035   22.3700 N   0  0  0  0  0  0
  -26.4291  -37.3793   23.9408 N   0  0  0  0  0  0
  -24.6835  -31.0648   22.0990 N   0  0  0  0  0  0
  -23.4203  -28.8158   23.3021 O   0  0  0  0  0  0
  -28.3584  -26.5143   20.1521 O   0  0  0  0  0  0
  -26.5627  -34.8935   22.4679 O   0  0  0  0  0  0
  -23.5389  -32.1405   23.7372 O   0  0  0  0  0  0
  -29.6921  -19.3209   21.8470 C   0  0  0  0  0  0
  -30.1621  -17.7088   19.6133 C   0  0  0  0  0  0
  -29.9306  -19.9834   20.6159 C   0  0  0  0  0  0
  -30.1405  -19.1345   19.4846 C   0  0  0  0  0  0
  -29.9489  -17.0630   20.8588 C   0  0  0  0  0  0
  -29.6814  -17.9048   21.9657 C   0  0  0  0  0  0
  -30.1120  -21.5036   20.6011 C   0  0  0  0  0  0
  -30.3695  -19.7381   18.1093 C   0  0  0  0  0  0
  -29.0181  -22.5130   20.1096 C   0  0  0  0  0  0
  -29.2825  -24.0654   20.3766 C   0  0  0  0  0  0
  -28.1725  -25.0760   19.8926 C   0  0  0  0  0  0
  -31.2053  -21.9757   21.0244 N   0  0  0  0  0  0
  -29.8607  -15.6200   21.0223 N   0  0  0  0  0  0
  -29.4204  -17.3476   23.1732 F   0  0  0  0  0  0
  -31.4856  -12.5000   19.1585 H   0  0  0  0  0  0
  -30.3744  -11.3771   19.8848 H   0  0  0  0  0  0
  -29.7776  -11.7567   17.4800 H   0  0  0  0  0  0
  -29.6585  -13.4779   17.7535 H   0  0  0  0  0  0
  -27.8658  -11.2921   18.8624 H   0  0  0  0  0  0
  -27.3821  -12.5841   17.7965 H   0  0  0  0  0  0
  -27.6886  -14.2503   19.5411 H   0  0  0  0  0  0
  -28.7036  -12.0089   21.3596 H   0  0  0  0  0  0
  -28.4423  -13.6468   21.8680 H   0  0  0  0  0  0
  -25.2750   -9.5694   22.4736 H   0  0  0  0  0  0
  -24.0004   -7.4634   22.7459 H   0  0  0  0  0  0
  -21.0824   -8.8762   19.8957 H   0  0  0  0  0  0
  -22.3670  -10.9658   19.6159 H   0  0  0  0  0  0
  -21.2001   -7.6141   23.9724 H   0  0  0  0  0  0
  -21.1489   -6.0505   25.9077 H   0  0  0  0  0  0
  -22.0597   -2.7609   23.2837 H   0  0  0  0  0  0
  -22.4109  -11.9923   22.4822 H   0  0  0  0  0  0
  -21.1107  -13.1283   22.2619 H   0  0  0  0  0  0
  -24.6659  -15.8442   20.5243 H   0  0  0  0  0  0
  -26.2817  -15.6259   20.0826 H   0  0  0  0  0  0
  -26.7147  -32.5477   23.1120 H   0  0  0  0  0  0
  -25.0012  -33.9752   25.0397 H   0  0  0  0  0  0
  -22.7085  -31.3034   21.4046 H   0  0  0  0  0  0
  -23.3758  -35.9628   23.3299 H   0  0  0  0  0  0
  -24.3579  -36.8920   22.2049 H   0  0  0  0  0  0
  -23.7238  -37.6507   23.6655 H   0  0  0  0  0  0
  -26.0849  -31.5610   20.6066 H   0  0  0  0  0  0
  -26.8375  -30.8474   22.0032 H   0  0  0  0  0  0
  -28.1106  -28.9963   21.1953 H   0  0  0  0  0  0
  -25.9759  -25.9611   18.9691 H   0  0  0  0  0  0
  -23.9694  -27.3146   19.0123 H   0  0  0  0  0  0
  -23.7498  -30.5956   19.4046 H   0  0  0  0  0  0
  -22.7524  -29.2463   19.8621 H   0  0  0  0  0  0
  -25.1297  -36.1954   25.0823 H   0  0  0  0  0  0
  -20.9966  -28.3252   24.1428 H   0  0  0  0  0  0
  -20.5694  -26.2282   23.3609 H   0  0  0  0  0  0
  -21.6643  -26.7461   22.1197 H   0  0  0  0  0  0
  -19.6908  -25.6301   21.1248 H   0  0  0  0  0  0
  -19.6688  -27.3201   20.6756 H   0  0  0  0  0  0
  -17.4194  -26.6671   21.4037 H   0  0  0  0  0  0
  -18.0333  -26.0083   22.9041 H   0  0  0  0  0  0
  -19.7936  -30.7270   24.2272 H   0  0  0  0  0  0
  -17.5021  -31.6278   24.5159 H   0  0  0  0  0  0
  -15.5356  -30.2995   23.7665 H   0  0  0  0  0  0
  -15.8670  -28.0843   22.7055 H   0  0  0  0  0  0
  -24.5850  -30.7129   25.7797 H   0  0  0  0  0  0
  -24.8874  -32.2955   26.4852 H   0  0  0  0  0  0
  -25.7987  -30.8978   27.0257 H   0  0  0  0  0  0
  -26.2850  -29.6829   24.1146 H   0  0  0  0  0  0
  -27.3905  -29.7245   25.4683 H   0  0  0  0  0  0
  -27.8751  -30.4308   23.9441 H   0  0  0  0  0  0
  -27.2636  -33.3638   26.2081 H   0  0  0  0  0  0
  -28.3827  -32.6905   25.0320 H   0  0  0  0  0  0
  -28.0697  -31.8460   26.5406 H   0  0  0  0  0  0
  -28.2603  -38.0103   24.7522 H   0  0  0  0  0  0
  -28.1076  -36.2640   24.6269 H   0  0  0  0  0  0
  -27.2302  -37.1446   25.8862 H   0  0  0  0  0  0
  -20.9348  -29.8759   21.6918 H   0  0  0  0  0  0
  -26.0177  -38.2866   24.1421 H   0  0  0  0  0  0
  -29.5380  -19.9112   22.7386 H   0  0  0  0  0  0
  -30.3257  -17.0998   18.7352 H   0  0  0  0  0  0
  -30.4445  -18.9682   17.3404 H   0  0  0  0  0  0
  -31.2882  -20.3239   18.0905 H   0  0  0  0  0  0
  -29.5412  -20.3927   17.8371 H   0  0  0  0  0  0
  -28.0701  -22.2299   20.5676 H   0  0  0  0  0  0
  -28.8857  -22.3655   19.0380 H   0  0  0  0  0  0
  -30.2242  -24.3460   19.9041 H   0  0  0  0  0  0
  -29.4309  -24.2181   21.4462 H   0  0  0  0  0  0
  -27.2441  -24.7478   20.3616 H   0  0  0  0  0  0
  -28.0418  -24.9476   18.8167 H   0  0  0  0  0  0
  -31.8311  -21.2337   21.3190 H   0  0  0  0  0  0
  -29.0582  -15.3081   21.5474 H   0  0  0  0  0  0
  1 25  1  0  0  0
  1 30  2  0  0  0
  1 83  1  0  0  0
  2  3  1  0  0  0
  2 25  1  0  0  0
  2 85  1  0  0  0
  2 86  1  0  0  0
  3  4  1  0  0  0
  3 87  1  0  0  0
  3 88  1  0  0  0
  4  5  1  0  0  0
  4 89  1  0  0  0
  4 90  1  0  0  0
  5  6  1  0  0  0
  5 26  1  0  0  0
  5 91  1  0  0  0
  6 25  1  0  0  0
  6 92  1  0  0  0
  6 93  1  0  0  0
  7  8  2  0  0  0
  7 26  1  0  0  0
  7 29  1  0  0  0
  8  9  1  0  0  0
  8 22  1  0  0  0
  9 10  1  0  0  0
  9 27  2  0  0  0
 10 11  2  0  0  0
 10 15  1  0  0  0
 11 12  1  0  0  0
 11 94  1  0  0  0
 12 13  2  0  0  0
 12 95  1  0  0  0
 13 14  1  0  0  0
 13 31  1  0  0  0
 14 15  2  0  0  0
 14 96  1  0  0  0
 15 97  1  0  0  0
 16 17  2  0  0  0
 16 21  1  0  0  0
 16 31  1  0  0  0
 17 18  1  0  0  0
 17 98  1  0  0  0
 18 19  2  0  0  0
 18 99  1  0  0  0
 19 20  1  0  0  0
 19 24  1  0  0  0
 20 21  2  0  0  0
 20100  1  0  0  0
 21 23  1  0  0  0
 22 28  1  0  0  0
 22 32  2  0  0  0
 26 27  1  0  0  0
 28101  1  0  0  0
 28102  1  0  0  0
 29103  1  0  0  0
 29104  1  0  0  0
 33 34  1  0  0  0
 33 66  1  0  0  0
 33 70  2  0  0  0
 34 36  1  0  0  0
 34 59  1  0  0  0
 34105  1  0  0  0
 35 44  2  0  0  0
 35 45  1  0  0  0
 35 68  1  0  0  0
 36 56  1  0  0  0
 36106  1  0  0  0
 37 39  1  0  0  0
 37 47  1  0  0  0
 37 66  1  0  0  0
 37107  1  0  0  0
 38 43  2  0  0  0
 38 46  1  0  0  0
 38 47  1  0  0  0
 39 64  1  0  0  0
 39 67  2  0  0  0
 40 52  1  0  0  0
 40 53  2  0  0  0
 40 58  1  0  0  0
 41108  1  0  0  0
 41109  1  0  0  0
 41110  1  0  0  0
 41 48  1  0  0  0
 42 43  1  0  0  0
 42 66  1  0  0  0
 42111  1  0  0  0
 42112  1  0  0  0
 43 44  1  0  0  0
 44113  1  0  0  0
 45 46  2  0  0  0
 45114  1  0  0  0
 46115  1  0  0  0
 47116  1  0  0  0
 47117  1  0  0  0
 48 56  1  0  0  0
 48 65  1  0  0  0
 48118  1  0  0  0
 49 50  1  0  0  0
 49 53  1  0  0  0
 49 64  1  0  0  0
 49119  1  0  0  0
 50 51  1  0  0  0
 50120  1  0  0  0
 50121  1  0  0  0
 51 52  1  0  0  0
 51122  1  0  0  0
 51123  1  0  0  0
 52124  1  0  0  0
 52125  1  0  0  0
 53 54  1  0  0  0
 54 55  2  0  0  0
 54126  1  0  0  0
 55 57  1  0  0  0
 55127  1  0  0  0
 56 69  2  0  0  0
 57 58  2  0  0  0
 57128  1  0  0  0
 58129  1  0  0  0
 59 60  1  0  0  0
 59 61  1  0  0  0
 59 62  1  0  0  0
 60130  1  0  0  0
 60131  1  0  0  0
 60132  1  0  0  0
 61133  1  0  0  0
 61134  1  0  0  0
 61135  1  0  0  0
 62136  1  0  0  0
 62137  1  0  0  0
 62138  1  0  0  0
 63 65  1  0  0  0
 63139  1  0  0  0
 63140  1  0  0  0
 63141  1  0  0  0
 64142  1  0  0  0
 65143  1  0  0  0
 68 81  1  0  0  0
 71 73  2  0  0  0
 71 76  1  0  0  0
 71144  1  0  0  0
 72 74  2  0  0  0
 72 75  1  0  0  0
 72145  1  0  0  0
 73 74  1  0  0  0
 73 77  1  0  0  0
 74 78  1  0  0  0
 75 76  2  0  0  0
 75 83  1  0  0  0
 76 84  1  0  0  0
 77 79  1  0  0  0
 77 82  2  0  0  0
 78146  1  0  0  0
 78147  1  0  0  0
 78148  1  0  0  0
 79 80  1  0  0  0
 79149  1  0  0  0
 79150  1  0  0  0
 80 81  1  0  0  0
 80151  1  0  0  0
 80152  1  0  0  0
 81153  1  0  0  0
 81154  1  0  0  0
 82155  1  0  0  0
 83156  1  0  0  0
M  ISO  4   1 100  68 101  81 101  83 100
M  END
> <chiral flag>
0

> <version>
0

> <s_m_source_file>
/data/baiqing/PycharmProjects/Reinvent-master-3.2/result/LINK_invent/BTK/process_docking_weight1_custom_product_contain_oxygen_bond_distance_aromatic_linkinvent_7_9_3/rearranged_h_0136.sdf

> <i_m_source_file_index>
60

> <r_mmod_Potential_Energy-OPLS-2005>
-17.141471862793

> <r_mmod_Stretch_Energy-OPLS-2005>
70.5244979858398

> <r_mmod_Bend_Energy-OPLS-2005>
122.606086730957

> <r_mmod_Torsional_Energy-OPLS-2005>
245.393295288086

> <r_mmod_Improper_Torsional_Energy-OPLS-2005>
3.94022989273071

> <r_mmod_Van_der_Waal_Energy-OPLS-2005>
148.068008422852

> <r_mmod_Electrostatic_Energy-OPLS-2005>
-434.460174560547

> <r_mmod_Solvation_Energy-OPLS-2005>
-212.166687011719

> <b_mmod_Minimization_Converged-OPLS-2005>
0

> <r_mmod_RMS_Derivative-OPLS-2005>
1.90271711349487

$$$$
60
                    3D
 Structure written by MMmdl.
161169  0  0  1  0            999 V2000
  -30.5450  -14.8437   20.4514 C   0  0  0  0  0  0
  -30.4443  -12.5187   19.4835 C   0  0  0  0  0  0
  -29.5192  -12.5302   18.2439 C   0  0  0  0  0  0
  -28.0444  -12.3404   18.6515 C   0  0  0  0  0  0
  -27.6400  -13.2386   19.8505 C   0  0  2  0  0  0
  -28.6838  -13.1860   20.9875 C   0  0  0  0  0  0
  -25.2506  -13.8220   20.5692 C   0  0  0  0  0  0
  -24.1810  -13.0450   20.9230 C   0  0  0  0  0  0
  -24.6409  -11.6931   20.8762 C   0  0  0  0  0  0
  -23.9079  -10.4309   21.0413 C   0  0  0  0  0  0
  -24.3631   -9.4219   21.9188 C   0  0  0  0  0  0
  -23.6309   -8.2251   22.0757 C   0  0  0  0  0  0
  -22.4286   -8.0292   21.3549 C   0  0  0  0  0  0
  -21.9920   -9.0265   20.4652 C   0  0  0  0  0  0
  -22.7252  -10.2146   20.3062 C   0  0  0  0  0  0
  -21.6859   -6.0742   22.5285 C   0  0  0  0  0  0
  -21.4018   -6.5644   23.8220 C   0  0  0  0  0  0
  -21.3654   -5.6792   24.9178 C   0  0  0  0  0  0
  -21.6049   -4.3058   24.7224 C   0  0  0  0  0  0
  -21.8816   -3.8151   23.4345 C   0  0  0  0  0  0
  -21.9189   -4.6972   22.3401 C   0  0  0  0  0  0
  -22.7827  -13.5232   21.1890 C   0  0  0  0  0  0
  -22.1663   -4.2155   21.0982 F   0  0  0  0  0  0
  -21.5625   -3.4545   25.7739 F   0  0  0  0  0  0
  -29.9759  -13.5814   20.4088 N   0  0  0  0  0  0
  -26.2933  -12.9428   20.3271 N   0  0  0  0  0  0
  -25.9339  -11.6562   20.5740 N   0  0  0  0  0  0
  -22.0463  -12.8215   22.0442 N   0  0  0  0  0  0
  -25.4156  -15.1952   20.4091 N   0  0  0  0  0  0
  -31.7243  -14.9682   20.1080 O   0  0  0  0  0  0
  -21.6645   -6.8892   21.4246 O   0  0  0  0  0  0
  -22.3500  -14.5522   20.6719 O   0  0  0  0  0  0
  -24.6401  -31.8473   23.1916 C   0  0  0  0  0  0
  -25.9189  -32.4718   23.8300 C   0  0  1  0  0  0
  -27.2098  -27.1755   20.1494 C   0  0  0  0  0  0
  -25.5962  -33.8522   24.2217 N   0  0  0  0  0  0
  -23.4415  -30.4675   21.5369 C   0  0  2  0  0  0
  -24.8886  -28.8988   20.1152 C   0  0  0  0  0  0
  -22.7555  -29.4557   22.4885 C   0  0  0  0  0  0
  -18.0302  -28.1418   22.8478 C   0  0  0  0  0  0
  -24.1484  -36.7265   23.2635 C   0  0  0  0  0  0
  -25.9939  -30.7349   21.3821 C   0  0  0  0  0  0
  -26.0656  -29.3472   20.7292 C   0  0  0  0  0  0
  -27.2313  -28.5008   20.7286 C   0  0  0  0  0  0
  -26.0111  -26.8158   19.4990 C   0  0  0  0  0  0
  -24.8711  -27.6454   19.4856 C   0  0  0  0  0  0
  -23.6659  -29.7987   20.1556 C   0  0  0  0  0  0
  -25.4121  -36.3049   24.0313 C   0  0  1  0  0  0
  -20.5909  -28.3730   23.1257 C   0  0  2  0  0  0
  -20.6790  -26.9435   22.5416 C   0  0  0  0  0  0
  -19.5762  -26.6390   21.5222 C   0  0  0  0  0  0
  -18.1941  -26.7960   22.1623 C   0  0  0  0  0  0
  -19.1554  -28.8891   23.2862 C   0  0  0  0  0  0
  -18.9473  -30.1497   23.8873 C   0  0  0  0  0  0
  -17.6464  -30.6603   24.0566 C   0  0  0  0  0  0
  -25.9071  -34.9420   23.5071 C   0  0  0  0  0  0
  -16.5357  -29.9096   23.6345 C   0  0  0  0  0  0
  -16.7285  -28.6526   23.0344 C   0  0  0  0  0  0
  -26.4515  -31.6589   25.0738 C   0  0  0  0  0  0
  -25.3700  -31.3786   26.1438 C   0  0  0  0  0  0
  -27.0360  -30.2991   24.6288 C   0  0  0  0  0  0
  -27.6059  -32.4339   25.7534 C   0  0  0  0  0  0
  -27.5570  -37.1805   24.8462 C   0  0  0  0  0  0
  -21.4246  -29.3047   22.3631 N   0  0  0  0  0  0
  -26.4283  -37.3763   23.9399 N   0  0  0  0  0  0
  -24.7124  -31.0364   22.0934 N   0  0  0  0  0  0
  -23.4224  -28.8095   23.3009 O   0  0  0  0  0  0
  -28.2753  -26.2213   20.1616 O   0  0  0  0  0  0
  -26.5632  -34.8901   22.4631 O   0  0  0  0  0  0
  -23.5532  -32.1321   23.7165 O   0  0  0  0  0  0
  -30.1927  -19.8481   21.2561 C   0  0  0  0  0  0
  -28.3170  -19.4746   19.8732 C   0  0  0  0  0  0
  -30.4902  -18.4203   21.2848 C   0  0  0  0  0  0
  -29.0786  -20.4518   20.5855 C   0  0  0  0  0  0
  -29.6921  -17.4442   20.5759 C   0  0  0  0  0  0
  -28.6031  -18.0566   19.8748 C   0  0  0  0  0  0
  -31.6332  -18.0064   22.1434 C   0  0  0  0  0  0
  -31.7086  -18.6394   23.5278 C   0  0  0  0  0  0
  -30.2718  -23.6337   19.9424 C   0  0  0  0  0  0
  -28.2217  -23.1090   18.6075 C   0  0  0  0  0  0
  -28.5564  -21.9733   20.8909 C   0  0  0  0  0  0
  -28.0229  -24.7627   20.5898 C   0  0  0  0  0  0
  -28.7600  -23.3738   20.0238 C   0  0  0  0  0  0
  -29.6904  -15.9294   20.7032 N   0  0  0  0  0  0
  -32.4991  -17.1937   21.8157 O   0  0  0  0  0  0
  -27.7368  -17.2355   19.2307 F   0  0  0  0  0  0
  -31.4816  -12.6694   19.1782 H   0  0  0  0  0  0
  -30.4178  -11.5458   19.9757 H   0  0  0  0  0  0
  -29.8165  -11.7510   17.5410 H   0  0  0  0  0  0
  -29.6309  -13.4775   17.7138 H   0  0  0  0  0  0
  -27.9048  -11.2907   18.9126 H   0  0  0  0  0  0
  -27.3892  -12.5328   17.8008 H   0  0  0  0  0  0
  -27.6251  -14.2580   19.4635 H   0  0  0  0  0  0
  -28.7436  -12.1844   21.4169 H   0  0  0  0  0  0
  -28.4002  -13.8516   21.8052 H   0  0  0  0  0  0
  -25.2772   -9.5689   22.4766 H   0  0  0  0  0  0
  -24.0015   -7.4636   22.7470 H   0  0  0  0  0  0
  -21.0852   -8.8791   19.8958 H   0  0  0  0  0  0
  -22.3712  -10.9688   19.6178 H   0  0  0  0  0  0
  -21.2007   -7.6156   23.9726 H   0  0  0  0  0  0
  -21.1487   -6.0527   25.9085 H   0  0  0  0  0  0
  -22.0592   -2.7613   23.2846 H   0  0  0  0  0  0
  -22.4082  -11.9875   22.4831 H   0  0  0  0  0  0
  -21.1080  -13.1245   22.2648 H   0  0  0  0  0  0
  -24.6339  -15.8337   20.5084 H   0  0  0  0  0  0
  -26.2348  -15.6401   20.0114 H   0  0  0  0  0  0
  -26.7265  -32.5332   23.1044 H   0  0  0  0  0  0
  -25.0136  -33.9648   25.0385 H   0  0  0  0  0  0
  -22.7434  -31.2934   21.3860 H   0  0  0  0  0  0
  -23.3743  -35.9598   23.3303 H   0  0  0  0  0  0
  -24.3569  -36.8892   22.2047 H   0  0  0  0  0  0
  -23.7233  -37.6466   23.6668 H   0  0  0  0  0  0
  -26.1345  -31.4870   20.6057 H   0  0  0  0  0  0
  -26.8712  -30.7940   22.0157 H   0  0  0  0  0  0
  -28.1331  -28.8363   21.2220 H   0  0  0  0  0  0
  -25.9396  -25.8582   19.0029 H   0  0  0  0  0  0
  -23.9715  -27.3003   18.9936 H   0  0  0  0  0  0
  -23.8040  -30.5742   19.4002 H   0  0  0  0  0  0
  -22.7816  -29.2422   19.8422 H   0  0  0  0  0  0
  -25.1305  -36.1891   25.0807 H   0  0  0  0  0  0
  -20.9995  -28.3312   24.1383 H   0  0  0  0  0  0
  -20.5705  -26.2326   23.3625 H   0  0  0  0  0  0
  -21.6657  -26.7460   22.1200 H   0  0  0  0  0  0
  -19.6918  -25.6293   21.1273 H   0  0  0  0  0  0
  -19.6717  -27.3182   20.6741 H   0  0  0  0  0  0
  -17.4216  -26.6706   21.4023 H   0  0  0  0  0  0
  -18.0337  -26.0123   22.9040 H   0  0  0  0  0  0
  -19.7943  -30.7331   24.2225 H   0  0  0  0  0  0
  -17.5010  -31.6278   24.5179 H   0  0  0  0  0  0
  -15.5355  -30.2980   23.7696 H   0  0  0  0  0  0
  -15.8690  -28.0841   22.7057 H   0  0  0  0  0  0
  -24.5910  -30.7088   25.7781 H   0  0  0  0  0  0
  -24.8839  -32.2964   26.4767 H   0  0  0  0  0  0
  -25.7986  -30.9055   27.0280 H   0  0  0  0  0  0
  -26.2966  -29.6763   24.1238 H   0  0  0  0  0  0
  -27.3921  -29.7258   25.4857 H   0  0  0  0  0  0
  -27.8898  -30.4244   23.9622 H   0  0  0  0  0  0
  -27.2673  -33.3665   26.2057 H   0  0  0  0  0  0
  -28.3915  -32.6848   25.0400 H   0  0  0  0  0  0
  -28.0667  -31.8487   26.5506 H   0  0  0  0  0  0
  -28.2592  -38.0098   24.7499 H   0  0  0  0  0  0
  -28.1065  -36.2628   24.6310 H   0  0  0  0  0  0
  -27.2288  -37.1475   25.8866 H   0  0  0  0  0  0
  -20.9458  -29.8770   21.6816 H   0  0  0  0  0  0
  -26.0152  -38.2828   24.1419 H   0  0  0  0  0  0
  -30.8098  -20.5092   21.8485 H   0  0  0  0  0  0
  -27.4203  -19.7977   19.3655 H   0  0  0  0  0  0
  -30.7116  -18.8828   23.8949 H   0  0  0  0  0  0
  -32.3003  -19.5531   23.4949 H   0  0  0  0  0  0
  -32.1743  -17.9495   24.2319 H   0  0  0  0  0  0
  -30.8039  -22.7571   19.5675 H   0  0  0  0  0  0
  -30.6834  -23.8730   20.9242 H   0  0  0  0  0  0
  -30.5009  -24.4676   19.2779 H   0  0  0  0  0  0
  -28.7597  -22.2972   18.1175 H   0  0  0  0  0  0
  -28.3085  -23.9944   17.9765 H   0  0  0  0  0  0
  -27.1675  -22.8304   18.6363 H   0  0  0  0  0  0
  -28.9185  -22.1932   21.8962 H   0  0  0  0  0  0
  -27.4804  -21.8623   21.0336 H   0  0  0  0  0  0
  -28.2234  -24.7776   21.6614 H   0  0  0  0  0  0
  -26.9511  -24.5707   20.5447 H   0  0  0  0  0  0
  -28.7522  -15.5808   20.8198 H   0  0  0  0  0  0
  1 25  1  0  0  0
  1 30  2  0  0  0
  1 84  1  0  0  0
  2  3  1  0  0  0
  2 25  1  0  0  0
  2 87  1  0  0  0
  2 88  1  0  0  0
  3  4  1  0  0  0
  3 89  1  0  0  0
  3 90  1  0  0  0
  4  5  1  0  0  0
  4 91  1  0  0  0
  4 92  1  0  0  0
  5  6  1  0  0  0
  5 26  1  0  0  0
  5 93  1  0  0  0
  6 25  1  0  0  0
  6 94  1  0  0  0
  6 95  1  0  0  0
  7  8  2  0  0  0
  7 26  1  0  0  0
  7 29  1  0  0  0
  8  9  1  0  0  0
  8 22  1  0  0  0
  9 10  1  0  0  0
  9 27  2  0  0  0
 10 11  2  0  0  0
 10 15  1  0  0  0
 11 12  1  0  0  0
 11 96  1  0  0  0
 12 13  2  0  0  0
 12 97  1  0  0  0
 13 14  1  0  0  0
 13 31  1  0  0  0
 14 15  2  0  0  0
 14 98  1  0  0  0
 15 99  1  0  0  0
 16 17  2  0  0  0
 16 21  1  0  0  0
 16 31  1  0  0  0
 17 18  1  0  0  0
 17100  1  0  0  0
 18 19  2  0  0  0
 18101  1  0  0  0
 19 20  1  0  0  0
 19 24  1  0  0  0
 20 21  2  0  0  0
 20102  1  0  0  0
 21 23  1  0  0  0
 22 28  1  0  0  0
 22 32  2  0  0  0
 26 27  1  0  0  0
 28103  1  0  0  0
 28104  1  0  0  0
 29105  1  0  0  0
 29106  1  0  0  0
 33 34  1  0  0  0
 33 66  1  0  0  0
 33 70  2  0  0  0
 34 36  1  0  0  0
 34 59  1  0  0  0
 34107  1  0  0  0
 35 44  2  0  0  0
 35 45  1  0  0  0
 35 68  1  0  0  0
 36 56  1  0  0  0
 36108  1  0  0  0
 37 39  1  0  0  0
 37 47  1  0  0  0
 37 66  1  0  0  0
 37109  1  0  0  0
 38 43  2  0  0  0
 38 46  1  0  0  0
 38 47  1  0  0  0
 39 64  1  0  0  0
 39 67  2  0  0  0
 40 52  1  0  0  0
 40 53  2  0  0  0
 40 58  1  0  0  0
 41110  1  0  0  0
 41111  1  0  0  0
 41112  1  0  0  0
 41 48  1  0  0  0
 42 43  1  0  0  0
 42 66  1  0  0  0
 42113  1  0  0  0
 42114  1  0  0  0
 43 44  1  0  0  0
 44115  1  0  0  0
 45 46  2  0  0  0
 45116  1  0  0  0
 46117  1  0  0  0
 47118  1  0  0  0
 47119  1  0  0  0
 48 56  1  0  0  0
 48 65  1  0  0  0
 48120  1  0  0  0
 49 50  1  0  0  0
 49 53  1  0  0  0
 49 64  1  0  0  0
 49121  1  0  0  0
 50 51  1  0  0  0
 50122  1  0  0  0
 50123  1  0  0  0
 51 52  1  0  0  0
 51124  1  0  0  0
 51125  1  0  0  0
 52126  1  0  0  0
 52127  1  0  0  0
 53 54  1  0  0  0
 54 55  2  0  0  0
 54128  1  0  0  0
 55 57  1  0  0  0
 55129  1  0  0  0
 56 69  2  0  0  0
 57 58  2  0  0  0
 57130  1  0  0  0
 58131  1  0  0  0
 59 60  1  0  0  0
 59 61  1  0  0  0
 59 62  1  0  0  0
 60132  1  0  0  0
 60133  1  0  0  0
 60134  1  0  0  0
 61135  1  0  0  0
 61136  1  0  0  0
 61137  1  0  0  0
 62138  1  0  0  0
 62139  1  0  0  0
 62140  1  0  0  0
 63 65  1  0  0  0
 63141  1  0  0  0
 63142  1  0  0  0
 63143  1  0  0  0
 64144  1  0  0  0
 65145  1  0  0  0
 68 82  1  0  0  0
 71 73  2  0  0  0
 71 74  1  0  0  0
 71146  1  0  0  0
 72 74  2  0  0  0
 72 76  1  0  0  0
 72147  1  0  0  0
 73 75  1  0  0  0
 73 77  1  0  0  0
 74 81  1  0  0  0
 75 76  2  0  0  0
 75 84  1  0  0  0
 76 86  1  0  0  0
 77 78  1  0  0  0
 77 85  2  0  0  0
 78148  1  0  0  0
 78149  1  0  0  0
 78150  1  0  0  0
 79151  1  0  0  0
 79152  1  0  0  0
 79153  1  0  0  0
 79 83  1  0  0  0
 80 83  1  0  0  0
 80154  1  0  0  0
 80155  1  0  0  0
 80156  1  0  0  0
 81 83  1  0  0  0
 81157  1  0  0  0
 81158  1  0  0  0
 82 83  1  0  0  0
 82159  1  0  0  0
 82160  1  0  0  0
 84161  1  0  0  0
M  ISO  4   1 100  68 101  82 101  84 100
M  END
> <chiral flag>
0

> <version>
0

> <s_m_source_file>
/data/baiqing/PycharmProjects/Reinvent-master-3.2/result/LINK_invent/BTK/process_docking_weight1_custom_product_contain_oxygen_bond_distance_aromatic_linkinvent_7_9_3/rearranged_h_0136.sdf

> <i_m_source_file_index>
61

> <r_mmod_Potential_Energy-OPLS-2005>
407.827545166016

> <r_mmod_Stretch_Energy-OPLS-2005>
190.989273071289

> <r_mmod_Bend_Energy-OPLS-2005>
241.244293212891

> <r_mmod_Torsional_Energy-OPLS-2005>
298.599090576172

> <r_mmod_Improper_Torsional_Energy-OPLS-2005>
9.63339042663574

> <r_mmod_Van_der_Waal_Energy-OPLS-2005>
124.358245849609

> <r_mmod_Electrostatic_Energy-OPLS-2005>
-377.630218505859

> <r_mmod_Solvation_Energy-OPLS-2005>
-217.832962036133

> <b_mmod_Minimization_Converged-OPLS-2005>
0

> <r_mmod_RMS_Derivative-OPLS-2005>
1.98177313804626

$$$$
61
                    3D
 Structure written by MMmdl.
147155  0  0  1  0            999 V2000
  -30.5789  -14.7616   20.4314 C   0  0  0  0  0  0
  -30.4240  -12.4560   19.4829 C   0  0  0  0  0  0
  -29.5137  -12.5320   18.2380 C   0  0  0  0  0  0
  -28.0334  -12.3623   18.6334 C   0  0  0  0  0  0
  -27.6407  -13.2371   19.8536 C   0  0  2  0  0  0
  -28.6795  -13.1608   20.9914 C   0  0  0  0  0  0
  -25.2525  -13.8215   20.5694 C   0  0  0  0  0  0
  -24.1822  -13.0460   20.9199 C   0  0  0  0  0  0
  -24.6420  -11.6939   20.8733 C   0  0  0  0  0  0
  -23.9081  -10.4313   21.0395 C   0  0  0  0  0  0
  -24.3628   -9.4235   21.9179 C   0  0  0  0  0  0
  -23.6306   -8.2262   22.0760 C   0  0  0  0  0  0
  -22.4286   -8.0302   21.3546 C   0  0  0  0  0  0
  -21.9925   -9.0262   20.4633 C   0  0  0  0  0  0
  -22.7252  -10.2146   20.3048 C   0  0  0  0  0  0
  -21.6880   -6.0749   22.5282 C   0  0  0  0  0  0
  -21.4017   -6.5647   23.8214 C   0  0  0  0  0  0
  -21.3672   -5.6799   24.9174 C   0  0  0  0  0  0
  -21.6048   -4.3054   24.7230 C   0  0  0  0  0  0
  -21.8819   -3.8148   23.4351 C   0  0  0  0  0  0
  -21.9194   -4.6963   22.3411 C   0  0  0  0  0  0
  -22.7837  -13.5225   21.1856 C   0  0  0  0  0  0
  -22.1676   -4.2162   21.0979 F   0  0  0  0  0  0
  -21.5640   -3.4540   25.7738 F   0  0  0  0  0  0
  -29.9828  -13.5184   20.4174 N   0  0  0  0  0  0
  -26.2935  -12.9429   20.3265 N   0  0  0  0  0  0
  -25.9331  -11.6559   20.5705 N   0  0  0  0  0  0
  -22.0473  -12.8221   22.0379 N   0  0  0  0  0  0
  -25.4218  -15.1959   20.4200 N   0  0  0  0  0  0
  -31.7585  -14.8637   20.0868 O   0  0  0  0  0  0
  -21.6664   -6.8890   21.4247 O   0  0  0  0  0  0
  -22.3512  -14.5541   20.6713 O   0  0  0  0  0  0
  -24.6346  -31.8592   23.1971 C   0  0  0  0  0  0
  -25.9172  -32.4754   23.8334 C   0  0  1  0  0  0
  -27.1921  -27.2308   20.1214 C   0  0  0  0  0  0
  -25.5953  -33.8551   24.2275 N   0  0  0  0  0  0
  -23.4285  -30.4850   21.5442 C   0  0  2  0  0  0
  -24.8701  -28.9378   20.1045 C   0  0  0  0  0  0
  -22.7511  -29.4627   22.4885 C   0  0  0  0  0  0
  -18.0320  -28.1404   22.8526 C   0  0  0  0  0  0
  -24.1488  -36.7280   23.2626 C   0  0  0  0  0  0
  -25.9774  -30.7680   21.3726 C   0  0  0  0  0  0
  -26.0480  -29.3865   20.7142 C   0  0  0  0  0  0
  -27.2118  -28.5432   20.7179 C   0  0  0  0  0  0
  -25.9941  -26.8732   19.4585 C   0  0  0  0  0  0
  -24.8480  -27.6875   19.4747 C   0  0  0  0  0  0
  -23.6448  -29.8313   20.1572 C   0  0  0  0  0  0
  -25.4117  -36.3050   24.0313 C   0  0  1  0  0  0
  -20.5925  -28.3706   23.1292 C   0  0  2  0  0  0
  -20.6803  -26.9411   22.5426 C   0  0  0  0  0  0
  -19.5752  -26.6392   21.5261 C   0  0  0  0  0  0
  -18.1938  -26.7952   22.1675 C   0  0  0  0  0  0
  -19.1572  -28.8878   23.2904 C   0  0  0  0  0  0
  -18.9475  -30.1498   23.8871 C   0  0  0  0  0  0
  -17.6447  -30.6584   24.0577 C   0  0  0  0  0  0
  -25.9071  -34.9427   23.5098 C   0  0  0  0  0  0
  -16.5357  -29.9064   23.6326 C   0  0  0  0  0  0
  -16.7303  -28.6513   23.0336 C   0  0  0  0  0  0
  -26.4473  -31.6536   25.0723 C   0  0  0  0  0  0
  -25.3680  -31.3756   26.1431 C   0  0  0  0  0  0
  -27.0289  -30.2930   24.6227 C   0  0  0  0  0  0
  -27.6030  -32.4241   25.7518 C   0  0  0  0  0  0
  -27.5582  -37.1785   24.8454 C   0  0  0  0  0  0
  -21.4219  -29.3049   22.3652 N   0  0  0  0  0  0
  -26.4278  -37.3766   23.9412 N   0  0  0  0  0  0
  -24.7005  -31.0536   22.0957 N   0  0  0  0  0  0
  -23.4224  -28.8189   23.2990 O   0  0  0  0  0  0
  -28.2601  -26.2963   20.2101 O   0  0  0  0  0  0
  -26.5658  -34.8887   22.4671 O   0  0  0  0  0  0
  -23.5497  -32.1429   23.7267 O   0  0  0  0  0  0
  -30.3390  -19.4984   19.1057 C   0  0  0  0  0  0
  -29.5117  -19.6618   20.1965 C   0  0  0  0  0  0
  -29.9267  -17.2925   20.2576 C   0  0  0  0  0  0
  -28.8151  -23.5848   20.5514 C   0  0  0  0  0  0
  -28.0524  -24.8375   19.8469 C   0  0  0  0  0  0
  -28.7418  -22.0879   19.9023 C   0  0  0  0  0  0
  -29.2835  -18.3747   20.8231 N   0  0  0  0  0  0
  -29.7907  -15.8796   20.6951 N   0  0  0  0  0  0
  -29.0503  -20.8778   20.7309 O   0  0  0  0  0  0
  -30.8578  -17.8255   18.8552 S   0  0  0  0  0  0
  -31.4717  -12.5669   19.1937 H   0  0  0  0  0  0
  -30.3490  -11.4762   19.9570 H   0  0  0  0  0  0
  -29.7966  -11.7718   17.5106 H   0  0  0  0  0  0
  -29.6580  -13.4946   17.7420 H   0  0  0  0  0  0
  -27.8625  -11.3093   18.8583 H   0  0  0  0  0  0
  -27.3916  -12.5948   17.7852 H   0  0  0  0  0  0
  -27.6349  -14.2629   19.4867 H   0  0  0  0  0  0
  -28.7140  -12.1617   21.4272 H   0  0  0  0  0  0
  -28.4075  -13.8320   21.8073 H   0  0  0  0  0  0
  -25.2765   -9.5746   22.4755 H   0  0  0  0  0  0
  -24.0038   -7.4666   22.7493 H   0  0  0  0  0  0
  -21.0863   -8.8760   19.8924 H   0  0  0  0  0  0
  -22.3690  -10.9684   19.6155 H   0  0  0  0  0  0
  -21.2012   -7.6152   23.9713 H   0  0  0  0  0  0
  -21.1501   -6.0538   25.9087 H   0  0  0  0  0  0
  -22.0579   -2.7612   23.2846 H   0  0  0  0  0  0
  -22.4062  -11.9879   22.4773 H   0  0  0  0  0  0
  -21.1074  -13.1215   22.2555 H   0  0  0  0  0  0
  -24.6524  -15.8447   20.5414 H   0  0  0  0  0  0
  -26.2704  -15.6426   20.0950 H   0  0  0  0  0  0
  -26.7269  -32.5386   23.1091 H   0  0  0  0  0  0
  -24.9951  -33.9709   25.0320 H   0  0  0  0  0  0
  -22.7238  -31.3066   21.4047 H   0  0  0  0  0  0
  -23.3739  -35.9610   23.3238 H   0  0  0  0  0  0
  -24.3613  -36.8979   22.2056 H   0  0  0  0  0  0
  -23.7204  -37.6453   23.6690 H   0  0  0  0  0  0
  -26.1089  -31.5313   20.6026 H   0  0  0  0  0  0
  -26.8559  -30.8262   22.0027 H   0  0  0  0  0  0
  -28.1061  -28.8776   21.2257 H   0  0  0  0  0  0
  -25.8827  -25.9349   18.9369 H   0  0  0  0  0  0
  -23.9362  -27.3398   19.0088 H   0  0  0  0  0  0
  -23.7748  -30.6146   19.4092 H   0  0  0  0  0  0
  -22.7587  -29.2790   19.8440 H   0  0  0  0  0  0
  -25.1266  -36.1893   25.0797 H   0  0  0  0  0  0
  -21.0074  -28.3271   24.1399 H   0  0  0  0  0  0
  -20.5789  -26.2281   23.3633 H   0  0  0  0  0  0
  -21.6652  -26.7445   22.1171 H   0  0  0  0  0  0
  -19.6879  -25.6316   21.1274 H   0  0  0  0  0  0
  -19.6668  -27.3239   20.6832 H   0  0  0  0  0  0
  -17.4211  -26.6767   21.4059 H   0  0  0  0  0  0
  -18.0261  -26.0094   22.9070 H   0  0  0  0  0  0
  -19.7927  -30.7397   24.2160 H   0  0  0  0  0  0
  -17.4963  -31.6259   24.5207 H   0  0  0  0  0  0
  -15.5347  -30.2939   23.7642 H   0  0  0  0  0  0
  -15.8741  -28.0843   22.6967 H   0  0  0  0  0  0
  -24.5867  -30.7088   25.7744 H   0  0  0  0  0  0
  -24.8863  -32.2975   26.4702 H   0  0  0  0  0  0
  -25.7959  -30.9023   27.0277 H   0  0  0  0  0  0
  -26.2893  -29.6698   24.1189 H   0  0  0  0  0  0
  -27.3857  -29.7149   25.4745 H   0  0  0  0  0  0
  -27.8791  -30.4119   23.9520 H   0  0  0  0  0  0
  -27.2642  -33.3538   26.2066 H   0  0  0  0  0  0
  -28.3856  -32.6793   25.0379 H   0  0  0  0  0  0
  -28.0650  -31.8386   26.5468 H   0  0  0  0  0  0
  -28.2525  -38.0155   24.7552 H   0  0  0  0  0  0
  -28.1154  -36.2676   24.6183 H   0  0  0  0  0  0
  -27.2341  -37.1311   25.8874 H   0  0  0  0  0  0
  -20.9383  -29.8772   21.6874 H   0  0  0  0  0  0
  -26.0140  -38.2817   24.1475 H   0  0  0  0  0  0
  -30.7209  -20.2642   18.4431 H   0  0  0  0  0  0
  -28.4412  -23.5257   21.5745 H   0  0  0  0  0  0
  -29.8688  -23.8401   20.6534 H   0  0  0  0  0  0
  -27.0043  -24.5767   19.9854 H   0  0  0  0  0  0
  -28.2375  -24.7678   18.7760 H   0  0  0  0  0  0
  -29.3531  -22.0902   19.0013 H   0  0  0  0  0  0
  -27.7241  -21.9396   19.5387 H   0  0  0  0  0  0
  -28.9117  -15.6702   21.1354 H   0  0  0  0  0  0
  1 25  1  0  0  0
  1 30  2  0  0  0
  1 78  1  0  0  0
  2  3  1  0  0  0
  2 25  1  0  0  0
  2 81  1  0  0  0
  2 82  1  0  0  0
  3  4  1  0  0  0
  3 83  1  0  0  0
  3 84  1  0  0  0
  4  5  1  0  0  0
  4 85  1  0  0  0
  4 86  1  0  0  0
  5  6  1  0  0  0
  5 26  1  0  0  0
  5 87  1  0  0  0
  6 25  1  0  0  0
  6 88  1  0  0  0
  6 89  1  0  0  0
  7  8  2  0  0  0
  7 26  1  0  0  0
  7 29  1  0  0  0
  8  9  1  0  0  0
  8 22  1  0  0  0
  9 10  1  0  0  0
  9 27  2  0  0  0
 10 11  2  0  0  0
 10 15  1  0  0  0
 11 12  1  0  0  0
 11 90  1  0  0  0
 12 13  2  0  0  0
 12 91  1  0  0  0
 13 14  1  0  0  0
 13 31  1  0  0  0
 14 15  2  0  0  0
 14 92  1  0  0  0
 15 93  1  0  0  0
 16 17  2  0  0  0
 16 21  1  0  0  0
 16 31  1  0  0  0
 17 18  1  0  0  0
 17 94  1  0  0  0
 18 19  2  0  0  0
 18 95  1  0  0  0
 19 20  1  0  0  0
 19 24  1  0  0  0
 20 21  2  0  0  0
 20 96  1  0  0  0
 21 23  1  0  0  0
 22 28  1  0  0  0
 22 32  2  0  0  0
 26 27  1  0  0  0
 28 97  1  0  0  0
 28 98  1  0  0  0
 29 99  1  0  0  0
 29100  1  0  0  0
 33 34  1  0  0  0
 33 66  1  0  0  0
 33 70  2  0  0  0
 34 36  1  0  0  0
 34 59  1  0  0  0
 34101  1  0  0  0
 35 44  2  0  0  0
 35 45  1  0  0  0
 35 68  1  0  0  0
 36 56  1  0  0  0
 36102  1  0  0  0
 37 39  1  0  0  0
 37 47  1  0  0  0
 37 66  1  0  0  0
 37103  1  0  0  0
 38 43  2  0  0  0
 38 46  1  0  0  0
 38 47  1  0  0  0
 39 64  1  0  0  0
 39 67  2  0  0  0
 40 52  1  0  0  0
 40 53  2  0  0  0
 40 58  1  0  0  0
 41104  1  0  0  0
 41105  1  0  0  0
 41106  1  0  0  0
 41 48  1  0  0  0
 42 43  1  0  0  0
 42 66  1  0  0  0
 42107  1  0  0  0
 42108  1  0  0  0
 43 44  1  0  0  0
 44109  1  0  0  0
 45 46  2  0  0  0
 45110  1  0  0  0
 46111  1  0  0  0
 47112  1  0  0  0
 47113  1  0  0  0
 48 56  1  0  0  0
 48 65  1  0  0  0
 48114  1  0  0  0
 49 50  1  0  0  0
 49 53  1  0  0  0
 49 64  1  0  0  0
 49115  1  0  0  0
 50 51  1  0  0  0
 50116  1  0  0  0
 50117  1  0  0  0
 51 52  1  0  0  0
 51118  1  0  0  0
 51119  1  0  0  0
 52120  1  0  0  0
 52121  1  0  0  0
 53 54  1  0  0  0
 54 55  2  0  0  0
 54122  1  0  0  0
 55 57  1  0  0  0
 55123  1  0  0  0
 56 69  2  0  0  0
 57 58  2  0  0  0
 57124  1  0  0  0
 58125  1  0  0  0
 59 60  1  0  0  0
 59 61  1  0  0  0
 59 62  1  0  0  0
 60126  1  0  0  0
 60127  1  0  0  0
 60128  1  0  0  0
 61129  1  0  0  0
 61130  1  0  0  0
 61131  1  0  0  0
 62132  1  0  0  0
 62133  1  0  0  0
 62134  1  0  0  0
 63 65  1  0  0  0
 63135  1  0  0  0
 63136  1  0  0  0
 63137  1  0  0  0
 64138  1  0  0  0
 65139  1  0  0  0
 68 75  1  0  0  0
 71 72  2  0  0  0
 71 80  1  0  0  0
 71140  1  0  0  0
 72 77  1  0  0  0
 72 79  1  0  0  0
 73 77  2  0  0  0
 73 78  1  0  0  0
 73 80  1  0  0  0
 74 75  1  0  0  0
 74 76  1  0  0  0
 74141  1  0  0  0
 74142  1  0  0  0
 75143  1  0  0  0
 75144  1  0  0  0
 76 79  1  0  0  0
 76145  1  0  0  0
 76146  1  0  0  0
 78147  1  0  0  0
M  ISO  4   1 100  68 101  75 101  78 100
M  END
> <chiral flag>
0

> <version>
0

> <s_m_source_file>
/data/baiqing/PycharmProjects/Reinvent-master-3.2/result/LINK_invent/BTK/process_docking_weight1_custom_product_contain_oxygen_bond_distance_aromatic_linkinvent_7_9_3/rearranged_h_0136.sdf

> <i_m_source_file_index>
62

> <r_mmod_Potential_Energy-OPLS-2005>
94.4489898681641

> <r_mmod_Stretch_Energy-OPLS-2005>
130.120025634766

> <r_mmod_Bend_Energy-OPLS-2005>
174.320571899414

> <r_mmod_Torsional_Energy-OPLS-2005>
221.208572387695

> <r_mmod_Improper_Torsional_Energy-OPLS-2005>
4.36034679412842

> <r_mmod_Van_der_Waal_Energy-OPLS-2005>
122.920532226562

> <r_mmod_Electrostatic_Energy-OPLS-2005>
-438.507141113281

> <r_mmod_Solvation_Energy-OPLS-2005>
-220.835311889648

> <b_mmod_Minimization_Converged-OPLS-2005>
0

> <r_mmod_RMS_Derivative-OPLS-2005>
4.77234888076782

$$$$
62
                    3D
 Structure written by MMmdl.
160169  0  0  1  0            999 V2000
  -30.6353  -14.7189   20.4511 C   0  0  0  0  0  0
  -30.4291  -12.4197   19.4976 C   0  0  0  0  0  0
  -29.5159  -12.4512   18.2519 C   0  0  0  0  0  0
  -28.0310  -12.3313   18.6492 C   0  0  0  0  0  0
  -27.6450  -13.2333   19.8510 C   0  0  2  0  0  0
  -28.6857  -13.1653   20.9905 C   0  0  0  0  0  0
  -25.2516  -13.8201   20.5702 C   0  0  0  0  0  0
  -24.1802  -13.0436   20.9215 C   0  0  0  0  0  0
  -24.6400  -11.6923   20.8748 C   0  0  0  0  0  0
  -23.9076  -10.4274   21.0386 C   0  0  0  0  0  0
  -24.3611   -9.4203   21.9180 C   0  0  0  0  0  0
  -23.6283   -8.2243   22.0765 C   0  0  0  0  0  0
  -22.4273   -8.0274   21.3557 C   0  0  0  0  0  0
  -21.9903   -9.0253   20.4675 C   0  0  0  0  0  0
  -22.7234  -10.2125   20.3062 C   0  0  0  0  0  0
  -21.6856   -6.0738   22.5288 C   0  0  0  0  0  0
  -21.4018   -6.5637   23.8225 C   0  0  0  0  0  0
  -21.3650   -5.6791   24.9189 C   0  0  0  0  0  0
  -21.6035   -4.3056   24.7237 C   0  0  0  0  0  0
  -21.8812   -3.8152   23.4357 C   0  0  0  0  0  0
  -21.9192   -4.6965   22.3411 C   0  0  0  0  0  0
  -22.7823  -13.5231   21.1840 C   0  0  0  0  0  0
  -22.1665   -4.2151   21.0990 F   0  0  0  0  0  0
  -21.5608   -3.4535   25.7748 F   0  0  0  0  0  0
  -29.9969  -13.4978   20.4181 N   0  0  0  0  0  0
  -26.2951  -12.9412   20.3298 N   0  0  0  0  0  0
  -25.9339  -11.6558   20.5792 N   0  0  0  0  0  0
  -22.0453  -12.8244   22.0411 N   0  0  0  0  0  0
  -25.4189  -15.1914   20.4143 N   0  0  0  0  0  0
  -31.8218  -14.7957   20.1184 O   0  0  0  0  0  0
  -21.6639   -6.8878   21.4254 O   0  0  0  0  0  0
  -22.3506  -14.5526   20.6675 O   0  0  0  0  0  0
  -24.6308  -31.8559   23.2005 C   0  0  0  0  0  0
  -25.9135  -32.4769   23.8336 C   0  0  1  0  0  0
  -27.2102  -27.2599   20.1393 C   0  0  0  0  0  0
  -25.5925  -33.8573   24.2249 N   0  0  0  0  0  0
  -23.4278  -30.4820   21.5422 C   0  0  2  0  0  0
  -24.8744  -28.9317   20.1068 C   0  0  0  0  0  0
  -22.7497  -29.4614   22.4896 C   0  0  0  0  0  0
  -18.0297  -28.1427   22.8497 C   0  0  0  0  0  0
  -24.1482  -36.7264   23.2643 C   0  0  0  0  0  0
  -25.9724  -30.7693   21.3779 C   0  0  0  0  0  0
  -26.0449  -29.3916   20.7230 C   0  0  0  0  0  0
  -27.2132  -28.5662   20.7337 C   0  0  0  0  0  0
  -26.0217  -26.8762   19.4730 C   0  0  0  0  0  0
  -24.8684  -27.6843   19.4657 C   0  0  0  0  0  0
  -23.6472  -29.8221   20.1550 C   0  0  0  0  0  0
  -25.4117  -36.3074   24.0327 C   0  0  1  0  0  0
  -20.5903  -28.3725   23.1280 C   0  0  2  0  0  0
  -20.6802  -26.9455   22.5412 C   0  0  0  0  0  0
  -19.5767  -26.6425   21.5219 C   0  0  0  0  0  0
  -18.1951  -26.7975   22.1637 C   0  0  0  0  0  0
  -19.1555  -28.8895   23.2887 C   0  0  0  0  0  0
  -18.9472  -30.1499   23.8899 C   0  0  0  0  0  0
  -17.6474  -30.6615   24.0598 C   0  0  0  0  0  0
  -25.9057  -34.9452   23.5086 C   0  0  0  0  0  0
  -16.5365  -29.9114   23.6373 C   0  0  0  0  0  0
  -16.7288  -28.6546   23.0372 C   0  0  0  0  0  0
  -26.4513  -31.6582   25.0707 C   0  0  0  0  0  0
  -25.3724  -31.3721   26.1402 C   0  0  0  0  0  0
  -27.0333  -30.3008   24.6138 C   0  0  0  0  0  0
  -27.6068  -32.4314   25.7479 C   0  0  0  0  0  0
  -27.5576  -37.1802   24.8480 C   0  0  0  0  0  0
  -21.4210  -29.3043   22.3636 N   0  0  0  0  0  0
  -26.4279  -37.3782   23.9436 N   0  0  0  0  0  0
  -24.6968  -31.0542   22.0963 N   0  0  0  0  0  0
  -23.4194  -28.8165   23.3011 O   0  0  0  0  0  0
  -28.2985  -26.3600   20.2366 O   0  0  0  0  0  0
  -26.5638  -34.8925   22.4662 O   0  0  0  0  0  0
  -23.5461  -32.1367   23.7319 O   0  0  0  0  0  0
  -29.7848  -18.4723   20.8117 C   0  0  0  0  0  0
  -30.0797  -18.6859   18.1189 C   0  0  0  0  0  0
  -30.0894  -17.3927   18.6773 C   0  0  0  0  0  0
  -29.9723  -17.2245   20.0857 C   0  0  0  0  0  0
  -29.7455  -19.7683   20.1505 C   0  0  0  0  0  0
  -29.6845  -22.5411   22.7413 C   0  0  0  0  0  0
  -28.7440  -23.5937   22.1568 C   0  0  0  0  0  0
  -29.4703  -21.1172   22.2165 C   0  0  0  0  0  0
  -28.9396  -22.2448   19.9919 C   0  0  0  0  0  0
  -29.0092  -23.7314   20.6433 C   0  0  1  0  0  0
  -30.1581  -16.2303   17.7018 C   0  0  0  0  0  0
  -28.0735  -24.8907   20.0032 C   0  0  0  0  0  0
  -29.9170  -19.8216   18.8199 N   0  0  0  0  0  0
  -29.5475  -21.0718   20.7533 N   0  0  0  0  0  0
  -29.8887  -15.8627   20.6929 N   0  0  0  0  0  0
  -30.6063  -22.8386   23.5076 O   0  0  0  0  0  0
  -31.4745  -12.5166   19.2018 H   0  0  0  0  0  0
  -30.3575  -11.4530   19.9978 H   0  0  0  0  0  0
  -29.7790  -11.6336   17.5802 H   0  0  0  0  0  0
  -29.6835  -13.3648   17.6882 H   0  0  0  0  0  0
  -27.8459  -11.2871   18.8996 H   0  0  0  0  0  0
  -27.3901  -12.5508   17.7945 H   0  0  0  0  0  0
  -27.6432  -14.2557   19.4690 H   0  0  0  0  0  0
  -28.7068  -12.1705   21.4395 H   0  0  0  0  0  0
  -28.4220  -13.8556   21.7939 H   0  0  0  0  0  0
  -25.2744   -9.5675   22.4781 H   0  0  0  0  0  0
  -23.9986   -7.4622   22.7481 H   0  0  0  0  0  0
  -21.0831   -8.8779   19.8978 H   0  0  0  0  0  0
  -22.3686  -10.9670   19.6178 H   0  0  0  0  0  0
  -21.2036   -7.6151   23.9739 H   0  0  0  0  0  0
  -21.1464   -6.0523   25.9090 H   0  0  0  0  0  0
  -22.0600   -2.7620   23.2866 H   0  0  0  0  0  0
  -22.4038  -11.9892   22.4779 H   0  0  0  0  0  0
  -21.1092  -13.1320   22.2637 H   0  0  0  0  0  0
  -24.6399  -15.8341   20.5078 H   0  0  0  0  0  0
  -26.2709  -15.6419   20.1011 H   0  0  0  0  0  0
  -26.7199  -32.5438   23.1074 H   0  0  0  0  0  0
  -25.0112  -33.9710   25.0422 H   0  0  0  0  0  0
  -22.7231  -31.3043   21.3993 H   0  0  0  0  0  0
  -23.3742  -35.9594   23.3316 H   0  0  0  0  0  0
  -24.3562  -36.8864   22.2052 H   0  0  0  0  0  0
  -23.7214  -37.6469   23.6639 H   0  0  0  0  0  0
  -26.1037  -31.5251   20.6038 H   0  0  0  0  0  0
  -26.8535  -30.8259   22.0054 H   0  0  0  0  0  0
  -28.1036  -28.9011   21.2472 H   0  0  0  0  0  0
  -25.9424  -25.9271   18.9643 H   0  0  0  0  0  0
  -23.9755  -27.3371   18.9623 H   0  0  0  0  0  0
  -23.7820  -30.5992   19.3993 H   0  0  0  0  0  0
  -22.7634  -29.2607   19.8486 H   0  0  0  0  0  0
  -25.1304  -36.1918   25.0814 H   0  0  0  0  0  0
  -21.0024  -28.3309   24.1391 H   0  0  0  0  0  0
  -20.5749  -26.2334   23.3613 H   0  0  0  0  0  0
  -21.6671  -26.7534   22.1183 H   0  0  0  0  0  0
  -19.6932  -25.6332   21.1260 H   0  0  0  0  0  0
  -19.6696  -27.3238   20.6752 H   0  0  0  0  0  0
  -17.4240  -26.6752   21.4023 H   0  0  0  0  0  0
  -18.0341  -26.0100   22.9022 H   0  0  0  0  0  0
  -19.7932  -30.7350   24.2241 H   0  0  0  0  0  0
  -17.5017  -31.6289   24.5210 H   0  0  0  0  0  0
  -15.5368  -30.3028   23.7679 H   0  0  0  0  0  0
  -15.8694  -28.0875   22.7066 H   0  0  0  0  0  0
  -24.5930  -30.7035   25.7729 H   0  0  0  0  0  0
  -24.8872  -32.2880   26.4778 H   0  0  0  0  0  0
  -25.8037  -30.8946   27.0197 H   0  0  0  0  0  0
  -26.2883  -29.6764   24.1184 H   0  0  0  0  0  0
  -27.4065  -29.7266   25.4619 H   0  0  0  0  0  0
  -27.8746  -30.4307   23.9326 H   0  0  0  0  0  0
  -27.2684  -33.3625   26.2028 H   0  0  0  0  0  0
  -28.3893  -32.6837   25.0314 H   0  0  0  0  0  0
  -28.0691  -31.8435   26.5408 H   0  0  0  0  0  0
  -28.2626  -38.0082   24.7534 H   0  0  0  0  0  0
  -28.1043  -36.2610   24.6300 H   0  0  0  0  0  0
  -27.2297  -37.1464   25.8889 H   0  0  0  0  0  0
  -20.9406  -29.8697   21.6780 H   0  0  0  0  0  0
  -26.0140  -38.2852   24.1438 H   0  0  0  0  0  0
  -29.6512  -18.4230   21.8829 H   0  0  0  0  0  0
  -30.1642  -18.8235   17.0504 H   0  0  0  0  0  0
  -28.8492  -24.5476   22.6730 H   0  0  0  0  0  0
  -27.7216  -23.2517   22.3250 H   0  0  0  0  0  0
  -28.4816  -20.7745   22.5270 H   0  0  0  0  0  0
  -30.2027  -20.4506   22.6767 H   0  0  0  0  0  0
  -29.4135  -22.3077   19.0115 H   0  0  0  0  0  0
  -27.8978  -21.9826   19.8057 H   0  0  0  0  0  0
  -30.0380  -24.0737   20.5214 H   0  0  0  0  0  0
  -30.0286  -16.5634   16.6709 H   0  0  0  0  0  0
  -29.3602  -15.5216   17.9104 H   0  0  0  0  0  0
  -31.1198  -15.7227   17.7539 H   0  0  0  0  0  0
  -27.0614  -24.6387   20.3243 H   0  0  0  0  0  0
  -28.0742  -24.7541   18.9209 H   0  0  0  0  0  0
  -29.0263  -15.6845   21.1825 H   0  0  0  0  0  0
  1 25  1  0  0  0
  1 30  2  0  0  0
  1 85  1  0  0  0
  2  3  1  0  0  0
  2 25  1  0  0  0
  2 87  1  0  0  0
  2 88  1  0  0  0
  3  4  1  0  0  0
  3 89  1  0  0  0
  3 90  1  0  0  0
  4  5  1  0  0  0
  4 91  1  0  0  0
  4 92  1  0  0  0
  5  6  1  0  0  0
  5 26  1  0  0  0
  5 93  1  0  0  0
  6 25  1  0  0  0
  6 94  1  0  0  0
  6 95  1  0  0  0
  7  8  2  0  0  0
  7 26  1  0  0  0
  7 29  1  0  0  0
  8  9  1  0  0  0
  8 22  1  0  0  0
  9 10  1  0  0  0
  9 27  2  0  0  0
 10 11  2  0  0  0
 10 15  1  0  0  0
 11 12  1  0  0  0
 11 96  1  0  0  0
 12 13  2  0  0  0
 12 97  1  0  0  0
 13 14  1  0  0  0
 13 31  1  0  0  0
 14 15  2  0  0  0
 14 98  1  0  0  0
 15 99  1  0  0  0
 16 17  2  0  0  0
 16 21  1  0  0  0
 16 31  1  0  0  0
 17 18  1  0  0  0
 17100  1  0  0  0
 18 19  2  0  0  0
 18101  1  0  0  0
 19 20  1  0  0  0
 19 24  1  0  0  0
 20 21  2  0  0  0
 20102  1  0  0  0
 21 23  1  0  0  0
 22 28  1  0  0  0
 22 32  2  0  0  0
 26 27  1  0  0  0
 28103  1  0  0  0
 28104  1  0  0  0
 29105  1  0  0  0
 29106  1  0  0  0
 33 34  1  0  0  0
 33 66  1  0  0  0
 33 70  2  0  0  0
 34 36  1  0  0  0
 34 59  1  0  0  0
 34107  1  0  0  0
 35 44  2  0  0  0
 35 45  1  0  0  0
 35 68  1  0  0  0
 36 56  1  0  0  0
 36108  1  0  0  0
 37 39  1  0  0  0
 37 47  1  0  0  0
 37 66  1  0  0  0
 37109  1  0  0  0
 38 43  2  0  0  0
 38 46  1  0  0  0
 38 47  1  0  0  0
 39 64  1  0  0  0
 39 67  2  0  0  0
 40 52  1  0  0  0
 40 53  2  0  0  0
 40 58  1  0  0  0
 41110  1  0  0  0
 41111  1  0  0  0
 41112  1  0  0  0
 41 48  1  0  0  0
 42 43  1  0  0  0
 42 66  1  0  0  0
 42113  1  0  0  0
 42114  1  0  0  0
 43 44  1  0  0  0
 44115  1  0  0  0
 45 46  2  0  0  0
 45116  1  0  0  0
 46117  1  0  0  0
 47118  1  0  0  0
 47119  1  0  0  0
 48 56  1  0  0  0
 48 65  1  0  0  0
 48120  1  0  0  0
 49 50  1  0  0  0
 49 53  1  0  0  0
 49 64  1  0  0  0
 49121  1  0  0  0
 50 51  1  0  0  0
 50122  1  0  0  0
 50123  1  0  0  0
 51 52  1  0  0  0
 51124  1  0  0  0
 51125  1  0  0  0
 52126  1  0  0  0
 52127  1  0  0  0
 53 54  1  0  0  0
 54 55  2  0  0  0
 54128  1  0  0  0
 55 57  1  0  0  0
 55129  1  0  0  0
 56 69  2  0  0  0
 57 58  2  0  0  0
 57130  1  0  0  0
 58131  1  0  0  0
 59 60  1  0  0  0
 59 61  1  0  0  0
 59 62  1  0  0  0
 60132  1  0  0  0
 60133  1  0  0  0
 60134  1  0  0  0
 61135  1  0  0  0
 61136  1  0  0  0
 61137  1  0  0  0
 62138  1  0  0  0
 62139  1  0  0  0
 62140  1  0  0  0
 63 65  1  0  0  0
 63141  1  0  0  0
 63142  1  0  0  0
 63143  1  0  0  0
 64144  1  0  0  0
 65145  1  0  0  0
 68 82  1  0  0  0
 71 74  2  0  0  0
 71 75  1  0  0  0
 71146  1  0  0  0
 72 73  2  0  0  0
 72 83  1  0  0  0
 72147  1  0  0  0
 73 74  1  0  0  0
 73 81  1  0  0  0
 74 85  1  0  0  0
 75 83  2  0  0  0
 75 84  1  0  0  0
 76 77  1  0  0  0
 76 78  1  0  0  0
 76 86  2  0  0  0
 77 80  1  0  0  0
 77148  1  0  0  0
 77149  1  0  0  0
 78 84  1  0  0  0
 78150  1  0  0  0
 78151  1  0  0  0
 79 80  1  0  0  0
 79 84  1  0  0  0
 79152  1  0  0  0
 79153  1  0  0  0
 80 82  1  0  0  0
 80154  1  0  0  0
 81155  1  0  0  0
 81156  1  0  0  0
 81157  1  0  0  0
 82158  1  0  0  0
 82159  1  0  0  0
 85160  1  0  0  0
M  ISO  4   1 100  68 101  82 101  85 100
M  END
> <chiral flag>
0

> <version>
0

> <s_m_source_file>
/data/baiqing/PycharmProjects/Reinvent-master-3.2/result/LINK_invent/BTK/process_docking_weight1_custom_product_contain_oxygen_bond_distance_aromatic_linkinvent_7_9_3/rearranged_h_0136.sdf

> <i_m_source_file_index>
63

> <r_mmod_Potential_Energy-OPLS-2005>
-33.336051940918

> <r_mmod_Stretch_Energy-OPLS-2005>
122.576103210449

> <r_mmod_Bend_Energy-OPLS-2005>
168.011459350586

> <r_mmod_Torsional_Energy-OPLS-2005>
251.774917602539

> <r_mmod_Improper_Torsional_Energy-OPLS-2005>
6.96179819107056

> <r_mmod_Van_der_Waal_Energy-OPLS-2005>
157.275268554688

> <r_mmod_Electrostatic_Energy-OPLS-2005>
-561.649108886719

> <r_mmod_Solvation_Energy-OPLS-2005>
-261.411254882812

> <b_mmod_Minimization_Converged-OPLS-2005>
0

> <r_mmod_RMS_Derivative-OPLS-2005>
4.50438547134399

$$$$
63
                    3D
 Structure written by MMmdl.
161169  0  0  1  0            999 V2000
  -30.7194  -14.5080   20.5208 C   0  0  0  0  0  0
  -30.4061  -12.3155   19.4381 C   0  0  0  0  0  0
  -29.4893  -12.5032   18.2133 C   0  0  0  0  0  0
  -28.0117  -12.3613   18.6253 C   0  0  0  0  0  0
  -27.6534  -13.2193   19.8689 C   0  0  2  0  0  0
  -28.6984  -13.0522   20.9976 C   0  0  0  0  0  0
  -25.2547  -13.8171   20.5711 C   0  0  0  0  0  0
  -24.1821  -13.0423   20.9183 C   0  0  0  0  0  0
  -24.6395  -11.6898   20.8723 C   0  0  0  0  0  0
  -23.9061  -10.4277   21.0381 C   0  0  0  0  0  0
  -24.3611   -9.4195   21.9160 C   0  0  0  0  0  0
  -23.6291   -8.2237   22.0737 C   0  0  0  0  0  0
  -22.4273   -8.0258   21.3530 C   0  0  0  0  0  0
  -21.9898   -9.0229   20.4638 C   0  0  0  0  0  0
  -22.7219  -10.2106   20.3045 C   0  0  0  0  0  0
  -21.6865   -6.0724   22.5278 C   0  0  0  0  0  0
  -21.4029   -6.5642   23.8198 C   0  0  0  0  0  0
  -21.3662   -5.6793   24.9168 C   0  0  0  0  0  0
  -21.6047   -4.3058   24.7225 C   0  0  0  0  0  0
  -21.8823   -3.8141   23.4351 C   0  0  0  0  0  0
  -21.9204   -4.6958   22.3401 C   0  0  0  0  0  0
  -22.7843  -13.5193   21.1857 C   0  0  0  0  0  0
  -22.1664   -4.2131   21.0986 F   0  0  0  0  0  0
  -21.5631   -3.4544   25.7743 F   0  0  0  0  0  0
  -30.0259  -13.3350   20.4331 N   0  0  0  0  0  0
  -26.2995  -12.9379   20.3365 N   0  0  0  0  0  0
  -25.9336  -11.6522   20.5768 N   0  0  0  0  0  0
  -22.0533  -12.8156   22.0434 N   0  0  0  0  0  0
  -25.4234  -15.1879   20.4158 N   0  0  0  0  0  0
  -31.8789  -14.5825   20.1032 O   0  0  0  0  0  0
  -21.6641   -6.8855   21.4232 O   0  0  0  0  0  0
  -22.3523  -14.5509   20.6724 O   0  0  0  0  0  0
  -24.6173  -31.8702   23.2136 C   0  0  0  0  0  0
  -25.9063  -32.4828   23.8429 C   0  0  1  0  0  0
  -27.2047  -27.3872   20.0932 C   0  0  0  0  0  0
  -25.5912  -33.8630   24.2354 N   0  0  0  0  0  0
  -23.4053  -30.5008   21.5540 C   0  0  2  0  0  0
  -24.8463  -28.9756   20.1087 C   0  0  0  0  0  0
  -22.7431  -29.4691   22.4977 C   0  0  0  0  0  0
  -18.0291  -28.1364   22.8516 C   0  0  0  0  0  0
  -24.1492  -36.7326   23.2643 C   0  0  0  0  0  0
  -25.9435  -30.8147   21.3833 C   0  0  0  0  0  0
  -26.0105  -29.4495   20.7262 C   0  0  0  0  0  0
  -27.1875  -28.6562   20.7329 C   0  0  0  0  0  0
  -26.0326  -26.9849   19.4214 C   0  0  0  0  0  0
  -24.8534  -27.7393   19.4536 C   0  0  0  0  0  0
  -23.6144  -29.8471   20.1639 C   0  0  0  0  0  0
  -25.4109  -36.3114   24.0347 C   0  0  1  0  0  0
  -20.5877  -28.3681   23.1316 C   0  0  2  0  0  0
  -20.6794  -26.9409   22.5438 C   0  0  0  0  0  0
  -19.5762  -26.6341   21.5253 C   0  0  0  0  0  0
  -18.1940  -26.7888   22.1700 C   0  0  0  0  0  0
  -19.1532  -28.8847   23.2896 C   0  0  0  0  0  0
  -18.9457  -30.1460   23.8887 C   0  0  0  0  0  0
  -17.6455  -30.6592   24.0542 C   0  0  0  0  0  0
  -25.9041  -34.9483   23.5150 C   0  0  0  0  0  0
  -16.5350  -29.9079   23.6320 C   0  0  0  0  0  0
  -16.7271  -28.6480   23.0374 C   0  0  0  0  0  0
  -26.4478  -31.6595   25.0766 C   0  0  0  0  0  0
  -25.3752  -31.3692   26.1513 C   0  0  0  0  0  0
  -27.0306  -30.3030   24.6180 C   0  0  0  0  0  0
  -27.6050  -32.4320   25.7524 C   0  0  0  0  0  0
  -27.5583  -37.1818   24.8467 C   0  0  0  0  0  0
  -21.4158  -29.3065   22.3722 N   0  0  0  0  0  0
  -26.4297  -37.3792   23.9409 N   0  0  0  0  0  0
  -24.6732  -31.0786   22.1060 N   0  0  0  0  0  0
  -23.4193  -28.8235   23.3028 O   0  0  0  0  0  0
  -28.3257  -26.5669   20.1726 O   0  0  0  0  0  0
  -26.5598  -34.8925   22.4710 O   0  0  0  0  0  0
  -23.5359  -32.1487   23.7503 O   0  0  0  0  0  0
  -27.9141  -18.8677   22.9820 C   0  0  0  0  0  0
  -28.7540  -17.8341   22.5227 C   0  0  0  0  0  0
  -27.7321  -20.0349   22.2122 C   0  0  0  0  0  0
  -29.2597  -19.1551   20.5346 C   0  0  0  0  0  0
  -29.4376  -17.9625   21.2935 C   0  0  0  0  0  0
  -28.3890  -20.1878   20.9733 C   0  0  0  0  0  0
  -30.4128  -16.8994   20.8407 C   0  0  0  0  0  0
  -26.6345  -24.2200   20.9838 C   0  0  0  0  0  0
  -26.8747  -23.5196   18.5442 C   0  0  0  0  0  0
  -27.9800  -21.3514   20.0599 C   0  0  0  0  0  0
  -28.5697  -22.7927   20.2839 C   0  0  0  0  0  0
  -28.4151  -25.3219   19.4195 C   0  0  0  0  0  0
  -27.6327  -23.9872   19.8225 C   0  0  0  0  0  0
  -30.0175  -15.6004   20.9176 N   0  0  0  0  0  0
  -31.5005  -17.2837   20.3931 O   0  0  0  0  0  0
  -31.4521  -12.3817   19.1340 H   0  0  0  0  0  0
  -30.2821  -11.3151   19.8541 H   0  0  0  0  0  0
  -29.7317  -11.7744   17.4385 H   0  0  0  0  0  0
  -29.6535  -13.4876   17.7721 H   0  0  0  0  0  0
  -27.8269  -11.3076   18.8346 H   0  0  0  0  0  0
  -27.3588  -12.6210   17.7908 H   0  0  0  0  0  0
  -27.6782  -14.2581   19.5420 H   0  0  0  0  0  0
  -28.6753  -12.0351   21.3936 H   0  0  0  0  0  0
  -28.4696  -13.7048   21.8427 H   0  0  0  0  0  0
  -25.2753   -9.5687   22.4722 H   0  0  0  0  0  0
  -24.0005   -7.4643   22.7457 H   0  0  0  0  0  0
  -21.0831   -8.8745   19.8954 H   0  0  0  0  0  0
  -22.3663  -10.9642   19.6156 H   0  0  0  0  0  0
  -21.2022   -7.6145   23.9692 H   0  0  0  0  0  0
  -21.1481   -6.0529   25.9057 H   0  0  0  0  0  0
  -22.0600   -2.7603   23.2859 H   0  0  0  0  0  0
  -22.4198  -11.9805   22.4773 H   0  0  0  0  0  0
  -21.1148  -13.1134   22.2686 H   0  0  0  0  0  0
  -24.6527  -15.8350   20.5387 H   0  0  0  0  0  0
  -26.2710  -15.6379   20.0964 H   0  0  0  0  0  0
  -26.7144  -32.5530   23.1186 H   0  0  0  0  0  0
  -25.0038  -33.9788   25.0482 H   0  0  0  0  0  0
  -22.6923  -31.3176   21.4199 H   0  0  0  0  0  0
  -23.3743  -35.9670   23.3319 H   0  0  0  0  0  0
  -24.3591  -36.8927   22.2055 H   0  0  0  0  0  0
  -23.7247  -37.6545   23.6645 H   0  0  0  0  0  0
  -26.0758  -31.5782   20.6155 H   0  0  0  0  0  0
  -26.8248  -30.8572   22.0113 H   0  0  0  0  0  0
  -28.0739  -29.0033   21.2448 H   0  0  0  0  0  0
  -25.9843  -26.0640   18.8848 H   0  0  0  0  0  0
  -23.9673  -27.3709   18.9560 H   0  0  0  0  0  0
  -23.7339  -30.6289   19.4129 H   0  0  0  0  0  0
  -22.7345  -29.2766   19.8589 H   0  0  0  0  0  0
  -25.1276  -36.1998   25.0838 H   0  0  0  0  0  0
  -20.9967  -28.3245   24.1432 H   0  0  0  0  0  0
  -20.5703  -26.2294   23.3642 H   0  0  0  0  0  0
  -21.6671  -26.7459   22.1232 H   0  0  0  0  0  0
  -19.6652  -27.3107   20.6746 H   0  0  0  0  0  0
  -19.6914  -25.6247   21.1312 H   0  0  0  0  0  0
  -17.4160  -26.6559   21.4173 H   0  0  0  0  0  0
  -18.0411  -26.0077   22.9167 H   0  0  0  0  0  0
  -19.7937  -30.7291   24.2220 H   0  0  0  0  0  0
  -17.4995  -31.6280   24.5127 H   0  0  0  0  0  0
  -15.5344  -30.2979   23.7625 H   0  0  0  0  0  0
  -15.8667  -28.0780   22.7129 H   0  0  0  0  0  0
  -24.5935  -30.7018   25.7860 H   0  0  0  0  0  0
  -24.8926  -32.2836   26.4981 H   0  0  0  0  0  0
  -25.8120  -30.8864   27.0260 H   0  0  0  0  0  0
  -26.2857  -29.6789   24.1227 H   0  0  0  0  0  0
  -27.4038  -29.7270   25.4652 H   0  0  0  0  0  0
  -27.8719  -30.4326   23.9368 H   0  0  0  0  0  0
  -27.2673  -33.3610   26.2128 H   0  0  0  0  0  0
  -28.3844  -32.6892   25.0342 H   0  0  0  0  0  0
  -28.0739  -31.8436   26.5417 H   0  0  0  0  0  0
  -28.2607  -38.0103   24.7489 H   0  0  0  0  0  0
  -28.1066  -36.2634   24.6315 H   0  0  0  0  0  0
  -27.2308  -37.1501   25.8871 H   0  0  0  0  0  0
  -20.9321  -29.8850   21.6980 H   0  0  0  0  0  0
  -26.0201  -38.2891   24.1349 H   0  0  0  0  0  0
  -27.3910  -18.7609   23.9235 H   0  0  0  0  0  0
  -28.8883  -16.9504   23.1316 H   0  0  0  0  0  0
  -27.0412  -20.7931   22.5543 H   0  0  0  0  0  0
  -29.7692  -19.2545   19.5856 H   0  0  0  0  0  0
  -26.2410  -23.2785   21.3668 H   0  0  0  0  0  0
  -25.7636  -24.8051   20.7040 H   0  0  0  0  0  0
  -27.1185  -24.7236   21.8219 H   0  0  0  0  0  0
  -26.1228  -22.7589   18.7496 H   0  0  0  0  0  0
  -27.5727  -23.1156   17.8112 H   0  0  0  0  0  0
  -26.3352  -24.3014   18.0204 H   0  0  0  0  0  0
  -26.8979  -21.3858   20.1779 H   0  0  0  0  0  0
  -28.1440  -21.0524   19.0234 H   0  0  0  0  0  0
  -29.5320  -22.8424   19.7731 H   0  0  0  0  0  0
  -28.8018  -22.9241   21.3419 H   0  0  0  0  0  0
  -28.2096  -25.5808   18.3795 H   0  0  0  0  0  0
  -29.4780  -25.0877   19.3962 H   0  0  0  0  0  0
  -29.0790  -15.4446   21.2396 H   0  0  0  0  0  0
  1 25  1  0  0  0
  1 30  2  0  0  0
  1 84  1  0  0  0
  2  3  1  0  0  0
  2 25  1  0  0  0
  2 86  1  0  0  0
  2 87  1  0  0  0
  3  4  1  0  0  0
  3 88  1  0  0  0
  3 89  1  0  0  0
  4  5  1  0  0  0
  4 90  1  0  0  0
  4 91  1  0  0  0
  5  6  1  0  0  0
  5 26  1  0  0  0
  5 92  1  0  0  0
  6 25  1  0  0  0
  6 93  1  0  0  0
  6 94  1  0  0  0
  7  8  2  0  0  0
  7 26  1  0  0  0
  7 29  1  0  0  0
  8  9  1  0  0  0
  8 22  1  0  0  0
  9 10  1  0  0  0
  9 27  2  0  0  0
 10 11  2  0  0  0
 10 15  1  0  0  0
 11 12  1  0  0  0
 11 95  1  0  0  0
 12 13  2  0  0  0
 12 96  1  0  0  0
 13 14  1  0  0  0
 13 31  1  0  0  0
 14 15  2  0  0  0
 14 97  1  0  0  0
 15 98  1  0  0  0
 16 17  2  0  0  0
 16 21  1  0  0  0
 16 31  1  0  0  0
 17 18  1  0  0  0
 17 99  1  0  0  0
 18 19  2  0  0  0
 18100  1  0  0  0
 19 20  1  0  0  0
 19 24  1  0  0  0
 20 21  2  0  0  0
 20101  1  0  0  0
 21 23  1  0  0  0
 22 28  1  0  0  0
 22 32  2  0  0  0
 26 27  1  0  0  0
 28102  1  0  0  0
 28103  1  0  0  0
 29104  1  0  0  0
 29105  1  0  0  0
 33 34  1  0  0  0
 33 66  1  0  0  0
 33 70  2  0  0  0
 34 36  1  0  0  0
 34 59  1  0  0  0
 34106  1  0  0  0
 35 44  2  0  0  0
 35 45  1  0  0  0
 35 68  1  0  0  0
 36 56  1  0  0  0
 36107  1  0  0  0
 37 39  1  0  0  0
 37 47  1  0  0  0
 37 66  1  0  0  0
 37108  1  0  0  0
 38 43  2  0  0  0
 38 46  1  0  0  0
 38 47  1  0  0  0
 39 64  1  0  0  0
 39 67  2  0  0  0
 40 52  1  0  0  0
 40 53  2  0  0  0
 40 58  1  0  0  0
 41109  1  0  0  0
 41110  1  0  0  0
 41111  1  0  0  0
 41 48  1  0  0  0
 42 43  1  0  0  0
 42 66  1  0  0  0
 42112  1  0  0  0
 42113  1  0  0  0
 43 44  1  0  0  0
 44114  1  0  0  0
 45 46  2  0  0  0
 45115  1  0  0  0
 46116  1  0  0  0
 47117  1  0  0  0
 47118  1  0  0  0
 48 56  1  0  0  0
 48 65  1  0  0  0
 48119  1  0  0  0
 49 50  1  0  0  0
 49 53  1  0  0  0
 49 64  1  0  0  0
 49120  1  0  0  0
 50 51  1  0  0  0
 50121  1  0  0  0
 50122  1  0  0  0
 51 52  1  0  0  0
 51123  1  0  0  0
 51124  1  0  0  0
 52125  1  0  0  0
 52126  1  0  0  0
 53 54  1  0  0  0
 54 55  2  0  0  0
 54127  1  0  0  0
 55 57  1  0  0  0
 55128  1  0  0  0
 56 69  2  0  0  0
 57 58  2  0  0  0
 57129  1  0  0  0
 58130  1  0  0  0
 59 60  1  0  0  0
 59 61  1  0  0  0
 59 62  1  0  0  0
 60131  1  0  0  0
 60132  1  0  0  0
 60133  1  0  0  0
 61134  1  0  0  0
 61135  1  0  0  0
 61136  1  0  0  0
 62137  1  0  0  0
 62138  1  0  0  0
 62139  1  0  0  0
 63 65  1  0  0  0
 63140  1  0  0  0
 63141  1  0  0  0
 63142  1  0  0  0
 64143  1  0  0  0
 65144  1  0  0  0
 68 82  1  0  0  0
 71 72  2  0  0  0
 71 73  1  0  0  0
 71145  1  0  0  0
 72 75  1  0  0  0
 72146  1  0  0  0
 73 76  2  0  0  0
 73147  1  0  0  0
 74 75  2  0  0  0
 74 76  1  0  0  0
 74148  1  0  0  0
 75 77  1  0  0  0
 76 80  1  0  0  0
 77 84  1  0  0  0
 77 85  2  0  0  0
 78149  1  0  0  0
 78150  1  0  0  0
 78151  1  0  0  0
 78 83  1  0  0  0
 79 83  1  0  0  0
 79152  1  0  0  0
 79153  1  0  0  0
 79154  1  0  0  0
 80 81  1  0  0  0
 80155  1  0  0  0
 80156  1  0  0  0
 81 83  1  0  0  0
 81157  1  0  0  0
 81158  1  0  0  0
 82 83  1  0  0  0
 82159  1  0  0  0
 82160  1  0  0  0
 84161  1  0  0  0
M  ISO  4   1 100  68 101  82 101  84 100
M  END
> <chiral flag>
0

> <version>
0

> <s_m_source_file>
/data/baiqing/PycharmProjects/Reinvent-master-3.2/result/LINK_invent/BTK/process_docking_weight1_custom_product_contain_oxygen_bond_distance_aromatic_linkinvent_7_9_3/rearranged_h_0136.sdf

> <i_m_source_file_index>
64

> <r_mmod_Potential_Energy-OPLS-2005>
4.40125608444214

> <r_mmod_Stretch_Energy-OPLS-2005>
54.8646774291992

> <r_mmod_Bend_Energy-OPLS-2005>
136.518280029297

> <r_mmod_Torsional_Energy-OPLS-2005>
243.140609741211

> <r_mmod_Improper_Torsional_Energy-OPLS-2005>
5.14146900177002

> <r_mmod_Van_der_Waal_Energy-OPLS-2005>
174.099578857422

> <r_mmod_Electrostatic_Energy-OPLS-2005>
-424.33154296875

> <r_mmod_Solvation_Energy-OPLS-2005>
-212.633941650391

> <b_mmod_Minimization_Converged-OPLS-2005>
0

> <r_mmod_RMS_Derivative-OPLS-2005>
2.91597414016724

$$$$
64
                    3D
 Structure written by MMmdl.
149157  0  0  1  0            999 V2000
  -30.5991  -14.6877   20.4772 C   0  0  0  0  0  0
  -30.4411  -12.4164   19.4636 C   0  0  0  0  0  0
  -29.5132  -12.5084   18.2311 C   0  0  0  0  0  0
  -28.0352  -12.3413   18.6399 C   0  0  0  0  0  0
  -27.6509  -13.2212   19.8597 C   0  0  2  0  0  0
  -28.6944  -13.0978   20.9924 C   0  0  0  0  0  0
  -25.2550  -13.8183   20.5690 C   0  0  0  0  0  0
  -24.1822  -13.0443   20.9199 C   0  0  0  0  0  0
  -24.6395  -11.6915   20.8738 C   0  0  0  0  0  0
  -23.9068  -10.4293   21.0402 C   0  0  0  0  0  0
  -24.3626   -9.4210   21.9177 C   0  0  0  0  0  0
  -23.6301   -8.2245   22.0750 C   0  0  0  0  0  0
  -22.4280   -8.0285   21.3543 C   0  0  0  0  0  0
  -21.9913   -9.0259   20.4647 C   0  0  0  0  0  0
  -22.7242  -10.2136   20.3051 C   0  0  0  0  0  0
  -21.6852   -6.0742   22.5279 C   0  0  0  0  0  0
  -21.4015   -6.5643   23.8216 C   0  0  0  0  0  0
  -21.3659   -5.6792   24.9177 C   0  0  0  0  0  0
  -21.6046   -4.3056   24.7224 C   0  0  0  0  0  0
  -21.8817   -3.8151   23.4344 C   0  0  0  0  0  0
  -21.9191   -4.6969   22.3403 C   0  0  0  0  0  0
  -22.7842  -13.5232   21.1861 C   0  0  0  0  0  0
  -22.1657   -4.2155   21.0978 F   0  0  0  0  0  0
  -21.5631   -3.4537   25.7737 F   0  0  0  0  0  0
  -30.0059  -13.4499   20.4276 N   0  0  0  0  0  0
  -26.2977  -12.9371   20.3299 N   0  0  0  0  0  0
  -25.9324  -11.6524   20.5750 N   0  0  0  0  0  0
  -22.0476  -12.8229   22.0417 N   0  0  0  0  0  0
  -25.4262  -15.1909   20.4113 N   0  0  0  0  0  0
  -31.7660  -14.8429   20.1014 O   0  0  0  0  0  0
  -21.6642   -6.8885   21.4241 O   0  0  0  0  0  0
  -22.3527  -14.5537   20.6708 O   0  0  0  0  0  0
  -24.6262  -31.8568   23.1995 C   0  0  0  0  0  0
  -25.9105  -32.4765   23.8332 C   0  0  1  0  0  0
  -27.2317  -27.2974   20.1164 C   0  0  0  0  0  0
  -25.5921  -33.8567   24.2264 N   0  0  0  0  0  0
  -23.4219  -30.4770   21.5421 C   0  0  2  0  0  0
  -24.8688  -28.9238   20.1111 C   0  0  0  0  0  0
  -22.7476  -29.4598   22.4927 C   0  0  0  0  0  0
  -18.0279  -28.1382   22.8477 C   0  0  0  0  0  0
  -24.1489  -36.7289   23.2641 C   0  0  0  0  0  0
  -25.9629  -30.7798   21.3735 C   0  0  0  0  0  0
  -26.0361  -29.4045   20.7156 C   0  0  0  0  0  0
  -27.2150  -28.6016   20.7084 C   0  0  0  0  0  0
  -26.0349  -26.8627   19.5038 C   0  0  0  0  0  0
  -24.8709  -27.6596   19.4995 C   0  0  0  0  0  0
  -23.6381  -29.8074   20.1586 C   0  0  0  0  0  0
  -25.4117  -36.3078   24.0326 C   0  0  1  0  0  0
  -20.5880  -28.3687   23.1276 C   0  0  2  0  0  0
  -20.6770  -26.9410   22.5406 C   0  0  0  0  0  0
  -19.5751  -26.6376   21.5206 C   0  0  0  0  0  0
  -18.1927  -26.7922   22.1615 C   0  0  0  0  0  0
  -19.1533  -28.8849   23.2870 C   0  0  0  0  0  0
  -18.9459  -30.1448   23.8892 C   0  0  0  0  0  0
  -17.6463  -30.6586   24.0554 C   0  0  0  0  0  0
  -25.9051  -34.9446   23.5097 C   0  0  0  0  0  0
  -16.5352  -29.9084   23.6329 C   0  0  0  0  0  0
  -16.7267  -28.6498   23.0354 C   0  0  0  0  0  0
  -26.4492  -31.6594   25.0719 C   0  0  0  0  0  0
  -25.3730  -31.3741   26.1454 C   0  0  0  0  0  0
  -27.0348  -30.3018   24.6196 C   0  0  0  0  0  0
  -27.6039  -32.4349   25.7496 C   0  0  0  0  0  0
  -27.5578  -37.1800   24.8463 C   0  0  0  0  0  0
  -21.4186  -29.3037   22.3674 N   0  0  0  0  0  0
  -26.4291  -37.3773   23.9404 N   0  0  0  0  0  0
  -24.6892  -31.0557   22.0953 N   0  0  0  0  0  0
  -23.4192  -28.8140   23.3015 O   0  0  0  0  0  0
  -28.3810  -26.4881   20.1813 O   0  0  0  0  0  0
  -26.5622  -34.8917   22.4667 O   0  0  0  0  0  0
  -23.5424  -32.1372   23.7316 O   0  0  0  0  0  0
  -30.5242  -19.3288   19.8832 C   0  0  0  0  0  0
  -30.7942  -17.8997   19.9182 C   0  0  0  0  0  0
  -29.3822  -19.7239   20.5468 C   0  0  0  0  0  0
  -29.8709  -17.1272   20.6011 C   0  0  0  0  0  0
  -28.7620  -21.0877   20.8302 C   0  0  0  0  0  0
  -29.0247  -22.4088   19.9900 C   0  0  0  0  0  0
  -28.4741  -23.8199   20.5580 C   0  0  0  0  0  0
  -28.4923  -25.1160   19.6146 C   0  0  0  0  0  0
  -29.7834  -15.7474   20.8114 N   0  0  0  0  0  0
  -27.9631  -21.1862   21.7659 O   0  0  0  0  0  0
  -28.6341  -18.2536   21.2162 S   0  0  0  0  0  0
  -31.4820  -12.5456   19.1622 H   0  0  0  0  0  0
  -30.3837  -11.4262   19.9181 H   0  0  0  0  0  0
  -29.7862  -11.7490   17.4969 H   0  0  0  0  0  0
  -29.6509  -13.4726   17.7387 H   0  0  0  0  0  0
  -27.8754  -11.2897   18.8801 H   0  0  0  0  0  0
  -27.3821  -12.5602   17.7944 H   0  0  0  0  0  0
  -27.6632  -14.2527   19.5068 H   0  0  0  0  0  0
  -28.7123  -12.0813   21.3882 H   0  0  0  0  0  0
  -28.4342  -13.7406   21.8348 H   0  0  0  0  0  0
  -25.2770   -9.5693   22.4756 H   0  0  0  0  0  0
  -24.0013   -7.4637   22.7467 H   0  0  0  0  0  0
  -21.0843   -8.8780   19.8956 H   0  0  0  0  0  0
  -22.3697  -10.9679   19.6165 H   0  0  0  0  0  0
  -21.2004   -7.6148   23.9727 H   0  0  0  0  0  0
  -21.1483   -6.0515   25.9082 H   0  0  0  0  0  0
  -22.0597   -2.7611   23.2840 H   0  0  0  0  0  0
  -22.4086  -11.9898   22.4827 H   0  0  0  0  0  0
  -21.1094  -13.1261   22.2620 H   0  0  0  0  0  0
  -24.6588  -15.8443   20.5231 H   0  0  0  0  0  0
  -26.2719  -15.6310   20.0716 H   0  0  0  0  0  0
  -26.7169  -32.5422   23.1073 H   0  0  0  0  0  0
  -25.0077  -33.9713   25.0416 H   0  0  0  0  0  0
  -22.7162  -31.2976   21.3965 H   0  0  0  0  0  0
  -23.3755  -35.9619   23.3307 H   0  0  0  0  0  0
  -24.3573  -36.8907   22.2052 H   0  0  0  0  0  0
  -23.7243  -37.6488   23.6670 H   0  0  0  0  0  0
  -26.0987  -31.5432   20.6064 H   0  0  0  0  0  0
  -26.8408  -30.8272   22.0058 H   0  0  0  0  0  0
  -28.1115  -28.9665   21.1893 H   0  0  0  0  0  0
  -25.9597  -25.8898   19.0442 H   0  0  0  0  0  0
  -23.9708  -27.2809   19.0350 H   0  0  0  0  0  0
  -23.7590  -30.5815   19.3999 H   0  0  0  0  0  0
  -22.7581  -29.2372   19.8557 H   0  0  0  0  0  0
  -25.1302  -36.1927   25.0819 H   0  0  0  0  0  0
  -20.9960  -28.3267   24.1402 H   0  0  0  0  0  0
  -20.5665  -26.2301   23.3610 H   0  0  0  0  0  0
  -21.6642  -26.7434   22.1212 H   0  0  0  0  0  0
  -19.6917  -25.6284   21.1242 H   0  0  0  0  0  0
  -19.6694  -27.3179   20.6732 H   0  0  0  0  0  0
  -17.4199  -26.6657   21.4015 H   0  0  0  0  0  0
  -18.0331  -26.0066   22.9015 H   0  0  0  0  0  0
  -19.7941  -30.7248   24.2271 H   0  0  0  0  0  0
  -17.5027  -31.6266   24.5156 H   0  0  0  0  0  0
  -15.5358  -30.2990   23.7654 H   0  0  0  0  0  0
  -15.8663  -28.0809   22.7093 H   0  0  0  0  0  0
  -24.5886  -30.7115   25.7786 H   0  0  0  0  0  0
  -24.8951  -32.2914   26.4901 H   0  0  0  0  0  0
  -25.8052  -30.8895   27.0220 H   0  0  0  0  0  0
  -26.2927  -29.6763   24.1220 H   0  0  0  0  0  0
  -27.4037  -29.7282   25.4711 H   0  0  0  0  0  0
  -27.8801  -30.4303   23.9433 H   0  0  0  0  0  0
  -27.2628  -33.3640   26.2077 H   0  0  0  0  0  0
  -28.3845  -32.6930   25.0330 H   0  0  0  0  0  0
  -28.0724  -31.8488   26.5413 H   0  0  0  0  0  0
  -28.2597  -38.0095   24.7507 H   0  0  0  0  0  0
  -28.1072  -36.2624   24.6298 H   0  0  0  0  0  0
  -27.2293  -37.1459   25.8864 H   0  0  0  0  0  0
  -20.9377  -29.8761   21.6877 H   0  0  0  0  0  0
  -26.0173  -38.2847   24.1409 H   0  0  0  0  0  0
  -31.1961  -20.0125   19.3834 H   0  0  0  0  0  0
  -31.6687  -17.4959   19.4268 H   0  0  0  0  0  0
  -28.5845  -22.2371   19.0080 H   0  0  0  0  0  0
  -30.0988  -22.4862   19.8226 H   0  0  0  0  0  0
  -29.0533  -24.0532   21.4517 H   0  0  0  0  0  0
  -27.4517  -23.6845   20.9107 H   0  0  0  0  0  0
  -27.8130  -24.9660   18.7784 H   0  0  0  0  0  0
  -29.4728  -25.1190   19.1383 H   0  0  0  0  0  0
  -28.8981  -15.4442   21.1877 H   0  0  0  0  0  0
  1 25  1  0  0  0
  1 30  2  0  0  0
  1 79  1  0  0  0
  2  3  1  0  0  0
  2 25  1  0  0  0
  2 82  1  0  0  0
  2 83  1  0  0  0
  3  4  1  0  0  0
  3 84  1  0  0  0
  3 85  1  0  0  0
  4  5  1  0  0  0
  4 86  1  0  0  0
  4 87  1  0  0  0
  5  6  1  0  0  0
  5 26  1  0  0  0
  5 88  1  0  0  0
  6 25  1  0  0  0
  6 89  1  0  0  0
  6 90  1  0  0  0
  7  8  2  0  0  0
  7 26  1  0  0  0
  7 29  1  0  0  0
  8  9  1  0  0  0
  8 22  1  0  0  0
  9 10  1  0  0  0
  9 27  2  0  0  0
 10 11  2  0  0  0
 10 15  1  0  0  0
 11 12  1  0  0  0
 11 91  1  0  0  0
 12 13  2  0  0  0
 12 92  1  0  0  0
 13 14  1  0  0  0
 13 31  1  0  0  0
 14 15  2  0  0  0
 14 93  1  0  0  0
 15 94  1  0  0  0
 16 17  2  0  0  0
 16 21  1  0  0  0
 16 31  1  0  0  0
 17 18  1  0  0  0
 17 95  1  0  0  0
 18 19  2  0  0  0
 18 96  1  0  0  0
 19 20  1  0  0  0
 19 24  1  0  0  0
 20 21  2  0  0  0
 20 97  1  0  0  0
 21 23  1  0  0  0
 22 28  1  0  0  0
 22 32  2  0  0  0
 26 27  1  0  0  0
 28 98  1  0  0  0
 28 99  1  0  0  0
 29100  1  0  0  0
 29101  1  0  0  0
 33 34  1  0  0  0
 33 66  1  0  0  0
 33 70  2  0  0  0
 34 36  1  0  0  0
 34 59  1  0  0  0
 34102  1  0  0  0
 35 44  2  0  0  0
 35 45  1  0  0  0
 35 68  1  0  0  0
 36 56  1  0  0  0
 36103  1  0  0  0
 37 39  1  0  0  0
 37 47  1  0  0  0
 37 66  1  0  0  0
 37104  1  0  0  0
 38 43  2  0  0  0
 38 46  1  0  0  0
 38 47  1  0  0  0
 39 64  1  0  0  0
 39 67  2  0  0  0
 40 52  1  0  0  0
 40 53  2  0  0  0
 40 58  1  0  0  0
 41105  1  0  0  0
 41106  1  0  0  0
 41107  1  0  0  0
 41 48  1  0  0  0
 42 43  1  0  0  0
 42 66  1  0  0  0
 42108  1  0  0  0
 42109  1  0  0  0
 43 44  1  0  0  0
 44110  1  0  0  0
 45 46  2  0  0  0
 45111  1  0  0  0
 46112  1  0  0  0
 47113  1  0  0  0
 47114  1  0  0  0
 48 56  1  0  0  0
 48 65  1  0  0  0
 48115  1  0  0  0
 49 50  1  0  0  0
 49 53  1  0  0  0
 49 64  1  0  0  0
 49116  1  0  0  0
 50 51  1  0  0  0
 50117  1  0  0  0
 50118  1  0  0  0
 51 52  1  0  0  0
 51119  1  0  0  0
 51120  1  0  0  0
 52121  1  0  0  0
 52122  1  0  0  0
 53 54  1  0  0  0
 54 55  2  0  0  0
 54123  1  0  0  0
 55 57  1  0  0  0
 55124  1  0  0  0
 56 69  2  0  0  0
 57 58  2  0  0  0
 57125  1  0  0  0
 58126  1  0  0  0
 59 60  1  0  0  0
 59 61  1  0  0  0
 59 62  1  0  0  0
 60127  1  0  0  0
 60128  1  0  0  0
 60129  1  0  0  0
 61130  1  0  0  0
 61131  1  0  0  0
 61132  1  0  0  0
 62133  1  0  0  0
 62134  1  0  0  0
 62135  1  0  0  0
 63 65  1  0  0  0
 63136  1  0  0  0
 63137  1  0  0  0
 63138  1  0  0  0
 64139  1  0  0  0
 65140  1  0  0  0
 68 78  1  0  0  0
 71 72  1  0  0  0
 71 73  2  0  0  0
 71141  1  0  0  0
 72 74  2  0  0  0
 72142  1  0  0  0
 73 75  1  0  0  0
 73 81  1  0  0  0
 74 79  1  0  0  0
 74 81  1  0  0  0
 75 76  1  0  0  0
 75 80  2  0  0  0
 76 77  1  0  0  0
 76143  1  0  0  0
 76144  1  0  0  0
 77 78  1  0  0  0
 77145  1  0  0  0
 77146  1  0  0  0
 78147  1  0  0  0
 78148  1  0  0  0
 79149  1  0  0  0
M  ISO  4   1 100  68 101  78 101  79 100
M  END
> <chiral flag>
0

> <version>
0

> <s_m_source_file>
/data/baiqing/PycharmProjects/Reinvent-master-3.2/result/LINK_invent/BTK/process_docking_weight1_custom_product_contain_oxygen_bond_distance_aromatic_linkinvent_7_9_3/rearranged_h_0136.sdf

> <i_m_source_file_index>
65

> <r_mmod_Potential_Energy-OPLS-2005>
51.2126274108887

> <r_mmod_Stretch_Energy-OPLS-2005>
90.735725402832

> <r_mmod_Bend_Energy-OPLS-2005>
163.129486083984

> <r_mmod_Torsional_Energy-OPLS-2005>
226.526443481445

> <r_mmod_Improper_Torsional_Energy-OPLS-2005>
3.95857858657837

> <r_mmod_Van_der_Waal_Energy-OPLS-2005>
117.792488098145

> <r_mmod_Electrostatic_Energy-OPLS-2005>
-392.136047363281

> <r_mmod_Solvation_Energy-OPLS-2005>
-218.40705871582

> <b_mmod_Minimization_Converged-OPLS-2005>
0

> <r_mmod_RMS_Derivative-OPLS-2005>
0.969896495342255

$$$$
65
                    3D
 Structure written by MMmdl.
165173  0  0  1  0            999 V2000
  -30.7277  -14.4343   20.2838 C   0  0  0  0  0  0
  -30.4036  -12.2177   19.4250 C   0  0  0  0  0  0
  -29.4845  -12.3723   18.1960 C   0  0  0  0  0  0
  -27.9990  -12.3244   18.6142 C   0  0  0  0  0  0
  -27.6471  -13.2018   19.8488 C   0  0  2  0  0  0
  -28.7148  -13.0801   20.9612 C   0  0  0  0  0  0
  -25.2579  -13.8133   20.5736 C   0  0  0  0  0  0
  -24.1846  -13.0426   20.9236 C   0  0  0  0  0  0
  -24.6381  -11.6879   20.8778 C   0  0  0  0  0  0
  -23.9056  -10.4273   21.0417 C   0  0  0  0  0  0
  -24.3611   -9.4198   21.9197 C   0  0  0  0  0  0
  -23.6286   -8.2239   22.0753 C   0  0  0  0  0  0
  -22.4263   -8.0284   21.3541 C   0  0  0  0  0  0
  -21.9902   -9.0257   20.4644 C   0  0  0  0  0  0
  -22.7226  -10.2137   20.3063 C   0  0  0  0  0  0
  -21.6851   -6.0726   22.5274 C   0  0  0  0  0  0
  -21.4012   -6.5641   23.8204 C   0  0  0  0  0  0
  -21.3648   -5.6793   24.9168 C   0  0  0  0  0  0
  -21.6046   -4.3057   24.7218 C   0  0  0  0  0  0
  -21.8825   -3.8137   23.4346 C   0  0  0  0  0  0
  -21.9198   -4.6956   22.3393 C   0  0  0  0  0  0
  -22.7874  -13.5240   21.1877 C   0  0  0  0  0  0
  -22.1668   -4.2152   21.0971 F   0  0  0  0  0  0
  -21.5622   -3.4535   25.7725 F   0  0  0  0  0  0
  -30.0587  -13.2621   20.3915 N   0  0  0  0  0  0
  -26.2996  -12.9273   20.3380 N   0  0  0  0  0  0
  -25.9320  -11.6446   20.5866 N   0  0  0  0  0  0
  -22.0498  -12.8219   22.0393 N   0  0  0  0  0  0
  -25.4254  -15.1875   20.4080 N   0  0  0  0  0  0
  -31.9440  -14.5219   20.4398 O   0  0  0  0  0  0
  -21.6634   -6.8877   21.4231 O   0  0  0  0  0  0
  -22.3567  -14.5539   20.6709 O   0  0  0  0  0  0
  -24.6124  -31.8673   23.2124 C   0  0  0  0  0  0
  -25.9024  -32.4823   23.8394 C   0  0  1  0  0  0
  -27.2302  -27.4543   20.0909 C   0  0  0  0  0  0
  -25.5919  -33.8616   24.2355 N   0  0  0  0  0  0
  -23.3983  -30.4925   21.5536 C   0  0  2  0  0  0
  -24.8395  -28.9588   20.1190 C   0  0  0  0  0  0
  -22.7403  -29.4675   22.5008 C   0  0  0  0  0  0
  -18.0288  -28.1360   22.8523 C   0  0  0  0  0  0
  -24.1479  -36.7312   23.2640 C   0  0  0  0  0  0
  -25.9235  -30.8374   21.3628 C   0  0  0  0  0  0
  -25.9984  -29.4735   20.7121 C   0  0  0  0  0  0
  -27.1967  -28.7296   20.6916 C   0  0  0  0  0  0
  -26.0479  -26.9406   19.5048 C   0  0  0  0  0  0
  -24.8562  -27.6900   19.5162 C   0  0  0  0  0  0
  -23.6021  -29.8246   20.1685 C   0  0  0  0  0  0
  -25.4100  -36.3098   24.0342 C   0  0  1  0  0  0
  -20.5892  -28.3645   23.1354 C   0  0  2  0  0  0
  -20.6776  -26.9392   22.5423 C   0  0  0  0  0  0
  -19.5742  -26.6388   21.5228 C   0  0  0  0  0  0
  -18.1926  -26.7922   22.1644 C   0  0  0  0  0  0
  -19.1539  -28.8816   23.2938 C   0  0  0  0  0  0
  -18.9444  -30.1435   23.8915 C   0  0  0  0  0  0
  -17.6443  -30.6580   24.0577 C   0  0  0  0  0  0
  -25.9031  -34.9468   23.5133 C   0  0  0  0  0  0
  -16.5343  -29.9079   23.6326 C   0  0  0  0  0  0
  -16.7281  -28.6495   23.0363 C   0  0  0  0  0  0
  -26.4484  -31.6595   25.0702 C   0  0  0  0  0  0
  -25.3776  -31.3673   26.1471 C   0  0  0  0  0  0
  -27.0317  -30.3031   24.6036 C   0  0  0  0  0  0
  -27.6050  -32.4312   25.7478 C   0  0  0  0  0  0
  -27.5590  -37.1804   24.8463 C   0  0  0  0  0  0
  -21.4139  -29.3022   22.3752 N   0  0  0  0  0  0
  -26.4292  -37.3779   23.9433 N   0  0  0  0  0  0
  -24.6635  -31.0794   22.1020 N   0  0  0  0  0  0
  -23.4177  -28.8198   23.3029 O   0  0  0  0  0  0
  -28.4326  -26.7886   20.0637 O   0  0  0  0  0  0
  -26.5588  -34.8915   22.4683 O   0  0  0  0  0  0
  -23.5339  -32.1404   23.7569 O   0  0  0  0  0  0
  -29.2418  -20.1771   19.6280 C   0  0  0  0  0  0
  -27.5735  -18.7952   20.7487 C   0  0  0  0  0  0
  -27.2509  -21.2105   20.5763 C   0  0  0  0  0  0
  -28.7900  -18.9031   20.0269 C   0  0  0  0  0  0
  -28.4715  -21.3234   19.8842 C   0  0  0  0  0  0
  -26.8093  -19.9489   21.0208 C   0  0  0  0  0  0
  -29.5233  -16.6652   20.0775 C   0  0  0  0  0  0
  -31.1778  -15.9225   18.2559 C   0  0  0  0  0  0
  -30.7674  -25.4669   21.0662 C   0  0  0  0  0  0
  -30.3875  -25.0218   18.6242 C   0  0  0  0  0  0
  -29.7871  -23.2660   20.3403 C   0  0  0  0  0  0
  -28.4055  -25.3716   20.1750 C   0  0  0  0  0  0
  -30.1373  -15.4961   19.3299 C   0  0  1  0  0  0
  -29.8323  -24.7837   20.0466 C   0  0  0  0  0  0
  -29.5279  -17.8203   19.5510 N   0  0  0  0  0  0
  -28.9074  -22.5615   19.4117 N   0  0  0  0  0  0
  -25.6307  -19.8398   21.6812 F   0  0  0  0  0  0
  -31.4531  -12.2613   19.1259 H   0  0  0  0  0  0
  -30.2647  -11.2386   19.8851 H   0  0  0  0  0  0
  -29.6813  -11.5620   17.4946 H   0  0  0  0  0  0
  -29.7045  -13.2809   17.6404 H   0  0  0  0  0  0
  -27.7725  -11.2807   18.8355 H   0  0  0  0  0  0
  -27.3601  -12.5921   17.7720 H   0  0  0  0  0  0
  -27.6249  -14.2316   19.5126 H   0  0  0  0  0  0
  -28.6625  -12.0994   21.4337 H   0  0  0  0  0  0
  -28.5364  -13.8115   21.7503 H   0  0  0  0  0  0
  -25.2753   -9.5680   22.4772 H   0  0  0  0  0  0
  -23.9994   -7.4628   22.7476 H   0  0  0  0  0  0
  -21.0833   -8.8775   19.8960 H   0  0  0  0  0  0
  -22.3684  -10.9677   19.6178 H   0  0  0  0  0  0
  -21.2005   -7.6152   23.9710 H   0  0  0  0  0  0
  -21.1461   -6.0518   25.9071 H   0  0  0  0  0  0
  -22.0613   -2.7610   23.2832 H   0  0  0  0  0  0
  -22.4084  -11.9862   22.4761 H   0  0  0  0  0  0
  -21.1131  -13.1259   22.2631 H   0  0  0  0  0  0
  -24.6454  -15.8296   20.5032 H   0  0  0  0  0  0
  -26.2580  -15.6243   20.0349 H   0  0  0  0  0  0
  -26.7085  -32.5515   23.1156 H   0  0  0  0  0  0
  -25.0080  -33.9750   25.0510 H   0  0  0  0  0  0
  -22.6886  -31.3098   21.4171 H   0  0  0  0  0  0
  -23.3720  -35.9664   23.3272 H   0  0  0  0  0  0
  -24.3589  -36.8932   22.2059 H   0  0  0  0  0  0
  -23.7216  -37.6514   23.6647 H   0  0  0  0  0  0
  -26.0326  -31.6006   20.5911 H   0  0  0  0  0  0
  -26.8142  -30.8917   21.9771 H   0  0  0  0  0  0
  -28.0967  -29.1244   21.1443 H   0  0  0  0  0  0
  -26.0242  -25.9793   19.0154 H   0  0  0  0  0  0
  -23.9660  -27.2885   19.0533 H   0  0  0  0  0  0
  -23.7073  -30.5965   19.4048 H   0  0  0  0  0  0
  -22.7212  -29.2476   19.8822 H   0  0  0  0  0  0
  -25.1257  -36.1974   25.0833 H   0  0  0  0  0  0
  -20.9982  -28.3160   24.1481 H   0  0  0  0  0  0
  -20.5713  -26.2219   23.3575 H   0  0  0  0  0  0
  -21.6634  -26.7456   22.1187 H   0  0  0  0  0  0
  -19.6898  -25.6305   21.1236 H   0  0  0  0  0  0
  -19.6680  -27.3209   20.6766 H   0  0  0  0  0  0
  -17.4204  -26.6724   21.4041 H   0  0  0  0  0  0
  -18.0302  -26.0050   22.9014 H   0  0  0  0  0  0
  -19.7912  -30.7280   24.2259 H   0  0  0  0  0  0
  -17.4993  -31.6256   24.5184 H   0  0  0  0  0  0
  -15.5341  -30.2989   23.7609 H   0  0  0  0  0  0
  -15.8694  -28.0815   22.7055 H   0  0  0  0  0  0
  -24.5945  -30.7016   25.7836 H   0  0  0  0  0  0
  -24.8982  -32.2819   26.4943 H   0  0  0  0  0  0
  -25.8170  -30.8840   27.0200 H   0  0  0  0  0  0
  -26.2842  -29.6769   24.1144 H   0  0  0  0  0  0
  -27.4169  -29.7263   25.4460 H   0  0  0  0  0  0
  -27.8641  -30.4332   23.9111 H   0  0  0  0  0  0
  -27.2646  -33.3598   26.2049 H   0  0  0  0  0  0
  -28.3878  -32.6885   25.0340 H   0  0  0  0  0  0
  -28.0686  -31.8434   26.5396 H   0  0  0  0  0  0
  -28.2577  -38.0138   24.7556 H   0  0  0  0  0  0
  -28.1129  -36.2669   24.6236 H   0  0  0  0  0  0
  -27.2322  -37.1373   25.8868 H   0  0  0  0  0  0
  -20.9261  -29.8717   21.6977 H   0  0  0  0  0  0
  -26.0176  -38.2852   24.1450 H   0  0  0  0  0  0
  -30.1616  -20.2636   19.0648 H   0  0  0  0  0  0
  -27.1840  -17.8381   21.0662 H   0  0  0  0  0  0
  -26.6437  -22.0818   20.7690 H   0  0  0  0  0  0
  -29.0505  -16.4304   21.0348 H   0  0  0  0  0  0
  -30.7182  -16.5054   17.4560 H   0  0  0  0  0  0
  -31.6403  -15.0531   17.7866 H   0  0  0  0  0  0
  -31.9797  -16.5251   18.6880 H   0  0  0  0  0  0
  -31.7600  -25.0152   21.0680 H   0  0  0  0  0  0
  -30.3746  -25.4043   22.0806 H   0  0  0  0  0  0
  -30.9017  -26.5240   20.8339 H   0  0  0  0  0  0
  -31.4008  -24.6278   18.5285 H   0  0  0  0  0  0
  -30.4214  -26.0819   18.3743 H   0  0  0  0  0  0
  -29.7759  -24.5359   17.8640 H   0  0  0  0  0  0
  -29.4406  -23.1082   21.3662 H   0  0  0  0  0  0
  -30.7892  -22.8378   20.2868 H   0  0  0  0  0  0
  -27.7734  -24.9307   19.4071 H   0  0  0  0  0  0
  -27.9716  -25.0955   21.1393 H   0  0  0  0  0  0
  -29.3296  -15.0665   18.7534 H   0  0  0  0  0  0
  -28.1427  -23.1536   19.1068 H   0  0  0  0  0  0
  1 25  1  0  0  0
  1 30  2  0  0  0
  1 83  1  0  0  0
  2  3  1  0  0  0
  2 25  1  0  0  0
  2 88  1  0  0  0
  2 89  1  0  0  0
  3  4  1  0  0  0
  3 90  1  0  0  0
  3 91  1  0  0  0
  4  5  1  0  0  0
  4 92  1  0  0  0
  4 93  1  0  0  0
  5  6  1  0  0  0
  5 26  1  0  0  0
  5 94  1  0  0  0
  6 25  1  0  0  0
  6 95  1  0  0  0
  6 96  1  0  0  0
  7  8  2  0  0  0
  7 26  1  0  0  0
  7 29  1  0  0  0
  8  9  1  0  0  0
  8 22  1  0  0  0
  9 10  1  0  0  0
  9 27  2  0  0  0
 10 11  2  0  0  0
 10 15  1  0  0  0
 11 12  1  0  0  0
 11 97  1  0  0  0
 12 13  2  0  0  0
 12 98  1  0  0  0
 13 14  1  0  0  0
 13 31  1  0  0  0
 14 15  2  0  0  0
 14 99  1  0  0  0
 15100  1  0  0  0
 16 17  2  0  0  0
 16 21  1  0  0  0
 16 31  1  0  0  0
 17 18  1  0  0  0
 17101  1  0  0  0
 18 19  2  0  0  0
 18102  1  0  0  0
 19 20  1  0  0  0
 19 24  1  0  0  0
 20 21  2  0  0  0
 20103  1  0  0  0
 21 23  1  0  0  0
 22 28  1  0  0  0
 22 32  2  0  0  0
 26 27  1  0  0  0
 28104  1  0  0  0
 28105  1  0  0  0
 29106  1  0  0  0
 29107  1  0  0  0
 33 34  1  0  0  0
 33 66  1  0  0  0
 33 70  2  0  0  0
 34 36  1  0  0  0
 34 59  1  0  0  0
 34108  1  0  0  0
 35 44  2  0  0  0
 35 45  1  0  0  0
 35 68  1  0  0  0
 36 56  1  0  0  0
 36109  1  0  0  0
 37 39  1  0  0  0
 37 47  1  0  0  0
 37 66  1  0  0  0
 37110  1  0  0  0
 38 43  2  0  0  0
 38 46  1  0  0  0
 38 47  1  0  0  0
 39 64  1  0  0  0
 39 67  2  0  0  0
 40 52  1  0  0  0
 40 53  2  0  0  0
 40 58  1  0  0  0
 41111  1  0  0  0
 41112  1  0  0  0
 41113  1  0  0  0
 41 48  1  0  0  0
 42 43  1  0  0  0
 42 66  1  0  0  0
 42114  1  0  0  0
 42115  1  0  0  0
 43 44  1  0  0  0
 44116  1  0  0  0
 45 46  2  0  0  0
 45117  1  0  0  0
 46118  1  0  0  0
 47119  1  0  0  0
 47120  1  0  0  0
 48 56  1  0  0  0
 48 65  1  0  0  0
 48121  1  0  0  0
 49 50  1  0  0  0
 49 53  1  0  0  0
 49 64  1  0  0  0
 49122  1  0  0  0
 50 51  1  0  0  0
 50123  1  0  0  0
 50124  1  0  0  0
 51 52  1  0  0  0
 51125  1  0  0  0
 51126  1  0  0  0
 52127  1  0  0  0
 52128  1  0  0  0
 53 54  1  0  0  0
 54 55  2  0  0  0
 54129  1  0  0  0
 55 57  1  0  0  0
 55130  1  0  0  0
 56 69  2  0  0  0
 57 58  2  0  0  0
 57131  1  0  0  0
 58132  1  0  0  0
 59 60  1  0  0  0
 59 61  1  0  0  0
 59 62  1  0  0  0
 60133  1  0  0  0
 60134  1  0  0  0
 60135  1  0  0  0
 61136  1  0  0  0
 61137  1  0  0  0
 61138  1  0  0  0
 62139  1  0  0  0
 62140  1  0  0  0
 62141  1  0  0  0
 63 65  1  0  0  0
 63142  1  0  0  0
 63143  1  0  0  0
 63144  1  0  0  0
 64145  1  0  0  0
 65146  1  0  0  0
 68 82  1  0  0  0
 71 74  2  0  0  0
 71 75  1  0  0  0
 71147  1  0  0  0
 72 74  1  0  0  0
 72 76  2  0  0  0
 72148  1  0  0  0
 73 75  2  0  0  0
 73 76  1  0  0  0
 73149  1  0  0  0
 74 85  1  0  0  0
 75 86  1  0  0  0
 76 87  1  0  0  0
 77 83  1  0  0  0
 77 85  2  0  0  0
 77150  1  0  0  0
 78151  1  0  0  0
 78152  1  0  0  0
 78153  1  0  0  0
 78 83  1  0  0  0
 79154  1  0  0  0
 79155  1  0  0  0
 79156  1  0  0  0
 79 84  1  0  0  0
 80 84  1  0  0  0
 80157  1  0  0  0
 80158  1  0  0  0
 80159  1  0  0  0
 81 84  1  0  0  0
 81 86  1  0  0  0
 81160  1  0  0  0
 81161  1  0  0  0
 82 84  1  0  0  0
 82162  1  0  0  0
 82163  1  0  0  0
 83164  1  0  0  0
 86165  1  0  0  0
M  ISO  4   1 100  68 101  82 101  83 100
M  END
> <chiral flag>
0

> <version>
0

> <s_m_source_file>
/data/baiqing/PycharmProjects/Reinvent-master-3.2/result/LINK_invent/BTK/process_docking_weight1_custom_product_contain_oxygen_bond_distance_aromatic_linkinvent_7_9_3/rearranged_h_0136.sdf

> <i_m_source_file_index>
66

> <r_mmod_Potential_Energy-OPLS-2005>
166.135345458984

> <r_mmod_Stretch_Energy-OPLS-2005>
32.8769760131836

> <r_mmod_Bend_Energy-OPLS-2005>
111.417938232422

> <r_mmod_Torsional_Energy-OPLS-2005>
275.946228027344

> <r_mmod_Improper_Torsional_Energy-OPLS-2005>
27.0356426239014

> <r_mmod_Van_der_Waal_Energy-OPLS-2005>
165.558319091797

> <r_mmod_Electrostatic_Energy-OPLS-2005>
-296.475128173828

> <r_mmod_Solvation_Energy-OPLS-2005>
-198.344863891602

> <b_mmod_Minimization_Converged-OPLS-2005>
0

> <r_mmod_RMS_Derivative-OPLS-2005>
4.0729832649231

$$$$
66
                    3D
 Structure written by MMmdl.
168176  0  0  1  0            999 V2000
  -30.5826  -14.7645   20.4136 C   0  0  0  0  0  0
  -30.4377  -12.4616   19.4679 C   0  0  0  0  0  0
  -29.5060  -12.4809   18.2335 C   0  0  0  0  0  0
  -28.0332  -12.3150   18.6533 C   0  0  0  0  0  0
  -27.6392  -13.2276   19.8439 C   0  0  2  0  0  0
  -28.6852  -13.1679   20.9773 C   0  0  0  0  0  0
  -25.2511  -13.8188   20.5707 C   0  0  0  0  0  0
  -24.1794  -13.0442   20.9207 C   0  0  0  0  0  0
  -24.6375  -11.6921   20.8746 C   0  0  0  0  0  0
  -23.9053  -10.4296   21.0404 C   0  0  0  0  0  0
  -24.3605   -9.4206   21.9179 C   0  0  0  0  0  0
  -23.6276   -8.2244   22.0755 C   0  0  0  0  0  0
  -22.4255   -8.0280   21.3554 C   0  0  0  0  0  0
  -21.9887   -9.0251   20.4658 C   0  0  0  0  0  0
  -22.7222  -10.2128   20.3056 C   0  0  0  0  0  0
  -21.6854   -6.0721   22.5271 C   0  0  0  0  0  0
  -21.4022   -6.5624   23.8202 C   0  0  0  0  0  0
  -21.3666   -5.6778   24.9166 C   0  0  0  0  0  0
  -21.6036   -4.3039   24.7220 C   0  0  0  0  0  0
  -21.8824   -3.8134   23.4340 C   0  0  0  0  0  0
  -21.9201   -4.6953   22.3399 C   0  0  0  0  0  0
  -22.7816  -13.5227   21.1864 C   0  0  0  0  0  0
  -22.1667   -4.2138   21.0978 F   0  0  0  0  0  0
  -21.5629   -3.4530   25.7738 F   0  0  0  0  0  0
  -29.9811  -13.5263   20.3906 N   0  0  0  0  0  0
  -26.2923  -12.9388   20.3262 N   0  0  0  0  0  0
  -25.9296  -11.6536   20.5737 N   0  0  0  0  0  0
  -22.0456  -12.8231   22.0431 N   0  0  0  0  0  0
  -25.4232  -15.1907   20.4156 N   0  0  0  0  0  0
  -31.7921  -14.8491   20.1944 O   0  0  0  0  0  0
  -21.6634   -6.8863   21.4233 O   0  0  0  0  0  0
  -22.3509  -14.5542   20.6714 O   0  0  0  0  0  0
  -24.6312  -31.8534   23.1966 C   0  0  0  0  0  0
  -25.9127  -32.4747   23.8324 C   0  0  1  0  0  0
  -27.2237  -27.2534   20.1451 C   0  0  0  0  0  0
  -25.5916  -33.8550   24.2258 N   0  0  0  0  0  0
  -23.4295  -30.4725   21.5404 C   0  0  2  0  0  0
  -24.8770  -28.9059   20.1217 C   0  0  0  0  0  0
  -22.7496  -29.4589   22.4919 C   0  0  0  0  0  0
  -18.0290  -28.1386   22.8483 C   0  0  0  0  0  0
  -24.1486  -36.7282   23.2645 C   0  0  0  0  0  0
  -25.9741  -30.7645   21.3746 C   0  0  0  0  0  0
  -26.0480  -29.3815   20.7260 C   0  0  0  0  0  0
  -27.2276  -28.5696   20.7188 C   0  0  0  0  0  0
  -26.0286  -26.8308   19.5322 C   0  0  0  0  0  0
  -24.8718  -27.6379   19.5150 C   0  0  0  0  0  0
  -23.6499  -29.7977   20.1602 C   0  0  0  0  0  0
  -25.4111  -36.3067   24.0331 C   0  0  1  0  0  0
  -20.5894  -28.3694   23.1272 C   0  0  2  0  0  0
  -20.6779  -26.9407   22.5417 C   0  0  0  0  0  0
  -19.5755  -26.6381   21.5217 C   0  0  0  0  0  0
  -18.1931  -26.7929   22.1620 C   0  0  0  0  0  0
  -19.1543  -28.8858   23.2872 C   0  0  0  0  0  0
  -18.9463  -30.1460   23.8891 C   0  0  0  0  0  0
  -17.6459  -30.6582   24.0565 C   0  0  0  0  0  0
  -25.9053  -34.9434   23.5102 C   0  0  0  0  0  0
  -16.5353  -29.9080   23.6329 C   0  0  0  0  0  0
  -16.7277  -28.6500   23.0347 C   0  0  0  0  0  0
  -26.4493  -31.6577   25.0717 C   0  0  0  0  0  0
  -25.3713  -31.3727   26.1437 C   0  0  0  0  0  0
  -27.0358  -30.3000   24.6215 C   0  0  0  0  0  0
  -27.6069  -32.4302   25.7474 C   0  0  0  0  0  0
  -27.5575  -37.1794   24.8464 C   0  0  0  0  0  0
  -21.4204  -29.3036   22.3660 N   0  0  0  0  0  0
  -26.4286  -37.3765   23.9406 N   0  0  0  0  0  0
  -24.6979  -31.0486   22.0942 N   0  0  0  0  0  0
  -23.4186  -28.8127   23.3025 O   0  0  0  0  0  0
  -28.3435  -26.3995   20.0872 O   0  0  0  0  0  0
  -26.5634  -34.8913   22.4679 O   0  0  0  0  0  0
  -23.5458  -32.1353   23.7259 O   0  0  0  0  0  0
  -30.0274  -19.9982   18.8907 C   0  0  0  0  0  0
  -29.3389  -18.4477   20.6139 C   0  0  0  0  0  0
  -30.5080  -18.9051   18.1396 C   0  0  0  0  0  0
  -30.4299  -17.5546   18.6130 C   0  0  0  0  0  0
  -29.8991  -17.2863   19.9239 C   0  0  0  0  0  0
  -29.3735  -19.8182   20.1175 C   0  0  0  0  0  0
  -31.0711  -19.2775   16.8168 C   0  0  0  0  0  0
  -30.1515  -19.1186   15.6128 C   0  0  0  0  0  0
  -32.5432  -15.0692   16.3699 C   0  0  0  0  0  0
  -28.4038  -23.6888   18.5366 C   0  0  0  0  0  0
  -30.7842  -16.4209   17.6323 C   0  0  0  0  0  0
  -32.2897  -16.2188   17.3534 C   0  0  0  0  0  0
  -28.3646  -25.0564   20.7652 C   0  0  0  0  0  0
  -29.1736  -22.3615   20.6305 C   0  0  0  0  0  0
  -28.2538  -23.5857   20.0616 C   0  0  2  0  0  0
  -29.7656  -15.8940   20.4707 N   0  0  0  0  0  0
  -32.1980  -19.7555   16.6704 O   0  0  0  0  0  0
  -28.7172  -20.9318   20.7251 O   0  0  0  0  0  0
  -31.4734  -12.6069   19.1553 H   0  0  0  0  0  0
  -30.4055  -11.4917   19.9659 H   0  0  0  0  0  0
  -29.7856  -11.6880   17.5379 H   0  0  0  0  0  0
  -29.6243  -13.4115   17.6811 H   0  0  0  0  0  0
  -27.8937  -11.2701   18.9316 H   0  0  0  0  0  0
  -27.3742  -12.4945   17.8028 H   0  0  0  0  0  0
  -27.6286  -14.2438   19.4492 H   0  0  0  0  0  0
  -28.7277  -12.1689   21.4132 H   0  0  0  0  0  0
  -28.4247  -13.8476   21.7896 H   0  0  0  0  0  0
  -25.2759   -9.5673   22.4743 H   0  0  0  0  0  0
  -23.9997   -7.4625   22.7458 H   0  0  0  0  0  0
  -21.0825   -8.8755   19.8964 H   0  0  0  0  0  0
  -22.3678  -10.9652   19.6156 H   0  0  0  0  0  0
  -21.2018   -7.6131   23.9694 H   0  0  0  0  0  0
  -21.1481   -6.0515   25.9063 H   0  0  0  0  0  0
  -22.0604   -2.7594   23.2839 H   0  0  0  0  0  0
  -22.4066  -11.9900   22.4835 H   0  0  0  0  0  0
  -21.1077  -13.1264   22.2638 H   0  0  0  0  0  0
  -24.6554  -15.8445   20.5258 H   0  0  0  0  0  0
  -26.2683  -15.6299   20.0752 H   0  0  0  0  0  0
  -26.7193  -32.5400   23.1067 H   0  0  0  0  0  0
  -25.0028  -33.9684   25.0377 H   0  0  0  0  0  0
  -22.7260  -31.2939   21.3890 H   0  0  0  0  0  0
  -23.3744  -35.9619   23.3315 H   0  0  0  0  0  0
  -24.3580  -36.8900   22.2059 H   0  0  0  0  0  0
  -23.7248  -37.6489   23.6665 H   0  0  0  0  0  0
  -26.1085  -31.5189   20.5987 H   0  0  0  0  0  0
  -26.8538  -30.8220   22.0048 H   0  0  0  0  0  0
  -28.1327  -28.9368   21.1815 H   0  0  0  0  0  0
  -25.9901  -25.8574   19.0640 H   0  0  0  0  0  0
  -23.9736  -27.2669   19.0405 H   0  0  0  0  0  0
  -23.7780  -30.5692   19.3998 H   0  0  0  0  0  0
  -22.7682  -29.2308   19.8559 H   0  0  0  0  0  0
  -25.1292  -36.1923   25.0824 H   0  0  0  0  0  0
  -20.9982  -28.3280   24.1392 H   0  0  0  0  0  0
  -20.5671  -26.2302   23.3623 H   0  0  0  0  0  0
  -21.6651  -26.7418   22.1221 H   0  0  0  0  0  0
  -19.6916  -25.6291   21.1254 H   0  0  0  0  0  0
  -19.6696  -27.3188   20.6745 H   0  0  0  0  0  0
  -17.4200  -26.6670   21.4024 H   0  0  0  0  0  0
  -18.0320  -26.0074   22.9018 H   0  0  0  0  0  0
  -19.7939  -30.7287   24.2245 H   0  0  0  0  0  0
  -17.5011  -31.6260   24.5167 H   0  0  0  0  0  0
  -15.5353  -30.2978   23.7661 H   0  0  0  0  0  0
  -15.8676  -28.0826   22.7053 H   0  0  0  0  0  0
  -24.5879  -30.7091   25.7747 H   0  0  0  0  0  0
  -24.8908  -32.2896   26.4859 H   0  0  0  0  0  0
  -25.8014  -30.8888   27.0215 H   0  0  0  0  0  0
  -26.2959  -29.6720   24.1240 H   0  0  0  0  0  0
  -27.4048  -29.7287   25.4743 H   0  0  0  0  0  0
  -27.8821  -30.4283   23.9464 H   0  0  0  0  0  0
  -27.2710  -33.3604   26.2061 H   0  0  0  0  0  0
  -28.3863  -32.6851   25.0281 H   0  0  0  0  0  0
  -28.0752  -31.8416   26.5372 H   0  0  0  0  0  0
  -28.2601  -38.0081   24.7499 H   0  0  0  0  0  0
  -28.1065  -36.2620   24.6298 H   0  0  0  0  0  0
  -27.2301  -37.1455   25.8869 H   0  0  0  0  0  0
  -20.9389  -29.8748   21.6857 H   0  0  0  0  0  0
  -26.0171  -38.2842   24.1398 H   0  0  0  0  0  0
  -30.0804  -20.9882   18.4595 H   0  0  0  0  0  0
  -28.8429  -18.2777   21.5598 H   0  0  0  0  0  0
  -29.2957  -18.4864   15.8472 H   0  0  0  0  0  0
  -30.6944  -18.6727   14.7798 H   0  0  0  0  0  0
  -29.7775  -20.0938   15.3042 H   0  0  0  0  0  0
  -33.6099  -14.9588   16.1704 H   0  0  0  0  0  0
  -32.0480  -15.2473   15.4144 H   0  0  0  0  0  0
  -32.1812  -14.1190   16.7652 H   0  0  0  0  0  0
  -27.7034  -24.4129   18.1212 H   0  0  0  0  0  0
  -28.1987  -22.7315   18.0568 H   0  0  0  0  0  0
  -29.4096  -23.9991   18.2527 H   0  0  0  0  0  0
  -30.2743  -16.6077   16.6890 H   0  0  0  0  0  0
  -30.3319  -15.4859   17.9370 H   0  0  0  0  0  0
  -32.7366  -17.1222   16.9427 H   0  0  0  0  0  0
  -32.8313  -16.0255   18.2771 H   0  0  0  0  0  0
  -29.3263  -25.0599   21.2778 H   0  0  0  0  0  0
  -27.6399  -25.0887   21.5801 H   0  0  0  0  0  0
  -29.3751  -22.6120   21.6722 H   0  0  0  0  0  0
  -30.1609  -22.4120   20.1713 H   0  0  0  0  0  0
  -27.2227  -23.2748   20.2359 H   0  0  0  0  0  0
  -28.8518  -15.6896   20.8472 H   0  0  0  0  0  0
  1 25  1  0  0  0
  1 30  2  0  0  0
  1 86  1  0  0  0
  2  3  1  0  0  0
  2 25  1  0  0  0
  2 89  1  0  0  0
  2 90  1  0  0  0
  3  4  1  0  0  0
  3 91  1  0  0  0
  3 92  1  0  0  0
  4  5  1  0  0  0
  4 93  1  0  0  0
  4 94  1  0  0  0
  5  6  1  0  0  0
  5 26  1  0  0  0
  5 95  1  0  0  0
  6 25  1  0  0  0
  6 96  1  0  0  0
  6 97  1  0  0  0
  7  8  2  0  0  0
  7 26  1  0  0  0
  7 29  1  0  0  0
  8  9  1  0  0  0
  8 22  1  0  0  0
  9 10  1  0  0  0
  9 27  2  0  0  0
 10 11  2  0  0  0
 10 15  1  0  0  0
 11 12  1  0  0  0
 11 98  1  0  0  0
 12 13  2  0  0  0
 12 99  1  0  0  0
 13 14  1  0  0  0
 13 31  1  0  0  0
 14 15  2  0  0  0
 14100  1  0  0  0
 15101  1  0  0  0
 16 17  2  0  0  0
 16 21  1  0  0  0
 16 31  1  0  0  0
 17 18  1  0  0  0
 17102  1  0  0  0
 18 19  2  0  0  0
 18103  1  0  0  0
 19 20  1  0  0  0
 19 24  1  0  0  0
 20 21  2  0  0  0
 20104  1  0  0  0
 21 23  1  0  0  0
 22 28  1  0  0  0
 22 32  2  0  0  0
 26 27  1  0  0  0
 28105  1  0  0  0
 28106  1  0  0  0
 29107  1  0  0  0
 29108  1  0  0  0
 33 34  1  0  0  0
 33 66  1  0  0  0
 33 70  2  0  0  0
 34 36  1  0  0  0
 34 59  1  0  0  0
 34109  1  0  0  0
 35 44  2  0  0  0
 35 45  1  0  0  0
 35 68  1  0  0  0
 36 56  1  0  0  0
 36110  1  0  0  0
 37 39  1  0  0  0
 37 47  1  0  0  0
 37 66  1  0  0  0
 37111  1  0  0  0
 38 43  2  0  0  0
 38 46  1  0  0  0
 38 47  1  0  0  0
 39 64  1  0  0  0
 39 67  2  0  0  0
 40 52  1  0  0  0
 40 53  2  0  0  0
 40 58  1  0  0  0
 41112  1  0  0  0
 41113  1  0  0  0
 41114  1  0  0  0
 41 48  1  0  0  0
 42 43  1  0  0  0
 42 66  1  0  0  0
 42115  1  0  0  0
 42116  1  0  0  0
 43 44  1  0  0  0
 44117  1  0  0  0
 45 46  2  0  0  0
 45118  1  0  0  0
 46119  1  0  0  0
 47120  1  0  0  0
 47121  1  0  0  0
 48 56  1  0  0  0
 48 65  1  0  0  0
 48122  1  0  0  0
 49 50  1  0  0  0
 49 53  1  0  0  0
 49 64  1  0  0  0
 49123  1  0  0  0
 50 51  1  0  0  0
 50124  1  0  0  0
 50125  1  0  0  0
 51 52  1  0  0  0
 51126  1  0  0  0
 51127  1  0  0  0
 52128  1  0  0  0
 52129  1  0  0  0
 53 54  1  0  0  0
 54 55  2  0  0  0
 54130  1  0  0  0
 55 57  1  0  0  0
 55131  1  0  0  0
 56 69  2  0  0  0
 57 58  2  0  0  0
 57132  1  0  0  0
 58133  1  0  0  0
 59 60  1  0  0  0
 59 61  1  0  0  0
 59 62  1  0  0  0
 60134  1  0  0  0
 60135  1  0  0  0
 60136  1  0  0  0
 61137  1  0  0  0
 61138  1  0  0  0
 61139  1  0  0  0
 62140  1  0  0  0
 62141  1  0  0  0
 62142  1  0  0  0
 63 65  1  0  0  0
 63143  1  0  0  0
 63144  1  0  0  0
 63145  1  0  0  0
 64146  1  0  0  0
 65147  1  0  0  0
 68 83  1  0  0  0
 71 73  2  0  0  0
 71 76  1  0  0  0
 71148  1  0  0  0
 72 75  1  0  0  0
 72 76  2  0  0  0
 72149  1  0  0  0
 73 74  1  0  0  0
 73 77  1  0  0  0
 74 75  2  0  0  0
 74 81  1  0  0  0
 75 86  1  0  0  0
 76 88  1  0  0  0
 77 78  1  0  0  0
 77 87  2  0  0  0
 78150  1  0  0  0
 78151  1  0  0  0
 78152  1  0  0  0
 79 82  1  0  0  0
 79153  1  0  0  0
 79154  1  0  0  0
 79155  1  0  0  0
 80156  1  0  0  0
 80157  1  0  0  0
 80158  1  0  0  0
 80 85  1  0  0  0
 81 82  1  0  0  0
 81159  1  0  0  0
 81160  1  0  0  0
 82161  1  0  0  0
 82162  1  0  0  0
 83 85  1  0  0  0
 83163  1  0  0  0
 83164  1  0  0  0
 84 85  1  0  0  0
 84 88  1  0  0  0
 84165  1  0  0  0
 84166  1  0  0  0
 85167  1  0  0  0
 86168  1  0  0  0
M  ISO  4   1 100  68 101  83 101  86 100
M  END
> <chiral flag>
0

> <version>
0

> <s_m_source_file>
/data/baiqing/PycharmProjects/Reinvent-master-3.2/result/LINK_invent/BTK/process_docking_weight1_custom_product_contain_oxygen_bond_distance_aromatic_linkinvent_7_9_3/rearranged_h_0136.sdf

> <i_m_source_file_index>
67

> <r_mmod_Potential_Energy-OPLS-2005>
302.108489990234

> <r_mmod_Stretch_Energy-OPLS-2005>
141.277755737305

> <r_mmod_Bend_Energy-OPLS-2005>
203.376617431641

> <r_mmod_Torsional_Energy-OPLS-2005>
341.419158935547

> <r_mmod_Improper_Torsional_Energy-OPLS-2005>
6.94850158691406

> <r_mmod_Van_der_Waal_Energy-OPLS-2005>
131.076370239258

> <r_mmod_Electrostatic_Energy-OPLS-2005>
-392.754364013672

> <r_mmod_Solvation_Energy-OPLS-2005>
-219.112854003906

> <b_mmod_Minimization_Converged-OPLS-2005>
0

> <r_mmod_RMS_Derivative-OPLS-2005>
1.88353288173676

$$$$
67
                    3D
 Structure written by MMmdl.
167175  0  0  1  0            999 V2000
  -30.7157  -14.4565   20.5734 C   0  0  0  0  0  0
  -30.4179  -12.3046   19.4188 C   0  0  0  0  0  0
  -29.4905  -12.5200   18.2060 C   0  0  0  0  0  0
  -28.0123  -12.3709   18.6155 C   0  0  0  0  0  0
  -27.6599  -13.2063   19.8756 C   0  0  2  0  0  0
  -28.7033  -12.9905   20.9973 C   0  0  0  0  0  0
  -25.2584  -13.8166   20.5685 C   0  0  0  0  0  0
  -24.1830  -13.0432   20.9168 C   0  0  0  0  0  0
  -24.6374  -11.6908   20.8718 C   0  0  0  0  0  0
  -23.9047  -10.4296   21.0410 C   0  0  0  0  0  0
  -24.3603   -9.4211   21.9188 C   0  0  0  0  0  0
  -23.6276   -8.2248   22.0774 C   0  0  0  0  0  0
  -22.4260   -8.0275   21.3559 C   0  0  0  0  0  0
  -21.9901   -9.0247   20.4652 C   0  0  0  0  0  0
  -22.7229  -10.2130   20.3055 C   0  0  0  0  0  0
  -21.6850   -6.0735   22.5276 C   0  0  0  0  0  0
  -21.4026   -6.5640   23.8209 C   0  0  0  0  0  0
  -21.3657   -5.6790   24.9172 C   0  0  0  0  0  0
  -21.6035   -4.3054   24.7226 C   0  0  0  0  0  0
  -21.8823   -3.8147   23.4351 C   0  0  0  0  0  0
  -21.9200   -4.6968   22.3402 C   0  0  0  0  0  0
  -22.7861  -13.5248   21.1823 C   0  0  0  0  0  0
  -22.1654   -4.2144   21.0979 F   0  0  0  0  0  0
  -21.5628   -3.4542   25.7745 F   0  0  0  0  0  0
  -30.0379  -13.2844   20.4466 N   0  0  0  0  0  0
  -26.3009  -12.9328   20.3375 N   0  0  0  0  0  0
  -25.9299  -11.6492   20.5766 N   0  0  0  0  0  0
  -22.0504  -12.8223   22.0367 N   0  0  0  0  0  0
  -25.4323  -15.1879   20.4083 N   0  0  0  0  0  0
  -31.8516  -14.6212   20.1173 O   0  0  0  0  0  0
  -21.6624   -6.8878   21.4237 O   0  0  0  0  0  0
  -22.3555  -14.5555   20.6680 O   0  0  0  0  0  0
  -24.6194  -31.8633   23.2118 C   0  0  0  0  0  0
  -25.9063  -32.4800   23.8426 C   0  0  1  0  0  0
  -27.2327  -27.4064   20.0777 C   0  0  0  0  0  0
  -25.5914  -33.8610   24.2353 N   0  0  0  0  0  0
  -23.4069  -30.4937   21.5516 C   0  0  2  0  0  0
  -24.8511  -28.9669   20.1079 C   0  0  0  0  0  0
  -22.7406  -29.4657   22.4948 C   0  0  0  0  0  0
  -18.0257  -28.1375   22.8508 C   0  0  0  0  0  0
  -24.1472  -36.7310   23.2646 C   0  0  0  0  0  0
  -25.9417  -30.8192   21.3728 C   0  0  0  0  0  0
  -26.0137  -29.4552   20.7126 C   0  0  0  0  0  0
  -27.2007  -28.6799   20.7030 C   0  0  0  0  0  0
  -26.0469  -26.9630   19.4431 C   0  0  0  0  0  0
  -24.8641  -27.7192   19.4719 C   0  0  0  0  0  0
  -23.6135  -29.8334   20.1647 C   0  0  0  0  0  0
  -25.4112  -36.3123   24.0332 C   0  0  1  0  0  0
  -20.5844  -28.3675   23.1291 C   0  0  2  0  0  0
  -20.6734  -26.9399   22.5406 C   0  0  0  0  0  0
  -19.5707  -26.6385   21.5212 C   0  0  0  0  0  0
  -18.1889  -26.7930   22.1625 C   0  0  0  0  0  0
  -19.1504  -28.8845   23.2898 C   0  0  0  0  0  0
  -18.9443  -30.1446   23.8925 C   0  0  0  0  0  0
  -17.6441  -30.6587   24.0566 C   0  0  0  0  0  0
  -25.9029  -34.9466   23.5133 C   0  0  0  0  0  0
  -16.5339  -29.9086   23.6331 C   0  0  0  0  0  0
  -16.7246  -28.6487   23.0392 C   0  0  0  0  0  0
  -26.4483  -31.6601   25.0767 C   0  0  0  0  0  0
  -25.3757  -31.3697   26.1516 C   0  0  0  0  0  0
  -27.0330  -30.3055   24.6158 C   0  0  0  0  0  0
  -27.6066  -32.4320   25.7520 C   0  0  0  0  0  0
  -27.5577  -37.1804   24.8459 C   0  0  0  0  0  0
  -21.4124  -29.3047   22.3688 N   0  0  0  0  0  0
  -26.4283  -37.3816   23.9412 N   0  0  0  0  0  0
  -24.6747  -31.0718   22.1034 N   0  0  0  0  0  0
  -23.4158  -28.8166   23.2976 O   0  0  0  0  0  0
  -28.4059  -26.6546   20.1321 O   0  0  0  0  0  0
  -26.5571  -34.8910   22.4681 O   0  0  0  0  0  0
  -23.5371  -32.1387   23.7493 O   0  0  0  0  0  0
  -31.8285  -18.7707   21.0275 C   0  0  0  0  0  0
  -31.5420  -17.4163   21.2959 C   0  0  0  0  0  0
  -29.3428  -17.7058   20.3114 C   0  0  0  0  0  0
  -30.8983  -19.6155   20.3726 C   0  0  0  0  0  0
  -29.6285  -19.0644   20.0258 C   0  0  0  0  0  0
  -30.3041  -16.8620   20.9074 C   0  0  0  0  0  0
  -31.3558  -20.9980   20.0154 C   0  0  0  0  0  0
  -29.8424  -24.6630   20.1462 C   0  0  0  0  0  0
  -28.7233  -19.6846   17.7512 C   0  0  0  0  0  0
  -27.3778  -24.3486   20.1464 C   0  0  0  0  0  0
  -28.5881  -25.3716   18.0855 C   0  0  0  0  0  0
  -28.5690  -19.8530   19.2679 C   0  0  0  0  0  0
  -30.6749  -22.2309   20.6174 C   0  0  0  0  0  0
  -30.2958  -23.3068   19.5600 C   0  0  0  0  0  0
  -28.5113  -25.2845   19.6296 C   0  0  0  0  0  0
  -32.3590  -21.1698   19.2636 N   0  0  0  0  0  0
  -30.0084  -15.4787   21.0937 N   0  0  0  0  0  0
  -30.5183  -25.2234   21.0147 O   0  0  0  0  0  0
  -31.4634  -12.3918   19.1159 H   0  0  0  0  0  0
  -30.3044  -11.2940   19.8116 H   0  0  0  0  0  0
  -29.7337  -11.8155   17.4097 H   0  0  0  0  0  0
  -29.6553  -13.5148   17.7895 H   0  0  0  0  0  0
  -27.8203  -11.3125   18.7986 H   0  0  0  0  0  0
  -27.3660  -12.6502   17.7836 H   0  0  0  0  0  0
  -27.6998  -14.2556   19.5793 H   0  0  0  0  0  0
  -28.6763  -11.9570   21.3453 H   0  0  0  0  0  0
  -28.4672  -13.5961   21.8738 H   0  0  0  0  0  0
  -25.2770   -9.5666   22.4744 H   0  0  0  0  0  0
  -23.9976   -7.4645   22.7496 H   0  0  0  0  0  0
  -21.0846   -8.8769   19.8945 H   0  0  0  0  0  0
  -22.3711  -10.9663   19.6142 H   0  0  0  0  0  0
  -21.2017   -7.6147   23.9712 H   0  0  0  0  0  0
  -21.1475   -6.0527   25.9068 H   0  0  0  0  0  0
  -22.0604   -2.7610   23.2862 H   0  0  0  0  0  0
  -22.4131  -11.9868   22.4704 H   0  0  0  0  0  0
  -21.1141  -13.1278   22.2631 H   0  0  0  0  0  0
  -24.6688  -15.8480   20.5101 H   0  0  0  0  0  0
  -26.2845  -15.6186   20.0749 H   0  0  0  0  0  0
  -26.7146  -32.5502   23.1206 H   0  0  0  0  0  0
  -25.0160  -33.9792   25.0559 H   0  0  0  0  0  0
  -22.6996  -31.3134   21.4137 H   0  0  0  0  0  0
  -23.3756  -35.9611   23.3284 H   0  0  0  0  0  0
  -24.3599  -36.8958   22.2072 H   0  0  0  0  0  0
  -23.7168  -37.6484   23.6673 H   0  0  0  0  0  0
  -26.0638  -31.5878   20.6093 H   0  0  0  0  0  0
  -26.8262  -30.8680   21.9949 H   0  0  0  0  0  0
  -28.0927  -29.0512   21.1883 H   0  0  0  0  0  0
  -25.9915  -26.0332   18.9072 H   0  0  0  0  0  0
  -23.9752  -27.3394   18.9877 H   0  0  0  0  0  0
  -23.7208  -30.6120   19.4093 H   0  0  0  0  0  0
  -22.7391  -29.2534   19.8659 H   0  0  0  0  0  0
  -25.1284  -36.2018   25.0821 H   0  0  0  0  0  0
  -20.9959  -28.3263   24.1403 H   0  0  0  0  0  0
  -20.5643  -26.2292   23.3608 H   0  0  0  0  0  0
  -21.6600  -26.7401   22.1214 H   0  0  0  0  0  0
  -19.6863  -25.6305   21.1236 H   0  0  0  0  0  0
  -19.6666  -27.3202   20.6755 H   0  0  0  0  0  0
  -17.4162  -26.6701   21.4017 H   0  0  0  0  0  0
  -18.0272  -26.0061   22.9006 H   0  0  0  0  0  0
  -19.7923  -30.7233   24.2333 H   0  0  0  0  0  0
  -17.5003  -31.6275   24.5150 H   0  0  0  0  0  0
  -15.5349  -30.3001   23.7628 H   0  0  0  0  0  0
  -15.8649  -28.0786   22.7148 H   0  0  0  0  0  0
  -24.5937  -30.7037   25.7848 H   0  0  0  0  0  0
  -24.8947  -32.2846   26.4987 H   0  0  0  0  0  0
  -25.8137  -30.8865   27.0263 H   0  0  0  0  0  0
  -26.2884  -29.6813   24.1217 H   0  0  0  0  0  0
  -27.4101  -29.7308   25.4630 H   0  0  0  0  0  0
  -27.8705  -30.4398   23.9315 H   0  0  0  0  0  0
  -27.2722  -33.3636   26.2097 H   0  0  0  0  0  0
  -28.3884  -32.6856   25.0345 H   0  0  0  0  0  0
  -28.0721  -31.8438   26.5443 H   0  0  0  0  0  0
  -28.2584  -38.0115   24.7574 H   0  0  0  0  0  0
  -28.1085  -36.2653   24.6228 H   0  0  0  0  0  0
  -27.2289  -37.1393   25.8855 H   0  0  0  0  0  0
  -20.9270  -29.8847   21.6990 H   0  0  0  0  0  0
  -26.0172  -38.2871   24.1500 H   0  0  0  0  0  0
  -32.8018  -19.1518   21.3050 H   0  0  0  0  0  0
  -32.2904  -16.8001   21.7751 H   0  0  0  0  0  0
  -28.3898  -17.2926   20.0123 H   0  0  0  0  0  0
  -27.9639  -20.2538   17.2146 H   0  0  0  0  0  0
  -28.6208  -18.6385   17.4597 H   0  0  0  0  0  0
  -29.7023  -20.0278   17.4146 H   0  0  0  0  0  0
  -26.6784  -24.0783   19.3576 H   0  0  0  0  0  0
  -26.8158  -24.8079   20.9578 H   0  0  0  0  0  0
  -27.7377  -23.3952   20.5340 H   0  0  0  0  0  0
  -28.5329  -24.3925   17.6103 H   0  0  0  0  0  0
  -29.5227  -25.8370   17.7689 H   0  0  0  0  0  0
  -27.7918  -25.9718   17.6521 H   0  0  0  0  0  0
  -28.5834  -20.9071   19.5300 H   0  0  0  0  0  0
  -27.5812  -19.5025   19.5749 H   0  0  0  0  0  0
  -31.3534  -22.6565   21.3569 H   0  0  0  0  0  0
  -29.7909  -21.9236   21.1760 H   0  0  0  0  0  0
  -31.1542  -23.5165   18.9221 H   0  0  0  0  0  0
  -29.5242  -22.9073   18.9045 H   0  0  0  0  0  0
  -32.7468  -20.2873   18.9503 H   0  0  0  0  0  0
  -29.0604  -15.2429   21.3479 H   0  0  0  0  0  0
  1 25  1  0  0  0
  1 30  2  0  0  0
  1 87  1  0  0  0
  2  3  1  0  0  0
  2 25  1  0  0  0
  2 89  1  0  0  0
  2 90  1  0  0  0
  3  4  1  0  0  0
  3 91  1  0  0  0
  3 92  1  0  0  0
  4  5  1  0  0  0
  4 93  1  0  0  0
  4 94  1  0  0  0
  5  6  1  0  0  0
  5 26  1  0  0  0
  5 95  1  0  0  0
  6 25  1  0  0  0
  6 96  1  0  0  0
  6 97  1  0  0  0
  7  8  2  0  0  0
  7 26  1  0  0  0
  7 29  1  0  0  0
  8  9  1  0  0  0
  8 22  1  0  0  0
  9 10  1  0  0  0
  9 27  2  0  0  0
 10 11  2  0  0  0
 10 15  1  0  0  0
 11 12  1  0  0  0
 11 98  1  0  0  0
 12 13  2  0  0  0
 12 99  1  0  0  0
 13 14  1  0  0  0
 13 31  1  0  0  0
 14 15  2  0  0  0
 14100  1  0  0  0
 15101  1  0  0  0
 16 17  2  0  0  0
 16 21  1  0  0  0
 16 31  1  0  0  0
 17 18  1  0  0  0
 17102  1  0  0  0
 18 19  2  0  0  0
 18103  1  0  0  0
 19 20  1  0  0  0
 19 24  1  0  0  0
 20 21  2  0  0  0
 20104  1  0  0  0
 21 23  1  0  0  0
 22 28  1  0  0  0
 22 32  2  0  0  0
 26 27  1  0  0  0
 28105  1  0  0  0
 28106  1  0  0  0
 29107  1  0  0  0
 29108  1  0  0  0
 33 34  1  0  0  0
 33 66  1  0  0  0
 33 70  2  0  0  0
 34 36  1  0  0  0
 34 59  1  0  0  0
 34109  1  0  0  0
 35 44  2  0  0  0
 35 45  1  0  0  0
 35 68  1  0  0  0
 36 56  1  0  0  0
 36110  1  0  0  0
 37 39  1  0  0  0
 37 47  1  0  0  0
 37 66  1  0  0  0
 37111  1  0  0  0
 38 43  2  0  0  0
 38 46  1  0  0  0
 38 47  1  0  0  0
 39 64  1  0  0  0
 39 67  2  0  0  0
 40 52  1  0  0  0
 40 53  2  0  0  0
 40 58  1  0  0  0
 41112  1  0  0  0
 41113  1  0  0  0
 41114  1  0  0  0
 41 48  1  0  0  0
 42 43  1  0  0  0
 42 66  1  0  0  0
 42115  1  0  0  0
 42116  1  0  0  0
 43 44  1  0  0  0
 44117  1  0  0  0
 45 46  2  0  0  0
 45118  1  0  0  0
 46119  1  0  0  0
 47120  1  0  0  0
 47121  1  0  0  0
 48 56  1  0  0  0
 48 65  1  0  0  0
 48122  1  0  0  0
 49 50  1  0  0  0
 49 53  1  0  0  0
 49 64  1  0  0  0
 49123  1  0  0  0
 50 51  1  0  0  0
 50124  1  0  0  0
 50125  1  0  0  0
 51 52  1  0  0  0
 51126  1  0  0  0
 51127  1  0  0  0
 52128  1  0  0  0
 52129  1  0  0  0
 53 54  1  0  0  0
 54 55  2  0  0  0
 54130  1  0  0  0
 55 57  1  0  0  0
 55131  1  0  0  0
 56 69  2  0  0  0
 57 58  2  0  0  0
 57132  1  0  0  0
 58133  1  0  0  0
 59 60  1  0  0  0
 59 61  1  0  0  0
 59 62  1  0  0  0
 60134  1  0  0  0
 60135  1  0  0  0
 60136  1  0  0  0
 61137  1  0  0  0
 61138  1  0  0  0
 61139  1  0  0  0
 62140  1  0  0  0
 62141  1  0  0  0
 62142  1  0  0  0
 63 65  1  0  0  0
 63143  1  0  0  0
 63144  1  0  0  0
 63145  1  0  0  0
 64146  1  0  0  0
 65147  1  0  0  0
 68 85  1  0  0  0
 71 72  2  0  0  0
 71 74  1  0  0  0
 71148  1  0  0  0
 72 76  1  0  0  0
 72149  1  0  0  0
 73 75  1  0  0  0
 73 76  2  0  0  0
 73150  1  0  0  0
 74 75  2  0  0  0
 74 77  1  0  0  0
 75 82  1  0  0  0
 76 87  1  0  0  0
 77 83  1  0  0  0
 77 86  2  0  0  0
 78 84  1  0  0  0
 78 85  1  0  0  0
 78 88  2  0  0  0
 79 82  1  0  0  0
 79151  1  0  0  0
 79152  1  0  0  0
 79153  1  0  0  0
 80154  1  0  0  0
 80155  1  0  0  0
 80156  1  0  0  0
 80 85  1  0  0  0
 81 85  1  0  0  0
 81157  1  0  0  0
 81158  1  0  0  0
 81159  1  0  0  0
 82160  1  0  0  0
 82161  1  0  0  0
 83 84  1  0  0  0
 83162  1  0  0  0
 83163  1  0  0  0
 84164  1  0  0  0
 84165  1  0  0  0
 86166  1  0  0  0
 87167  1  0  0  0
M  ISO  4   1 100  68 101  85 101  87 100
M  END
> <chiral flag>
0

> <version>
0

> <s_m_source_file>
/data/baiqing/PycharmProjects/Reinvent-master-3.2/result/LINK_invent/BTK/process_docking_weight1_custom_product_contain_oxygen_bond_distance_aromatic_linkinvent_7_9_3/rearranged_h_0136.sdf

> <i_m_source_file_index>
68

> <r_mmod_Potential_Energy-OPLS-2005>
-37.6652183532715

> <r_mmod_Stretch_Energy-OPLS-2005>
46.6350860595703

> <r_mmod_Bend_Energy-OPLS-2005>
114.436782836914

> <r_mmod_Torsional_Energy-OPLS-2005>
244.986206054688

> <r_mmod_Improper_Torsional_Energy-OPLS-2005>
5.27170896530151

> <r_mmod_Van_der_Waal_Energy-OPLS-2005>
164.242874145508

> <r_mmod_Electrostatic_Energy-OPLS-2005>
-395.717346191406

> <r_mmod_Solvation_Energy-OPLS-2005>
-233.193588256836

> <b_mmod_Minimization_Converged-OPLS-2005>
0

> <r_mmod_RMS_Derivative-OPLS-2005>
3.11702847480774

$$$$
68
                    3D
 Structure written by MMmdl.
168176  0  0  1  0            999 V2000
  -30.6117  -14.6204   20.5057 C   0  0  0  0  0  0
  -30.4392  -12.3813   19.4527 C   0  0  0  0  0  0
  -29.5111  -12.5110   18.2237 C   0  0  0  0  0  0
  -28.0295  -12.3560   18.6278 C   0  0  0  0  0  0
  -27.6546  -13.2138   19.8660 C   0  0  2  0  0  0
  -28.6953  -13.0487   20.9959 C   0  0  0  0  0  0
  -25.2563  -13.8167   20.5682 C   0  0  0  0  0  0
  -24.1824  -13.0434   20.9177 C   0  0  0  0  0  0
  -24.6384  -11.6902   20.8719 C   0  0  0  0  0  0
  -23.9050  -10.4290   21.0393 C   0  0  0  0  0  0
  -24.3602   -9.4207   21.9175 C   0  0  0  0  0  0
  -23.6288   -8.2234   22.0745 C   0  0  0  0  0  0
  -22.4269   -8.0270   21.3535 C   0  0  0  0  0  0
  -21.9896   -9.0243   20.4633 C   0  0  0  0  0  0
  -22.7221  -10.2128   20.3041 C   0  0  0  0  0  0
  -21.6860   -6.0732   22.5283 C   0  0  0  0  0  0
  -21.4014   -6.5635   23.8217 C   0  0  0  0  0  0
  -21.3657   -5.6784   24.9176 C   0  0  0  0  0  0
  -21.6043   -4.3048   24.7221 C   0  0  0  0  0  0
  -21.8826   -3.8142   23.4341 C   0  0  0  0  0  0
  -21.9186   -4.6957   22.3400 C   0  0  0  0  0  0
  -22.7850  -13.5228   21.1848 C   0  0  0  0  0  0
  -22.1662   -4.2146   21.0979 F   0  0  0  0  0  0
  -21.5626   -3.4531   25.7736 F   0  0  0  0  0  0
  -30.0134  -13.3912   20.4406 N   0  0  0  0  0  0
  -26.2990  -12.9344   20.3309 N   0  0  0  0  0  0
  -25.9315  -11.6500   20.5733 N   0  0  0  0  0  0
  -22.0481  -12.8235   22.0406 N   0  0  0  0  0  0
  -25.4266  -15.1889   20.4134 N   0  0  0  0  0  0
  -31.7828  -14.7817   20.1561 O   0  0  0  0  0  0
  -21.6630   -6.8874   21.4245 O   0  0  0  0  0  0
  -22.3541  -14.5540   20.6693 O   0  0  0  0  0  0
  -24.6255  -31.8611   23.2019 C   0  0  0  0  0  0
  -25.9106  -32.4786   23.8349 C   0  0  1  0  0  0
  -27.2264  -27.3294   20.1157 C   0  0  0  0  0  0
  -25.5930  -33.8586   24.2274 N   0  0  0  0  0  0
  -23.4182  -30.4840   21.5454 C   0  0  2  0  0  0
  -24.8637  -28.9363   20.1176 C   0  0  0  0  0  0
  -22.7472  -29.4637   22.4953 C   0  0  0  0  0  0
  -18.0287  -28.1393   22.8495 C   0  0  0  0  0  0
  -24.1493  -36.7293   23.2638 C   0  0  0  0  0  0
  -25.9581  -30.7948   21.3713 C   0  0  0  0  0  0
  -26.0329  -29.4218   20.7160 C   0  0  0  0  0  0
  -27.2182  -28.6308   20.7023 C   0  0  0  0  0  0
  -26.0334  -26.8912   19.4982 C   0  0  0  0  0  0
  -24.8646  -27.6752   19.5018 C   0  0  0  0  0  0
  -23.6323  -29.8158   20.1626 C   0  0  0  0  0  0
  -25.4117  -36.3085   24.0328 C   0  0  1  0  0  0
  -20.5888  -28.3696   23.1292 C   0  0  2  0  0  0
  -20.6779  -26.9422   22.5417 C   0  0  0  0  0  0
  -19.5751  -26.6388   21.5227 C   0  0  0  0  0  0
  -18.1928  -26.7939   22.1634 C   0  0  0  0  0  0
  -19.1539  -28.8859   23.2890 C   0  0  0  0  0  0
  -18.9461  -30.1462   23.8900 C   0  0  0  0  0  0
  -17.6461  -30.6595   24.0565 C   0  0  0  0  0  0
  -25.9054  -34.9459   23.5099 C   0  0  0  0  0  0
  -16.5354  -29.9093   23.6330 C   0  0  0  0  0  0
  -16.7274  -28.6513   23.0348 C   0  0  0  0  0  0
  -26.4489  -31.6599   25.0723 C   0  0  0  0  0  0
  -25.3714  -31.3754   26.1448 C   0  0  0  0  0  0
  -27.0322  -30.3016   24.6177 C   0  0  0  0  0  0
  -27.6044  -32.4344   25.7494 C   0  0  0  0  0  0
  -27.5585  -37.1801   24.8463 C   0  0  0  0  0  0
  -21.4191  -29.3050   22.3688 N   0  0  0  0  0  0
  -26.4294  -37.3781   23.9411 N   0  0  0  0  0  0
  -24.6860  -31.0636   22.0963 N   0  0  0  0  0  0
  -23.4200  -28.8182   23.3034 O   0  0  0  0  0  0
  -28.3649  -26.5144   20.1219 O   0  0  0  0  0  0
  -26.5623  -34.8923   22.4664 O   0  0  0  0  0  0
  -23.5424  -32.1412   23.7351 O   0  0  0  0  0  0
  -29.9599  -19.1820   19.2084 C   0  0  0  0  0  0
  -29.1137  -17.9251   21.5292 C   0  0  0  0  0  0
  -30.1748  -17.7735   19.3598 C   0  0  0  0  0  0
  -29.2824  -19.9816   20.1651 C   0  0  0  0  0  0
  -29.7574  -17.1030   20.5603 C   0  0  0  0  0  0
  -28.8756  -19.3171   21.3446 C   0  0  0  0  0  0
  -32.3185  -17.3135   18.1091 C   0  0  0  0  0  0
  -30.1193  -17.3533   16.8312 C   0  0  0  0  0  0
  -29.8514  -24.1786   18.6154 C   0  0  0  0  0  0
  -30.6600  -24.8792   20.8666 C   0  0  0  0  0  0
  -28.8757  -21.4615   19.8317 C   0  0  0  0  0  0
  -29.4908  -22.6549   20.6651 C   0  0  0  0  0  0
  -28.2110  -25.0584   20.3454 C   0  0  0  0  0  0
  -30.8076  -17.0406   18.1725 C   0  0  0  0  0  0
  -29.5098  -24.1699   20.1186 C   0  0  0  0  0  0
  -29.7782  -15.6584   20.8330 N   0  0  0  0  0  0
  -28.2097  -20.0090   22.3008 F   0  0  0  0  0  0
  -31.4811  -12.5108   19.1549 H   0  0  0  0  0  0
  -30.3736  -11.3800   19.8811 H   0  0  0  0  0  0
  -29.7749  -11.7640   17.4738 H   0  0  0  0  0  0
  -29.6623  -13.4826   17.7517 H   0  0  0  0  0  0
  -27.8536  -11.3015   18.8418 H   0  0  0  0  0  0
  -27.3797  -12.6051   17.7883 H   0  0  0  0  0  0
  -27.6774  -14.2535   19.5388 H   0  0  0  0  0  0
  -28.7015  -12.0215   21.3639 H   0  0  0  0  0  0
  -28.4403  -13.6690   21.8565 H   0  0  0  0  0  0
  -25.2748   -9.5693   22.4743 H   0  0  0  0  0  0
  -24.0002   -7.4627   22.7468 H   0  0  0  0  0  0
  -21.0822   -8.8748   19.8949 H   0  0  0  0  0  0
  -22.3668  -10.9654   19.6137 H   0  0  0  0  0  0
  -21.2008   -7.6145   23.9723 H   0  0  0  0  0  0
  -21.1482   -6.0510   25.9085 H   0  0  0  0  0  0
  -22.0604   -2.7604   23.2836 H   0  0  0  0  0  0
  -22.4099  -11.9904   22.4808 H   0  0  0  0  0  0
  -21.1088  -13.1265   22.2594 H   0  0  0  0  0  0
  -24.6563  -15.8379   20.5292 H   0  0  0  0  0  0
  -26.2728  -15.6361   20.0844 H   0  0  0  0  0  0
  -26.7178  -32.5457   23.1106 H   0  0  0  0  0  0
  -25.0083  -33.9730   25.0423 H   0  0  0  0  0  0
  -22.7116  -31.3040   21.4014 H   0  0  0  0  0  0
  -23.3759  -35.9622   23.3302 H   0  0  0  0  0  0
  -24.3583  -36.8908   22.2051 H   0  0  0  0  0  0
  -23.7243  -37.6493   23.6657 H   0  0  0  0  0  0
  -26.0873  -31.5569   20.6017 H   0  0  0  0  0  0
  -26.8396  -30.8441   21.9990 H   0  0  0  0  0  0
  -28.1201  -29.0032   21.1680 H   0  0  0  0  0  0
  -25.9810  -25.9388   18.9945 H   0  0  0  0  0  0
  -23.9691  -27.2973   19.0273 H   0  0  0  0  0  0
  -23.7528  -30.5899   19.4037 H   0  0  0  0  0  0
  -22.7522  -29.2450   19.8612 H   0  0  0  0  0  0
  -25.1299  -36.1933   25.0822 H   0  0  0  0  0  0
  -20.9982  -28.3271   24.1415 H   0  0  0  0  0  0
  -20.5698  -26.2309   23.3617 H   0  0  0  0  0  0
  -21.6643  -26.7463   22.1196 H   0  0  0  0  0  0
  -19.6907  -25.6297   21.1257 H   0  0  0  0  0  0
  -19.6683  -27.3198   20.6755 H   0  0  0  0  0  0
  -17.4205  -26.6701   21.4026 H   0  0  0  0  0  0
  -18.0312  -26.0076   22.9023 H   0  0  0  0  0  0
  -19.7933  -30.7281   24.2271 H   0  0  0  0  0  0
  -17.5011  -31.6270   24.5171 H   0  0  0  0  0  0
  -15.5350  -30.2994   23.7643 H   0  0  0  0  0  0
  -15.8678  -28.0829   22.7053 H   0  0  0  0  0  0
  -24.5879  -30.7116   25.7779 H   0  0  0  0  0  0
  -24.8919  -32.2932   26.4861 H   0  0  0  0  0  0
  -25.8026  -30.8936   27.0232 H   0  0  0  0  0  0
  -26.2892  -29.6783   24.1187 H   0  0  0  0  0  0
  -27.4000  -29.7261   25.4683 H   0  0  0  0  0  0
  -27.8775  -30.4296   23.9408 H   0  0  0  0  0  0
  -27.2639  -33.3638   26.2072 H   0  0  0  0  0  0
  -28.3848  -32.6922   25.0322 H   0  0  0  0  0  0
  -28.0722  -31.8478   26.5411 H   0  0  0  0  0  0
  -28.2600  -38.0100   24.7516 H   0  0  0  0  0  0
  -28.1084  -36.2633   24.6281 H   0  0  0  0  0  0
  -27.2308  -37.1439   25.8867 H   0  0  0  0  0  0
  -20.9373  -29.8768   21.6894 H   0  0  0  0  0  0
  -26.0179  -38.2857   24.1407 H   0  0  0  0  0  0
  -30.2768  -19.6637   18.2954 H   0  0  0  0  0  0
  -28.7496  -17.4758   22.4420 H   0  0  0  0  0  0
  -32.8080  -17.0243   19.0401 H   0  0  0  0  0  0
  -32.5320  -18.3695   17.9438 H   0  0  0  0  0  0
  -32.7882  -16.7461   17.3057 H   0  0  0  0  0  0
  -29.0505  -17.1429   16.8840 H   0  0  0  0  0  0
  -30.5314  -16.7322   16.0349 H   0  0  0  0  0  0
  -30.2437  -18.3896   16.5200 H   0  0  0  0  0  0
  -30.7618  -23.6168   18.4049 H   0  0  0  0  0  0
  -30.0024  -25.1946   18.2491 H   0  0  0  0  0  0
  -29.0479  -23.7466   18.0185 H   0  0  0  0  0  0
  -31.6161  -24.3749   20.7174 H   0  0  0  0  0  0
  -30.4696  -24.9158   21.9398 H   0  0  0  0  0  0
  -30.7931  -25.9056   20.5230 H   0  0  0  0  0  0
  -27.7877  -21.5238   19.8851 H   0  0  0  0  0  0
  -29.1134  -21.6061   18.7792 H   0  0  0  0  0  0
  -30.5332  -22.3646   20.8009 H   0  0  0  0  0  0
  -29.0728  -22.6368   21.6728 H   0  0  0  0  0  0
  -27.8728  -24.9299   21.3744 H   0  0  0  0  0  0
  -27.4248  -24.6339   19.7251 H   0  0  0  0  0  0
  -30.6562  -15.9733   18.2839 H   0  0  0  0  0  0
  -28.9450  -15.3239   21.2930 H   0  0  0  0  0  0
  1 25  1  0  0  0
  1 30  2  0  0  0
  1 86  1  0  0  0
  2  3  1  0  0  0
  2 25  1  0  0  0
  2 88  1  0  0  0
  2 89  1  0  0  0
  3  4  1  0  0  0
  3 90  1  0  0  0
  3 91  1  0  0  0
  4  5  1  0  0  0
  4 92  1  0  0  0
  4 93  1  0  0  0
  5  6  1  0  0  0
  5 26  1  0  0  0
  5 94  1  0  0  0
  6 25  1  0  0  0
  6 95  1  0  0  0
  6 96  1  0  0  0
  7  8  2  0  0  0
  7 26  1  0  0  0
  7 29  1  0  0  0
  8  9  1  0  0  0
  8 22  1  0  0  0
  9 10  1  0  0  0
  9 27  2  0  0  0
 10 11  2  0  0  0
 10 15  1  0  0  0
 11 12  1  0  0  0
 11 97  1  0  0  0
 12 13  2  0  0  0
 12 98  1  0  0  0
 13 14  1  0  0  0
 13 31  1  0  0  0
 14 15  2  0  0  0
 14 99  1  0  0  0
 15100  1  0  0  0
 16 17  2  0  0  0
 16 21  1  0  0  0
 16 31  1  0  0  0
 17 18  1  0  0  0
 17101  1  0  0  0
 18 19  2  0  0  0
 18102  1  0  0  0
 19 20  1  0  0  0
 19 24  1  0  0  0
 20 21  2  0  0  0
 20103  1  0  0  0
 21 23  1  0  0  0
 22 28  1  0  0  0
 22 32  2  0  0  0
 26 27  1  0  0  0
 28104  1  0  0  0
 28105  1  0  0  0
 29106  1  0  0  0
 29107  1  0  0  0
 33 34  1  0  0  0
 33 66  1  0  0  0
 33 70  2  0  0  0
 34 36  1  0  0  0
 34 59  1  0  0  0
 34108  1  0  0  0
 35 44  2  0  0  0
 35 45  1  0  0  0
 35 68  1  0  0  0
 36 56  1  0  0  0
 36109  1  0  0  0
 37 39  1  0  0  0
 37 47  1  0  0  0
 37 66  1  0  0  0
 37110  1  0  0  0
 38 43  2  0  0  0
 38 46  1  0  0  0
 38 47  1  0  0  0
 39 64  1  0  0  0
 39 67  2  0  0  0
 40 52  1  0  0  0
 40 53  2  0  0  0
 40 58  1  0  0  0
 41111  1  0  0  0
 41112  1  0  0  0
 41113  1  0  0  0
 41 48  1  0  0  0
 42 43  1  0  0  0
 42 66  1  0  0  0
 42114  1  0  0  0
 42115  1  0  0  0
 43 44  1  0  0  0
 44116  1  0  0  0
 45 46  2  0  0  0
 45117  1  0  0  0
 46118  1  0  0  0
 47119  1  0  0  0
 47120  1  0  0  0
 48 56  1  0  0  0
 48 65  1  0  0  0
 48121  1  0  0  0
 49 50  1  0  0  0
 49 53  1  0  0  0
 49 64  1  0  0  0
 49122  1  0  0  0
 50 51  1  0  0  0
 50123  1  0  0  0
 50124  1  0  0  0
 51 52  1  0  0  0
 51125  1  0  0  0
 51126  1  0  0  0
 52127  1  0  0  0
 52128  1  0  0  0
 53 54  1  0  0  0
 54 55  2  0  0  0
 54129  1  0  0  0
 55 57  1  0  0  0
 55130  1  0  0  0
 56 69  2  0  0  0
 57 58  2  0  0  0
 57131  1  0  0  0
 58132  1  0  0  0
 59 60  1  0  0  0
 59 61  1  0  0  0
 59 62  1  0  0  0
 60133  1  0  0  0
 60134  1  0  0  0
 60135  1  0  0  0
 61136  1  0  0  0
 61137  1  0  0  0
 61138  1  0  0  0
 62139  1  0  0  0
 62140  1  0  0  0
 62141  1  0  0  0
 63 65  1  0  0  0
 63142  1  0  0  0
 63143  1  0  0  0
 63144  1  0  0  0
 64145  1  0  0  0
 65146  1  0  0  0
 68 83  1  0  0  0
 71 73  2  0  0  0
 71 74  1  0  0  0
 71147  1  0  0  0
 72 75  2  0  0  0
 72 76  1  0  0  0
 72148  1  0  0  0
 73 75  1  0  0  0
 73 84  1  0  0  0
 74 76  2  0  0  0
 74 81  1  0  0  0
 75 86  1  0  0  0
 76 87  1  0  0  0
 77149  1  0  0  0
 77150  1  0  0  0
 77151  1  0  0  0
 77 84  1  0  0  0
 78 84  1  0  0  0
 78152  1  0  0  0
 78153  1  0  0  0
 78154  1  0  0  0
 79155  1  0  0  0
 79156  1  0  0  0
 79157  1  0  0  0
 79 85  1  0  0  0
 80 85  1  0  0  0
 80158  1  0  0  0
 80159  1  0  0  0
 80160  1  0  0  0
 81 82  1  0  0  0
 81161  1  0  0  0
 81162  1  0  0  0
 82 85  1  0  0  0
 82163  1  0  0  0
 82164  1  0  0  0
 83 85  1  0  0  0
 83165  1  0  0  0
 83166  1  0  0  0
 84167  1  0  0  0
 86168  1  0  0  0
M  ISO  4   1 100  68 101  83 101  86 100
M  END
> <chiral flag>
0

> <version>
0

> <s_m_source_file>
/data/baiqing/PycharmProjects/Reinvent-master-3.2/result/LINK_invent/BTK/process_docking_weight1_custom_product_contain_oxygen_bond_distance_aromatic_linkinvent_7_9_3/rearranged_h_0136.sdf

> <i_m_source_file_index>
69

> <r_mmod_Potential_Energy-OPLS-2005>
125.279945373535

> <r_mmod_Stretch_Energy-OPLS-2005>
80.8117980957031

> <r_mmod_Bend_Energy-OPLS-2005>
157.632141113281

> <r_mmod_Torsional_Energy-OPLS-2005>
252.095016479492

> <r_mmod_Improper_Torsional_Energy-OPLS-2005>
4.97244644165039

> <r_mmod_Van_der_Waal_Energy-OPLS-2005>
144.385589599609

> <r_mmod_Electrostatic_Energy-OPLS-2005>
-370.351379394531

> <r_mmod_Solvation_Energy-OPLS-2005>
-185.747451782227

> <b_mmod_Minimization_Converged-OPLS-2005>
0

> <r_mmod_RMS_Derivative-OPLS-2005>
1.45052075386047

$$$$
69
                    3D
 Structure written by MMmdl.
154162  0  0  1  0            999 V2000
  -30.5981  -14.7799   20.4527 C   0  0  0  0  0  0
  -30.4344  -12.4751   19.4819 C   0  0  0  0  0  0
  -29.5127  -12.5106   18.2419 C   0  0  0  0  0  0
  -28.0395  -12.3299   18.6544 C   0  0  0  0  0  0
  -27.6407  -13.2338   19.8509 C   0  0  2  0  0  0
  -28.6848  -13.1803   20.9879 C   0  0  0  0  0  0
  -25.2502  -13.8196   20.5695 C   0  0  0  0  0  0
  -24.1798  -13.0440   20.9212 C   0  0  0  0  0  0
  -24.6391  -11.6918   20.8746 C   0  0  0  0  0  0
  -23.9070  -10.4293   21.0404 C   0  0  0  0  0  0
  -24.3619   -9.4210   21.9183 C   0  0  0  0  0  0
  -23.6293   -8.2245   22.0754 C   0  0  0  0  0  0
  -22.4276   -8.0278   21.3545 C   0  0  0  0  0  0
  -21.9912   -9.0252   20.4648 C   0  0  0  0  0  0
  -22.7241  -10.2133   20.3056 C   0  0  0  0  0  0
  -21.6855   -6.0732   22.5277 C   0  0  0  0  0  0
  -21.4016   -6.5637   23.8210 C   0  0  0  0  0  0
  -21.3660   -5.6791   24.9172 C   0  0  0  0  0  0
  -21.6045   -4.3054   24.7224 C   0  0  0  0  0  0
  -21.8820   -3.8144   23.4346 C   0  0  0  0  0  0
  -21.9194   -4.6960   22.3401 C   0  0  0  0  0  0
  -22.7821  -13.5220   21.1867 C   0  0  0  0  0  0
  -22.1663   -4.2143   21.0980 F   0  0  0  0  0  0
  -21.5628   -3.4540   25.7739 F   0  0  0  0  0  0
  -29.9834  -13.5437   20.4069 N   0  0  0  0  0  0
  -26.2931  -12.9406   20.3283 N   0  0  0  0  0  0
  -25.9325  -11.6548   20.5756 N   0  0  0  0  0  0
  -22.0470  -12.8206   22.0422 N   0  0  0  0  0  0
  -25.4186  -15.1923   20.4099 N   0  0  0  0  0  0
  -31.7892  -14.8632   20.1335 O   0  0  0  0  0  0
  -21.6642   -6.8875   21.4239 O   0  0  0  0  0  0
  -22.3503  -14.5522   20.6713 O   0  0  0  0  0  0
  -24.6330  -31.8532   23.1967 C   0  0  0  0  0  0
  -25.9148  -32.4740   23.8319 C   0  0  1  0  0  0
  -27.2131  -27.2321   20.1480 C   0  0  0  0  0  0
  -25.5935  -33.8543   24.2239 N   0  0  0  0  0  0
  -23.4322  -30.4739   21.5405 C   0  0  2  0  0  0
  -24.8803  -28.9159   20.1111 C   0  0  0  0  0  0
  -22.7513  -29.4582   22.4900 C   0  0  0  0  0  0
  -18.0290  -28.1386   22.8468 C   0  0  0  0  0  0
  -24.1494  -36.7274   23.2638 C   0  0  0  0  0  0
  -25.9790  -30.7562   21.3837 C   0  0  0  0  0  0
  -26.0509  -29.3742   20.7304 C   0  0  0  0  0  0
  -27.2218  -28.5449   20.7370 C   0  0  0  0  0  0
  -26.0330  -26.8625   19.4700 C   0  0  0  0  0  0
  -24.8769  -27.6686   19.4677 C   0  0  0  0  0  0
  -23.6533  -29.8075   20.1564 C   0  0  0  0  0  0
  -25.4120  -36.3057   24.0327 C   0  0  1  0  0  0
  -20.5896  -28.3695   23.1257 C   0  0  2  0  0  0
  -20.6781  -26.9408   22.5404 C   0  0  0  0  0  0
  -19.5760  -26.6376   21.5206 C   0  0  0  0  0  0
  -18.1935  -26.7924   22.1612 C   0  0  0  0  0  0
  -19.1545  -28.8857   23.2853 C   0  0  0  0  0  0
  -18.9472  -30.1456   23.8878 C   0  0  0  0  0  0
  -17.6474  -30.6584   24.0554 C   0  0  0  0  0  0
  -25.9065  -34.9430   23.5089 C   0  0  0  0  0  0
  -16.5362  -29.9082   23.6333 C   0  0  0  0  0  0
  -16.7279  -28.6502   23.0347 C   0  0  0  0  0  0
  -26.4512  -31.6576   25.0719 C   0  0  0  0  0  0
  -25.3726  -31.3739   26.1435 C   0  0  0  0  0  0
  -27.0368  -30.2990   24.6230 C   0  0  0  0  0  0
  -27.6054  -32.4329   25.7499 C   0  0  0  0  0  0
  -27.5581  -37.1787   24.8461 C   0  0  0  0  0  0
  -21.4218  -29.3039   22.3648 N   0  0  0  0  0  0
  -26.4286  -37.3763   23.9416 N   0  0  0  0  0  0
  -24.7004  -31.0471   22.0961 N   0  0  0  0  0  0
  -23.4200  -28.8124   23.3015 O   0  0  0  0  0  0
  -28.3029  -26.3207   20.1539 O   0  0  0  0  0  0
  -26.5635  -34.8909   22.4657 O   0  0  0  0  0  0
  -23.5473  -32.1367   23.7244 O   0  0  0  0  0  0
  -29.2527  -18.4140   20.6181 C   0  0  0  0  0  0
  -31.2315  -19.0930   19.8910 C   0  0  0  0  0  0
  -29.9967  -19.6089   20.2042 C   0  0  0  0  0  0
  -30.0899  -17.2874   20.4707 C   0  0  0  0  0  0
  -29.7451  -21.1444   20.0281 C   0  0  0  0  0  0
  -28.8040  -22.1166   20.3466 C   0  0  0  0  0  0
  -29.1386  -25.0721   21.9839 C   0  0  0  0  0  0
  -26.8307  -24.5244   21.2493 C   0  0  0  0  0  0
  -28.8225  -23.6601   19.8719 C   0  0  0  0  0  0
  -28.2397  -24.9131   20.7485 C   0  0  0  0  0  0
  -29.8154  -15.9162   20.6718 N   0  0  0  0  0  0
  -31.3046  -17.7255   20.0360 O   0  0  0  0  0  0
  -31.4747  -12.6019   19.1778 H   0  0  0  0  0  0
  -30.3846  -11.5014   19.9721 H   0  0  0  0  0  0
  -29.8008  -11.7325   17.5337 H   0  0  0  0  0  0
  -29.6339  -13.4608   17.7189 H   0  0  0  0  0  0
  -27.9016  -11.2820   18.9231 H   0  0  0  0  0  0
  -27.3817  -12.5140   17.8044 H   0  0  0  0  0  0
  -27.6311  -14.2529   19.4638 H   0  0  0  0  0  0
  -28.7277  -12.1840   21.4306 H   0  0  0  0  0  0
  -28.4132  -13.8611   21.7960 H   0  0  0  0  0  0
  -25.2763   -9.5684   22.4760 H   0  0  0  0  0  0
  -24.0000   -7.4637   22.7476 H   0  0  0  0  0  0
  -21.0844   -8.8774   19.8954 H   0  0  0  0  0  0
  -22.3697  -10.9672   19.6167 H   0  0  0  0  0  0
  -21.2012   -7.6146   23.9709 H   0  0  0  0  0  0
  -21.1480   -6.0524   25.9074 H   0  0  0  0  0  0
  -22.0599   -2.7606   23.2851 H   0  0  0  0  0  0
  -22.4097  -11.9870   22.4807 H   0  0  0  0  0  0
  -21.1088  -13.1227   22.2635 H   0  0  0  0  0  0
  -24.6452  -15.8410   20.5090 H   0  0  0  0  0  0
  -26.2550  -15.6302   20.0467 H   0  0  0  0  0  0
  -26.7206  -32.5387   23.1051 H   0  0  0  0  0  0
  -25.0085  -33.9674   25.0384 H   0  0  0  0  0  0
  -22.7298  -31.2965   21.3924 H   0  0  0  0  0  0
  -23.3758  -35.9604   23.3294 H   0  0  0  0  0  0
  -24.3579  -36.8907   22.2053 H   0  0  0  0  0  0
  -23.7246  -37.6469   23.6675 H   0  0  0  0  0  0
  -26.1220  -31.5135   20.6116 H   0  0  0  0  0  0
  -26.8539  -30.8055   22.0202 H   0  0  0  0  0  0
  -28.1186  -28.8888   21.2311 H   0  0  0  0  0  0
  -25.9956  -25.9178   18.9474 H   0  0  0  0  0  0
  -23.9881  -27.3198   18.9602 H   0  0  0  0  0  0
  -23.7822  -30.5848   19.4018 H   0  0  0  0  0  0
  -22.7710  -29.2437   19.8490 H   0  0  0  0  0  0
  -25.1299  -36.1897   25.0818 H   0  0  0  0  0  0
  -20.9975  -28.3279   24.1386 H   0  0  0  0  0  0
  -20.5684  -26.2304   23.3610 H   0  0  0  0  0  0
  -21.6651  -26.7434   22.1200 H   0  0  0  0  0  0
  -19.6928  -25.6286   21.1241 H   0  0  0  0  0  0
  -19.6708  -27.3182   20.6732 H   0  0  0  0  0  0
  -17.4207  -26.6659   21.4013 H   0  0  0  0  0  0
  -18.0332  -26.0077   22.9022 H   0  0  0  0  0  0
  -19.7959  -30.7258   24.2247 H   0  0  0  0  0  0
  -17.5041  -31.6268   24.5150 H   0  0  0  0  0  0
  -15.5363  -30.2979   23.7678 H   0  0  0  0  0  0
  -15.8675  -28.0819   22.7071 H   0  0  0  0  0  0
  -24.5900  -30.7089   25.7764 H   0  0  0  0  0  0
  -24.8916  -32.2912   26.4836 H   0  0  0  0  0  0
  -25.8027  -30.8931   27.0230 H   0  0  0  0  0  0
  -26.2963  -29.6720   24.1246 H   0  0  0  0  0  0
  -27.4032  -29.7268   25.4761 H   0  0  0  0  0  0
  -27.8847  -30.4251   23.9495 H   0  0  0  0  0  0
  -27.2645  -33.3636   26.2047 H   0  0  0  0  0  0
  -28.3874  -32.6875   25.0337 H   0  0  0  0  0  0
  -28.0708  -31.8476   26.5441 H   0  0  0  0  0  0
  -28.2571  -38.0108   24.7527 H   0  0  0  0  0  0
  -28.1101  -36.2635   24.6259 H   0  0  0  0  0  0
  -27.2298  -37.1394   25.8862 H   0  0  0  0  0  0
  -20.9411  -29.8765   21.6849 H   0  0  0  0  0  0
  -26.0162  -38.2832   24.1443 H   0  0  0  0  0  0
  -28.2228  -18.3835   20.9437 H   0  0  0  0  0  0
  -32.1469  -19.5448   19.5340 H   0  0  0  0  0  0
  -30.5505  -21.5733   19.4472 H   0  0  0  0  0  0
  -27.9431  -21.8170   20.9260 H   0  0  0  0  0  0
  -28.7598  -25.8456   22.6535 H   0  0  0  0  0  0
  -30.1515  -25.3559   21.6971 H   0  0  0  0  0  0
  -29.2047  -24.1463   22.5565 H   0  0  0  0  0  0
  -26.8694  -23.6378   21.8812 H   0  0  0  0  0  0
  -26.1568  -24.2856   20.4275 H   0  0  0  0  0  0
  -26.3739  -25.3090   21.8533 H   0  0  0  0  0  0
  -28.2665  -23.6652   18.9342 H   0  0  0  0  0  0
  -29.8469  -23.8958   19.5816 H   0  0  0  0  0  0
  -28.8668  -15.7083   20.9411 H   0  0  0  0  0  0
  1 25  1  0  0  0
  1 30  2  0  0  0
  1 81  1  0  0  0
  2  3  1  0  0  0
  2 25  1  0  0  0
  2 83  1  0  0  0
  2 84  1  0  0  0
  3  4  1  0  0  0
  3 85  1  0  0  0
  3 86  1  0  0  0
  4  5  1  0  0  0
  4 87  1  0  0  0
  4 88  1  0  0  0
  5  6  1  0  0  0
  5 26  1  0  0  0
  5 89  1  0  0  0
  6 25  1  0  0  0
  6 90  1  0  0  0
  6 91  1  0  0  0
  7  8  2  0  0  0
  7 26  1  0  0  0
  7 29  1  0  0  0
  8  9  1  0  0  0
  8 22  1  0  0  0
  9 10  1  0  0  0
  9 27  2  0  0  0
 10 11  2  0  0  0
 10 15  1  0  0  0
 11 12  1  0  0  0
 11 92  1  0  0  0
 12 13  2  0  0  0
 12 93  1  0  0  0
 13 14  1  0  0  0
 13 31  1  0  0  0
 14 15  2  0  0  0
 14 94  1  0  0  0
 15 95  1  0  0  0
 16 17  2  0  0  0
 16 21  1  0  0  0
 16 31  1  0  0  0
 17 18  1  0  0  0
 17 96  1  0  0  0
 18 19  2  0  0  0
 18 97  1  0  0  0
 19 20  1  0  0  0
 19 24  1  0  0  0
 20 21  2  0  0  0
 20 98  1  0  0  0
 21 23  1  0  0  0
 22 28  1  0  0  0
 22 32  2  0  0  0
 26 27  1  0  0  0
 28 99  1  0  0  0
 28100  1  0  0  0
 29101  1  0  0  0
 29102  1  0  0  0
 33 34  1  0  0  0
 33 66  1  0  0  0
 33 70  2  0  0  0
 34 36  1  0  0  0
 34 59  1  0  0  0
 34103  1  0  0  0
 35 44  2  0  0  0
 35 45  1  0  0  0
 35 68  1  0  0  0
 36 56  1  0  0  0
 36104  1  0  0  0
 37 39  1  0  0  0
 37 47  1  0  0  0
 37 66  1  0  0  0
 37105  1  0  0  0
 38 43  2  0  0  0
 38 46  1  0  0  0
 38 47  1  0  0  0
 39 64  1  0  0  0
 39 67  2  0  0  0
 40 52  1  0  0  0
 40 53  2  0  0  0
 40 58  1  0  0  0
 41106  1  0  0  0
 41107  1  0  0  0
 41108  1  0  0  0
 41 48  1  0  0  0
 42 43  1  0  0  0
 42 66  1  0  0  0
 42109  1  0  0  0
 42110  1  0  0  0
 43 44  1  0  0  0
 44111  1  0  0  0
 45 46  2  0  0  0
 45112  1  0  0  0
 46113  1  0  0  0
 47114  1  0  0  0
 47115  1  0  0  0
 48 56  1  0  0  0
 48 65  1  0  0  0
 48116  1  0  0  0
 49 50  1  0  0  0
 49 53  1  0  0  0
 49 64  1  0  0  0
 49117  1  0  0  0
 50 51  1  0  0  0
 50118  1  0  0  0
 50119  1  0  0  0
 51 52  1  0  0  0
 51120  1  0  0  0
 51121  1  0  0  0
 52122  1  0  0  0
 52123  1  0  0  0
 53 54  1  0  0  0
 54 55  2  0  0  0
 54124  1  0  0  0
 55 57  1  0  0  0
 55125  1  0  0  0
 56 69  2  0  0  0
 57 58  2  0  0  0
 57126  1  0  0  0
 58127  1  0  0  0
 59 60  1  0  0  0
 59 61  1  0  0  0
 59 62  1  0  0  0
 60128  1  0  0  0
 60129  1  0  0  0
 60130  1  0  0  0
 61131  1  0  0  0
 61132  1  0  0  0
 61133  1  0  0  0
 62134  1  0  0  0
 62135  1  0  0  0
 62136  1  0  0  0
 63 65  1  0  0  0
 63137  1  0  0  0
 63138  1  0  0  0
 63139  1  0  0  0
 64140  1  0  0  0
 65141  1  0  0  0
 68 80  1  0  0  0
 71 73  1  0  0  0
 71 74  2  0  0  0
 71142  1  0  0  0
 72 73  2  0  0  0
 72 82  1  0  0  0
 72143  1  0  0  0
 73 75  1  0  0  0
 74 81  1  0  0  0
 74 82  1  0  0  0
 75 76  2  0  0  0
 75144  1  0  0  0
 76 79  1  0  0  0
 76145  1  0  0  0
 77146  1  0  0  0
 77147  1  0  0  0
 77148  1  0  0  0
 77 80  1  0  0  0
 78 80  1  0  0  0
 78149  1  0  0  0
 78150  1  0  0  0
 78151  1  0  0  0
 79 80  1  0  0  0
 79152  1  0  0  0
 79153  1  0  0  0
 81154  1  0  0  0
M  ISO  4   1 100  68 101  80 101  81 100
M  END
> <chiral flag>
0

> <version>
0

> <s_m_source_file>
/data/baiqing/PycharmProjects/Reinvent-master-3.2/result/LINK_invent/BTK/process_docking_weight1_custom_product_contain_oxygen_bond_distance_aromatic_linkinvent_7_9_3/rearranged_h_0136.sdf

> <i_m_source_file_index>
70

> <r_mmod_Potential_Energy-OPLS-2005>
215.544662475586

> <r_mmod_Stretch_Energy-OPLS-2005>
139.18391418457

> <r_mmod_Bend_Energy-OPLS-2005>
220.842224121094

> <r_mmod_Torsional_Energy-OPLS-2005>
228.810211181641

> <r_mmod_Improper_Torsional_Energy-OPLS-2005>
4.82022333145142

> <r_mmod_Van_der_Waal_Energy-OPLS-2005>
118.698554992676

> <r_mmod_Electrostatic_Energy-OPLS-2005>
-385.821868896484

> <r_mmod_Solvation_Energy-OPLS-2005>
-211.097961425781

> <b_mmod_Minimization_Converged-OPLS-2005>
0

> <r_mmod_RMS_Derivative-OPLS-2005>
0.924599587917328

$$$$
70
                    3D
 Structure written by MMmdl.
171179  0  0  1  0            999 V2000
  -30.7626  -14.3578   20.6935 C   0  0  0  0  0  0
  -30.4149  -12.2856   19.3909 C   0  0  0  0  0  0
  -29.4887  -12.5577   18.1902 C   0  0  0  0  0  0
  -28.0072  -12.4100   18.5918 C   0  0  0  0  0  0
  -27.6672  -13.2006   19.8828 C   0  0  2  0  0  0
  -28.7065  -12.9250   20.9924 C   0  0  0  0  0  0
  -25.2580  -13.8146   20.5687 C   0  0  0  0  0  0
  -24.1816  -13.0432   20.9147 C   0  0  0  0  0  0
  -24.6351  -11.6892   20.8690 C   0  0  0  0  0  0
  -23.9006  -10.4296   21.0370 C   0  0  0  0  0  0
  -24.3582   -9.4214   21.9140 C   0  0  0  0  0  0
  -23.6281   -8.2232   22.0691 C   0  0  0  0  0  0
  -22.4253   -8.0264   21.3506 C   0  0  0  0  0  0
  -21.9894   -9.0219   20.4590 C   0  0  0  0  0  0
  -22.7193  -10.2119   20.3001 C   0  0  0  0  0  0
  -21.6859   -6.0721   22.5269 C   0  0  0  0  0  0
  -21.4027   -6.5604   23.8215 C   0  0  0  0  0  0
  -21.3666   -5.6740   24.9164 C   0  0  0  0  0  0
  -21.6051   -4.3006   24.7193 C   0  0  0  0  0  0
  -21.8824   -3.8116   23.4303 C   0  0  0  0  0  0
  -21.9196   -4.6953   22.3372 C   0  0  0  0  0  0
  -22.7850  -13.5246   21.1833 C   0  0  0  0  0  0
  -22.1646   -4.2150   21.0944 F   0  0  0  0  0  0
  -21.5642   -3.4474   25.7699 F   0  0  0  0  0  0
  -30.0572  -13.2177   20.4679 N   0  0  0  0  0  0
  -26.3040  -12.9309   20.3386 N   0  0  0  0  0  0
  -25.9282  -11.6468   20.5694 N   0  0  0  0  0  0
  -22.0499  -12.8231   22.0393 N   0  0  0  0  0  0
  -25.4248  -15.1870   20.4130 N   0  0  0  0  0  0
  -31.7896  -14.6551   20.0726 O   0  0  0  0  0  0
  -21.6603   -6.8870   21.4234 O   0  0  0  0  0  0
  -22.3539  -14.5536   20.6656 O   0  0  0  0  0  0
  -24.6142  -31.8773   23.2115 C   0  0  0  0  0  0
  -25.9074  -32.4882   23.8394 C   0  0  1  0  0  0
  -27.2320  -27.4633   20.0982 C   0  0  0  0  0  0
  -25.5941  -33.8672   24.2341 N   0  0  0  0  0  0
  -23.4015  -30.5033   21.5522 C   0  0  2  0  0  0
  -24.8468  -28.9760   20.1132 C   0  0  0  0  0  0
  -22.7457  -29.4740   22.4974 C   0  0  0  0  0  0
  -18.0323  -28.1372   22.8533 C   0  0  0  0  0  0
  -24.1495  -36.7321   23.2633 C   0  0  0  0  0  0
  -25.9268  -30.8505   21.3629 C   0  0  0  0  0  0
  -26.0038  -29.4864   20.7131 C   0  0  0  0  0  0
  -27.2007  -28.7387   20.6991 C   0  0  0  0  0  0
  -26.0602  -26.9750   19.4709 C   0  0  0  0  0  0
  -24.8699  -27.7234   19.4829 C   0  0  0  0  0  0
  -23.6082  -29.8399   20.1640 C   0  0  0  0  0  0
  -25.4129  -36.3144   24.0316 C   0  0  1  0  0  0
  -20.5924  -28.3715   23.1273 C   0  0  2  0  0  0
  -20.6920  -26.9482   22.5325 C   0  0  0  0  0  0
  -19.5770  -26.6259   21.5306 C   0  0  0  0  0  0
  -18.1988  -26.7867   22.1768 C   0  0  0  0  0  0
  -19.1569  -28.8850   23.2886 C   0  0  0  0  0  0
  -18.9518  -30.1485   23.8854 C   0  0  0  0  0  0
  -17.6526  -30.6633   24.0525 C   0  0  0  0  0  0
  -25.9042  -34.9508   23.5120 C   0  0  0  0  0  0
  -16.5411  -29.9132   23.6355 C   0  0  0  0  0  0
  -16.7315  -28.6525   23.0403 C   0  0  0  0  0  0
  -26.4490  -31.6640   25.0707 C   0  0  0  0  0  0
  -25.3736  -31.3721   26.1415 C   0  0  0  0  0  0
  -27.0294  -30.3086   24.6040 C   0  0  0  0  0  0
  -27.6073  -32.4326   25.7489 C   0  0  0  0  0  0
  -27.5598  -37.1841   24.8455 C   0  0  0  0  0  0
  -21.4167  -29.3138   22.3766 N   0  0  0  0  0  0
  -26.4332  -37.3811   23.9380 N   0  0  0  0  0  0
  -24.6668  -31.0887   22.1031 N   0  0  0  0  0  0
  -23.4225  -28.8227   23.2993 O   0  0  0  0  0  0
  -28.4100  -26.7497   20.1162 O   0  0  0  0  0  0
  -26.5584  -34.8945   22.4663 O   0  0  0  0  0  0
  -23.5357  -32.1527   23.7538 O   0  0  0  0  0  0
  -30.4313  -18.0904   23.8825 C   0  0  0  0  0  0
  -30.4640  -16.7577   23.4207 C   0  0  0  0  0  0
  -30.3644  -18.8640   21.5906 C   0  0  0  0  0  0
  -30.3685  -19.1650   22.9728 C   0  0  0  0  0  0
  -30.3721  -17.5376   21.1086 C   0  0  0  0  0  0
  -30.4373  -16.4586   22.0416 C   0  0  0  0  0  0
  -29.4878  -21.5259   22.6292 C   0  0  0  0  0  0
  -28.9218  -22.6591   23.0934 C   0  0  0  0  0  0
  -30.2130  -20.5674   23.4889 C   0  0  0  0  0  0
  -28.6754  -17.2786   19.2662 C   0  0  0  0  0  0
  -26.6530  -23.6520   22.7047 C   0  0  0  0  0  0
  -28.2891  -26.0785   22.8845 C   0  0  0  0  0  0
  -30.2846  -24.9343   21.9474 C   0  0  0  0  0  0
  -30.1619  -17.3874   19.6053 C   0  0  0  0  0  0
  -28.3054  -25.3573   20.4292 C   0  0  0  0  0  0
  -28.1071  -23.5897   22.1994 C   0  0  1  0  0  0
  -28.7426  -24.9907   21.8815 C   0  0  0  0  0  0
  -30.3062  -15.0780   21.7251 N   0  0  0  0  0  0
  -30.6234  -20.8919   24.6077 O   0  0  0  0  0  0
  -31.4606  -12.3745   19.0954 H   0  0  0  0  0  0
  -30.2920  -11.2581   19.7359 H   0  0  0  0  0  0
  -29.7256  -11.8812   17.3699 H   0  0  0  0  0  0
  -29.6690  -13.5673   17.8149 H   0  0  0  0  0  0
  -27.7966  -11.3496   18.7311 H   0  0  0  0  0  0
  -27.3656  -12.7424   17.7742 H   0  0  0  0  0  0
  -27.7268  -14.2567   19.6299 H   0  0  0  0  0  0
  -28.6618  -11.8785   21.2958 H   0  0  0  0  0  0
  -28.4476  -13.4924   21.8856 H   0  0  0  0  0  0
  -25.2733   -9.5675   22.4717 H   0  0  0  0  0  0
  -23.9996   -7.4599   22.7384 H   0  0  0  0  0  0
  -21.0840   -8.8697   19.8878 H   0  0  0  0  0  0
  -22.3646  -10.9624   19.6072 H   0  0  0  0  0  0
  -21.2003   -7.6106   23.9724 H   0  0  0  0  0  0
  -21.1503   -6.0448   25.9079 H   0  0  0  0  0  0
  -22.0606   -2.7582   23.2766 H   0  0  0  0  0  0
  -22.4151  -11.9938   22.4843 H   0  0  0  0  0  0
  -21.1070  -13.1185   22.2505 H   0  0  0  0  0  0
  -24.6487  -15.8307   20.5197 H   0  0  0  0  0  0
  -26.2782  -15.6405   20.1175 H   0  0  0  0  0  0
  -26.7179  -32.5592   23.1199 H   0  0  0  0  0  0
  -25.0088  -33.9817   25.0481 H   0  0  0  0  0  0
  -22.6897  -31.3218   21.4174 H   0  0  0  0  0  0
  -23.3758  -35.9655   23.3325 H   0  0  0  0  0  0
  -24.3555  -36.8902   22.2034 H   0  0  0  0  0  0
  -23.7250  -37.6536   23.6627 H   0  0  0  0  0  0
  -26.0176  -31.6152   20.5909 H   0  0  0  0  0  0
  -26.8248  -30.9143   21.9666 H   0  0  0  0  0  0
  -28.0961  -29.1309   21.1553 H   0  0  0  0  0  0
  -26.0484  -26.0286   18.9500 H   0  0  0  0  0  0
  -23.9903  -27.3441   18.9850 H   0  0  0  0  0  0
  -23.7201  -30.6159   19.4065 H   0  0  0  0  0  0
  -22.7356  -29.2572   19.8678 H   0  0  0  0  0  0
  -25.1329  -36.2031   25.0817 H   0  0  0  0  0  0
  -21.0034  -28.3286   24.1394 H   0  0  0  0  0  0
  -20.6249  -26.2321   23.3516 H   0  0  0  0  0  0
  -21.6698  -26.7734   22.0860 H   0  0  0  0  0  0
  -19.6971  -25.6073   21.1599 H   0  0  0  0  0  0
  -19.6581  -27.2911   20.6688 H   0  0  0  0  0  0
  -17.4246  -26.6438   21.4220 H   0  0  0  0  0  0
  -18.0468  -26.0137   22.9306 H   0  0  0  0  0  0
  -19.8013  -30.7318   24.2188 H   0  0  0  0  0  0
  -17.5089  -31.6350   24.5042 H   0  0  0  0  0  0
  -15.5421  -30.3068   23.7678 H   0  0  0  0  0  0
  -15.8685  -28.0911   22.7069 H   0  0  0  0  0  0
  -24.5933  -30.7073   25.7706 H   0  0  0  0  0  0
  -24.8903  -32.2867   26.4858 H   0  0  0  0  0  0
  -25.8063  -30.8877   27.0172 H   0  0  0  0  0  0
  -26.2821  -29.6875   24.1096 H   0  0  0  0  0  0
  -27.4081  -29.7301   25.4474 H   0  0  0  0  0  0
  -27.8636  -30.4395   23.9140 H   0  0  0  0  0  0
  -27.2714  -33.3609   26.2106 H   0  0  0  0  0  0
  -28.3876  -32.6912   25.0328 H   0  0  0  0  0  0
  -28.0729  -31.8409   26.5373 H   0  0  0  0  0  0
  -28.2649  -38.0121   24.7514 H   0  0  0  0  0  0
  -28.1092  -36.2656   24.6322 H   0  0  0  0  0  0
  -27.2283  -37.1503   25.8853 H   0  0  0  0  0  0
  -20.9340  -29.8962   21.7075 H   0  0  0  0  0  0
  -26.0224  -38.2894   24.1404 H   0  0  0  0  0  0
  -30.4052  -18.2804   24.9473 H   0  0  0  0  0  0
  -30.4680  -15.9561   24.1488 H   0  0  0  0  0  0
  -30.3098  -19.6522   20.8571 H   0  0  0  0  0  0
  -29.3802  -21.2994   21.5827 H   0  0  0  0  0  0
  -29.0083  -22.9286   24.1385 H   0  0  0  0  0  0
  -28.5178  -17.1487   18.1959 H   0  0  0  0  0  0
  -28.1526  -18.1829   19.5777 H   0  0  0  0  0  0
  -28.2181  -16.4374   19.7803 H   0  0  0  0  0  0
  -26.2073  -22.6566   22.7313 H   0  0  0  0  0  0
  -26.0262  -24.2685   22.0613 H   0  0  0  0  0  0
  -26.5896  -24.0643   23.7131 H   0  0  0  0  0  0
  -27.2173  -26.2658   22.8431 H   0  0  0  0  0  0
  -28.5378  -25.8094   23.9114 H   0  0  0  0  0  0
  -28.7804  -27.0311   22.6777 H   0  0  0  0  0  0
  -30.7203  -25.8856   21.6446 H   0  0  0  0  0  0
  -30.6945  -24.1595   21.2992 H   0  0  0  0  0  0
  -30.6305  -24.7387   22.9666 H   0  0  0  0  0  0
  -30.7184  -16.5727   19.1603 H   0  0  0  0  0  0
  -30.5606  -18.2724   19.1095 H   0  0  0  0  0  0
  -27.3024  -24.9721   20.2619 H   0  0  0  0  0  0
  -28.9175  -24.8153   19.7082 H   0  0  0  0  0  0
  -28.0586  -23.0664   21.2408 H   0  0  0  0  0  0
  -29.7111  -14.5498   22.3448 H   0  0  0  0  0  0
  1 25  1  0  0  0
  1 30  2  0  0  0
  1 88  1  0  0  0
  2  3  1  0  0  0
  2 25  1  0  0  0
  2 90  1  0  0  0
  2 91  1  0  0  0
  3  4  1  0  0  0
  3 92  1  0  0  0
  3 93  1  0  0  0
  4  5  1  0  0  0
  4 94  1  0  0  0
  4 95  1  0  0  0
  5  6  1  0  0  0
  5 26  1  0  0  0
  5 96  1  0  0  0
  6 25  1  0  0  0
  6 97  1  0  0  0
  6 98  1  0  0  0
  7  8  2  0  0  0
  7 26  1  0  0  0
  7 29  1  0  0  0
  8  9  1  0  0  0
  8 22  1  0  0  0
  9 10  1  0  0  0
  9 27  2  0  0  0
 10 11  2  0  0  0
 10 15  1  0  0  0
 11 12  1  0  0  0
 11 99  1  0  0  0
 12 13  2  0  0  0
 12100  1  0  0  0
 13 14  1  0  0  0
 13 31  1  0  0  0
 14 15  2  0  0  0
 14101  1  0  0  0
 15102  1  0  0  0
 16 17  2  0  0  0
 16 21  1  0  0  0
 16 31  1  0  0  0
 17 18  1  0  0  0
 17103  1  0  0  0
 18 19  2  0  0  0
 18104  1  0  0  0
 19 20  1  0  0  0
 19 24  1  0  0  0
 20 21  2  0  0  0
 20105  1  0  0  0
 21 23  1  0  0  0
 22 28  1  0  0  0
 22 32  2  0  0  0
 26 27  1  0  0  0
 28106  1  0  0  0
 28107  1  0  0  0
 29108  1  0  0  0
 29109  1  0  0  0
 33 34  1  0  0  0
 33 66  1  0  0  0
 33 70  2  0  0  0
 34 36  1  0  0  0
 34 59  1  0  0  0
 34110  1  0  0  0
 35 44  2  0  0  0
 35 45  1  0  0  0
 35 68  1  0  0  0
 36 56  1  0  0  0
 36111  1  0  0  0
 37 39  1  0  0  0
 37 47  1  0  0  0
 37 66  1  0  0  0
 37112  1  0  0  0
 38 43  2  0  0  0
 38 46  1  0  0  0
 38 47  1  0  0  0
 39 64  1  0  0  0
 39 67  2  0  0  0
 40 52  1  0  0  0
 40 53  2  0  0  0
 40 58  1  0  0  0
 41113  1  0  0  0
 41114  1  0  0  0
 41115  1  0  0  0
 41 48  1  0  0  0
 42 43  1  0  0  0
 42 66  1  0  0  0
 42116  1  0  0  0
 42117  1  0  0  0
 43 44  1  0  0  0
 44118  1  0  0  0
 45 46  2  0  0  0
 45119  1  0  0  0
 46120  1  0  0  0
 47121  1  0  0  0
 47122  1  0  0  0
 48 56  1  0  0  0
 48 65  1  0  0  0
 48123  1  0  0  0
 49 50  1  0  0  0
 49 53  1  0  0  0
 49 64  1  0  0  0
 49124  1  0  0  0
 50 51  1  0  0  0
 50125  1  0  0  0
 50126  1  0  0  0
 51 52  1  0  0  0
 51127  1  0  0  0
 51128  1  0  0  0
 52129  1  0  0  0
 52130  1  0  0  0
 53 54  1  0  0  0
 54 55  2  0  0  0
 54131  1  0  0  0
 55 57  1  0  0  0
 55132  1  0  0  0
 56 69  2  0  0  0
 57 58  2  0  0  0
 57133  1  0  0  0
 58134  1  0  0  0
 59 60  1  0  0  0
 59 61  1  0  0  0
 59 62  1  0  0  0
 60135  1  0  0  0
 60136  1  0  0  0
 60137  1  0  0  0
 61138  1  0  0  0
 61139  1  0  0  0
 61140  1  0  0  0
 62141  1  0  0  0
 62142  1  0  0  0
 62143  1  0  0  0
 63 65  1  0  0  0
 63144  1  0  0  0
 63145  1  0  0  0
 63146  1  0  0  0
 64147  1  0  0  0
 65148  1  0  0  0
 68 85  1  0  0  0
 71 72  2  0  0  0
 71 74  1  0  0  0
 71149  1  0  0  0
 72 76  1  0  0  0
 72150  1  0  0  0
 73 74  2  0  0  0
 73 75  1  0  0  0
 73151  1  0  0  0
 74 79  1  0  0  0
 75 76  2  0  0  0
 75 84  1  0  0  0
 76 88  1  0  0  0
 77 78  2  0  0  0
 77 79  1  0  0  0
 77152  1  0  0  0
 78 86  1  0  0  0
 78153  1  0  0  0
 79 89  2  0  0  0
 80 84  1  0  0  0
 80154  1  0  0  0
 80155  1  0  0  0
 80156  1  0  0  0
 81157  1  0  0  0
 81158  1  0  0  0
 81159  1  0  0  0
 81 86  1  0  0  0
 82160  1  0  0  0
 82161  1  0  0  0
 82162  1  0  0  0
 82 87  1  0  0  0
 83 87  1  0  0  0
 83163  1  0  0  0
 83164  1  0  0  0
 83165  1  0  0  0
 84166  1  0  0  0
 84167  1  0  0  0
 85 87  1  0  0  0
 85168  1  0  0  0
 85169  1  0  0  0
 86 87  1  0  0  0
 86170  1  0  0  0
 88171  1  0  0  0
M  ISO  4   1 100  68 101  85 101  88 100
M  END
> <chiral flag>
0

> <version>
0

> <s_m_source_file>
/data/baiqing/PycharmProjects/Reinvent-master-3.2/result/LINK_invent/BTK/process_docking_weight1_custom_product_contain_oxygen_bond_distance_aromatic_linkinvent_7_9_3/rearranged_h_0136.sdf

> <i_m_source_file_index>
71

> <r_mmod_Potential_Energy-OPLS-2005>
17.9936637878418

> <r_mmod_Stretch_Energy-OPLS-2005>
39.4524841308594

> <r_mmod_Bend_Energy-OPLS-2005>
122.051948547363

> <r_mmod_Torsional_Energy-OPLS-2005>
254.599960327148

> <r_mmod_Improper_Torsional_Energy-OPLS-2005>
4.41404294967651

> <r_mmod_Van_der_Waal_Energy-OPLS-2005>
172.549713134766

> <r_mmod_Electrostatic_Energy-OPLS-2005>
-379.452026367188

> <r_mmod_Solvation_Energy-OPLS-2005>
-203.983459472656

> <b_mmod_Minimization_Converged-OPLS-2005>
0

> <r_mmod_RMS_Derivative-OPLS-2005>
4.7442307472229

$$$$
71
                    3D
 Structure written by MMmdl.
158166  0  0  1  0            999 V2000
  -30.5999  -14.7092   20.4942 C   0  0  0  0  0  0
  -30.4451  -12.4355   19.4648 C   0  0  0  0  0  0
  -29.5101  -12.5159   18.2354 C   0  0  0  0  0  0
  -28.0377  -12.3355   18.6528 C   0  0  0  0  0  0
  -27.6533  -13.2198   19.8678 C   0  0  2  0  0  0
  -28.7008  -13.0987   20.9996 C   0  0  0  0  0  0
  -25.2531  -13.8134   20.5688 C   0  0  0  0  0  0
  -24.1806  -13.0398   20.9191 C   0  0  0  0  0  0
  -24.6395  -11.6880   20.8744 C   0  0  0  0  0  0
  -23.9064  -10.4270   21.0406 C   0  0  0  0  0  0
  -24.3612   -9.4188   21.9181 C   0  0  0  0  0  0
  -23.6280   -8.2230   22.0754 C   0  0  0  0  0  0
  -22.4263   -8.0270   21.3543 C   0  0  0  0  0  0
  -21.9905   -9.0242   20.4642 C   0  0  0  0  0  0
  -22.7241  -10.2118   20.3050 C   0  0  0  0  0  0
  -21.6851   -6.0718   22.5269 C   0  0  0  0  0  0
  -21.4015   -6.5625   23.8200 C   0  0  0  0  0  0
  -21.3660   -5.6783   24.9167 C   0  0  0  0  0  0
  -21.6043   -4.3043   24.7224 C   0  0  0  0  0  0
  -21.8823   -3.8135   23.4346 C   0  0  0  0  0  0
  -21.9193   -4.6946   22.3398 C   0  0  0  0  0  0
  -22.7829  -13.5194   21.1843 C   0  0  0  0  0  0
  -22.1660   -4.2131   21.0976 F   0  0  0  0  0  0
  -21.5632   -3.4529   25.7740 F   0  0  0  0  0  0
  -30.0126  -13.4642   20.4368 N   0  0  0  0  0  0
  -26.2991  -12.9348   20.3361 N   0  0  0  0  0  0
  -25.9338  -11.6500   20.5796 N   0  0  0  0  0  0
  -22.0486  -12.8191   22.0420 N   0  0  0  0  0  0
  -25.4175  -15.1841   20.4067 N   0  0  0  0  0  0
  -31.7389  -14.8905   20.0527 O   0  0  0  0  0  0
  -21.6634   -6.8862   21.4233 O   0  0  0  0  0  0
  -22.3508  -14.5500   20.6697 O   0  0  0  0  0  0
  -24.6304  -31.8558   23.1996 C   0  0  0  0  0  0
  -25.9129  -32.4757   23.8339 C   0  0  1  0  0  0
  -27.2280  -27.2756   20.1161 C   0  0  0  0  0  0
  -25.5940  -33.8558   24.2256 N   0  0  0  0  0  0
  -23.4284  -30.4775   21.5432 C   0  0  2  0  0  0
  -24.8775  -28.9308   20.1084 C   0  0  0  0  0  0
  -22.7511  -29.4579   22.4907 C   0  0  0  0  0  0
  -18.0287  -28.1376   22.8453 C   0  0  0  0  0  0
  -24.1499  -36.7276   23.2642 C   0  0  0  0  0  0
  -25.9741  -30.7729   21.3792 C   0  0  0  0  0  0
  -26.0499  -29.3979   20.7167 C   0  0  0  0  0  0
  -27.2290  -28.5834   20.7071 C   0  0  0  0  0  0
  -26.0330  -26.8833   19.4691 C   0  0  0  0  0  0
  -24.8740  -27.6815   19.4738 C   0  0  0  0  0  0
  -23.6468  -29.8147   20.1582 C   0  0  0  0  0  0
  -25.4123  -36.3059   24.0322 C   0  0  1  0  0  0
  -20.5891  -28.3678   23.1258 C   0  0  2  0  0  0
  -20.6783  -26.9403   22.5397 C   0  0  0  0  0  0
  -19.5755  -26.6372   21.5186 C   0  0  0  0  0  0
  -18.1935  -26.7912   22.1603 C   0  0  0  0  0  0
  -19.1541  -28.8842   23.2844 C   0  0  0  0  0  0
  -18.9470  -30.1439   23.8867 C   0  0  0  0  0  0
  -17.6475  -30.6580   24.0548 C   0  0  0  0  0  0
  -25.9064  -34.9435   23.5086 C   0  0  0  0  0  0
  -16.5362  -29.9075   23.6332 C   0  0  0  0  0  0
  -16.7276  -28.6497   23.0338 C   0  0  0  0  0  0
  -26.4501  -31.6576   25.0720 C   0  0  0  0  0  0
  -25.3722  -31.3726   26.1440 C   0  0  0  0  0  0
  -27.0346  -30.2992   24.6192 C   0  0  0  0  0  0
  -27.6050  -32.4327   25.7497 C   0  0  0  0  0  0
  -27.5584  -37.1796   24.8468 C   0  0  0  0  0  0
  -21.4212  -29.3025   22.3659 N   0  0  0  0  0  0
  -26.4298  -37.3761   23.9408 N   0  0  0  0  0  0
  -24.6967  -31.0527   22.0969 N   0  0  0  0  0  0
  -23.4207  -28.8111   23.3000 O   0  0  0  0  0  0
  -28.3193  -26.3729   20.1771 O   0  0  0  0  0  0
  -26.5635  -34.8903   22.4653 O   0  0  0  0  0  0
  -23.5445  -32.1384   23.7290 O   0  0  0  0  0  0
  -28.1994  -19.1316   20.0324 C   0  0  0  0  0  0
  -30.2887  -18.2852   20.6262 C   0  0  0  0  0  0
  -29.4833  -19.5065   20.3337 C   0  0  0  0  0  0
  -29.5817  -17.0592   20.6130 C   0  0  0  0  0  0
  -31.7052  -18.3347   20.9925 C   0  0  0  0  0  0
  -32.5885  -19.2245   20.1254 C   0  0  0  0  0  0
  -27.4426  -24.8366   21.8439 C   0  0  0  0  0  0
  -29.9003  -21.0359   20.3240 C   0  0  0  0  0  0
  -28.7833  -22.2073   20.3537 C   0  0  0  0  0  0
  -29.1904  -23.7799   20.2736 C   0  0  0  0  0  0
  -28.0413  -24.9114   20.4250 C   0  0  2  0  0  0
  -29.8246  -15.7311   20.9964 N   0  0  0  0  0  0
  -32.2320  -17.6862   21.9012 O   0  0  0  0  0  0
  -27.9375  -17.4116   20.1419 S   0  0  0  0  0  0
  -31.4835  -12.5741   19.1578 H   0  0  0  0  0  0
  -30.3983  -11.4448   19.9193 H   0  0  0  0  0  0
  -29.7860  -11.7556   17.5035 H   0  0  0  0  0  0
  -29.6339  -13.4793   17.7389 H   0  0  0  0  0  0
  -27.8943  -11.2834   18.9041 H   0  0  0  0  0  0
  -27.3736  -12.5394   17.8111 H   0  0  0  0  0  0
  -27.6640  -14.2504   19.5128 H   0  0  0  0  0  0
  -28.7297  -12.0799   21.3888 H   0  0  0  0  0  0
  -28.4299  -13.7297   21.8476 H   0  0  0  0  0  0
  -25.2760   -9.5654   22.4752 H   0  0  0  0  0  0
  -23.9975   -7.4624   22.7485 H   0  0  0  0  0  0
  -21.0829   -8.8766   19.8953 H   0  0  0  0  0  0
  -22.3703  -10.9652   19.6152 H   0  0  0  0  0  0
  -21.2011   -7.6132   23.9696 H   0  0  0  0  0  0
  -21.1479   -6.0515   25.9066 H   0  0  0  0  0  0
  -22.0609   -2.7596   23.2853 H   0  0  0  0  0  0
  -22.4107  -11.9831   22.4767 H   0  0  0  0  0  0
  -21.1118  -13.1232   22.2671 H   0  0  0  0  0  0
  -24.6482  -15.8370   20.5081 H   0  0  0  0  0  0
  -26.2660  -15.6235   20.0752 H   0  0  0  0  0  0
  -26.7203  -32.5418   23.1092 H   0  0  0  0  0  0
  -25.0066  -33.9680   25.0386 H   0  0  0  0  0  0
  -22.7248  -31.2992   21.3984 H   0  0  0  0  0  0
  -23.3756  -35.9619   23.3301 H   0  0  0  0  0  0
  -24.3583  -36.8902   22.2060 H   0  0  0  0  0  0
  -23.7262  -37.6479   23.6669 H   0  0  0  0  0  0
  -26.1121  -31.5392   20.6156 H   0  0  0  0  0  0
  -26.8522  -30.8206   22.0120 H   0  0  0  0  0  0
  -28.1278  -28.9332   21.1969 H   0  0  0  0  0  0
  -25.9595  -25.9401   18.9523 H   0  0  0  0  0  0
  -23.9800  -27.3213   18.9831 H   0  0  0  0  0  0
  -23.7694  -30.5949   19.4062 H   0  0  0  0  0  0
  -22.7670  -29.2461   19.8520 H   0  0  0  0  0  0
  -25.1305  -36.1912   25.0815 H   0  0  0  0  0  0
  -20.9965  -28.3265   24.1382 H   0  0  0  0  0  0
  -20.5674  -26.2292   23.3597 H   0  0  0  0  0  0
  -21.6653  -26.7418   22.1194 H   0  0  0  0  0  0
  -19.6936  -25.6279   21.1229 H   0  0  0  0  0  0
  -19.6719  -27.3175   20.6711 H   0  0  0  0  0  0
  -17.4207  -26.6631   21.4007 H   0  0  0  0  0  0
  -18.0346  -26.0059   22.9009 H   0  0  0  0  0  0
  -19.7955  -30.7238   24.2246 H   0  0  0  0  0  0
  -17.5043  -31.6264   24.5143 H   0  0  0  0  0  0
  -15.5362  -30.2976   23.7678 H   0  0  0  0  0  0
  -15.8667  -28.0826   22.7057 H   0  0  0  0  0  0
  -24.5914  -30.7051   25.7785 H   0  0  0  0  0  0
  -24.8882  -32.2889   26.4828 H   0  0  0  0  0  0
  -25.8037  -30.8951   27.0242 H   0  0  0  0  0  0
  -26.2923  -29.6745   24.1222 H   0  0  0  0  0  0
  -27.4032  -29.7254   25.4707 H   0  0  0  0  0  0
  -27.8800  -30.4260   23.9427 H   0  0  0  0  0  0
  -27.2658  -33.3650   26.2015 H   0  0  0  0  0  0
  -28.3892  -32.6838   25.0347 H   0  0  0  0  0  0
  -28.0676  -31.8482   26.5458 H   0  0  0  0  0  0
  -28.2589  -38.0108   24.7502 H   0  0  0  0  0  0
  -28.1084  -36.2626   24.6305 H   0  0  0  0  0  0
  -27.2283  -37.1446   25.8867 H   0  0  0  0  0  0
  -20.9406  -29.8771   21.6880 H   0  0  0  0  0  0
  -26.0172  -38.2827   24.1426 H   0  0  0  0  0  0
  -27.3656  -19.7683   19.7610 H   0  0  0  0  0  0
  -32.1501  -19.3522   19.1360 H   0  0  0  0  0  0
  -33.5733  -18.7763   20.0019 H   0  0  0  0  0  0
  -32.7118  -20.2036   20.5864 H   0  0  0  0  0  0
  -27.1580  -23.8213   22.1150 H   0  0  0  0  0  0
  -26.5434  -25.4436   21.9411 H   0  0  0  0  0  0
  -28.1581  -25.1889   22.5866 H   0  0  0  0  0  0
  -30.5188  -21.2117   19.4429 H   0  0  0  0  0  0
  -30.5638  -21.2155   21.1699 H   0  0  0  0  0  0
  -28.2022  -22.0502   21.2612 H   0  0  0  0  0  0
  -28.0877  -22.0243   19.5352 H   0  0  0  0  0  0
  -29.6817  -23.9361   19.3130 H   0  0  0  0  0  0
  -29.9607  -23.9736   21.0204 H   0  0  0  0  0  0
  -27.2827  -24.5790   19.7222 H   0  0  0  0  0  0
  -29.0073  -15.3148   21.4173 H   0  0  0  0  0  0
  1 25  1  0  0  0
  1 30  2  0  0  0
  1 82  1  0  0  0
  2  3  1  0  0  0
  2 25  1  0  0  0
  2 85  1  0  0  0
  2 86  1  0  0  0
  3  4  1  0  0  0
  3 87  1  0  0  0
  3 88  1  0  0  0
  4  5  1  0  0  0
  4 89  1  0  0  0
  4 90  1  0  0  0
  5  6  1  0  0  0
  5 26  1  0  0  0
  5 91  1  0  0  0
  6 25  1  0  0  0
  6 92  1  0  0  0
  6 93  1  0  0  0
  7  8  2  0  0  0
  7 26  1  0  0  0
  7 29  1  0  0  0
  8  9  1  0  0  0
  8 22  1  0  0  0
  9 10  1  0  0  0
  9 27  2  0  0  0
 10 11  2  0  0  0
 10 15  1  0  0  0
 11 12  1  0  0  0
 11 94  1  0  0  0
 12 13  2  0  0  0
 12 95  1  0  0  0
 13 14  1  0  0  0
 13 31  1  0  0  0
 14 15  2  0  0  0
 14 96  1  0  0  0
 15 97  1  0  0  0
 16 17  2  0  0  0
 16 21  1  0  0  0
 16 31  1  0  0  0
 17 18  1  0  0  0
 17 98  1  0  0  0
 18 19  2  0  0  0
 18 99  1  0  0  0
 19 20  1  0  0  0
 19 24  1  0  0  0
 20 21  2  0  0  0
 20100  1  0  0  0
 21 23  1  0  0  0
 22 28  1  0  0  0
 22 32  2  0  0  0
 26 27  1  0  0  0
 28101  1  0  0  0
 28102  1  0  0  0
 29103  1  0  0  0
 29104  1  0  0  0
 33 34  1  0  0  0
 33 66  1  0  0  0
 33 70  2  0  0  0
 34 36  1  0  0  0
 34 59  1  0  0  0
 34105  1  0  0  0
 35 44  2  0  0  0
 35 45  1  0  0  0
 35 68  1  0  0  0
 36 56  1  0  0  0
 36106  1  0  0  0
 37 39  1  0  0  0
 37 47  1  0  0  0
 37 66  1  0  0  0
 37107  1  0  0  0
 38 43  2  0  0  0
 38 46  1  0  0  0
 38 47  1  0  0  0
 39 64  1  0  0  0
 39 67  2  0  0  0
 40 52  1  0  0  0
 40 53  2  0  0  0
 40 58  1  0  0  0
 41108  1  0  0  0
 41109  1  0  0  0
 41110  1  0  0  0
 41 48  1  0  0  0
 42 43  1  0  0  0
 42 66  1  0  0  0
 42111  1  0  0  0
 42112  1  0  0  0
 43 44  1  0  0  0
 44113  1  0  0  0
 45 46  2  0  0  0
 45114  1  0  0  0
 46115  1  0  0  0
 47116  1  0  0  0
 47117  1  0  0  0
 48 56  1  0  0  0
 48 65  1  0  0  0
 48118  1  0  0  0
 49 50  1  0  0  0
 49 53  1  0  0  0
 49 64  1  0  0  0
 49119  1  0  0  0
 50 51  1  0  0  0
 50120  1  0  0  0
 50121  1  0  0  0
 51 52  1  0  0  0
 51122  1  0  0  0
 51123  1  0  0  0
 52124  1  0  0  0
 52125  1  0  0  0
 53 54  1  0  0  0
 54 55  2  0  0  0
 54126  1  0  0  0
 55 57  1  0  0  0
 55127  1  0  0  0
 56 69  2  0  0  0
 57 58  2  0  0  0
 57128  1  0  0  0
 58129  1  0  0  0
 59 60  1  0  0  0
 59 61  1  0  0  0
 59 62  1  0  0  0
 60130  1  0  0  0
 60131  1  0  0  0
 60132  1  0  0  0
 61133  1  0  0  0
 61134  1  0  0  0
 61135  1  0  0  0
 62136  1  0  0  0
 62137  1  0  0  0
 62138  1  0  0  0
 63 65  1  0  0  0
 63139  1  0  0  0
 63140  1  0  0  0
 63141  1  0  0  0
 64142  1  0  0  0
 65143  1  0  0  0
 68 81  1  0  0  0
 71 73  2  0  0  0
 71 84  1  0  0  0
 71144  1  0  0  0
 72 73  1  0  0  0
 72 74  2  0  0  0
 72 75  1  0  0  0
 73 78  1  0  0  0
 74 82  1  0  0  0
 74 84  1  0  0  0
 75 76  1  0  0  0
 75 83  2  0  0  0
 76145  1  0  0  0
 76146  1  0  0  0
 76147  1  0  0  0
 77148  1  0  0  0
 77149  1  0  0  0
 77150  1  0  0  0
 77 81  1  0  0  0
 78 79  1  0  0  0
 78151  1  0  0  0
 78152  1  0  0  0
 79 80  1  0  0  0
 79153  1  0  0  0
 79154  1  0  0  0
 80 81  1  0  0  0
 80155  1  0  0  0
 80156  1  0  0  0
 81157  1  0  0  0
 82158  1  0  0  0
M  ISO  4   1 100  68 101  81 101  82 100
M  END
> <chiral flag>
0

> <version>
0

> <s_m_source_file>
/data/baiqing/PycharmProjects/Reinvent-master-3.2/result/LINK_invent/BTK/process_docking_weight1_custom_product_contain_oxygen_bond_distance_aromatic_linkinvent_7_9_3/rearranged_h_0136.sdf

> <i_m_source_file_index>
72

> <r_mmod_Potential_Energy-OPLS-2005>
202.498977661133

> <r_mmod_Stretch_Energy-OPLS-2005>
118.74528503418

> <r_mmod_Bend_Energy-OPLS-2005>
175.404632568359

> <r_mmod_Torsional_Energy-OPLS-2005>
271.844268798828

> <r_mmod_Improper_Torsional_Energy-OPLS-2005>
5.54225158691406

> <r_mmod_Van_der_Waal_Energy-OPLS-2005>
113.274612426758

> <r_mmod_Electrostatic_Energy-OPLS-2005>
-337.518249511719

> <r_mmod_Solvation_Energy-OPLS-2005>
-218.486633300781

> <b_mmod_Minimization_Converged-OPLS-2005>
0

> <r_mmod_RMS_Derivative-OPLS-2005>
1.81402039527893

$$$$
72
                    3D
 Structure written by MMmdl.
156164  0  0  1  0            999 V2000
  -30.5855  -14.6040   20.5520 C   0  0  0  0  0  0
  -30.4469  -12.3729   19.4515 C   0  0  0  0  0  0
  -29.5187  -12.5108   18.2207 C   0  0  0  0  0  0
  -28.0340  -12.3495   18.6190 C   0  0  0  0  0  0
  -27.6562  -13.1959   19.8667 C   0  0  2  0  0  0
  -28.6926  -12.9821   20.9929 C   0  0  0  0  0  0
  -25.2498  -13.8062   20.5549 C   0  0  0  0  0  0
  -24.1807  -13.0372   20.9224 C   0  0  0  0  0  0
  -24.6365  -11.6844   20.8757 C   0  0  0  0  0  0
  -23.9047  -10.4237   21.0415 C   0  0  0  0  0  0
  -24.3595   -9.4147   21.9179 C   0  0  0  0  0  0
  -23.6257   -8.2190   22.0745 C   0  0  0  0  0  0
  -22.4239   -8.0246   21.3548 C   0  0  0  0  0  0
  -21.9893   -9.0218   20.4634 C   0  0  0  0  0  0
  -22.7232  -10.2081   20.3043 C   0  0  0  0  0  0
  -21.6825   -6.0717   22.5285 C   0  0  0  0  0  0
  -21.3989   -6.5615   23.8222 C   0  0  0  0  0  0
  -21.3661   -5.6764   24.9189 C   0  0  0  0  0  0
  -21.6042   -4.3038   24.7233 C   0  0  0  0  0  0
  -21.8814   -3.8126   23.4356 C   0  0  0  0  0  0
  -21.9169   -4.6941   22.3406 C   0  0  0  0  0  0
  -22.7834  -13.5209   21.1877 C   0  0  0  0  0  0
  -22.1645   -4.2127   21.0987 F   0  0  0  0  0  0
  -21.5637   -3.4533   25.7749 F   0  0  0  0  0  0
  -30.0149  -13.3595   20.4579 N   0  0  0  0  0  0
  -26.2945  -12.9222   20.3247 N   0  0  0  0  0  0
  -25.9269  -11.6401   20.5746 N   0  0  0  0  0  0
  -22.0451  -12.8202   22.0429 N   0  0  0  0  0  0
  -25.4073  -15.1743   20.3641 N   0  0  0  0  0  0
  -31.7045  -14.8440   20.0924 O   0  0  0  0  0  0
  -21.6595   -6.8852   21.4248 O   0  0  0  0  0  0
  -22.3554  -14.5545   20.6743 O   0  0  0  0  0  0
  -24.6225  -31.8614   23.2029 C   0  0  0  0  0  0
  -25.9072  -32.4804   23.8331 C   0  0  1  0  0  0
  -27.2188  -27.3217   20.1089 C   0  0  0  0  0  0
  -25.5908  -33.8602   24.2268 N   0  0  0  0  0  0
  -23.4159  -30.4881   21.5463 C   0  0  2  0  0  0
  -24.8585  -28.9388   20.1150 C   0  0  0  0  0  0
  -22.7455  -29.4637   22.4931 C   0  0  0  0  0  0
  -18.0263  -28.1412   22.8516 C   0  0  0  0  0  0
  -24.1478  -36.7289   23.2652 C   0  0  0  0  0  0
  -25.9550  -30.7965   21.3684 C   0  0  0  0  0  0
  -26.0276  -29.4206   20.7143 C   0  0  0  0  0  0
  -27.2071  -28.6218   20.7029 C   0  0  0  0  0  0
  -26.0177  -26.8823   19.5064 C   0  0  0  0  0  0
  -24.8536  -27.6734   19.5105 C   0  0  0  0  0  0
  -23.6302  -29.8259   20.1603 C   0  0  0  0  0  0
  -25.4114  -36.3091   24.0329 C   0  0  1  0  0  0
  -20.5878  -28.3681   23.1315 C   0  0  2  0  0  0
  -20.6763  -26.9415   22.5431 C   0  0  0  0  0  0
  -19.5731  -26.6402   21.5241 C   0  0  0  0  0  0
  -18.1904  -26.7956   22.1646 C   0  0  0  0  0  0
  -19.1534  -28.8859   23.2913 C   0  0  0  0  0  0
  -18.9465  -30.1467   23.8915 C   0  0  0  0  0  0
  -17.6473  -30.6617   24.0579 C   0  0  0  0  0  0
  -25.9058  -34.9467   23.5104 C   0  0  0  0  0  0
  -16.5351  -29.9134   23.6343 C   0  0  0  0  0  0
  -16.7258  -28.6556   23.0355 C   0  0  0  0  0  0
  -26.4476  -31.6599   25.0690 C   0  0  0  0  0  0
  -25.3704  -31.3758   26.1426 C   0  0  0  0  0  0
  -27.0304  -30.3031   24.6094 C   0  0  0  0  0  0
  -27.6039  -32.4332   25.7461 C   0  0  0  0  0  0
  -27.5556  -37.1823   24.8483 C   0  0  0  0  0  0
  -21.4158  -29.3044   22.3705 N   0  0  0  0  0  0
  -26.4279  -37.3795   23.9414 N   0  0  0  0  0  0
  -24.6838  -31.0646   22.0971 N   0  0  0  0  0  0
  -23.4208  -28.8145   23.2962 O   0  0  0  0  0  0
  -28.3717  -26.5249   20.1549 O   0  0  0  0  0  0
  -26.5630  -34.8930   22.4674 O   0  0  0  0  0  0
  -23.5385  -32.1371   23.7393 O   0  0  0  0  0  0
  -30.2126  -19.3798   20.8923 C   0  0  0  0  0  0
  -28.2283  -17.4408   21.0997 C   0  0  0  0  0  0
  -28.8730  -19.8395   21.0557 C   0  0  0  0  0  0
  -29.5620  -16.9773   20.9778 C   0  0  0  0  0  0
  -30.5583  -17.9870   20.8559 C   0  0  0  0  0  0
  -27.8874  -18.8174   21.1226 C   0  0  0  0  0  0
  -28.4920  -21.3049   21.3186 C   0  0  0  0  0  0
  -29.7904  -25.0463   18.9320 C   0  0  0  0  0  0
  -28.6970  -22.4592   20.2788 C   0  0  0  0  0  0
  -28.3237  -23.9592   20.7230 C   0  0  0  0  0  0
  -28.4417  -25.1326   19.6535 C   0  0  1  0  0  0
  -27.9525  -21.6159   22.4226 N   0  0  0  0  0  0
  -29.7564  -15.5349   21.1081 N   0  0  0  0  0  0
  -31.8634  -17.6392   20.7689 F   0  0  0  0  0  0
  -26.5771  -19.1407   21.2615 F   0  0  0  0  0  0
  -31.4923  -12.5089   19.1670 H   0  0  0  0  0  0
  -30.3822  -11.3677   19.8698 H   0  0  0  0  0  0
  -29.7831  -11.7667   17.4684 H   0  0  0  0  0  0
  -29.6745  -13.4853   17.7479 H   0  0  0  0  0  0
  -27.8594  -11.2922   18.8260 H   0  0  0  0  0  0
  -27.3873  -12.5985   17.7763 H   0  0  0  0  0  0
  -27.6958  -14.2424   19.5623 H   0  0  0  0  0  0
  -28.6979  -11.9330   21.2976 H   0  0  0  0  0  0
  -28.4166  -13.5378   21.8913 H   0  0  0  0  0  0
  -25.2757   -9.5617   22.4744 H   0  0  0  0  0  0
  -23.9952   -7.4585   22.7455 H   0  0  0  0  0  0
  -21.0841   -8.8771   19.8915 H   0  0  0  0  0  0
  -22.3753  -10.9622   19.6139 H   0  0  0  0  0  0
  -21.1976   -7.6124   23.9752 H   0  0  0  0  0  0
  -21.1496   -6.0484   25.9106 H   0  0  0  0  0  0
  -22.0592   -2.7584   23.2871 H   0  0  0  0  0  0
  -22.4037  -11.9865   22.4832 H   0  0  0  0  0  0
  -21.1067  -13.1207   22.2638 H   0  0  0  0  0  0
  -24.5653  -15.7402   20.3559 H   0  0  0  0  0  0
  -26.1024  -15.5167   19.7114 H   0  0  0  0  0  0
  -26.7129  -32.5479   23.1072 H   0  0  0  0  0  0
  -25.0026  -33.9769   25.0388 H   0  0  0  0  0  0
  -22.7112  -31.3092   21.4078 H   0  0  0  0  0  0
  -23.3729  -35.9642   23.3371 H   0  0  0  0  0  0
  -24.3552  -36.8836   22.2055 H   0  0  0  0  0  0
  -23.7239  -37.6519   23.6617 H   0  0  0  0  0  0
  -26.0757  -31.5581   20.5963 H   0  0  0  0  0  0
  -26.8428  -30.8550   21.9864 H   0  0  0  0  0  0
  -28.1084  -28.9903   21.1693 H   0  0  0  0  0  0
  -25.9323  -25.9159   19.0359 H   0  0  0  0  0  0
  -23.9505  -27.2952   19.0536 H   0  0  0  0  0  0
  -23.7656  -30.6079   19.4120 H   0  0  0  0  0  0
  -22.7450  -29.2698   19.8430 H   0  0  0  0  0  0
  -25.1312  -36.1934   25.0822 H   0  0  0  0  0  0
  -20.9977  -28.3239   24.1435 H   0  0  0  0  0  0
  -20.5696  -26.2282   23.3619 H   0  0  0  0  0  0
  -21.6622  -26.7473   22.1205 H   0  0  0  0  0  0
  -19.6896  -25.6323   21.1245 H   0  0  0  0  0  0
  -19.6659  -27.3236   20.6796 H   0  0  0  0  0  0
  -17.4181  -26.6699   21.4038 H   0  0  0  0  0  0
  -18.0290  -26.0101   22.9045 H   0  0  0  0  0  0
  -19.7940  -30.7283   24.2278 H   0  0  0  0  0  0
  -17.5032  -31.6300   24.5179 H   0  0  0  0  0  0
  -15.5361  -30.3055   23.7673 H   0  0  0  0  0  0
  -15.8641  -28.0901   22.7057 H   0  0  0  0  0  0
  -24.5885  -30.7108   25.7749 H   0  0  0  0  0  0
  -24.8906  -32.2941   26.4809 H   0  0  0  0  0  0
  -25.8034  -30.8956   27.0201 H   0  0  0  0  0  0
  -26.2851  -29.6821   24.1120 H   0  0  0  0  0  0
  -27.4031  -29.7263   25.4556 H   0  0  0  0  0  0
  -27.8698  -30.4361   23.9274 H   0  0  0  0  0  0
  -27.2643  -33.3621   26.2054 H   0  0  0  0  0  0
  -28.3840  -32.6904   25.0287 H   0  0  0  0  0  0
  -28.0698  -31.8433   26.5361 H   0  0  0  0  0  0
  -28.2650  -38.0050   24.7481 H   0  0  0  0  0  0
  -28.0970  -36.2590   24.6383 H   0  0  0  0  0  0
  -27.2275  -37.1583   25.8889 H   0  0  0  0  0  0
  -20.9302  -29.8813   21.6978 H   0  0  0  0  0  0
  -26.0149  -38.2864   24.1423 H   0  0  0  0  0  0
  -31.0068  -20.1102   20.8610 H   0  0  0  0  0  0
  -27.4288  -16.7227   21.2123 H   0  0  0  0  0  0
  -29.9000  -24.0890   18.4219 H   0  0  0  0  0  0
  -30.6231  -25.1535   19.6286 H   0  0  0  0  0  0
  -29.8753  -25.8167   18.1689 H   0  0  0  0  0  0
  -28.1203  -22.2001   19.3893 H   0  0  0  0  0  0
  -29.7482  -22.4268   19.9914 H   0  0  0  0  0  0
  -28.9475  -24.2239   21.5763 H   0  0  0  0  0  0
  -27.3014  -23.9702   21.1051 H   0  0  0  0  0  0
  -27.7123  -24.9542   18.8661 H   0  0  0  0  0  0
  -27.8146  -20.8085   23.0225 H   0  0  0  0  0  0
  -28.9448  -15.0680   21.4797 H   0  0  0  0  0  0
  1 25  1  0  0  0
  1 30  2  0  0  0
  1 83  1  0  0  0
  2  3  1  0  0  0
  2 25  1  0  0  0
  2 86  1  0  0  0
  2 87  1  0  0  0
  3  4  1  0  0  0
  3 88  1  0  0  0
  3 89  1  0  0  0
  4  5  1  0  0  0
  4 90  1  0  0  0
  4 91  1  0  0  0
  5  6  1  0  0  0
  5 26  1  0  0  0
  5 92  1  0  0  0
  6 25  1  0  0  0
  6 93  1  0  0  0
  6 94  1  0  0  0
  7  8  2  0  0  0
  7 26  1  0  0  0
  7 29  1  0  0  0
  8  9  1  0  0  0
  8 22  1  0  0  0
  9 10  1  0  0  0
  9 27  2  0  0  0
 10 11  2  0  0  0
 10 15  1  0  0  0
 11 12  1  0  0  0
 11 95  1  0  0  0
 12 13  2  0  0  0
 12 96  1  0  0  0
 13 14  1  0  0  0
 13 31  1  0  0  0
 14 15  2  0  0  0
 14 97  1  0  0  0
 15 98  1  0  0  0
 16 17  2  0  0  0
 16 21  1  0  0  0
 16 31  1  0  0  0
 17 18  1  0  0  0
 17 99  1  0  0  0
 18 19  2  0  0  0
 18100  1  0  0  0
 19 20  1  0  0  0
 19 24  1  0  0  0
 20 21  2  0  0  0
 20101  1  0  0  0
 21 23  1  0  0  0
 22 28  1  0  0  0
 22 32  2  0  0  0
 26 27  1  0  0  0
 28102  1  0  0  0
 28103  1  0  0  0
 29104  1  0  0  0
 29105  1  0  0  0
 33 34  1  0  0  0
 33 66  1  0  0  0
 33 70  2  0  0  0
 34 36  1  0  0  0
 34 59  1  0  0  0
 34106  1  0  0  0
 35 44  2  0  0  0
 35 45  1  0  0  0
 35 68  1  0  0  0
 36 56  1  0  0  0
 36107  1  0  0  0
 37 39  1  0  0  0
 37 47  1  0  0  0
 37 66  1  0  0  0
 37108  1  0  0  0
 38 43  2  0  0  0
 38 46  1  0  0  0
 38 47  1  0  0  0
 39 64  1  0  0  0
 39 67  2  0  0  0
 40 52  1  0  0  0
 40 53  2  0  0  0
 40 58  1  0  0  0
 41109  1  0  0  0
 41110  1  0  0  0
 41111  1  0  0  0
 41 48  1  0  0  0
 42 43  1  0  0  0
 42 66  1  0  0  0
 42112  1  0  0  0
 42113  1  0  0  0
 43 44  1  0  0  0
 44114  1  0  0  0
 45 46  2  0  0  0
 45115  1  0  0  0
 46116  1  0  0  0
 47117  1  0  0  0
 47118  1  0  0  0
 48 56  1  0  0  0
 48 65  1  0  0  0
 48119  1  0  0  0
 49 50  1  0  0  0
 49 53  1  0  0  0
 49 64  1  0  0  0
 49120  1  0  0  0
 50 51  1  0  0  0
 50121  1  0  0  0
 50122  1  0  0  0
 51 52  1  0  0  0
 51123  1  0  0  0
 51124  1  0  0  0
 52125  1  0  0  0
 52126  1  0  0  0
 53 54  1  0  0  0
 54 55  2  0  0  0
 54127  1  0  0  0
 55 57  1  0  0  0
 55128  1  0  0  0
 56 69  2  0  0  0
 57 58  2  0  0  0
 57129  1  0  0  0
 58130  1  0  0  0
 59 60  1  0  0  0
 59 61  1  0  0  0
 59 62  1  0  0  0
 60131  1  0  0  0
 60132  1  0  0  0
 60133  1  0  0  0
 61134  1  0  0  0
 61135  1  0  0  0
 61136  1  0  0  0
 62137  1  0  0  0
 62138  1  0  0  0
 62139  1  0  0  0
 63 65  1  0  0  0
 63140  1  0  0  0
 63141  1  0  0  0
 63142  1  0  0  0
 64143  1  0  0  0
 65144  1  0  0  0
 68 81  1  0  0  0
 71 73  2  0  0  0
 71 75  1  0  0  0
 71145  1  0  0  0
 72 74  1  0  0  0
 72 76  2  0  0  0
 72146  1  0  0  0
 73 76  1  0  0  0
 73 77  1  0  0  0
 74 75  2  0  0  0
 74 83  1  0  0  0
 75 84  1  0  0  0
 76 85  1  0  0  0
 77 79  1  0  0  0
 77 82  2  0  0  0
 78147  1  0  0  0
 78148  1  0  0  0
 78149  1  0  0  0
 78 81  1  0  0  0
 79 80  1  0  0  0
 79150  1  0  0  0
 79151  1  0  0  0
 80 81  1  0  0  0
 80152  1  0  0  0
 80153  1  0  0  0
 81154  1  0  0  0
 82155  1  0  0  0
 83156  1  0  0  0
M  ISO  4   1 100  68 101  81 101  83 100
M  END
> <chiral flag>
0

> <version>
0

> <s_m_source_file>
/data/baiqing/PycharmProjects/Reinvent-master-3.2/result/LINK_invent/BTK/process_docking_weight1_custom_product_contain_oxygen_bond_distance_aromatic_linkinvent_7_9_3/rearranged_h_0136.sdf

> <i_m_source_file_index>
73

> <r_mmod_Potential_Energy-OPLS-2005>
20.5467319488525

> <r_mmod_Stretch_Energy-OPLS-2005>
80.0747680664062

> <r_mmod_Bend_Energy-OPLS-2005>
155.507705688477

> <r_mmod_Torsional_Energy-OPLS-2005>
237.403518676758

> <r_mmod_Improper_Torsional_Energy-OPLS-2005>
8.38051414489746

> <r_mmod_Van_der_Waal_Energy-OPLS-2005>
143.416564941406

> <r_mmod_Electrostatic_Energy-OPLS-2005>
-425.201202392578

> <r_mmod_Solvation_Energy-OPLS-2005>
-220.299774169922

> <b_mmod_Minimization_Converged-OPLS-2005>
0

> <r_mmod_RMS_Derivative-OPLS-2005>
4.25144338607788

$$$$
73
                    3D
 Structure written by MMmdl.
169177  0  0  1  0            999 V2000
  -30.7256  -14.3826   20.5777 C   0  0  0  0  0  0
  -30.4096  -12.2511   19.4157 C   0  0  0  0  0  0
  -29.4969  -12.5174   18.2014 C   0  0  0  0  0  0
  -28.0120  -12.3997   18.6016 C   0  0  0  0  0  0
  -27.6672  -13.2070   19.8815 C   0  0  2  0  0  0
  -28.7026  -12.9379   20.9976 C   0  0  0  0  0  0
  -25.2590  -13.8176   20.5677 C   0  0  0  0  0  0
  -24.1829  -13.0449   20.9150 C   0  0  0  0  0  0
  -24.6386  -11.6914   20.8699 C   0  0  0  0  0  0
  -23.9065  -10.4289   21.0384 C   0  0  0  0  0  0
  -24.3615   -9.4203   21.9166 C   0  0  0  0  0  0
  -23.6278   -8.2245   22.0756 C   0  0  0  0  0  0
  -22.4260   -8.0280   21.3553 C   0  0  0  0  0  0
  -21.9890   -9.0254   20.4662 C   0  0  0  0  0  0
  -22.7235  -10.2122   20.3045 C   0  0  0  0  0  0
  -21.6851   -6.0730   22.5276 C   0  0  0  0  0  0
  -21.4020   -6.5634   23.8209 C   0  0  0  0  0  0
  -21.3656   -5.6787   24.9168 C   0  0  0  0  0  0
  -21.6038   -4.3049   24.7219 C   0  0  0  0  0  0
  -21.8819   -3.8142   23.4341 C   0  0  0  0  0  0
  -21.9192   -4.6959   22.3399 C   0  0  0  0  0  0
  -22.7853  -13.5248   21.1826 C   0  0  0  0  0  0
  -22.1666   -4.2151   21.0978 F   0  0  0  0  0  0
  -21.5617   -3.4532   25.7727 F   0  0  0  0  0  0
  -30.0464  -13.2149   20.4614 N   0  0  0  0  0  0
  -26.3041  -12.9351   20.3362 N   0  0  0  0  0  0
  -25.9304  -11.6512   20.5700 N   0  0  0  0  0  0
  -22.0486  -12.8251   22.0387 N   0  0  0  0  0  0
  -25.4332  -15.1897   20.4130 N   0  0  0  0  0  0
  -31.8495  -14.5687   20.1028 O   0  0  0  0  0  0
  -21.6637   -6.8871   21.4241 O   0  0  0  0  0  0
  -22.3541  -14.5561   20.6694 O   0  0  0  0  0  0
  -24.6096  -31.8708   23.2096 C   0  0  0  0  0  0
  -25.9014  -32.4828   23.8357 C   0  0  1  0  0  0
  -27.2411  -27.4850   20.0620 C   0  0  0  0  0  0
  -25.5890  -33.8621   24.2312 N   0  0  0  0  0  0
  -23.3930  -30.4950   21.5520 C   0  0  2  0  0  0
  -24.8372  -28.9673   20.1152 C   0  0  0  0  0  0
  -22.7364  -29.4683   22.5019 C   0  0  0  0  0  0
  -18.0276  -28.1346   22.8507 C   0  0  0  0  0  0
  -24.1499  -36.7323   23.2634 C   0  0  0  0  0  0
  -25.9153  -30.8575   21.3465 C   0  0  0  0  0  0
  -25.9954  -29.4927   20.6997 C   0  0  0  0  0  0
  -27.1978  -28.7565   20.6722 C   0  0  0  0  0  0
  -26.0571  -26.9626   19.4871 C   0  0  0  0  0  0
  -24.8593  -27.6986   19.5147 C   0  0  0  0  0  0
  -23.5945  -29.8241   20.1669 C   0  0  0  0  0  0
  -25.4115  -36.3106   24.0334 C   0  0  1  0  0  0
  -20.5865  -28.3618   23.1326 C   0  0  2  0  0  0
  -20.6777  -26.9381   22.5338 C   0  0  0  0  0  0
  -19.5747  -26.6440   21.5128 C   0  0  0  0  0  0
  -18.1936  -26.7915   22.1578 C   0  0  0  0  0  0
  -19.1522  -28.8791   23.2938 C   0  0  0  0  0  0
  -18.9453  -30.1398   23.8947 C   0  0  0  0  0  0
  -17.6457  -30.6559   24.0554 C   0  0  0  0  0  0
  -25.9033  -34.9481   23.5118 C   0  0  0  0  0  0
  -16.5343  -29.9077   23.6314 C   0  0  0  0  0  0
  -16.7264  -28.6483   23.0347 C   0  0  0  0  0  0
  -26.4466  -31.6578   25.0651 C   0  0  0  0  0  0
  -25.3752  -31.3699   26.1417 C   0  0  0  0  0  0
  -27.0269  -30.3027   24.5955 C   0  0  0  0  0  0
  -27.6066  -32.4251   25.7427 C   0  0  0  0  0  0
  -27.5587  -37.1809   24.8456 C   0  0  0  0  0  0
  -21.4094  -29.3046   22.3786 N   0  0  0  0  0  0
  -26.4299  -37.3796   23.9403 N   0  0  0  0  0  0
  -24.6592  -31.0844   22.0977 N   0  0  0  0  0  0
  -23.4160  -28.8197   23.3023 O   0  0  0  0  0  0
  -28.4525  -26.8307   20.0437 O   0  0  0  0  0  0
  -26.5574  -34.8934   22.4660 O   0  0  0  0  0  0
  -23.5301  -32.1457   23.7513 O   0  0  0  0  0  0
  -30.1892  -18.3117   18.7731 C   0  0  0  0  0  0
  -29.8458  -19.3542   19.6467 C   0  0  0  0  0  0
  -30.2711  -16.9951   19.2553 C   0  0  0  0  0  0
  -29.6510  -17.7623   21.4906 C   0  0  0  0  0  0
  -29.5770  -19.0861   21.0076 C   0  0  0  0  0  0
  -30.0077  -16.7124   20.6201 C   0  0  0  0  0  0
  -25.6512  -22.9089   23.3489 C   0  0  0  0  0  0
  -26.0285  -22.4854   22.1321 C   0  0  0  0  0  0
  -25.0035  -22.2227   21.0427 C   0  0  0  0  0  0
  -30.3705  -21.2303   22.0155 C   0  0  0  0  0  0
  -27.9303  -24.6314   20.8899 C   0  0  0  0  0  0
  -27.9596  -23.1318   20.5994 C   0  0  0  0  0  0
  -27.7984  -20.7756   21.5146 C   0  0  0  0  0  0
  -28.4876  -25.4487   19.7163 C   0  0  0  0  0  0
  -29.1950  -20.2316   21.9283 C   0  0  1  0  0  0
  -27.5005  -22.2628   21.7897 C   0  0  2  0  0  0
  -30.0291  -15.3861   21.1248 N   0  0  0  0  0  0
  -31.4619  -12.3107   19.1317 H   0  0  0  0  0  0
  -30.2595  -11.2350   19.7814 H   0  0  0  0  0  0
  -29.7274  -11.8174   17.3976 H   0  0  0  0  0  0
  -29.6915  -13.5141   17.8014 H   0  0  0  0  0  0
  -27.7852  -11.3447   18.7536 H   0  0  0  0  0  0
  -27.3825  -12.7305   17.7763 H   0  0  0  0  0  0
  -27.7285  -14.2629   19.6176 H   0  0  0  0  0  0
  -28.6508  -11.8949   21.3126 H   0  0  0  0  0  0
  -28.4738  -13.5170   21.8919 H   0  0  0  0  0  0
  -25.2765   -9.5673   22.4733 H   0  0  0  0  0  0
  -23.9986   -7.4641   22.7472 H   0  0  0  0  0  0
  -21.0816   -8.8782   19.8973 H   0  0  0  0  0  0
  -22.3708  -10.9650   19.6139 H   0  0  0  0  0  0
  -21.2032   -7.6139   23.9715 H   0  0  0  0  0  0
  -21.1478   -6.0513   25.9073 H   0  0  0  0  0  0
  -22.0607   -2.7605   23.2844 H   0  0  0  0  0  0
  -22.4115  -11.9924   22.4773 H   0  0  0  0  0  0
  -21.1114  -13.1298   22.2621 H   0  0  0  0  0  0
  -24.6727  -15.8503   20.5294 H   0  0  0  0  0  0
  -26.2940  -15.6264   20.1086 H   0  0  0  0  0  0
  -26.7067  -32.5557   23.1112 H   0  0  0  0  0  0
  -25.0037  -33.9767   25.0452 H   0  0  0  0  0  0
  -22.6825  -31.3127   21.4127 H   0  0  0  0  0  0
  -23.3743  -35.9674   23.3291 H   0  0  0  0  0  0
  -24.3611  -36.8923   22.2052 H   0  0  0  0  0  0
  -23.7268  -37.6545   23.6628 H   0  0  0  0  0  0
  -25.9953  -31.6245   20.5740 H   0  0  0  0  0  0
  -26.8165  -30.9278   21.9442 H   0  0  0  0  0  0
  -28.0967  -29.1653   21.1117 H   0  0  0  0  0  0
  -26.0301  -25.9956   19.0089 H   0  0  0  0  0  0
  -23.9637  -27.2857   19.0712 H   0  0  0  0  0  0
  -23.6880  -30.5958   19.4021 H   0  0  0  0  0  0
  -22.7238  -29.2334   19.8753 H   0  0  0  0  0  0
  -25.1281  -36.1981   25.0827 H   0  0  0  0  0  0
  -20.9969  -28.3124   24.1442 H   0  0  0  0  0  0
  -20.5730  -26.2159   23.3449 H   0  0  0  0  0  0
  -21.6629  -26.7491   22.1053 H   0  0  0  0  0  0
  -19.6910  -25.6415   21.0997 H   0  0  0  0  0  0
  -19.6647  -27.3362   20.6740 H   0  0  0  0  0  0
  -17.4205  -26.6734   21.3963 H   0  0  0  0  0  0
  -18.0358  -25.9990   22.8908 H   0  0  0  0  0  0
  -19.7923  -30.7210   24.2350 H   0  0  0  0  0  0
  -17.5022  -31.6250   24.5127 H   0  0  0  0  0  0
  -15.5351  -30.3002   23.7636 H   0  0  0  0  0  0
  -15.8672  -28.0812   22.7032 H   0  0  0  0  0  0
  -24.5947  -30.6996   25.7795 H   0  0  0  0  0  0
  -24.8902  -32.2858   26.4802 H   0  0  0  0  0  0
  -25.8134  -30.8952   27.0202 H   0  0  0  0  0  0
  -26.2777  -29.6802   24.1048 H   0  0  0  0  0  0
  -27.4124  -29.7233   25.4355 H   0  0  0  0  0  0
  -27.8558  -30.4349   23.8997 H   0  0  0  0  0  0
  -27.2703  -33.3536   26.2052 H   0  0  0  0  0  0
  -28.3882  -32.6814   25.0261 H   0  0  0  0  0  0
  -28.0709  -31.8311   26.5314 H   0  0  0  0  0  0
  -28.2598  -38.0110   24.7501 H   0  0  0  0  0  0
  -28.1074  -36.2641   24.6259 H   0  0  0  0  0  0
  -27.2294  -37.1440   25.8855 H   0  0  0  0  0  0
  -20.9216  -29.8828   21.7077 H   0  0  0  0  0  0
  -26.0184  -38.2866   24.1423 H   0  0  0  0  0  0
  -30.3845  -18.5202   17.7306 H   0  0  0  0  0  0
  -29.7804  -20.3636   19.2620 H   0  0  0  0  0  0
  -30.5274  -16.2142   18.5528 H   0  0  0  0  0  0
  -29.4388  -17.5527   22.5305 H   0  0  0  0  0  0
  -24.6107  -23.0727   23.5912 H   0  0  0  0  0  0
  -26.3747  -23.1010   24.1274 H   0  0  0  0  0  0
  -23.9899  -22.2560   21.4465 H   0  0  0  0  0  0
  -25.1515  -21.2401   20.5942 H   0  0  0  0  0  0
  -25.0705  -22.9739   20.2559 H   0  0  0  0  0  0
  -31.2541  -20.7251   22.4068 H   0  0  0  0  0  0
  -30.1736  -22.0619   22.6902 H   0  0  0  0  0  0
  -30.6481  -21.6392   21.0455 H   0  0  0  0  0  0
  -28.5243  -24.8432   21.7786 H   0  0  0  0  0  0
  -26.9102  -24.9378   21.1224 H   0  0  0  0  0  0
  -28.9756  -22.8638   20.3161 H   0  0  0  0  0  0
  -27.3543  -22.9190   19.7179 H   0  0  0  0  0  0
  -27.0540  -20.1499   22.0105 H   0  0  0  0  0  0
  -27.6216  -20.6022   20.4519 H   0  0  0  0  0  0
  -27.9899  -25.2351   18.7703 H   0  0  0  0  0  0
  -29.5305  -25.1768   19.5534 H   0  0  0  0  0  0
  -29.0784  -19.8346   22.9386 H   0  0  0  0  0  0
  -28.0602  -22.5638   22.6746 H   0  0  0  0  0  0
  -29.2510  -15.1209   21.7099 H   0  0  0  0  0  0
  1 25  1  0  0  0
  1 30  2  0  0  0
  1 87  1  0  0  0
  2  3  1  0  0  0
  2 25  1  0  0  0
  2 88  1  0  0  0
  2 89  1  0  0  0
  3  4  1  0  0  0
  3 90  1  0  0  0
  3 91  1  0  0  0
  4  5  1  0  0  0
  4 92  1  0  0  0
  4 93  1  0  0  0
  5  6  1  0  0  0
  5 26  1  0  0  0
  5 94  1  0  0  0
  6 25  1  0  0  0
  6 95  1  0  0  0
  6 96  1  0  0  0
  7  8  2  0  0  0
  7 26  1  0  0  0
  7 29  1  0  0  0
  8  9  1  0  0  0
  8 22  1  0  0  0
  9 10  1  0  0  0
  9 27  2  0  0  0
 10 11  2  0  0  0
 10 15  1  0  0  0
 11 12  1  0  0  0
 11 97  1  0  0  0
 12 13  2  0  0  0
 12 98  1  0  0  0
 13 14  1  0  0  0
 13 31  1  0  0  0
 14 15  2  0  0  0
 14 99  1  0  0  0
 15100  1  0  0  0
 16 17  2  0  0  0
 16 21  1  0  0  0
 16 31  1  0  0  0
 17 18  1  0  0  0
 17101  1  0  0  0
 18 19  2  0  0  0
 18102  1  0  0  0
 19 20  1  0  0  0
 19 24  1  0  0  0
 20 21  2  0  0  0
 20103  1  0  0  0
 21 23  1  0  0  0
 22 28  1  0  0  0
 22 32  2  0  0  0
 26 27  1  0  0  0
 28104  1  0  0  0
 28105  1  0  0  0
 29106  1  0  0  0
 29107  1  0  0  0
 33 34  1  0  0  0
 33 66  1  0  0  0
 33 70  2  0  0  0
 34 36  1  0  0  0
 34 59  1  0  0  0
 34108  1  0  0  0
 35 44  2  0  0  0
 35 45  1  0  0  0
 35 68  1  0  0  0
 36 56  1  0  0  0
 36109  1  0  0  0
 37 39  1  0  0  0
 37 47  1  0  0  0
 37 66  1  0  0  0
 37110  1  0  0  0
 38 43  2  0  0  0
 38 46  1  0  0  0
 38 47  1  0  0  0
 39 64  1  0  0  0
 39 67  2  0  0  0
 40 52  1  0  0  0
 40 53  2  0  0  0
 40 58  1  0  0  0
 41111  1  0  0  0
 41112  1  0  0  0
 41113  1  0  0  0
 41 48  1  0  0  0
 42 43  1  0  0  0
 42 66  1  0  0  0
 42114  1  0  0  0
 42115  1  0  0  0
 43 44  1  0  0  0
 44116  1  0  0  0
 45 46  2  0  0  0
 45117  1  0  0  0
 46118  1  0  0  0
 47119  1  0  0  0
 47120  1  0  0  0
 48 56  1  0  0  0
 48 65  1  0  0  0
 48121  1  0  0  0
 49 50  1  0  0  0
 49 53  1  0  0  0
 49 64  1  0  0  0
 49122  1  0  0  0
 50 51  1  0  0  0
 50123  1  0  0  0
 50124  1  0  0  0
 51 52  1  0  0  0
 51125  1  0  0  0
 51126  1  0  0  0
 52127  1  0  0  0
 52128  1  0  0  0
 53 54  1  0  0  0
 54 55  2  0  0  0
 54129  1  0  0  0
 55 57  1  0  0  0
 55130  1  0  0  0
 56 69  2  0  0  0
 57 58  2  0  0  0
 57131  1  0  0  0
 58132  1  0  0  0
 59 60  1  0  0  0
 59 61  1  0  0  0
 59 62  1  0  0  0
 60133  1  0  0  0
 60134  1  0  0  0
 60135  1  0  0  0
 61136  1  0  0  0
 61137  1  0  0  0
 61138  1  0  0  0
 62139  1  0  0  0
 62140  1  0  0  0
 62141  1  0  0  0
 63 65  1  0  0  0
 63142  1  0  0  0
 63143  1  0  0  0
 63144  1  0  0  0
 64145  1  0  0  0
 65146  1  0  0  0
 68 84  1  0  0  0
 71 72  2  0  0  0
 71 73  1  0  0  0
 71147  1  0  0  0
 72 75  1  0  0  0
 72148  1  0  0  0
 73 76  2  0  0  0
 73149  1  0  0  0
 74 75  2  0  0  0
 74 76  1  0  0  0
 74150  1  0  0  0
 75 85  1  0  0  0
 76 87  1  0  0  0
 77 78  2  0  0  0
 77151  1  0  0  0
 77152  1  0  0  0
 78 79  1  0  0  0
 78 86  1  0  0  0
 79153  1  0  0  0
 79154  1  0  0  0
 79155  1  0  0  0
 80156  1  0  0  0
 80157  1  0  0  0
 80158  1  0  0  0
 80 85  1  0  0  0
 81 82  1  0  0  0
 81 84  1  0  0  0
 81159  1  0  0  0
 81160  1  0  0  0
 82161  1  0  0  0
 82162  1  0  0  0
 82 86  1  0  0  0
 83 85  1  0  0  0
 83 86  1  0  0  0
 83163  1  0  0  0
 83164  1  0  0  0
 84165  1  0  0  0
 84166  1  0  0  0
 85167  1  0  0  0
 86168  1  0  0  0
 87169  1  0  0  0
M  ISO  4   1 100  68 101  84 101  87 100
M  END
> <chiral flag>
0

> <version>
0

> <s_m_source_file>
/data/baiqing/PycharmProjects/Reinvent-master-3.2/result/LINK_invent/BTK/process_docking_weight1_custom_product_contain_oxygen_bond_distance_aromatic_linkinvent_7_9_3/rearranged_h_0136.sdf

> <i_m_source_file_index>
74

> <r_mmod_Potential_Energy-OPLS-2005>
-25.09375

> <r_mmod_Stretch_Energy-OPLS-2005>
32.5080642700195

> <r_mmod_Bend_Energy-OPLS-2005>
103.587669372559

> <r_mmod_Torsional_Energy-OPLS-2005>
241.217239379883

> <r_mmod_Improper_Torsional_Energy-OPLS-2005>
4.68360710144043

> <r_mmod_Van_der_Waal_Energy-OPLS-2005>
166.7314453125

> <r_mmod_Electrostatic_Energy-OPLS-2005>
-394.450225830078

> <r_mmod_Solvation_Energy-OPLS-2005>
-189.699020385742

> <b_mmod_Minimization_Converged-OPLS-2005>
0

> <r_mmod_RMS_Derivative-OPLS-2005>
2.84078097343445

$$$$
74
                    3D
 Structure written by MMmdl.
168176  0  0  1  0            999 V2000
  -30.7547  -14.3702   20.6748 C   0  0  0  0  0  0
  -30.4176  -12.2875   19.3936 C   0  0  0  0  0  0
  -29.4840  -12.5258   18.1916 C   0  0  0  0  0  0
  -28.0070  -12.3838   18.6074 C   0  0  0  0  0  0
  -27.6653  -13.2015   19.8808 C   0  0  2  0  0  0
  -28.7031  -12.9331   20.9924 C   0  0  0  0  0  0
  -25.2587  -13.8134   20.5671 C   0  0  0  0  0  0
  -24.1836  -13.0423   20.9165 C   0  0  0  0  0  0
  -24.6386  -11.6893   20.8729 C   0  0  0  0  0  0
  -23.9053  -10.4284   21.0402 C   0  0  0  0  0  0
  -24.3608   -9.4200   21.9179 C   0  0  0  0  0  0
  -23.6284   -8.2238   22.0752 C   0  0  0  0  0  0
  -22.4266   -8.0276   21.3545 C   0  0  0  0  0  0
  -21.9900   -9.0247   20.4646 C   0  0  0  0  0  0
  -22.7226  -10.2125   20.3051 C   0  0  0  0  0  0
  -21.6851   -6.0729   22.5279 C   0  0  0  0  0  0
  -21.4010   -6.5636   23.8211 C   0  0  0  0  0  0
  -21.3661   -5.6789   24.9174 C   0  0  0  0  0  0
  -21.6044   -4.3052   24.7226 C   0  0  0  0  0  0
  -21.8820   -3.8144   23.4347 C   0  0  0  0  0  0
  -21.9190   -4.6957   22.3402 C   0  0  0  0  0  0
  -22.7860  -13.5229   21.1832 C   0  0  0  0  0  0
  -22.1660   -4.2144   21.0978 F   0  0  0  0  0  0
  -21.5629   -3.4534   25.7738 F   0  0  0  0  0  0
  -30.0454  -13.2321   20.4561 N   0  0  0  0  0  0
  -26.3034  -12.9311   20.3380 N   0  0  0  0  0  0
  -25.9313  -11.6472   20.5760 N   0  0  0  0  0  0
  -22.0502  -12.8229   22.0399 N   0  0  0  0  0  0
  -25.4293  -15.1839   20.4063 N   0  0  0  0  0  0
  -31.8018  -14.6381   20.0758 O   0  0  0  0  0  0
  -21.6635   -6.8872   21.4241 O   0  0  0  0  0  0
  -22.3550  -14.5540   20.6687 O   0  0  0  0  0  0
  -24.6088  -31.8697   23.2115 C   0  0  0  0  0  0
  -25.8997  -32.4826   23.8400 C   0  0  1  0  0  0
  -27.2452  -27.4750   20.1120 C   0  0  0  0  0  0
  -25.5868  -33.8622   24.2339 N   0  0  0  0  0  0
  -23.3946  -30.4898   21.5513 C   0  0  2  0  0  0
  -24.8429  -28.9532   20.1228 C   0  0  0  0  0  0
  -22.7377  -29.4658   22.5034 C   0  0  0  0  0  0
  -18.0258  -28.1371   22.8499 C   0  0  0  0  0  0
  -24.1485  -36.7318   23.2644 C   0  0  0  0  0  0
  -25.9165  -30.8527   21.3540 C   0  0  0  0  0  0
  -25.9971  -29.4874   20.7086 C   0  0  0  0  0  0
  -27.2024  -28.7613   20.6884 C   0  0  0  0  0  0
  -26.0818  -26.9455   19.5188 C   0  0  0  0  0  0
  -24.8773  -27.6787   19.5260 C   0  0  0  0  0  0
  -23.6007  -29.8122   20.1696 C   0  0  0  0  0  0
  -25.4099  -36.3113   24.0353 C   0  0  1  0  0  0
  -20.5841  -28.3636   23.1357 C   0  0  2  0  0  0
  -20.6748  -26.9380   22.5437 C   0  0  0  0  0  0
  -19.5731  -26.6382   21.5224 C   0  0  0  0  0  0
  -18.1904  -26.7922   22.1628 C   0  0  0  0  0  0
  -19.1505  -28.8823   23.2922 C   0  0  0  0  0  0
  -18.9437  -30.1435   23.8920 C   0  0  0  0  0  0
  -17.6439  -30.6580   24.0565 C   0  0  0  0  0  0
  -25.9016  -34.9479   23.5147 C   0  0  0  0  0  0
  -16.5330  -29.9078   23.6330 C   0  0  0  0  0  0
  -16.7247  -28.6498   23.0347 C   0  0  0  0  0  0
  -26.4456  -31.6591   25.0705 C   0  0  0  0  0  0
  -25.3747  -31.3679   26.1470 C   0  0  0  0  0  0
  -27.0289  -30.3047   24.6036 C   0  0  0  0  0  0
  -27.6051  -32.4293   25.7452 C   0  0  0  0  0  0
  -27.5586  -37.1805   24.8460 C   0  0  0  0  0  0
  -21.4107  -29.3015   22.3776 N   0  0  0  0  0  0
  -26.4292  -37.3788   23.9413 N   0  0  0  0  0  0
  -24.6578  -31.0841   22.0986 N   0  0  0  0  0  0
  -23.4172  -28.8218   23.3071 O   0  0  0  0  0  0
  -28.4306  -26.7857   20.0259 O   0  0  0  0  0  0
  -26.5578  -34.8931   22.4708 O   0  0  0  0  0  0
  -23.5294  -32.1430   23.7542 O   0  0  0  0  0  0
  -32.4146  -18.0325   22.6268 C   0  0  0  0  0  0
  -31.9892  -16.7361   22.2947 C   0  0  0  0  0  0
  -31.5104  -19.1078   22.5726 C   0  0  0  0  0  0
  -29.7279  -17.5824   21.8819 C   0  0  0  0  0  0
  -30.6512  -16.5043   21.9083 C   0  0  0  0  0  0
  -30.1606  -18.8957   22.1947 C   0  0  0  0  0  0
  -28.5578  -22.2421   21.9871 C   0  0  0  0  0  0
  -28.0758  -17.5273   19.9603 C   0  0  0  0  0  0
  -30.4444  -26.0293   20.8870 C   0  0  0  0  0  0
  -28.6929  -26.7812   22.5266 C   0  0  0  0  0  0
  -28.2741  -17.3590   21.4719 C   0  0  0  0  0  0
  -28.8779  -23.7142   22.2325 C   0  0  0  0  0  0
  -29.6876  -21.2504   22.2800 C   0  0  0  0  0  0
  -28.3116  -24.6613   21.1516 C   0  0  0  0  0  0
  -28.9320  -26.0775   21.1697 C   0  0  0  0  0  0
  -30.2208  -15.1901   21.5916 N   0  0  0  0  0  0
  -27.4480  -21.8818   21.5792 O   0  0  0  0  0  0
  -29.2329  -19.9125   22.1030 O   0  0  0  0  0  0
  -31.4610  -12.3896   19.0893 H   0  0  0  0  0  0
  -30.3162  -11.2640   19.7581 H   0  0  0  0  0  0
  -29.7159  -11.8236   17.3895 H   0  0  0  0  0  0
  -29.6552  -13.5239   17.7852 H   0  0  0  0  0  0
  -27.8109  -11.3254   18.7830 H   0  0  0  0  0  0
  -27.3550  -12.6801   17.7848 H   0  0  0  0  0  0
  -27.7253  -14.2570   19.6140 H   0  0  0  0  0  0
  -28.6667  -11.8851   21.2932 H   0  0  0  0  0  0
  -28.4495  -13.4916   21.8934 H   0  0  0  0  0  0
  -25.2757   -9.5678   22.4746 H   0  0  0  0  0  0
  -23.9994   -7.4632   22.7474 H   0  0  0  0  0  0
  -21.0828   -8.8763   19.8956 H   0  0  0  0  0  0
  -22.3686  -10.9660   19.6157 H   0  0  0  0  0  0
  -21.2003   -7.6144   23.9714 H   0  0  0  0  0  0
  -21.1481   -6.0519   25.9077 H   0  0  0  0  0  0
  -22.0598   -2.7606   23.2847 H   0  0  0  0  0  0
  -22.4112  -11.9884   22.4781 H   0  0  0  0  0  0
  -21.1124  -13.1266   22.2612 H   0  0  0  0  0  0
  -24.6606  -15.8375   20.5076 H   0  0  0  0  0  0
  -26.2806  -15.6178   20.0766 H   0  0  0  0  0  0
  -26.7074  -32.5560   23.1179 H   0  0  0  0  0  0
  -25.0034  -33.9782   25.0498 H   0  0  0  0  0  0
  -22.6811  -31.3040   21.4104 H   0  0  0  0  0  0
  -23.3740  -35.9656   23.3300 H   0  0  0  0  0  0
  -24.3599  -36.8922   22.2061 H   0  0  0  0  0  0
  -23.7241  -37.6530   23.6649 H   0  0  0  0  0  0
  -26.0187  -31.6177   20.5833 H   0  0  0  0  0  0
  -26.8088  -30.9113   21.9657 H   0  0  0  0  0  0
  -28.1009  -29.1938   21.1039 H   0  0  0  0  0  0
  -26.1132  -25.9735   19.0475 H   0  0  0  0  0  0
  -23.9901  -27.2602   19.0715 H   0  0  0  0  0  0
  -23.7017  -30.5813   19.4029 H   0  0  0  0  0  0
  -22.7288  -29.2218   19.8805 H   0  0  0  0  0  0
  -25.1277  -36.1984   25.0845 H   0  0  0  0  0  0
  -20.9931  -28.3186   24.1480 H   0  0  0  0  0  0
  -20.5662  -26.2229   23.3604 H   0  0  0  0  0  0
  -21.6618  -26.7439   22.1223 H   0  0  0  0  0  0
  -19.6884  -25.6301   21.1231 H   0  0  0  0  0  0
  -19.6688  -27.3216   20.6773 H   0  0  0  0  0  0
  -17.4188  -26.6685   21.4013 H   0  0  0  0  0  0
  -18.0289  -26.0059   22.9014 H   0  0  0  0  0  0
  -19.7913  -30.7246   24.2296 H   0  0  0  0  0  0
  -17.4994  -31.6263   24.5154 H   0  0  0  0  0  0
  -15.5334  -30.2983   23.7648 H   0  0  0  0  0  0
  -15.8645  -28.0830   22.7042 H   0  0  0  0  0  0
  -24.5903  -30.7045   25.7805 H   0  0  0  0  0  0
  -24.8963  -32.2830   26.4966 H   0  0  0  0  0  0
  -25.8122  -30.8811   27.0193 H   0  0  0  0  0  0
  -26.2826  -29.6801   24.1116 H   0  0  0  0  0  0
  -27.4115  -29.7276   25.4460 H   0  0  0  0  0  0
  -27.8621  -30.4383   23.9136 H   0  0  0  0  0  0
  -27.2692  -33.3568   26.2095 H   0  0  0  0  0  0
  -28.3828  -32.6883   25.0256 H   0  0  0  0  0  0
  -28.0759  -31.8372   26.5307 H   0  0  0  0  0  0
  -28.2597  -38.0110   24.7517 H   0  0  0  0  0  0
  -28.1093  -36.2646   24.6265 H   0  0  0  0  0  0
  -27.2320  -37.1423   25.8867 H   0  0  0  0  0  0
  -20.9254  -29.8712   21.6993 H   0  0  0  0  0  0
  -26.0186  -38.2870   24.1405 H   0  0  0  0  0  0
  -33.4410  -18.2029   22.9206 H   0  0  0  0  0  0
  -32.6987  -15.9209   22.3422 H   0  0  0  0  0  0
  -31.8851  -20.0882   22.8279 H   0  0  0  0  0  0
  -27.0274  -17.4150   19.6866 H   0  0  0  0  0  0
  -28.6525  -16.7908   19.4002 H   0  0  0  0  0  0
  -28.3916  -18.5186   19.6341 H   0  0  0  0  0  0
  -31.0059  -25.5813   21.7061 H   0  0  0  0  0  0
  -30.8461  -27.0334   20.7431 H   0  0  0  0  0  0
  -30.6658  -25.4599   19.9837 H   0  0  0  0  0  0
  -27.6316  -26.8526   22.7675 H   0  0  0  0  0  0
  -29.1142  -27.7856   22.5429 H   0  0  0  0  0  0
  -29.1668  -26.2379   23.3443 H   0  0  0  0  0  0
  -27.6302  -18.0584   22.0061 H   0  0  0  0  0  0
  -27.9319  -16.3740   21.7885 H   0  0  0  0  0  0
  -29.9621  -23.7966   22.2824 H   0  0  0  0  0  0
  -28.5007  -23.9916   23.2162 H   0  0  0  0  0  0
  -30.0399  -21.3999   23.3011 H   0  0  0  0  0  0
  -30.5133  -21.4617   21.5994 H   0  0  0  0  0  0
  -27.2296  -24.7330   21.2738 H   0  0  0  0  0  0
  -28.4704  -24.2217   20.1652 H   0  0  0  0  0  0
  -29.3221  -14.9051   21.9489 H   0  0  0  0  0  0
  1 25  1  0  0  0
  1 30  2  0  0  0
  1 86  1  0  0  0
  2  3  1  0  0  0
  2 25  1  0  0  0
  2 89  1  0  0  0
  2 90  1  0  0  0
  3  4  1  0  0  0
  3 91  1  0  0  0
  3 92  1  0  0  0
  4  5  1  0  0  0
  4 93  1  0  0  0
  4 94  1  0  0  0
  5  6  1  0  0  0
  5 26  1  0  0  0
  5 95  1  0  0  0
  6 25  1  0  0  0
  6 96  1  0  0  0
  6 97  1  0  0  0
  7  8  2  0  0  0
  7 26  1  0  0  0
  7 29  1  0  0  0
  8  9  1  0  0  0
  8 22  1  0  0  0
  9 10  1  0  0  0
  9 27  2  0  0  0
 10 11  2  0  0  0
 10 15  1  0  0  0
 11 12  1  0  0  0
 11 98  1  0  0  0
 12 13  2  0  0  0
 12 99  1  0  0  0
 13 14  1  0  0  0
 13 31  1  0  0  0
 14 15  2  0  0  0
 14100  1  0  0  0
 15101  1  0  0  0
 16 17  2  0  0  0
 16 21  1  0  0  0
 16 31  1  0  0  0
 17 18  1  0  0  0
 17102  1  0  0  0
 18 19  2  0  0  0
 18103  1  0  0  0
 19 20  1  0  0  0
 19 24  1  0  0  0
 20 21  2  0  0  0
 20104  1  0  0  0
 21 23  1  0  0  0
 22 28  1  0  0  0
 22 32  2  0  0  0
 26 27  1  0  0  0
 28105  1  0  0  0
 28106  1  0  0  0
 29107  1  0  0  0
 29108  1  0  0  0
 33 34  1  0  0  0
 33 66  1  0  0  0
 33 70  2  0  0  0
 34 36  1  0  0  0
 34 59  1  0  0  0
 34109  1  0  0  0
 35 44  2  0  0  0
 35 45  1  0  0  0
 35 68  1  0  0  0
 36 56  1  0  0  0
 36110  1  0  0  0
 37 39  1  0  0  0
 37 47  1  0  0  0
 37 66  1  0  0  0
 37111  1  0  0  0
 38 43  2  0  0  0
 38 46  1  0  0  0
 38 47  1  0  0  0
 39 64  1  0  0  0
 39 67  2  0  0  0
 40 52  1  0  0  0
 40 53  2  0  0  0
 40 58  1  0  0  0
 41112  1  0  0  0
 41113  1  0  0  0
 41114  1  0  0  0
 41 48  1  0  0  0
 42 43  1  0  0  0
 42 66  1  0  0  0
 42115  1  0  0  0
 42116  1  0  0  0
 43 44  1  0  0  0
 44117  1  0  0  0
 45 46  2  0  0  0
 45118  1  0  0  0
 46119  1  0  0  0
 47120  1  0  0  0
 47121  1  0  0  0
 48 56  1  0  0  0
 48 65  1  0  0  0
 48122  1  0  0  0
 49 50  1  0  0  0
 49 53  1  0  0  0
 49 64  1  0  0  0
 49123  1  0  0  0
 50 51  1  0  0  0
 50124  1  0  0  0
 50125  1  0  0  0
 51 52  1  0  0  0
 51126  1  0  0  0
 51127  1  0  0  0
 52128  1  0  0  0
 52129  1  0  0  0
 53 54  1  0  0  0
 54 55  2  0  0  0
 54130  1  0  0  0
 55 57  1  0  0  0
 55131  1  0  0  0
 56 69  2  0  0  0
 57 58  2  0  0  0
 57132  1  0  0  0
 58133  1  0  0  0
 59 60  1  0  0  0
 59 61  1  0  0  0
 59 62  1  0  0  0
 60134  1  0  0  0
 60135  1  0  0  0
 60136  1  0  0  0
 61137  1  0  0  0
 61138  1  0  0  0
 61139  1  0  0  0
 62140  1  0  0  0
 62141  1  0  0  0
 62142  1  0  0  0
 63 65  1  0  0  0
 63143  1  0  0  0
 63144  1  0  0  0
 63145  1  0  0  0
 64146  1  0  0  0
 65147  1  0  0  0
 68 85  1  0  0  0
 71 72  2  0  0  0
 71 73  1  0  0  0
 71148  1  0  0  0
 72 75  1  0  0  0
 72149  1  0  0  0
 73 76  2  0  0  0
 73150  1  0  0  0
 74 75  2  0  0  0
 74 76  1  0  0  0
 74 81  1  0  0  0
 75 86  1  0  0  0
 76 88  1  0  0  0
 77 82  1  0  0  0
 77 83  1  0  0  0
 77 87  2  0  0  0
 78 81  1  0  0  0
 78151  1  0  0  0
 78152  1  0  0  0
 78153  1  0  0  0
 79154  1  0  0  0
 79155  1  0  0  0
 79156  1  0  0  0
 79 85  1  0  0  0
 80 85  1  0  0  0
 80157  1  0  0  0
 80158  1  0  0  0
 80159  1  0  0  0
 81160  1  0  0  0
 81161  1  0  0  0
 82 84  1  0  0  0
 82162  1  0  0  0
 82163  1  0  0  0
 83 88  1  0  0  0
 83164  1  0  0  0
 83165  1  0  0  0
 84 85  1  0  0  0
 84166  1  0  0  0
 84167  1  0  0  0
 86168  1  0  0  0
M  ISO  4   1 100  68 101  85 101  86 100
M  END
> <chiral flag>
0

> <version>
0

> <s_m_source_file>
/data/baiqing/PycharmProjects/Reinvent-master-3.2/result/LINK_invent/BTK/process_docking_weight1_custom_product_contain_oxygen_bond_distance_aromatic_linkinvent_7_9_3/rearranged_h_0136.sdf

> <i_m_source_file_index>
75

> <r_mmod_Potential_Energy-OPLS-2005>
-70.3039703369141

> <r_mmod_Stretch_Energy-OPLS-2005>
34.4120750427246

> <r_mmod_Bend_Energy-OPLS-2005>
103.366188049316

> <r_mmod_Torsional_Energy-OPLS-2005>
245.745391845703

> <r_mmod_Improper_Torsional_Energy-OPLS-2005>
2.58398747444153

> <r_mmod_Van_der_Waal_Energy-OPLS-2005>
154.714645385742

> <r_mmod_Electrostatic_Energy-OPLS-2005>
-396.737152099609

> <r_mmod_Solvation_Energy-OPLS-2005>
-220.622009277344

> <b_mmod_Minimization_Converged-OPLS-2005>
0

> <r_mmod_RMS_Derivative-OPLS-2005>
1.06717550754547

$$$$
75
                    3D
 Structure written by MMmdl.
159167  0  0  1  0            999 V2000
  -30.6047  -14.7119   20.4888 C   0  0  0  0  0  0
  -30.4338  -12.4382   19.4629 C   0  0  0  0  0  0
  -29.5029  -12.5019   18.2317 C   0  0  0  0  0  0
  -28.0300  -12.3251   18.6504 C   0  0  0  0  0  0
  -27.6408  -13.2218   19.8540 C   0  0  2  0  0  0
  -28.6877  -13.1314   20.9857 C   0  0  0  0  0  0
  -25.2488  -13.8175   20.5682 C   0  0  0  0  0  0
  -24.1775  -13.0429   20.9231 C   0  0  0  0  0  0
  -24.6360  -11.6914   20.8769 C   0  0  0  0  0  0
  -23.9040  -10.4284   21.0410 C   0  0  0  0  0  0
  -24.3603   -9.4205   21.9190 C   0  0  0  0  0  0
  -23.6285   -8.2239   22.0750 C   0  0  0  0  0  0
  -22.4268   -8.0273   21.3541 C   0  0  0  0  0  0
  -21.9904   -9.0245   20.4648 C   0  0  0  0  0  0
  -22.7214  -10.2130   20.3060 C   0  0  0  0  0  0
  -21.6849   -6.0732   22.5277 C   0  0  0  0  0  0
  -21.4015   -6.5636   23.8206 C   0  0  0  0  0  0
  -21.3662   -5.6794   24.9168 C   0  0  0  0  0  0
  -21.6044   -4.3052   24.7228 C   0  0  0  0  0  0
  -21.8818   -3.8147   23.4342 C   0  0  0  0  0  0
  -21.9192   -4.6965   22.3399 C   0  0  0  0  0  0
  -22.7809  -13.5222   21.1901 C   0  0  0  0  0  0
  -22.1662   -4.2151   21.0979 F   0  0  0  0  0  0
  -21.5629   -3.4536   25.7735 F   0  0  0  0  0  0
  -29.9893  -13.4851   20.4067 N   0  0  0  0  0  0
  -26.2916  -12.9368   20.3301 N   0  0  0  0  0  0
  -25.9285  -11.6523   20.5796 N   0  0  0  0  0  0
  -22.0473  -12.8196   22.0464 N   0  0  0  0  0  0
  -25.4180  -15.1900   20.4063 N   0  0  0  0  0  0
  -31.8001  -14.8282   20.2036 O   0  0  0  0  0  0
  -21.6630   -6.8868   21.4233 O   0  0  0  0  0  0
  -22.3495  -14.5536   20.6753 O   0  0  0  0  0  0
  -24.6293  -31.8579   23.2013 C   0  0  0  0  0  0
  -25.9131  -32.4765   23.8344 C   0  0  1  0  0  0
  -27.2169  -27.2837   20.1354 C   0  0  0  0  0  0
  -25.5952  -33.8565   24.2274 N   0  0  0  0  0  0
  -23.4239  -30.4821   21.5442 C   0  0  2  0  0  0
  -24.8702  -28.9343   20.1107 C   0  0  0  0  0  0
  -22.7477  -29.4640   22.4923 C   0  0  0  0  0  0
  -18.0320  -28.1372   22.8461 C   0  0  0  0  0  0
  -24.1501  -36.7280   23.2635 C   0  0  0  0  0  0
  -25.9684  -30.7787   21.3780 C   0  0  0  0  0  0
  -26.0412  -29.4035   20.7207 C   0  0  0  0  0  0
  -27.2180  -28.5905   20.7214 C   0  0  0  0  0  0
  -26.0317  -26.8882   19.4761 C   0  0  0  0  0  0
  -24.8703  -27.6835   19.4768 C   0  0  0  0  0  0
  -23.6390  -29.8184   20.1598 C   0  0  0  0  0  0
  -25.4124  -36.3063   24.0321 C   0  0  1  0  0  0
  -20.5895  -28.3715   23.1272 C   0  0  2  0  0  0
  -20.6827  -26.9450   22.5413 C   0  0  0  0  0  0
  -19.5814  -26.6312   21.5237 C   0  0  0  0  0  0
  -18.1997  -26.7887   22.1656 C   0  0  0  0  0  0
  -19.1557  -28.8866   23.2843 C   0  0  0  0  0  0
  -18.9468  -30.1462   23.8876 C   0  0  0  0  0  0
  -17.6474  -30.6595   24.0532 C   0  0  0  0  0  0
  -25.9064  -34.9442   23.5095 C   0  0  0  0  0  0
  -16.5371  -29.9077   23.6308 C   0  0  0  0  0  0
  -16.7305  -28.6488   23.0336 C   0  0  0  0  0  0
  -26.4508  -31.6569   25.0720 C   0  0  0  0  0  0
  -25.3736  -31.3735   26.1449 C   0  0  0  0  0  0
  -27.0366  -30.2993   24.6179 C   0  0  0  0  0  0
  -27.6061  -32.4309   25.7501 C   0  0  0  0  0  0
  -27.5576  -37.1796   24.8460 C   0  0  0  0  0  0
  -21.4191  -29.3049   22.3653 N   0  0  0  0  0  0
  -26.4295  -37.3759   23.9398 N   0  0  0  0  0  0
  -24.6925  -31.0570   22.0983 N   0  0  0  0  0  0
  -23.4190  -28.8195   23.3029 O   0  0  0  0  0  0
  -28.3118  -26.3959   20.1796 O   0  0  0  0  0  0
  -26.5624  -34.8916   22.4663 O   0  0  0  0  0  0
  -23.5452  -32.1389   23.7336 O   0  0  0  0  0  0
  -29.3936  -18.3034   20.2184 C   0  0  0  0  0  0
  -30.9560  -19.4605   21.4557 C   0  0  0  0  0  0
  -29.9214  -19.6323   20.5662 C   0  0  0  0  0  0
  -30.0570  -17.1808   20.7494 C   0  0  0  0  0  0
  -29.2152  -23.8292   18.6012 C   0  0  0  0  0  0
  -28.9079  -22.1591   22.1591 C   0  0  0  0  0  0
  -27.2348  -21.8964   20.3396 C   0  0  0  0  0  0
  -29.5776  -21.0417   19.9323 C   0  0  0  0  0  0
  -28.0447  -24.9662   20.5538 C   0  0  0  0  0  0
  -29.0348  -23.7599   20.1292 C   0  0  1  0  0  0
  -28.7159  -22.2268   20.6303 C   0  0  0  0  0  0
  -29.7788  -15.8149   20.6134 N   0  0  0  0  0  0
  -31.3405  -17.7752   21.7780 S   0  0  0  0  0  0
  -31.4731  -12.5737   19.1612 H   0  0  0  0  0  0
  -30.3872  -11.4552   19.9346 H   0  0  0  0  0  0
  -29.7784  -11.7367   17.5059 H   0  0  0  0  0  0
  -29.6256  -13.4623   17.7272 H   0  0  0  0  0  0
  -27.8884  -11.2771   18.9166 H   0  0  0  0  0  0
  -27.3650  -12.5140   17.8058 H   0  0  0  0  0  0
  -27.6379  -14.2455   19.4793 H   0  0  0  0  0  0
  -28.7177  -12.1219   21.4025 H   0  0  0  0  0  0
  -28.4326  -13.7941   21.8138 H   0  0  0  0  0  0
  -25.2747   -9.5680   22.4763 H   0  0  0  0  0  0
  -23.9995   -7.4624   22.7467 H   0  0  0  0  0  0
  -21.0838   -8.8755   19.8948 H   0  0  0  0  0  0
  -22.3668  -10.9670   19.6174 H   0  0  0  0  0  0
  -21.2007   -7.6147   23.9705 H   0  0  0  0  0  0
  -21.1490   -6.0530   25.9069 H   0  0  0  0  0  0
  -22.0596   -2.7614   23.2844 H   0  0  0  0  0  0
  -22.4088  -11.9832   22.4808 H   0  0  0  0  0  0
  -21.1107  -13.1222   22.2716 H   0  0  0  0  0  0
  -24.6483  -15.8416   20.5141 H   0  0  0  0  0  0
  -26.2562  -15.6288   20.0504 H   0  0  0  0  0  0
  -26.7200  -32.5407   23.1088 H   0  0  0  0  0  0
  -25.0081  -33.9718   25.0402 H   0  0  0  0  0  0
  -22.7181  -31.3031   21.4012 H   0  0  0  0  0  0
  -23.3767  -35.9611   23.3298 H   0  0  0  0  0  0
  -24.3581  -36.8899   22.2047 H   0  0  0  0  0  0
  -23.7273  -37.6486   23.6664 H   0  0  0  0  0  0
  -26.1070  -31.5422   20.6108 H   0  0  0  0  0  0
  -26.8476  -30.8236   22.0098 H   0  0  0  0  0  0
  -28.1133  -28.9459   21.2117 H   0  0  0  0  0  0
  -25.9835  -25.9458   18.9516 H   0  0  0  0  0  0
  -23.9778  -27.3219   18.9848 H   0  0  0  0  0  0
  -23.7614  -30.5974   19.4064 H   0  0  0  0  0  0
  -22.7560  -29.2528   19.8561 H   0  0  0  0  0  0
  -25.1322  -36.1892   25.0813 H   0  0  0  0  0  0
  -20.9956  -28.3327   24.1413 H   0  0  0  0  0  0
  -20.5788  -26.2350   23.3632 H   0  0  0  0  0  0
  -21.6706  -26.7510   22.1215 H   0  0  0  0  0  0
  -19.7042  -25.6186   21.1389 H   0  0  0  0  0  0
  -19.6728  -27.3044   20.6702 H   0  0  0  0  0  0
  -18.0427  -26.0042   22.9084 H   0  0  0  0  0  0
  -17.4277  -26.6548   21.4064 H   0  0  0  0  0  0
  -19.7946  -30.7267   24.2256 H   0  0  0  0  0  0
  -17.5029  -31.6279   24.5106 H   0  0  0  0  0  0
  -15.5375  -30.2968   23.7634 H   0  0  0  0  0  0
  -15.8700  -28.0798   22.7067 H   0  0  0  0  0  0
  -24.5908  -30.7073   25.7799 H   0  0  0  0  0  0
  -24.8937  -32.2922   26.4838 H   0  0  0  0  0  0
  -25.8059  -30.8943   27.0237 H   0  0  0  0  0  0
  -26.2953  -29.6734   24.1197 H   0  0  0  0  0  0
  -27.4072  -29.7251   25.4675 H   0  0  0  0  0  0
  -27.8811  -30.4302   23.9411 H   0  0  0  0  0  0
  -27.2657  -33.3611   26.2074 H   0  0  0  0  0  0
  -28.3887  -32.6860   25.0338 H   0  0  0  0  0  0
  -28.0714  -31.8424   26.5422 H   0  0  0  0  0  0
  -28.2599  -38.0086   24.7505 H   0  0  0  0  0  0
  -28.1070  -36.2619   24.6302 H   0  0  0  0  0  0
  -27.2284  -37.1460   25.8859 H   0  0  0  0  0  0
  -20.9373  -29.8700   21.6801 H   0  0  0  0  0  0
  -26.0165  -38.2826   24.1397 H   0  0  0  0  0  0
  -28.5629  -18.2193   19.5302 H   0  0  0  0  0  0
  -31.5769  -20.2281   21.9045 H   0  0  0  0  0  0
  -29.4905  -24.8390   18.2942 H   0  0  0  0  0  0
  -28.2963  -23.5684   18.0775 H   0  0  0  0  0  0
  -30.0065  -23.1702   18.2462 H   0  0  0  0  0  0
  -28.6653  -21.1708   22.5525 H   0  0  0  0  0  0
  -28.2665  -22.8709   22.6774 H   0  0  0  0  0  0
  -29.9365  -22.3807   22.4455 H   0  0  0  0  0  0
  -27.0122  -20.8557   20.5787 H   0  0  0  0  0  0
  -26.9835  -22.0438   19.2892 H   0  0  0  0  0  0
  -26.5530  -22.5076   20.9310 H   0  0  0  0  0  0
  -29.1611  -20.8703   18.9391 H   0  0  0  0  0  0
  -30.5464  -21.4948   19.7170 H   0  0  0  0  0  0
  -27.9600  -24.9666   21.6406 H   0  0  0  0  0  0
  -27.0593  -24.6672   20.2097 H   0  0  0  0  0  0
  -30.0092  -24.0162   20.5489 H   0  0  0  0  0  0
  -28.7985  -15.5807   20.6033 H   0  0  0  0  0  0
  1 25  1  0  0  0
  1 30  2  0  0  0
  1 82  1  0  0  0
  2  3  1  0  0  0
  2 25  1  0  0  0
  2 84  1  0  0  0
  2 85  1  0  0  0
  3  4  1  0  0  0
  3 86  1  0  0  0
  3 87  1  0  0  0
  4  5  1  0  0  0
  4 88  1  0  0  0
  4 89  1  0  0  0
  5  6  1  0  0  0
  5 26  1  0  0  0
  5 90  1  0  0  0
  6 25  1  0  0  0
  6 91  1  0  0  0
  6 92  1  0  0  0
  7  8  2  0  0  0
  7 26  1  0  0  0
  7 29  1  0  0  0
  8  9  1  0  0  0
  8 22  1  0  0  0
  9 10  1  0  0  0
  9 27  2  0  0  0
 10 11  2  0  0  0
 10 15  1  0  0  0
 11 12  1  0  0  0
 11 93  1  0  0  0
 12 13  2  0  0  0
 12 94  1  0  0  0
 13 14  1  0  0  0
 13 31  1  0  0  0
 14 15  2  0  0  0
 14 95  1  0  0  0
 15 96  1  0  0  0
 16 17  2  0  0  0
 16 21  1  0  0  0
 16 31  1  0  0  0
 17 18  1  0  0  0
 17 97  1  0  0  0
 18 19  2  0  0  0
 18 98  1  0  0  0
 19 20  1  0  0  0
 19 24  1  0  0  0
 20 21  2  0  0  0
 20 99  1  0  0  0
 21 23  1  0  0  0
 22 28  1  0  0  0
 22 32  2  0  0  0
 26 27  1  0  0  0
 28100  1  0  0  0
 28101  1  0  0  0
 29102  1  0  0  0
 29103  1  0  0  0
 33 34  1  0  0  0
 33 66  1  0  0  0
 33 70  2  0  0  0
 34 36  1  0  0  0
 34 59  1  0  0  0
 34104  1  0  0  0
 35 44  2  0  0  0
 35 45  1  0  0  0
 35 68  1  0  0  0
 36 56  1  0  0  0
 36105  1  0  0  0
 37 39  1  0  0  0
 37 47  1  0  0  0
 37 66  1  0  0  0
 37106  1  0  0  0
 38 43  2  0  0  0
 38 46  1  0  0  0
 38 47  1  0  0  0
 39 64  1  0  0  0
 39 67  2  0  0  0
 40 52  1  0  0  0
 40 53  2  0  0  0
 40 58  1  0  0  0
 41107  1  0  0  0
 41108  1  0  0  0
 41109  1  0  0  0
 41 48  1  0  0  0
 42 43  1  0  0  0
 42 66  1  0  0  0
 42110  1  0  0  0
 42111  1  0  0  0
 43 44  1  0  0  0
 44112  1  0  0  0
 45 46  2  0  0  0
 45113  1  0  0  0
 46114  1  0  0  0
 47115  1  0  0  0
 47116  1  0  0  0
 48 56  1  0  0  0
 48 65  1  0  0  0
 48117  1  0  0  0
 49 50  1  0  0  0
 49 53  1  0  0  0
 49 64  1  0  0  0
 49118  1  0  0  0
 50 51  1  0  0  0
 50119  1  0  0  0
 50120  1  0  0  0
 51 52  1  0  0  0
 51121  1  0  0  0
 51122  1  0  0  0
 52123  1  0  0  0
 52124  1  0  0  0
 53 54  1  0  0  0
 54 55  2  0  0  0
 54125  1  0  0  0
 55 57  1  0  0  0
 55126  1  0  0  0
 56 69  2  0  0  0
 57 58  2  0  0  0
 57127  1  0  0  0
 58128  1  0  0  0
 59 60  1  0  0  0
 59 61  1  0  0  0
 59 62  1  0  0  0
 60129  1  0  0  0
 60130  1  0  0  0
 60131  1  0  0  0
 61132  1  0  0  0
 61133  1  0  0  0
 61134  1  0  0  0
 62135  1  0  0  0
 62136  1  0  0  0
 62137  1  0  0  0
 63 65  1  0  0  0
 63138  1  0  0  0
 63139  1  0  0  0
 63140  1  0  0  0
 64141  1  0  0  0
 65142  1  0  0  0
 68 79  1  0  0  0
 71 73  1  0  0  0
 71 74  2  0  0  0
 71143  1  0  0  0
 72 73  2  0  0  0
 72 83  1  0  0  0
 72144  1  0  0  0
 73 78  1  0  0  0
 74 82  1  0  0  0
 74 83  1  0  0  0
 75145  1  0  0  0
 75146  1  0  0  0
 75147  1  0  0  0
 75 80  1  0  0  0
 76148  1  0  0  0
 76149  1  0  0  0
 76150  1  0  0  0
 76 81  1  0  0  0
 77 81  1  0  0  0
 77151  1  0  0  0
 77152  1  0  0  0
 77153  1  0  0  0
 78 81  1  0  0  0
 78154  1  0  0  0
 78155  1  0  0  0
 79 80  1  0  0  0
 79156  1  0  0  0
 79157  1  0  0  0
 80 81  1  0  0  0
 80158  1  0  0  0
 82159  1  0  0  0
M  ISO  4   1 100  68 101  79 101  82 100
M  END
> <chiral flag>
0

> <version>
0

> <s_m_source_file>
/data/baiqing/PycharmProjects/Reinvent-master-3.2/result/LINK_invent/BTK/process_docking_weight1_custom_product_contain_oxygen_bond_distance_aromatic_linkinvent_7_9_3/rearranged_h_0136.sdf

> <i_m_source_file_index>
76

> <r_mmod_Potential_Energy-OPLS-2005>
166.662490844727

> <r_mmod_Stretch_Energy-OPLS-2005>
112.68904876709

> <r_mmod_Bend_Energy-OPLS-2005>
169.188934326172

> <r_mmod_Torsional_Energy-OPLS-2005>
250.332092285156

> <r_mmod_Improper_Torsional_Energy-OPLS-2005>
7.9105281829834

> <r_mmod_Van_der_Waal_Energy-OPLS-2005>
119.663719177246

> <r_mmod_Electrostatic_Energy-OPLS-2005>
-363.017059326172

> <r_mmod_Solvation_Energy-OPLS-2005>
-203.700836181641

> <b_mmod_Minimization_Converged-OPLS-2005>
0

> <r_mmod_RMS_Derivative-OPLS-2005>
2.70185089111328

$$$$
76
                    3D
 Structure written by MMmdl.
165173  0  0  1  0            999 V2000
  -30.6832  -14.4312   20.5154 C   0  0  0  0  0  0
  -30.4259  -12.2639   19.4121 C   0  0  0  0  0  0
  -29.4950  -12.4736   18.1978 C   0  0  0  0  0  0
  -28.0119  -12.3604   18.6087 C   0  0  0  0  0  0
  -27.6648  -13.1901   19.8741 C   0  0  2  0  0  0
  -28.7081  -12.9470   20.9902 C   0  0  0  0  0  0
  -25.2634  -13.8114   20.5640 C   0  0  0  0  0  0
  -24.1853  -13.0427   20.9137 C   0  0  0  0  0  0
  -24.6373  -11.6875   20.8708 C   0  0  0  0  0  0
  -23.9022  -10.4274   21.0388 C   0  0  0  0  0  0
  -24.3571   -9.4195   21.9172 C   0  0  0  0  0  0
  -23.6252   -8.2223   22.0738 C   0  0  0  0  0  0
  -22.4231   -8.0265   21.3537 C   0  0  0  0  0  0
  -21.9872   -9.0243   20.4644 C   0  0  0  0  0  0
  -22.7199  -10.2108   20.3051 C   0  0  0  0  0  0
  -21.6866   -6.0717   22.5271 C   0  0  0  0  0  0
  -21.4039   -6.5624   23.8194 C   0  0  0  0  0  0
  -21.3645   -5.6770   24.9155 C   0  0  0  0  0  0
  -21.6019   -4.3039   24.7211 C   0  0  0  0  0  0
  -21.8827   -3.8134   23.4341 C   0  0  0  0  0  0
  -21.9199   -4.6944   22.3396 C   0  0  0  0  0  0
  -22.7884  -13.5252   21.1802 C   0  0  0  0  0  0
  -22.1663   -4.2137   21.0974 F   0  0  0  0  0  0
  -21.5609   -3.4517   25.7726 F   0  0  0  0  0  0
  -30.0412  -13.2397   20.4374 N   0  0  0  0  0  0
  -26.3035  -12.9240   20.3330 N   0  0  0  0  0  0
  -25.9295  -11.6420   20.5721 N   0  0  0  0  0  0
  -22.0513  -12.8251   22.0352 N   0  0  0  0  0  0
  -25.4428  -15.1814   20.4035 N   0  0  0  0  0  0
  -31.8380  -14.6192   20.1218 O   0  0  0  0  0  0
  -21.6620   -6.8857   21.4228 O   0  0  0  0  0  0
  -22.3579  -14.5567   20.6659 O   0  0  0  0  0  0
  -24.6123  -31.8695   23.2117 C   0  0  0  0  0  0
  -25.9029  -32.4831   23.8403 C   0  0  1  0  0  0
  -27.2452  -27.4684   20.0796 C   0  0  0  0  0  0
  -25.5890  -33.8628   24.2330 N   0  0  0  0  0  0
  -23.3986  -30.4902   21.5537 C   0  0  2  0  0  0
  -24.8440  -28.9574   20.1192 C   0  0  0  0  0  0
  -22.7405  -29.4645   22.5032 C   0  0  0  0  0  0
  -18.0266  -28.1381   22.8491 C   0  0  0  0  0  0
  -24.1488  -36.7317   23.2631 C   0  0  0  0  0  0
  -25.9224  -30.8425   21.3601 C   0  0  0  0  0  0
  -25.9999  -29.4763   20.7146 C   0  0  0  0  0  0
  -27.1973  -28.7334   20.7017 C   0  0  0  0  0  0
  -26.0677  -26.9506   19.4892 C   0  0  0  0  0  0
  -24.8700  -27.6899   19.5110 C   0  0  0  0  0  0
  -23.6046  -29.8191   20.1693 C   0  0  0  0  0  0
  -25.4105  -36.3113   24.0333 C   0  0  1  0  0  0
  -20.5852  -28.3657   23.1343 C   0  0  2  0  0  0
  -20.6764  -26.9401   22.5426 C   0  0  0  0  0  0
  -19.5740  -26.6393   21.5218 C   0  0  0  0  0  0
  -18.1914  -26.7931   22.1623 C   0  0  0  0  0  0
  -19.1515  -28.8839   23.2909 C   0  0  0  0  0  0
  -18.9442  -30.1450   23.8920 C   0  0  0  0  0  0
  -17.6441  -30.6588   24.0570 C   0  0  0  0  0  0
  -25.9031  -34.9480   23.5129 C   0  0  0  0  0  0
  -16.5335  -29.9093   23.6323 C   0  0  0  0  0  0
  -16.7252  -28.6509   23.0342 C   0  0  0  0  0  0
  -26.4466  -31.6601   25.0718 C   0  0  0  0  0  0
  -25.3742  -31.3707   26.1476 C   0  0  0  0  0  0
  -27.0266  -30.3049   24.6047 C   0  0  0  0  0  0
  -27.6053  -32.4316   25.7468 C   0  0  0  0  0  0
  -27.5577  -37.1813   24.8459 C   0  0  0  0  0  0
  -21.4136  -29.3022   22.3766 N   0  0  0  0  0  0
  -26.4294  -37.3795   23.9400 N   0  0  0  0  0  0
  -24.6626  -31.0817   22.1008 N   0  0  0  0  0  0
  -23.4185  -28.8190   23.3070 O   0  0  0  0  0  0
  -28.4495  -26.8036   20.0805 O   0  0  0  0  0  0
  -26.5595  -34.8926   22.4689 O   0  0  0  0  0  0
  -23.5327  -32.1437   23.7532 O   0  0  0  0  0  0
  -29.7307  -18.9253   18.4038 C   0  0  0  0  0  0
  -30.1967  -17.8722   20.5633 C   0  0  0  0  0  0
  -29.3694  -16.5394   18.6923 C   0  0  0  0  0  0
  -30.1725  -19.0205   19.7441 C   0  0  0  0  0  0
  -29.3253  -17.6868   17.8781 C   0  0  0  0  0  0
  -29.8246  -16.6218   20.0312 C   0  0  0  0  0  0
  -30.5215  -24.3103   18.2899 C   0  0  0  0  0  0
  -30.5735  -20.3476   20.2992 C   0  0  0  0  0  0
  -31.2934  -23.2008   18.3432 C   0  0  0  0  0  0
  -29.9825  -25.0504   19.4411 C   0  0  0  0  0  0
  -31.7793  -22.5729   17.0412 C   0  0  0  0  0  0
  -33.2173  -22.6206   19.9110 C   0  0  0  0  0  0
  -28.5710  -25.6242   19.2918 C   0  0  0  0  0  0
  -31.7154  -22.4678   19.6236 C   0  0  2  0  0  0
  -28.8811  -17.6037   16.5585 N   0  0  0  0  0  0
  -29.8880  -15.4594   20.8397 N   0  0  0  0  0  0
  -31.3677  -21.0595   19.4930 N   0  0  0  0  0  0
  -30.1887  -20.7241   21.4082 O   0  0  0  0  0  0
  -30.6209  -25.2536   20.4814 O   0  0  0  0  0  0
  -31.4717  -12.3618   19.1118 H   0  0  0  0  0  0
  -30.3184  -11.2524   19.8047 H   0  0  0  0  0  0
  -29.7178  -11.7353   17.4266 H   0  0  0  0  0  0
  -29.6818  -13.4472   17.7426 H   0  0  0  0  0  0
  -27.8016  -11.3047   18.7883 H   0  0  0  0  0  0
  -27.3687  -12.6582   17.7789 H   0  0  0  0  0  0
  -27.7098  -14.2376   19.5831 H   0  0  0  0  0  0
  -28.6727  -11.9053   21.3125 H   0  0  0  0  0  0
  -28.4885  -13.5403   21.8800 H   0  0  0  0  0  0
  -25.2713   -9.5661   22.4735 H   0  0  0  0  0  0
  -23.9966   -7.4616   22.7454 H   0  0  0  0  0  0
  -21.0796   -8.8752   19.8955 H   0  0  0  0  0  0
  -22.3666  -10.9628   19.6133 H   0  0  0  0  0  0
  -21.2061   -7.6136   23.9703 H   0  0  0  0  0  0
  -21.1447   -6.0500   25.9048 H   0  0  0  0  0  0
  -22.0632   -2.7600   23.2850 H   0  0  0  0  0  0
  -22.4100  -11.9905   22.4742 H   0  0  0  0  0  0
  -21.1138  -13.1303   22.2542 H   0  0  0  0  0  0
  -24.6849  -15.8470   20.5158 H   0  0  0  0  0  0
  -26.2953  -15.6101   20.0683 H   0  0  0  0  0  0
  -26.7099  -32.5560   23.1172 H   0  0  0  0  0  0
  -25.0044  -33.9790   25.0481 H   0  0  0  0  0  0
  -22.6854  -31.3050   21.4159 H   0  0  0  0  0  0
  -23.3741  -35.9659   23.3312 H   0  0  0  0  0  0
  -24.3582  -36.8914   22.2041 H   0  0  0  0  0  0
  -23.7266  -37.6534   23.6641 H   0  0  0  0  0  0
  -26.0251  -31.6042   20.5864 H   0  0  0  0  0  0
  -26.8157  -30.9050   21.9699 H   0  0  0  0  0  0
  -28.0928  -29.1319   21.1583 H   0  0  0  0  0  0
  -26.0513  -25.9840   19.0075 H   0  0  0  0  0  0
  -23.9786  -27.2817   19.0555 H   0  0  0  0  0  0
  -23.7081  -30.5904   19.4052 H   0  0  0  0  0  0
  -22.7303  -29.2335   19.8791 H   0  0  0  0  0  0
  -25.1287  -36.1971   25.0828 H   0  0  0  0  0  0
  -20.9923  -28.3214   24.1471 H   0  0  0  0  0  0
  -20.5689  -26.2252   23.3599 H   0  0  0  0  0  0
  -21.6637  -26.7467   22.1210 H   0  0  0  0  0  0
  -19.6904  -25.6313   21.1229 H   0  0  0  0  0  0
  -19.6674  -27.3220   20.6760 H   0  0  0  0  0  0
  -17.4186  -26.6684   21.4021 H   0  0  0  0  0  0
  -18.0298  -26.0075   22.9017 H   0  0  0  0  0  0
  -19.7914  -30.7263   24.2301 H   0  0  0  0  0  0
  -17.4995  -31.6268   24.5169 H   0  0  0  0  0  0
  -15.5337  -30.2999   23.7635 H   0  0  0  0  0  0
  -15.8651  -28.0838   22.7051 H   0  0  0  0  0  0
  -24.5882  -30.7086   25.7818 H   0  0  0  0  0  0
  -24.8967  -32.2867   26.4972 H   0  0  0  0  0  0
  -25.8101  -30.8830   27.0208 H   0  0  0  0  0  0
  -26.2772  -29.6839   24.1121 H   0  0  0  0  0  0
  -27.4070  -29.7253   25.4468 H   0  0  0  0  0  0
  -27.8600  -30.4373   23.9145 H   0  0  0  0  0  0
  -27.2692  -33.3626   26.2053 H   0  0  0  0  0  0
  -28.3852  -32.6867   25.0279 H   0  0  0  0  0  0
  -28.0732  -31.8437   26.5378 H   0  0  0  0  0  0
  -28.2604  -38.0101   24.7499 H   0  0  0  0  0  0
  -28.1064  -36.2636   24.6290 H   0  0  0  0  0  0
  -27.2296  -37.1476   25.8862 H   0  0  0  0  0  0
  -20.9309  -29.8717   21.6962 H   0  0  0  0  0  0
  -26.0178  -38.2869   24.1404 H   0  0  0  0  0  0
  -29.6847  -19.8136   17.7871 H   0  0  0  0  0  0
  -30.5245  -17.9526   21.5905 H   0  0  0  0  0  0
  -29.0605  -15.5897   18.2815 H   0  0  0  0  0  0
  -30.2604  -24.7144   17.3232 H   0  0  0  0  0  0
  -31.4763  -23.1658   16.1775 H   0  0  0  0  0  0
  -31.3666  -21.5741   16.9007 H   0  0  0  0  0  0
  -32.8662  -22.5029   17.0197 H   0  0  0  0  0  0
  -33.4928  -23.6735   19.9874 H   0  0  0  0  0  0
  -33.8315  -22.1723   19.1298 H   0  0  0  0  0  0
  -33.4875  -22.1459   20.8553 H   0  0  0  0  0  0
  -27.8561  -24.8685   19.6196 H   0  0  0  0  0  0
  -28.3759  -25.8508   18.2424 H   0  0  0  0  0  0
  -31.1824  -22.8675   20.4846 H   0  0  0  0  0  0
  -29.0446  -18.3744   15.9173 H   0  0  0  0  0  0
  -28.8091  -16.7018   16.0956 H   0  0  0  0  0  0
  -29.0108  -15.1748   21.2464 H   0  0  0  0  0  0
  -31.6586  -20.5993   18.6418 H   0  0  0  0  0  0
  1 25  1  0  0  0
  1 30  2  0  0  0
  1 86  1  0  0  0
  2  3  1  0  0  0
  2 25  1  0  0  0
  2 90  1  0  0  0
  2 91  1  0  0  0
  3  4  1  0  0  0
  3 92  1  0  0  0
  3 93  1  0  0  0
  4  5  1  0  0  0
  4 94  1  0  0  0
  4 95  1  0  0  0
  5  6  1  0  0  0
  5 26  1  0  0  0
  5 96  1  0  0  0
  6 25  1  0  0  0
  6 97  1  0  0  0
  6 98  1  0  0  0
  7  8  2  0  0  0
  7 26  1  0  0  0
  7 29  1  0  0  0
  8  9  1  0  0  0
  8 22  1  0  0  0
  9 10  1  0  0  0
  9 27  2  0  0  0
 10 11  2  0  0  0
 10 15  1  0  0  0
 11 12  1  0  0  0
 11 99  1  0  0  0
 12 13  2  0  0  0
 12100  1  0  0  0
 13 14  1  0  0  0
 13 31  1  0  0  0
 14 15  2  0  0  0
 14101  1  0  0  0
 15102  1  0  0  0
 16 17  2  0  0  0
 16 21  1  0  0  0
 16 31  1  0  0  0
 17 18  1  0  0  0
 17103  1  0  0  0
 18 19  2  0  0  0
 18104  1  0  0  0
 19 20  1  0  0  0
 19 24  1  0  0  0
 20 21  2  0  0  0
 20105  1  0  0  0
 21 23  1  0  0  0
 22 28  1  0  0  0
 22 32  2  0  0  0
 26 27  1  0  0  0
 28106  1  0  0  0
 28107  1  0  0  0
 29108  1  0  0  0
 29109  1  0  0  0
 33 34  1  0  0  0
 33 66  1  0  0  0
 33 70  2  0  0  0
 34 36  1  0  0  0
 34 59  1  0  0  0
 34110  1  0  0  0
 35 44  2  0  0  0
 35 45  1  0  0  0
 35 68  1  0  0  0
 36 56  1  0  0  0
 36111  1  0  0  0
 37 39  1  0  0  0
 37 47  1  0  0  0
 37 66  1  0  0  0
 37112  1  0  0  0
 38 43  2  0  0  0
 38 46  1  0  0  0
 38 47  1  0  0  0
 39 64  1  0  0  0
 39 67  2  0  0  0
 40 52  1  0  0  0
 40 53  2  0  0  0
 40 58  1  0  0  0
 41113  1  0  0  0
 41114  1  0  0  0
 41115  1  0  0  0
 41 48  1  0  0  0
 42 43  1  0  0  0
 42 66  1  0  0  0
 42116  1  0  0  0
 42117  1  0  0  0
 43 44  1  0  0  0
 44118  1  0  0  0
 45 46  2  0  0  0
 45119  1  0  0  0
 46120  1  0  0  0
 47121  1  0  0  0
 47122  1  0  0  0
 48 56  1  0  0  0
 48 65  1  0  0  0
 48123  1  0  0  0
 49 50  1  0  0  0
 49 53  1  0  0  0
 49 64  1  0  0  0
 49124  1  0  0  0
 50 51  1  0  0  0
 50125  1  0  0  0
 50126  1  0  0  0
 51 52  1  0  0  0
 51127  1  0  0  0
 51128  1  0  0  0
 52129  1  0  0  0
 52130  1  0  0  0
 53 54  1  0  0  0
 54 55  2  0  0  0
 54131  1  0  0  0
 55 57  1  0  0  0
 55132  1  0  0  0
 56 69  2  0  0  0
 57 58  2  0  0  0
 57133  1  0  0  0
 58134  1  0  0  0
 59 60  1  0  0  0
 59 61  1  0  0  0
 59 62  1  0  0  0
 60135  1  0  0  0
 60136  1  0  0  0
 60137  1  0  0  0
 61138  1  0  0  0
 61139  1  0  0  0
 61140  1  0  0  0
 62141  1  0  0  0
 62142  1  0  0  0
 62143  1  0  0  0
 63 65  1  0  0  0
 63144  1  0  0  0
 63145  1  0  0  0
 63146  1  0  0  0
 64147  1  0  0  0
 65148  1  0  0  0
 68 83  1  0  0  0
 71 74  2  0  0  0
 71 75  1  0  0  0
 71149  1  0  0  0
 72 74  1  0  0  0
 72 76  2  0  0  0
 72150  1  0  0  0
 73 75  2  0  0  0
 73 76  1  0  0  0
 73151  1  0  0  0
 74 78  1  0  0  0
 75 85  1  0  0  0
 76 86  1  0  0  0
 77 79  2  0  0  0
 77 80  1  0  0  0
 77152  1  0  0  0
 78 87  1  0  0  0
 78 88  2  0  0  0
 79 81  1  0  0  0
 79 84  1  0  0  0
 80 83  1  0  0  0
 80 89  2  0  0  0
 81153  1  0  0  0
 81154  1  0  0  0
 81155  1  0  0  0
 82156  1  0  0  0
 82157  1  0  0  0
 82158  1  0  0  0
 82 84  1  0  0  0
 83159  1  0  0  0
 83160  1  0  0  0
 84 87  1  0  0  0
 84161  1  0  0  0
 85162  1  0  0  0
 85163  1  0  0  0
 86164  1  0  0  0
 87165  1  0  0  0
M  ISO  4   1 100  68 101  83 101  86 100
M  END
> <chiral flag>
0

> <version>
0

> <s_m_source_file>
/data/baiqing/PycharmProjects/Reinvent-master-3.2/result/LINK_invent/BTK/process_docking_weight1_custom_product_contain_oxygen_bond_distance_aromatic_linkinvent_7_9_3/rearranged_h_0136.sdf

> <i_m_source_file_index>
77

> <r_mmod_Potential_Energy-OPLS-2005>
-140.448593139648

> <r_mmod_Stretch_Energy-OPLS-2005>
32.3268547058105

> <r_mmod_Bend_Energy-OPLS-2005>
102.605407714844

> <r_mmod_Torsional_Energy-OPLS-2005>
270.092712402344

> <r_mmod_Improper_Torsional_Energy-OPLS-2005>
10.785587310791

> <r_mmod_Van_der_Waal_Energy-OPLS-2005>
159.196075439453

> <r_mmod_Electrostatic_Energy-OPLS-2005>
-464.771423339844

> <r_mmod_Solvation_Energy-OPLS-2005>
-263.161743164062

> <b_mmod_Minimization_Converged-OPLS-2005>
0

> <r_mmod_RMS_Derivative-OPLS-2005>
2.54046010971069

$$$$
77
                    3D
 Structure written by MMmdl.
163171  0  0  1  0            999 V2000
  -30.5361  -14.8456   20.4944 C   0  0  0  0  0  0
  -30.4690  -12.5332   19.4746 C   0  0  0  0  0  0
  -29.5269  -12.5539   18.2437 C   0  0  0  0  0  0
  -28.0478  -12.3558   18.6456 C   0  0  0  0  0  0
  -27.6520  -13.2208   19.8703 C   0  0  2  0  0  0
  -28.7072  -13.0706   20.9874 C   0  0  0  0  0  0
  -25.2565  -13.8144   20.5695 C   0  0  0  0  0  0
  -24.1807  -13.0399   20.9138 C   0  0  0  0  0  0
  -24.6393  -11.6881   20.8709 C   0  0  0  0  0  0
  -23.9056  -10.4271   21.0393 C   0  0  0  0  0  0
  -24.3607   -9.4181   21.9167 C   0  0  0  0  0  0
  -23.6277   -8.2224   22.0732 C   0  0  0  0  0  0
  -22.4255   -8.0276   21.3532 C   0  0  0  0  0  0
  -21.9896   -9.0239   20.4625 C   0  0  0  0  0  0
  -22.7234  -10.2115   20.3029 C   0  0  0  0  0  0
  -21.6846   -6.0739   22.5275 C   0  0  0  0  0  0
  -21.4022   -6.5640   23.8211 C   0  0  0  0  0  0
  -21.3643   -5.6787   24.9163 C   0  0  0  0  0  0
  -21.6034   -4.3050   24.7213 C   0  0  0  0  0  0
  -21.8830   -3.8149   23.4334 C   0  0  0  0  0  0
  -21.9189   -4.6968   22.3391 C   0  0  0  0  0  0
  -22.7838  -13.5192   21.1836 C   0  0  0  0  0  0
  -22.1664   -4.2164   21.0967 F   0  0  0  0  0  0
  -21.5602   -3.4528   25.7722 F   0  0  0  0  0  0
  -29.9875  -13.5595   20.4393 N   0  0  0  0  0  0
  -26.2998  -12.9314   20.3389 N   0  0  0  0  0  0
  -25.9333  -11.6459   20.5765 N   0  0  0  0  0  0
  -22.0504  -12.8161   22.0408 N   0  0  0  0  0  0
  -25.4365  -15.1853   20.4182 N   0  0  0  0  0  0
  -31.7043  -14.9950   20.1106 O   0  0  0  0  0  0
  -21.6609   -6.8885   21.4239 O   0  0  0  0  0  0
  -22.3495  -14.5490   20.6712 O   0  0  0  0  0  0
  -24.6327  -31.8510   23.1955 C   0  0  0  0  0  0
  -25.9132  -32.4733   23.8318 C   0  0  1  0  0  0
  -27.2282  -27.2265   20.1635 C   0  0  0  0  0  0
  -25.5920  -33.8542   24.2236 N   0  0  0  0  0  0
  -23.4338  -30.4706   21.5368 C   0  0  2  0  0  0
  -24.8891  -28.9093   20.1161 C   0  0  0  0  0  0
  -22.7520  -29.4565   22.4876 C   0  0  0  0  0  0
  -18.0292  -28.1391   22.8463 C   0  0  0  0  0  0
  -24.1498  -36.7266   23.2645 C   0  0  0  0  0  0
  -25.9808  -30.7553   21.3829 C   0  0  0  0  0  0
  -26.0591  -29.3721   20.7325 C   0  0  0  0  0  0
  -27.2317  -28.5432   20.7451 C   0  0  0  0  0  0
  -26.0427  -26.8455   19.5007 C   0  0  0  0  0  0
  -24.8864  -27.6526   19.4892 C   0  0  0  0  0  0
  -23.6603  -29.8003   20.1552 C   0  0  0  0  0  0
  -25.4124  -36.3057   24.0332 C   0  0  1  0  0  0
  -20.5901  -28.3691   23.1255 C   0  0  2  0  0  0
  -20.6788  -26.9407   22.5403 C   0  0  0  0  0  0
  -19.5768  -26.6385   21.5200 C   0  0  0  0  0  0
  -18.1942  -26.7931   22.1608 C   0  0  0  0  0  0
  -19.1549  -28.8861   23.2851 C   0  0  0  0  0  0
  -18.9479  -30.1458   23.8870 C   0  0  0  0  0  0
  -17.6480  -30.6588   24.0556 C   0  0  0  0  0  0
  -25.9069  -34.9432   23.5096 C   0  0  0  0  0  0
  -16.5369  -29.9091   23.6342 C   0  0  0  0  0  0
  -16.7282  -28.6511   23.0341 C   0  0  0  0  0  0
  -26.4500  -31.6566   25.0706 C   0  0  0  0  0  0
  -25.3723  -31.3715   26.1421 C   0  0  0  0  0  0
  -27.0353  -30.2984   24.6192 C   0  0  0  0  0  0
  -27.6051  -32.4311   25.7475 C   0  0  0  0  0  0
  -27.5579  -37.1791   24.8472 C   0  0  0  0  0  0
  -21.4225  -29.3021   22.3634 N   0  0  0  0  0  0
  -26.4296  -37.3758   23.9411 N   0  0  0  0  0  0
  -24.7008  -31.0452   22.0942 N   0  0  0  0  0  0
  -23.4199  -28.8103   23.2981 O   0  0  0  0  0  0
  -28.3135  -26.3025   20.1617 O   0  0  0  0  0  0
  -26.5646  -34.8905   22.4666 O   0  0  0  0  0  0
  -23.5472  -32.1347   23.7232 O   0  0  0  0  0  0
  -30.3141  -18.4914   21.8216 C   0  0  0  0  0  0
  -30.1283  -19.9155   21.9132 C   0  0  0  0  0  0
  -29.1037  -19.9396   19.7815 C   0  0  0  0  0  0
  -29.8724  -17.6916   20.7225 C   0  0  0  0  0  0
  -29.4580  -20.7066   20.9303 C   0  0  0  0  0  0
  -29.3127  -18.5030   19.6625 C   0  0  0  0  0  0
  -29.6050  -16.1378   20.9208 C   0  0  0  0  0  0
  -29.3400  -18.5361   17.1069 C   0  0  0  0  0  0
  -29.2891  -25.4082   22.0976 C   0  0  0  0  0  0
  -26.9398  -24.7458   21.6115 C   0  0  0  0  0  0
  -28.9937  -22.2231   21.2862 C   0  0  0  0  0  0
  -28.8245  -17.8377   18.3776 C   0  0  0  0  0  0
  -28.8692  -23.5641   20.3330 C   0  0  0  0  0  0
  -28.3245  -25.0025   20.9692 C   0  0  0  0  0  0
  -28.4868  -15.9668   21.4860 N   0  0  0  0  0  0
  -31.4957  -12.7219   19.1562 H   0  0  0  0  0  0
  -30.4914  -11.5430   19.9332 H   0  0  0  0  0  0
  -29.8253  -11.7935   17.5213 H   0  0  0  0  0  0
  -29.6319  -13.5134   17.7353 H   0  0  0  0  0  0
  -27.8977  -11.3002   18.8753 H   0  0  0  0  0  0
  -27.3940  -12.5791   17.8014 H   0  0  0  0  0  0
  -27.6587  -14.2551   19.5279 H   0  0  0  0  0  0
  -28.7869  -12.0190   21.2673 H   0  0  0  0  0  0
  -28.4228  -13.5644   21.9144 H   0  0  0  0  0  0
  -25.2749   -9.5643   22.4748 H   0  0  0  0  0  0
  -23.9982   -7.4591   22.7423 H   0  0  0  0  0  0
  -21.0844   -8.8750   19.8909 H   0  0  0  0  0  0
  -22.3694  -10.9650   19.6131 H   0  0  0  0  0  0
  -21.2045   -7.6154   23.9722 H   0  0  0  0  0  0
  -21.1442   -6.0512   25.9068 H   0  0  0  0  0  0
  -22.0630   -2.7620   23.2818 H   0  0  0  0  0  0
  -22.4145  -11.9822   22.4771 H   0  0  0  0  0  0
  -21.1120  -13.1154   22.2636 H   0  0  0  0  0  0
  -24.7105  -15.8642   20.6185 H   0  0  0  0  0  0
  -26.3687  -15.5860   20.3749 H   0  0  0  0  0  0
  -26.7179  -32.5388   23.1041 H   0  0  0  0  0  0
  -25.0064  -33.9679   25.0373 H   0  0  0  0  0  0
  -22.7301  -31.2919   21.3850 H   0  0  0  0  0  0
  -23.3776  -35.9585   23.3310 H   0  0  0  0  0  0
  -24.3592  -36.8887   22.2059 H   0  0  0  0  0  0
  -23.7237  -37.6462   23.6671 H   0  0  0  0  0  0
  -26.1263  -31.5130   20.6127 H   0  0  0  0  0  0
  -26.8557  -30.8078   22.0193 H   0  0  0  0  0  0
  -28.1283  -28.8932   21.2386 H   0  0  0  0  0  0
  -26.0018  -25.8813   19.0143 H   0  0  0  0  0  0
  -23.9922  -27.2917   18.9996 H   0  0  0  0  0  0
  -23.7915  -30.5773   19.4008 H   0  0  0  0  0  0
  -22.7783  -29.2383   19.8440 H   0  0  0  0  0  0
  -25.1312  -36.1908   25.0828 H   0  0  0  0  0  0
  -20.9983  -28.3275   24.1380 H   0  0  0  0  0  0
  -20.5693  -26.2294   23.3605 H   0  0  0  0  0  0
  -21.6658  -26.7434   22.1194 H   0  0  0  0  0  0
  -19.6948  -25.6297   21.1233 H   0  0  0  0  0  0
  -19.6728  -27.3188   20.6727 H   0  0  0  0  0  0
  -17.4217  -26.6651   21.4011 H   0  0  0  0  0  0
  -18.0352  -26.0073   22.9013 H   0  0  0  0  0  0
  -19.7957  -30.7272   24.2224 H   0  0  0  0  0  0
  -17.5043  -31.6262   24.5163 H   0  0  0  0  0  0
  -15.5369  -30.2987   23.7691 H   0  0  0  0  0  0
  -15.8672  -28.0840   22.7063 H   0  0  0  0  0  0
  -24.5910  -30.7045   25.7747 H   0  0  0  0  0  0
  -24.8891  -32.2883   26.4818 H   0  0  0  0  0  0
  -25.8034  -30.8915   27.0212 H   0  0  0  0  0  0
  -26.2938  -29.6712   24.1217 H   0  0  0  0  0  0
  -27.4051  -29.7257   25.4704 H   0  0  0  0  0  0
  -27.8810  -30.4261   23.9424 H   0  0  0  0  0  0
  -27.2661  -33.3631   26.2008 H   0  0  0  0  0  0
  -28.3868  -32.6835   25.0298 H   0  0  0  0  0  0
  -28.0694  -31.8459   26.5417 H   0  0  0  0  0  0
  -28.2601  -38.0082   24.7512 H   0  0  0  0  0  0
  -28.1074  -36.2615   24.6321 H   0  0  0  0  0  0
  -27.2295  -37.1454   25.8875 H   0  0  0  0  0  0
  -20.9417  -29.8742   21.6832 H   0  0  0  0  0  0
  -26.0181  -38.2840   24.1418 H   0  0  0  0  0  0
  -30.7157  -17.9884   22.6904 H   0  0  0  0  0  0
  -30.4351  -20.3941   22.8338 H   0  0  0  0  0  0
  -28.5801  -20.4554   18.9899 H   0  0  0  0  0  0
  -29.0879  -17.9567   16.2190 H   0  0  0  0  0  0
  -30.4245  -18.6445   17.1304 H   0  0  0  0  0  0
  -28.9136  -19.5316   16.9782 H   0  0  0  0  0  0
  -29.3477  -24.6528   22.8805 H   0  0  0  0  0  0
  -28.9740  -26.3396   22.5704 H   0  0  0  0  0  0
  -30.2979  -25.5635   21.7142 H   0  0  0  0  0  0
  -26.9807  -23.9509   22.3537 H   0  0  0  0  0  0
  -26.1989  -24.4482   20.8723 H   0  0  0  0  0  0
  -26.5597  -25.6208   22.1398 H   0  0  0  0  0  0
  -29.6226  -22.5149   22.1280 H   0  0  0  0  0  0
  -28.0113  -22.0730   21.7340 H   0  0  0  0  0  0
  -27.7322  -17.8139   18.3839 H   0  0  0  0  0  0
  -29.1459  -16.7969   18.3346 H   0  0  0  0  0  0
  -28.2260  -23.3127   19.4917 H   0  0  0  0  0  0
  -29.8512  -23.7432   19.8944 H   0  0  0  0  0  0
  -28.0699  -16.8693   21.6849 H   0  0  0  0  0  0
  1 25  1  0  0  0
  1 30  2  0  0  0
  1 77  1  0  0  0
  2  3  1  0  0  0
  2 25  1  0  0  0
  2 86  1  0  0  0
  2 87  1  0  0  0
  3  4  1  0  0  0
  3 88  1  0  0  0
  3 89  1  0  0  0
  4  5  1  0  0  0
  4 90  1  0  0  0
  4 91  1  0  0  0
  5  6  1  0  0  0
  5 26  1  0  0  0
  5 92  1  0  0  0
  6 25  1  0  0  0
  6 93  1  0  0  0
  6 94  1  0  0  0
  7  8  2  0  0  0
  7 26  1  0  0  0
  7 29  1  0  0  0
  8  9  1  0  0  0
  8 22  1  0  0  0
  9 10  1  0  0  0
  9 27  2  0  0  0
 10 11  2  0  0  0
 10 15  1  0  0  0
 11 12  1  0  0  0
 11 95  1  0  0  0
 12 13  2  0  0  0
 12 96  1  0  0  0
 13 14  1  0  0  0
 13 31  1  0  0  0
 14 15  2  0  0  0
 14 97  1  0  0  0
 15 98  1  0  0  0
 16 17  2  0  0  0
 16 21  1  0  0  0
 16 31  1  0  0  0
 17 18  1  0  0  0
 17 99  1  0  0  0
 18 19  2  0  0  0
 18100  1  0  0  0
 19 20  1  0  0  0
 19 24  1  0  0  0
 20 21  2  0  0  0
 20101  1  0  0  0
 21 23  1  0  0  0
 22 28  1  0  0  0
 22 32  2  0  0  0
 26 27  1  0  0  0
 28102  1  0  0  0
 28103  1  0  0  0
 29104  1  0  0  0
 29105  1  0  0  0
 33 34  1  0  0  0
 33 66  1  0  0  0
 33 70  2  0  0  0
 34 36  1  0  0  0
 34 59  1  0  0  0
 34106  1  0  0  0
 35 44  2  0  0  0
 35 45  1  0  0  0
 35 68  1  0  0  0
 36 56  1  0  0  0
 36107  1  0  0  0
 37 39  1  0  0  0
 37 47  1  0  0  0
 37 66  1  0  0  0
 37108  1  0  0  0
 38 43  2  0  0  0
 38 46  1  0  0  0
 38 47  1  0  0  0
 39 64  1  0  0  0
 39 67  2  0  0  0
 40 52  1  0  0  0
 40 53  2  0  0  0
 40 58  1  0  0  0
 41109  1  0  0  0
 41110  1  0  0  0
 41111  1  0  0  0
 41 48  1  0  0  0
 42 43  1  0  0  0
 42 66  1  0  0  0
 42112  1  0  0  0
 42113  1  0  0  0
 43 44  1  0  0  0
 44114  1  0  0  0
 45 46  2  0  0  0
 45115  1  0  0  0
 46116  1  0  0  0
 47117  1  0  0  0
 47118  1  0  0  0
 48 56  1  0  0  0
 48 65  1  0  0  0
 48119  1  0  0  0
 49 50  1  0  0  0
 49 53  1  0  0  0
 49 64  1  0  0  0
 49120  1  0  0  0
 50 51  1  0  0  0
 50121  1  0  0  0
 50122  1  0  0  0
 51 52  1  0  0  0
 51123  1  0  0  0
 51124  1  0  0  0
 52125  1  0  0  0
 52126  1  0  0  0
 53 54  1  0  0  0
 54 55  2  0  0  0
 54127  1  0  0  0
 55 57  1  0  0  0
 55128  1  0  0  0
 56 69  2  0  0  0
 57 58  2  0  0  0
 57129  1  0  0  0
 58130  1  0  0  0
 59 60  1  0  0  0
 59 61  1  0  0  0
 59 62  1  0  0  0
 60131  1  0  0  0
 60132  1  0  0  0
 60133  1  0  0  0
 61134  1  0  0  0
 61135  1  0  0  0
 61136  1  0  0  0
 62137  1  0  0  0
 62138  1  0  0  0
 62139  1  0  0  0
 63 65  1  0  0  0
 63140  1  0  0  0
 63141  1  0  0  0
 63142  1  0  0  0
 64143  1  0  0  0
 65144  1  0  0  0
 68 84  1  0  0  0
 71 72  2  0  0  0
 71 74  1  0  0  0
 71145  1  0  0  0
 72 75  1  0  0  0
 72146  1  0  0  0
 73 75  2  0  0  0
 73 76  1  0  0  0
 73147  1  0  0  0
 74 76  2  0  0  0
 74 77  1  0  0  0
 75 81  1  0  0  0
 76 82  1  0  0  0
 77 85  2  0  0  0
 78 82  1  0  0  0
 78148  1  0  0  0
 78149  1  0  0  0
 78150  1  0  0  0
 79151  1  0  0  0
 79152  1  0  0  0
 79153  1  0  0  0
 79 84  1  0  0  0
 80 84  1  0  0  0
 80154  1  0  0  0
 80155  1  0  0  0
 80156  1  0  0  0
 81 83  1  0  0  0
 81157  1  0  0  0
 81158  1  0  0  0
 82159  1  0  0  0
 82160  1  0  0  0
 83 84  1  0  0  0
 83161  1  0  0  0
 83162  1  0  0  0
 85163  1  0  0  0
M  ISO  4   1 100  68 101  77 100  84 101
M  END
> <chiral flag>
0

> <version>
0

> <s_m_source_file>
/data/baiqing/PycharmProjects/Reinvent-master-3.2/result/LINK_invent/BTK/process_docking_weight1_custom_product_contain_oxygen_bond_distance_aromatic_linkinvent_7_9_3/rearranged_h_0136.sdf

> <i_m_source_file_index>
78

> <r_mmod_Potential_Energy-OPLS-2005>
541.4267578125

> <r_mmod_Stretch_Energy-OPLS-2005>
195.375045776367

> <r_mmod_Bend_Energy-OPLS-2005>
252.186706542969

> <r_mmod_Torsional_Energy-OPLS-2005>
254.687545776367

> <r_mmod_Improper_Torsional_Energy-OPLS-2005>
9.64038848876953

> <r_mmod_Van_der_Waal_Energy-OPLS-2005>
145.074157714844

> <r_mmod_Electrostatic_Energy-OPLS-2005>
-254.753295898438

> <r_mmod_Solvation_Energy-OPLS-2005>
-177.261871337891

> <b_mmod_Minimization_Converged-OPLS-2005>
0

> <r_mmod_RMS_Derivative-OPLS-2005>
2.81525802612305

$$$$
78
                    3D
 Structure written by MMmdl.
161170  0  0  1  0            999 V2000
  -30.5759  -14.9015   20.4121 C   0  0  0  0  0  0
  -30.4300  -12.5510   19.4927 C   0  0  0  0  0  0
  -29.5168  -12.5286   18.2456 C   0  0  0  0  0  0
  -28.0417  -12.3404   18.6499 C   0  0  0  0  0  0
  -27.6300  -13.2517   19.8374 C   0  0  2  0  0  0
  -28.6774  -13.2216   20.9673 C   0  0  0  0  0  0
  -25.2498  -13.8233   20.5781 C   0  0  0  0  0  0
  -24.1783  -13.0439   20.9196 C   0  0  0  0  0  0
  -24.6394  -11.6924   20.8693 C   0  0  0  0  0  0
  -23.9083  -10.4289   21.0363 C   0  0  0  0  0  0
  -24.3642   -9.4213   21.9149 C   0  0  0  0  0  0
  -23.6313   -8.2249   22.0746 C   0  0  0  0  0  0
  -22.4289   -8.0278   21.3549 C   0  0  0  0  0  0
  -21.9921   -9.0243   20.4645 C   0  0  0  0  0  0
  -22.7248  -10.2117   20.3029 C   0  0  0  0  0  0
  -21.6867   -6.0725   22.5272 C   0  0  0  0  0  0
  -21.4030   -6.5629   23.8201 C   0  0  0  0  0  0
  -21.3668   -5.6783   24.9167 C   0  0  0  0  0  0
  -21.6050   -4.3048   24.7219 C   0  0  0  0  0  0
  -21.8823   -3.8132   23.4344 C   0  0  0  0  0  0
  -21.9197   -4.6951   22.3396 C   0  0  0  0  0  0
  -22.7812  -13.5211   21.1845 C   0  0  0  0  0  0
  -22.1665   -4.2136   21.0972 F   0  0  0  0  0  0
  -21.5634   -3.4536   25.7729 F   0  0  0  0  0  0
  -29.9545  -13.6500   20.3844 N   0  0  0  0  0  0
  -26.2891  -12.9459   20.3220 N   0  0  0  0  0  0
  -25.9323  -11.6581   20.5652 N   0  0  0  0  0  0
  -22.0474  -12.8189   22.0411 N   0  0  0  0  0  0
  -25.4228  -15.1971   20.4423 N   0  0  0  0  0  0
  -31.7830  -14.8865   20.1487 O   0  0  0  0  0  0
  -21.6667   -6.8869   21.4229 O   0  0  0  0  0  0
  -22.3481  -14.5508   20.6676 O   0  0  0  0  0  0
  -24.6443  -31.8426   23.1887 C   0  0  0  0  0  0
  -25.9209  -32.4699   23.8266 C   0  0  1  0  0  0
  -27.2186  -27.1453   20.1431 C   0  0  0  0  0  0
  -25.5955  -33.8503   24.2191 N   0  0  0  0  0  0
  -23.4480  -30.4635   21.5332 C   0  0  2  0  0  0
  -24.8961  -28.8888   20.1120 C   0  0  0  0  0  0
  -22.7575  -29.4545   22.4850 C   0  0  0  0  0  0
  -18.0304  -28.1408   22.8469 C   0  0  0  0  0  0
  -24.1486  -36.7260   23.2639 C   0  0  0  0  0  0
  -26.0037  -30.7226   21.3832 C   0  0  0  0  0  0
  -26.0752  -29.3321   20.7268 C   0  0  0  0  0  0
  -27.2402  -28.4767   20.7208 C   0  0  0  0  0  0
  -26.0176  -26.8048   19.4855 C   0  0  0  0  0  0
  -24.8798  -27.6393   19.4760 C   0  0  0  0  0  0
  -23.6735  -29.7910   20.1539 C   0  0  0  0  0  0
  -25.4115  -36.3038   24.0311 C   0  0  1  0  0  0
  -20.5921  -28.3730   23.1232 C   0  0  2  0  0  0
  -20.6789  -26.9431   22.5404 C   0  0  0  0  0  0
  -19.5764  -26.6380   21.5218 C   0  0  0  0  0  0
  -18.1940  -26.7947   22.1619 C   0  0  0  0  0  0
  -19.1557  -28.8885   23.2847 C   0  0  0  0  0  0
  -18.9468  -30.1489   23.8868 C   0  0  0  0  0  0
  -17.6461  -30.6598   24.0563 C   0  0  0  0  0  0
  -25.9066  -34.9408   23.5056 C   0  0  0  0  0  0
  -16.5358  -29.9083   23.6345 C   0  0  0  0  0  0
  -16.7284  -28.6514   23.0336 C   0  0  0  0  0  0
  -26.4527  -31.6576   25.0714 C   0  0  0  0  0  0
  -25.3699  -31.3759   26.1403 C   0  0  0  0  0  0
  -27.0382  -30.2970   24.6296 C   0  0  0  0  0  0
  -27.6061  -32.4338   25.7484 C   0  0  0  0  0  0
  -27.5571  -37.1786   24.8460 C   0  0  0  0  0  0
  -21.4261  -29.3056   22.3606 N   0  0  0  0  0  0
  -26.4280  -37.3746   23.9415 N   0  0  0  0  0  0
  -24.7189  -31.0297   22.0906 N   0  0  0  0  0  0
  -23.4230  -28.8088   23.2979 O   0  0  0  0  0  0
  -28.2806  -26.1735   20.1599 O   0  0  0  0  0  0
  -26.5637  -34.8905   22.4628 O   0  0  0  0  0  0
  -23.5566  -32.1255   23.7128 O   0  0  0  0  0  0
  -28.6922  -16.5956   21.2514 C   0  0  0  0  0  0
  -29.8451  -16.3632   20.5309 C   0  0  0  0  0  0
  -30.2783  -17.7104   19.9880 C   0  0  0  0  0  0
  -29.4816  -18.8675   20.3068 C   0  0  0  0  0  0
  -32.1298  -18.9553   18.4149 C   0  0  0  0  0  0
  -32.7829  -18.4416   19.6751 C   0  0  0  0  0  0
  -31.5414  -17.7604   19.1423 C   0  0  0  0  0  0
  -30.4127  -23.7017   20.3856 C   0  0  0  0  0  0
  -28.9133  -23.3488   18.4100 C   0  0  0  0  0  0
  -29.6112  -20.4538   19.9351 C   0  0  0  0  0  0
  -28.6830  -21.7647   20.4192 C   0  0  0  0  0  0
  -28.0219  -24.6608   20.4282 C   0  0  0  0  0  0
  -28.9765  -23.3603   19.9459 C   0  0  0  0  0  0
  -28.1456  -18.2805   21.2626 S   0  0  0  0  0  0
  -31.4703  -12.6750   19.1872 H   0  0  0  0  0  0
  -30.3965  -11.5895   20.0065 H   0  0  0  0  0  0
  -29.8219  -11.7339   17.5628 H   0  0  0  0  0  0
  -29.6277  -13.4635   17.6951 H   0  0  0  0  0  0
  -27.9039  -11.2931   18.9191 H   0  0  0  0  0  0
  -27.3923  -12.5208   17.7926 H   0  0  0  0  0  0
  -27.6066  -14.2685   19.4435 H   0  0  0  0  0  0
  -28.7522  -12.2141   21.3787 H   0  0  0  0  0  0
  -28.3945  -13.8461   21.8097 H   0  0  0  0  0  0
  -25.2794   -9.5697   22.4714 H   0  0  0  0  0  0
  -24.0024   -7.4654   22.7482 H   0  0  0  0  0  0
  -21.0844   -8.8756   19.8972 H   0  0  0  0  0  0
  -22.3693  -10.9648   19.6140 H   0  0  0  0  0  0
  -21.2034   -7.6138   23.9703 H   0  0  0  0  0  0
  -21.1496   -6.0515   25.9069 H   0  0  0  0  0  0
  -22.0601   -2.7593   23.2838 H   0  0  0  0  0  0
  -22.4124  -11.9881   22.4813 H   0  0  0  0  0  0
  -21.1081  -13.1181   22.2598 H   0  0  0  0  0  0
  -24.6736  -15.8554   20.6275 H   0  0  0  0  0  0
  -26.2931  -15.6508   20.1925 H   0  0  0  0  0  0
  -26.7288  -32.5314   23.1004 H   0  0  0  0  0  0
  -25.0110  -33.9632   25.0346 H   0  0  0  0  0  0
  -22.7511  -31.2895   21.3794 H   0  0  0  0  0  0
  -23.3752  -35.9593   23.3280 H   0  0  0  0  0  0
  -24.3587  -36.8912   22.2065 H   0  0  0  0  0  0
  -23.7231  -37.6442   23.6685 H   0  0  0  0  0  0
  -26.1549  -31.4771   20.6105 H   0  0  0  0  0  0
  -26.8787  -30.7791   22.0186 H   0  0  0  0  0  0
  -28.1469  -28.8140   21.2031 H   0  0  0  0  0  0
  -25.9428  -25.8609   18.9661 H   0  0  0  0  0  0
  -23.9850  -27.2986   18.9743 H   0  0  0  0  0  0
  -23.8114  -30.5642   19.3981 H   0  0  0  0  0  0
  -22.7883  -29.2319   19.8464 H   0  0  0  0  0  0
  -25.1314  -36.1853   25.0802 H   0  0  0  0  0  0
  -21.0012  -28.3313   24.1351 H   0  0  0  0  0  0
  -20.5677  -26.2332   23.3618 H   0  0  0  0  0  0
  -21.6649  -26.7431   22.1195 H   0  0  0  0  0  0
  -19.6914  -25.6277   21.1264 H   0  0  0  0  0  0
  -19.6708  -27.3174   20.6738 H   0  0  0  0  0  0
  -17.4203  -26.6689   21.4025 H   0  0  0  0  0  0
  -18.0340  -26.0113   22.9033 H   0  0  0  0  0  0
  -19.7937  -30.7327   24.2200 H   0  0  0  0  0  0
  -17.5001  -31.6270   24.5177 H   0  0  0  0  0  0
  -15.5347  -30.2958   23.7700 H   0  0  0  0  0  0
  -15.8690  -28.0841   22.7026 H   0  0  0  0  0  0
  -24.5909  -30.7078   25.7714 H   0  0  0  0  0  0
  -24.8837  -32.2927   26.4745 H   0  0  0  0  0  0
  -25.7968  -30.8982   27.0225 H   0  0  0  0  0  0
  -26.2991  -29.6692   24.1299 H   0  0  0  0  0  0
  -27.3980  -29.7296   25.4885 H   0  0  0  0  0  0
  -27.8908  -30.4213   23.9619 H   0  0  0  0  0  0
  -27.2689  -33.3682   26.1974 H   0  0  0  0  0  0
  -28.3903  -32.6813   25.0325 H   0  0  0  0  0  0
  -28.0680  -31.8497   26.5456 H   0  0  0  0  0  0
  -28.2571  -38.0097   24.7523 H   0  0  0  0  0  0
  -28.1080  -36.2625   24.6263 H   0  0  0  0  0  0
  -27.2296  -37.1410   25.8863 H   0  0  0  0  0  0
  -20.9454  -29.8776   21.6807 H   0  0  0  0  0  0
  -26.0139  -38.2805   24.1430 H   0  0  0  0  0  0
  -28.1028  -15.8889   21.8126 H   0  0  0  0  0  0
  -32.6415  -18.7500   17.4756 H   0  0  0  0  0  0
  -31.6756  -19.9369   18.4602 H   0  0  0  0  0  0
  -32.6866  -19.0601   20.5647 H   0  0  0  0  0  0
  -33.7282  -17.9096   19.5814 H   0  0  0  0  0  0
  -31.6705  -16.8351   18.5862 H   0  0  0  0  0  0
  -30.6979  -24.6983   20.0470 H   0  0  0  0  0  0
  -31.1482  -23.0049   19.9807 H   0  0  0  0  0  0
  -30.5094  -23.6894   21.4723 H   0  0  0  0  0  0
  -29.1288  -24.3321   17.9918 H   0  0  0  0  0  0
  -27.9209  -23.0576   18.0656 H   0  0  0  0  0  0
  -29.6296  -22.6496   17.9780 H   0  0  0  0  0  0
  -29.5853  -20.4919   18.8465 H   0  0  0  0  0  0
  -30.6269  -20.7343   20.2071 H   0  0  0  0  0  0
  -28.6657  -21.7517   21.5091 H   0  0  0  0  0  0
  -27.6592  -21.5361   20.1231 H   0  0  0  0  0  0
  -27.9677  -24.5950   21.5149 H   0  0  0  0  0  0
  -27.0079  -24.4151   20.1169 H   0  0  0  0  0  0
  1 25  1  0  0  0
  1 30  2  0  0  0
  1 72  1  0  0  0
  2  3  1  0  0  0
  2 25  1  0  0  0
  2 85  1  0  0  0
  2 86  1  0  0  0
  3  4  1  0  0  0
  3 87  1  0  0  0
  3 88  1  0  0  0
  4  5  1  0  0  0
  4 89  1  0  0  0
  4 90  1  0  0  0
  5  6  1  0  0  0
  5 26  1  0  0  0
  5 91  1  0  0  0
  6 25  1  0  0  0
  6 92  1  0  0  0
  6 93  1  0  0  0
  7  8  2  0  0  0
  7 26  1  0  0  0
  7 29  1  0  0  0
  8  9  1  0  0  0
  8 22  1  0  0  0
  9 10  1  0  0  0
  9 27  2  0  0  0
 10 11  2  0  0  0
 10 15  1  0  0  0
 11 12  1  0  0  0
 11 94  1  0  0  0
 12 13  2  0  0  0
 12 95  1  0  0  0
 13 14  1  0  0  0
 13 31  1  0  0  0
 14 15  2  0  0  0
 14 96  1  0  0  0
 15 97  1  0  0  0
 16 17  2  0  0  0
 16 21  1  0  0  0
 16 31  1  0  0  0
 17 18  1  0  0  0
 17 98  1  0  0  0
 18 19  2  0  0  0
 18 99  1  0  0  0
 19 20  1  0  0  0
 19 24  1  0  0  0
 20 21  2  0  0  0
 20100  1  0  0  0
 21 23  1  0  0  0
 22 28  1  0  0  0
 22 32  2  0  0  0
 26 27  1  0  0  0
 28101  1  0  0  0
 28102  1  0  0  0
 29103  1  0  0  0
 29104  1  0  0  0
 33 34  1  0  0  0
 33 66  1  0  0  0
 33 70  2  0  0  0
 34 36  1  0  0  0
 34 59  1  0  0  0
 34105  1  0  0  0
 35 44  2  0  0  0
 35 45  1  0  0  0
 35 68  1  0  0  0
 36 56  1  0  0  0
 36106  1  0  0  0
 37 39  1  0  0  0
 37 47  1  0  0  0
 37 66  1  0  0  0
 37107  1  0  0  0
 38 43  2  0  0  0
 38 46  1  0  0  0
 38 47  1  0  0  0
 39 64  1  0  0  0
 39 67  2  0  0  0
 40 52  1  0  0  0
 40 53  2  0  0  0
 40 58  1  0  0  0
 41108  1  0  0  0
 41109  1  0  0  0
 41110  1  0  0  0
 41 48  1  0  0  0
 42 43  1  0  0  0
 42 66  1  0  0  0
 42111  1  0  0  0
 42112  1  0  0  0
 43 44  1  0  0  0
 44113  1  0  0  0
 45 46  2  0  0  0
 45114  1  0  0  0
 46115  1  0  0  0
 47116  1  0  0  0
 47117  1  0  0  0
 48 56  1  0  0  0
 48 65  1  0  0  0
 48118  1  0  0  0
 49 50  1  0  0  0
 49 53  1  0  0  0
 49 64  1  0  0  0
 49119  1  0  0  0
 50 51  1  0  0  0
 50120  1  0  0  0
 50121  1  0  0  0
 51 52  1  0  0  0
 51122  1  0  0  0
 51123  1  0  0  0
 52124  1  0  0  0
 52125  1  0  0  0
 53 54  1  0  0  0
 54 55  2  0  0  0
 54126  1  0  0  0
 55 57  1  0  0  0
 55127  1  0  0  0
 56 69  2  0  0  0
 57 58  2  0  0  0
 57128  1  0  0  0
 58129  1  0  0  0
 59 60  1  0  0  0
 59 61  1  0  0  0
 59 62  1  0  0  0
 60130  1  0  0  0
 60131  1  0  0  0
 60132  1  0  0  0
 61133  1  0  0  0
 61134  1  0  0  0
 61135  1  0  0  0
 62136  1  0  0  0
 62137  1  0  0  0
 62138  1  0  0  0
 63 65  1  0  0  0
 63139  1  0  0  0
 63140  1  0  0  0
 63141  1  0  0  0
 64142  1  0  0  0
 65143  1  0  0  0
 68 82  1  0  0  0
 71 72  2  0  0  0
 71 84  1  0  0  0
 71144  1  0  0  0
 72 73  1  0  0  0
 73 74  2  0  0  0
 73 77  1  0  0  0
 74 80  1  0  0  0
 74 84  1  0  0  0
 75 76  1  0  0  0
 75 77  1  0  0  0
 75145  1  0  0  0
 75146  1  0  0  0
 76 77  1  0  0  0
 76147  1  0  0  0
 76148  1  0  0  0
 77149  1  0  0  0
 78150  1  0  0  0
 78151  1  0  0  0
 78152  1  0  0  0
 78 83  1  0  0  0
 79 83  1  0  0  0
 79153  1  0  0  0
 79154  1  0  0  0
 79155  1  0  0  0
 80 81  1  0  0  0
 80156  1  0  0  0
 80157  1  0  0  0
 81 83  1  0  0  0
 81158  1  0  0  0
 81159  1  0  0  0
 82 83  1  0  0  0
 82160  1  0  0  0
 82161  1  0  0  0
M  ISO  4   1 100  68 101  72 100  82 101
M  END
> <chiral flag>
0

> <version>
0

> <s_m_source_file>
/data/baiqing/PycharmProjects/Reinvent-master-3.2/result/LINK_invent/BTK/process_docking_weight1_custom_product_contain_oxygen_bond_distance_aromatic_linkinvent_7_9_3/rearranged_h_0136.sdf

> <i_m_source_file_index>
79

> <r_mmod_Potential_Energy-OPLS-2005>
541.119506835938

> <r_mmod_Stretch_Energy-OPLS-2005>
257.718109130859

> <r_mmod_Bend_Energy-OPLS-2005>
261.967010498047

> <r_mmod_Torsional_Energy-OPLS-2005>
224.238174438477

> <r_mmod_Improper_Torsional_Energy-OPLS-2005>
4.17269945144653

> <r_mmod_Van_der_Waal_Energy-OPLS-2005>
111.045455932617

> <r_mmod_Electrostatic_Energy-OPLS-2005>
-299.641967773438

> <r_mmod_Solvation_Energy-OPLS-2005>
-180.804306030273

> <b_mmod_Minimization_Converged-OPLS-2005>
0

> <r_mmod_RMS_Derivative-OPLS-2005>
2.75770568847656

$$$$
79
                    3D
 Structure written by MMmdl.
161169  0  0  1  0            999 V2000
  -30.7355  -14.4340   20.5574 C   0  0  0  0  0  0
  -30.4137  -12.2785   19.4256 C   0  0  0  0  0  0
  -29.4971  -12.5078   18.2088 C   0  0  0  0  0  0
  -28.0159  -12.3761   18.6133 C   0  0  0  0  0  0
  -27.6663  -13.2121   19.8757 C   0  0  2  0  0  0
  -28.7059  -12.9913   20.9975 C   0  0  0  0  0  0
  -25.2590  -13.8158   20.5671 C   0  0  0  0  0  0
  -24.1839  -13.0430   20.9136 C   0  0  0  0  0  0
  -24.6407  -11.6894   20.8700 C   0  0  0  0  0  0
  -23.9078  -10.4271   21.0390 C   0  0  0  0  0  0
  -24.3621   -9.4193   21.9176 C   0  0  0  0  0  0
  -23.6309   -8.2221   22.0742 C   0  0  0  0  0  0
  -22.4297   -8.0246   21.3534 C   0  0  0  0  0  0
  -21.9928   -9.0228   20.4650 C   0  0  0  0  0  0
  -22.7244  -10.2115   20.3057 C   0  0  0  0  0  0
  -21.6854   -6.0725   22.5275 C   0  0  0  0  0  0
  -21.4005   -6.5633   23.8212 C   0  0  0  0  0  0
  -21.3666   -5.6785   24.9177 C   0  0  0  0  0  0
  -21.6059   -4.3057   24.7208 C   0  0  0  0  0  0
  -21.8833   -3.8134   23.4335 C   0  0  0  0  0  0
  -21.9181   -4.6948   22.3388 C   0  0  0  0  0  0
  -22.7855  -13.5235   21.1807 C   0  0  0  0  0  0
  -22.1662   -4.2133   21.0971 F   0  0  0  0  0  0
  -21.5642   -3.4552   25.7735 F   0  0  0  0  0  0
  -30.0442  -13.2681   20.4485 N   0  0  0  0  0  0
  -26.3053  -12.9344   20.3391 N   0  0  0  0  0  0
  -25.9348  -11.6485   20.5733 N   0  0  0  0  0  0
  -22.0499  -12.8232   22.0374 N   0  0  0  0  0  0
  -25.4260  -15.1884   20.4099 N   0  0  0  0  0  0
  -31.8588  -14.5904   20.0666 O   0  0  0  0  0  0
  -21.6645   -6.8864   21.4240 O   0  0  0  0  0  0
  -22.3522  -14.5528   20.6653 O   0  0  0  0  0  0
  -24.6176  -31.8714   23.2140 C   0  0  0  0  0  0
  -25.9093  -32.4838   23.8410 C   0  0  1  0  0  0
  -27.2174  -27.4305   20.0805 C   0  0  0  0  0  0
  -25.5976  -33.8637   24.2356 N   0  0  0  0  0  0
  -23.4019  -30.5019   21.5562 C   0  0  2  0  0  0
  -24.8402  -28.9752   20.1124 C   0  0  0  0  0  0
  -22.7436  -29.4679   22.5002 C   0  0  0  0  0  0
  -18.0263  -28.1364   22.8495 C   0  0  0  0  0  0
  -24.1495  -36.7291   23.2639 C   0  0  0  0  0  0
  -25.9377  -30.8324   21.3732 C   0  0  0  0  0  0
  -26.0069  -29.4739   20.7070 C   0  0  0  0  0  0
  -27.1962  -28.7066   20.6902 C   0  0  0  0  0  0
  -26.0197  -26.9507   19.4883 C   0  0  0  0  0  0
  -24.8425  -27.7117   19.5061 C   0  0  0  0  0  0
  -23.6068  -29.8447   20.1666 C   0  0  0  0  0  0
  -25.4122  -36.3122   24.0339 C   0  0  1  0  0  0
  -20.5870  -28.3658   23.1318 C   0  0  2  0  0  0
  -20.6778  -26.9403   22.5410 C   0  0  0  0  0  0
  -19.5749  -26.6374   21.5217 C   0  0  0  0  0  0
  -18.1911  -26.7912   22.1609 C   0  0  0  0  0  0
  -19.1524  -28.8820   23.2889 C   0  0  0  0  0  0
  -18.9456  -30.1427   23.8899 C   0  0  0  0  0  0
  -17.6465  -30.6574   24.0545 C   0  0  0  0  0  0
  -25.9058  -34.9497   23.5131 C   0  0  0  0  0  0
  -16.5349  -29.9079   23.6322 C   0  0  0  0  0  0
  -16.7251  -28.6485   23.0352 C   0  0  0  0  0  0
  -26.4500  -31.6631   25.0745 C   0  0  0  0  0  0
  -25.3773  -31.3746   26.1493 C   0  0  0  0  0  0
  -27.0342  -30.3078   24.6148 C   0  0  0  0  0  0
  -27.6054  -32.4384   25.7503 C   0  0  0  0  0  0
  -27.5588  -37.1802   24.8461 C   0  0  0  0  0  0
  -21.4159  -29.3029   22.3730 N   0  0  0  0  0  0
  -26.4300  -37.3816   23.9408 N   0  0  0  0  0  0
  -24.6712  -31.0810   22.1051 N   0  0  0  0  0  0
  -23.4214  -28.8203   23.3018 O   0  0  0  0  0  0
  -28.3876  -26.6909   20.0829 O   0  0  0  0  0  0
  -26.5562  -34.8938   22.4657 O   0  0  0  0  0  0
  -23.5374  -32.1448   23.7542 O   0  0  0  0  0  0
  -30.5385  -19.1793   21.5450 C   0  0  0  0  0  0
  -30.8048  -18.6099   19.1965 C   0  0  0  0  0  0
  -30.2943  -17.8186   21.8468 C   0  0  0  0  0  0
  -30.5680  -17.2565   19.4950 C   0  0  0  0  0  0
  -30.7965  -19.5822   20.2163 C   0  0  0  0  0  0
  -30.3278  -16.8400   20.8268 C   0  0  0  0  0  0
  -29.5545  -24.5161   19.7370 C   0  0  0  0  0  0
  -30.9298  -23.3463   18.0269 C   0  0  0  0  0  0
  -28.4728  -22.9075   18.0395 C   0  0  0  0  0  0
  -31.0738  -21.0408   19.8533 C   0  0  0  0  0  0
  -28.2950  -25.3715   19.5178 C   0  0  0  0  0  0
  -29.8255  -21.9595   19.9525 C   0  0  0  0  0  0
  -29.6990  -23.1758   18.9540 C   0  0  0  0  0  0
  -30.0905  -15.4654   21.1310 N   0  0  0  0  0  0
  -30.4409  -24.8837   20.5182 O   0  0  0  0  0  0
  -31.4609  -12.3543   19.1238 H   0  0  0  0  0  0
  -30.2885  -11.2690   19.8196 H   0  0  0  0  0  0
  -29.7354  -11.7921   17.4215 H   0  0  0  0  0  0
  -29.6756  -13.4982   17.7875 H   0  0  0  0  0  0
  -27.8146  -11.3212   18.7972 H   0  0  0  0  0  0
  -27.3720  -12.6624   17.7801 H   0  0  0  0  0  0
  -27.7137  -14.2628   19.5825 H   0  0  0  0  0  0
  -28.6631  -11.9623   21.3582 H   0  0  0  0  0  0
  -28.4746  -13.6117   21.8614 H   0  0  0  0  0  0
  -25.2769   -9.5690   22.4743 H   0  0  0  0  0  0
  -24.0019   -7.4638   22.7489 H   0  0  0  0  0  0
  -21.0846   -8.8765   19.8983 H   0  0  0  0  0  0
  -22.3700  -10.9652   19.6155 H   0  0  0  0  0  0
  -21.1996   -7.6142   23.9723 H   0  0  0  0  0  0
  -21.1498   -6.0506   25.9094 H   0  0  0  0  0  0
  -22.0605   -2.7587   23.2843 H   0  0  0  0  0  0
  -22.4114  -11.9912   22.4802 H   0  0  0  0  0  0
  -21.1114  -13.1276   22.2571 H   0  0  0  0  0  0
  -24.6585  -15.8412   20.5249 H   0  0  0  0  0  0
  -26.2903  -15.6404   20.1367 H   0  0  0  0  0  0
  -26.7165  -32.5514   23.1165 H   0  0  0  0  0  0
  -25.0234  -33.9820   25.0578 H   0  0  0  0  0  0
  -22.6910  -31.3206   21.4261 H   0  0  0  0  0  0
  -23.3768  -35.9610   23.3312 H   0  0  0  0  0  0
  -24.3577  -36.8877   22.2049 H   0  0  0  0  0  0
  -23.7237  -37.6496   23.6638 H   0  0  0  0  0  0
  -26.0686  -31.6133   20.6218 H   0  0  0  0  0  0
  -26.8210  -30.8630   22.0002 H   0  0  0  0  0  0
  -28.0975  -29.0924   21.1471 H   0  0  0  0  0  0
  -25.9525  -25.9905   19.0005 H   0  0  0  0  0  0
  -23.9401  -27.3180   19.0562 H   0  0  0  0  0  0
  -23.7249  -30.6263   19.4146 H   0  0  0  0  0  0
  -22.7260  -29.2753   19.8634 H   0  0  0  0  0  0
  -25.1307  -36.1993   25.0833 H   0  0  0  0  0  0
  -20.9932  -28.3225   24.1454 H   0  0  0  0  0  0
  -20.5712  -26.2271   23.3585 H   0  0  0  0  0  0
  -21.6655  -26.7479   22.1204 H   0  0  0  0  0  0
  -19.6924  -25.6292   21.1238 H   0  0  0  0  0  0
  -19.6703  -27.3189   20.6755 H   0  0  0  0  0  0
  -17.4213  -26.6677   21.3967 H   0  0  0  0  0  0
  -18.0278  -26.0049   22.9004 H   0  0  0  0  0  0
  -19.7935  -30.7219   24.2290 H   0  0  0  0  0  0
  -17.5025  -31.6258   24.5139 H   0  0  0  0  0  0
  -15.5348  -30.2973   23.7644 H   0  0  0  0  0  0
  -15.8648  -28.0787   22.7089 H   0  0  0  0  0  0
  -24.5924  -30.7110   25.7837 H   0  0  0  0  0  0
  -24.8975  -32.2912   26.4963 H   0  0  0  0  0  0
  -25.8141  -30.8905   27.0247 H   0  0  0  0  0  0
  -26.2894  -29.6819   24.1211 H   0  0  0  0  0  0
  -27.4113  -29.7334   25.4623 H   0  0  0  0  0  0
  -27.8751  -30.4351   23.9315 H   0  0  0  0  0  0
  -27.2639  -33.3672   26.2091 H   0  0  0  0  0  0
  -28.3867  -32.6983   25.0347 H   0  0  0  0  0  0
  -28.0739  -31.8524   26.5418 H   0  0  0  0  0  0
  -28.2617  -38.0092   24.7528 H   0  0  0  0  0  0
  -28.1080  -36.2622   24.6287 H   0  0  0  0  0  0
  -27.2296  -37.1465   25.8863 H   0  0  0  0  0  0
  -20.9311  -29.8730   21.6947 H   0  0  0  0  0  0
  -26.0184  -38.2894   24.1416 H   0  0  0  0  0  0
  -30.5223  -19.9149   22.3382 H   0  0  0  0  0  0
  -30.9948  -18.8900   18.1702 H   0  0  0  0  0  0
  -30.1039  -17.5298   22.8710 H   0  0  0  0  0  0
  -30.5851  -16.5418   18.6838 H   0  0  0  0  0  0
  -30.8749  -24.2715   17.4509 H   0  0  0  0  0  0
  -31.0065  -22.5407   17.2946 H   0  0  0  0  0  0
  -31.8632  -23.3803   18.5917 H   0  0  0  0  0  0
  -28.3521  -23.6678   17.2681 H   0  0  0  0  0  0
  -27.5401  -22.8513   18.6048 H   0  0  0  0  0  0
  -28.5785  -21.9597   17.5106 H   0  0  0  0  0  0
  -31.4708  -21.0191   18.8392 H   0  0  0  0  0  0
  -31.8861  -21.4333   20.4658 H   0  0  0  0  0  0
  -27.4638  -24.8278   19.9681 H   0  0  0  0  0  0
  -28.1089  -25.4709   18.4493 H   0  0  0  0  0  0
  -29.7368  -22.2872   20.9908 H   0  0  0  0  0  0
  -28.9544  -21.3160   19.8176 H   0  0  0  0  0  0
  -29.2714  -15.2479   21.6802 H   0  0  0  0  0  0
  1 25  1  0  0  0
  1 30  2  0  0  0
  1 84  1  0  0  0
  2  3  1  0  0  0
  2 25  1  0  0  0
  2 86  1  0  0  0
  2 87  1  0  0  0
  3  4  1  0  0  0
  3 88  1  0  0  0
  3 89  1  0  0  0
  4  5  1  0  0  0
  4 90  1  0  0  0
  4 91  1  0  0  0
  5  6  1  0  0  0
  5 26  1  0  0  0
  5 92  1  0  0  0
  6 25  1  0  0  0
  6 93  1  0  0  0
  6 94  1  0  0  0
  7  8  2  0  0  0
  7 26  1  0  0  0
  7 29  1  0  0  0
  8  9  1  0  0  0
  8 22  1  0  0  0
  9 10  1  0  0  0
  9 27  2  0  0  0
 10 11  2  0  0  0
 10 15  1  0  0  0
 11 12  1  0  0  0
 11 95  1  0  0  0
 12 13  2  0  0  0
 12 96  1  0  0  0
 13 14  1  0  0  0
 13 31  1  0  0  0
 14 15  2  0  0  0
 14 97  1  0  0  0
 15 98  1  0  0  0
 16 17  2  0  0  0
 16 21  1  0  0  0
 16 31  1  0  0  0
 17 18  1  0  0  0
 17 99  1  0  0  0
 18 19  2  0  0  0
 18100  1  0  0  0
 19 20  1  0  0  0
 19 24  1  0  0  0
 20 21  2  0  0  0
 20101  1  0  0  0
 21 23  1  0  0  0
 22 28  1  0  0  0
 22 32  2  0  0  0
 26 27  1  0  0  0
 28102  1  0  0  0
 28103  1  0  0  0
 29104  1  0  0  0
 29105  1  0  0  0
 33 34  1  0  0  0
 33 66  1  0  0  0
 33 70  2  0  0  0
 34 36  1  0  0  0
 34 59  1  0  0  0
 34106  1  0  0  0
 35 44  2  0  0  0
 35 45  1  0  0  0
 35 68  1  0  0  0
 36 56  1  0  0  0
 36107  1  0  0  0
 37 39  1  0  0  0
 37 47  1  0  0  0
 37 66  1  0  0  0
 37108  1  0  0  0
 38 43  2  0  0  0
 38 46  1  0  0  0
 38 47  1  0  0  0
 39 64  1  0  0  0
 39 67  2  0  0  0
 40 52  1  0  0  0
 40 53  2  0  0  0
 40 58  1  0  0  0
 41109  1  0  0  0
 41110  1  0  0  0
 41111  1  0  0  0
 41 48  1  0  0  0
 42 43  1  0  0  0
 42 66  1  0  0  0
 42112  1  0  0  0
 42113  1  0  0  0
 43 44  1  0  0  0
 44114  1  0  0  0
 45 46  2  0  0  0
 45115  1  0  0  0
 46116  1  0  0  0
 47117  1  0  0  0
 47118  1  0  0  0
 48 56  1  0  0  0
 48 65  1  0  0  0
 48119  1  0  0  0
 49 50  1  0  0  0
 49 53  1  0  0  0
 49 64  1  0  0  0
 49120  1  0  0  0
 50 51  1  0  0  0
 50121  1  0  0  0
 50122  1  0  0  0
 51 52  1  0  0  0
 51123  1  0  0  0
 51124  1  0  0  0
 52125  1  0  0  0
 52126  1  0  0  0
 53 54  1  0  0  0
 54 55  2  0  0  0
 54127  1  0  0  0
 55 57  1  0  0  0
 55128  1  0  0  0
 56 69  2  0  0  0
 57 58  2  0  0  0
 57129  1  0  0  0
 58130  1  0  0  0
 59 60  1  0  0  0
 59 61  1  0  0  0
 59 62  1  0  0  0
 60131  1  0  0  0
 60132  1  0  0  0
 60133  1  0  0  0
 61134  1  0  0  0
 61135  1  0  0  0
 61136  1  0  0  0
 62137  1  0  0  0
 62138  1  0  0  0
 62139  1  0  0  0
 63 65  1  0  0  0
 63140  1  0  0  0
 63141  1  0  0  0
 63142  1  0  0  0
 64143  1  0  0  0
 65144  1  0  0  0
 68 81  1  0  0  0
 71 73  2  0  0  0
 71 75  1  0  0  0
 71145  1  0  0  0
 72 74  1  0  0  0
 72 75  2  0  0  0
 72146  1  0  0  0
 73 76  1  0  0  0
 73147  1  0  0  0
 74 76  2  0  0  0
 74148  1  0  0  0
 75 80  1  0  0  0
 76 84  1  0  0  0
 77 81  1  0  0  0
 77 83  1  0  0  0
 77 85  2  0  0  0
 78149  1  0  0  0
 78150  1  0  0  0
 78151  1  0  0  0
 78 83  1  0  0  0
 79 83  1  0  0  0
 79152  1  0  0  0
 79153  1  0  0  0
 79154  1  0  0  0
 80 82  1  0  0  0
 80155  1  0  0  0
 80156  1  0  0  0
 81157  1  0  0  0
 81158  1  0  0  0
 82 83  1  0  0  0
 82159  1  0  0  0
 82160  1  0  0  0
 84161  1  0  0  0
M  ISO  4   1 100  68 101  81 101  84 100
M  END
> <chiral flag>
0

> <version>
0

> <s_m_source_file>
/data/baiqing/PycharmProjects/Reinvent-master-3.2/result/LINK_invent/BTK/process_docking_weight1_custom_product_contain_oxygen_bond_distance_aromatic_linkinvent_7_9_3/rearranged_h_0136.sdf

> <i_m_source_file_index>
80

> <r_mmod_Potential_Energy-OPLS-2005>
46.2919654846191

> <r_mmod_Stretch_Energy-OPLS-2005>
41.8175773620605

> <r_mmod_Bend_Energy-OPLS-2005>
101.406059265137

> <r_mmod_Torsional_Energy-OPLS-2005>
252.08984375

> <r_mmod_Improper_Torsional_Energy-OPLS-2005>
3.03538060188293

> <r_mmod_Van_der_Waal_Energy-OPLS-2005>
176.80241394043

> <r_mmod_Electrostatic_Energy-OPLS-2005>
-320.287475585938

> <r_mmod_Solvation_Energy-OPLS-2005>
-221.606369018555

> <b_mmod_Minimization_Converged-OPLS-2005>
0

> <r_mmod_RMS_Derivative-OPLS-2005>
3.92638397216797

$$$$
80
                    3D
 Structure written by MMmdl.
171179  0  0  1  0            999 V2000
  -30.6593  -14.5633   20.5577 C   0  0  0  0  0  0
  -30.4488  -12.3482   19.4533 C   0  0  0  0  0  0
  -29.5219  -12.4965   18.2267 C   0  0  0  0  0  0
  -28.0432  -12.3257   18.6341 C   0  0  0  0  0  0
  -27.6653  -13.1796   19.8712 C   0  0  2  0  0  0
  -28.7064  -13.0010   21.0017 C   0  0  0  0  0  0
  -25.2633  -13.7989   20.5723 C   0  0  0  0  0  0
  -24.1861  -13.0321   20.9242 C   0  0  0  0  0  0
  -24.6373  -11.6789   20.8748 C   0  0  0  0  0  0
  -23.9010  -10.4202   21.0388 C   0  0  0  0  0  0
  -24.3571   -9.4138   21.9177 C   0  0  0  0  0  0
  -23.6241   -8.2192   22.0754 C   0  0  0  0  0  0
  -22.4234   -8.0211   21.3531 C   0  0  0  0  0  0
  -21.9861   -9.0184   20.4634 C   0  0  0  0  0  0
  -22.7183  -10.2066   20.3032 C   0  0  0  0  0  0
  -21.6838   -6.0691   22.5286 C   0  0  0  0  0  0
  -21.4017   -6.5613   23.8217 C   0  0  0  0  0  0
  -21.3682   -5.6765   24.9198 C   0  0  0  0  0  0
  -21.6058   -4.3026   24.7252 C   0  0  0  0  0  0
  -21.8810   -3.8118   23.4375 C   0  0  0  0  0  0
  -21.9185   -4.6927   22.3424 C   0  0  0  0  0  0
  -22.7909  -13.5180   21.1900 C   0  0  0  0  0  0
  -22.1653   -4.2119   21.0997 F   0  0  0  0  0  0
  -21.5641   -3.4517   25.7777 F   0  0  0  0  0  0
  -30.0340  -13.3469   20.4580 N   0  0  0  0  0  0
  -26.3027  -12.9125   20.3299 N   0  0  0  0  0  0
  -25.9283  -11.6316   20.5706 N   0  0  0  0  0  0
  -22.0494  -12.8207   22.0428 N   0  0  0  0  0  0
  -25.4317  -15.1696   20.4171 N   0  0  0  0  0  0
  -31.7866  -14.7533   20.0839 O   0  0  0  0  0  0
  -21.6597   -6.8829   21.4240 O   0  0  0  0  0  0
  -22.3660  -14.5516   20.6729 O   0  0  0  0  0  0
  -24.6196  -31.8638   23.2017 C   0  0  0  0  0  0
  -25.9075  -32.4781   23.8334 C   0  0  1  0  0  0
  -27.2379  -27.3601   20.1368 C   0  0  0  0  0  0
  -25.5889  -33.8583   24.2254 N   0  0  0  0  0  0
  -23.4127  -30.4842   21.5465 C   0  0  2  0  0  0
  -24.8640  -28.9398   20.1205 C   0  0  0  0  0  0
  -22.7439  -29.4639   22.4971 C   0  0  0  0  0  0
  -18.0266  -28.1406   22.8492 C   0  0  0  0  0  0
  -24.1509  -36.7291   23.2643 C   0  0  0  0  0  0
  -25.9503  -30.8055   21.3739 C   0  0  0  0  0  0
  -26.0287  -29.4365   20.7203 C   0  0  0  0  0  0
  -27.2185  -28.6576   20.7210 C   0  0  0  0  0  0
  -26.0585  -26.9105   19.5030 C   0  0  0  0  0  0
  -24.8761  -27.6749   19.5128 C   0  0  0  0  0  0
  -23.6248  -29.8075   20.1669 C   0  0  0  0  0  0
  -25.4135  -36.3081   24.0326 C   0  0  1  0  0  0
  -20.5875  -28.3681   23.1294 C   0  0  2  0  0  0
  -20.6772  -26.9404   22.5418 C   0  0  0  0  0  0
  -19.5734  -26.6384   21.5231 C   0  0  0  0  0  0
  -18.1904  -26.7940   22.1629 C   0  0  0  0  0  0
  -19.1536  -28.8855   23.2884 C   0  0  0  0  0  0
  -18.9462  -30.1464   23.8891 C   0  0  0  0  0  0
  -17.6473  -30.6602   24.0563 C   0  0  0  0  0  0
  -25.9057  -34.9451   23.5106 C   0  0  0  0  0  0
  -16.5349  -29.9108   23.6354 C   0  0  0  0  0  0
  -16.7263  -28.6532   23.0356 C   0  0  0  0  0  0
  -26.4478  -31.6569   25.0686 C   0  0  0  0  0  0
  -25.3692  -31.3721   26.1393 C   0  0  0  0  0  0
  -27.0316  -30.2978   24.6152 C   0  0  0  0  0  0
  -27.6034  -32.4318   25.7439 C   0  0  0  0  0  0
  -27.5600  -37.1782   24.8458 C   0  0  0  0  0  0
  -21.4160  -29.3018   22.3676 N   0  0  0  0  0  0
  -26.4323  -37.3760   23.9399 N   0  0  0  0  0  0
  -24.6788  -31.0696   22.0962 N   0  0  0  0  0  0
  -23.4174  -28.8198   23.3050 O   0  0  0  0  0  0
  -28.3812  -26.5562   20.1118 O   0  0  0  0  0  0
  -26.5639  -34.8901   22.4670 O   0  0  0  0  0  0
  -23.5368  -32.1423   23.7368 O   0  0  0  0  0  0
  -28.8255  -19.4586   19.9516 C   0  0  0  0  0  0
  -28.4694  -17.0746   20.0447 C   0  0  0  0  0  0
  -27.9978  -18.3517   19.7033 C   0  0  0  0  0  0
  -30.0743  -19.2664   20.5794 C   0  0  0  0  0  0
  -29.7091  -16.8965   20.6759 C   0  0  0  0  0  0
  -26.6491  -18.4824   19.0943 C   0  0  0  0  0  0
  -30.5796  -21.8762   20.2776 C   0  0  0  0  0  0
  -25.7872  -19.6445   19.5716 C   0  0  0  0  0  0
  -31.0486  -20.6421   22.4770 C   0  0  0  0  0  0
  -32.4288  -20.1857   20.4202 C   0  0  0  0  0  0
  -27.1421  -24.5750   21.1192 C   0  0  0  0  0  0
  -29.0095  -25.7867   22.3100 C   0  0  0  0  0  0
  -29.8027  -22.9723   21.0741 C   0  0  0  0  0  0
  -29.5120  -24.3286   20.3019 C   0  0  0  0  0  0
  -30.9965  -20.4880   20.9372 C   0  0  0  0  0  0
  -28.4793  -25.3346   20.9385 C   0  0  0  0  0  0
  -30.4806  -17.9971   20.9510 N   0  0  0  0  0  0
  -29.9385  -15.5513   21.1456 N   0  0  0  0  0  0
  -26.1751  -17.6540   18.3121 O   0  0  0  0  0  0
  -30.8615  -22.1032   19.0958 O   0  0  0  0  0  0
  -31.4939  -12.4646   19.1595 H   0  0  0  0  0  0
  -30.3694  -11.3408   19.8657 H   0  0  0  0  0  0
  -29.7869  -11.7580   17.4688 H   0  0  0  0  0  0
  -29.6766  -13.4752   17.7677 H   0  0  0  0  0  0
  -27.8832  -11.2673   18.8483 H   0  0  0  0  0  0
  -27.3925  -12.5631   17.7927 H   0  0  0  0  0  0
  -27.6966  -14.2081   19.5341 H   0  0  0  0  0  0
  -28.7105  -11.9606   21.3364 H   0  0  0  0  0  0
  -28.4440  -13.5843   21.8850 H   0  0  0  0  0  0
  -25.2720   -9.5636   22.4746 H   0  0  0  0  0  0
  -23.9926   -7.4614   22.7506 H   0  0  0  0  0  0
  -21.0770   -8.8664   19.8994 H   0  0  0  0  0  0
  -22.3591  -10.9574   19.6134 H   0  0  0  0  0  0
  -21.1984   -7.6110   23.9712 H   0  0  0  0  0  0
  -21.1548   -6.0511   25.9092 H   0  0  0  0  0  0
  -22.0576   -2.7573   23.2896 H   0  0  0  0  0  0
  -22.4017  -11.9834   22.4838 H   0  0  0  0  0  0
  -21.1149  -13.1343   22.2644 H   0  0  0  0  0  0
  -24.6416  -15.7982   20.5002 H   0  0  0  0  0  0
  -26.1889  -15.5650   19.8776 H   0  0  0  0  0  0
  -26.7136  -32.5491   23.1082 H   0  0  0  0  0  0
  -24.9931  -33.9727   25.0325 H   0  0  0  0  0  0
  -22.7049  -31.3035   21.3985 H   0  0  0  0  0  0
  -23.3770  -35.9622   23.3310 H   0  0  0  0  0  0
  -24.3599  -36.8903   22.2055 H   0  0  0  0  0  0
  -23.7261  -37.6494   23.6660 H   0  0  0  0  0  0
  -26.0968  -31.5726   20.6131 H   0  0  0  0  0  0
  -26.8231  -30.8413   22.0137 H   0  0  0  0  0  0
  -28.1167  -29.0408   21.1837 H   0  0  0  0  0  0
  -26.0351  -25.9428   19.0245 H   0  0  0  0  0  0
  -23.9768  -27.2798   19.0644 H   0  0  0  0  0  0
  -23.7255  -30.5741   19.3974 H   0  0  0  0  0  0
  -22.7480  -29.2224   19.8831 H   0  0  0  0  0  0
  -25.1324  -36.1934   25.0819 H   0  0  0  0  0  0
  -20.9970  -28.3264   24.1418 H   0  0  0  0  0  0
  -20.5721  -26.2278   23.3620 H   0  0  0  0  0  0
  -21.6628  -26.7458   22.1173 H   0  0  0  0  0  0
  -19.6905  -25.6305   21.1241 H   0  0  0  0  0  0
  -19.6696  -27.3212   20.6781 H   0  0  0  0  0  0
  -17.4189  -26.6714   21.4007 H   0  0  0  0  0  0
  -18.0264  -26.0086   22.9025 H   0  0  0  0  0  0
  -19.7942  -30.7283   24.2233 H   0  0  0  0  0  0
  -17.5029  -31.6284   24.5168 H   0  0  0  0  0  0
  -15.5360  -30.3009   23.7702 H   0  0  0  0  0  0
  -15.8652  -28.0869   22.7075 H   0  0  0  0  0  0
  -24.5843  -30.7131   25.7669 H   0  0  0  0  0  0
  -24.8921  -32.2903   26.4819 H   0  0  0  0  0  0
  -25.7957  -30.8841   27.0156 H   0  0  0  0  0  0
  -26.2881  -29.6721   24.1203 H   0  0  0  0  0  0
  -27.4022  -29.7248   25.4659 H   0  0  0  0  0  0
  -27.8744  -30.4240   23.9357 H   0  0  0  0  0  0
  -27.2622  -33.3589   26.2044 H   0  0  0  0  0  0
  -28.3785  -32.6932   25.0230 H   0  0  0  0  0  0
  -28.0760  -31.8447   26.5317 H   0  0  0  0  0  0
  -28.2594  -38.0099   24.7519 H   0  0  0  0  0  0
  -28.1119  -36.2628   24.6276 H   0  0  0  0  0  0
  -27.2304  -37.1398   25.8853 H   0  0  0  0  0  0
  -20.9352  -29.8695   21.6849 H   0  0  0  0  0  0
  -26.0223  -38.2840   24.1373 H   0  0  0  0  0  0
  -28.4780  -20.4401   19.6571 H   0  0  0  0  0  0
  -27.8257  -16.2367   19.8584 H   0  0  0  0  0  0
  -26.0272  -19.8836   20.6083 H   0  0  0  0  0  0
  -24.7355  -19.3635   19.5253 H   0  0  0  0  0  0
  -25.9447  -20.5268   18.9539 H   0  0  0  0  0  0
  -30.0657  -20.8643   22.8934 H   0  0  0  0  0  0
  -31.7279  -21.4366   22.7854 H   0  0  0  0  0  0
  -31.3995  -19.7304   22.9606 H   0  0  0  0  0  0
  -32.4388  -20.0123   19.3420 H   0  0  0  0  0  0
  -32.8554  -19.3011   20.8924 H   0  0  0  0  0  0
  -33.1110  -21.0126   20.6246 H   0  0  0  0  0  0
  -27.2396  -23.7778   21.8557 H   0  0  0  0  0  0
  -26.8151  -24.1051   20.1921 H   0  0  0  0  0  0
  -26.3401  -25.2149   21.4851 H   0  0  0  0  0  0
  -29.1207  -24.9401   22.9868 H   0  0  0  0  0  0
  -28.3435  -26.5009   22.7933 H   0  0  0  0  0  0
  -29.9911  -26.2535   22.2171 H   0  0  0  0  0  0
  -30.3462  -23.1970   21.9935 H   0  0  0  0  0  0
  -28.8690  -22.5048   21.3780 H   0  0  0  0  0  0
  -29.1702  -24.0932   19.2951 H   0  0  0  0  0  0
  -30.4577  -24.8552   20.1708 H   0  0  0  0  0  0
  -29.1165  -15.1619   21.5800 H   0  0  0  0  0  0
  1 25  1  0  0  0
  1 30  2  0  0  0
  1 88  1  0  0  0
  2  3  1  0  0  0
  2 25  1  0  0  0
  2 91  1  0  0  0
  2 92  1  0  0  0
  3  4  1  0  0  0
  3 93  1  0  0  0
  3 94  1  0  0  0
  4  5  1  0  0  0
  4 95  1  0  0  0
  4 96  1  0  0  0
  5  6  1  0  0  0
  5 26  1  0  0  0
  5 97  1  0  0  0
  6 25  1  0  0  0
  6 98  1  0  0  0
  6 99  1  0  0  0
  7  8  2  0  0  0
  7 26  1  0  0  0
  7 29  1  0  0  0
  8  9  1  0  0  0
  8 22  1  0  0  0
  9 10  1  0  0  0
  9 27  2  0  0  0
 10 11  2  0  0  0
 10 15  1  0  0  0
 11 12  1  0  0  0
 11100  1  0  0  0
 12 13  2  0  0  0
 12101  1  0  0  0
 13 14  1  0  0  0
 13 31  1  0  0  0
 14 15  2  0  0  0
 14102  1  0  0  0
 15103  1  0  0  0
 16 17  2  0  0  0
 16 21  1  0  0  0
 16 31  1  0  0  0
 17 18  1  0  0  0
 17104  1  0  0  0
 18 19  2  0  0  0
 18105  1  0  0  0
 19 20  1  0  0  0
 19 24  1  0  0  0
 20 21  2  0  0  0
 20106  1  0  0  0
 21 23  1  0  0  0
 22 28  1  0  0  0
 22 32  2  0  0  0
 26 27  1  0  0  0
 28107  1  0  0  0
 28108  1  0  0  0
 29109  1  0  0  0
 29110  1  0  0  0
 33 34  1  0  0  0
 33 66  1  0  0  0
 33 70  2  0  0  0
 34 36  1  0  0  0
 34 59  1  0  0  0
 34111  1  0  0  0
 35 44  2  0  0  0
 35 45  1  0  0  0
 35 68  1  0  0  0
 36 56  1  0  0  0
 36112  1  0  0  0
 37 39  1  0  0  0
 37 47  1  0  0  0
 37 66  1  0  0  0
 37113  1  0  0  0
 38 43  2  0  0  0
 38 46  1  0  0  0
 38 47  1  0  0  0
 39 64  1  0  0  0
 39 67  2  0  0  0
 40 52  1  0  0  0
 40 53  2  0  0  0
 40 58  1  0  0  0
 41114  1  0  0  0
 41115  1  0  0  0
 41116  1  0  0  0
 41 48  1  0  0  0
 42 43  1  0  0  0
 42 66  1  0  0  0
 42117  1  0  0  0
 42118  1  0  0  0
 43 44  1  0  0  0
 44119  1  0  0  0
 45 46  2  0  0  0
 45120  1  0  0  0
 46121  1  0  0  0
 47122  1  0  0  0
 47123  1  0  0  0
 48 56  1  0  0  0
 48 65  1  0  0  0
 48124  1  0  0  0
 49 50  1  0  0  0
 49 53  1  0  0  0
 49 64  1  0  0  0
 49125  1  0  0  0
 50 51  1  0  0  0
 50126  1  0  0  0
 50127  1  0  0  0
 51 52  1  0  0  0
 51128  1  0  0  0
 51129  1  0  0  0
 52130  1  0  0  0
 52131  1  0  0  0
 53 54  1  0  0  0
 54 55  2  0  0  0
 54132  1  0  0  0
 55 57  1  0  0  0
 55133  1  0  0  0
 56 69  2  0  0  0
 57 58  2  0  0  0
 57134  1  0  0  0
 58135  1  0  0  0
 59 60  1  0  0  0
 59 61  1  0  0  0
 59 62  1  0  0  0
 60136  1  0  0  0
 60137  1  0  0  0
 60138  1  0  0  0
 61139  1  0  0  0
 61140  1  0  0  0
 61141  1  0  0  0
 62142  1  0  0  0
 62143  1  0  0  0
 62144  1  0  0  0
 63 65  1  0  0  0
 63145  1  0  0  0
 63146  1  0  0  0
 63147  1  0  0  0
 64148  1  0  0  0
 65149  1  0  0  0
 68 86  1  0  0  0
 71 73  2  0  0  0
 71 74  1  0  0  0
 71150  1  0  0  0
 72 73  1  0  0  0
 72 75  2  0  0  0
 72151  1  0  0  0
 73 76  1  0  0  0
 74 85  1  0  0  0
 74 87  2  0  0  0
 75 87  1  0  0  0
 75 88  1  0  0  0
 76 78  1  0  0  0
 76 89  2  0  0  0
 77 83  1  0  0  0
 77 85  1  0  0  0
 77 90  2  0  0  0
 78152  1  0  0  0
 78153  1  0  0  0
 78154  1  0  0  0
 79155  1  0  0  0
 79156  1  0  0  0
 79157  1  0  0  0
 79 85  1  0  0  0
 80 85  1  0  0  0
 80158  1  0  0  0
 80159  1  0  0  0
 80160  1  0  0  0
 81161  1  0  0  0
 81162  1  0  0  0
 81163  1  0  0  0
 81 86  1  0  0  0
 82 86  1  0  0  0
 82164  1  0  0  0
 82165  1  0  0  0
 82166  1  0  0  0
 83 84  1  0  0  0
 83167  1  0  0  0
 83168  1  0  0  0
 84 86  1  0  0  0
 84169  1  0  0  0
 84170  1  0  0  0
 88171  1  0  0  0
M  ISO  4   1 100  68 101  86 101  88 100
M  END
> <chiral flag>
0

> <version>
0

> <s_m_source_file>
/data/baiqing/PycharmProjects/Reinvent-master-3.2/result/LINK_invent/BTK/process_docking_weight1_custom_product_contain_oxygen_bond_distance_aromatic_linkinvent_7_9_3/rearranged_h_0136.sdf

> <i_m_source_file_index>
81

> <r_mmod_Potential_Energy-OPLS-2005>
-113.916664123535

> <r_mmod_Stretch_Energy-OPLS-2005>
73.2285003662109

> <r_mmod_Bend_Energy-OPLS-2005>
134.556793212891

> <r_mmod_Torsional_Energy-OPLS-2005>
299.010650634766

> <r_mmod_Improper_Torsional_Energy-OPLS-2005>
8.76475620269775

> <r_mmod_Van_der_Waal_Energy-OPLS-2005>
153.012145996094

> <r_mmod_Electrostatic_Energy-OPLS-2005>
-573.280151367188

> <r_mmod_Solvation_Energy-OPLS-2005>
-236.838134765625

> <b_mmod_Minimization_Converged-OPLS-2005>
0

> <r_mmod_RMS_Derivative-OPLS-2005>
4.42687511444092

$$$$
81
                    3D
 Structure written by MMmdl.
160168  0  0  1  0            999 V2000
  -30.5714  -14.5913   20.5772 C   0  0  0  0  0  0
  -30.4464  -12.3804   19.4355 C   0  0  0  0  0  0
  -29.5041  -12.5103   18.2159 C   0  0  0  0  0  0
  -28.0231  -12.3428   18.6247 C   0  0  0  0  0  0
  -27.6499  -13.1893   19.8690 C   0  0  2  0  0  0
  -28.6916  -12.9744   20.9894 C   0  0  0  0  0  0
  -25.2556  -13.8105   20.5636 C   0  0  0  0  0  0
  -24.1800  -13.0415   20.9152 C   0  0  0  0  0  0
  -24.6331  -11.6865   20.8694 C   0  0  0  0  0  0
  -23.9001  -10.4279   21.0384 C   0  0  0  0  0  0
  -24.3579   -9.4198   21.9164 C   0  0  0  0  0  0
  -23.6272   -8.2226   22.0763 C   0  0  0  0  0  0
  -22.4257   -8.0254   21.3555 C   0  0  0  0  0  0
  -21.9861   -9.0209   20.4648 C   0  0  0  0  0  0
  -22.7162  -10.2103   20.3039 C   0  0  0  0  0  0
  -21.6858   -6.0703   22.5276 C   0  0  0  0  0  0
  -21.4002   -6.5627   23.8199 C   0  0  0  0  0  0
  -21.3655   -5.6791   24.9172 C   0  0  0  0  0  0
  -21.6051   -4.3055   24.7229 C   0  0  0  0  0  0
  -21.8818   -3.8130   23.4355 C   0  0  0  0  0  0
  -21.9197   -4.6936   22.3400 C   0  0  0  0  0  0
  -22.7821  -13.5224   21.1824 C   0  0  0  0  0  0
  -22.1664   -4.2118   21.0978 F   0  0  0  0  0  0
  -21.5634   -3.4539   25.7747 F   0  0  0  0  0  0
  -30.0033  -13.3582   20.4414 N   0  0  0  0  0  0
  -26.2948  -12.9214   20.3291 N   0  0  0  0  0  0
  -25.9249  -11.6423   20.5746 N   0  0  0  0  0  0
  -22.0508  -12.8212   22.0417 N   0  0  0  0  0  0
  -25.4256  -15.1800   20.3962 N   0  0  0  0  0  0
  -31.7281  -14.8331   20.2147 O   0  0  0  0  0  0
  -21.6637   -6.8832   21.4246 O   0  0  0  0  0  0
  -22.3504  -14.5547   20.6697 O   0  0  0  0  0  0
  -24.6157  -31.8643   23.2045 C   0  0  0  0  0  0
  -25.9012  -32.4843   23.8361 C   0  0  1  0  0  0
  -27.2347  -27.3573   20.1711 C   0  0  0  0  0  0
  -25.5824  -33.8654   24.2291 N   0  0  0  0  0  0
  -23.4141  -30.4871   21.5410 C   0  0  2  0  0  0
  -24.8691  -28.9333   20.1243 C   0  0  0  0  0  0
  -22.7453  -29.4666   22.4907 C   0  0  0  0  0  0
  -18.0300  -28.1405   22.8490 C   0  0  0  0  0  0
  -24.1497  -36.7279   23.2654 C   0  0  0  0  0  0
  -25.9452  -30.8114   21.3662 C   0  0  0  0  0  0
  -26.0243  -29.4353   20.7305 C   0  0  0  0  0  0
  -27.2126  -28.6566   20.7464 C   0  0  0  0  0  0
  -26.0663  -26.8906   19.5334 C   0  0  0  0  0  0
  -24.8848  -27.6639   19.5199 C   0  0  0  0  0  0
  -23.6323  -29.8071   20.1581 C   0  0  0  0  0  0
  -25.4123  -36.3145   24.0369 C   0  0  1  0  0  0
  -20.5891  -28.3682   23.1294 C   0  0  2  0  0  0
  -20.6797  -26.9411   22.5419 C   0  0  0  0  0  0
  -19.5772  -26.6385   21.5214 C   0  0  0  0  0  0
  -18.1953  -26.7951   22.1617 C   0  0  0  0  0  0
  -19.1557  -28.8862   23.2893 C   0  0  0  0  0  0
  -18.9491  -30.1471   23.8898 C   0  0  0  0  0  0
  -17.6497  -30.6601   24.0585 C   0  0  0  0  0  0
  -25.9049  -34.9508   23.5147 C   0  0  0  0  0  0
  -16.5388  -29.9128   23.6335 C   0  0  0  0  0  0
  -16.7288  -28.6553   23.0340 C   0  0  0  0  0  0
  -26.4392  -31.6672   25.0711 C   0  0  0  0  0  0
  -25.3648  -31.3789   26.1472 C   0  0  0  0  0  0
  -27.0170  -30.3133   24.6020 C   0  0  0  0  0  0
  -27.5960  -32.4402   25.7462 C   0  0  0  0  0  0
  -27.5600  -37.1809   24.8474 C   0  0  0  0  0  0
  -21.4171  -29.3058   22.3683 N   0  0  0  0  0  0
  -26.4312  -37.3829   23.9435 N   0  0  0  0  0  0
  -24.6772  -31.0729   22.0967 N   0  0  0  0  0  0
  -23.4193  -28.8200   23.2977 O   0  0  0  0  0  0
  -28.3775  -26.5647   20.1410 O   0  0  0  0  0  0
  -26.5610  -34.8964   22.4712 O   0  0  0  0  0  0
  -23.5337  -32.1363   23.7421 O   0  0  0  0  0  0
  -29.5866  -18.0506   23.6934 C   0  0  0  0  0  0
  -29.4549  -19.2796   23.0081 C   0  0  0  0  0  0
  -29.6263  -18.0911   20.8928 C   0  0  0  0  0  0
  -29.7138  -16.8319   22.9866 C   0  0  0  0  0  0
  -29.7656  -16.8341   21.5696 C   0  0  0  0  0  0
  -29.4566  -19.3314   21.5930 C   0  0  0  0  0  0
  -28.8779  -23.0265   21.3804 C   0  0  0  0  0  0
  -28.1672  -24.1628   21.0836 C   0  0  0  0  0  0
  -28.4094  -26.2226   22.6285 C   0  0  0  0  0  0
  -28.6365  -15.3559   24.5813 C   0  0  0  0  0  0
  -28.3643  -21.5589   21.3033 C   0  0  0  0  0  0
  -28.6792  -25.6291   21.2298 C   0  0  1  0  0  0
  -29.6623  -15.5613   20.8865 N   0  0  0  0  0  0
  -29.7428  -15.6047   23.6616 N   0  0  0  0  0  0
  -29.3447  -20.5482   20.8997 O   0  0  0  0  0  0
  -31.4815  -12.5485   19.1328 H   0  0  0  0  0  0
  -30.4070  -11.3723   19.8506 H   0  0  0  0  0  0
  -29.7695  -11.7720   17.4578 H   0  0  0  0  0  0
  -29.6380  -13.4865   17.7507 H   0  0  0  0  0  0
  -27.8509  -11.2855   18.8302 H   0  0  0  0  0  0
  -27.3695  -12.5929   17.7890 H   0  0  0  0  0  0
  -27.6855  -14.2312   19.5581 H   0  0  0  0  0  0
  -28.7062  -11.9263   21.2902 H   0  0  0  0  0  0
  -28.4365  -13.5301   21.8919 H   0  0  0  0  0  0
  -25.2740   -9.5704   22.4704 H   0  0  0  0  0  0
  -24.0002   -7.4634   22.7480 H   0  0  0  0  0  0
  -21.0793   -8.8694   19.8946 H   0  0  0  0  0  0
  -22.3606  -10.9623   19.6132 H   0  0  0  0  0  0
  -21.1994   -7.6136   23.9692 H   0  0  0  0  0  0
  -21.1479   -6.0522   25.9068 H   0  0  0  0  0  0
  -22.0608   -2.7591   23.2863 H   0  0  0  0  0  0
  -22.4207  -11.9878   22.4747 H   0  0  0  0  0  0
  -21.1133  -13.1184   22.2689 H   0  0  0  0  0  0
  -24.6527  -15.8272   20.5044 H   0  0  0  0  0  0
  -26.2547  -15.6223   20.0229 H   0  0  0  0  0  0
  -26.7075  -32.5515   23.1113 H   0  0  0  0  0  0
  -25.0000  -33.9809   25.0450 H   0  0  0  0  0  0
  -22.7101  -31.3086   21.3925 H   0  0  0  0  0  0
  -23.3814  -35.9552   23.3332 H   0  0  0  0  0  0
  -24.3591  -36.8852   22.2060 H   0  0  0  0  0  0
  -23.7183  -37.6474   23.6622 H   0  0  0  0  0  0
  -26.0604  -31.5697   20.5890 H   0  0  0  0  0  0
  -26.8323  -30.8766   21.9857 H   0  0  0  0  0  0
  -28.1048  -29.0419   21.2190 H   0  0  0  0  0  0
  -26.0607  -25.9199   19.0584 H   0  0  0  0  0  0
  -23.9942  -27.2729   19.0470 H   0  0  0  0  0  0
  -23.7556  -30.5708   19.3914 H   0  0  0  0  0  0
  -22.7551  -29.2308   19.8541 H   0  0  0  0  0  0
  -25.1332  -36.2029   25.0862 H   0  0  0  0  0  0
  -21.0017  -28.3255   24.1389 H   0  0  0  0  0  0
  -20.5742  -26.2272   23.3603 H   0  0  0  0  0  0
  -21.6670  -26.7477   22.1194 H   0  0  0  0  0  0
  -19.6967  -25.6290   21.1246 H   0  0  0  0  0  0
  -19.6757  -27.3193   20.6749 H   0  0  0  0  0  0
  -17.4256  -26.6693   21.4012 H   0  0  0  0  0  0
  -18.0386  -26.0104   22.9026 H   0  0  0  0  0  0
  -19.7981  -30.7285   24.2270 H   0  0  0  0  0  0
  -17.5075  -31.6277   24.5176 H   0  0  0  0  0  0
  -15.5407  -30.3049   23.7664 H   0  0  0  0  0  0
  -15.8682  -28.0886   22.7046 H   0  0  0  0  0  0
  -24.5841  -30.7129   25.7799 H   0  0  0  0  0  0
  -24.8825  -32.2967   26.4894 H   0  0  0  0  0  0
  -25.8022  -30.8995   27.0253 H   0  0  0  0  0  0
  -26.2664  -29.7038   24.0994 H   0  0  0  0  0  0
  -27.3878  -29.7266   25.4425 H   0  0  0  0  0  0
  -27.8531  -30.4501   23.9164 H   0  0  0  0  0  0
  -27.2558  -33.3718   26.2017 H   0  0  0  0  0  0
  -28.3756  -32.6957   25.0278 H   0  0  0  0  0  0
  -28.0615  -31.8548   26.5426 H   0  0  0  0  0  0
  -28.2635  -38.0089   24.7582 H   0  0  0  0  0  0
  -28.1091  -36.2654   24.6271 H   0  0  0  0  0  0
  -27.2315  -37.1409   25.8865 H   0  0  0  0  0  0
  -20.9374  -29.8720   21.6826 H   0  0  0  0  0  0
  -26.0231  -38.2904   24.1487 H   0  0  0  0  0  0
  -29.5762  -18.0542   24.7742 H   0  0  0  0  0  0
  -29.3544  -20.1849   23.5913 H   0  0  0  0  0  0
  -29.5942  -18.1025   19.8144 H   0  0  0  0  0  0
  -29.8957  -23.1285   21.7439 H   0  0  0  0  0  0
  -27.1460  -24.0589   20.7392 H   0  0  0  0  0  0
  -28.8835  -27.1989   22.7265 H   0  0  0  0  0  0
  -28.8311  -25.6030   23.4224 H   0  0  0  0  0  0
  -27.3487  -26.3466   22.8399 H   0  0  0  0  0  0
  -28.5920  -14.2903   24.8115 H   0  0  0  0  0  0
  -27.6765  -15.6287   24.1339 H   0  0  0  0  0  0
  -28.7504  -15.8875   25.5279 H   0  0  0  0  0  0
  -27.5580  -21.5353   20.5680 H   0  0  0  0  0  0
  -27.8877  -21.3033   22.2500 H   0  0  0  0  0  0
  -29.7612  -25.5182   21.1709 H   0  0  0  0  0  0
  -28.7336  -15.1707   20.9487 H   0  0  0  0  0  0
  -29.8623  -14.8458   23.0006 H   0  0  0  0  0  0
  1 25  1  0  0  0
  1 30  2  0  0  0
  1 83  1  0  0  0
  2  3  1  0  0  0
  2 25  1  0  0  0
  2 86  1  0  0  0
  2 87  1  0  0  0
  3  4  1  0  0  0
  3 88  1  0  0  0
  3 89  1  0  0  0
  4  5  1  0  0  0
  4 90  1  0  0  0
  4 91  1  0  0  0
  5  6  1  0  0  0
  5 26  1  0  0  0
  5 92  1  0  0  0
  6 25  1  0  0  0
  6 93  1  0  0  0
  6 94  1  0  0  0
  7  8  2  0  0  0
  7 26  1  0  0  0
  7 29  1  0  0  0
  8  9  1  0  0  0
  8 22  1  0  0  0
  9 10  1  0  0  0
  9 27  2  0  0  0
 10 11  2  0  0  0
 10 15  1  0  0  0
 11 12  1  0  0  0
 11 95  1  0  0  0
 12 13  2  0  0  0
 12 96  1  0  0  0
 13 14  1  0  0  0
 13 31  1  0  0  0
 14 15  2  0  0  0
 14 97  1  0  0  0
 15 98  1  0  0  0
 16 17  2  0  0  0
 16 21  1  0  0  0
 16 31  1  0  0  0
 17 18  1  0  0  0
 17 99  1  0  0  0
 18 19  2  0  0  0
 18100  1  0  0  0
 19 20  1  0  0  0
 19 24  1  0  0  0
 20 21  2  0  0  0
 20101  1  0  0  0
 21 23  1  0  0  0
 22 28  1  0  0  0
 22 32  2  0  0  0
 26 27  1  0  0  0
 28102  1  0  0  0
 28103  1  0  0  0
 29104  1  0  0  0
 29105  1  0  0  0
 33 34  1  0  0  0
 33 66  1  0  0  0
 33 70  2  0  0  0
 34 36  1  0  0  0
 34 59  1  0  0  0
 34106  1  0  0  0
 35 44  2  0  0  0
 35 45  1  0  0  0
 35 68  1  0  0  0
 36 56  1  0  0  0
 36107  1  0  0  0
 37 39  1  0  0  0
 37 47  1  0  0  0
 37 66  1  0  0  0
 37108  1  0  0  0
 38 43  2  0  0  0
 38 46  1  0  0  0
 38 47  1  0  0  0
 39 64  1  0  0  0
 39 67  2  0  0  0
 40 52  1  0  0  0
 40 53  2  0  0  0
 40 58  1  0  0  0
 41109  1  0  0  0
 41110  1  0  0  0
 41111  1  0  0  0
 41 48  1  0  0  0
 42 43  1  0  0  0
 42 66  1  0  0  0
 42112  1  0  0  0
 42113  1  0  0  0
 43 44  1  0  0  0
 44114  1  0  0  0
 45 46  2  0  0  0
 45115  1  0  0  0
 46116  1  0  0  0
 47117  1  0  0  0
 47118  1  0  0  0
 48 56  1  0  0  0
 48 65  1  0  0  0
 48119  1  0  0  0
 49 50  1  0  0  0
 49 53  1  0  0  0
 49 64  1  0  0  0
 49120  1  0  0  0
 50 51  1  0  0  0
 50121  1  0  0  0
 50122  1  0  0  0
 51 52  1  0  0  0
 51123  1  0  0  0
 51124  1  0  0  0
 52125  1  0  0  0
 52126  1  0  0  0
 53 54  1  0  0  0
 54 55  2  0  0  0
 54127  1  0  0  0
 55 57  1  0  0  0
 55128  1  0  0  0
 56 69  2  0  0  0
 57 58  2  0  0  0
 57129  1  0  0  0
 58130  1  0  0  0
 59 60  1  0  0  0
 59 61  1  0  0  0
 59 62  1  0  0  0
 60131  1  0  0  0
 60132  1  0  0  0
 60133  1  0  0  0
 61134  1  0  0  0
 61135  1  0  0  0
 61136  1  0  0  0
 62137  1  0  0  0
 62138  1  0  0  0
 62139  1  0  0  0
 63 65  1  0  0  0
 63140  1  0  0  0
 63141  1  0  0  0
 63142  1  0  0  0
 64143  1  0  0  0
 65144  1  0  0  0
 68 82  1  0  0  0
 71 72  2  0  0  0
 71 74  1  0  0  0
 71145  1  0  0  0
 72 76  1  0  0  0
 72146  1  0  0  0
 73 75  1  0  0  0
 73 76  2  0  0  0
 73147  1  0  0  0
 74 75  2  0  0  0
 74 84  1  0  0  0
 75 83  1  0  0  0
 76 85  1  0  0  0
 77 78  2  0  0  0
 77 81  1  0  0  0
 77148  1  0  0  0
 78 82  1  0  0  0
 78149  1  0  0  0
 79150  1  0  0  0
 79151  1  0  0  0
 79152  1  0  0  0
 79 82  1  0  0  0
 80 84  1  0  0  0
 80153  1  0  0  0
 80154  1  0  0  0
 80155  1  0  0  0
 81 85  1  0  0  0
 81156  1  0  0  0
 81157  1  0  0  0
 82158  1  0  0  0
 83159  1  0  0  0
 84160  1  0  0  0
M  ISO  4   1 100  68 101  82 101  83 100
M  END
> <chiral flag>
0

> <version>
0

> <s_m_source_file>
/data/baiqing/PycharmProjects/Reinvent-master-3.2/result/LINK_invent/BTK/process_docking_weight1_custom_product_contain_oxygen_bond_distance_aromatic_linkinvent_7_9_3/rearranged_h_0136.sdf

> <i_m_source_file_index>
82

> <r_mmod_Potential_Energy-OPLS-2005>
-6.59159564971924

> <r_mmod_Stretch_Energy-OPLS-2005>
64.5572738647461

> <r_mmod_Bend_Energy-OPLS-2005>
135.42839050293

> <r_mmod_Torsional_Energy-OPLS-2005>
280.741394042969

> <r_mmod_Improper_Torsional_Energy-OPLS-2005>
15.5321159362793

> <r_mmod_Van_der_Waal_Energy-OPLS-2005>
140.061828613281

> <r_mmod_Electrostatic_Energy-OPLS-2005>
-458.062957763672

> <r_mmod_Solvation_Energy-OPLS-2005>
-221.811447143555

> <b_mmod_Minimization_Converged-OPLS-2005>
0

> <r_mmod_RMS_Derivative-OPLS-2005>
6.03720188140869

$$$$
82
                    3D
 Structure written by MMmdl.
159167  0  0  1  0            999 V2000
  -30.6508  -14.5845   20.6317 C   0  0  0  0  0  0
  -30.4474  -12.4087   19.4240 C   0  0  0  0  0  0
  -29.5029  -12.5626   18.2106 C   0  0  0  0  0  0
  -28.0205  -12.3937   18.6027 C   0  0  0  0  0  0
  -27.6570  -13.2152   19.8676 C   0  0  2  0  0  0
  -28.6972  -12.9765   20.9802 C   0  0  0  0  0  0
  -25.2522  -13.8197   20.5655 C   0  0  0  0  0  0
  -24.1787  -13.0475   20.9174 C   0  0  0  0  0  0
  -24.6352  -11.6931   20.8746 C   0  0  0  0  0  0
  -23.9020  -10.4319   21.0435 C   0  0  0  0  0  0
  -24.3581   -9.4231   21.9194 C   0  0  0  0  0  0
  -23.6274   -8.2256   22.0758 C   0  0  0  0  0  0
  -22.4239   -8.0297   21.3569 C   0  0  0  0  0  0
  -21.9873   -9.0255   20.4654 C   0  0  0  0  0  0
  -22.7205  -10.2134   20.3075 C   0  0  0  0  0  0
  -21.6848   -6.0734   22.5273 C   0  0  0  0  0  0
  -21.4000   -6.5639   23.8208 C   0  0  0  0  0  0
  -21.3658   -5.6795   24.9180 C   0  0  0  0  0  0
  -21.6065   -4.3056   24.7223 C   0  0  0  0  0  0
  -21.8814   -3.8141   23.4338 C   0  0  0  0  0  0
  -21.9184   -4.6963   22.3398 C   0  0  0  0  0  0
  -22.7801  -13.5269   21.1864 C   0  0  0  0  0  0
  -22.1652   -4.2163   21.0977 F   0  0  0  0  0  0
  -21.5640   -3.4525   25.7726 F   0  0  0  0  0  0
  -30.0243  -13.3720   20.4589 N   0  0  0  0  0  0
  -26.2970  -12.9377   20.3302 N   0  0  0  0  0  0
  -25.9274  -11.6528   20.5683 N   0  0  0  0  0  0
  -22.0412  -12.8310   22.0414 N   0  0  0  0  0  0
  -25.4267  -15.1945   20.4094 N   0  0  0  0  0  0
  -31.7252  -14.8316   20.0734 O   0  0  0  0  0  0
  -21.6649   -6.8869   21.4231 O   0  0  0  0  0  0
  -22.3500  -14.5592   20.6732 O   0  0  0  0  0  0
  -24.6243  -31.8591   23.2040 C   0  0  0  0  0  0
  -25.9114  -32.4769   23.8348 C   0  0  1  0  0  0
  -27.2018  -27.3219   20.1180 C   0  0  0  0  0  0
  -25.5959  -33.8580   24.2296 N   0  0  0  0  0  0
  -23.4135  -30.4812   21.5486 C   0  0  2  0  0  0
  -24.8508  -28.9285   20.1151 C   0  0  0  0  0  0
  -22.7414  -29.4644   22.4998 C   0  0  0  0  0  0
  -18.0250  -28.1452   22.8449 C   0  0  0  0  0  0
  -24.1464  -36.7255   23.2637 C   0  0  0  0  0  0
  -25.9496  -30.7889   21.3654 C   0  0  0  0  0  0
  -26.0212  -29.4131   20.7174 C   0  0  0  0  0  0
  -27.2024  -28.6217   20.7102 C   0  0  0  0  0  0
  -26.0163  -26.8823   19.4956 C   0  0  0  0  0  0
  -24.8496  -27.6700   19.4951 C   0  0  0  0  0  0
  -23.6207  -29.8092   20.1642 C   0  0  0  0  0  0
  -25.4103  -36.3071   24.0325 C   0  0  1  0  0  0
  -20.5840  -28.3732   23.1300 C   0  0  2  0  0  0
  -20.6747  -26.9464   22.5424 C   0  0  0  0  0  0
  -19.5753  -26.6434   21.5190 C   0  0  0  0  0  0
  -18.1914  -26.7986   22.1588 C   0  0  0  0  0  0
  -19.1498  -28.8905   23.2855 C   0  0  0  0  0  0
  -18.9458  -30.1509   23.8885 C   0  0  0  0  0  0
  -17.6470  -30.6645   24.0591 C   0  0  0  0  0  0
  -25.9054  -34.9440   23.5094 C   0  0  0  0  0  0
  -16.5361  -29.9152   23.6376 C   0  0  0  0  0  0
  -16.7239  -28.6587   23.0347 C   0  0  0  0  0  0
  -26.4505  -31.6598   25.0724 C   0  0  0  0  0  0
  -25.3745  -31.3737   26.1463 C   0  0  0  0  0  0
  -27.0328  -30.3039   24.6139 C   0  0  0  0  0  0
  -27.6099  -32.4277   25.7513 C   0  0  0  0  0  0
  -27.5553  -37.1781   24.8472 C   0  0  0  0  0  0
  -21.4140  -29.3067   22.3700 N   0  0  0  0  0  0
  -26.4262  -37.3778   23.9422 N   0  0  0  0  0  0
  -24.6834  -31.0579   22.0988 N   0  0  0  0  0  0
  -23.4133  -28.8231   23.3124 O   0  0  0  0  0  0
  -28.3219  -26.4914   20.1209 O   0  0  0  0  0  0
  -26.5600  -34.8909   22.4649 O   0  0  0  0  0  0
  -23.5423  -32.1448   23.7343 O   0  0  0  0  0  0
  -29.1581  -19.1294   20.4408 C   0  0  0  0  0  0
  -30.1224  -18.1268   20.8177 C   0  0  0  0  0  0
  -31.3589  -18.7041   20.6756 C   0  0  0  0  0  0
  -29.8711  -20.2576   20.0940 C   0  0  0  0  0  0
  -29.7784  -16.8792   21.5760 C   0  0  0  0  0  0
  -29.9692  -15.5203   21.5547 C   0  0  0  0  0  0
  -32.7466  -18.2781   21.0609 C   0  0  0  0  0  0
  -27.9157  -23.9269   18.3959 C   0  0  0  0  0  0
  -30.2007  -24.2796   19.3453 C   0  0  0  0  0  0
  -28.1556  -25.1011   20.5955 C   0  0  0  0  0  0
  -28.7693  -22.4600   20.3534 C   0  0  0  0  0  0
  -28.7467  -23.9284   19.6945 C   0  0  0  0  0  0
  -31.2169  -19.9920   20.1885 O   0  0  0  0  0  0
  -29.5187  -21.4824   19.5629 O   0  0  0  0  0  0
  -31.4793  -12.5728   19.1118 H   0  0  0  0  0  0
  -30.4189  -11.3941   19.8193 H   0  0  0  0  0  0
  -29.7725  -11.8509   17.4338 H   0  0  0  0  0  0
  -29.6450  -13.5535   17.7773 H   0  0  0  0  0  0
  -27.8316  -11.3342   18.7787 H   0  0  0  0  0  0
  -27.3747  -12.6771   17.7690 H   0  0  0  0  0  0
  -27.7023  -14.2694   19.5898 H   0  0  0  0  0  0
  -28.7075  -11.9212   21.2591 H   0  0  0  0  0  0
  -28.3871  -13.4844   21.8884 H   0  0  0  0  0  0
  -25.2712   -9.5750   22.4760 H   0  0  0  0  0  0
  -24.0013   -7.4661   22.7477 H   0  0  0  0  0  0
  -21.0795   -8.8752   19.8959 H   0  0  0  0  0  0
  -22.3647  -10.9657   19.6174 H   0  0  0  0  0  0
  -21.1975   -7.6138   23.9728 H   0  0  0  0  0  0
  -21.1499   -6.0517   25.9099 H   0  0  0  0  0  0
  -22.0592   -2.7598   23.2840 H   0  0  0  0  0  0
  -22.3939  -11.9953   22.4842 H   0  0  0  0  0  0
  -21.1042  -13.1402   22.2582 H   0  0  0  0  0  0
  -24.6696  -15.8600   20.5209 H   0  0  0  0  0  0
  -26.2962  -15.6258   20.1183 H   0  0  0  0  0  0
  -26.7148  -32.5431   23.1058 H   0  0  0  0  0  0
  -25.0131  -33.9764   25.0449 H   0  0  0  0  0  0
  -22.7131  -31.3049   21.4033 H   0  0  0  0  0  0
  -23.3723  -35.9579   23.3310 H   0  0  0  0  0  0
  -24.3539  -36.8856   22.2047 H   0  0  0  0  0  0
  -23.7202  -37.6459   23.6622 H   0  0  0  0  0  0
  -26.0541  -31.5368   20.5783 H   0  0  0  0  0  0
  -26.8438  -30.8566   21.9746 H   0  0  0  0  0  0
  -28.1030  -28.9802   21.1881 H   0  0  0  0  0  0
  -25.9855  -25.9145   19.0143 H   0  0  0  0  0  0
  -23.9536  -27.2958   19.0188 H   0  0  0  0  0  0
  -23.7442  -30.5798   19.4020 H   0  0  0  0  0  0
  -22.7401  -29.2372   19.8642 H   0  0  0  0  0  0
  -25.1272  -36.1911   25.0809 H   0  0  0  0  0  0
  -20.9889  -28.3286   24.1437 H   0  0  0  0  0  0
  -20.5617  -26.2350   23.3618 H   0  0  0  0  0  0
  -21.6638  -26.7511   22.1269 H   0  0  0  0  0  0
  -19.6935  -25.6334   21.1241 H   0  0  0  0  0  0
  -19.6717  -27.3216   20.6693 H   0  0  0  0  0  0
  -17.4194  -26.6673   21.3979 H   0  0  0  0  0  0
  -18.0343  -26.0162   22.9028 H   0  0  0  0  0  0
  -19.7943  -30.7295   24.2228 H   0  0  0  0  0  0
  -17.5063  -31.6304   24.5220 H   0  0  0  0  0  0
  -15.5371  -30.3090   23.7741 H   0  0  0  0  0  0
  -15.8605  -28.0935   22.7095 H   0  0  0  0  0  0
  -24.6057  -30.6866   25.7911 H   0  0  0  0  0  0
  -24.8741  -32.2871   26.4717 H   0  0  0  0  0  0
  -25.8164  -30.9183   27.0337 H   0  0  0  0  0  0
  -26.2899  -29.6832   24.1119 H   0  0  0  0  0  0
  -27.4009  -29.7276   25.4638 H   0  0  0  0  0  0
  -27.8764  -30.4389   23.9356 H   0  0  0  0  0  0
  -27.2821  -33.3676   26.1975 H   0  0  0  0  0  0
  -28.4045  -32.6641   25.0415 H   0  0  0  0  0  0
  -28.0564  -31.8391   26.5543 H   0  0  0  0  0  0
  -28.2599  -38.0055   24.7529 H   0  0  0  0  0  0
  -28.1001  -36.2591   24.6264 H   0  0  0  0  0  0
  -27.2261  -37.1436   25.8872 H   0  0  0  0  0  0
  -20.9333  -29.8760   21.6877 H   0  0  0  0  0  0
  -26.0111  -38.2815   24.1484 H   0  0  0  0  0  0
  -28.0841  -19.0379   20.4577 H   0  0  0  0  0  0
  -29.2222  -17.1702   22.4549 H   0  0  0  0  0  0
  -29.5344  -15.0614   22.4244 H   0  0  0  0  0  0
  -32.9236  -18.4664   22.1205 H   0  0  0  0  0  0
  -33.5173  -18.8065   20.5009 H   0  0  0  0  0  0
  -32.8985  -17.2113   20.8859 H   0  0  0  0  0  0
  -26.8546  -23.7910   18.6034 H   0  0  0  0  0  0
  -28.2309  -23.1413   17.7102 H   0  0  0  0  0  0
  -28.0112  -24.8846   17.8812 H   0  0  0  0  0  0
  -30.2630  -25.1632   18.7102 H   0  0  0  0  0  0
  -30.6898  -23.4716   18.8015 H   0  0  0  0  0  0
  -30.7815  -24.4734   20.2451 H   0  0  0  0  0  0
  -28.6531  -25.0743   21.5622 H   0  0  0  0  0  0
  -27.1105  -24.8814   20.8196 H   0  0  0  0  0  0
  -27.7524  -22.0946   20.5167 H   0  0  0  0  0  0
  -29.2256  -22.5076   21.3421 H   0  0  0  0  0  0
  1 25  1  0  0  0
  1 30  2  0  0  0
  1 76  1  0  0  0
  2  3  1  0  0  0
  2 25  1  0  0  0
  2 85  1  0  0  0
  2 86  1  0  0  0
  3  4  1  0  0  0
  3 87  1  0  0  0
  3 88  1  0  0  0
  4  5  1  0  0  0
  4 89  1  0  0  0
  4 90  1  0  0  0
  5  6  1  0  0  0
  5 26  1  0  0  0
  5 91  1  0  0  0
  6 25  1  0  0  0
  6 92  1  0  0  0
  6 93  1  0  0  0
  7  8  2  0  0  0
  7 26  1  0  0  0
  7 29  1  0  0  0
  8  9  1  0  0  0
  8 22  1  0  0  0
  9 10  1  0  0  0
  9 27  2  0  0  0
 10 11  2  0  0  0
 10 15  1  0  0  0
 11 12  1  0  0  0
 11 94  1  0  0  0
 12 13  2  0  0  0
 12 95  1  0  0  0
 13 14  1  0  0  0
 13 31  1  0  0  0
 14 15  2  0  0  0
 14 96  1  0  0  0
 15 97  1  0  0  0
 16 17  2  0  0  0
 16 21  1  0  0  0
 16 31  1  0  0  0
 17 18  1  0  0  0
 17 98  1  0  0  0
 18 19  2  0  0  0
 18 99  1  0  0  0
 19 20  1  0  0  0
 19 24  1  0  0  0
 20 21  2  0  0  0
 20100  1  0  0  0
 21 23  1  0  0  0
 22 28  1  0  0  0
 22 32  2  0  0  0
 26 27  1  0  0  0
 28101  1  0  0  0
 28102  1  0  0  0
 29103  1  0  0  0
 29104  1  0  0  0
 33 34  1  0  0  0
 33 66  1  0  0  0
 33 70  2  0  0  0
 34 36  1  0  0  0
 34 59  1  0  0  0
 34105  1  0  0  0
 35 44  2  0  0  0
 35 45  1  0  0  0
 35 68  1  0  0  0
 36 56  1  0  0  0
 36106  1  0  0  0
 37 39  1  0  0  0
 37 47  1  0  0  0
 37 66  1  0  0  0
 37107  1  0  0  0
 38 43  2  0  0  0
 38 46  1  0  0  0
 38 47  1  0  0  0
 39 64  1  0  0  0
 39 67  2  0  0  0
 40 52  1  0  0  0
 40 53  2  0  0  0
 40 58  1  0  0  0
 41108  1  0  0  0
 41109  1  0  0  0
 41110  1  0  0  0
 41 48  1  0  0  0
 42 43  1  0  0  0
 42 66  1  0  0  0
 42111  1  0  0  0
 42112  1  0  0  0
 43 44  1  0  0  0
 44113  1  0  0  0
 45 46  2  0  0  0
 45114  1  0  0  0
 46115  1  0  0  0
 47116  1  0  0  0
 47117  1  0  0  0
 48 56  1  0  0  0
 48 65  1  0  0  0
 48118  1  0  0  0
 49 50  1  0  0  0
 49 53  1  0  0  0
 49 64  1  0  0  0
 49119  1  0  0  0
 50 51  1  0  0  0
 50120  1  0  0  0
 50121  1  0  0  0
 51 52  1  0  0  0
 51122  1  0  0  0
 51123  1  0  0  0
 52124  1  0  0  0
 52125  1  0  0  0
 53 54  1  0  0  0
 54 55  2  0  0  0
 54126  1  0  0  0
 55 57  1  0  0  0
 55127  1  0  0  0
 56 69  2  0  0  0
 57 58  2  0  0  0
 57128  1  0  0  0
 58129  1  0  0  0
 59 60  1  0  0  0
 59 61  1  0  0  0
 59 62  1  0  0  0
 60130  1  0  0  0
 60131  1  0  0  0
 60132  1  0  0  0
 61133  1  0  0  0
 61134  1  0  0  0
 61135  1  0  0  0
 62136  1  0  0  0
 62137  1  0  0  0
 62138  1  0  0  0
 63 65  1  0  0  0
 63139  1  0  0  0
 63140  1  0  0  0
 63141  1  0  0  0
 64142  1  0  0  0
 65143  1  0  0  0
 68 80  1  0  0  0
 71 72  1  0  0  0
 71 74  2  0  0  0
 71144  1  0  0  0
 72 73  2  0  0  0
 72 75  1  0  0  0
 73 77  1  0  0  0
 73 83  1  0  0  0
 74 83  1  0  0  0
 74 84  1  0  0  0
 75 76  2  0  0  0
 75145  1  0  0  0
 76146  1  0  0  0
 77147  1  0  0  0
 77148  1  0  0  0
 77149  1  0  0  0
 78150  1  0  0  0
 78151  1  0  0  0
 78152  1  0  0  0
 78 82  1  0  0  0
 79 82  1  0  0  0
 79153  1  0  0  0
 79154  1  0  0  0
 79155  1  0  0  0
 80 82  1  0  0  0
 80156  1  0  0  0
 80157  1  0  0  0
 81 82  1  0  0  0
 81 84  1  0  0  0
 81158  1  0  0  0
 81159  1  0  0  0
M  ISO  4   1 100  68 101  76 100  80 101
M  END
> <chiral flag>
0

> <version>
0

> <s_m_source_file>
/data/baiqing/PycharmProjects/Reinvent-master-3.2/result/LINK_invent/BTK/process_docking_weight1_custom_product_contain_oxygen_bond_distance_aromatic_linkinvent_7_9_3/rearranged_h_0136.sdf

> <i_m_source_file_index>
83

> <r_mmod_Potential_Energy-OPLS-2005>
128.648529052734

> <r_mmod_Stretch_Energy-OPLS-2005>
70.9235916137695

> <r_mmod_Bend_Energy-OPLS-2005>
188.725143432617

> <r_mmod_Torsional_Energy-OPLS-2005>
249.020477294922

> <r_mmod_Improper_Torsional_Energy-OPLS-2005>
6.82013463973999

> <r_mmod_Van_der_Waal_Energy-OPLS-2005>
119.357086181641

> <r_mmod_Electrostatic_Energy-OPLS-2005>
-348.725250244141

> <r_mmod_Solvation_Energy-OPLS-2005>
-196.202880859375

> <b_mmod_Minimization_Converged-OPLS-2005>
0

> <r_mmod_RMS_Derivative-OPLS-2005>
6.25428485870361

$$$$
83
                    3D
 Structure written by MMmdl.
169177  0  0  1  0            999 V2000
  -30.6962  -14.4677   20.5952 C   0  0  0  0  0  0
  -30.4281  -12.3106   19.4114 C   0  0  0  0  0  0
  -29.4941  -12.5096   18.1999 C   0  0  0  0  0  0
  -28.0149  -12.3668   18.6135 C   0  0  0  0  0  0
  -27.6634  -13.2030   19.8737 C   0  0  2  0  0  0
  -28.7076  -12.9689   20.9882 C   0  0  0  0  0  0
  -25.2607  -13.8157   20.5680 C   0  0  0  0  0  0
  -24.1851  -13.0444   20.9170 C   0  0  0  0  0  0
  -24.6399  -11.6907   20.8732 C   0  0  0  0  0  0
  -23.9058  -10.4297   21.0398 C   0  0  0  0  0  0
  -24.3612   -9.4214   21.9177 C   0  0  0  0  0  0
  -23.6291   -8.2248   22.0750 C   0  0  0  0  0  0
  -22.4272   -8.0284   21.3542 C   0  0  0  0  0  0
  -21.9904   -9.0256   20.4644 C   0  0  0  0  0  0
  -22.7228  -10.2138   20.3050 C   0  0  0  0  0  0
  -21.6855   -6.0735   22.5279 C   0  0  0  0  0  0
  -21.4014   -6.5638   23.8212 C   0  0  0  0  0  0
  -21.3662   -5.6791   24.9174 C   0  0  0  0  0  0
  -21.6043   -4.3053   24.7225 C   0  0  0  0  0  0
  -21.8820   -3.8146   23.4346 C   0  0  0  0  0  0
  -21.9194   -4.6962   22.3403 C   0  0  0  0  0  0
  -22.7872  -13.5247   21.1832 C   0  0  0  0  0  0
  -22.1661   -4.2149   21.0979 F   0  0  0  0  0  0
  -21.5628   -3.4537   25.7738 F   0  0  0  0  0  0
  -30.0339  -13.2873   20.4379 N   0  0  0  0  0  0
  -26.3040  -12.9320   20.3363 N   0  0  0  0  0  0
  -25.9324  -11.6484   20.5759 N   0  0  0  0  0  0
  -22.0506  -12.8250   22.0392 N   0  0  0  0  0  0
  -25.4347  -15.1876   20.4089 N   0  0  0  0  0  0
  -31.8327  -14.6244   20.1316 O   0  0  0  0  0  0
  -21.6636   -6.8881   21.4242 O   0  0  0  0  0  0
  -22.3563  -14.5557   20.6681 O   0  0  0  0  0  0
  -24.6164  -31.8683   23.2109 C   0  0  0  0  0  0
  -25.9052  -32.4827   23.8404 C   0  0  1  0  0  0
  -27.2302  -27.4272   20.0931 C   0  0  0  0  0  0
  -25.5905  -33.8625   24.2333 N   0  0  0  0  0  0
  -23.4037  -30.4950   21.5521 C   0  0  2  0  0  0
  -24.8482  -28.9669   20.1124 C   0  0  0  0  0  0
  -22.7422  -29.4669   22.4986 C   0  0  0  0  0  0
  -18.0275  -28.1377   22.8497 C   0  0  0  0  0  0
  -24.1485  -36.7317   23.2637 C   0  0  0  0  0  0
  -25.9352  -30.8329   21.3651 C   0  0  0  0  0  0
  -26.0118  -29.4695   20.7075 C   0  0  0  0  0  0
  -27.2068  -28.7102   20.6913 C   0  0  0  0  0  0
  -26.0437  -26.9517   19.4817 C   0  0  0  0  0  0
  -24.8602  -27.7077   19.4951 C   0  0  0  0  0  0
  -23.6108  -29.8329   20.1656 C   0  0  0  0  0  0
  -25.4105  -36.3116   24.0339 C   0  0  1  0  0  0
  -20.5869  -28.3668   23.1310 C   0  0  2  0  0  0
  -20.6765  -26.9403   22.5411 C   0  0  0  0  0  0
  -19.5740  -26.6386   21.5212 C   0  0  0  0  0  0
  -18.1921  -26.7925   22.1628 C   0  0  0  0  0  0
  -19.1526  -28.8838   23.2901 C   0  0  0  0  0  0
  -18.9453  -30.1444   23.8914 C   0  0  0  0  0  0
  -17.6455  -30.6584   24.0569 C   0  0  0  0  0  0
  -25.9034  -34.9481   23.5132 C   0  0  0  0  0  0
  -16.5345  -29.9087   23.6325 C   0  0  0  0  0  0
  -16.7264  -28.6502   23.0351 C   0  0  0  0  0  0
  -26.4472  -31.6604   25.0733 C   0  0  0  0  0  0
  -25.3739  -31.3713   26.1483 C   0  0  0  0  0  0
  -27.0298  -30.3046   24.6107 C   0  0  0  0  0  0
  -27.6049  -32.4322   25.7494 C   0  0  0  0  0  0
  -27.5580  -37.1816   24.8467 C   0  0  0  0  0  0
  -21.4149  -29.3039   22.3722 N   0  0  0  0  0  0
  -26.4295  -37.3799   23.9409 N   0  0  0  0  0  0
  -24.6701  -31.0791   22.1008 N   0  0  0  0  0  0
  -23.4193  -28.8210   23.3027 O   0  0  0  0  0  0
  -28.3836  -26.6587   20.1316 O   0  0  0  0  0  0
  -26.5594  -34.8932   22.4692 O   0  0  0  0  0  0
  -23.5353  -32.1428   23.7501 O   0  0  0  0  0  0
  -31.3955  -22.0975   20.5563 C   0  0  0  0  0  0
  -29.6690  -20.4791   21.1377 C   0  0  0  0  0  0
  -31.9646  -19.7340   20.8106 C   0  0  0  0  0  0
  -30.0385  -21.8196   20.8446 C   0  0  0  0  0  0
  -32.3582  -21.0643   20.5512 C   0  0  0  0  0  0
  -30.6194  -19.4337   21.1070 C   0  0  0  0  0  0
  -28.9830  -22.8875   20.8441 C   0  0  0  0  0  0
  -30.3142  -17.0217   20.6573 C   0  0  0  0  0  0
  -34.4165  -23.3064   21.8079 C   0  0  0  0  0  0
  -34.3507  -20.9832   22.7492 C   0  0  0  0  0  0
  -36.1587  -21.6359   21.1503 C   0  0  0  0  0  0
  -33.8196  -21.3835   20.2615 C   0  0  0  0  0  0
  -29.3738  -24.3643   20.5789 C   0  0  0  0  0  0
  -29.9920  -15.6556   21.3193 C   0  0  0  0  0  0
  -28.1652  -25.2331   20.1493 C   0  0  0  0  0  0
  -34.6678  -21.8190   21.4912 C   0  0  0  0  0  0
  -30.2427  -18.1065   21.4550 N   0  0  0  0  0  0
  -27.7982  -22.6102   21.0603 O   0  0  0  0  0  0
  -30.5275  -17.1267   19.4441 O   0  0  0  0  0  0
  -31.4700  -12.4171   19.1050 H   0  0  0  0  0  0
  -30.3386  -11.2970   19.8053 H   0  0  0  0  0  0
  -29.7344  -11.7882   17.4179 H   0  0  0  0  0  0
  -29.6603  -13.4974   17.7667 H   0  0  0  0  0  0
  -27.8259  -11.3102   18.8064 H   0  0  0  0  0  0
  -27.3640  -12.6425   17.7830 H   0  0  0  0  0  0
  -27.7118  -14.2521   19.5818 H   0  0  0  0  0  0
  -28.6878  -11.9251   21.3052 H   0  0  0  0  0  0
  -28.4720  -13.5390   21.8866 H   0  0  0  0  0  0
  -25.2760   -9.5695   22.4746 H   0  0  0  0  0  0
  -24.0004   -7.4641   22.7471 H   0  0  0  0  0  0
  -21.0831   -8.8773   19.8954 H   0  0  0  0  0  0
  -22.3683  -10.9672   19.6157 H   0  0  0  0  0  0
  -21.2004   -7.6146   23.9717 H   0  0  0  0  0  0
  -21.1480   -6.0518   25.9077 H   0  0  0  0  0  0
  -22.0599   -2.7608   23.2844 H   0  0  0  0  0  0
  -22.4113  -11.9916   22.4795 H   0  0  0  0  0  0
  -21.1124  -13.1286   22.2584 H   0  0  0  0  0  0
  -24.6710  -15.8468   20.5144 H   0  0  0  0  0  0
  -26.2910  -15.6233   20.0903 H   0  0  0  0  0  0
  -26.7128  -32.5535   23.1172 H   0  0  0  0  0  0
  -25.0069  -33.9787   25.0487 H   0  0  0  0  0  0
  -22.6925  -31.3125   21.4164 H   0  0  0  0  0  0
  -23.3744  -35.9654   23.3314 H   0  0  0  0  0  0
  -24.3577  -36.8915   22.2048 H   0  0  0  0  0  0
  -23.7244  -37.6532   23.6638 H   0  0  0  0  0  0
  -26.0505  -31.6004   20.5984 H   0  0  0  0  0  0
  -26.8223  -30.8823   21.9849 H   0  0  0  0  0  0
  -28.1028  -29.0941   21.1592 H   0  0  0  0  0  0
  -26.0029  -25.9926   18.9879 H   0  0  0  0  0  0
  -23.9675  -27.3152   19.0277 H   0  0  0  0  0  0
  -23.7193  -30.6100   19.4081 H   0  0  0  0  0  0
  -22.7342  -29.2542   19.8686 H   0  0  0  0  0  0
  -25.1283  -36.1986   25.0833 H   0  0  0  0  0  0
  -20.9961  -28.3229   24.1431 H   0  0  0  0  0  0
  -20.5667  -26.2276   23.3599 H   0  0  0  0  0  0
  -21.6634  -26.7441   22.1205 H   0  0  0  0  0  0
  -19.6895  -25.6301   21.1229 H   0  0  0  0  0  0
  -19.6676  -27.3207   20.6751 H   0  0  0  0  0  0
  -17.4189  -26.6675   21.4031 H   0  0  0  0  0  0
  -18.0324  -26.0060   22.9020 H   0  0  0  0  0  0
  -19.7927  -30.7259   24.2288 H   0  0  0  0  0  0
  -17.5009  -31.6266   24.5169 H   0  0  0  0  0  0
  -15.5347  -30.2998   23.7634 H   0  0  0  0  0  0
  -15.8664  -28.0828   22.7057 H   0  0  0  0  0  0
  -24.5908  -30.7062   25.7823 H   0  0  0  0  0  0
  -24.8933  -32.2871   26.4939 H   0  0  0  0  0  0
  -25.8093  -30.8879   27.0237 H   0  0  0  0  0  0
  -26.2840  -29.6820   24.1149 H   0  0  0  0  0  0
  -27.4055  -29.7273   25.4566 H   0  0  0  0  0  0
  -27.8686  -30.4367   23.9267 H   0  0  0  0  0  0
  -27.2664  -33.3608   26.2105 H   0  0  0  0  0  0
  -28.3840  -32.6905   25.0310 H   0  0  0  0  0  0
  -28.0737  -31.8427   26.5384 H   0  0  0  0  0  0
  -28.2614  -38.0096   24.7504 H   0  0  0  0  0  0
  -28.1060  -36.2632   24.6308 H   0  0  0  0  0  0
  -27.2298  -37.1488   25.8870 H   0  0  0  0  0  0
  -20.9304  -29.8782   21.6967 H   0  0  0  0  0  0
  -26.0188  -38.2881   24.1399 H   0  0  0  0  0  0
  -31.7203  -23.1054   20.3427 H   0  0  0  0  0  0
  -28.6408  -20.2444   21.3774 H   0  0  0  0  0  0
  -32.7043  -18.9453   20.8104 H   0  0  0  0  0  0
  -35.0432  -23.6494   22.6322 H   0  0  0  0  0  0
  -33.3809  -23.4876   22.0967 H   0  0  0  0  0  0
  -34.6332  -23.9424   20.9486 H   0  0  0  0  0  0
  -35.0054  -21.2510   23.5797 H   0  0  0  0  0  0
  -34.4823  -19.9168   22.5628 H   0  0  0  0  0  0
  -33.3266  -21.1335   23.0931 H   0  0  0  0  0  0
  -36.8016  -21.9604   21.9699 H   0  0  0  0  0  0
  -36.4399  -22.2122   20.2676 H   0  0  0  0  0  0
  -36.3962  -20.5908   20.9467 H   0  0  0  0  0  0
  -33.8739  -22.1371   19.4746 H   0  0  0  0  0  0
  -34.2588  -20.4873   19.8201 H   0  0  0  0  0  0
  -30.1378  -24.4149   19.8055 H   0  0  0  0  0  0
  -29.8108  -24.7628   21.4937 H   0  0  0  0  0  0
  -28.9084  -15.5632   21.2951 H   0  0  0  0  0  0
  -30.3009  -15.6597   22.3647 H   0  0  0  0  0  0
  -27.8635  -24.9039   19.1541 H   0  0  0  0  0  0
  -27.3324  -25.0342   20.8274 H   0  0  0  0  0  0
  -29.8931  -17.9667   22.3941 H   0  0  0  0  0  0
  1 25  1  0  0  0
  1 30  2  0  0  0
  1 84  1  0  0  0
  2  3  1  0  0  0
  2 25  1  0  0  0
  2 90  1  0  0  0
  2 91  1  0  0  0
  3  4  1  0  0  0
  3 92  1  0  0  0
  3 93  1  0  0  0
  4  5  1  0  0  0
  4 94  1  0  0  0
  4 95  1  0  0  0
  5  6  1  0  0  0
  5 26  1  0  0  0
  5 96  1  0  0  0
  6 25  1  0  0  0
  6 97  1  0  0  0
  6 98  1  0  0  0
  7  8  2  0  0  0
  7 26  1  0  0  0
  7 29  1  0  0  0
  8  9  1  0  0  0
  8 22  1  0  0  0
  9 10  1  0  0  0
  9 27  2  0  0  0
 10 11  2  0  0  0
 10 15  1  0  0  0
 11 12  1  0  0  0
 11 99  1  0  0  0
 12 13  2  0  0  0
 12100  1  0  0  0
 13 14  1  0  0  0
 13 31  1  0  0  0
 14 15  2  0  0  0
 14101  1  0  0  0
 15102  1  0  0  0
 16 17  2  0  0  0
 16 21  1  0  0  0
 16 31  1  0  0  0
 17 18  1  0  0  0
 17103  1  0  0  0
 18 19  2  0  0  0
 18104  1  0  0  0
 19 20  1  0  0  0
 19 24  1  0  0  0
 20 21  2  0  0  0
 20105  1  0  0  0
 21 23  1  0  0  0
 22 28  1  0  0  0
 22 32  2  0  0  0
 26 27  1  0  0  0
 28106  1  0  0  0
 28107  1  0  0  0
 29108  1  0  0  0
 29109  1  0  0  0
 33 34  1  0  0  0
 33 66  1  0  0  0
 33 70  2  0  0  0
 34 36  1  0  0  0
 34 59  1  0  0  0
 34110  1  0  0  0
 35 44  2  0  0  0
 35 45  1  0  0  0
 35 68  1  0  0  0
 36 56  1  0  0  0
 36111  1  0  0  0
 37 39  1  0  0  0
 37 47  1  0  0  0
 37 66  1  0  0  0
 37112  1  0  0  0
 38 43  2  0  0  0
 38 46  1  0  0  0
 38 47  1  0  0  0
 39 64  1  0  0  0
 39 67  2  0  0  0
 40 52  1  0  0  0
 40 53  2  0  0  0
 40 58  1  0  0  0
 41113  1  0  0  0
 41114  1  0  0  0
 41115  1  0  0  0
 41 48  1  0  0  0
 42 43  1  0  0  0
 42 66  1  0  0  0
 42116  1  0  0  0
 42117  1  0  0  0
 43 44  1  0  0  0
 44118  1  0  0  0
 45 46  2  0  0  0
 45119  1  0  0  0
 46120  1  0  0  0
 47121  1  0  0  0
 47122  1  0  0  0
 48 56  1  0  0  0
 48 65  1  0  0  0
 48123  1  0  0  0
 49 50  1  0  0  0
 49 53  1  0  0  0
 49 64  1  0  0  0
 49124  1  0  0  0
 50 51  1  0  0  0
 50125  1  0  0  0
 50126  1  0  0  0
 51 52  1  0  0  0
 51127  1  0  0  0
 51128  1  0  0  0
 52129  1  0  0  0
 52130  1  0  0  0
 53 54  1  0  0  0
 54 55  2  0  0  0
 54131  1  0  0  0
 55 57  1  0  0  0
 55132  1  0  0  0
 56 69  2  0  0  0
 57 58  2  0  0  0
 57133  1  0  0  0
 58134  1  0  0  0
 59 60  1  0  0  0
 59 61  1  0  0  0
 59 62  1  0  0  0
 60135  1  0  0  0
 60136  1  0  0  0
 60137  1  0  0  0
 61138  1  0  0  0
 61139  1  0  0  0
 61140  1  0  0  0
 62141  1  0  0  0
 62142  1  0  0  0
 62143  1  0  0  0
 63 65  1  0  0  0
 63144  1  0  0  0
 63145  1  0  0  0
 63146  1  0  0  0
 64147  1  0  0  0
 65148  1  0  0  0
 68 85  1  0  0  0
 71 74  2  0  0  0
 71 75  1  0  0  0
 71149  1  0  0  0
 72 74  1  0  0  0
 72 76  2  0  0  0
 72150  1  0  0  0
 73 75  2  0  0  0
 73 76  1  0  0  0
 73151  1  0  0  0
 74 77  1  0  0  0
 75 82  1  0  0  0
 76 87  1  0  0  0
 77 83  1  0  0  0
 77 88  2  0  0  0
 78 84  1  0  0  0
 78 87  1  0  0  0
 78 89  2  0  0  0
 79152  1  0  0  0
 79153  1  0  0  0
 79154  1  0  0  0
 79 86  1  0  0  0
 80 86  1  0  0  0
 80155  1  0  0  0
 80156  1  0  0  0
 80157  1  0  0  0
 81 86  1  0  0  0
 81158  1  0  0  0
 81159  1  0  0  0
 81160  1  0  0  0
 82 86  1  0  0  0
 82161  1  0  0  0
 82162  1  0  0  0
 83 85  1  0  0  0
 83163  1  0  0  0
 83164  1  0  0  0
 84165  1  0  0  0
 84166  1  0  0  0
 85167  1  0  0  0
 85168  1  0  0  0
 87169  1  0  0  0
M  ISO  4   1 100  68 101  84 100  85 101
M  END
> <chiral flag>
0

> <version>
0

> <s_m_source_file>
/data/baiqing/PycharmProjects/Reinvent-master-3.2/result/LINK_invent/BTK/process_docking_weight1_custom_product_contain_oxygen_bond_distance_aromatic_linkinvent_7_9_3/rearranged_h_0136.sdf

> <i_m_source_file_index>
84

> <r_mmod_Potential_Energy-OPLS-2005>
-13.2640647888184

> <r_mmod_Stretch_Energy-OPLS-2005>
43.0049324035645

> <r_mmod_Bend_Energy-OPLS-2005>
105.284950256348

> <r_mmod_Torsional_Energy-OPLS-2005>
228.921997070312

> <r_mmod_Improper_Torsional_Energy-OPLS-2005>
2.87145185470581

> <r_mmod_Van_der_Waal_Energy-OPLS-2005>
170.238357543945

> <r_mmod_Electrostatic_Energy-OPLS-2005>
-347.434906005859

> <r_mmod_Solvation_Energy-OPLS-2005>
-230.321670532227

> <b_mmod_Minimization_Converged-OPLS-2005>
0

> <r_mmod_RMS_Derivative-OPLS-2005>
0.741756856441498

$$$$
84
                    3D
 Structure written by MMmdl.
172180  0  0  1  0            999 V2000
  -30.6501  -14.5842   20.5157 C   0  0  0  0  0  0
  -30.4400  -12.3646   19.4299 C   0  0  0  0  0  0
  -29.5075  -12.4957   18.2081 C   0  0  0  0  0  0
  -28.0285  -12.3487   18.6231 C   0  0  0  0  0  0
  -27.6572  -13.2095   19.8596 C   0  0  2  0  0  0
  -28.7048  -13.0542   20.9858 C   0  0  0  0  0  0
  -25.2580  -13.8138   20.5684 C   0  0  0  0  0  0
  -24.1861  -13.0419   20.9189 C   0  0  0  0  0  0
  -24.6422  -11.6879   20.8734 C   0  0  0  0  0  0
  -23.9070  -10.4290   21.0398 C   0  0  0  0  0  0
  -24.3616   -9.4213   21.9190 C   0  0  0  0  0  0
  -23.6304   -8.2245   22.0762 C   0  0  0  0  0  0
  -22.4281   -8.0283   21.3556 C   0  0  0  0  0  0
  -21.9909   -9.0251   20.4651 C   0  0  0  0  0  0
  -22.7227  -10.2134   20.3063 C   0  0  0  0  0  0
  -21.6852   -6.0740   22.5277 C   0  0  0  0  0  0
  -21.4020   -6.5647   23.8207 C   0  0  0  0  0  0
  -21.3651   -5.6800   24.9170 C   0  0  0  0  0  0
  -21.6042   -4.3065   24.7228 C   0  0  0  0  0  0
  -21.8811   -3.8154   23.4349 C   0  0  0  0  0  0
  -21.9207   -4.6971   22.3404 C   0  0  0  0  0  0
  -22.7884  -13.5214   21.1867 C   0  0  0  0  0  0
  -22.1668   -4.2153   21.0986 F   0  0  0  0  0  0
  -21.5629   -3.4548   25.7742 F   0  0  0  0  0  0
  -30.0209  -13.3769   20.4132 N   0  0  0  0  0  0
  -26.3018  -12.9322   20.3297 N   0  0  0  0  0  0
  -25.9346  -11.6470   20.5739 N   0  0  0  0  0  0
  -22.0522  -12.8232   22.0409 N   0  0  0  0  0  0
  -25.4280  -15.1877   20.4128 N   0  0  0  0  0  0
  -31.8243  -14.7462   20.1760 O   0  0  0  0  0  0
  -21.6647   -6.8879   21.4238 O   0  0  0  0  0  0
  -22.3578  -14.5534   20.6709 O   0  0  0  0  0  0
  -24.6148  -31.8651   23.2070 C   0  0  0  0  0  0
  -25.9022  -32.4820   23.8395 C   0  0  1  0  0  0
  -27.2342  -27.3751   20.1210 C   0  0  0  0  0  0
  -25.5877  -33.8619   24.2345 N   0  0  0  0  0  0
  -23.4148  -30.4762   21.5488 C   0  0  2  0  0  0
  -24.8637  -28.9367   20.1216 C   0  0  0  0  0  0
  -22.7443  -29.4591   22.4995 C   0  0  0  0  0  0
  -18.0255  -28.1370   22.8464 C   0  0  0  0  0  0
  -24.1495  -36.7311   23.2641 C   0  0  0  0  0  0
  -25.9437  -30.8107   21.3738 C   0  0  0  0  0  0
  -26.0250  -29.4387   20.7219 C   0  0  0  0  0  0
  -27.2179  -28.6681   20.7086 C   0  0  0  0  0  0
  -26.0562  -26.9050   19.5050 C   0  0  0  0  0  0
  -24.8750  -27.6713   19.5099 C   0  0  0  0  0  0
  -23.6267  -29.8059   20.1668 C   0  0  0  0  0  0
  -25.4123  -36.3111   24.0331 C   0  0  1  0  0  0
  -20.5852  -28.3635   23.1335 C   0  0  2  0  0  0
  -20.6745  -26.9366   22.5418 C   0  0  0  0  0  0
  -19.5750  -26.6359   21.5201 C   0  0  0  0  0  0
  -18.1916  -26.7905   22.1604 C   0  0  0  0  0  0
  -19.1505  -28.8827   23.2886 C   0  0  0  0  0  0
  -18.9419  -30.1431   23.8895 C   0  0  0  0  0  0
  -17.6426  -30.6573   24.0547 C   0  0  0  0  0  0
  -25.9033  -34.9466   23.5139 C   0  0  0  0  0  0
  -16.5316  -29.9063   23.6343 C   0  0  0  0  0  0
  -16.7244  -28.6493   23.0346 C   0  0  0  0  0  0
  -26.4454  -31.6624   25.0752 C   0  0  0  0  0  0
  -25.3721  -31.3693   26.1501 C   0  0  0  0  0  0
  -27.0315  -30.3083   24.6161 C   0  0  0  0  0  0
  -27.6070  -32.4311   25.7495 C   0  0  0  0  0  0
  -27.5593  -37.1814   24.8459 C   0  0  0  0  0  0
  -21.4157  -29.2998   22.3746 N   0  0  0  0  0  0
  -26.4327  -37.3780   23.9377 N   0  0  0  0  0  0
  -24.6756  -31.0666   22.1014 N   0  0  0  0  0  0
  -23.4173  -28.8160   23.3084 O   0  0  0  0  0  0
  -28.3832  -26.5959   20.0703 O   0  0  0  0  0  0
  -26.5580  -34.8919   22.4695 O   0  0  0  0  0  0
  -23.5329  -32.1397   23.7454 O   0  0  0  0  0  0
  -30.3339  -19.5651   22.3305 C   0  0  0  0  0  0
  -29.8204  -18.1519   20.4188 C   0  0  0  0  0  0
  -30.5499  -17.1329   22.5175 C   0  0  0  0  0  0
  -29.9537  -19.4681   20.9763 C   0  0  0  0  0  0
  -30.6280  -18.4173   23.0946 C   0  0  0  0  0  0
  -30.1247  -16.9745   21.1833 C   0  0  0  0  0  0
  -30.1466  -23.3544   20.2920 C   0  0  0  0  0  0
  -30.5158  -22.0364   20.3652 C   0  0  0  0  0  0
  -29.6856  -18.9107   25.3662 C   0  0  0  0  0  0
  -32.7021  -21.0656   19.4111 C   0  0  0  0  0  0
  -29.7262  -25.8277   21.8152 C   0  0  0  0  0  0
  -27.3468  -25.1471   21.8698 C   0  0  0  0  0  0
  -29.6093  -20.7780   20.1970 C   0  0  0  0  0  0
  -30.9478  -18.5693   24.5651 C   0  0  0  0  0  0
  -28.8073  -24.0913   20.0617 C   0  0  0  0  0  0
  -32.0072  -21.7539   20.5906 C   0  0  0  0  0  0
  -28.5383  -25.4089   20.9204 C   0  0  0  0  0  0
  -29.8201  -15.6395   20.7358 N   0  0  0  0  0  0
  -31.4798  -12.4921   19.1254 H   0  0  0  0  0  0
  -30.3745  -11.3661   19.8626 H   0  0  0  0  0  0
  -29.7612  -11.7441   17.4584 H   0  0  0  0  0  0
  -29.6625  -13.4643   17.7316 H   0  0  0  0  0  0
  -27.8517  -11.2946   18.8406 H   0  0  0  0  0  0
  -27.3763  -12.6004   17.7863 H   0  0  0  0  0  0
  -27.6780  -14.2471   19.5265 H   0  0  0  0  0  0
  -28.7064  -12.0364   21.3785 H   0  0  0  0  0  0
  -28.4645  -13.7026   21.8306 H   0  0  0  0  0  0
  -25.2758   -9.5701   22.4764 H   0  0  0  0  0  0
  -24.0009   -7.4642   22.7490 H   0  0  0  0  0  0
  -21.0834   -8.8760   19.8978 H   0  0  0  0  0  0
  -22.3665  -10.9676   19.6182 H   0  0  0  0  0  0
  -21.1995   -7.6153   23.9706 H   0  0  0  0  0  0
  -21.1481   -6.0539   25.9070 H   0  0  0  0  0  0
  -22.0601   -2.7621   23.2851 H   0  0  0  0  0  0
  -22.4131  -11.9885   22.4801 H   0  0  0  0  0  0
  -21.1145  -13.1276   22.2602 H   0  0  0  0  0  0
  -24.6541  -15.8328   20.5335 H   0  0  0  0  0  0
  -26.2680  -15.6420   20.0772 H   0  0  0  0  0  0
  -26.7080  -32.5498   23.1140 H   0  0  0  0  0  0
  -25.0014  -33.9784   25.0486 H   0  0  0  0  0  0
  -22.7081  -31.2923   21.4069 H   0  0  0  0  0  0
  -23.3774  -35.9628   23.3323 H   0  0  0  0  0  0
  -24.3588  -36.8903   22.2049 H   0  0  0  0  0  0
  -23.7238  -37.6522   23.6649 H   0  0  0  0  0  0
  -26.0531  -31.5807   20.6087 H   0  0  0  0  0  0
  -26.8312  -30.8683   21.9924 H   0  0  0  0  0  0
  -28.1229  -29.0555   21.1539 H   0  0  0  0  0  0
  -26.0509  -25.9325   19.0320 H   0  0  0  0  0  0
  -23.9782  -27.2791   19.0508 H   0  0  0  0  0  0
  -23.7419  -30.5812   19.4081 H   0  0  0  0  0  0
  -22.7499  -29.2235   19.8737 H   0  0  0  0  0  0
  -25.1304  -36.1992   25.0825 H   0  0  0  0  0  0
  -20.9892  -28.3131   24.1485 H   0  0  0  0  0  0
  -20.5639  -26.2196   23.3566 H   0  0  0  0  0  0
  -21.6610  -26.7384   22.1229 H   0  0  0  0  0  0
  -19.6919  -25.6271   21.1230 H   0  0  0  0  0  0
  -19.6751  -27.3154   20.6736 H   0  0  0  0  0  0
  -17.4177  -26.6611   21.4008 H   0  0  0  0  0  0
  -18.0350  -26.0055   22.9025 H   0  0  0  0  0  0
  -19.7890  -30.7237   24.2274 H   0  0  0  0  0  0
  -17.4981  -31.6264   24.5099 H   0  0  0  0  0  0
  -15.5321  -30.2958   23.7708 H   0  0  0  0  0  0
  -15.8633  -28.0826   22.7092 H   0  0  0  0  0  0
  -24.5901  -30.7046   25.7809 H   0  0  0  0  0  0
  -24.8895  -32.2819   26.5012 H   0  0  0  0  0  0
  -25.8055  -30.8804   27.0240 H   0  0  0  0  0  0
  -26.2890  -29.6843   24.1182 H   0  0  0  0  0  0
  -27.4054  -29.7309   25.4631 H   0  0  0  0  0  0
  -27.8726  -30.4441   23.9358 H   0  0  0  0  0  0
  -27.2771  -33.3600   26.2158 H   0  0  0  0  0  0
  -28.3846  -32.6879   25.0288 H   0  0  0  0  0  0
  -28.0809  -31.8384   26.5336 H   0  0  0  0  0  0
  -28.2607  -38.0114   24.7497 H   0  0  0  0  0  0
  -28.1091  -36.2636   24.6317 H   0  0  0  0  0  0
  -27.2288  -37.1481   25.8858 H   0  0  0  0  0  0
  -20.9316  -29.8713   21.6959 H   0  0  0  0  0  0
  -26.0227  -38.2855   24.1405 H   0  0  0  0  0  0
  -30.3821  -20.5381   22.8034 H   0  0  0  0  0  0
  -29.4527  -18.0408   19.4071 H   0  0  0  0  0  0
  -30.7403  -16.2595   23.1278 H   0  0  0  0  0  0
  -30.9566  -24.0591   20.3841 H   0  0  0  0  0  0
  -29.9036  -19.0020   26.4299 H   0  0  0  0  0  0
  -28.9260  -18.1389   25.2432 H   0  0  0  0  0  0
  -29.2468  -19.8519   25.0364 H   0  0  0  0  0  0
  -32.5640  -21.6317   18.4904 H   0  0  0  0  0  0
  -32.3412  -20.0502   19.2538 H   0  0  0  0  0  0
  -33.7747  -20.9986   19.5994 H   0  0  0  0  0  0
  -29.4730  -26.7120   22.4033 H   0  0  0  0  0  0
  -30.6124  -26.0790   21.2322 H   0  0  0  0  0  0
  -29.9969  -25.0494   22.5287 H   0  0  0  0  0  0
  -27.5464  -24.2982   22.5251 H   0  0  0  0  0  0
  -26.4296  -24.9089   21.3322 H   0  0  0  0  0  0
  -27.1460  -26.0078   22.5087 H   0  0  0  0  0  0
  -28.5784  -21.0539   20.4157 H   0  0  0  0  0  0
  -29.6219  -20.5355   19.1330 H   0  0  0  0  0  0
  -31.7033  -19.3475   24.6850 H   0  0  0  0  0  0
  -31.3799  -17.6455   24.9494 H   0  0  0  0  0  0
  -27.9902  -23.3799   20.1760 H   0  0  0  0  0  0
  -28.7872  -24.3692   19.0069 H   0  0  0  0  0  0
  -32.1673  -21.1741   21.4960 H   0  0  0  0  0  0
  -32.5368  -22.6854   20.7874 H   0  0  0  0  0  0
  -28.8506  -15.3779   20.8166 H   0  0  0  0  0  0
  1 25  1  0  0  0
  1 30  2  0  0  0
  1 88  1  0  0  0
  2  3  1  0  0  0
  2 25  1  0  0  0
  2 89  1  0  0  0
  2 90  1  0  0  0
  3  4  1  0  0  0
  3 91  1  0  0  0
  3 92  1  0  0  0
  4  5  1  0  0  0
  4 93  1  0  0  0
  4 94  1  0  0  0
  5  6  1  0  0  0
  5 26  1  0  0  0
  5 95  1  0  0  0
  6 25  1  0  0  0
  6 96  1  0  0  0
  6 97  1  0  0  0
  7  8  2  0  0  0
  7 26  1  0  0  0
  7 29  1  0  0  0
  8  9  1  0  0  0
  8 22  1  0  0  0
  9 10  1  0  0  0
  9 27  2  0  0  0
 10 11  2  0  0  0
 10 15  1  0  0  0
 11 12  1  0  0  0
 11 98  1  0  0  0
 12 13  2  0  0  0
 12 99  1  0  0  0
 13 14  1  0  0  0
 13 31  1  0  0  0
 14 15  2  0  0  0
 14100  1  0  0  0
 15101  1  0  0  0
 16 17  2  0  0  0
 16 21  1  0  0  0
 16 31  1  0  0  0
 17 18  1  0  0  0
 17102  1  0  0  0
 18 19  2  0  0  0
 18103  1  0  0  0
 19 20  1  0  0  0
 19 24  1  0  0  0
 20 21  2  0  0  0
 20104  1  0  0  0
 21 23  1  0  0  0
 22 28  1  0  0  0
 22 32  2  0  0  0
 26 27  1  0  0  0
 28105  1  0  0  0
 28106  1  0  0  0
 29107  1  0  0  0
 29108  1  0  0  0
 33 34  1  0  0  0
 33 66  1  0  0  0
 33 70  2  0  0  0
 34 36  1  0  0  0
 34 59  1  0  0  0
 34109  1  0  0  0
 35 44  2  0  0  0
 35 45  1  0  0  0
 35 68  1  0  0  0
 36 56  1  0  0  0
 36110  1  0  0  0
 37 39  1  0  0  0
 37 47  1  0  0  0
 37 66  1  0  0  0
 37111  1  0  0  0
 38 43  2  0  0  0
 38 46  1  0  0  0
 38 47  1  0  0  0
 39 64  1  0  0  0
 39 67  2  0  0  0
 40 52  1  0  0  0
 40 53  2  0  0  0
 40 58  1  0  0  0
 41112  1  0  0  0
 41113  1  0  0  0
 41114  1  0  0  0
 41 48  1  0  0  0
 42 43  1  0  0  0
 42 66  1  0  0  0
 42115  1  0  0  0
 42116  1  0  0  0
 43 44  1  0  0  0
 44117  1  0  0  0
 45 46  2  0  0  0
 45118  1  0  0  0
 46119  1  0  0  0
 47120  1  0  0  0
 47121  1  0  0  0
 48 56  1  0  0  0
 48 65  1  0  0  0
 48122  1  0  0  0
 49 50  1  0  0  0
 49 53  1  0  0  0
 49 64  1  0  0  0
 49123  1  0  0  0
 50 51  1  0  0  0
 50124  1  0  0  0
 50125  1  0  0  0
 51 52  1  0  0  0
 51126  1  0  0  0
 51127  1  0  0  0
 52128  1  0  0  0
 52129  1  0  0  0
 53 54  1  0  0  0
 54 55  2  0  0  0
 54130  1  0  0  0
 55 57  1  0  0  0
 55131  1  0  0  0
 56 69  2  0  0  0
 57 58  2  0  0  0
 57132  1  0  0  0
 58133  1  0  0  0
 59 60  1  0  0  0
 59 61  1  0  0  0
 59 62  1  0  0  0
 60134  1  0  0  0
 60135  1  0  0  0
 60136  1  0  0  0
 61137  1  0  0  0
 61138  1  0  0  0
 61139  1  0  0  0
 62140  1  0  0  0
 62141  1  0  0  0
 62142  1  0  0  0
 63 65  1  0  0  0
 63143  1  0  0  0
 63144  1  0  0  0
 63145  1  0  0  0
 64146  1  0  0  0
 65147  1  0  0  0
 68 87  1  0  0  0
 71 74  2  0  0  0
 71 75  1  0  0  0
 71148  1  0  0  0
 72 74  1  0  0  0
 72 76  2  0  0  0
 72149  1  0  0  0
 73 75  2  0  0  0
 73 76  1  0  0  0
 73150  1  0  0  0
 74 83  1  0  0  0
 75 84  1  0  0  0
 76 88  1  0  0  0
 77 78  2  0  0  0
 77 85  1  0  0  0
 77151  1  0  0  0
 78 83  1  0  0  0
 78 86  1  0  0  0
 79 84  1  0  0  0
 79152  1  0  0  0
 79153  1  0  0  0
 79154  1  0  0  0
 80 86  1  0  0  0
 80155  1  0  0  0
 80156  1  0  0  0
 80157  1  0  0  0
 81158  1  0  0  0
 81159  1  0  0  0
 81160  1  0  0  0
 81 87  1  0  0  0
 82 87  1  0  0  0
 82161  1  0  0  0
 82162  1  0  0  0
 82163  1  0  0  0
 83164  1  0  0  0
 83165  1  0  0  0
 84166  1  0  0  0
 84167  1  0  0  0
 85 87  1  0  0  0
 85168  1  0  0  0
 85169  1  0  0  0
 86170  1  0  0  0
 86171  1  0  0  0
 88172  1  0  0  0
M  ISO  4   1 100  68 101  87 101  88 100
M  END
> <chiral flag>
0

> <version>
0

> <s_m_source_file>
/data/baiqing/PycharmProjects/Reinvent-master-3.2/result/LINK_invent/BTK/process_docking_weight1_custom_product_contain_oxygen_bond_distance_aromatic_linkinvent_7_9_3/rearranged_h_0136.sdf

> <i_m_source_file_index>
85

> <r_mmod_Potential_Energy-OPLS-2005>
86.4412536621094

> <r_mmod_Stretch_Energy-OPLS-2005>
63.395580291748

> <r_mmod_Bend_Energy-OPLS-2005>
140.028030395508

> <r_mmod_Torsional_Energy-OPLS-2005>
283.552368164062

> <r_mmod_Improper_Torsional_Energy-OPLS-2005>
9.19455337524414

> <r_mmod_Van_der_Waal_Energy-OPLS-2005>
145.293838500977

> <r_mmod_Electrostatic_Energy-OPLS-2005>
-395.382934570312

> <r_mmod_Solvation_Energy-OPLS-2005>
-189.158905029297

> <b_mmod_Minimization_Converged-OPLS-2005>
0

> <r_mmod_RMS_Derivative-OPLS-2005>
4.70363426208496

$$$$
85
                    3D
 Structure written by MMmdl.
163171  0  0  1  0            999 V2000
  -30.6939  -14.5146   20.5273 C   0  0  0  0  0  0
  -30.4248  -12.3087   19.4674 C   0  0  0  0  0  0
  -29.5073  -12.4675   18.2357 C   0  0  0  0  0  0
  -28.0279  -12.3341   18.6441 C   0  0  0  0  0  0
  -27.6598  -13.2101   19.8710 C   0  0  2  0  0  0
  -28.6946  -13.0475   21.0092 C   0  0  0  0  0  0
  -25.2561  -13.8186   20.5670 C   0  0  0  0  0  0
  -24.1811  -13.0456   20.9174 C   0  0  0  0  0  0
  -24.6370  -11.6915   20.8752 C   0  0  0  0  0  0
  -23.9051  -10.4290   21.0435 C   0  0  0  0  0  0
  -24.3618   -9.4197   21.9202 C   0  0  0  0  0  0
  -23.6280   -8.2241   22.0754 C   0  0  0  0  0  0
  -22.4268   -8.0283   21.3559 C   0  0  0  0  0  0
  -21.9898   -9.0259   20.4670 C   0  0  0  0  0  0
  -22.7234  -10.2136   20.3081 C   0  0  0  0  0  0
  -21.6849   -6.0739   22.5289 C   0  0  0  0  0  0
  -21.4015   -6.5647   23.8220 C   0  0  0  0  0  0
  -21.3657   -5.6794   24.9180 C   0  0  0  0  0  0
  -21.6043   -4.3059   24.7235 C   0  0  0  0  0  0
  -21.8808   -3.8145   23.4356 C   0  0  0  0  0  0
  -21.9184   -4.6967   22.3410 C   0  0  0  0  0  0
  -22.7846  -13.5255   21.1855 C   0  0  0  0  0  0
  -22.1659   -4.2151   21.0984 F   0  0  0  0  0  0
  -21.5624   -3.4536   25.7746 F   0  0  0  0  0  0
  -30.0315  -13.3260   20.4576 N   0  0  0  0  0  0
  -26.2993  -12.9365   20.3329 N   0  0  0  0  0  0
  -25.9294  -11.6524   20.5778 N   0  0  0  0  0  0
  -22.0484  -12.8253   22.0426 N   0  0  0  0  0  0
  -25.4284  -15.1903   20.4097 N   0  0  0  0  0  0
  -31.8377  -14.6615   20.0833 O   0  0  0  0  0  0
  -21.6628   -6.8883   21.4251 O   0  0  0  0  0  0
  -22.3535  -14.5558   20.6667 O   0  0  0  0  0  0
  -24.6142  -31.8665   23.2094 C   0  0  0  0  0  0
  -25.9033  -32.4810   23.8394 C   0  0  1  0  0  0
  -27.2365  -27.4201   20.1147 C   0  0  0  0  0  0
  -25.5865  -33.8613   24.2299 N   0  0  0  0  0  0
  -23.4043  -30.4879   21.5488 C   0  0  2  0  0  0
  -24.8527  -28.9491   20.1211 C   0  0  0  0  0  0
  -22.7419  -29.4644   22.4989 C   0  0  0  0  0  0
  -18.0279  -28.1385   22.8488 C   0  0  0  0  0  0
  -24.1482  -36.7314   23.2638 C   0  0  0  0  0  0
  -25.9336  -30.8286   21.3657 C   0  0  0  0  0  0
  -26.0122  -29.4609   20.7143 C   0  0  0  0  0  0
  -27.2097  -28.7081   20.7014 C   0  0  0  0  0  0
  -26.0598  -26.9244   19.5132 C   0  0  0  0  0  0
  -24.8703  -27.6800   19.5159 C   0  0  0  0  0  0
  -23.6154  -29.8186   20.1644 C   0  0  0  0  0  0
  -25.4101  -36.3096   24.0326 C   0  0  1  0  0  0
  -20.5870  -28.3663   23.1312 C   0  0  2  0  0  0
  -20.6759  -26.9401   22.5420 C   0  0  0  0  0  0
  -19.5740  -26.6390   21.5214 C   0  0  0  0  0  0
  -18.1922  -26.7932   22.1626 C   0  0  0  0  0  0
  -19.1528  -28.8842   23.2895 C   0  0  0  0  0  0
  -18.9465  -30.1441   23.8916 C   0  0  0  0  0  0
  -17.6469  -30.6578   24.0579 C   0  0  0  0  0  0
  -25.9031  -34.9466   23.5120 C   0  0  0  0  0  0
  -16.5357  -29.9091   23.6321 C   0  0  0  0  0  0
  -16.7274  -28.6508   23.0346 C   0  0  0  0  0  0
  -26.4469  -31.6610   25.0734 C   0  0  0  0  0  0
  -25.3731  -31.3766   26.1489 C   0  0  0  0  0  0
  -27.0276  -30.3027   24.6143 C   0  0  0  0  0  0
  -27.6045  -32.4346   25.7468 C   0  0  0  0  0  0
  -27.5581  -37.1791   24.8459 C   0  0  0  0  0  0
  -21.4156  -29.3015   22.3713 N   0  0  0  0  0  0
  -26.4278  -37.3784   23.9420 N   0  0  0  0  0  0
  -24.6685  -31.0771   22.0981 N   0  0  0  0  0  0
  -23.4179  -28.8200   23.3055 O   0  0  0  0  0  0
  -28.4057  -26.6855   20.1063 O   0  0  0  0  0  0
  -26.5633  -34.8923   22.4708 O   0  0  0  0  0  0
  -23.5331  -32.1422   23.7464 O   0  0  0  0  0  0
  -29.8337  -18.0841   21.0494 C   0  0  0  0  0  0
  -29.7221  -19.3746   18.9929 C   0  0  0  0  0  0
  -29.9704  -16.9495   18.8966 C   0  0  0  0  0  0
  -29.7228  -19.3633   20.4102 C   0  0  0  0  0  0
  -29.9591  -16.8730   20.3080 C   0  0  0  0  0  0
  -29.8509  -18.1898   18.2479 C   0  0  0  0  0  0
  -29.8791  -21.8817   20.6169 C   0  0  0  0  0  0
  -29.6214  -20.6609   21.1755 C   0  0  0  0  0  0
  -29.2095  -20.5229   22.6372 C   0  0  0  0  0  0
  -31.1212  -23.4243   22.1431 C   0  0  0  0  0  0
  -29.8441  -24.3184   18.8756 C   0  0  0  0  0  0
  -28.3371  -25.3523   20.6570 C   0  0  0  0  0  0
  -29.8400  -23.2700   21.2998 C   0  0  1  0  0  0
  -29.6476  -24.5505   20.3849 C   0  0  1  0  0  0
  -29.9846  -15.5839   20.9551 N   0  0  0  0  0  0
  -29.8496  -18.2448   16.8949 F   0  0  0  0  0  0
  -31.4747  -12.3848   19.1765 H   0  0  0  0  0  0
  -30.3134  -11.3144   19.9010 H   0  0  0  0  0  0
  -29.7503  -11.7096   17.4890 H   0  0  0  0  0  0
  -29.6803  -13.4345   17.7610 H   0  0  0  0  0  0
  -27.8503  -11.2829   18.8786 H   0  0  0  0  0  0
  -27.3754  -12.5685   17.8029 H   0  0  0  0  0  0
  -27.6911  -14.2466   19.5343 H   0  0  0  0  0  0
  -28.6643  -12.0330   21.4087 H   0  0  0  0  0  0
  -28.4503  -13.7008   21.8466 H   0  0  0  0  0  0
  -25.2771   -9.5644   22.4764 H   0  0  0  0  0  0
  -23.9989   -7.4622   22.7444 H   0  0  0  0  0  0
  -21.0837   -8.8793   19.8978 H   0  0  0  0  0  0
  -22.3711  -10.9678   19.6185 H   0  0  0  0  0  0
  -21.2019   -7.6149   23.9726 H   0  0  0  0  0  0
  -21.1494   -6.0527   25.9084 H   0  0  0  0  0  0
  -22.0586   -2.7605   23.2854 H   0  0  0  0  0  0
  -22.4111  -11.9938   22.4856 H   0  0  0  0  0  0
  -21.1111  -13.1303   22.2666 H   0  0  0  0  0  0
  -24.6582  -15.8429   20.5064 H   0  0  0  0  0  0
  -26.2773  -15.6290   20.0752 H   0  0  0  0  0  0
  -26.7111  -32.5523   23.1165 H   0  0  0  0  0  0
  -24.9958  -33.9785   25.0400 H   0  0  0  0  0  0
  -22.6909  -31.3023   21.4073 H   0  0  0  0  0  0
  -23.3731  -35.9663   23.3303 H   0  0  0  0  0  0
  -24.3574  -36.8938   22.2054 H   0  0  0  0  0  0
  -23.7250  -37.6515   23.6675 H   0  0  0  0  0  0
  -26.0539  -31.5935   20.5969 H   0  0  0  0  0  0
  -26.8166  -30.8764   21.9914 H   0  0  0  0  0  0
  -28.1087  -29.1021   21.1555 H   0  0  0  0  0  0
  -26.0590  -25.9577   19.0293 H   0  0  0  0  0  0
  -23.9784  -27.2803   19.0550 H   0  0  0  0  0  0
  -23.7321  -30.5922   19.4047 H   0  0  0  0  0  0
  -22.7386  -29.2406   19.8663 H   0  0  0  0  0  0
  -25.1276  -36.1952   25.0812 H   0  0  0  0  0  0
  -20.9949  -28.3239   24.1436 H   0  0  0  0  0  0
  -20.5643  -26.2288   23.3619 H   0  0  0  0  0  0
  -21.6638  -26.7434   22.1231 H   0  0  0  0  0  0
  -19.6910  -25.6307   21.1226 H   0  0  0  0  0  0
  -19.6678  -27.3216   20.6758 H   0  0  0  0  0  0
  -17.4193  -26.6683   21.4029 H   0  0  0  0  0  0
  -18.0323  -26.0072   22.9016 H   0  0  0  0  0  0
  -19.7939  -30.7253   24.2298 H   0  0  0  0  0  0
  -17.5024  -31.6263   24.5195 H   0  0  0  0  0  0
  -15.5353  -30.3015   23.7626 H   0  0  0  0  0  0
  -15.8673  -28.0835   22.7053 H   0  0  0  0  0  0
  -24.5871  -30.7147   25.7846 H   0  0  0  0  0  0
  -24.8972  -32.2951   26.4931 H   0  0  0  0  0  0
  -25.8062  -30.8934   27.0254 H   0  0  0  0  0  0
  -26.2818  -29.6802   24.1183 H   0  0  0  0  0  0
  -27.3994  -29.7265   25.4627 H   0  0  0  0  0  0
  -27.8690  -30.4313   23.9330 H   0  0  0  0  0  0
  -27.2652  -33.3621   26.2099 H   0  0  0  0  0  0
  -28.3801  -32.6955   25.0254 H   0  0  0  0  0  0
  -28.0789  -31.8461   26.5333 H   0  0  0  0  0  0
  -28.2593  -38.0089   24.7492 H   0  0  0  0  0  0
  -28.1069  -36.2619   24.6274 H   0  0  0  0  0  0
  -27.2320  -37.1437   25.8866 H   0  0  0  0  0  0
  -20.9342  -29.8710   21.6895 H   0  0  0  0  0  0
  -26.0162  -38.2853   24.1435 H   0  0  0  0  0  0
  -29.8283  -18.0151   22.1279 H   0  0  0  0  0  0
  -29.6120  -20.2920   18.4362 H   0  0  0  0  0  0
  -30.0428  -16.0581   18.2896 H   0  0  0  0  0  0
  -30.1895  -21.9071   19.5860 H   0  0  0  0  0  0
  -28.2776  -19.9653   22.7211 H   0  0  0  0  0  0
  -29.0552  -21.4726   23.1454 H   0  0  0  0  0  0
  -29.9793  -19.9923   23.1977 H   0  0  0  0  0  0
  -31.2531  -22.5921   22.8370 H   0  0  0  0  0  0
  -31.1071  -24.3405   22.7363 H   0  0  0  0  0  0
  -32.0052  -23.4570   21.5065 H   0  0  0  0  0  0
  -29.7584  -25.2549   18.3244 H   0  0  0  0  0  0
  -29.0978  -23.6368   18.4685 H   0  0  0  0  0  0
  -30.8346  -23.9186   18.6570 H   0  0  0  0  0  0
  -28.1845  -25.4593   21.7327 H   0  0  0  0  0  0
  -27.4847  -24.7866   20.2830 H   0  0  0  0  0  0
  -29.0006  -23.2611   21.9934 H   0  0  0  0  0  0
  -30.4424  -25.2468   20.6571 H   0  0  0  0  0  0
  -29.1867  -15.3731   21.5374 H   0  0  0  0  0  0
  1 25  1  0  0  0
  1 30  2  0  0  0
  1 85  1  0  0  0
  2  3  1  0  0  0
  2 25  1  0  0  0
  2 87  1  0  0  0
  2 88  1  0  0  0
  3  4  1  0  0  0
  3 89  1  0  0  0
  3 90  1  0  0  0
  4  5  1  0  0  0
  4 91  1  0  0  0
  4 92  1  0  0  0
  5  6  1  0  0  0
  5 26  1  0  0  0
  5 93  1  0  0  0
  6 25  1  0  0  0
  6 94  1  0  0  0
  6 95  1  0  0  0
  7  8  2  0  0  0
  7 26  1  0  0  0
  7 29  1  0  0  0
  8  9  1  0  0  0
  8 22  1  0  0  0
  9 10  1  0  0  0
  9 27  2  0  0  0
 10 11  2  0  0  0
 10 15  1  0  0  0
 11 12  1  0  0  0
 11 96  1  0  0  0
 12 13  2  0  0  0
 12 97  1  0  0  0
 13 14  1  0  0  0
 13 31  1  0  0  0
 14 15  2  0  0  0
 14 98  1  0  0  0
 15 99  1  0  0  0
 16 17  2  0  0  0
 16 21  1  0  0  0
 16 31  1  0  0  0
 17 18  1  0  0  0
 17100  1  0  0  0
 18 19  2  0  0  0
 18101  1  0  0  0
 19 20  1  0  0  0
 19 24  1  0  0  0
 20 21  2  0  0  0
 20102  1  0  0  0
 21 23  1  0  0  0
 22 28  1  0  0  0
 22 32  2  0  0  0
 26 27  1  0  0  0
 28103  1  0  0  0
 28104  1  0  0  0
 29105  1  0  0  0
 29106  1  0  0  0
 33 34  1  0  0  0
 33 66  1  0  0  0
 33 70  2  0  0  0
 34 36  1  0  0  0
 34 59  1  0  0  0
 34107  1  0  0  0
 35 44  2  0  0  0
 35 45  1  0  0  0
 35 68  1  0  0  0
 36 56  1  0  0  0
 36108  1  0  0  0
 37 39  1  0  0  0
 37 47  1  0  0  0
 37 66  1  0  0  0
 37109  1  0  0  0
 38 43  2  0  0  0
 38 46  1  0  0  0
 38 47  1  0  0  0
 39 64  1  0  0  0
 39 67  2  0  0  0
 40 52  1  0  0  0
 40 53  2  0  0  0
 40 58  1  0  0  0
 41110  1  0  0  0
 41111  1  0  0  0
 41112  1  0  0  0
 41 48  1  0  0  0
 42 43  1  0  0  0
 42 66  1  0  0  0
 42113  1  0  0  0
 42114  1  0  0  0
 43 44  1  0  0  0
 44115  1  0  0  0
 45 46  2  0  0  0
 45116  1  0  0  0
 46117  1  0  0  0
 47118  1  0  0  0
 47119  1  0  0  0
 48 56  1  0  0  0
 48 65  1  0  0  0
 48120  1  0  0  0
 49 50  1  0  0  0
 49 53  1  0  0  0
 49 64  1  0  0  0
 49121  1  0  0  0
 50 51  1  0  0  0
 50122  1  0  0  0
 50123  1  0  0  0
 51 52  1  0  0  0
 51124  1  0  0  0
 51125  1  0  0  0
 52126  1  0  0  0
 52127  1  0  0  0
 53 54  1  0  0  0
 54 55  2  0  0  0
 54128  1  0  0  0
 55 57  1  0  0  0
 55129  1  0  0  0
 56 69  2  0  0  0
 57 58  2  0  0  0
 57130  1  0  0  0
 58131  1  0  0  0
 59 60  1  0  0  0
 59 61  1  0  0  0
 59 62  1  0  0  0
 60132  1  0  0  0
 60133  1  0  0  0
 60134  1  0  0  0
 61135  1  0  0  0
 61136  1  0  0  0
 61137  1  0  0  0
 62138  1  0  0  0
 62139  1  0  0  0
 62140  1  0  0  0
 63 65  1  0  0  0
 63141  1  0  0  0
 63142  1  0  0  0
 63143  1  0  0  0
 64144  1  0  0  0
 65145  1  0  0  0
 68 82  1  0  0  0
 71 74  2  0  0  0
 71 75  1  0  0  0
 71146  1  0  0  0
 72 74  1  0  0  0
 72 76  2  0  0  0
 72147  1  0  0  0
 73 75  2  0  0  0
 73 76  1  0  0  0
 73148  1  0  0  0
 74 78  1  0  0  0
 75 85  1  0  0  0
 76 86  1  0  0  0
 77 78  2  0  0  0
 77 83  1  0  0  0
 77149  1  0  0  0
 78 79  1  0  0  0
 79150  1  0  0  0
 79151  1  0  0  0
 79152  1  0  0  0
 80153  1  0  0  0
 80154  1  0  0  0
 80155  1  0  0  0
 80 83  1  0  0  0
 81156  1  0  0  0
 81157  1  0  0  0
 81158  1  0  0  0
 81 84  1  0  0  0
 82 84  1  0  0  0
 82159  1  0  0  0
 82160  1  0  0  0
 83 84  1  0  0  0
 83161  1  0  0  0
 84162  1  0  0  0
 85163  1  0  0  0
M  ISO  4   1 100  68 101  82 101  85 100
M  END
> <chiral flag>
0

> <version>
0

> <s_m_source_file>
/data/baiqing/PycharmProjects/Reinvent-master-3.2/result/LINK_invent/BTK/process_docking_weight1_custom_product_contain_oxygen_bond_distance_aromatic_linkinvent_7_9_3/rearranged_h_0136.sdf

> <i_m_source_file_index>
86

> <r_mmod_Potential_Energy-OPLS-2005>
55.6482963562012

> <r_mmod_Stretch_Energy-OPLS-2005>
51.4319038391113

> <r_mmod_Bend_Energy-OPLS-2005>
106.198722839355

> <r_mmod_Torsional_Energy-OPLS-2005>
270.767913818359

> <r_mmod_Improper_Torsional_Energy-OPLS-2005>
5.48582553863525

> <r_mmod_Van_der_Waal_Energy-OPLS-2005>
161.322067260742

> <r_mmod_Electrostatic_Energy-OPLS-2005>
-363.719421386719

> <r_mmod_Solvation_Energy-OPLS-2005>
-194.291656494141

> <b_mmod_Minimization_Converged-OPLS-2005>
0

> <r_mmod_RMS_Derivative-OPLS-2005>
3.56077933311462

$$$$
86
                    3D
 Structure written by MMmdl.
165173  0  0  1  0            999 V2000
  -30.6268  -14.6264   20.4846 C   0  0  0  0  0  0
  -30.4414  -12.3788   19.4465 C   0  0  0  0  0  0
  -29.5107  -12.4943   18.2195 C   0  0  0  0  0  0
  -28.0332  -12.3380   18.6338 C   0  0  0  0  0  0
  -27.6569  -13.2101   19.8626 C   0  0  2  0  0  0
  -28.7026  -13.0641   20.9908 C   0  0  0  0  0  0
  -25.2589  -13.8150   20.5674 C   0  0  0  0  0  0
  -24.1854  -13.0433   20.9190 C   0  0  0  0  0  0
  -24.6406  -11.6894   20.8732 C   0  0  0  0  0  0
  -23.9067  -10.4288   21.0403 C   0  0  0  0  0  0
  -24.3615   -9.4213   21.9187 C   0  0  0  0  0  0
  -23.6292   -8.2253   22.0764 C   0  0  0  0  0  0
  -22.4277   -8.0286   21.3548 C   0  0  0  0  0  0
  -21.9914   -9.0254   20.4649 C   0  0  0  0  0  0
  -22.7238  -10.2129   20.3054 C   0  0  0  0  0  0
  -21.6857   -6.0742   22.5283 C   0  0  0  0  0  0
  -21.4012   -6.5643   23.8219 C   0  0  0  0  0  0
  -21.3659   -5.6792   24.9172 C   0  0  0  0  0  0
  -21.6042   -4.3059   24.7221 C   0  0  0  0  0  0
  -21.8822   -3.8146   23.4345 C   0  0  0  0  0  0
  -21.9197   -4.6969   22.3395 C   0  0  0  0  0  0
  -22.7879  -13.5237   21.1853 C   0  0  0  0  0  0
  -22.1666   -4.2155   21.0982 F   0  0  0  0  0  0
  -21.5626   -3.4541   25.7732 F   0  0  0  0  0  0
  -30.0180  -13.4002   20.4240 N   0  0  0  0  0  0
  -26.3020  -12.9323   20.3314 N   0  0  0  0  0  0
  -25.9329  -11.6480   20.5747 N   0  0  0  0  0  0
  -22.0503  -12.8219   22.0396 N   0  0  0  0  0  0
  -25.4300  -15.1873   20.4080 N   0  0  0  0  0  0
  -31.7882  -14.7872   20.1030 O   0  0  0  0  0  0
  -21.6647   -6.8875   21.4242 O   0  0  0  0  0  0
  -22.3582  -14.5567   20.6734 O   0  0  0  0  0  0
  -24.6198  -31.8612   23.2024 C   0  0  0  0  0  0
  -25.9049  -32.4820   23.8339 C   0  0  1  0  0  0
  -27.2592  -27.3715   20.0883 C   0  0  0  0  0  0
  -25.5883  -33.8606   24.2291 N   0  0  0  0  0  0
  -23.4165  -30.4811   21.5417 C   0  0  2  0  0  0
  -24.8695  -28.9379   20.1129 C   0  0  0  0  0  0
  -22.7454  -29.4612   22.4908 C   0  0  0  0  0  0
  -18.0271  -28.1396   22.8497 C   0  0  0  0  0  0
  -24.1492  -36.7267   23.2645 C   0  0  0  0  0  0
  -25.9517  -30.8072   21.3645 C   0  0  0  0  0  0
  -26.0330  -29.4350   20.7109 C   0  0  0  0  0  0
  -27.2279  -28.6635   20.6911 C   0  0  0  0  0  0
  -26.0670  -26.9042   19.4892 C   0  0  0  0  0  0
  -24.8836  -27.6724   19.5028 C   0  0  0  0  0  0
  -23.6331  -29.8093   20.1599 C   0  0  0  0  0  0
  -25.4110  -36.3093   24.0350 C   0  0  1  0  0  0
  -20.5885  -28.3666   23.1307 C   0  0  2  0  0  0
  -20.6773  -26.9390   22.5414 C   0  0  0  0  0  0
  -19.5753  -26.6381   21.5222 C   0  0  0  0  0  0
  -18.1914  -26.7946   22.1614 C   0  0  0  0  0  0
  -19.1525  -28.8835   23.2907 C   0  0  0  0  0  0
  -18.9457  -30.1446   23.8922 C   0  0  0  0  0  0
  -17.6467  -30.6594   24.0571 C   0  0  0  0  0  0
  -25.9026  -34.9479   23.5113 C   0  0  0  0  0  0
  -16.5351  -29.9099   23.6336 C   0  0  0  0  0  0
  -16.7254  -28.6525   23.0349 C   0  0  0  0  0  0
  -26.4467  -31.6598   25.0669 C   0  0  0  0  0  0
  -25.3715  -31.3714   26.1397 C   0  0  0  0  0  0
  -27.0308  -30.3058   24.6021 C   0  0  0  0  0  0
  -27.6043  -32.4317   25.7430 C   0  0  0  0  0  0
  -27.5585  -37.1777   24.8467 C   0  0  0  0  0  0
  -21.4165  -29.3046   22.3695 N   0  0  0  0  0  0
  -26.4295  -37.3786   23.9433 N   0  0  0  0  0  0
  -24.6819  -31.0649   22.0946 N   0  0  0  0  0  0
  -23.4211  -28.8127   23.2943 O   0  0  0  0  0  0
  -28.4335  -26.6100   20.0959 O   0  0  0  0  0  0
  -26.5593  -34.8961   22.4685 O   0  0  0  0  0  0
  -23.5366  -32.1347   23.7378 O   0  0  0  0  0  0
  -29.0791  -19.3502   21.4401 C   0  0  0  0  0  0
  -30.9860  -19.2552   19.9941 C   0  0  0  0  0  0
  -29.0074  -17.9290   21.4301 C   0  0  0  0  0  0
  -30.9208  -17.8280   19.9865 C   0  0  0  0  0  0
  -30.1034  -20.0729   20.7684 C   0  0  0  0  0  0
  -29.9483  -17.1218   20.7413 C   0  0  0  0  0  0
  -30.2187  -21.7346   22.6220 C   0  0  0  0  0  0
  -31.8634  -21.9165   20.7966 C   0  0  0  0  0  0
  -29.9724  -24.8769   21.7691 C   0  0  0  0  0  0
  -30.8215  -24.7485   19.4202 C   0  0  0  0  0  0
  -29.4420  -22.7081   20.3365 C   0  0  0  0  0  0
  -28.3925  -25.1570   19.8619 C   0  0  0  0  0  0
  -30.3772  -21.6130   21.0842 C   0  0  0  0  0  0
  -29.6653  -24.3265   20.3592 C   0  0  0  0  0  0
  -29.8125  -15.6701   20.8295 N   0  0  0  0  0  0
  -31.4830  -12.5026   19.1438 H   0  0  0  0  0  0
  -30.3742  -11.3828   19.8872 H   0  0  0  0  0  0
  -29.7698  -11.7329   17.4827 H   0  0  0  0  0  0
  -29.6600  -13.4573   17.7288 H   0  0  0  0  0  0
  -27.8699  -11.2853   18.8661 H   0  0  0  0  0  0
  -27.3797  -12.5659   17.7914 H   0  0  0  0  0  0
  -27.6767  -14.2453   19.5231 H   0  0  0  0  0  0
  -28.7138  -12.0445   21.3791 H   0  0  0  0  0  0
  -28.4520  -13.6994   21.8408 H   0  0  0  0  0  0
  -25.2756   -9.5705   22.4765 H   0  0  0  0  0  0
  -24.0007   -7.4649   22.7486 H   0  0  0  0  0  0
  -21.0845   -8.8756   19.8948 H   0  0  0  0  0  0
  -22.3693  -10.9664   19.6161 H   0  0  0  0  0  0
  -21.2006   -7.6148   23.9716 H   0  0  0  0  0  0
  -21.1472   -6.0525   25.9079 H   0  0  0  0  0  0
  -22.0601   -2.7610   23.2839 H   0  0  0  0  0  0
  -22.4095  -11.9858   22.4753 H   0  0  0  0  0  0
  -21.1120  -13.1243   22.2580 H   0  0  0  0  0  0
  -24.6595  -15.8368   20.5201 H   0  0  0  0  0  0
  -26.2686  -15.6269   20.0491 H   0  0  0  0  0  0
  -26.7096  -32.5504   23.1067 H   0  0  0  0  0  0
  -25.0095  -33.9768   25.0492 H   0  0  0  0  0  0
  -22.7084  -31.2979   21.3936 H   0  0  0  0  0  0
  -23.3803  -35.9551   23.3297 H   0  0  0  0  0  0
  -24.3586  -36.8869   22.2056 H   0  0  0  0  0  0
  -23.7196  -37.6454   23.6648 H   0  0  0  0  0  0
  -26.0660  -31.5711   20.5948 H   0  0  0  0  0  0
  -26.8426  -30.8654   21.9785 H   0  0  0  0  0  0
  -28.1253  -29.0506   21.1523 H   0  0  0  0  0  0
  -26.0347  -25.9415   19.0006 H   0  0  0  0  0  0
  -23.9892  -27.2807   19.0390 H   0  0  0  0  0  0
  -23.7453  -30.5818   19.3991 H   0  0  0  0  0  0
  -22.7614  -29.2252   19.8584 H   0  0  0  0  0  0
  -25.1296  -36.1946   25.0843 H   0  0  0  0  0  0
  -20.9965  -28.3214   24.1431 H   0  0  0  0  0  0
  -20.5679  -26.2243   23.3581 H   0  0  0  0  0  0
  -21.6632  -26.7413   22.1193 H   0  0  0  0  0  0
  -19.6912  -25.6298   21.1207 H   0  0  0  0  0  0
  -19.6741  -27.3227   20.6793 H   0  0  0  0  0  0
  -17.4195  -26.6705   21.3996 H   0  0  0  0  0  0
  -18.0299  -26.0090   22.9006 H   0  0  0  0  0  0
  -19.7944  -30.7250   24.2299 H   0  0  0  0  0  0
  -17.5033  -31.6292   24.5143 H   0  0  0  0  0  0
  -15.5359  -30.3026   23.7676 H   0  0  0  0  0  0
  -15.8644  -28.0868   22.7061 H   0  0  0  0  0  0
  -24.5936  -30.7012   25.7709 H   0  0  0  0  0  0
  -24.8863  -32.2881   26.4761 H   0  0  0  0  0  0
  -25.8052  -30.8928   27.0195 H   0  0  0  0  0  0
  -26.2839  -29.6812   24.1100 H   0  0  0  0  0  0
  -27.4161  -29.7268   25.4430 H   0  0  0  0  0  0
  -27.8636  -30.4427   23.9122 H   0  0  0  0  0  0
  -27.2676  -33.3650   26.1956 H   0  0  0  0  0  0
  -28.3871  -32.6799   25.0248 H   0  0  0  0  0  0
  -28.0679  -31.8459   26.5369 H   0  0  0  0  0  0
  -28.2564  -38.0115   24.7576 H   0  0  0  0  0  0
  -28.1125  -36.2646   24.6217 H   0  0  0  0  0  0
  -27.2309  -37.1320   25.8873 H   0  0  0  0  0  0
  -20.9275  -29.8807   21.6980 H   0  0  0  0  0  0
  -26.0177  -38.2852   24.1510 H   0  0  0  0  0  0
  -28.3615  -19.8768   22.0522 H   0  0  0  0  0  0
  -31.7891  -19.7041   19.4297 H   0  0  0  0  0  0
  -28.2272  -17.4566   22.0097 H   0  0  0  0  0  0
  -31.6516  -17.2816   19.4061 H   0  0  0  0  0  0
  -30.7160  -20.9032   23.1261 H   0  0  0  0  0  0
  -29.1748  -21.7225   22.9352 H   0  0  0  0  0  0
  -30.6705  -22.6261   23.0413 H   0  0  0  0  0  0
  -32.5179  -21.2178   21.3205 H   0  0  0  0  0  0
  -32.1536  -22.9029   21.1502 H   0  0  0  0  0  0
  -32.0923  -21.8653   19.7320 H   0  0  0  0  0  0
  -30.9191  -24.5185   22.1653 H   0  0  0  0  0  0
  -29.1770  -24.6364   22.4750 H   0  0  0  0  0  0
  -30.0781  -25.9633   21.7568 H   0  0  0  0  0  0
  -31.8074  -24.4503   19.7673 H   0  0  0  0  0  0
  -30.8623  -25.8356   19.3345 H   0  0  0  0  0  0
  -30.6939  -24.3568   18.4101 H   0  0  0  0  0  0
  -28.4199  -22.5240   20.6687 H   0  0  0  0  0  0
  -29.4273  -22.4217   19.2844 H   0  0  0  0  0  0
  -27.5048  -24.7480   20.3448 H   0  0  0  0  0  0
  -28.2611  -25.0049   18.7875 H   0  0  0  0  0  0
  -28.9180  -15.3588   21.1725 H   0  0  0  0  0  0
  1 25  1  0  0  0
  1 30  2  0  0  0
  1 85  1  0  0  0
  2  3  1  0  0  0
  2 25  1  0  0  0
  2 86  1  0  0  0
  2 87  1  0  0  0
  3  4  1  0  0  0
  3 88  1  0  0  0
  3 89  1  0  0  0
  4  5  1  0  0  0
  4 90  1  0  0  0
  4 91  1  0  0  0
  5  6  1  0  0  0
  5 26  1  0  0  0
  5 92  1  0  0  0
  6 25  1  0  0  0
  6 93  1  0  0  0
  6 94  1  0  0  0
  7  8  2  0  0  0
  7 26  1  0  0  0
  7 29  1  0  0  0
  8  9  1  0  0  0
  8 22  1  0  0  0
  9 10  1  0  0  0
  9 27  2  0  0  0
 10 11  2  0  0  0
 10 15  1  0  0  0
 11 12  1  0  0  0
 11 95  1  0  0  0
 12 13  2  0  0  0
 12 96  1  0  0  0
 13 14  1  0  0  0
 13 31  1  0  0  0
 14 15  2  0  0  0
 14 97  1  0  0  0
 15 98  1  0  0  0
 16 17  2  0  0  0
 16 21  1  0  0  0
 16 31  1  0  0  0
 17 18  1  0  0  0
 17 99  1  0  0  0
 18 19  2  0  0  0
 18100  1  0  0  0
 19 20  1  0  0  0
 19 24  1  0  0  0
 20 21  2  0  0  0
 20101  1  0  0  0
 21 23  1  0  0  0
 22 28  1  0  0  0
 22 32  2  0  0  0
 26 27  1  0  0  0
 28102  1  0  0  0
 28103  1  0  0  0
 29104  1  0  0  0
 29105  1  0  0  0
 33 34  1  0  0  0
 33 66  1  0  0  0
 33 70  2  0  0  0
 34 36  1  0  0  0
 34 59  1  0  0  0
 34106  1  0  0  0
 35 44  2  0  0  0
 35 45  1  0  0  0
 35 68  1  0  0  0
 36 56  1  0  0  0
 36107  1  0  0  0
 37 39  1  0  0  0
 37 47  1  0  0  0
 37 66  1  0  0  0
 37108  1  0  0  0
 38 43  2  0  0  0
 38 46  1  0  0  0
 38 47  1  0  0  0
 39 64  1  0  0  0
 39 67  2  0  0  0
 40 52  1  0  0  0
 40 53  2  0  0  0
 40 58  1  0  0  0
 41109  1  0  0  0
 41110  1  0  0  0
 41111  1  0  0  0
 41 48  1  0  0  0
 42 43  1  0  0  0
 42 66  1  0  0  0
 42112  1  0  0  0
 42113  1  0  0  0
 43 44  1  0  0  0
 44114  1  0  0  0
 45 46  2  0  0  0
 45115  1  0  0  0
 46116  1  0  0  0
 47117  1  0  0  0
 47118  1  0  0  0
 48 56  1  0  0  0
 48 65  1  0  0  0
 48119  1  0  0  0
 49 50  1  0  0  0
 49 53  1  0  0  0
 49 64  1  0  0  0
 49120  1  0  0  0
 50 51  1  0  0  0
 50121  1  0  0  0
 50122  1  0  0  0
 51 52  1  0  0  0
 51123  1  0  0  0
 51124  1  0  0  0
 52125  1  0  0  0
 52126  1  0  0  0
 53 54  1  0  0  0
 54 55  2  0  0  0
 54127  1  0  0  0
 55 57  1  0  0  0
 55128  1  0  0  0
 56 69  2  0  0  0
 57 58  2  0  0  0
 57129  1  0  0  0
 58130  1  0  0  0
 59 60  1  0  0  0
 59 61  1  0  0  0
 59 62  1  0  0  0
 60131  1  0  0  0
 60132  1  0  0  0
 60133  1  0  0  0
 61134  1  0  0  0
 61135  1  0  0  0
 61136  1  0  0  0
 62137  1  0  0  0
 62138  1  0  0  0
 62139  1  0  0  0
 63 65  1  0  0  0
 63140  1  0  0  0
 63141  1  0  0  0
 63142  1  0  0  0
 64143  1  0  0  0
 65144  1  0  0  0
 68 82  1  0  0  0
 71 73  2  0  0  0
 71 75  1  0  0  0
 71145  1  0  0  0
 72 74  1  0  0  0
 72 75  2  0  0  0
 72146  1  0  0  0
 73 76  1  0  0  0
 73147  1  0  0  0
 74 76  2  0  0  0
 74148  1  0  0  0
 75 83  1  0  0  0
 76 85  1  0  0  0
 77149  1  0  0  0
 77150  1  0  0  0
 77151  1  0  0  0
 77 83  1  0  0  0
 78 83  1  0  0  0
 78152  1  0  0  0
 78153  1  0  0  0
 78154  1  0  0  0
 79155  1  0  0  0
 79156  1  0  0  0
 79157  1  0  0  0
 79 84  1  0  0  0
 80 84  1  0  0  0
 80158  1  0  0  0
 80159  1  0  0  0
 80160  1  0  0  0
 81 83  1  0  0  0
 81 84  1  0  0  0
 81161  1  0  0  0
 81162  1  0  0  0
 82 84  1  0  0  0
 82163  1  0  0  0
 82164  1  0  0  0
 85165  1  0  0  0
M  ISO  4   1 100  68 101  82 101  85 100
M  END
> <chiral flag>
0

> <version>
0

> <s_m_source_file>
/data/baiqing/PycharmProjects/Reinvent-master-3.2/result/LINK_invent/BTK/process_docking_weight1_custom_product_contain_oxygen_bond_distance_aromatic_linkinvent_7_9_3/rearranged_h_0136.sdf

> <i_m_source_file_index>
87

> <r_mmod_Potential_Energy-OPLS-2005>
110.271629333496

> <r_mmod_Stretch_Energy-OPLS-2005>
93.8517684936523

> <r_mmod_Bend_Energy-OPLS-2005>
162.578002929688

> <r_mmod_Torsional_Energy-OPLS-2005>
239.178680419922

> <r_mmod_Improper_Torsional_Energy-OPLS-2005>
5.38179731369019

> <r_mmod_Van_der_Waal_Energy-OPLS-2005>
160.35595703125

> <r_mmod_Electrostatic_Energy-OPLS-2005>
-396.637725830078

> <r_mmod_Solvation_Energy-OPLS-2005>
-189.776062011719

> <b_mmod_Minimization_Converged-OPLS-2005>
0

> <r_mmod_RMS_Derivative-OPLS-2005>
3.96802735328674

$$$$
87
                    3D
 Structure written by MMmdl.
179187  0  0  1  0            999 V2000
  -30.6991  -14.4953   20.5746 C   0  0  0  0  0  0
  -30.4326  -12.3209   19.4295 C   0  0  0  0  0  0
  -29.5022  -12.5115   18.2137 C   0  0  0  0  0  0
  -28.0225  -12.3675   18.6216 C   0  0  0  0  0  0
  -27.6641  -13.2099   19.8751 C   0  0  2  0  0  0
  -28.7059  -12.9927   20.9975 C   0  0  0  0  0  0
  -25.2562  -13.8165   20.5599 C   0  0  0  0  0  0
  -24.1835  -13.0440   20.9167 C   0  0  0  0  0  0
  -24.6406  -11.6914   20.8749 C   0  0  0  0  0  0
  -23.9074  -10.4296   21.0413 C   0  0  0  0  0  0
  -24.3620   -9.4210   21.9189 C   0  0  0  0  0  0
  -23.6296   -8.2244   22.0754 C   0  0  0  0  0  0
  -22.4276   -8.0286   21.3546 C   0  0  0  0  0  0
  -21.9914   -9.0256   20.4640 C   0  0  0  0  0  0
  -22.7249  -10.2134   20.3055 C   0  0  0  0  0  0
  -21.6849   -6.0738   22.5279 C   0  0  0  0  0  0
  -21.4010   -6.5636   23.8215 C   0  0  0  0  0  0
  -21.3661   -5.6788   24.9177 C   0  0  0  0  0  0
  -21.6053   -4.3054   24.7220 C   0  0  0  0  0  0
  -21.8820   -3.8143   23.4340 C   0  0  0  0  0  0
  -21.9192   -4.6965   22.3400 C   0  0  0  0  0  0
  -22.7856  -13.5234   21.1843 C   0  0  0  0  0  0
  -22.1660   -4.2150   21.0976 F   0  0  0  0  0  0
  -21.5629   -3.4534   25.7728 F   0  0  0  0  0  0
  -30.0420  -13.3043   20.4531 N   0  0  0  0  0  0
  -26.3033  -12.9350   20.3348 N   0  0  0  0  0  0
  -25.9337  -11.6516   20.5783 N   0  0  0  0  0  0
  -22.0485  -12.8236   22.0398 N   0  0  0  0  0  0
  -25.4228  -15.1863   20.3860 N   0  0  0  0  0  0
  -31.8197  -14.6764   20.0862 O   0  0  0  0  0  0
  -21.6641   -6.8880   21.4239 O   0  0  0  0  0  0
  -22.3543  -14.5542   20.6694 O   0  0  0  0  0  0
  -24.6140  -31.8677   23.2084 C   0  0  0  0  0  0
  -25.9020  -32.4824   23.8381 C   0  0  1  0  0  0
  -27.2339  -27.4243   20.1047 C   0  0  0  0  0  0
  -25.5851  -33.8617   24.2319 N   0  0  0  0  0  0
  -23.4044  -30.4900   21.5493 C   0  0  2  0  0  0
  -24.8523  -28.9541   20.1163 C   0  0  0  0  0  0
  -22.7412  -29.4660   22.4984 C   0  0  0  0  0  0
  -18.0267  -28.1391   22.8480 C   0  0  0  0  0  0
  -24.1477  -36.7331   23.2643 C   0  0  0  0  0  0
  -25.9340  -30.8324   21.3606 C   0  0  0  0  0  0
  -26.0140  -29.4647   20.7101 C   0  0  0  0  0  0
  -27.2103  -28.7094   20.6976 C   0  0  0  0  0  0
  -26.0564  -26.9309   19.5060 C   0  0  0  0  0  0
  -24.8680  -27.6854   19.5118 C   0  0  0  0  0  0
  -23.6128  -29.8185   20.1658 C   0  0  0  0  0  0
  -25.4101  -36.3126   24.0344 C   0  0  1  0  0  0
  -20.5863  -28.3677   23.1312 C   0  0  2  0  0  0
  -20.6773  -26.9405   22.5426 C   0  0  0  0  0  0
  -19.5751  -26.6385   21.5224 C   0  0  0  0  0  0
  -18.1921  -26.7938   22.1619 C   0  0  0  0  0  0
  -19.1521  -28.8848   23.2892 C   0  0  0  0  0  0
  -18.9453  -30.1452   23.8903 C   0  0  0  0  0  0
  -17.6460  -30.6589   24.0565 C   0  0  0  0  0  0
  -25.9022  -34.9479   23.5139 C   0  0  0  0  0  0
  -16.5343  -29.9101   23.6320 C   0  0  0  0  0  0
  -16.7258  -28.6521   23.0329 C   0  0  0  0  0  0
  -26.4457  -31.6590   25.0696 C   0  0  0  0  0  0
  -25.3723  -31.3706   26.1444 C   0  0  0  0  0  0
  -27.0274  -30.3020   24.6071 C   0  0  0  0  0  0
  -27.6020  -32.4315   25.7467 C   0  0  0  0  0  0
  -27.5590  -37.1818   24.8460 C   0  0  0  0  0  0
  -21.4142  -29.3040   22.3717 N   0  0  0  0  0  0
  -26.4304  -37.3796   23.9402 N   0  0  0  0  0  0
  -24.6694  -31.0777   22.0976 N   0  0  0  0  0  0
  -23.4184  -28.8208   23.3032 O   0  0  0  0  0  0
  -28.3743  -26.6436   20.1055 O   0  0  0  0  0  0
  -26.5604  -34.8932   22.4718 O   0  0  0  0  0  0
  -23.5324  -32.1426   23.7468 O   0  0  0  0  0  0
  -28.9204  -19.0180   21.5655 C   0  0  0  0  0  0
  -30.9863  -18.9211   20.3591 C   0  0  0  0  0  0
  -29.9429  -19.7029   20.8877 C   0  0  0  0  0  0
  -28.9552  -17.6073   21.6792 C   0  0  0  0  0  0
  -30.0361  -16.8923   21.0887 C   0  0  0  0  0  0
  -26.5507  -17.6618   22.6767 C   0  0  0  0  0  0
  -31.8745  -23.1769   19.0303 C   0  0  0  0  0  0
  -28.8907  -26.1092   22.3811 C   0  0  0  0  0  0
  -28.5087  -24.0091   18.2283 C   0  0  0  0  0  0
  -27.1771  -22.8729   19.9999 C   0  0  0  0  0  0
  -28.7450  -20.8514   18.5894 C   0  0  0  0  0  0
  -29.9220  -21.2464   20.7928 C   0  0  0  0  0  0
  -27.8495  -16.8715   22.4477 C   0  0  0  0  0  0
  -30.8308  -22.1406   18.5739 C   0  0  0  0  0  0
  -29.1870  -24.2895   20.6360 C   0  0  0  0  0  0
  -28.3497  -25.5534   21.0531 C   0  0  2  0  0  0
  -28.6253  -23.2583   19.5796 C   0  0  0  0  0  0
  -29.5253  -21.9183   19.4151 C   0  0  1  0  0  0
  -31.0239  -17.5696   20.4505 N   0  0  0  0  0  0
  -29.9958  -15.4627   21.2037 N   0  0  0  0  0  0
  -31.4760  -12.4254   19.1256 H   0  0  0  0  0  0
  -30.3445  -11.3094   19.8279 H   0  0  0  0  0  0
  -29.7489  -11.7880   17.4358 H   0  0  0  0  0  0
  -29.6657  -13.4984   17.7783 H   0  0  0  0  0  0
  -27.8349  -11.3113   18.8189 H   0  0  0  0  0  0
  -27.3720  -12.6388   17.7893 H   0  0  0  0  0  0
  -27.7070  -14.2576   19.5765 H   0  0  0  0  0  0
  -28.6836  -11.9559   21.3361 H   0  0  0  0  0  0
  -28.4569  -13.5813   21.8812 H   0  0  0  0  0  0
  -25.2767   -9.5686   22.4761 H   0  0  0  0  0  0
  -24.0007   -7.4635   22.7475 H   0  0  0  0  0  0
  -21.0842   -8.8778   19.8943 H   0  0  0  0  0  0
  -22.3720  -10.9669   19.6152 H   0  0  0  0  0  0
  -21.2004   -7.6146   23.9722 H   0  0  0  0  0  0
  -21.1484   -6.0514   25.9084 H   0  0  0  0  0  0
  -22.0601   -2.7604   23.2835 H   0  0  0  0  0  0
  -22.4068  -11.9890   22.4801 H   0  0  0  0  0  0
  -21.1101  -13.1271   22.2580 H   0  0  0  0  0  0
  -24.6512  -15.8361   20.4871 H   0  0  0  0  0  0
  -26.2602  -15.6208   20.0213 H   0  0  0  0  0  0
  -26.7085  -32.5552   23.1141 H   0  0  0  0  0  0
  -24.9923  -33.9759   25.0416 H   0  0  0  0  0  0
  -22.6931  -31.3061   21.4075 H   0  0  0  0  0  0
  -23.3739  -35.9662   23.3303 H   0  0  0  0  0  0
  -24.3570  -36.8945   22.2054 H   0  0  0  0  0  0
  -23.7218  -37.6537   23.6654 H   0  0  0  0  0  0
  -26.0432  -31.5937   20.5875 H   0  0  0  0  0  0
  -26.8246  -30.8902   21.9753 H   0  0  0  0  0  0
  -28.1083  -29.0982   21.1565 H   0  0  0  0  0  0
  -26.0502  -25.9552   19.0448 H   0  0  0  0  0  0
  -23.9739  -27.2838   19.0554 H   0  0  0  0  0  0
  -23.7148  -30.5891   19.4012 H   0  0  0  0  0  0
  -22.7388  -29.2323   19.8772 H   0  0  0  0  0  0
  -25.1280  -36.2010   25.0839 H   0  0  0  0  0  0
  -20.9947  -28.3251   24.1439 H   0  0  0  0  0  0
  -20.5679  -26.2279   23.3614 H   0  0  0  0  0  0
  -21.6642  -26.7448   22.1205 H   0  0  0  0  0  0
  -19.6905  -25.6303   21.1231 H   0  0  0  0  0  0
  -19.6709  -27.3210   20.6767 H   0  0  0  0  0  0
  -17.4198  -26.6664   21.4014 H   0  0  0  0  0  0
  -18.0313  -26.0102   22.9032 H   0  0  0  0  0  0
  -19.7935  -30.7256   24.2269 H   0  0  0  0  0  0
  -17.5021  -31.6267   24.5174 H   0  0  0  0  0  0
  -15.5347  -30.3008   23.7659 H   0  0  0  0  0  0
  -15.8651  -28.0858   22.7030 H   0  0  0  0  0  0
  -24.5867  -30.7092   25.7779 H   0  0  0  0  0  0
  -24.8961  -32.2872   26.4928 H   0  0  0  0  0  0
  -25.8060  -30.8833   27.0181 H   0  0  0  0  0  0
  -26.2816  -29.6813   24.1093 H   0  0  0  0  0  0
  -27.3993  -29.7220   25.4531 H   0  0  0  0  0  0
  -27.8670  -30.4321   23.9238 H   0  0  0  0  0  0
  -27.2604  -33.3584   26.2087 H   0  0  0  0  0  0
  -28.3802  -32.6933   25.0285 H   0  0  0  0  0  0
  -28.0719  -31.8424   26.5355 H   0  0  0  0  0  0
  -28.2606  -38.0120   24.7512 H   0  0  0  0  0  0
  -28.1088  -36.2649   24.6282 H   0  0  0  0  0  0
  -27.2303  -37.1456   25.8862 H   0  0  0  0  0  0
  -20.9292  -29.8763   21.6946 H   0  0  0  0  0  0
  -26.0208  -38.2879   24.1417 H   0  0  0  0  0  0
  -28.1179  -19.5961   21.9976 H   0  0  0  0  0  0
  -31.8189  -19.3858   19.8529 H   0  0  0  0  0  0
  -25.8005  -17.0298   23.1527 H   0  0  0  0  0  0
  -26.1277  -18.0136   21.7348 H   0  0  0  0  0  0
  -26.7043  -18.5212   23.3292 H   0  0  0  0  0  0
  -32.8140  -23.0090   18.5038 H   0  0  0  0  0  0
  -32.0967  -23.1240   20.0948 H   0  0  0  0  0  0
  -31.5779  -24.1964   18.7888 H   0  0  0  0  0  0
  -28.3416  -26.9926   22.7070 H   0  0  0  0  0  0
  -29.9432  -26.3780   22.2954 H   0  0  0  0  0  0
  -28.8008  -25.3695   23.1779 H   0  0  0  0  0  0
  -27.8021  -24.8333   18.2898 H   0  0  0  0  0  0
  -28.1640  -23.3746   17.4144 H   0  0  0  0  0  0
  -29.4539  -24.4508   17.9181 H   0  0  0  0  0  0
  -26.5155  -23.7336   20.0620 H   0  0  0  0  0  0
  -27.1459  -22.3751   20.9683 H   0  0  0  0  0  0
  -26.6822  -22.2249   19.2784 H   0  0  0  0  0  0
  -29.3816  -20.0164   18.2949 H   0  0  0  0  0  0
  -28.3314  -21.2452   17.6641 H   0  0  0  0  0  0
  -27.9223  -20.4137   19.1545 H   0  0  0  0  0  0
  -30.8765  -21.6246   21.1554 H   0  0  0  0  0  0
  -29.2098  -21.5609   21.5532 H   0  0  0  0  0  0
  -28.2521  -16.5614   23.4135 H   0  0  0  0  0  0
  -27.5846  -15.9574   21.9191 H   0  0  0  0  0  0
  -31.3567  -21.1880   18.5102 H   0  0  0  0  0  0
  -30.5712  -22.3656   17.5385 H   0  0  0  0  0  0
  -29.3725  -23.7389   21.5561 H   0  0  0  0  0  0
  -30.1657  -24.6508   20.3392 H   0  0  0  0  0  0
  -27.3233  -25.2588   21.2631 H   0  0  0  0  0  0
  -29.1693  -15.1114   21.6547 H   0  0  0  0  0  0
  1 25  1  0  0  0
  1 30  2  0  0  0
  1 90  1  0  0  0
  2  3  1  0  0  0
  2 25  1  0  0  0
  2 91  1  0  0  0
  2 92  1  0  0  0
  3  4  1  0  0  0
  3 93  1  0  0  0
  3 94  1  0  0  0
  4  5  1  0  0  0
  4 95  1  0  0  0
  4 96  1  0  0  0
  5  6  1  0  0  0
  5 26  1  0  0  0
  5 97  1  0  0  0
  6 25  1  0  0  0
  6 98  1  0  0  0
  6 99  1  0  0  0
  7  8  2  0  0  0
  7 26  1  0  0  0
  7 29  1  0  0  0
  8  9  1  0  0  0
  8 22  1  0  0  0
  9 10  1  0  0  0
  9 27  2  0  0  0
 10 11  2  0  0  0
 10 15  1  0  0  0
 11 12  1  0  0  0
 11100  1  0  0  0
 12 13  2  0  0  0
 12101  1  0  0  0
 13 14  1  0  0  0
 13 31  1  0  0  0
 14 15  2  0  0  0
 14102  1  0  0  0
 15103  1  0  0  0
 16 17  2  0  0  0
 16 21  1  0  0  0
 16 31  1  0  0  0
 17 18  1  0  0  0
 17104  1  0  0  0
 18 19  2  0  0  0
 18105  1  0  0  0
 19 20  1  0  0  0
 19 24  1  0  0  0
 20 21  2  0  0  0
 20106  1  0  0  0
 21 23  1  0  0  0
 22 28  1  0  0  0
 22 32  2  0  0  0
 26 27  1  0  0  0
 28107  1  0  0  0
 28108  1  0  0  0
 29109  1  0  0  0
 29110  1  0  0  0
 33 34  1  0  0  0
 33 66  1  0  0  0
 33 70  2  0  0  0
 34 36  1  0  0  0
 34 59  1  0  0  0
 34111  1  0  0  0
 35 44  2  0  0  0
 35 45  1  0  0  0
 35 68  1  0  0  0
 36 56  1  0  0  0
 36112  1  0  0  0
 37 39  1  0  0  0
 37 47  1  0  0  0
 37 66  1  0  0  0
 37113  1  0  0  0
 38 43  2  0  0  0
 38 46  1  0  0  0
 38 47  1  0  0  0
 39 64  1  0  0  0
 39 67  2  0  0  0
 40 52  1  0  0  0
 40 53  2  0  0  0
 40 58  1  0  0  0
 41114  1  0  0  0
 41115  1  0  0  0
 41116  1  0  0  0
 41 48  1  0  0  0
 42 43  1  0  0  0
 42 66  1  0  0  0
 42117  1  0  0  0
 42118  1  0  0  0
 43 44  1  0  0  0
 44119  1  0  0  0
 45 46  2  0  0  0
 45120  1  0  0  0
 46121  1  0  0  0
 47122  1  0  0  0
 47123  1  0  0  0
 48 56  1  0  0  0
 48 65  1  0  0  0
 48124  1  0  0  0
 49 50  1  0  0  0
 49 53  1  0  0  0
 49 64  1  0  0  0
 49125  1  0  0  0
 50 51  1  0  0  0
 50126  1  0  0  0
 50127  1  0  0  0
 51 52  1  0  0  0
 51128  1  0  0  0
 51129  1  0  0  0
 52130  1  0  0  0
 52131  1  0  0  0
 53 54  1  0  0  0
 54 55  2  0  0  0
 54132  1  0  0  0
 55 57  1  0  0  0
 55133  1  0  0  0
 56 69  2  0  0  0
 57 58  2  0  0  0
 57134  1  0  0  0
 58135  1  0  0  0
 59 60  1  0  0  0
 59 61  1  0  0  0
 59 62  1  0  0  0
 60136  1  0  0  0
 60137  1  0  0  0
 60138  1  0  0  0
 61139  1  0  0  0
 61140  1  0  0  0
 61141  1  0  0  0
 62142  1  0  0  0
 62143  1  0  0  0
 62144  1  0  0  0
 63 65  1  0  0  0
 63145  1  0  0  0
 63146  1  0  0  0
 63147  1  0  0  0
 64148  1  0  0  0
 65149  1  0  0  0
 68 86  1  0  0  0
 71 73  2  0  0  0
 71 74  1  0  0  0
 71150  1  0  0  0
 72 73  1  0  0  0
 72 89  2  0  0  0
 72151  1  0  0  0
 73 82  1  0  0  0
 74 75  2  0  0  0
 74 83  1  0  0  0
 75 89  1  0  0  0
 75 90  1  0  0  0
 76 83  1  0  0  0
 76152  1  0  0  0
 76153  1  0  0  0
 76154  1  0  0  0
 77 84  1  0  0  0
 77155  1  0  0  0
 77156  1  0  0  0
 77157  1  0  0  0
 78158  1  0  0  0
 78159  1  0  0  0
 78160  1  0  0  0
 78 86  1  0  0  0
 79161  1  0  0  0
 79162  1  0  0  0
 79163  1  0  0  0
 79 87  1  0  0  0
 80 87  1  0  0  0
 80164  1  0  0  0
 80165  1  0  0  0
 80166  1  0  0  0
 81167  1  0  0  0
 81168  1  0  0  0
 81169  1  0  0  0
 81 88  1  0  0  0
 82 88  1  0  0  0
 82170  1  0  0  0
 82171  1  0  0  0
 83172  1  0  0  0
 83173  1  0  0  0
 84 88  1  0  0  0
 84174  1  0  0  0
 84175  1  0  0  0
 85 86  1  0  0  0
 85 87  1  0  0  0
 85176  1  0  0  0
 85177  1  0  0  0
 86178  1  0  0  0
 87 88  1  0  0  0
 90179  1  0  0  0
M  ISO  4   1 100  68 101  86 101  90 100
M  END
> <chiral flag>
0

> <version>
0

> <s_m_source_file>
/data/baiqing/PycharmProjects/Reinvent-master-3.2/result/LINK_invent/BTK/process_docking_weight1_custom_product_contain_oxygen_bond_distance_aromatic_linkinvent_7_9_3/rearranged_h_0136.sdf

> <i_m_source_file_index>
88

> <r_mmod_Potential_Energy-OPLS-2005>
-85.4097061157227

> <r_mmod_Stretch_Energy-OPLS-2005>
62.7363090515137

> <r_mmod_Bend_Energy-OPLS-2005>
142.401763916016

> <r_mmod_Torsional_Energy-OPLS-2005>
260.128570556641

> <r_mmod_Improper_Torsional_Energy-OPLS-2005>
3.2190625667572

> <r_mmod_Van_der_Waal_Energy-OPLS-2005>
171.398086547852

> <r_mmod_Electrostatic_Energy-OPLS-2005>
-529.543090820312

> <r_mmod_Solvation_Energy-OPLS-2005>
-210.178634643555

> <b_mmod_Minimization_Converged-OPLS-2005>
0

> <r_mmod_RMS_Derivative-OPLS-2005>
1.8505756855011

$$$$
88
                    3D
 Structure written by MMmdl.
169177  0  0  1  0            999 V2000
  -30.7502  -14.6298   20.3178 C   0  0  0  0  0  0
  -30.4150  -12.3649   19.4332 C   0  0  0  0  0  0
  -29.4788  -12.3391   18.2126 C   0  0  0  0  0  0
  -27.9982  -12.2633   18.6408 C   0  0  0  0  0  0
  -27.6268  -13.1903   19.8348 C   0  0  2  0  0  0
  -28.7090  -13.1902   20.9323 C   0  0  0  0  0  0
  -25.2527  -13.8094   20.5826 C   0  0  0  0  0  0
  -24.1769  -13.0418   20.9310 C   0  0  0  0  0  0
  -24.6302  -11.6875   20.8872 C   0  0  0  0  0  0
  -23.8981  -10.4276   21.0462 C   0  0  0  0  0  0
  -24.3555   -9.4194   21.9208 C   0  0  0  0  0  0
  -23.6251   -8.2215   22.0742 C   0  0  0  0  0  0
  -22.4230   -8.0261   21.3536 C   0  0  0  0  0  0
  -21.9883   -9.0226   20.4627 C   0  0  0  0  0  0
  -22.7186  -10.2122   20.3067 C   0  0  0  0  0  0
  -21.6812   -6.0727   22.5296 C   0  0  0  0  0  0
  -21.3999   -6.5635   23.8242 C   0  0  0  0  0  0
  -21.3673   -5.6789   24.9205 C   0  0  0  0  0  0
  -21.6052   -4.3050   24.7245 C   0  0  0  0  0  0
  -21.8804   -3.8144   23.4361 C   0  0  0  0  0  0
  -21.9173   -4.6958   22.3418 C   0  0  0  0  0  0
  -22.7792  -13.5228   21.1935 C   0  0  0  0  0  0
  -22.1649   -4.2152   21.0992 F   0  0  0  0  0  0
  -21.5633   -3.4531   25.7754 F   0  0  0  0  0  0
  -29.9941  -13.4863   20.2861 N   0  0  0  0  0  0
  -26.2916  -12.9200   20.3480 N   0  0  0  0  0  0
  -25.9241  -11.6409   20.5993 N   0  0  0  0  0  0
  -22.0373  -12.8244   22.0464 N   0  0  0  0  0  0
  -25.4295  -15.1827   20.4193 N   0  0  0  0  0  0
  -31.9576  -14.4905   20.4878 O   0  0  0  0  0  0
  -21.6591   -6.8861   21.4249 O   0  0  0  0  0  0
  -22.3529  -14.5542   20.6755 O   0  0  0  0  0  0
  -24.6182  -31.8673   23.2111 C   0  0  0  0  0  0
  -25.9052  -32.4837   23.8401 C   0  0  1  0  0  0
  -27.2239  -27.4096   20.0806 C   0  0  0  0  0  0
  -25.5886  -33.8639   24.2337 N   0  0  0  0  0  0
  -23.4066  -30.4951   21.5539 C   0  0  2  0  0  0
  -24.8482  -28.9673   20.1149 C   0  0  0  0  0  0
  -22.7448  -29.4659   22.4994 C   0  0  0  0  0  0
  -18.0294  -28.1381   22.8498 C   0  0  0  0  0  0
  -24.1480  -36.7332   23.2638 C   0  0  0  0  0  0
  -25.9415  -30.8278   21.3653 C   0  0  0  0  0  0
  -26.0162  -29.4623   20.7074 C   0  0  0  0  0  0
  -27.2088  -28.6946   20.6819 C   0  0  0  0  0  0
  -26.0266  -26.9450   19.4817 C   0  0  0  0  0  0
  -24.8495  -27.7080   19.5003 C   0  0  0  0  0  0
  -23.6135  -29.8366   20.1664 C   0  0  0  0  0  0
  -25.4092  -36.3134   24.0348 C   0  0  1  0  0  0
  -20.5888  -28.3662   23.1317 C   0  0  2  0  0  0
  -20.6783  -26.9398   22.5415 C   0  0  0  0  0  0
  -19.5750  -26.6389   21.5224 C   0  0  0  0  0  0
  -18.1927  -26.7935   22.1635 C   0  0  0  0  0  0
  -19.1543  -28.8846   23.2903 C   0  0  0  0  0  0
  -18.9462  -30.1453   23.8909 C   0  0  0  0  0  0
  -17.6458  -30.6584   24.0569 C   0  0  0  0  0  0
  -25.9016  -34.9495   23.5144 C   0  0  0  0  0  0
  -16.5351  -29.9078   23.6332 C   0  0  0  0  0  0
  -16.7281  -28.6502   23.0346 C   0  0  0  0  0  0
  -26.4454  -31.6613   25.0738 C   0  0  0  0  0  0
  -25.3705  -31.3735   26.1478 C   0  0  0  0  0  0
  -27.0263  -30.3053   24.6103 C   0  0  0  0  0  0
  -27.6035  -32.4320   25.7498 C   0  0  0  0  0  0
  -27.5584  -37.1817   24.8460 C   0  0  0  0  0  0
  -21.4177  -29.3029   22.3729 N   0  0  0  0  0  0
  -26.4292  -37.3807   23.9413 N   0  0  0  0  0  0
  -24.6751  -31.0757   22.1016 N   0  0  0  0  0  0
  -23.4225  -28.8187   23.3025 O   0  0  0  0  0  0
  -28.3770  -26.6329   20.0938 O   0  0  0  0  0  0
  -26.5594  -34.8937   22.4717 O   0  0  0  0  0  0
  -23.5366  -32.1440   23.7477 O   0  0  0  0  0  0
  -30.2533  -18.5060   20.5819 C   0  0  0  0  0  0
  -28.3382  -19.2990   21.8422 C   0  0  0  0  0  0
  -28.5326  -16.9314   21.2587 C   0  0  0  0  0  0
  -29.5607  -19.5735   21.2058 C   0  0  0  0  0  0
  -29.7512  -17.1627   20.5773 C   0  0  0  0  0  0
  -27.8331  -17.9872   21.8827 C   0  0  0  0  0  0
  -30.1136  -20.9575   21.2735 C   0  0  0  0  0  0
  -31.6836  -16.5909   19.0055 C   0  0  0  0  0  0
  -29.4235  -15.9739   18.4384 C   0  0  0  0  0  0
  -30.3965  -24.4080   19.0777 C   0  0  0  0  0  0
  -30.0585  -24.6899   21.5638 C   0  0  0  0  0  0
  -28.1733  -25.2025   19.9709 C   0  0  0  0  0  0
  -28.8721  -22.7911   20.3308 C   0  0  0  0  0  0
  -30.3634  -16.0546   19.6604 C   0  0  0  0  0  0
  -29.3940  -24.2717   20.2398 C   0  0  0  0  0  0
  -30.7850  -21.3920   22.2476 N   0  0  0  0  0  0
  -26.6268  -17.7436   22.5339 N   0  0  0  0  0  0
  -29.8517  -21.7431   20.1717 O   0  0  0  0  0  0
  -31.4535  -12.4580   19.1045 H   0  0  0  0  0  0
  -30.3534  -11.4259   19.9817 H   0  0  0  0  0  0
  -29.7144  -11.4667   17.6009 H   0  0  0  0  0  0
  -29.6531  -13.1876   17.5614 H   0  0  0  0  0  0
  -27.8043  -11.2266   18.9168 H   0  0  0  0  0  0
  -27.3507  -12.4648   17.7870 H   0  0  0  0  0  0
  -27.5688  -14.1831   19.4274 H   0  0  0  0  0  0
  -28.7440  -12.2180   21.4271 H   0  0  0  0  0  0
  -28.4909  -13.9106   21.7178 H   0  0  0  0  0  0
  -25.2683   -9.5706   22.4797 H   0  0  0  0  0  0
  -23.9976   -7.4591   22.7438 H   0  0  0  0  0  0
  -21.0841   -8.8739   19.8887 H   0  0  0  0  0  0
  -22.3637  -10.9674   19.6188 H   0  0  0  0  0  0
  -21.1972   -7.6137   23.9757 H   0  0  0  0  0  0
  -21.1527   -6.0513   25.9128 H   0  0  0  0  0  0
  -22.0560   -2.7599   23.2864 H   0  0  0  0  0  0
  -22.3916  -11.9935   22.4980 H   0  0  0  0  0  0
  -21.0971  -13.1291   22.2560 H   0  0  0  0  0  0
  -24.6648  -15.8406   20.5149 H   0  0  0  0  0  0
  -26.2941  -15.6268   20.1409 H   0  0  0  0  0  0
  -26.7142  -32.5528   23.1177 H   0  0  0  0  0  0
  -25.0010  -33.9788   25.0464 H   0  0  0  0  0  0
  -22.6959  -31.3133   21.4187 H   0  0  0  0  0  0
  -23.3749  -35.9660   23.3299 H   0  0  0  0  0  0
  -24.3593  -36.8948   22.2058 H   0  0  0  0  0  0
  -23.7228  -37.6534   23.6650 H   0  0  0  0  0  0
  -26.0521  -31.5958   20.5982 H   0  0  0  0  0  0
  -26.8314  -30.8830   21.9808 H   0  0  0  0  0  0
  -28.1093  -29.0748   21.1427 H   0  0  0  0  0  0
  -25.9616  -25.9894   18.9852 H   0  0  0  0  0  0
  -23.9536  -27.3229   19.0330 H   0  0  0  0  0  0
  -23.7242  -30.6160   19.4115 H   0  0  0  0  0  0
  -22.7365  -29.2609   19.8653 H   0  0  0  0  0  0
  -25.1274  -36.2010   25.0847 H   0  0  0  0  0  0
  -20.9975  -28.3211   24.1438 H   0  0  0  0  0  0
  -20.5688  -26.2265   23.3594 H   0  0  0  0  0  0
  -21.6641  -26.7430   22.1188 H   0  0  0  0  0  0
  -19.6881  -25.6304   21.1236 H   0  0  0  0  0  0
  -19.6682  -27.3213   20.6763 H   0  0  0  0  0  0
  -17.4194  -26.6714   21.4036 H   0  0  0  0  0  0
  -18.0302  -26.0076   22.9026 H   0  0  0  0  0  0
  -19.7927  -30.7282   24.2275 H   0  0  0  0  0  0
  -17.4999  -31.6263   24.5167 H   0  0  0  0  0  0
  -15.5342  -30.2972   23.7652 H   0  0  0  0  0  0
  -15.8686  -28.0822   22.7037 H   0  0  0  0  0  0
  -24.5859  -30.7108   25.7805 H   0  0  0  0  0  0
  -24.8906  -32.2901   26.4923 H   0  0  0  0  0  0
  -25.8028  -30.8892   27.0241 H   0  0  0  0  0  0
  -26.2803  -29.6860   24.1111 H   0  0  0  0  0  0
  -27.3988  -29.7254   25.4554 H   0  0  0  0  0  0
  -27.8664  -30.4387   23.9286 H   0  0  0  0  0  0
  -27.2666  -33.3614   26.2100 H   0  0  0  0  0  0
  -28.3822  -32.6889   25.0310 H   0  0  0  0  0  0
  -28.0720  -31.8425   26.5388 H   0  0  0  0  0  0
  -28.2599  -38.0116   24.7519 H   0  0  0  0  0  0
  -28.1091  -36.2659   24.6272 H   0  0  0  0  0  0
  -27.2318  -37.1440   25.8865 H   0  0  0  0  0  0
  -20.9336  -29.8779   21.6971 H   0  0  0  0  0  0
  -26.0198  -38.2897   24.1399 H   0  0  0  0  0  0
  -31.1701  -18.7754   20.0819 H   0  0  0  0  0  0
  -27.8018  -20.1098   22.3130 H   0  0  0  0  0  0
  -28.0942  -15.9477   21.2508 H   0  0  0  0  0  0
  -32.4360  -16.8528   19.7514 H   0  0  0  0  0  0
  -31.5311  -17.4745   18.3849 H   0  0  0  0  0  0
  -32.1328  -15.8474   18.3417 H   0  0  0  0  0  0
  -29.4161  -16.9227   17.9011 H   0  0  0  0  0  0
  -28.3853  -15.8292   18.6950 H   0  0  0  0  0  0
  -29.7339  -15.2316   17.7129 H   0  0  0  0  0  0
  -30.7663  -25.4308   18.9896 H   0  0  0  0  0  0
  -29.9377  -24.1401   18.1255 H   0  0  0  0  0  0
  -31.2611  -23.7575   19.2179 H   0  0  0  0  0  0
  -30.4089  -25.7223   21.5235 H   0  0  0  0  0  0
  -30.9175  -24.0657   21.8011 H   0  0  0  0  0  0
  -29.3577  -24.6192   22.3963 H   0  0  0  0  0  0
  -27.3741  -24.9120   20.6561 H   0  0  0  0  0  0
  -27.8186  -24.9812   18.9653 H   0  0  0  0  0  0
  -28.1637  -22.6328   19.5173 H   0  0  0  0  0  0
  -28.2802  -22.6635   21.2406 H   0  0  0  0  0  0
  -30.8802  -20.6743   22.9575 H   0  0  0  0  0  0
  -25.9934  -18.5181   22.7008 H   0  0  0  0  0  0
  -26.1534  -16.8549   22.3988 H   0  0  0  0  0  0
  1 25  1  0  0  0
  1 30  2  0  0  0
  1 84  1  0  0  0
  2  3  1  0  0  0
  2 25  1  0  0  0
  2 89  1  0  0  0
  2 90  1  0  0  0
  3  4  1  0  0  0
  3 91  1  0  0  0
  3 92  1  0  0  0
  4  5  1  0  0  0
  4 93  1  0  0  0
  4 94  1  0  0  0
  5  6  1  0  0  0
  5 26  1  0  0  0
  5 95  1  0  0  0
  6 25  1  0  0  0
  6 96  1  0  0  0
  6 97  1  0  0  0
  7  8  2  0  0  0
  7 26  1  0  0  0
  7 29  1  0  0  0
  8  9  1  0  0  0
  8 22  1  0  0  0
  9 10  1  0  0  0
  9 27  2  0  0  0
 10 11  2  0  0  0
 10 15  1  0  0  0
 11 12  1  0  0  0
 11 98  1  0  0  0
 12 13  2  0  0  0
 12 99  1  0  0  0
 13 14  1  0  0  0
 13 31  1  0  0  0
 14 15  2  0  0  0
 14100  1  0  0  0
 15101  1  0  0  0
 16 17  2  0  0  0
 16 21  1  0  0  0
 16 31  1  0  0  0
 17 18  1  0  0  0
 17102  1  0  0  0
 18 19  2  0  0  0
 18103  1  0  0  0
 19 20  1  0  0  0
 19 24  1  0  0  0
 20 21  2  0  0  0
 20104  1  0  0  0
 21 23  1  0  0  0
 22 28  1  0  0  0
 22 32  2  0  0  0
 26 27  1  0  0  0
 28105  1  0  0  0
 28106  1  0  0  0
 29107  1  0  0  0
 29108  1  0  0  0
 33 34  1  0  0  0
 33 66  1  0  0  0
 33 70  2  0  0  0
 34 36  1  0  0  0
 34 59  1  0  0  0
 34109  1  0  0  0
 35 44  2  0  0  0
 35 45  1  0  0  0
 35 68  1  0  0  0
 36 56  1  0  0  0
 36110  1  0  0  0
 37 39  1  0  0  0
 37 47  1  0  0  0
 37 66  1  0  0  0
 37111  1  0  0  0
 38 43  2  0  0  0
 38 46  1  0  0  0
 38 47  1  0  0  0
 39 64  1  0  0  0
 39 67  2  0  0  0
 40 52  1  0  0  0
 40 53  2  0  0  0
 40 58  1  0  0  0
 41112  1  0  0  0
 41113  1  0  0  0
 41114  1  0  0  0
 41 48  1  0  0  0
 42 43  1  0  0  0
 42 66  1  0  0  0
 42115  1  0  0  0
 42116  1  0  0  0
 43 44  1  0  0  0
 44117  1  0  0  0
 45 46  2  0  0  0
 45118  1  0  0  0
 46119  1  0  0  0
 47120  1  0  0  0
 47121  1  0  0  0
 48 56  1  0  0  0
 48 65  1  0  0  0
 48122  1  0  0  0
 49 50  1  0  0  0
 49 53  1  0  0  0
 49 64  1  0  0  0
 49123  1  0  0  0
 50 51  1  0  0  0
 50124  1  0  0  0
 50125  1  0  0  0
 51 52  1  0  0  0
 51126  1  0  0  0
 51127  1  0  0  0
 52128  1  0  0  0
 52129  1  0  0  0
 53 54  1  0  0  0
 54 55  2  0  0  0
 54130  1  0  0  0
 55 57  1  0  0  0
 55131  1  0  0  0
 56 69  2  0  0  0
 57 58  2  0  0  0
 57132  1  0  0  0
 58133  1  0  0  0
 59 60  1  0  0  0
 59 61  1  0  0  0
 59 62  1  0  0  0
 60134  1  0  0  0
 60135  1  0  0  0
 60136  1  0  0  0
 61137  1  0  0  0
 61138  1  0  0  0
 61139  1  0  0  0
 62140  1  0  0  0
 62141  1  0  0  0
 62142  1  0  0  0
 63 65  1  0  0  0
 63143  1  0  0  0
 63144  1  0  0  0
 63145  1  0  0  0
 64146  1  0  0  0
 65147  1  0  0  0
 68 82  1  0  0  0
 71 74  2  0  0  0
 71 75  1  0  0  0
 71148  1  0  0  0
 72 74  1  0  0  0
 72 76  2  0  0  0
 72149  1  0  0  0
 73 75  2  0  0  0
 73 76  1  0  0  0
 73150  1  0  0  0
 74 77  1  0  0  0
 75 84  1  0  0  0
 76 87  1  0  0  0
 77 86  2  0  0  0
 77 88  1  0  0  0
 78151  1  0  0  0
 78152  1  0  0  0
 78153  1  0  0  0
 78 84  1  0  0  0
 79 84  1  0  0  0
 79154  1  0  0  0
 79155  1  0  0  0
 79156  1  0  0  0
 80157  1  0  0  0
 80158  1  0  0  0
 80159  1  0  0  0
 80 85  1  0  0  0
 81 85  1  0  0  0
 81160  1  0  0  0
 81161  1  0  0  0
 81162  1  0  0  0
 82 85  1  0  0  0
 82163  1  0  0  0
 82164  1  0  0  0
 83 85  1  0  0  0
 83 88  1  0  0  0
 83165  1  0  0  0
 83166  1  0  0  0
 86167  1  0  0  0
 87168  1  0  0  0
 87169  1  0  0  0
M  ISO  4   1 100  68 101  82 101  84 100
M  END
> <chiral flag>
0

> <version>
0

> <s_m_source_file>
/data/baiqing/PycharmProjects/Reinvent-master-3.2/result/LINK_invent/BTK/process_docking_weight1_custom_product_contain_oxygen_bond_distance_aromatic_linkinvent_7_9_3/rearranged_h_0136.sdf

> <i_m_source_file_index>
89

> <r_mmod_Potential_Energy-OPLS-2005>
221.184036254883

> <r_mmod_Stretch_Energy-OPLS-2005>
62.3506355285645

> <r_mmod_Bend_Energy-OPLS-2005>
159.795791625977

> <r_mmod_Torsional_Energy-OPLS-2005>
294.704437255859

> <r_mmod_Improper_Torsional_Energy-OPLS-2005>
18.0578498840332

> <r_mmod_Van_der_Waal_Energy-OPLS-2005>
170.828475952148

> <r_mmod_Electrostatic_Energy-OPLS-2005>
-370.257049560547

> <r_mmod_Solvation_Energy-OPLS-2005>
-194.838241577148

> <b_mmod_Minimization_Converged-OPLS-2005>
0

> <r_mmod_RMS_Derivative-OPLS-2005>
3.38525533676147

$$$$
89
                    3D
 Structure written by MMmdl.
161169  0  0  1  0            999 V2000
  -30.6912  -14.4871   20.5344 C   0  0  0  0  0  0
  -30.4244  -12.2895   19.4608 C   0  0  0  0  0  0
  -29.5176  -12.4933   18.2293 C   0  0  0  0  0  0
  -28.0301  -12.3787   18.6218 C   0  0  0  0  0  0
  -27.6668  -13.2141   19.8802 C   0  0  2  0  0  0
  -28.7014  -13.0081   21.0103 C   0  0  0  0  0  0
  -25.2601  -13.8168   20.5664 C   0  0  0  0  0  0
  -24.1853  -13.0457   20.9162 C   0  0  0  0  0  0
  -24.6412  -11.6927   20.8717 C   0  0  0  0  0  0
  -23.9052  -10.4324   21.0405 C   0  0  0  0  0  0
  -24.3608   -9.4237   21.9171 C   0  0  0  0  0  0
  -23.6308   -8.2257   22.0739 C   0  0  0  0  0  0
  -22.4285   -8.0285   21.3532 C   0  0  0  0  0  0
  -21.9909   -9.0244   20.4623 C   0  0  0  0  0  0
  -22.7230  -10.2141   20.3042 C   0  0  0  0  0  0
  -21.6862   -6.0743   22.5278 C   0  0  0  0  0  0
  -21.4022   -6.5636   23.8205 C   0  0  0  0  0  0
  -21.3665   -5.6780   24.9164 C   0  0  0  0  0  0
  -21.6058   -4.3051   24.7207 C   0  0  0  0  0  0
  -21.8816   -3.8144   23.4327 C   0  0  0  0  0  0
  -21.9196   -4.6968   22.3397 C   0  0  0  0  0  0
  -22.7870  -13.5276   21.1797 C   0  0  0  0  0  0
  -22.1674   -4.2165   21.0971 F   0  0  0  0  0  0
  -21.5631   -3.4529   25.7722 F   0  0  0  0  0  0
  -30.0389  -13.2957   20.4642 N   0  0  0  0  0  0
  -26.3053  -12.9354   20.3354 N   0  0  0  0  0  0
  -25.9337  -11.6509   20.5739 N   0  0  0  0  0  0
  -22.0463  -12.8322   22.0366 N   0  0  0  0  0  0
  -25.4293  -15.1890   20.4053 N   0  0  0  0  0  0
  -31.8217  -14.6574   20.0699 O   0  0  0  0  0  0
  -21.6650   -6.8880   21.4236 O   0  0  0  0  0  0
  -22.3589  -14.5574   20.6618 O   0  0  0  0  0  0
  -24.6133  -31.8697   23.2080 C   0  0  0  0  0  0
  -25.9014  -32.4847   23.8383 C   0  0  1  0  0  0
  -27.2271  -27.4465   20.1097 C   0  0  0  0  0  0
  -25.5861  -33.8641   24.2328 N   0  0  0  0  0  0
  -23.4014  -30.4920   21.5486 C   0  0  2  0  0  0
  -24.8490  -28.9614   20.1091 C   0  0  0  0  0  0
  -22.7424  -29.4658   22.4987 C   0  0  0  0  0  0
  -18.0284  -28.1375   22.8499 C   0  0  0  0  0  0
  -24.1476  -36.7331   23.2636 C   0  0  0  0  0  0
  -25.9262  -30.8464   21.3495 C   0  0  0  0  0  0
  -26.0080  -29.4795   20.7020 C   0  0  0  0  0  0
  -27.2057  -28.7319   20.6929 C   0  0  0  0  0  0
  -26.0593  -26.9436   19.4999 C   0  0  0  0  0  0
  -24.8683  -27.6933   19.5025 C   0  0  0  0  0  0
  -23.6095  -29.8241   20.1620 C   0  0  0  0  0  0
  -25.4097  -36.3137   24.0348 C   0  0  1  0  0  0
  -20.5872  -28.3660   23.1320 C   0  0  2  0  0  0
  -20.6773  -26.9394   22.5427 C   0  0  0  0  0  0
  -19.5749  -26.6385   21.5221 C   0  0  0  0  0  0
  -18.1927  -26.7929   22.1625 C   0  0  0  0  0  0
  -19.1536  -28.8837   23.2912 C   0  0  0  0  0  0
  -18.9455  -30.1444   23.8930 C   0  0  0  0  0  0
  -17.6456  -30.6582   24.0561 C   0  0  0  0  0  0
  -25.9026  -34.9494   23.5145 C   0  0  0  0  0  0
  -16.5350  -29.9090   23.6308 C   0  0  0  0  0  0
  -16.7270  -28.6503   23.0336 C   0  0  0  0  0  0
  -26.4438  -31.6599   25.0690 C   0  0  0  0  0  0
  -25.3703  -31.3682   26.1440 C   0  0  0  0  0  0
  -27.0246  -30.3057   24.5984 C   0  0  0  0  0  0
  -27.6036  -32.4286   25.7456 C   0  0  0  0  0  0
  -27.5590  -37.1813   24.8467 C   0  0  0  0  0  0
  -21.4149  -29.3035   22.3737 N   0  0  0  0  0  0
  -26.4303  -37.3814   23.9415 N   0  0  0  0  0  0
  -24.6661  -31.0816   22.0960 N   0  0  0  0  0  0
  -23.4202  -28.8192   23.3017 O   0  0  0  0  0  0
  -28.3577  -26.6645   20.1606 O   0  0  0  0  0  0
  -26.5602  -34.8945   22.4720 O   0  0  0  0  0  0
  -23.5324  -32.1428   23.7485 O   0  0  0  0  0  0
  -29.8816  -18.0193   20.9662 C   0  0  0  0  0  0
  -29.4311  -19.2001   18.8783 C   0  0  0  0  0  0
  -29.5294  -16.7628   18.9078 C   0  0  0  0  0  0
  -29.7145  -19.2444   20.2608 C   0  0  0  0  0  0
  -29.8162  -16.7707   20.2933 C   0  0  0  0  0  0
  -29.3333  -17.9682   18.2072 C   0  0  0  0  0  0
  -28.9713  -23.0230   21.2707 C   0  0  0  0  0  0
  -31.4012  -20.9793   20.8939 C   0  0  0  0  0  0
  -28.5684  -26.0538   22.4835 C   0  0  0  0  0  0
  -29.0036  -21.7410   20.4143 C   0  0  0  0  0  0
  -29.1422  -24.3846   20.5589 C   0  0  0  0  0  0
  -29.9110  -20.5970   20.9644 C   0  0  1  0  0  0
  -28.2425  -25.5453   21.0623 C   0  0  2  0  0  0
  -29.9747  -15.5321   20.9988 N   0  0  0  0  0  0
  -28.8207  -22.9482   22.4928 O   0  0  0  0  0  0
  -29.0555  -17.9459   16.8827 F   0  0  0  0  0  0
  -31.4777  -12.3595   19.1808 H   0  0  0  0  0  0
  -30.2935  -11.2875   19.8746 H   0  0  0  0  0  0
  -29.7596  -11.7563   17.4650 H   0  0  0  0  0  0
  -29.7224  -13.4676   17.7850 H   0  0  0  0  0  0
  -27.8227  -11.3248   18.8086 H   0  0  0  0  0  0
  -27.3945  -12.6677   17.7844 H   0  0  0  0  0  0
  -27.7078  -14.2620   19.5862 H   0  0  0  0  0  0
  -28.6624  -11.9826   21.3806 H   0  0  0  0  0  0
  -28.4624  -13.6389   21.8682 H   0  0  0  0  0  0
  -25.2743   -9.5748   22.4748 H   0  0  0  0  0  0
  -24.0017   -7.4669   22.7471 H   0  0  0  0  0  0
  -21.0831   -8.8759   19.8950 H   0  0  0  0  0  0
  -22.3666  -10.9660   19.6150 H   0  0  0  0  0  0
  -21.2017   -7.6150   23.9729 H   0  0  0  0  0  0
  -21.1489   -6.0502   25.9072 H   0  0  0  0  0  0
  -22.0589   -2.7607   23.2815 H   0  0  0  0  0  0
  -22.4036  -12.0054   22.4895 H   0  0  0  0  0  0
  -21.1039  -13.1345   22.2401 H   0  0  0  0  0  0
  -24.6511  -15.8343   20.4889 H   0  0  0  0  0  0
  -26.2824  -15.6345   20.0958 H   0  0  0  0  0  0
  -26.7100  -32.5578   23.1171 H   0  0  0  0  0  0
  -24.9978  -33.9801   25.0446 H   0  0  0  0  0  0
  -22.6889  -31.3082   21.4099 H   0  0  0  0  0  0
  -23.3755  -35.9649   23.3297 H   0  0  0  0  0  0
  -24.3588  -36.8949   22.2055 H   0  0  0  0  0  0
  -23.7212  -37.6527   23.6655 H   0  0  0  0  0  0
  -26.0189  -31.6068   20.5717 H   0  0  0  0  0  0
  -26.8219  -30.9171   21.9545 H   0  0  0  0  0  0
  -28.1002  -29.1226   21.1566 H   0  0  0  0  0  0
  -26.0666  -25.9642   19.0424 H   0  0  0  0  0  0
  -23.9774  -27.2877   19.0433 H   0  0  0  0  0  0
  -23.7162  -30.5996   19.4027 H   0  0  0  0  0  0
  -22.7334  -29.2432   19.8671 H   0  0  0  0  0  0
  -25.1272  -36.2016   25.0849 H   0  0  0  0  0  0
  -20.9971  -28.3224   24.1430 H   0  0  0  0  0  0
  -20.5661  -26.2270   23.3614 H   0  0  0  0  0  0
  -21.6642  -26.7432   22.1213 H   0  0  0  0  0  0
  -19.6896  -25.6297   21.1240 H   0  0  0  0  0  0
  -19.6680  -27.3205   20.6756 H   0  0  0  0  0  0
  -17.4195  -26.6692   21.4024 H   0  0  0  0  0  0
  -18.0308  -26.0070   22.9013 H   0  0  0  0  0  0
  -19.7930  -30.7254   24.2307 H   0  0  0  0  0  0
  -17.5007  -31.6263   24.5160 H   0  0  0  0  0  0
  -15.5350  -30.2994   23.7611 H   0  0  0  0  0  0
  -15.8673  -28.0829   22.7020 H   0  0  0  0  0  0
  -24.5899  -30.7006   25.7767 H   0  0  0  0  0  0
  -24.8849  -32.2821   26.4882 H   0  0  0  0  0  0
  -25.8051  -30.8859   27.0204 H   0  0  0  0  0  0
  -26.2749  -29.6853   24.1054 H   0  0  0  0  0  0
  -27.4091  -29.7256   25.4383 H   0  0  0  0  0  0
  -27.8552  -30.4433   23.9055 H   0  0  0  0  0  0
  -27.2695  -33.3604   26.2042 H   0  0  0  0  0  0
  -28.3842  -32.6813   25.0262 H   0  0  0  0  0  0
  -28.0696  -31.8380   26.5359 H   0  0  0  0  0  0
  -28.2606  -38.0105   24.7539 H   0  0  0  0  0  0
  -28.1086  -36.2656   24.6262 H   0  0  0  0  0  0
  -27.2323  -37.1425   25.8868 H   0  0  0  0  0  0
  -20.9305  -29.8776   21.6978 H   0  0  0  0  0  0
  -26.0202  -38.2905   24.1405 H   0  0  0  0  0  0
  -30.0933  -18.0451   22.0260 H   0  0  0  0  0  0
  -29.3038  -20.1085   18.3082 H   0  0  0  0  0  0
  -29.4510  -15.8337   18.3641 H   0  0  0  0  0  0
  -32.0252  -20.2255   21.3719 H   0  0  0  0  0  0
  -31.6036  -21.9277   21.3910 H   0  0  0  0  0  0
  -31.7322  -21.0712   19.8599 H   0  0  0  0  0  0
  -28.3712  -25.3026   23.2470 H   0  0  0  0  0  0
  -27.9524  -26.9149   22.7435 H   0  0  0  0  0  0
  -29.6127  -26.3550   22.5693 H   0  0  0  0  0  0
  -29.3043  -22.0099   19.4017 H   0  0  0  0  0  0
  -27.9746  -21.3844   20.3501 H   0  0  0  0  0  0
  -28.9313  -24.2264   19.5026 H   0  0  0  0  0  0
  -30.1900  -24.6776   20.6183 H   0  0  0  0  0  0
  -29.6548  -20.4419   22.0127 H   0  0  0  0  0  0
  -27.2165  -25.1716   21.0756 H   0  0  0  0  0  0
  -29.2227  -15.2948   21.6287 H   0  0  0  0  0  0
  1 25  1  0  0  0
  1 30  2  0  0  0
  1 84  1  0  0  0
  2  3  1  0  0  0
  2 25  1  0  0  0
  2 87  1  0  0  0
  2 88  1  0  0  0
  3  4  1  0  0  0
  3 89  1  0  0  0
  3 90  1  0  0  0
  4  5  1  0  0  0
  4 91  1  0  0  0
  4 92  1  0  0  0
  5  6  1  0  0  0
  5 26  1  0  0  0
  5 93  1  0  0  0
  6 25  1  0  0  0
  6 94  1  0  0  0
  6 95  1  0  0  0
  7  8  2  0  0  0
  7 26  1  0  0  0
  7 29  1  0  0  0
  8  9  1  0  0  0
  8 22  1  0  0  0
  9 10  1  0  0  0
  9 27  2  0  0  0
 10 11  2  0  0  0
 10 15  1  0  0  0
 11 12  1  0  0  0
 11 96  1  0  0  0
 12 13  2  0  0  0
 12 97  1  0  0  0
 13 14  1  0  0  0
 13 31  1  0  0  0
 14 15  2  0  0  0
 14 98  1  0  0  0
 15 99  1  0  0  0
 16 17  2  0  0  0
 16 21  1  0  0  0
 16 31  1  0  0  0
 17 18  1  0  0  0
 17100  1  0  0  0
 18 19  2  0  0  0
 18101  1  0  0  0
 19 20  1  0  0  0
 19 24  1  0  0  0
 20 21  2  0  0  0
 20102  1  0  0  0
 21 23  1  0  0  0
 22 28  1  0  0  0
 22 32  2  0  0  0
 26 27  1  0  0  0
 28103  1  0  0  0
 28104  1  0  0  0
 29105  1  0  0  0
 29106  1  0  0  0
 33 34  1  0  0  0
 33 66  1  0  0  0
 33 70  2  0  0  0
 34 36  1  0  0  0
 34 59  1  0  0  0
 34107  1  0  0  0
 35 44  2  0  0  0
 35 45  1  0  0  0
 35 68  1  0  0  0
 36 56  1  0  0  0
 36108  1  0  0  0
 37 39  1  0  0  0
 37 47  1  0  0  0
 37 66  1  0  0  0
 37109  1  0  0  0
 38 43  2  0  0  0
 38 46  1  0  0  0
 38 47  1  0  0  0
 39 64  1  0  0  0
 39 67  2  0  0  0
 40 52  1  0  0  0
 40 53  2  0  0  0
 40 58  1  0  0  0
 41110  1  0  0  0
 41111  1  0  0  0
 41112  1  0  0  0
 41 48  1  0  0  0
 42 43  1  0  0  0
 42 66  1  0  0  0
 42113  1  0  0  0
 42114  1  0  0  0
 43 44  1  0  0  0
 44115  1  0  0  0
 45 46  2  0  0  0
 45116  1  0  0  0
 46117  1  0  0  0
 47118  1  0  0  0
 47119  1  0  0  0
 48 56  1  0  0  0
 48 65  1  0  0  0
 48120  1  0  0  0
 49 50  1  0  0  0
 49 53  1  0  0  0
 49 64  1  0  0  0
 49121  1  0  0  0
 50 51  1  0  0  0
 50122  1  0  0  0
 50123  1  0  0  0
 51 52  1  0  0  0
 51124  1  0  0  0
 51125  1  0  0  0
 52126  1  0  0  0
 52127  1  0  0  0
 53 54  1  0  0  0
 54 55  2  0  0  0
 54128  1  0  0  0
 55 57  1  0  0  0
 55129  1  0  0  0
 56 69  2  0  0  0
 57 58  2  0  0  0
 57130  1  0  0  0
 58131  1  0  0  0
 59 60  1  0  0  0
 59 61  1  0  0  0
 59 62  1  0  0  0
 60132  1  0  0  0
 60133  1  0  0  0
 60134  1  0  0  0
 61135  1  0  0  0
 61136  1  0  0  0
 61137  1  0  0  0
 62138  1  0  0  0
 62139  1  0  0  0
 62140  1  0  0  0
 63 65  1  0  0  0
 63141  1  0  0  0
 63142  1  0  0  0
 63143  1  0  0  0
 64144  1  0  0  0
 65145  1  0  0  0
 68 83  1  0  0  0
 71 74  2  0  0  0
 71 75  1  0  0  0
 71146  1  0  0  0
 72 74  1  0  0  0
 72 76  2  0  0  0
 72147  1  0  0  0
 73 75  2  0  0  0
 73 76  1  0  0  0
 73148  1  0  0  0
 74 82  1  0  0  0
 75 84  1  0  0  0
 76 86  1  0  0  0
 77 80  1  0  0  0
 77 81  1  0  0  0
 77 85  2  0  0  0
 78149  1  0  0  0
 78150  1  0  0  0
 78151  1  0  0  0
 78 82  1  0  0  0
 79152  1  0  0  0
 79153  1  0  0  0
 79154  1  0  0  0
 79 83  1  0  0  0
 80 82  1  0  0  0
 80155  1  0  0  0
 80156  1  0  0  0
 81 83  1  0  0  0
 81157  1  0  0  0
 81158  1  0  0  0
 82159  1  0  0  0
 83160  1  0  0  0
 84161  1  0  0  0
M  ISO  4   1 100  68 101  83 101  84 100
M  END
> <chiral flag>
0

> <version>
0

> <s_m_source_file>
/data/baiqing/PycharmProjects/Reinvent-master-3.2/result/LINK_invent/BTK/process_docking_weight1_custom_product_contain_oxygen_bond_distance_aromatic_linkinvent_7_9_3/rearranged_h_0136.sdf

> <i_m_source_file_index>
90

> <r_mmod_Potential_Energy-OPLS-2005>
-23.427827835083

> <r_mmod_Stretch_Energy-OPLS-2005>
39.9348526000977

> <r_mmod_Bend_Energy-OPLS-2005>
91.5776138305664

> <r_mmod_Torsional_Energy-OPLS-2005>
258.534057617188

> <r_mmod_Improper_Torsional_Energy-OPLS-2005>
5.77487373352051

> <r_mmod_Van_der_Waal_Energy-OPLS-2005>
146.111267089844

> <r_mmod_Electrostatic_Energy-OPLS-2005>
-370.332275390625

> <r_mmod_Solvation_Energy-OPLS-2005>
-210.725830078125

> <b_mmod_Minimization_Converged-OPLS-2005>
0

> <r_mmod_RMS_Derivative-OPLS-2005>
3.32449650764465

$$$$
90
                    3D
 Structure written by MMmdl.
159167  0  0  1  0            999 V2000
  -30.6700  -14.6879   20.4771 C   0  0  0  0  0  0
  -30.4184  -12.4196   19.4784 C   0  0  0  0  0  0
  -29.5038  -12.4980   18.2381 C   0  0  0  0  0  0
  -28.0301  -12.3335   18.6509 C   0  0  0  0  0  0
  -27.6425  -13.2337   19.8548 C   0  0  2  0  0  0
  -28.6869  -13.1669   20.9917 C   0  0  0  0  0  0
  -25.2506  -13.8214   20.5702 C   0  0  0  0  0  0
  -24.1798  -13.0453   20.9209 C   0  0  0  0  0  0
  -24.6391  -11.6932   20.8757 C   0  0  0  0  0  0
  -23.9073  -10.4301   21.0412 C   0  0  0  0  0  0
  -24.3621   -9.4215   21.9187 C   0  0  0  0  0  0
  -23.6294   -8.2251   22.0756 C   0  0  0  0  0  0
  -22.4279   -8.0285   21.3545 C   0  0  0  0  0  0
  -21.9919   -9.0261   20.4649 C   0  0  0  0  0  0
  -22.7248  -10.2141   20.3060 C   0  0  0  0  0  0
  -21.6857   -6.0738   22.5278 C   0  0  0  0  0  0
  -21.4015   -6.5642   23.8211 C   0  0  0  0  0  0
  -21.3658   -5.6794   24.9173 C   0  0  0  0  0  0
  -21.6046   -4.3057   24.7225 C   0  0  0  0  0  0
  -21.8818   -3.8149   23.4345 C   0  0  0  0  0  0
  -21.9193   -4.6965   22.3401 C   0  0  0  0  0  0
  -22.7818  -13.5231   21.1864 C   0  0  0  0  0  0
  -22.1662   -4.2153   21.0978 F   0  0  0  0  0  0
  -21.5629   -3.4540   25.7736 F   0  0  0  0  0  0
  -29.9951  -13.4910   20.4106 N   0  0  0  0  0  0
  -26.2938  -12.9428   20.3314 N   0  0  0  0  0  0
  -25.9325  -11.6567   20.5780 N   0  0  0  0  0  0
  -22.0465  -12.8218   22.0416 N   0  0  0  0  0  0
  -25.4196  -15.1936   20.4100 N   0  0  0  0  0  0
  -31.8531  -14.7135   20.1380 O   0  0  0  0  0  0
  -21.6644   -6.8883   21.4240 O   0  0  0  0  0  0
  -22.3507  -14.5539   20.6713 O   0  0  0  0  0  0
  -24.6295  -31.8592   23.2052 C   0  0  0  0  0  0
  -25.9133  -32.4774   23.8373 C   0  0  1  0  0  0
  -27.1942  -27.2656   20.1350 C   0  0  0  0  0  0
  -25.5948  -33.8581   24.2288 N   0  0  0  0  0  0
  -23.4254  -30.4862   21.5479 C   0  0  2  0  0  0
  -24.8719  -28.9500   20.1043 C   0  0  0  0  0  0
  -22.7498  -29.4618   22.4916 C   0  0  0  0  0  0
  -18.0294  -28.1384   22.8474 C   0  0  0  0  0  0
  -24.1498  -36.7295   23.2636 C   0  0  0  0  0  0
  -25.9729  -30.7686   21.3952 C   0  0  0  0  0  0
  -26.0402  -29.3937   20.7383 C   0  0  0  0  0  0
  -27.2042  -28.5578   20.7590 C   0  0  0  0  0  0
  -26.0387  -26.9460   19.3921 C   0  0  0  0  0  0
  -24.8761  -27.7320   19.4168 C   0  0  0  0  0  0
  -23.6429  -29.8343   20.1589 C   0  0  0  0  0  0
  -25.4123  -36.3080   24.0324 C   0  0  1  0  0  0
  -20.5897  -28.3694   23.1263 C   0  0  2  0  0  0
  -20.6790  -26.9410   22.5404 C   0  0  0  0  0  0
  -19.5761  -26.6378   21.5213 C   0  0  0  0  0  0
  -18.1939  -26.7919   22.1619 C   0  0  0  0  0  0
  -19.1550  -28.8853   23.2859 C   0  0  0  0  0  0
  -18.9469  -30.1451   23.8877 C   0  0  0  0  0  0
  -17.6470  -30.6577   24.0555 C   0  0  0  0  0  0
  -25.9062  -34.9447   23.5105 C   0  0  0  0  0  0
  -16.5361  -29.9070   23.6341 C   0  0  0  0  0  0
  -16.7284  -28.6498   23.0350 C   0  0  0  0  0  0
  -26.4501  -31.6594   25.0758 C   0  0  0  0  0  0
  -25.3712  -31.3745   26.1466 C   0  0  0  0  0  0
  -27.0351  -30.3001   24.6260 C   0  0  0  0  0  0
  -27.6054  -32.4339   25.7522 C   0  0  0  0  0  0
  -27.5577  -37.1804   24.8460 C   0  0  0  0  0  0
  -21.4209  -29.3049   22.3656 N   0  0  0  0  0  0
  -26.4296  -37.3777   23.9401 N   0  0  0  0  0  0
  -24.6940  -31.0559   22.1042 N   0  0  0  0  0  0
  -23.4200  -28.8148   23.3004 O   0  0  0  0  0  0
  -28.2496  -26.3220   20.1890 O   0  0  0  0  0  0
  -26.5628  -34.8909   22.4667 O   0  0  0  0  0  0
  -23.5454  -32.1433   23.7347 O   0  0  0  0  0  0
  -29.4623  -18.4165   20.7573 C   0  0  0  0  0  0
  -31.2173  -20.0420   20.3106 C   0  0  0  0  0  0
  -31.7129  -17.6444   20.3058 C   0  0  0  0  0  0
  -29.8602  -19.8120   20.6108 C   0  0  0  0  0  0
  -30.3705  -17.2899   20.5991 C   0  0  0  0  0  0
  -32.1244  -18.9815   20.1626 C   0  0  0  0  0  0
  -28.9656  -21.0569   20.8238 C   0  0  0  0  0  0
  -26.7400  -24.2028   20.2496 C   0  0  0  0  0  0
  -27.8595  -25.1548   22.2488 C   0  0  0  0  0  0
  -29.0893  -22.3706   19.9297 C   0  0  0  0  0  0
  -29.2399  -23.8682   20.5411 C   0  0  0  0  0  0
  -28.0229  -24.9187   20.7340 C   0  0  0  0  0  0
  -28.0576  -21.0313   21.7015 N   0  0  0  0  0  0
  -29.9647  -15.8587   20.7297 N   0  0  0  0  0  0
  -33.4224  -19.2530   19.8871 F   0  0  0  0  0  0
  -31.4632  -12.5075   19.1763 H   0  0  0  0  0  0
  -30.3342  -11.4436   19.9595 H   0  0  0  0  0  0
  -29.7780  -11.7272   17.5166 H   0  0  0  0  0  0
  -29.6424  -13.4559   17.7336 H   0  0  0  0  0  0
  -27.8790  -11.2848   18.9095 H   0  0  0  0  0  0
  -27.3742  -12.5334   17.8026 H   0  0  0  0  0  0
  -27.6405  -14.2559   19.4762 H   0  0  0  0  0  0
  -28.7073  -12.1741   21.4436 H   0  0  0  0  0  0
  -28.4311  -13.8617   21.7932 H   0  0  0  0  0  0
  -25.2763   -9.5693   22.4765 H   0  0  0  0  0  0
  -24.0008   -7.4643   22.7474 H   0  0  0  0  0  0
  -21.0855   -8.8778   19.8950 H   0  0  0  0  0  0
  -22.3704  -10.9679   19.6172 H   0  0  0  0  0  0
  -21.2007   -7.6149   23.9717 H   0  0  0  0  0  0
  -21.1481   -6.0523   25.9076 H   0  0  0  0  0  0
  -22.0599   -2.7612   23.2844 H   0  0  0  0  0  0
  -22.4088  -11.9879   22.4797 H   0  0  0  0  0  0
  -21.1080  -13.1238   22.2624 H   0  0  0  0  0  0
  -24.6489  -15.8451   20.5117 H   0  0  0  0  0  0
  -26.2628  -15.6317   20.0625 H   0  0  0  0  0  0
  -26.7191  -32.5422   23.1104 H   0  0  0  0  0  0
  -25.0101  -33.9735   25.0434 H   0  0  0  0  0  0
  -22.7209  -31.3093   21.4092 H   0  0  0  0  0  0
  -23.3755  -35.9632   23.3313 H   0  0  0  0  0  0
  -24.3578  -36.8914   22.2046 H   0  0  0  0  0  0
  -23.7265  -37.6504   23.6659 H   0  0  0  0  0  0
  -26.1202  -31.5300   20.6279 H   0  0  0  0  0  0
  -26.8472  -30.8098   22.0325 H   0  0  0  0  0  0
  -28.0866  -28.8789   21.2941 H   0  0  0  0  0  0
  -26.0063  -26.0618   18.7787 H   0  0  0  0  0  0
  -24.0019  -27.4086   18.8694 H   0  0  0  0  0  0
  -23.7656  -30.6187   19.4105 H   0  0  0  0  0  0
  -22.7615  -29.2692   19.8509 H   0  0  0  0  0  0
  -25.1303  -36.1931   25.0819 H   0  0  0  0  0  0
  -20.9983  -28.3269   24.1388 H   0  0  0  0  0  0
  -20.5713  -26.2294   23.3602 H   0  0  0  0  0  0
  -21.6653  -26.7451   22.1177 H   0  0  0  0  0  0
  -19.6929  -25.6289   21.1239 H   0  0  0  0  0  0
  -19.6702  -27.3190   20.6739 H   0  0  0  0  0  0
  -17.4215  -26.6675   21.4014 H   0  0  0  0  0  0
  -18.0323  -26.0064   22.9019 H   0  0  0  0  0  0
  -19.7951  -30.7266   24.2237 H   0  0  0  0  0  0
  -17.5030  -31.6257   24.5152 H   0  0  0  0  0  0
  -15.5358  -30.2963   23.7677 H   0  0  0  0  0  0
  -15.8686  -28.0807   22.7068 H   0  0  0  0  0  0
  -24.5906  -30.7071   25.7788 H   0  0  0  0  0  0
  -24.8869  -32.2907   26.4850 H   0  0  0  0  0  0
  -25.8010  -30.8950   27.0269 H   0  0  0  0  0  0
  -26.2937  -29.6737   24.1281 H   0  0  0  0  0  0
  -27.4020  -29.7274   25.4789 H   0  0  0  0  0  0
  -27.8830  -30.4266   23.9526 H   0  0  0  0  0  0
  -27.2675  -33.3667   26.2050 H   0  0  0  0  0  0
  -28.3876  -32.6862   25.0351 H   0  0  0  0  0  0
  -28.0699  -31.8497   26.5477 H   0  0  0  0  0  0
  -28.2590  -38.0102   24.7505 H   0  0  0  0  0  0
  -28.1079  -36.2630   24.6294 H   0  0  0  0  0  0
  -27.2287  -37.1463   25.8861 H   0  0  0  0  0  0
  -20.9394  -29.8785   21.6873 H   0  0  0  0  0  0
  -26.0177  -38.2853   24.1400 H   0  0  0  0  0  0
  -28.4288  -18.2103   20.9960 H   0  0  0  0  0  0
  -31.5964  -21.0484   20.2178 H   0  0  0  0  0  0
  -32.4914  -16.9121   20.1829 H   0  0  0  0  0  0
  -26.6511  -23.2092   20.6872 H   0  0  0  0  0  0
  -26.7303  -24.0734   19.1674 H   0  0  0  0  0  0
  -25.8276  -24.7095   20.5607 H   0  0  0  0  0  0
  -27.7004  -24.2167   22.7816 H   0  0  0  0  0  0
  -27.0079  -25.7989   22.4710 H   0  0  0  0  0  0
  -28.7440  -25.6283   22.6745 H   0  0  0  0  0  0
  -28.2805  -22.3479   19.2017 H   0  0  0  0  0  0
  -29.9646  -22.2267   19.2992 H   0  0  0  0  0  0
  -29.9258  -24.3786   19.8650 H   0  0  0  0  0  0
  -29.8175  -23.7947   21.4641 H   0  0  0  0  0  0
  -28.0460  -20.1495   22.2022 H   0  0  0  0  0  0
  -28.9974  -15.7028   20.9691 H   0  0  0  0  0  0
  1 25  1  0  0  0
  1 30  2  0  0  0
  1 84  1  0  0  0
  2  3  1  0  0  0
  2 25  1  0  0  0
  2 86  1  0  0  0
  2 87  1  0  0  0
  3  4  1  0  0  0
  3 88  1  0  0  0
  3 89  1  0  0  0
  4  5  1  0  0  0
  4 90  1  0  0  0
  4 91  1  0  0  0
  5  6  1  0  0  0
  5 26  1  0  0  0
  5 92  1  0  0  0
  6 25  1  0  0  0
  6 93  1  0  0  0
  6 94  1  0  0  0
  7  8  2  0  0  0
  7 26  1  0  0  0
  7 29  1  0  0  0
  8  9  1  0  0  0
  8 22  1  0  0  0
  9 10  1  0  0  0
  9 27  2  0  0  0
 10 11  2  0  0  0
 10 15  1  0  0  0
 11 12  1  0  0  0
 11 95  1  0  0  0
 12 13  2  0  0  0
 12 96  1  0  0  0
 13 14  1  0  0  0
 13 31  1  0  0  0
 14 15  2  0  0  0
 14 97  1  0  0  0
 15 98  1  0  0  0
 16 17  2  0  0  0
 16 21  1  0  0  0
 16 31  1  0  0  0
 17 18  1  0  0  0
 17 99  1  0  0  0
 18 19  2  0  0  0
 18100  1  0  0  0
 19 20  1  0  0  0
 19 24  1  0  0  0
 20 21  2  0  0  0
 20101  1  0  0  0
 21 23  1  0  0  0
 22 28  1  0  0  0
 22 32  2  0  0  0
 26 27  1  0  0  0
 28102  1  0  0  0
 28103  1  0  0  0
 29104  1  0  0  0
 29105  1  0  0  0
 33 34  1  0  0  0
 33 66  1  0  0  0
 33 70  2  0  0  0
 34 36  1  0  0  0
 34 59  1  0  0  0
 34106  1  0  0  0
 35 44  2  0  0  0
 35 45  1  0  0  0
 35 68  1  0  0  0
 36 56  1  0  0  0
 36107  1  0  0  0
 37 39  1  0  0  0
 37 47  1  0  0  0
 37 66  1  0  0  0
 37108  1  0  0  0
 38 43  2  0  0  0
 38 46  1  0  0  0
 38 47  1  0  0  0
 39 64  1  0  0  0
 39 67  2  0  0  0
 40 52  1  0  0  0
 40 53  2  0  0  0
 40 58  1  0  0  0
 41109  1  0  0  0
 41110  1  0  0  0
 41111  1  0  0  0
 41 48  1  0  0  0
 42 43  1  0  0  0
 42 66  1  0  0  0
 42112  1  0  0  0
 42113  1  0  0  0
 43 44  1  0  0  0
 44114  1  0  0  0
 45 46  2  0  0  0
 45115  1  0  0  0
 46116  1  0  0  0
 47117  1  0  0  0
 47118  1  0  0  0
 48 56  1  0  0  0
 48 65  1  0  0  0
 48119  1  0  0  0
 49 50  1  0  0  0
 49 53  1  0  0  0
 49 64  1  0  0  0
 49120  1  0  0  0
 50 51  1  0  0  0
 50121  1  0  0  0
 50122  1  0  0  0
 51 52  1  0  0  0
 51123  1  0  0  0
 51124  1  0  0  0
 52125  1  0  0  0
 52126  1  0  0  0
 53 54  1  0  0  0
 54 55  2  0  0  0
 54127  1  0  0  0
 55 57  1  0  0  0
 55128  1  0  0  0
 56 69  2  0  0  0
 57 58  2  0  0  0
 57129  1  0  0  0
 58130  1  0  0  0
 59 60  1  0  0  0
 59 61  1  0  0  0
 59 62  1  0  0  0
 60131  1  0  0  0
 60132  1  0  0  0
 60133  1  0  0  0
 61134  1  0  0  0
 61135  1  0  0  0
 61136  1  0  0  0
 62137  1  0  0  0
 62138  1  0  0  0
 62139  1  0  0  0
 63 65  1  0  0  0
 63140  1  0  0  0
 63141  1  0  0  0
 63142  1  0  0  0
 64143  1  0  0  0
 65144  1  0  0  0
 68 82  1  0  0  0
 71 74  2  0  0  0
 71 75  1  0  0  0
 71145  1  0  0  0
 72 74  1  0  0  0
 72 76  2  0  0  0
 72146  1  0  0  0
 73 75  2  0  0  0
 73 76  1  0  0  0
 73147  1  0  0  0
 74 77  1  0  0  0
 75 84  1  0  0  0
 76 85  1  0  0  0
 77 80  1  0  0  0
 77 83  2  0  0  0
 78148  1  0  0  0
 78149  1  0  0  0
 78150  1  0  0  0
 78 82  1  0  0  0
 79 82  1  0  0  0
 79151  1  0  0  0
 79152  1  0  0  0
 79153  1  0  0  0
 80 81  1  0  0  0
 80154  1  0  0  0
 80155  1  0  0  0
 81 82  1  0  0  0
 81156  1  0  0  0
 81157  1  0  0  0
 83158  1  0  0  0
 84159  1  0  0  0
M  ISO  4   1 100  68 101  82 101  84 100
M  END
> <chiral flag>
0

> <version>
0

> <s_m_source_file>
/data/baiqing/PycharmProjects/Reinvent-master-3.2/result/LINK_invent/BTK/process_docking_weight1_custom_product_contain_oxygen_bond_distance_aromatic_linkinvent_7_9_3/rearranged_h_0136.sdf

> <i_m_source_file_index>
91

> <r_mmod_Potential_Energy-OPLS-2005>
153.523910522461

> <r_mmod_Stretch_Energy-OPLS-2005>
127.183792114258

> <r_mmod_Bend_Energy-OPLS-2005>
178.818511962891

> <r_mmod_Torsional_Energy-OPLS-2005>
249.561279296875

> <r_mmod_Improper_Torsional_Energy-OPLS-2005>
4.67141151428223

> <r_mmod_Van_der_Waal_Energy-OPLS-2005>
162.700271606445

> <r_mmod_Electrostatic_Energy-OPLS-2005>
-441.559631347656

> <r_mmod_Solvation_Energy-OPLS-2005>
-208.369979858398

> <b_mmod_Minimization_Converged-OPLS-2005>
0

> <r_mmod_RMS_Derivative-OPLS-2005>
1.20589244365692

$$$$
91
                    3D
 Structure written by MMmdl.
156164  0  0  1  0            999 V2000
  -30.6532  -14.6679   20.4848 C   0  0  0  0  0  0
  -30.4291  -12.4060   19.4767 C   0  0  0  0  0  0
  -29.5089  -12.5090   18.2406 C   0  0  0  0  0  0
  -28.0341  -12.3424   18.6517 C   0  0  0  0  0  0
  -27.6518  -13.2288   19.8662 C   0  0  2  0  0  0
  -28.6956  -13.1265   21.0025 C   0  0  0  0  0  0
  -25.2550  -13.8202   20.5715 C   0  0  0  0  0  0
  -24.1831  -13.0442   20.9212 C   0  0  0  0  0  0
  -24.6419  -11.6916   20.8761 C   0  0  0  0  0  0
  -23.9089  -10.4291   21.0405 C   0  0  0  0  0  0
  -24.3639   -9.4202   21.9171 C   0  0  0  0  0  0
  -23.6313   -8.2243   22.0738 C   0  0  0  0  0  0
  -22.4287   -8.0292   21.3542 C   0  0  0  0  0  0
  -21.9929   -9.0262   20.4637 C   0  0  0  0  0  0
  -22.7266  -10.2136   20.3050 C   0  0  0  0  0  0
  -21.6853   -6.0746   22.5277 C   0  0  0  0  0  0
  -21.4007   -6.5645   23.8212 C   0  0  0  0  0  0
  -21.3668   -5.6799   24.9176 C   0  0  0  0  0  0
  -21.6046   -4.3061   24.7223 C   0  0  0  0  0  0
  -21.8822   -3.8154   23.4344 C   0  0  0  0  0  0
  -21.9189   -4.6973   22.3401 C   0  0  0  0  0  0
  -22.7844  -13.5203   21.1890 C   0  0  0  0  0  0
  -22.1661   -4.2158   21.0981 F   0  0  0  0  0  0
  -21.5633   -3.4543   25.7734 F   0  0  0  0  0  0
  -30.0124  -13.4538   20.4348 N   0  0  0  0  0  0
  -26.2987  -12.9406   20.3343 N   0  0  0  0  0  0
  -25.9351  -11.6546   20.5794 N   0  0  0  0  0  0
  -22.0533  -12.8155   22.0454 N   0  0  0  0  0  0
  -25.4256  -15.1929   20.4143 N   0  0  0  0  0  0
  -31.8152  -14.7773   20.0802 O   0  0  0  0  0  0
  -21.6646   -6.8893   21.4241 O   0  0  0  0  0  0
  -22.3502  -14.5511   20.6768 O   0  0  0  0  0  0
  -24.6276  -31.8596   23.2054 C   0  0  0  0  0  0
  -25.9122  -32.4771   23.8372 C   0  0  1  0  0  0
  -27.2037  -27.2800   20.1299 C   0  0  0  0  0  0
  -25.5932  -33.8575   24.2287 N   0  0  0  0  0  0
  -23.4228  -30.4861   21.5469 C   0  0  2  0  0  0
  -24.8720  -28.9479   20.1067 C   0  0  0  0  0  0
  -22.7478  -29.4624   22.4915 C   0  0  0  0  0  0
  -18.0299  -28.1362   22.8517 C   0  0  0  0  0  0
  -24.1489  -36.7289   23.2634 C   0  0  0  0  0  0
  -25.9703  -30.7723   21.3927 C   0  0  0  0  0  0
  -26.0395  -29.3982   20.7372 C   0  0  0  0  0  0
  -27.2079  -28.5705   20.7536 C   0  0  0  0  0  0
  -26.0461  -26.9497   19.3927 C   0  0  0  0  0  0
  -24.8779  -27.7262   19.4247 C   0  0  0  0  0  0
  -23.6417  -29.8303   20.1588 C   0  0  0  0  0  0
  -25.4114  -36.3079   24.0323 C   0  0  1  0  0  0
  -20.5897  -28.3701   23.1283 C   0  0  2  0  0  0
  -20.6788  -26.9408   22.5457 C   0  0  0  0  0  0
  -19.5763  -26.6355   21.5263 C   0  0  0  0  0  0
  -18.1965  -26.7874   22.1717 C   0  0  0  0  0  0
  -19.1545  -28.8862   23.2881 C   0  0  0  0  0  0
  -18.9460  -30.1493   23.8838 C   0  0  0  0  0  0
  -17.6456  -30.6615   24.0496 C   0  0  0  0  0  0
  -25.9049  -34.9449   23.5102 C   0  0  0  0  0  0
  -16.5350  -29.9080   23.6313 C   0  0  0  0  0  0
  -16.7280  -28.6470   23.0389 C   0  0  0  0  0  0
  -26.4500  -31.6582   25.0751 C   0  0  0  0  0  0
  -25.3722  -31.3726   26.1468 C   0  0  0  0  0  0
  -27.0346  -30.2995   24.6241 C   0  0  0  0  0  0
  -27.6062  -32.4316   25.7507 C   0  0  0  0  0  0
  -27.5575  -37.1808   24.8469 C   0  0  0  0  0  0
  -21.4190  -29.3039   22.3639 N   0  0  0  0  0  0
  -26.4296  -37.3778   23.9396 N   0  0  0  0  0  0
  -24.6917  -31.0588   22.1025 N   0  0  0  0  0  0
  -23.4196  -28.8151   23.2993 O   0  0  0  0  0  0
  -28.2721  -26.3537   20.1738 O   0  0  0  0  0  0
  -26.5625  -34.8910   22.4672 O   0  0  0  0  0  0
  -23.5435  -32.1407   23.7365 O   0  0  0  0  0  0
  -30.7470  -19.0977   19.3430 C   0  0  0  0  0  0
  -30.7508  -17.6575   19.4288 C   0  0  0  0  0  0
  -30.1417  -19.7625   20.3864 C   0  0  0  0  0  0
  -30.1210  -17.1218   20.5337 C   0  0  0  0  0  0
  -28.1140  -25.1991   22.2730 C   0  0  0  0  0  0
  -26.7364  -24.2832   20.4097 C   0  0  0  0  0  0
  -30.2239  -21.3078   20.6360 C   0  0  0  0  0  0
  -28.9741  -22.2963   20.6050 C   0  0  0  0  0  0
  -29.2296  -23.8831   20.3883 C   0  0  0  0  0  0
  -28.0860  -24.9648   20.7521 C   0  0  0  0  0  0
  -29.9288  -15.7774   20.8622 N   0  0  0  0  0  0
  -29.4942  -18.5110   21.4799 S   0  0  0  0  0  0
  -31.4737  -12.5058   19.1773 H   0  0  0  0  0  0
  -30.3485  -11.4204   19.9384 H   0  0  0  0  0  0
  -29.7795  -11.7511   17.5039 H   0  0  0  0  0  0
  -29.6495  -13.4760   17.7552 H   0  0  0  0  0  0
  -27.8813  -11.2922   18.9018 H   0  0  0  0  0  0
  -27.3774  -12.5522   17.8070 H   0  0  0  0  0  0
  -27.6617  -14.2580   19.5074 H   0  0  0  0  0  0
  -28.7071  -12.1237   21.4310 H   0  0  0  0  0  0
  -28.4376  -13.7980   21.8220 H   0  0  0  0  0  0
  -25.2791   -9.5665   22.4739 H   0  0  0  0  0  0
  -24.0029   -7.4616   22.7434 H   0  0  0  0  0  0
  -21.0871   -8.8787   19.8928 H   0  0  0  0  0  0
  -22.3738  -10.9679   19.6163 H   0  0  0  0  0  0
  -21.2000   -7.6151   23.9719 H   0  0  0  0  0  0
  -21.1486   -6.0527   25.9078 H   0  0  0  0  0  0
  -22.0595   -2.7617   23.2840 H   0  0  0  0  0  0
  -22.4199  -11.9798   22.4777 H   0  0  0  0  0  0
  -21.1149  -13.1129   22.2725 H   0  0  0  0  0  0
  -24.6624  -15.8519   20.5268 H   0  0  0  0  0  0
  -26.2801  -15.6300   20.0909 H   0  0  0  0  0  0
  -26.7176  -32.5427   23.1103 H   0  0  0  0  0  0
  -25.0050  -33.9716   25.0410 H   0  0  0  0  0  0
  -22.7172  -31.3079   21.4044 H   0  0  0  0  0  0
  -23.3748  -35.9632   23.3323 H   0  0  0  0  0  0
  -24.3569  -36.8890   22.2045 H   0  0  0  0  0  0
  -23.7258  -37.6499   23.6644 H   0  0  0  0  0  0
  -26.1161  -31.5326   20.6234 H   0  0  0  0  0  0
  -26.8452  -30.8168   22.0295 H   0  0  0  0  0  0
  -28.0926  -28.9001   21.2801 H   0  0  0  0  0  0
  -26.0177  -26.0585   18.7881 H   0  0  0  0  0  0
  -23.9979  -27.3943   18.8916 H   0  0  0  0  0  0
  -23.7633  -30.6114   19.4071 H   0  0  0  0  0  0
  -22.7618  -29.2616   19.8521 H   0  0  0  0  0  0
  -25.1307  -36.1930   25.0823 H   0  0  0  0  0  0
  -21.0010  -28.3317   24.1397 H   0  0  0  0  0  0
  -20.5653  -26.2329   23.3681 H   0  0  0  0  0  0
  -21.6670  -26.7404   22.1288 H   0  0  0  0  0  0
  -19.6951  -25.6256   21.1312 H   0  0  0  0  0  0
  -19.6683  -27.3172   20.6789 H   0  0  0  0  0  0
  -17.4182  -26.6512   21.4190 H   0  0  0  0  0  0
  -18.0488  -26.0072   22.9201 H   0  0  0  0  0  0
  -19.7934  -30.7339   24.2165 H   0  0  0  0  0  0
  -17.4991  -31.6328   24.5024 H   0  0  0  0  0  0
  -15.5344  -30.2960   23.7648 H   0  0  0  0  0  0
  -15.8674  -28.0762   22.7166 H   0  0  0  0  0  0
  -24.5903  -30.7067   25.7789 H   0  0  0  0  0  0
  -24.8898  -32.2889   26.4882 H   0  0  0  0  0  0
  -25.8038  -30.8912   27.0250 H   0  0  0  0  0  0
  -26.2935  -29.6741   24.1250 H   0  0  0  0  0  0
  -27.3990  -29.7264   25.4771 H   0  0  0  0  0  0
  -27.8835  -30.4258   23.9520 H   0  0  0  0  0  0
  -27.2683  -33.3615   26.2095 H   0  0  0  0  0  0
  -28.3867  -32.6877   25.0328 H   0  0  0  0  0  0
  -28.0740  -31.8436   26.5417 H   0  0  0  0  0  0
  -28.2621  -38.0076   24.7485 H   0  0  0  0  0  0
  -28.1046  -36.2609   24.6347 H   0  0  0  0  0  0
  -27.2287  -37.1521   25.8872 H   0  0  0  0  0  0
  -20.9366  -29.8736   21.6820 H   0  0  0  0  0  0
  -26.0180  -38.2859   24.1376 H   0  0  0  0  0  0
  -31.2451  -19.5972   18.5234 H   0  0  0  0  0  0
  -31.2273  -17.0668   18.6582 H   0  0  0  0  0  0
  -28.0301  -24.2624   22.8245 H   0  0  0  0  0  0
  -27.2916  -25.8380   22.5973 H   0  0  0  0  0  0
  -29.0430  -25.6796   22.5807 H   0  0  0  0  0  0
  -25.8755  -24.8552   20.7506 H   0  0  0  0  0  0
  -26.6194  -23.3257   20.9139 H   0  0  0  0  0  0
  -26.6443  -24.0866   19.3414 H   0  0  0  0  0  0
  -30.9353  -21.7018   19.9077 H   0  0  0  0  0  0
  -30.7245  -21.4570   21.5931 H   0  0  0  0  0  0
  -28.4272  -22.1381   21.5347 H   0  0  0  0  0  0
  -28.3078  -21.9623   19.8094 H   0  0  0  0  0  0
  -29.4887  -24.0150   19.3373 H   0  0  0  0  0  0
  -30.1354  -24.1607   20.9296 H   0  0  0  0  0  0
  -29.0695  -15.5699   21.3500 H   0  0  0  0  0  0
  1 25  1  0  0  0
  1 30  2  0  0  0
  1 81  1  0  0  0
  2  3  1  0  0  0
  2 25  1  0  0  0
  2 83  1  0  0  0
  2 84  1  0  0  0
  3  4  1  0  0  0
  3 85  1  0  0  0
  3 86  1  0  0  0
  4  5  1  0  0  0
  4 87  1  0  0  0
  4 88  1  0  0  0
  5  6  1  0  0  0
  5 26  1  0  0  0
  5 89  1  0  0  0
  6 25  1  0  0  0
  6 90  1  0  0  0
  6 91  1  0  0  0
  7  8  2  0  0  0
  7 26  1  0  0  0
  7 29  1  0  0  0
  8  9  1  0  0  0
  8 22  1  0  0  0
  9 10  1  0  0  0
  9 27  2  0  0  0
 10 11  2  0  0  0
 10 15  1  0  0  0
 11 12  1  0  0  0
 11 92  1  0  0  0
 12 13  2  0  0  0
 12 93  1  0  0  0
 13 14  1  0  0  0
 13 31  1  0  0  0
 14 15  2  0  0  0
 14 94  1  0  0  0
 15 95  1  0  0  0
 16 17  2  0  0  0
 16 21  1  0  0  0
 16 31  1  0  0  0
 17 18  1  0  0  0
 17 96  1  0  0  0
 18 19  2  0  0  0
 18 97  1  0  0  0
 19 20  1  0  0  0
 19 24  1  0  0  0
 20 21  2  0  0  0
 20 98  1  0  0  0
 21 23  1  0  0  0
 22 28  1  0  0  0
 22 32  2  0  0  0
 26 27  1  0  0  0
 28 99  1  0  0  0
 28100  1  0  0  0
 29101  1  0  0  0
 29102  1  0  0  0
 33 34  1  0  0  0
 33 66  1  0  0  0
 33 70  2  0  0  0
 34 36  1  0  0  0
 34 59  1  0  0  0
 34103  1  0  0  0
 35 44  2  0  0  0
 35 45  1  0  0  0
 35 68  1  0  0  0
 36 56  1  0  0  0
 36104  1  0  0  0
 37 39  1  0  0  0
 37 47  1  0  0  0
 37 66  1  0  0  0
 37105  1  0  0  0
 38 43  2  0  0  0
 38 46  1  0  0  0
 38 47  1  0  0  0
 39 64  1  0  0  0
 39 67  2  0  0  0
 40 52  1  0  0  0
 40 53  2  0  0  0
 40 58  1  0  0  0
 41106  1  0  0  0
 41107  1  0  0  0
 41108  1  0  0  0
 41 48  1  0  0  0
 42 43  1  0  0  0
 42 66  1  0  0  0
 42109  1  0  0  0
 42110  1  0  0  0
 43 44  1  0  0  0
 44111  1  0  0  0
 45 46  2  0  0  0
 45112  1  0  0  0
 46113  1  0  0  0
 47114  1  0  0  0
 47115  1  0  0  0
 48 56  1  0  0  0
 48 65  1  0  0  0
 48116  1  0  0  0
 49 50  1  0  0  0
 49 53  1  0  0  0
 49 64  1  0  0  0
 49117  1  0  0  0
 50 51  1  0  0  0
 50118  1  0  0  0
 50119  1  0  0  0
 51 52  1  0  0  0
 51120  1  0  0  0
 51121  1  0  0  0
 52122  1  0  0  0
 52123  1  0  0  0
 53 54  1  0  0  0
 54 55  2  0  0  0
 54124  1  0  0  0
 55 57  1  0  0  0
 55125  1  0  0  0
 56 69  2  0  0  0
 57 58  2  0  0  0
 57126  1  0  0  0
 58127  1  0  0  0
 59 60  1  0  0  0
 59 61  1  0  0  0
 59 62  1  0  0  0
 60128  1  0  0  0
 60129  1  0  0  0
 60130  1  0  0  0
 61131  1  0  0  0
 61132  1  0  0  0
 61133  1  0  0  0
 62134  1  0  0  0
 62135  1  0  0  0
 62136  1  0  0  0
 63 65  1  0  0  0
 63137  1  0  0  0
 63138  1  0  0  0
 63139  1  0  0  0
 64140  1  0  0  0
 65141  1  0  0  0
 68 80  1  0  0  0
 71 72  1  0  0  0
 71 73  2  0  0  0
 71142  1  0  0  0
 72 74  2  0  0  0
 72143  1  0  0  0
 73 77  1  0  0  0
 73 82  1  0  0  0
 74 81  1  0  0  0
 74 82  1  0  0  0
 75144  1  0  0  0
 75145  1  0  0  0
 75146  1  0  0  0
 75 80  1  0  0  0
 76 80  1  0  0  0
 76147  1  0  0  0
 76148  1  0  0  0
 76149  1  0  0  0
 77 78  1  0  0  0
 77150  1  0  0  0
 77151  1  0  0  0
 78 79  1  0  0  0
 78152  1  0  0  0
 78153  1  0  0  0
 79 80  1  0  0  0
 79154  1  0  0  0
 79155  1  0  0  0
 81156  1  0  0  0
M  ISO  4   1 100  68 101  80 101  81 100
M  END
> <chiral flag>
0

> <version>
0

> <s_m_source_file>
/data/baiqing/PycharmProjects/Reinvent-master-3.2/result/LINK_invent/BTK/process_docking_weight1_custom_product_contain_oxygen_bond_distance_aromatic_linkinvent_7_9_3/rearranged_h_0136.sdf

> <i_m_source_file_index>
92

> <r_mmod_Potential_Energy-OPLS-2005>
120.071403503418

> <r_mmod_Stretch_Energy-OPLS-2005>
101.22713470459

> <r_mmod_Bend_Energy-OPLS-2005>
164.610321044922

> <r_mmod_Torsional_Energy-OPLS-2005>
236.917877197266

> <r_mmod_Improper_Torsional_Energy-OPLS-2005>
4.21960687637329

> <r_mmod_Van_der_Waal_Energy-OPLS-2005>
133.174575805664

> <r_mmod_Electrostatic_Energy-OPLS-2005>
-393.944732666016

> <r_mmod_Solvation_Energy-OPLS-2005>
-195.09797668457

> <b_mmod_Minimization_Converged-OPLS-2005>
0

> <r_mmod_RMS_Derivative-OPLS-2005>
1.9320285320282

$$$$
92
                    3D
 Structure written by MMmdl.
165173  0  0  1  0            999 V2000
  -30.6735  -14.6260   20.4572 C   0  0  0  0  0  0
  -30.4231  -12.3769   19.4652 C   0  0  0  0  0  0
  -29.5064  -12.4950   18.2284 C   0  0  0  0  0  0
  -28.0287  -12.3337   18.6348 C   0  0  0  0  0  0
  -27.6459  -13.2222   19.8480 C   0  0  2  0  0  0
  -28.6900  -13.1240   20.9825 C   0  0  0  0  0  0
  -25.2532  -13.8197   20.5664 C   0  0  0  0  0  0
  -24.1811  -13.0449   20.9176 C   0  0  0  0  0  0
  -24.6389  -11.6923   20.8734 C   0  0  0  0  0  0
  -23.9072  -10.4296   21.0404 C   0  0  0  0  0  0
  -24.3629   -9.4210   21.9180 C   0  0  0  0  0  0
  -23.6298   -8.2252   22.0761 C   0  0  0  0  0  0
  -22.4277   -8.0291   21.3553 C   0  0  0  0  0  0
  -21.9912   -9.0265   20.4658 C   0  0  0  0  0  0
  -22.7246  -10.2135   20.3054 C   0  0  0  0  0  0
  -21.6855   -6.0742   22.5278 C   0  0  0  0  0  0
  -21.4029   -6.5648   23.8214 C   0  0  0  0  0  0
  -21.3648   -5.6797   24.9170 C   0  0  0  0  0  0
  -21.6035   -4.3060   24.7221 C   0  0  0  0  0  0
  -21.8824   -3.8153   23.4344 C   0  0  0  0  0  0
  -21.9197   -4.6971   22.3399 C   0  0  0  0  0  0
  -22.7833  -13.5235   21.1846 C   0  0  0  0  0  0
  -22.1661   -4.2159   21.0977 F   0  0  0  0  0  0
  -21.5610   -3.4540   25.7731 F   0  0  0  0  0  0
  -30.0098  -13.4273   20.4171 N   0  0  0  0  0  0
  -26.2958  -12.9386   20.3258 N   0  0  0  0  0  0
  -25.9313  -11.6536   20.5737 N   0  0  0  0  0  0
  -22.0489  -12.8220   22.0407 N   0  0  0  0  0  0
  -25.4254  -15.1920   20.4105 N   0  0  0  0  0  0
  -31.8724  -14.6675   20.1708 O   0  0  0  0  0  0
  -21.6642   -6.8884   21.4240 O   0  0  0  0  0  0
  -22.3507  -14.5540   20.6694 O   0  0  0  0  0  0
  -24.6243  -31.8628   23.2075 C   0  0  0  0  0  0
  -25.9102  -32.4806   23.8385 C   0  0  1  0  0  0
  -27.2221  -27.3434   20.1046 C   0  0  0  0  0  0
  -25.5946  -33.8605   24.2332 N   0  0  0  0  0  0
  -23.4159  -30.4931   21.5472 C   0  0  2  0  0  0
  -24.8610  -28.9550   20.1124 C   0  0  0  0  0  0
  -22.7453  -29.4665   22.4914 C   0  0  0  0  0  0
  -18.0297  -28.1384   22.8518 C   0  0  0  0  0  0
  -24.1483  -36.7265   23.2643 C   0  0  0  0  0  0
  -25.9576  -30.8025   21.3757 C   0  0  0  0  0  0
  -26.0306  -29.4337   20.7151 C   0  0  0  0  0  0
  -27.2145  -28.6388   20.7028 C   0  0  0  0  0  0
  -26.0222  -26.9153   19.4851 C   0  0  0  0  0  0
  -24.8572  -27.6993   19.4930 C   0  0  0  0  0  0
  -23.6295  -29.8335   20.1605 C   0  0  0  0  0  0
  -25.4112  -36.3094   24.0354 C   0  0  1  0  0  0
  -20.5900  -28.3686   23.1280 C   0  0  2  0  0  0
  -20.6765  -26.9406   22.5410 C   0  0  0  0  0  0
  -19.5737  -26.6384   21.5215 C   0  0  0  0  0  0
  -18.1920  -26.7939   22.1631 C   0  0  0  0  0  0
  -19.1556  -28.8844   23.2902 C   0  0  0  0  0  0
  -18.9479  -30.1443   23.8930 C   0  0  0  0  0  0
  -17.6484  -30.6593   24.0573 C   0  0  0  0  0  0
  -25.9052  -34.9463   23.5133 C   0  0  0  0  0  0
  -16.5371  -29.9103   23.6343 C   0  0  0  0  0  0
  -16.7283  -28.6503   23.0392 C   0  0  0  0  0  0
  -26.4511  -31.6605   25.0730 C   0  0  0  0  0  0
  -25.3776  -31.3709   26.1476 C   0  0  0  0  0  0
  -27.0360  -30.3050   24.6137 C   0  0  0  0  0  0
  -27.6073  -32.4331   25.7499 C   0  0  0  0  0  0
  -27.5577  -37.1793   24.8478 C   0  0  0  0  0  0
  -21.4166  -29.3060   22.3667 N   0  0  0  0  0  0
  -26.4286  -37.3794   23.9425 N   0  0  0  0  0  0
  -24.6849  -31.0687   22.1013 N   0  0  0  0  0  0
  -23.4186  -28.8188   23.2977 O   0  0  0  0  0  0
  -28.3498  -26.5097   20.1400 O   0  0  0  0  0  0
  -26.5589  -34.8926   22.4679 O   0  0  0  0  0  0
  -23.5417  -32.1394   23.7436 O   0  0  0  0  0  0
  -30.0946  -19.5193   21.2477 C   0  0  0  0  0  0
  -29.9181  -20.9089   20.9607 C   0  0  0  0  0  0
  -29.2867  -20.3411   18.7234 C   0  0  0  0  0  0
  -29.9135  -18.5071   20.2671 C   0  0  0  0  0  0
  -29.5693  -21.3774   19.6641 C   0  0  0  0  0  0
  -29.4604  -18.9550   18.9984 C   0  0  0  0  0  0
  -30.0104  -24.4080   21.3245 C   0  0  0  0  0  0
  -30.4683  -17.1082   20.4435 C   0  0  0  0  0  0
  -29.8688  -15.8782   20.5481 C   0  0  0  0  0  0
  -29.3364  -24.1003   20.1885 C   0  0  0  0  0  0
  -30.5456  -17.6869   17.0800 C   0  0  0  0  0  0
  -29.0081  -23.1090   17.8293 C   0  0  0  0  0  0
  -31.2172  -23.0485   18.8267 C   0  0  0  0  0  0
  -29.2512  -17.9695   17.8558 C   0  0  0  0  0  0
  -28.1473  -25.0725   19.8654 C   0  0  0  0  0  0
  -29.7161  -22.8964   19.1964 C   0  0  0  0  0  0
  -31.4680  -12.4670   19.1641 H   0  0  0  0  0  0
  -30.3311  -11.3927   19.9268 H   0  0  0  0  0  0
  -29.7756  -11.7416   17.4876 H   0  0  0  0  0  0
  -29.6505  -13.4650   17.7490 H   0  0  0  0  0  0
  -27.8674  -11.2834   18.8800 H   0  0  0  0  0  0
  -27.3780  -12.5505   17.7868 H   0  0  0  0  0  0
  -27.6485  -14.2456   19.4758 H   0  0  0  0  0  0
  -28.6925  -12.1222   21.4157 H   0  0  0  0  0  0
  -28.4460  -13.8059   21.7986 H   0  0  0  0  0  0
  -25.2776   -9.5681   22.4749 H   0  0  0  0  0  0
  -24.0006   -7.4643   22.7482 H   0  0  0  0  0  0
  -21.0838   -8.8787   19.8969 H   0  0  0  0  0  0
  -22.3710  -10.9673   19.6160 H   0  0  0  0  0  0
  -21.2042   -7.6161   23.9721 H   0  0  0  0  0  0
  -21.1452   -6.0526   25.9071 H   0  0  0  0  0  0
  -22.0614   -2.7620   23.2840 H   0  0  0  0  0  0
  -22.4116  -11.9867   22.4758 H   0  0  0  0  0  0
  -21.1125  -13.1253   22.2669 H   0  0  0  0  0  0
  -24.6631  -15.8510   20.5268 H   0  0  0  0  0  0
  -26.2841  -15.6318   20.1047 H   0  0  0  0  0  0
  -26.7159  -32.5502   23.1125 H   0  0  0  0  0  0
  -25.0178  -33.9756   25.0538 H   0  0  0  0  0  0
  -22.7094  -31.3149   21.4077 H   0  0  0  0  0  0
  -23.3773  -35.9570   23.3322 H   0  0  0  0  0  0
  -24.3563  -36.8851   22.2048 H   0  0  0  0  0  0
  -23.7202  -37.6465   23.6637 H   0  0  0  0  0  0
  -26.0890  -31.5685   20.6098 H   0  0  0  0  0  0
  -26.8396  -30.8478   22.0038 H   0  0  0  0  0  0
  -28.1105  -29.0046   21.1847 H   0  0  0  0  0  0
  -25.9415  -25.9609   18.9907 H   0  0  0  0  0  0
  -23.9597  -27.3247   19.0198 H   0  0  0  0  0  0
  -23.7516  -30.6114   19.4054 H   0  0  0  0  0  0
  -22.7499  -29.2639   19.8537 H   0  0  0  0  0  0
  -25.1290  -36.1945   25.0848 H   0  0  0  0  0  0
  -21.0031  -28.3265   24.1383 H   0  0  0  0  0  0
  -20.5639  -26.2302   23.3613 H   0  0  0  0  0  0
  -21.6630  -26.7409   22.1213 H   0  0  0  0  0  0
  -19.6879  -25.6293   21.1243 H   0  0  0  0  0  0
  -19.6670  -27.3197   20.6748 H   0  0  0  0  0  0
  -17.4185  -26.6728   21.4024 H   0  0  0  0  0  0
  -18.0294  -26.0064   22.9008 H   0  0  0  0  0  0
  -19.7953  -30.7245   24.2316 H   0  0  0  0  0  0
  -17.5051  -31.6297   24.5145 H   0  0  0  0  0  0
  -15.5372  -30.3025   23.7651 H   0  0  0  0  0  0
  -15.8676  -28.0818   22.7133 H   0  0  0  0  0  0
  -24.5944  -30.7060   25.7817 H   0  0  0  0  0  0
  -24.8979  -32.2858   26.4952 H   0  0  0  0  0  0
  -25.8140  -30.8860   27.0214 H   0  0  0  0  0  0
  -26.2905  -29.6787   24.1220 H   0  0  0  0  0  0
  -27.4155  -29.7312   25.4600 H   0  0  0  0  0  0
  -27.8742  -30.4368   23.9291 H   0  0  0  0  0  0
  -27.2685  -33.3621   26.2091 H   0  0  0  0  0  0
  -28.3888  -32.6897   25.0336 H   0  0  0  0  0  0
  -28.0737  -31.8446   26.5404 H   0  0  0  0  0  0
  -28.2628  -38.0069   24.7541 H   0  0  0  0  0  0
  -28.1046  -36.2600   24.6303 H   0  0  0  0  0  0
  -27.2287  -37.1454   25.8884 H   0  0  0  0  0  0
  -20.9304  -29.8811   21.6922 H   0  0  0  0  0  0
  -26.0173  -38.2868   24.1448 H   0  0  0  0  0  0
  -30.4566  -19.2394   22.2270 H   0  0  0  0  0  0
  -30.1519  -21.6116   21.7454 H   0  0  0  0  0  0
  -29.0103  -20.5793   17.7095 H   0  0  0  0  0  0
  -30.7247  -24.3960   22.1345 H   0  0  0  0  0  0
  -30.6517  -23.5720   21.1512 H   0  0  0  0  0  0
  -31.5488  -17.1069   20.3906 H   0  0  0  0  0  0
  -28.7951  -15.8308   20.6298 H   0  0  0  0  0  0
  -30.3733  -16.9724   16.2757 H   0  0  0  0  0  0
  -31.3156  -17.2693   17.7287 H   0  0  0  0  0  0
  -30.9442  -18.5984   16.6344 H   0  0  0  0  0  0
  -27.9360  -22.9147   17.8896 H   0  0  0  0  0  0
  -29.4104  -22.4808   17.0351 H   0  0  0  0  0  0
  -29.1597  -24.1194   17.4465 H   0  0  0  0  0  0
  -31.8921  -22.7780   19.6393 H   0  0  0  0  0  0
  -31.4553  -24.0715   18.5311 H   0  0  0  0  0  0
  -31.4914  -22.4009   17.9925 H   0  0  0  0  0  0
  -28.4978  -18.3678   17.1748 H   0  0  0  0  0  0
  -28.8288  -17.0392   18.2372 H   0  0  0  0  0  0
  -27.3022  -24.7106   20.4535 H   0  0  0  0  0  0
  -27.8413  -25.0062   18.8284 H   0  0  0  0  0  0
  1 25  1  0  0  0
  1 30  2  0  0  0
  1 79  1  0  0  0
  2  3  1  0  0  0
  2 25  1  0  0  0
  2 87  1  0  0  0
  2 88  1  0  0  0
  3  4  1  0  0  0
  3 89  1  0  0  0
  3 90  1  0  0  0
  4  5  1  0  0  0
  4 91  1  0  0  0
  4 92  1  0  0  0
  5  6  1  0  0  0
  5 26  1  0  0  0
  5 93  1  0  0  0
  6 25  1  0  0  0
  6 94  1  0  0  0
  6 95  1  0  0  0
  7  8  2  0  0  0
  7 26  1  0  0  0
  7 29  1  0  0  0
  8  9  1  0  0  0
  8 22  1  0  0  0
  9 10  1  0  0  0
  9 27  2  0  0  0
 10 11  2  0  0  0
 10 15  1  0  0  0
 11 12  1  0  0  0
 11 96  1  0  0  0
 12 13  2  0  0  0
 12 97  1  0  0  0
 13 14  1  0  0  0
 13 31  1  0  0  0
 14 15  2  0  0  0
 14 98  1  0  0  0
 15 99  1  0  0  0
 16 17  2  0  0  0
 16 21  1  0  0  0
 16 31  1  0  0  0
 17 18  1  0  0  0
 17100  1  0  0  0
 18 19  2  0  0  0
 18101  1  0  0  0
 19 20  1  0  0  0
 19 24  1  0  0  0
 20 21  2  0  0  0
 20102  1  0  0  0
 21 23  1  0  0  0
 22 28  1  0  0  0
 22 32  2  0  0  0
 26 27  1  0  0  0
 28103  1  0  0  0
 28104  1  0  0  0
 29105  1  0  0  0
 29106  1  0  0  0
 33 34  1  0  0  0
 33 66  1  0  0  0
 33 70  2  0  0  0
 34 36  1  0  0  0
 34 59  1  0  0  0
 34107  1  0  0  0
 35 44  2  0  0  0
 35 45  1  0  0  0
 35 68  1  0  0  0
 36 56  1  0  0  0
 36108  1  0  0  0
 37 39  1  0  0  0
 37 47  1  0  0  0
 37 66  1  0  0  0
 37109  1  0  0  0
 38 43  2  0  0  0
 38 46  1  0  0  0
 38 47  1  0  0  0
 39 64  1  0  0  0
 39 67  2  0  0  0
 40 52  1  0  0  0
 40 53  2  0  0  0
 40 58  1  0  0  0
 41110  1  0  0  0
 41111  1  0  0  0
 41112  1  0  0  0
 41 48  1  0  0  0
 42 43  1  0  0  0
 42 66  1  0  0  0
 42113  1  0  0  0
 42114  1  0  0  0
 43 44  1  0  0  0
 44115  1  0  0  0
 45 46  2  0  0  0
 45116  1  0  0  0
 46117  1  0  0  0
 47118  1  0  0  0
 47119  1  0  0  0
 48 56  1  0  0  0
 48 65  1  0  0  0
 48120  1  0  0  0
 49 50  1  0  0  0
 49 53  1  0  0  0
 49 64  1  0  0  0
 49121  1  0  0  0
 50 51  1  0  0  0
 50122  1  0  0  0
 50123  1  0  0  0
 51 52  1  0  0  0
 51124  1  0  0  0
 51125  1  0  0  0
 52126  1  0  0  0
 52127  1  0  0  0
 53 54  1  0  0  0
 54 55  2  0  0  0
 54128  1  0  0  0
 55 57  1  0  0  0
 55129  1  0  0  0
 56 69  2  0  0  0
 57 58  2  0  0  0
 57130  1  0  0  0
 58131  1  0  0  0
 59 60  1  0  0  0
 59 61  1  0  0  0
 59 62  1  0  0  0
 60132  1  0  0  0
 60133  1  0  0  0
 60134  1  0  0  0
 61135  1  0  0  0
 61136  1  0  0  0
 61137  1  0  0  0
 62138  1  0  0  0
 62139  1  0  0  0
 62140  1  0  0  0
 63 65  1  0  0  0
 63141  1  0  0  0
 63142  1  0  0  0
 63143  1  0  0  0
 64144  1  0  0  0
 65145  1  0  0  0
 68 85  1  0  0  0
 71 72  2  0  0  0
 71 74  1  0  0  0
 71146  1  0  0  0
 72 75  1  0  0  0
 72147  1  0  0  0
 73 75  2  0  0  0
 73 76  1  0  0  0
 73148  1  0  0  0
 74 76  2  0  0  0
 74 78  1  0  0  0
 75 86  1  0  0  0
 76 84  1  0  0  0
 77 80  2  0  0  0
 77149  1  0  0  0
 77150  1  0  0  0
 78 79  2  0  0  0
 78151  1  0  0  0
 79152  1  0  0  0
 80 85  1  0  0  0
 80 86  1  0  0  0
 81 84  1  0  0  0
 81153  1  0  0  0
 81154  1  0  0  0
 81155  1  0  0  0
 82156  1  0  0  0
 82157  1  0  0  0
 82158  1  0  0  0
 82 86  1  0  0  0
 83 86  1  0  0  0
 83159  1  0  0  0
 83160  1  0  0  0
 83161  1  0  0  0
 84162  1  0  0  0
 84163  1  0  0  0
 85164  1  0  0  0
 85165  1  0  0  0
M  ISO  4   1 100  68 101  79 100  85 101
M  END
> <chiral flag>
0

> <version>
0

> <s_m_source_file>
/data/baiqing/PycharmProjects/Reinvent-master-3.2/result/LINK_invent/BTK/process_docking_weight1_custom_product_contain_oxygen_bond_distance_aromatic_linkinvent_7_9_3/rearranged_h_0136.sdf

> <i_m_source_file_index>
93

> <r_mmod_Potential_Energy-OPLS-2005>
381.415222167969

> <r_mmod_Stretch_Energy-OPLS-2005>
88.7623748779297

> <r_mmod_Bend_Energy-OPLS-2005>
356.887084960938

> <r_mmod_Torsional_Energy-OPLS-2005>
244.18977355957

> <r_mmod_Improper_Torsional_Energy-OPLS-2005>
12.2001132965088

> <r_mmod_Van_der_Waal_Energy-OPLS-2005>
181.734222412109

> <r_mmod_Electrostatic_Energy-OPLS-2005>
-365.43896484375

> <r_mmod_Solvation_Energy-OPLS-2005>
-182.637344360352

> <b_mmod_Minimization_Converged-OPLS-2005>
0

> <r_mmod_RMS_Derivative-OPLS-2005>
2.15855765342712

$$$$
93
                    3D
 Structure written by MMmdl.
164172  0  0  1  0            999 V2000
  -30.6517  -14.5573   20.4821 C   0  0  0  0  0  0
  -30.4254  -12.3275   19.4540 C   0  0  0  0  0  0
  -29.5063  -12.4892   18.2201 C   0  0  0  0  0  0
  -28.0241  -12.3336   18.6182 C   0  0  0  0  0  0
  -27.6510  -13.1950   19.8513 C   0  0  2  0  0  0
  -28.6901  -13.0272   20.9861 C   0  0  0  0  0  0
  -25.2601  -13.8103   20.5568 C   0  0  0  0  0  0
  -24.1872  -13.0413   20.9148 C   0  0  0  0  0  0
  -24.6387  -11.6886   20.8627 C   0  0  0  0  0  0
  -23.9037  -10.4334   21.0362 C   0  0  0  0  0  0
  -24.3603   -9.4269   21.9149 C   0  0  0  0  0  0
  -23.6283   -8.2309   22.0734 C   0  0  0  0  0  0
  -22.4253   -8.0350   21.3540 C   0  0  0  0  0  0
  -21.9892   -9.0302   20.4622 C   0  0  0  0  0  0
  -22.7203  -10.2187   20.3024 C   0  0  0  0  0  0
  -21.6857   -6.0781   22.5285 C   0  0  0  0  0  0
  -21.4028   -6.5665   23.8235 C   0  0  0  0  0  0
  -21.3642   -5.6785   24.9177 C   0  0  0  0  0  0
  -21.6043   -4.3054   24.7212 C   0  0  0  0  0  0
  -21.8831   -3.8184   23.4317 C   0  0  0  0  0  0
  -21.9195   -4.7023   22.3390 C   0  0  0  0  0  0
  -22.7912  -13.5252   21.1868 C   0  0  0  0  0  0
  -22.1691   -4.2230   21.0969 F   0  0  0  0  0  0
  -21.5589   -3.4507   25.7713 F   0  0  0  0  0  0
  -30.0205  -13.3433   20.4438 N   0  0  0  0  0  0
  -26.2972  -12.9215   20.3177 N   0  0  0  0  0  0
  -25.9289  -11.6390   20.5592 N   0  0  0  0  0  0
  -22.0595  -12.8234   22.0425 N   0  0  0  0  0  0
  -25.4327  -15.1810   20.3947 N   0  0  0  0  0  0
  -31.8407  -14.6490   20.1697 O   0  0  0  0  0  0
  -21.6649   -6.8909   21.4249 O   0  0  0  0  0  0
  -22.3589  -14.5586   20.6806 O   0  0  0  0  0  0
  -24.6155  -31.8677   23.2106 C   0  0  0  0  0  0
  -25.9033  -32.4818   23.8397 C   0  0  1  0  0  0
  -27.2325  -27.4102   20.0867 C   0  0  0  0  0  0
  -25.5890  -33.8622   24.2326 N   0  0  0  0  0  0
  -23.4043  -30.4937   21.5530 C   0  0  2  0  0  0
  -24.8466  -28.9580   20.1179 C   0  0  0  0  0  0
  -22.7414  -29.4658   22.4997 C   0  0  0  0  0  0
  -18.0256  -28.1367   22.8496 C   0  0  0  0  0  0
  -24.1475  -36.7302   23.2646 C   0  0  0  0  0  0
  -25.9385  -30.8215   21.3721 C   0  0  0  0  0  0
  -26.0112  -29.4577   20.7118 C   0  0  0  0  0  0
  -27.2039  -28.6936   20.6894 C   0  0  0  0  0  0
  -26.0318  -26.9235   19.5131 C   0  0  0  0  0  0
  -24.8529  -27.6898   19.5177 C   0  0  0  0  0  0
  -23.6122  -29.8302   20.1672 C   0  0  0  0  0  0
  -25.4100  -36.3113   24.0345 C   0  0  1  0  0  0
  -20.5855  -28.3651   23.1321 C   0  0  2  0  0  0
  -20.6753  -26.9387   22.5428 C   0  0  0  0  0  0
  -19.5732  -26.6373   21.5225 C   0  0  0  0  0  0
  -18.1908  -26.7913   22.1630 C   0  0  0  0  0  0
  -19.1514  -28.8824   23.2903 C   0  0  0  0  0  0
  -18.9449  -30.1432   23.8908 C   0  0  0  0  0  0
  -17.6459  -30.6575   24.0557 C   0  0  0  0  0  0
  -25.9034  -34.9477   23.5135 C   0  0  0  0  0  0
  -16.5343  -29.9078   23.6331 C   0  0  0  0  0  0
  -16.7249  -28.6495   23.0354 C   0  0  0  0  0  0
  -26.4459  -31.6606   25.0738 C   0  0  0  0  0  0
  -25.3723  -31.3732   26.1488 C   0  0  0  0  0  0
  -27.0304  -30.3038   24.6170 C   0  0  0  0  0  0
  -27.6030  -32.4346   25.7489 C   0  0  0  0  0  0
  -27.5578  -37.1801   24.8464 C   0  0  0  0  0  0
  -21.4149  -29.3016   22.3723 N   0  0  0  0  0  0
  -26.4280  -37.3805   23.9419 N   0  0  0  0  0  0
  -24.6706  -31.0750   22.1019 N   0  0  0  0  0  0
  -23.4179  -28.8197   23.3045 O   0  0  0  0  0  0
  -28.4192  -26.6849   20.0866 O   0  0  0  0  0  0
  -26.5617  -34.8931   22.4711 O   0  0  0  0  0  0
  -23.5341  -32.1441   23.7494 O   0  0  0  0  0  0
  -29.4656  -20.6339   20.1223 C   0  0  0  0  0  0
  -29.2806  -22.1518   22.0177 C   0  0  0  0  0  0
  -28.8455  -19.7595   22.3017 C   0  0  0  0  0  0
  -29.5384  -21.9580   20.6404 C   0  0  0  0  0  0
  -29.1086  -19.5208   20.9367 C   0  0  0  0  0  0
  -28.9350  -21.0582   22.8367 C   0  0  0  0  0  0
  -29.7509  -15.7295   20.6037 C   0  0  0  0  0  0
  -30.0478  -17.0609   20.4766 C   0  0  0  0  0  0
  -31.4356  -17.6794   20.3384 C   0  0  0  0  0  0
  -28.3654  -18.1224   18.9323 C   0  0  0  0  0  0
  -28.4780  -25.4029   18.0288 C   0  0  0  0  0  0
  -29.9538  -23.1124   19.7037 C   0  0  0  0  0  0
  -29.7157  -24.6057   20.1252 C   0  0  0  0  0  0
  -28.8910  -18.0894   20.3823 C   0  0  2  0  0  0
  -28.4555  -25.3331   19.5722 C   0  0  1  0  0  0
  -28.6763  -21.2546   24.1509 F   0  0  0  0  0  0
  -31.4758  -12.4167   19.1669 H   0  0  0  0  0  0
  -30.3180  -11.3246   19.8678 H   0  0  0  0  0  0
  -29.7665  -11.7562   17.4547 H   0  0  0  0  0  0
  -29.6567  -13.4659   17.7632 H   0  0  0  0  0  0
  -27.8502  -11.2796   18.8351 H   0  0  0  0  0  0
  -27.3719  -12.5769   17.7774 H   0  0  0  0  0  0
  -27.6576  -14.2222   19.4933 H   0  0  0  0  0  0
  -28.6847  -11.9985   21.3475 H   0  0  0  0  0  0
  -28.4439  -13.6425   21.8535 H   0  0  0  0  0  0
  -25.2769   -9.5770   22.4666 H   0  0  0  0  0  0
  -24.0065   -7.4677   22.7386 H   0  0  0  0  0  0
  -21.0861   -8.8779   19.8871 H   0  0  0  0  0  0
  -22.3649  -10.9727   19.6144 H   0  0  0  0  0  0
  -21.2070   -7.6168   23.9778 H   0  0  0  0  0  0
  -21.1393   -6.0492   25.9072 H   0  0  0  0  0  0
  -22.0612   -2.7665   23.2780 H   0  0  0  0  0  0
  -22.4234  -11.9876   22.4753 H   0  0  0  0  0  0
  -21.1211  -13.1288   22.2576 H   0  0  0  0  0  0
  -24.6587  -15.8289   20.4874 H   0  0  0  0  0  0
  -26.2683  -15.6184   20.0279 H   0  0  0  0  0  0
  -26.7105  -32.5517   23.1156 H   0  0  0  0  0  0
  -24.9991  -33.9776   25.0439 H   0  0  0  0  0  0
  -22.6932  -31.3111   21.4176 H   0  0  0  0  0  0
  -23.3751  -35.9621   23.3312 H   0  0  0  0  0  0
  -24.3565  -36.8913   22.2059 H   0  0  0  0  0  0
  -23.7200  -37.6500   23.6655 H   0  0  0  0  0  0
  -26.0699  -31.5928   20.6119 H   0  0  0  0  0  0
  -26.8189  -30.8614   22.0011 H   0  0  0  0  0  0
  -28.1053  -29.0835   21.1418 H   0  0  0  0  0  0
  -25.9733  -25.9516   19.0491 H   0  0  0  0  0  0
  -23.9529  -27.2968   19.0641 H   0  0  0  0  0  0
  -23.7242  -30.6081   19.4108 H   0  0  0  0  0  0
  -22.7335  -29.2548   19.8709 H   0  0  0  0  0  0
  -25.1276  -36.1989   25.0839 H   0  0  0  0  0  0
  -20.9944  -28.3215   24.1439 H   0  0  0  0  0  0
  -20.5649  -26.2261   23.3614 H   0  0  0  0  0  0
  -21.6621  -26.7416   22.1222 H   0  0  0  0  0  0
  -19.6891  -25.6289   21.1231 H   0  0  0  0  0  0
  -19.6667  -27.3203   20.6772 H   0  0  0  0  0  0
  -17.4180  -26.6657   21.4030 H   0  0  0  0  0  0
  -18.0298  -26.0044   22.9017 H   0  0  0  0  0  0
  -19.7934  -30.7244   24.2283 H   0  0  0  0  0  0
  -17.5013  -31.6265   24.5147 H   0  0  0  0  0  0
  -15.5344  -30.2991   23.7646 H   0  0  0  0  0  0
  -15.8641  -28.0816   22.7069 H   0  0  0  0  0  0
  -24.5873  -30.7104   25.7830 H   0  0  0  0  0  0
  -24.8934  -32.2896   26.4954 H   0  0  0  0  0  0
  -25.8057  -30.8882   27.0243 H   0  0  0  0  0  0
  -26.2874  -29.6795   24.1189 H   0  0  0  0  0  0
  -27.4011  -29.7286   25.4666 H   0  0  0  0  0  0
  -27.8740  -30.4338   23.9384 H   0  0  0  0  0  0
  -27.2637  -33.3641   26.2079 H   0  0  0  0  0  0
  -28.3812  -32.6925   25.0293 H   0  0  0  0  0  0
  -28.0730  -31.8474   26.5389 H   0  0  0  0  0  0
  -28.2603  -38.0098   24.7536 H   0  0  0  0  0  0
  -28.1071  -36.2634   24.6258 H   0  0  0  0  0  0
  -27.2301  -37.1412   25.8869 H   0  0  0  0  0  0
  -20.9300  -29.8735   21.6945 H   0  0  0  0  0  0
  -26.0178  -38.2884   24.1444 H   0  0  0  0  0  0
  -29.6802  -20.4794   19.0766 H   0  0  0  0  0  0
  -29.3469  -23.1254   22.4774 H   0  0  0  0  0  0
  -28.5492  -18.9476   22.9509 H   0  0  0  0  0  0
  -28.7031  -15.5429   20.7478 H   0  0  0  0  0  0
  -32.2601  -16.9767   20.4411 H   0  0  0  0  0  0
  -31.5756  -18.4381   21.1113 H   0  0  0  0  0  0
  -31.5257  -18.1732   19.3689 H   0  0  0  0  0  0
  -27.4805  -18.7533   18.8404 H   0  0  0  0  0  0
  -28.0907  -17.1248   18.5920 H   0  0  0  0  0  0
  -29.1161  -18.4931   18.2335 H   0  0  0  0  0  0
  -28.3386  -24.4215   17.5791 H   0  0  0  0  0  0
  -29.4214  -25.8080   17.6644 H   0  0  0  0  0  0
  -27.6942  -26.0411   17.6232 H   0  0  0  0  0  0
  -29.5295  -22.9268   18.7193 H   0  0  0  0  0  0
  -31.0276  -22.9884   19.5543 H   0  0  0  0  0  0
  -30.5668  -25.1709   19.7420 H   0  0  0  0  0  0
  -29.7959  -24.7406   21.2001 H   0  0  0  0  0  0
  -28.0741  -17.6807   20.9824 H   0  0  0  0  0  0
  -27.5867  -24.7755   19.9198 H   0  0  0  0  0  0
  1 25  1  0  0  0
  1 30  2  0  0  0
  1 77  1  0  0  0
  2  3  1  0  0  0
  2 25  1  0  0  0
  2 87  1  0  0  0
  2 88  1  0  0  0
  3  4  1  0  0  0
  3 89  1  0  0  0
  3 90  1  0  0  0
  4  5  1  0  0  0
  4 91  1  0  0  0
  4 92  1  0  0  0
  5  6  1  0  0  0
  5 26  1  0  0  0
  5 93  1  0  0  0
  6 25  1  0  0  0
  6 94  1  0  0  0
  6 95  1  0  0  0
  7  8  2  0  0  0
  7 26  1  0  0  0
  7 29  1  0  0  0
  8  9  1  0  0  0
  8 22  1  0  0  0
  9 10  1  0  0  0
  9 27  2  0  0  0
 10 11  2  0  0  0
 10 15  1  0  0  0
 11 12  1  0  0  0
 11 96  1  0  0  0
 12 13  2  0  0  0
 12 97  1  0  0  0
 13 14  1  0  0  0
 13 31  1  0  0  0
 14 15  2  0  0  0
 14 98  1  0  0  0
 15 99  1  0  0  0
 16 17  2  0  0  0
 16 21  1  0  0  0
 16 31  1  0  0  0
 17 18  1  0  0  0
 17100  1  0  0  0
 18 19  2  0  0  0
 18101  1  0  0  0
 19 20  1  0  0  0
 19 24  1  0  0  0
 20 21  2  0  0  0
 20102  1  0  0  0
 21 23  1  0  0  0
 22 28  1  0  0  0
 22 32  2  0  0  0
 26 27  1  0  0  0
 28103  1  0  0  0
 28104  1  0  0  0
 29105  1  0  0  0
 29106  1  0  0  0
 33 34  1  0  0  0
 33 66  1  0  0  0
 33 70  2  0  0  0
 34 36  1  0  0  0
 34 59  1  0  0  0
 34107  1  0  0  0
 35 44  2  0  0  0
 35 45  1  0  0  0
 35 68  1  0  0  0
 36 56  1  0  0  0
 36108  1  0  0  0
 37 39  1  0  0  0
 37 47  1  0  0  0
 37 66  1  0  0  0
 37109  1  0  0  0
 38 43  2  0  0  0
 38 46  1  0  0  0
 38 47  1  0  0  0
 39 64  1  0  0  0
 39 67  2  0  0  0
 40 52  1  0  0  0
 40 53  2  0  0  0
 40 58  1  0  0  0
 41110  1  0  0  0
 41111  1  0  0  0
 41112  1  0  0  0
 41 48  1  0  0  0
 42 43  1  0  0  0
 42 66  1  0  0  0
 42113  1  0  0  0
 42114  1  0  0  0
 43 44  1  0  0  0
 44115  1  0  0  0
 45 46  2  0  0  0
 45116  1  0  0  0
 46117  1  0  0  0
 47118  1  0  0  0
 47119  1  0  0  0
 48 56  1  0  0  0
 48 65  1  0  0  0
 48120  1  0  0  0
 49 50  1  0  0  0
 49 53  1  0  0  0
 49 64  1  0  0  0
 49121  1  0  0  0
 50 51  1  0  0  0
 50122  1  0  0  0
 50123  1  0  0  0
 51 52  1  0  0  0
 51124  1  0  0  0
 51125  1  0  0  0
 52126  1  0  0  0
 52127  1  0  0  0
 53 54  1  0  0  0
 54 55  2  0  0  0
 54128  1  0  0  0
 55 57  1  0  0  0
 55129  1  0  0  0
 56 69  2  0  0  0
 57 58  2  0  0  0
 57130  1  0  0  0
 58131  1  0  0  0
 59 60  1  0  0  0
 59 61  1  0  0  0
 59 62  1  0  0  0
 60132  1  0  0  0
 60133  1  0  0  0
 60134  1  0  0  0
 61135  1  0  0  0
 61136  1  0  0  0
 61137  1  0  0  0
 62138  1  0  0  0
 62139  1  0  0  0
 62140  1  0  0  0
 63 65  1  0  0  0
 63141  1  0  0  0
 63142  1  0  0  0
 63143  1  0  0  0
 64144  1  0  0  0
 65145  1  0  0  0
 68 85  1  0  0  0
 71 74  2  0  0  0
 71 75  1  0  0  0
 71146  1  0  0  0
 72 74  1  0  0  0
 72 76  2  0  0  0
 72147  1  0  0  0
 73 75  2  0  0  0
 73 76  1  0  0  0
 73148  1  0  0  0
 74 82  1  0  0  0
 75 84  1  0  0  0
 76 86  1  0  0  0
 77 78  2  0  0  0
 77149  1  0  0  0
 78 79  1  0  0  0
 78 84  1  0  0  0
 79150  1  0  0  0
 79151  1  0  0  0
 79152  1  0  0  0
 80153  1  0  0  0
 80154  1  0  0  0
 80155  1  0  0  0
 80 84  1  0  0  0
 81156  1  0  0  0
 81157  1  0  0  0
 81158  1  0  0  0
 81 85  1  0  0  0
 82 83  1  0  0  0
 82159  1  0  0  0
 82160  1  0  0  0
 83 85  1  0  0  0
 83161  1  0  0  0
 83162  1  0  0  0
 84163  1  0  0  0
 85164  1  0  0  0
M  ISO  4   1 100  68 101  77 100  85 101
M  END
> <chiral flag>
0

> <version>
0

> <s_m_source_file>
/data/baiqing/PycharmProjects/Reinvent-master-3.2/result/LINK_invent/BTK/process_docking_weight1_custom_product_contain_oxygen_bond_distance_aromatic_linkinvent_7_9_3/rearranged_h_0136.sdf

> <i_m_source_file_index>
94

> <r_mmod_Potential_Energy-OPLS-2005>
59.7166633605957

> <r_mmod_Stretch_Energy-OPLS-2005>
51.3624267578125

> <r_mmod_Bend_Energy-OPLS-2005>
131.714462280273

> <r_mmod_Torsional_Energy-OPLS-2005>
196.743087768555

> <r_mmod_Improper_Torsional_Energy-OPLS-2005>
8.93557357788086

> <r_mmod_Van_der_Waal_Energy-OPLS-2005>
165.154327392578

> <r_mmod_Electrostatic_Energy-OPLS-2005>
-338.215942382812

> <r_mmod_Solvation_Energy-OPLS-2005>
-180.535781860352

> <b_mmod_Minimization_Converged-OPLS-2005>
0

> <r_mmod_RMS_Derivative-OPLS-2005>
4.18234491348267

$$$$
94
                    3D
 Structure written by MMmdl.
170178  0  0  1  0            999 V2000
  -30.7044  -14.4886   20.6018 C   0  0  0  0  0  0
  -30.4275  -12.3280   19.4222 C   0  0  0  0  0  0
  -29.4955  -12.5059   18.2063 C   0  0  0  0  0  0
  -28.0192  -12.3572   18.6220 C   0  0  0  0  0  0
  -27.6601  -13.2063   19.8706 C   0  0  2  0  0  0
  -28.7012  -12.9986   20.9932 C   0  0  0  0  0  0
  -25.2591  -13.8157   20.5670 C   0  0  0  0  0  0
  -24.1843  -13.0444   20.9179 C   0  0  0  0  0  0
  -24.6386  -11.6913   20.8736 C   0  0  0  0  0  0
  -23.9058  -10.4300   21.0386 C   0  0  0  0  0  0
  -24.3612   -9.4219   21.9164 C   0  0  0  0  0  0
  -23.6297   -8.2245   22.0736 C   0  0  0  0  0  0
  -22.4282   -8.0271   21.3527 C   0  0  0  0  0  0
  -21.9908   -9.0246   20.4633 C   0  0  0  0  0  0
  -22.7227  -10.2132   20.3048 C   0  0  0  0  0  0
  -21.6864   -6.0729   22.5268 C   0  0  0  0  0  0
  -21.4018   -6.5632   23.8202 C   0  0  0  0  0  0
  -21.3666   -5.6781   24.9165 C   0  0  0  0  0  0
  -21.6047   -4.3045   24.7216 C   0  0  0  0  0  0
  -21.8824   -3.8142   23.4336 C   0  0  0  0  0  0
  -21.9194   -4.6957   22.3391 C   0  0  0  0  0  0
  -22.7864  -13.5240   21.1833 C   0  0  0  0  0  0
  -22.1660   -4.2146   21.0970 F   0  0  0  0  0  0
  -21.5630   -3.4528   25.7726 F   0  0  0  0  0  0
  -30.0286  -13.3156   20.4394 N   0  0  0  0  0  0
  -26.3019  -12.9323   20.3341 N   0  0  0  0  0  0
  -25.9319  -11.6493   20.5760 N   0  0  0  0  0  0
  -22.0490  -12.8257   22.0403 N   0  0  0  0  0  0
  -25.4325  -15.1866   20.4069 N   0  0  0  0  0  0
  -31.8324  -14.6654   20.1303 O   0  0  0  0  0  0
  -21.6650   -6.8868   21.4230 O   0  0  0  0  0  0
  -22.3545  -14.5529   20.6646 O   0  0  0  0  0  0
  -24.6187  -31.8654   23.2088 C   0  0  0  0  0  0
  -25.9063  -32.4807   23.8390 C   0  0  1  0  0  0
  -27.2268  -27.3989   20.1141 C   0  0  0  0  0  0
  -25.5913  -33.8608   24.2321 N   0  0  0  0  0  0
  -23.4083  -30.4896   21.5503 C   0  0  2  0  0  0
  -24.8547  -28.9557   20.1106 C   0  0  0  0  0  0
  -22.7432  -29.4634   22.4969 C   0  0  0  0  0  0
  -18.0277  -28.1381   22.8484 C   0  0  0  0  0  0
  -24.1487  -36.7307   23.2638 C   0  0  0  0  0  0
  -25.9398  -30.8218   21.3665 C   0  0  0  0  0  0
  -26.0173  -29.4550   20.7127 C   0  0  0  0  0  0
  -27.2086  -28.6867   20.7070 C   0  0  0  0  0  0
  -26.0508  -26.9348   19.4838 C   0  0  0  0  0  0
  -24.8694  -27.6979   19.4879 C   0  0  0  0  0  0
  -23.6189  -29.8265   20.1631 C   0  0  0  0  0  0
  -25.4108  -36.3104   24.0337 C   0  0  1  0  0  0
  -20.5872  -28.3669   23.1312 C   0  0  2  0  0  0
  -20.6773  -26.9402   22.5421 C   0  0  0  0  0  0
  -19.5755  -26.6382   21.5216 C   0  0  0  0  0  0
  -18.1929  -26.7928   22.1616 C   0  0  0  0  0  0
  -19.1525  -28.8839   23.2897 C   0  0  0  0  0  0
  -18.9451  -30.1443   23.8911 C   0  0  0  0  0  0
  -17.6449  -30.6587   24.0560 C   0  0  0  0  0  0
  -25.9029  -34.9469   23.5122 C   0  0  0  0  0  0
  -16.5340  -29.9085   23.6328 C   0  0  0  0  0  0
  -16.7259  -28.6504   23.0345 C   0  0  0  0  0  0
  -26.4491  -31.6588   25.0719 C   0  0  0  0  0  0
  -25.3765  -31.3688   26.1473 C   0  0  0  0  0  0
  -27.0320  -30.3034   24.6091 C   0  0  0  0  0  0
  -27.6079  -32.4298   25.7474 C   0  0  0  0  0  0
  -27.5576  -37.1811   24.8464 C   0  0  0  0  0  0
  -21.4153  -29.3030   22.3714 N   0  0  0  0  0  0
  -26.4291  -37.3792   23.9403 N   0  0  0  0  0  0
  -24.6744  -31.0727   22.1009 N   0  0  0  0  0  0
  -23.4183  -28.8172   23.3022 O   0  0  0  0  0  0
  -28.3668  -26.6121   20.1369 O   0  0  0  0  0  0
  -26.5594  -34.8930   22.4684 O   0  0  0  0  0  0
  -23.5371  -32.1424   23.7469 O   0  0  0  0  0  0
  -31.1962  -19.2055   22.7290 C   0  0  0  0  0  0
  -31.5847  -16.8406   22.4241 C   0  0  0  0  0  0
  -31.9678  -18.0646   23.0019 C   0  0  0  0  0  0
  -30.0817  -19.0991   21.8753 C   0  0  0  0  0  0
  -30.4412  -16.7774   21.5966 C   0  0  0  0  0  0
  -33.1657  -18.1514   23.9259 C   0  0  0  0  0  0
  -31.2050  -21.5716   20.5629 C   0  0  0  0  0  0
  -29.2208  -20.9262   19.1771 C   0  0  0  0  0  0
  -29.3301  -24.1657   18.7177 C   0  0  0  0  0  0
  -30.6504  -24.7848   20.7792 C   0  0  0  0  0  0
  -29.1967  -20.3386   21.6075 C   0  0  0  0  0  0
  -28.9664  -22.8234   20.9196 C   0  0  0  0  0  0
  -28.1950  -25.2643   20.6570 C   0  0  0  0  0  0
  -29.6674  -21.4373   20.5655 C   0  0  0  0  0  0
  -29.3057  -24.2308   20.2560 C   0  0  0  0  0  0
  -29.7109  -17.9018   21.3399 N   0  0  0  0  0  0
  -29.9933  -15.4948   21.1617 N   0  0  0  0  0  0
  -31.4685  -12.4403   19.1153 H   0  0  0  0  0  0
  -30.3457  -11.3168   19.8238 H   0  0  0  0  0  0
  -29.7441  -11.7740   17.4379 H   0  0  0  0  0  0
  -29.6549  -13.4884   17.7603 H   0  0  0  0  0  0
  -27.8409  -11.3016   18.8288 H   0  0  0  0  0  0
  -27.3640  -12.6142   17.7890 H   0  0  0  0  0  0
  -27.6995  -14.2520   19.5654 H   0  0  0  0  0  0
  -28.6869  -11.9638   21.3372 H   0  0  0  0  0  0
  -28.4542  -13.5981   21.8700 H   0  0  0  0  0  0
  -25.2743   -9.5709   22.4748 H   0  0  0  0  0  0
  -24.0005   -7.4649   22.7458 H   0  0  0  0  0  0
  -21.0827   -8.8762   19.8949 H   0  0  0  0  0  0
  -22.3655  -10.9672   19.6169 H   0  0  0  0  0  0
  -21.2012   -7.6141   23.9709 H   0  0  0  0  0  0
  -21.1484   -6.0505   25.9064 H   0  0  0  0  0  0
  -22.0600   -2.7604   23.2835 H   0  0  0  0  0  0
  -22.4087  -11.9940   22.4857 H   0  0  0  0  0  0
  -21.1093  -13.1277   22.2542 H   0  0  0  0  0  0
  -24.6659  -15.8418   20.5123 H   0  0  0  0  0  0
  -26.2829  -15.6250   20.0765 H   0  0  0  0  0  0
  -26.7123  -32.5512   23.1144 H   0  0  0  0  0  0
  -25.0101  -33.9775   25.0493 H   0  0  0  0  0  0
  -22.6991  -31.3084   21.4123 H   0  0  0  0  0  0
  -23.3753  -35.9633   23.3309 H   0  0  0  0  0  0
  -24.3583  -36.8919   22.2048 H   0  0  0  0  0  0
  -23.7237  -37.6514   23.6651 H   0  0  0  0  0  0
  -26.0549  -31.5880   20.5986 H   0  0  0  0  0  0
  -26.8269  -30.8757   21.9854 H   0  0  0  0  0  0
  -28.1042  -29.0654   21.1797 H   0  0  0  0  0  0
  -26.0381  -25.9795   18.9789 H   0  0  0  0  0  0
  -23.9807  -27.3151   19.0050 H   0  0  0  0  0  0
  -23.7309  -30.6049   19.4070 H   0  0  0  0  0  0
  -22.7421  -29.2501   19.8617 H   0  0  0  0  0  0
  -25.1289  -36.1972   25.0829 H   0  0  0  0  0  0
  -20.9953  -28.3237   24.1437 H   0  0  0  0  0  0
  -20.5694  -26.2266   23.3607 H   0  0  0  0  0  0
  -21.6643  -26.7460   22.1202 H   0  0  0  0  0  0
  -19.6918  -25.6296   21.1241 H   0  0  0  0  0  0
  -19.6711  -27.3198   20.6754 H   0  0  0  0  0  0
  -17.4210  -26.6681   21.4006 H   0  0  0  0  0  0
  -18.0317  -26.0069   22.9006 H   0  0  0  0  0  0
  -19.7924  -30.7255   24.2289 H   0  0  0  0  0  0
  -17.5006  -31.6275   24.5148 H   0  0  0  0  0  0
  -15.5342  -30.2987   23.7656 H   0  0  0  0  0  0
  -15.8658  -28.0829   22.7051 H   0  0  0  0  0  0
  -24.5938  -30.7034   25.7810 H   0  0  0  0  0  0
  -24.8959  -32.2835   26.4951 H   0  0  0  0  0  0
  -25.8131  -30.8839   27.0212 H   0  0  0  0  0  0
  -26.2851  -29.6779   24.1189 H   0  0  0  0  0  0
  -27.4146  -29.7291   25.4535 H   0  0  0  0  0  0
  -27.8665  -30.4363   23.9205 H   0  0  0  0  0  0
  -27.2729  -33.3614   26.2053 H   0  0  0  0  0  0
  -28.3891  -32.6823   25.0287 H   0  0  0  0  0  0
  -28.0740  -31.8408   26.5386 H   0  0  0  0  0  0
  -28.2610  -38.0096   24.7505 H   0  0  0  0  0  0
  -28.1063  -36.2631   24.6301 H   0  0  0  0  0  0
  -27.2296  -37.1468   25.8870 H   0  0  0  0  0  0
  -20.9317  -29.8749   21.6934 H   0  0  0  0  0  0
  -26.0184  -38.2869   24.1424 H   0  0  0  0  0  0
  -31.4570  -20.1585   23.1679 H   0  0  0  0  0  0
  -32.1566  -15.9478   22.6420 H   0  0  0  0  0  0
  -33.7940  -19.0053   23.6718 H   0  0  0  0  0  0
  -33.7819  -17.2531   23.8704 H   0  0  0  0  0  0
  -32.8368  -18.2722   24.9584 H   0  0  0  0  0  0
  -31.7036  -20.6128   20.4239 H   0  0  0  0  0  0
  -31.5689  -22.0020   21.4964 H   0  0  0  0  0  0
  -31.5495  -22.1946   19.7401 H   0  0  0  0  0  0
  -29.5721  -19.9072   19.0054 H   0  0  0  0  0  0
  -29.6148  -21.5192   18.3567 H   0  0  0  0  0  0
  -28.1341  -20.9095   19.0808 H   0  0  0  0  0  0
  -30.1950  -23.6170   18.3486 H   0  0  0  0  0  0
  -29.3896  -25.1616   18.2772 H   0  0  0  0  0  0
  -28.4267  -23.6944   18.3292 H   0  0  0  0  0  0
  -31.5129  -24.2528   20.3872 H   0  0  0  0  0  0
  -30.7038  -24.7395   21.8672 H   0  0  0  0  0  0
  -30.7901  -25.8285   20.4948 H   0  0  0  0  0  0
  -29.0741  -20.8071   22.5841 H   0  0  0  0  0  0
  -28.1907  -19.9973   21.3564 H   0  0  0  0  0  0
  -29.0806  -22.9739   21.9939 H   0  0  0  0  0  0
  -27.8952  -22.6580   20.7951 H   0  0  0  0  0  0
  -28.1546  -25.3427   21.7448 H   0  0  0  0  0  0
  -27.2334  -24.8414   20.3698 H   0  0  0  0  0  0
  -29.0171  -15.3038   21.3116 H   0  0  0  0  0  0
  1 25  1  0  0  0
  1 30  2  0  0  0
  1 87  1  0  0  0
  2  3  1  0  0  0
  2 25  1  0  0  0
  2 88  1  0  0  0
  2 89  1  0  0  0
  3  4  1  0  0  0
  3 90  1  0  0  0
  3 91  1  0  0  0
  4  5  1  0  0  0
  4 92  1  0  0  0
  4 93  1  0  0  0
  5  6  1  0  0  0
  5 26  1  0  0  0
  5 94  1  0  0  0
  6 25  1  0  0  0
  6 95  1  0  0  0
  6 96  1  0  0  0
  7  8  2  0  0  0
  7 26  1  0  0  0
  7 29  1  0  0  0
  8  9  1  0  0  0
  8 22  1  0  0  0
  9 10  1  0  0  0
  9 27  2  0  0  0
 10 11  2  0  0  0
 10 15  1  0  0  0
 11 12  1  0  0  0
 11 97  1  0  0  0
 12 13  2  0  0  0
 12 98  1  0  0  0
 13 14  1  0  0  0
 13 31  1  0  0  0
 14 15  2  0  0  0
 14 99  1  0  0  0
 15100  1  0  0  0
 16 17  2  0  0  0
 16 21  1  0  0  0
 16 31  1  0  0  0
 17 18  1  0  0  0
 17101  1  0  0  0
 18 19  2  0  0  0
 18102  1  0  0  0
 19 20  1  0  0  0
 19 24  1  0  0  0
 20 21  2  0  0  0
 20103  1  0  0  0
 21 23  1  0  0  0
 22 28  1  0  0  0
 22 32  2  0  0  0
 26 27  1  0  0  0
 28104  1  0  0  0
 28105  1  0  0  0
 29106  1  0  0  0
 29107  1  0  0  0
 33 34  1  0  0  0
 33 66  1  0  0  0
 33 70  2  0  0  0
 34 36  1  0  0  0
 34 59  1  0  0  0
 34108  1  0  0  0
 35 44  2  0  0  0
 35 45  1  0  0  0
 35 68  1  0  0  0
 36 56  1  0  0  0
 36109  1  0  0  0
 37 39  1  0  0  0
 37 47  1  0  0  0
 37 66  1  0  0  0
 37110  1  0  0  0
 38 43  2  0  0  0
 38 46  1  0  0  0
 38 47  1  0  0  0
 39 64  1  0  0  0
 39 67  2  0  0  0
 40 52  1  0  0  0
 40 53  2  0  0  0
 40 58  1  0  0  0
 41111  1  0  0  0
 41112  1  0  0  0
 41113  1  0  0  0
 41 48  1  0  0  0
 42 43  1  0  0  0
 42 66  1  0  0  0
 42114  1  0  0  0
 42115  1  0  0  0
 43 44  1  0  0  0
 44116  1  0  0  0
 45 46  2  0  0  0
 45117  1  0  0  0
 46118  1  0  0  0
 47119  1  0  0  0
 47120  1  0  0  0
 48 56  1  0  0  0
 48 65  1  0  0  0
 48121  1  0  0  0
 49 50  1  0  0  0
 49 53  1  0  0  0
 49 64  1  0  0  0
 49122  1  0  0  0
 50 51  1  0  0  0
 50123  1  0  0  0
 50124  1  0  0  0
 51 52  1  0  0  0
 51125  1  0  0  0
 51126  1  0  0  0
 52127  1  0  0  0
 52128  1  0  0  0
 53 54  1  0  0  0
 54 55  2  0  0  0
 54129  1  0  0  0
 55 57  1  0  0  0
 55130  1  0  0  0
 56 69  2  0  0  0
 57 58  2  0  0  0
 57131  1  0  0  0
 58132  1  0  0  0
 59 60  1  0  0  0
 59 61  1  0  0  0
 59 62  1  0  0  0
 60133  1  0  0  0
 60134  1  0  0  0
 60135  1  0  0  0
 61136  1  0  0  0
 61137  1  0  0  0
 61138  1  0  0  0
 62139  1  0  0  0
 62140  1  0  0  0
 62141  1  0  0  0
 63 65  1  0  0  0
 63142  1  0  0  0
 63143  1  0  0  0
 63144  1  0  0  0
 64145  1  0  0  0
 65146  1  0  0  0
 68 83  1  0  0  0
 71 73  2  0  0  0
 71 74  1  0  0  0
 71147  1  0  0  0
 72 73  1  0  0  0
 72 75  2  0  0  0
 72148  1  0  0  0
 73 76  1  0  0  0
 74 81  1  0  0  0
 74 86  2  0  0  0
 75 86  1  0  0  0
 75 87  1  0  0  0
 76149  1  0  0  0
 76150  1  0  0  0
 76151  1  0  0  0
 77152  1  0  0  0
 77153  1  0  0  0
 77154  1  0  0  0
 77 84  1  0  0  0
 78 84  1  0  0  0
 78155  1  0  0  0
 78156  1  0  0  0
 78157  1  0  0  0
 79158  1  0  0  0
 79159  1  0  0  0
 79160  1  0  0  0
 79 85  1  0  0  0
 80 85  1  0  0  0
 80161  1  0  0  0
 80162  1  0  0  0
 80163  1  0  0  0
 81 84  1  0  0  0
 81164  1  0  0  0
 81165  1  0  0  0
 82 84  1  0  0  0
 82 85  1  0  0  0
 82166  1  0  0  0
 82167  1  0  0  0
 83 85  1  0  0  0
 83168  1  0  0  0
 83169  1  0  0  0
 87170  1  0  0  0
M  ISO  4   1 100  68 101  83 101  87 100
M  END
> <chiral flag>
0

> <version>
0

> <s_m_source_file>
/data/baiqing/PycharmProjects/Reinvent-master-3.2/result/LINK_invent/BTK/process_docking_weight1_custom_product_contain_oxygen_bond_distance_aromatic_linkinvent_7_9_3/rearranged_h_0136.sdf

> <i_m_source_file_index>
95

> <r_mmod_Potential_Energy-OPLS-2005>
-49.5468788146973

> <r_mmod_Stretch_Energy-OPLS-2005>
55.5717887878418

> <r_mmod_Bend_Energy-OPLS-2005>
131.54736328125

> <r_mmod_Torsional_Energy-OPLS-2005>
251.590026855469

> <r_mmod_Improper_Torsional_Energy-OPLS-2005>
4.11197185516357

> <r_mmod_Van_der_Waal_Energy-OPLS-2005>
159.423431396484

> <r_mmod_Electrostatic_Energy-OPLS-2005>
-471.024017333984

> <r_mmod_Solvation_Energy-OPLS-2005>
-198.282562255859

> <b_mmod_Minimization_Converged-OPLS-2005>
0

> <r_mmod_RMS_Derivative-OPLS-2005>
2.10822319984436

$$$$
95
                    3D
 Structure written by MMmdl.
160168  0  0  1  0            999 V2000
  -30.7362  -14.4798   20.5705 C   0  0  0  0  0  0
  -30.4098  -12.3126   19.4344 C   0  0  0  0  0  0
  -29.4902  -12.5000   18.2120 C   0  0  0  0  0  0
  -28.0137  -12.3602   18.6258 C   0  0  0  0  0  0
  -27.6573  -13.2154   19.8715 C   0  0  2  0  0  0
  -28.6997  -13.0357   20.9993 C   0  0  0  0  0  0
  -25.2566  -13.8184   20.5692 C   0  0  0  0  0  0
  -24.1827  -13.0446   20.9184 C   0  0  0  0  0  0
  -24.6394  -11.6917   20.8743 C   0  0  0  0  0  0
  -23.9065  -10.4297   21.0405 C   0  0  0  0  0  0
  -24.3617   -9.4212   21.9183 C   0  0  0  0  0  0
  -23.6292   -8.2246   22.0753 C   0  0  0  0  0  0
  -22.4277   -8.0282   21.3542 C   0  0  0  0  0  0
  -21.9912   -9.0257   20.4646 C   0  0  0  0  0  0
  -22.7238  -10.2137   20.3055 C   0  0  0  0  0  0
  -21.6854   -6.0738   22.5279 C   0  0  0  0  0  0
  -21.4014   -6.5642   23.8213 C   0  0  0  0  0  0
  -21.3659   -5.6793   24.9175 C   0  0  0  0  0  0
  -21.6044   -4.3057   24.7224 C   0  0  0  0  0  0
  -21.8819   -3.8149   23.4346 C   0  0  0  0  0  0
  -21.9193   -4.6966   22.3403 C   0  0  0  0  0  0
  -22.7849  -13.5235   21.1847 C   0  0  0  0  0  0
  -22.1661   -4.2153   21.0980 F   0  0  0  0  0  0
  -21.5628   -3.4540   25.7737 F   0  0  0  0  0  0
  -30.0291  -13.3223   20.4387 N   0  0  0  0  0  0
  -26.3007  -12.9371   20.3368 N   0  0  0  0  0  0
  -25.9325  -11.6523   20.5781 N   0  0  0  0  0  0
  -22.0491  -12.8225   22.0404 N   0  0  0  0  0  0
  -25.4280  -15.1902   20.4092 N   0  0  0  0  0  0
  -31.8546  -14.6082   20.0664 O   0  0  0  0  0  0
  -21.6639   -6.8880   21.4241 O   0  0  0  0  0  0
  -22.3534  -14.5539   20.6696 O   0  0  0  0  0  0
  -24.6153  -31.8673   23.2104 C   0  0  0  0  0  0
  -25.9044  -32.4817   23.8399 C   0  0  1  0  0  0
  -27.2228  -27.4237   20.1043 C   0  0  0  0  0  0
  -25.5898  -33.8614   24.2327 N   0  0  0  0  0  0
  -23.4055  -30.4914   21.5497 C   0  0  2  0  0  0
  -24.8539  -28.9643   20.1037 C   0  0  0  0  0  0
  -22.7427  -29.4647   22.4969 C   0  0  0  0  0  0
  -18.0278  -28.1378   22.8483 C   0  0  0  0  0  0
  -24.1492  -36.7313   23.2640 C   0  0  0  0  0  0
  -25.9354  -30.8304   21.3676 C   0  0  0  0  0  0
  -26.0136  -29.4666   20.7101 C   0  0  0  0  0  0
  -27.2054  -28.7020   20.7112 C   0  0  0  0  0  0
  -26.0609  -26.9557   19.4581 C   0  0  0  0  0  0
  -24.8728  -27.7087   19.4725 C   0  0  0  0  0  0
  -23.6148  -29.8293   20.1613 C   0  0  0  0  0  0
  -25.4111  -36.3106   24.0339 C   0  0  1  0  0  0
  -20.5871  -28.3664   23.1309 C   0  0  2  0  0  0
  -20.6771  -26.9398   22.5413 C   0  0  0  0  0  0
  -19.5747  -26.6381   21.5212 C   0  0  0  0  0  0
  -18.1922  -26.7923   22.1619 C   0  0  0  0  0  0
  -19.1528  -28.8836   23.2893 C   0  0  0  0  0  0
  -18.9459  -30.1439   23.8905 C   0  0  0  0  0  0
  -17.6460  -30.6580   24.0560 C   0  0  0  0  0  0
  -25.9037  -34.9470   23.5129 C   0  0  0  0  0  0
  -16.5350  -29.9083   23.6324 C   0  0  0  0  0  0
  -16.7266  -28.6504   23.0339 C   0  0  0  0  0  0
  -26.4473  -31.6589   25.0723 C   0  0  0  0  0  0
  -25.3742  -31.3694   26.1472 C   0  0  0  0  0  0
  -27.0308  -30.3032   24.6097 C   0  0  0  0  0  0
  -27.6049  -32.4306   25.7485 C   0  0  0  0  0  0
  -27.5581  -37.1812   24.8466 C   0  0  0  0  0  0
  -21.4150  -29.3034   22.3718 N   0  0  0  0  0  0
  -26.4297  -37.3788   23.9406 N   0  0  0  0  0  0
  -24.6700  -31.0771   22.1009 N   0  0  0  0  0  0
  -23.4193  -28.8184   23.3014 O   0  0  0  0  0  0
  -28.3229  -26.5897   20.1600 O   0  0  0  0  0  0
  -26.5599  -34.8920   22.4691 O   0  0  0  0  0  0
  -23.5344  -32.1425   23.7494 O   0  0  0  0  0  0
  -32.0081  -17.0519   21.6369 C   0  0  0  0  0  0
  -32.5300  -18.3428   21.8087 C   0  0  0  0  0  0
  -29.7959  -18.0061   21.2924 C   0  0  0  0  0  0
  -30.3059  -19.3253   21.4879 C   0  0  0  0  0  0
  -30.6376  -16.8571   21.3461 C   0  0  0  0  0  0
  -31.6962  -19.4696   21.7309 C   0  0  0  0  0  0
  -29.3872  -20.5055   21.4788 C   0  0  0  0  0  0
  -29.7096  -21.8185   21.3535 C   0  0  0  0  0  0
  -26.9680  -25.3230   21.8948 C   0  0  0  0  0  0
  -29.3050  -26.1675   22.2745 C   0  0  0  0  0  0
  -28.7443  -22.9876   21.5619 C   0  0  0  0  0  0
  -28.9176  -24.2401   20.6420 C   0  0  0  0  0  0
  -28.3466  -25.5851   21.2207 C   0  0  0  0  0  0
  -30.1055  -15.5313   21.1495 N   0  0  0  0  0  0
  -32.2568  -20.6823   21.9494 F   0  0  0  0  0  0
  -31.4562  -12.3846   19.1333 H   0  0  0  0  0  0
  -30.2939  -11.3105   19.8510 H   0  0  0  0  0  0
  -29.7330  -11.7672   17.4412 H   0  0  0  0  0  0
  -29.6589  -13.4823   17.7671 H   0  0  0  0  0  0
  -27.8296  -11.3057   18.8353 H   0  0  0  0  0  0
  -27.3619  -12.6203   17.7910 H   0  0  0  0  0  0
  -27.6911  -14.2578   19.5534 H   0  0  0  0  0  0
  -28.6767  -12.0141   21.3811 H   0  0  0  0  0  0
  -28.4630  -13.6741   21.8513 H   0  0  0  0  0  0
  -25.2762   -9.5689   22.4757 H   0  0  0  0  0  0
  -24.0005   -7.4638   22.7471 H   0  0  0  0  0  0
  -21.0845   -8.8771   19.8950 H   0  0  0  0  0  0
  -22.3694  -10.9674   19.6164 H   0  0  0  0  0  0
  -21.2006   -7.6149   23.9717 H   0  0  0  0  0  0
  -21.1482   -6.0524   25.9077 H   0  0  0  0  0  0
  -22.0598   -2.7612   23.2844 H   0  0  0  0  0  0
  -22.4108  -11.9883   22.4788 H   0  0  0  0  0  0
  -21.1109  -13.1251   22.2610 H   0  0  0  0  0  0
  -24.6606  -15.8454   20.5118 H   0  0  0  0  0  0
  -26.2797  -15.6281   20.0811 H   0  0  0  0  0  0
  -26.7114  -32.5536   23.1163 H   0  0  0  0  0  0
  -25.0050  -33.9777   25.0473 H   0  0  0  0  0  0
  -22.6947  -31.3089   21.4122 H   0  0  0  0  0  0
  -23.3746  -35.9655   23.3316 H   0  0  0  0  0  0
  -24.3585  -36.8916   22.2052 H   0  0  0  0  0  0
  -23.7253  -37.6526   23.6644 H   0  0  0  0  0  0
  -26.0524  -31.5996   20.6029 H   0  0  0  0  0  0
  -26.8214  -30.8803   21.9884 H   0  0  0  0  0  0
  -28.0952  -29.0717   21.2011 H   0  0  0  0  0  0
  -26.0676  -25.9850   18.9824 H   0  0  0  0  0  0
  -23.9841  -27.3182   18.9961 H   0  0  0  0  0  0
  -23.7213  -30.6082   19.4052 H   0  0  0  0  0  0
  -22.7394  -29.2495   19.8634 H   0  0  0  0  0  0
  -25.1288  -36.1976   25.0834 H   0  0  0  0  0  0
  -20.9957  -28.3228   24.1431 H   0  0  0  0  0  0
  -20.5677  -26.2272   23.3602 H   0  0  0  0  0  0
  -21.6642  -26.7445   22.1203 H   0  0  0  0  0  0
  -19.6913  -25.6297   21.1231 H   0  0  0  0  0  0
  -19.6687  -27.3203   20.6751 H   0  0  0  0  0  0
  -17.4195  -26.6669   21.4017 H   0  0  0  0  0  0
  -18.0315  -26.0070   22.9020 H   0  0  0  0  0  0
  -19.7940  -30.7244   24.2282 H   0  0  0  0  0  0
  -17.5024  -31.6264   24.5154 H   0  0  0  0  0  0
  -15.5352  -30.2985   23.7650 H   0  0  0  0  0  0
  -15.8669  -28.0827   22.7045 H   0  0  0  0  0  0
  -24.5914  -30.7045   25.7800 H   0  0  0  0  0  0
  -24.8936  -32.2852   26.4925 H   0  0  0  0  0  0
  -25.8096  -30.8852   27.0222 H   0  0  0  0  0  0
  -26.2852  -29.6792   24.1153 H   0  0  0  0  0  0
  -27.4085  -29.7266   25.4549 H   0  0  0  0  0  0
  -27.8682  -30.4353   23.9243 H   0  0  0  0  0  0
  -27.2667  -33.3595   26.2086 H   0  0  0  0  0  0
  -28.3842  -32.6881   25.0300 H   0  0  0  0  0  0
  -28.0729  -31.8414   26.5379 H   0  0  0  0  0  0
  -28.2604  -38.0104   24.7500 H   0  0  0  0  0  0
  -28.1071  -36.2632   24.6305 H   0  0  0  0  0  0
  -27.2297  -37.1478   25.8869 H   0  0  0  0  0  0
  -20.9304  -29.8771   21.6956 H   0  0  0  0  0  0
  -26.0190  -38.2869   24.1399 H   0  0  0  0  0  0
  -32.6870  -16.2170   21.7332 H   0  0  0  0  0  0
  -33.5810  -18.4726   22.0211 H   0  0  0  0  0  0
  -28.7401  -17.8780   21.1007 H   0  0  0  0  0  0
  -28.3481  -20.2684   21.6587 H   0  0  0  0  0  0
  -30.7267  -22.1147   21.1485 H   0  0  0  0  0  0
  -27.0518  -24.6524   22.7490 H   0  0  0  0  0  0
  -26.2611  -24.8662   21.2017 H   0  0  0  0  0  0
  -26.5154  -26.2322   22.2920 H   0  0  0  0  0  0
  -29.4309  -25.4962   23.1234 H   0  0  0  0  0  0
  -28.9350  -27.1158   22.6650 H   0  0  0  0  0  0
  -30.2933  -26.3530   21.8531 H   0  0  0  0  0  0
  -28.9067  -23.2903   22.5962 H   0  0  0  0  0  0
  -27.7171  -22.6240   21.5125 H   0  0  0  0  0  0
  -28.4345  -24.0285   19.6873 H   0  0  0  0  0  0
  -29.9738  -24.3802   20.4074 H   0  0  0  0  0  0
  -29.1382  -15.3821   21.3949 H   0  0  0  0  0  0
  1 25  1  0  0  0
  1 30  2  0  0  0
  1 84  1  0  0  0
  2  3  1  0  0  0
  2 25  1  0  0  0
  2 86  1  0  0  0
  2 87  1  0  0  0
  3  4  1  0  0  0
  3 88  1  0  0  0
  3 89  1  0  0  0
  4  5  1  0  0  0
  4 90  1  0  0  0
  4 91  1  0  0  0
  5  6  1  0  0  0
  5 26  1  0  0  0
  5 92  1  0  0  0
  6 25  1  0  0  0
  6 93  1  0  0  0
  6 94  1  0  0  0
  7  8  2  0  0  0
  7 26  1  0  0  0
  7 29  1  0  0  0
  8  9  1  0  0  0
  8 22  1  0  0  0
  9 10  1  0  0  0
  9 27  2  0  0  0
 10 11  2  0  0  0
 10 15  1  0  0  0
 11 12  1  0  0  0
 11 95  1  0  0  0
 12 13  2  0  0  0
 12 96  1  0  0  0
 13 14  1  0  0  0
 13 31  1  0  0  0
 14 15  2  0  0  0
 14 97  1  0  0  0
 15 98  1  0  0  0
 16 17  2  0  0  0
 16 21  1  0  0  0
 16 31  1  0  0  0
 17 18  1  0  0  0
 17 99  1  0  0  0
 18 19  2  0  0  0
 18100  1  0  0  0
 19 20  1  0  0  0
 19 24  1  0  0  0
 20 21  2  0  0  0
 20101  1  0  0  0
 21 23  1  0  0  0
 22 28  1  0  0  0
 22 32  2  0  0  0
 26 27  1  0  0  0
 28102  1  0  0  0
 28103  1  0  0  0
 29104  1  0  0  0
 29105  1  0  0  0
 33 34  1  0  0  0
 33 66  1  0  0  0
 33 70  2  0  0  0
 34 36  1  0  0  0
 34 59  1  0  0  0
 34106  1  0  0  0
 35 44  2  0  0  0
 35 45  1  0  0  0
 35 68  1  0  0  0
 36 56  1  0  0  0
 36107  1  0  0  0
 37 39  1  0  0  0
 37 47  1  0  0  0
 37 66  1  0  0  0
 37108  1  0  0  0
 38 43  2  0  0  0
 38 46  1  0  0  0
 38 47  1  0  0  0
 39 64  1  0  0  0
 39 67  2  0  0  0
 40 52  1  0  0  0
 40 53  2  0  0  0
 40 58  1  0  0  0
 41109  1  0  0  0
 41110  1  0  0  0
 41111  1  0  0  0
 41 48  1  0  0  0
 42 43  1  0  0  0
 42 66  1  0  0  0
 42112  1  0  0  0
 42113  1  0  0  0
 43 44  1  0  0  0
 44114  1  0  0  0
 45 46  2  0  0  0
 45115  1  0  0  0
 46116  1  0  0  0
 47117  1  0  0  0
 47118  1  0  0  0
 48 56  1  0  0  0
 48 65  1  0  0  0
 48119  1  0  0  0
 49 50  1  0  0  0
 49 53  1  0  0  0
 49 64  1  0  0  0
 49120  1  0  0  0
 50 51  1  0  0  0
 50121  1  0  0  0
 50122  1  0  0  0
 51 52  1  0  0  0
 51123  1  0  0  0
 51124  1  0  0  0
 52125  1  0  0  0
 52126  1  0  0  0
 53 54  1  0  0  0
 54 55  2  0  0  0
 54127  1  0  0  0
 55 57  1  0  0  0
 55128  1  0  0  0
 56 69  2  0  0  0
 57 58  2  0  0  0
 57129  1  0  0  0
 58130  1  0  0  0
 59 60  1  0  0  0
 59 61  1  0  0  0
 59 62  1  0  0  0
 60131  1  0  0  0
 60132  1  0  0  0
 60133  1  0  0  0
 61134  1  0  0  0
 61135  1  0  0  0
 61136  1  0  0  0
 62137  1  0  0  0
 62138  1  0  0  0
 62139  1  0  0  0
 63 65  1  0  0  0
 63140  1  0  0  0
 63141  1  0  0  0
 63142  1  0  0  0
 64143  1  0  0  0
 65144  1  0  0  0
 68 83  1  0  0  0
 71 72  2  0  0  0
 71 75  1  0  0  0
 71145  1  0  0  0
 72 76  1  0  0  0
 72146  1  0  0  0
 73 74  1  0  0  0
 73 75  2  0  0  0
 73147  1  0  0  0
 74 76  2  0  0  0
 74 77  1  0  0  0
 75 84  1  0  0  0
 76 85  1  0  0  0
 77 78  2  0  0  0
 77148  1  0  0  0
 78 81  1  0  0  0
 78149  1  0  0  0
 79150  1  0  0  0
 79151  1  0  0  0
 79152  1  0  0  0
 79 83  1  0  0  0
 80 83  1  0  0  0
 80153  1  0  0  0
 80154  1  0  0  0
 80155  1  0  0  0
 81 82  1  0  0  0
 81156  1  0  0  0
 81157  1  0  0  0
 82 83  1  0  0  0
 82158  1  0  0  0
 82159  1  0  0  0
 84160  1  0  0  0
M  ISO  4   1 100  68 101  83 101  84 100
M  END
> <chiral flag>
0

> <version>
0

> <s_m_source_file>
/data/baiqing/PycharmProjects/Reinvent-master-3.2/result/LINK_invent/BTK/process_docking_weight1_custom_product_contain_oxygen_bond_distance_aromatic_linkinvent_7_9_3/rearranged_h_0136.sdf

> <i_m_source_file_index>
96

> <r_mmod_Potential_Energy-OPLS-2005>
15.8183641433716

> <r_mmod_Stretch_Energy-OPLS-2005>
47.7808494567871

> <r_mmod_Bend_Energy-OPLS-2005>
104.143089294434

> <r_mmod_Torsional_Energy-OPLS-2005>
251.304321289062

> <r_mmod_Improper_Torsional_Energy-OPLS-2005>
4.32571172714233

> <r_mmod_Van_der_Waal_Energy-OPLS-2005>
166.547256469727

> <r_mmod_Electrostatic_Energy-OPLS-2005>
-383.245880126953

> <r_mmod_Solvation_Energy-OPLS-2005>
-194.039627075195

> <b_mmod_Minimization_Converged-OPLS-2005>
0

> <r_mmod_RMS_Derivative-OPLS-2005>
0.65507984161377

$$$$
