0
                    3D
 Structure written by MMmdl.
164172  0  0  1  0            999 V2000
  -30.7668  -14.3678   20.7091 C   0  0  0  0  0  0
  -30.4235  -12.3026   19.3897 C   0  0  0  0  0  0
  -29.4858  -12.5343   18.1900 C   0  0  0  0  0  0
  -28.0110  -12.3827   18.6082 C   0  0  0  0  0  0
  -27.6682  -13.2007   19.8804 C   0  0  2  0  0  0
  -28.7061  -12.9330   20.9918 C   0  0  0  0  0  0
  -25.2616  -13.8147   20.5672 C   0  0  0  0  0  0
  -24.1854  -13.0433   20.9158 C   0  0  0  0  0  0
  -24.6396  -11.6897   20.8715 C   0  0  0  0  0  0
  -23.9055  -10.4290   21.0395 C   0  0  0  0  0  0
  -24.3607   -9.4208   21.9177 C   0  0  0  0  0  0
  -23.6284   -8.2243   22.0751 C   0  0  0  0  0  0
  -22.4267   -8.0279   21.3542 C   0  0  0  0  0  0
  -21.9899   -9.0250   20.4644 C   0  0  0  0  0  0
  -22.7224  -10.2130   20.3049 C   0  0  0  0  0  0
  -21.6852   -6.0730   22.5275 C   0  0  0  0  0  0
  -21.4013   -6.5635   23.8208 C   0  0  0  0  0  0
  -21.3661   -5.6789   24.9171 C   0  0  0  0  0  0
  -21.6046   -4.3053   24.7223 C   0  0  0  0  0  0
  -21.8820   -3.8142   23.4345 C   0  0  0  0  0  0
  -21.9192   -4.6957   22.3400 C   0  0  0  0  0  0
  -22.7878  -13.5240   21.1830 C   0  0  0  0  0  0
  -22.1662   -4.2143   21.0977 F   0  0  0  0  0  0
  -21.5630   -3.4538   25.7737 F   0  0  0  0  0  0
  -30.0509  -13.2382   20.4610 N   0  0  0  0  0  0
  -26.3056  -12.9307   20.3375 N   0  0  0  0  0  0
  -25.9321  -11.6470   20.5741 N   0  0  0  0  0  0
  -22.0516  -12.8237   22.0392 N   0  0  0  0  0  0
  -25.4363  -15.1862   20.4100 N   0  0  0  0  0  0
  -31.7777  -14.6732   20.0683 O   0  0  0  0  0  0
  -21.6638   -6.8871   21.4237 O   0  0  0  0  0  0
  -22.3568  -14.5551   20.6687 O   0  0  0  0  0  0
  -24.6136  -31.8702   23.2128 C   0  0  0  0  0  0
  -25.9040  -32.4829   23.8407 C   0  0  1  0  0  0
  -27.2345  -27.4485   20.0749 C   0  0  0  0  0  0
  -25.5906  -33.8628   24.2337 N   0  0  0  0  0  0
  -23.3994  -30.4964   21.5538 C   0  0  2  0  0  0
  -24.8423  -28.9681   20.1150 C   0  0  0  0  0  0
  -22.7406  -29.4669   22.4998 C   0  0  0  0  0  0
  -18.0275  -28.1373   22.8492 C   0  0  0  0  0  0
  -24.1489  -36.7322   23.2634 C   0  0  0  0  0  0
  -25.9284  -30.8369   21.3656 C   0  0  0  0  0  0
  -26.0029  -29.4723   20.7140 C   0  0  0  0  0  0
  -27.1966  -28.7160   20.6997 C   0  0  0  0  0  0
  -26.0488  -26.9644   19.4661 C   0  0  0  0  0  0
  -24.8588  -27.7108   19.4936 C   0  0  0  0  0  0
  -23.6058  -29.8343   20.1665 C   0  0  0  0  0  0
  -25.4104  -36.3113   24.0336 C   0  0  1  0  0  0
  -20.5866  -28.3655   23.1319 C   0  0  2  0  0  0
  -20.6765  -26.9392   22.5416 C   0  0  0  0  0  0
  -19.5739  -26.6384   21.5211 C   0  0  0  0  0  0
  -18.1918  -26.7918   22.1625 C   0  0  0  0  0  0
  -19.1527  -28.8829   23.2902 C   0  0  0  0  0  0
  -18.9455  -30.1437   23.8905 C   0  0  0  0  0  0
  -17.6457  -30.6575   24.0566 C   0  0  0  0  0  0
  -25.9029  -34.9478   23.5130 C   0  0  0  0  0  0
  -16.5348  -29.9083   23.6320 C   0  0  0  0  0  0
  -16.7267  -28.6505   23.0335 C   0  0  0  0  0  0
  -26.4471  -31.6599   25.0727 C   0  0  0  0  0  0
  -25.3746  -31.3709   26.1486 C   0  0  0  0  0  0
  -27.0289  -30.3040   24.6082 C   0  0  0  0  0  0
  -27.6040  -32.4321   25.7494 C   0  0  0  0  0  0
  -27.5577  -37.1817   24.8463 C   0  0  0  0  0  0
  -21.4137  -29.3032   22.3738 N   0  0  0  0  0  0
  -26.4293  -37.3793   23.9404 N   0  0  0  0  0  0
  -24.6655  -31.0816   22.1028 N   0  0  0  0  0  0
  -23.4186  -28.8195   23.3019 O   0  0  0  0  0  0
  -28.4219  -26.7382   20.0880 O   0  0  0  0  0  0
  -26.5584  -34.8921   22.4686 O   0  0  0  0  0  0
  -23.5333  -32.1456   23.7524 O   0  0  0  0  0  0
  -30.1392  -16.6577   23.5605 C   0  0  0  0  0  0
  -30.5180  -17.8335   24.2331 C   0  0  0  0  0  0
  -31.7626  -17.1364   21.8083 C   0  0  0  0  0  0
  -32.1492  -18.3178   22.4838 C   0  0  0  0  0  0
  -30.7602  -16.2908   22.3481 C   0  0  0  0  0  0
  -31.5232  -18.6592   23.7018 C   0  0  0  0  0  0
  -31.7389  -22.0530   19.7362 C   0  0  0  0  0  0
  -32.1635  -20.6342   20.2337 C   0  0  0  0  0  0
  -33.0823  -21.6590   22.3143 C   0  0  0  0  0  0
  -33.2516  -19.2020   21.9074 C   0  0  0  0  0  0
  -29.6588  -24.6086   19.8463 C   0  0  0  0  0  0
  -29.7153  -23.3265   18.9883 C   0  0  0  0  0  0
  -28.4414  -25.4589   19.4511 C   0  0  0  0  0  0
  -30.3047  -15.0827   21.7488 N   0  0  0  0  0  0
  -30.4160  -22.2127   19.6195 N   0  0  0  0  0  0
  -32.7908  -20.5187   21.4323 N   0  0  0  0  0  0
  -32.5713  -22.9118   19.4280 O   0  0  0  0  0  0
  -31.8961  -19.6669   19.5103 O   0  0  0  0  0  0
  -31.8865  -19.7773   24.3725 F   0  0  0  0  0  0
  -31.4651  -12.4137   19.0826 H   0  0  0  0  0  0
  -30.3316  -11.2772   19.7505 H   0  0  0  0  0  0
  -29.7204  -11.8326   17.3884 H   0  0  0  0  0  0
  -29.6512  -13.5324   17.7806 H   0  0  0  0  0  0
  -27.8230  -11.3233   18.7875 H   0  0  0  0  0  0
  -27.3547  -12.6725   17.7870 H   0  0  0  0  0  0
  -27.7288  -14.2562   19.6138 H   0  0  0  0  0  0
  -28.6732  -11.8840   21.2899 H   0  0  0  0  0  0
  -28.4403  -13.4884   21.8911 H   0  0  0  0  0  0
  -25.2751   -9.5687   22.4750 H   0  0  0  0  0  0
  -23.9993   -7.4638   22.7474 H   0  0  0  0  0  0
  -21.0827   -8.8763   19.8955 H   0  0  0  0  0  0
  -22.3676  -10.9665   19.6159 H   0  0  0  0  0  0
  -21.2006   -7.6144   23.9706 H   0  0  0  0  0  0
  -21.1485   -6.0523   25.9073 H   0  0  0  0  0  0
  -22.0599   -2.7604   23.2846 H   0  0  0  0  0  0
  -22.4123  -11.9893   22.4775 H   0  0  0  0  0  0
  -21.1138  -13.1271   22.2599 H   0  0  0  0  0  0
  -24.6759  -15.8475   20.5245 H   0  0  0  0  0  0
  -26.3008  -15.6232   20.1144 H   0  0  0  0  0  0
  -26.7111  -32.5547   23.1170 H   0  0  0  0  0  0
  -25.0083  -33.9796   25.0499 H   0  0  0  0  0  0
  -22.6874  -31.3131   21.4186 H   0  0  0  0  0  0
  -23.3735  -35.9670   23.3320 H   0  0  0  0  0  0
  -24.3582  -36.8915   22.2043 H   0  0  0  0  0  0
  -23.7265  -37.6544   23.6636 H   0  0  0  0  0  0
  -26.0395  -31.6028   20.5969 H   0  0  0  0  0  0
  -26.8170  -30.8899   21.9824 H   0  0  0  0  0  0
  -28.0927  -29.1036   21.1648 H   0  0  0  0  0  0
  -26.0045  -26.0178   18.9500 H   0  0  0  0  0  0
  -23.9676  -27.3183   19.0226 H   0  0  0  0  0  0
  -23.7156  -30.6121   19.4097 H   0  0  0  0  0  0
  -22.7287  -29.2565   19.8674 H   0  0  0  0  0  0
  -25.1284  -36.1975   25.0830 H   0  0  0  0  0  0
  -20.9954  -28.3220   24.1442 H   0  0  0  0  0  0
  -20.5672  -26.2263   23.3605 H   0  0  0  0  0  0
  -21.6635  -26.7443   22.1203 H   0  0  0  0  0  0
  -19.6897  -25.6300   21.1226 H   0  0  0  0  0  0
  -19.6668  -27.3206   20.6751 H   0  0  0  0  0  0
  -17.4188  -26.6668   21.4026 H   0  0  0  0  0  0
  -18.0318  -26.0053   22.9014 H   0  0  0  0  0  0
  -19.7934  -30.7250   24.2272 H   0  0  0  0  0  0
  -17.5018  -31.6254   24.5174 H   0  0  0  0  0  0
  -15.5351  -30.2987   23.7636 H   0  0  0  0  0  0
  -15.8670  -28.0836   22.7019 H   0  0  0  0  0  0
  -24.5907  -30.7062   25.7848 H   0  0  0  0  0  0
  -24.8950  -32.2871   26.4943 H   0  0  0  0  0  0
  -25.8109  -30.8886   27.0239 H   0  0  0  0  0  0
  -26.2829  -29.6825   24.1116 H   0  0  0  0  0  0
  -27.4051  -29.7247   25.4525 H   0  0  0  0  0  0
  -27.8670  -30.4367   23.9233 H   0  0  0  0  0  0
  -27.2644  -33.3600   26.2108 H   0  0  0  0  0  0
  -28.3832  -32.6918   25.0319 H   0  0  0  0  0  0
  -28.0725  -31.8429   26.5387 H   0  0  0  0  0  0
  -28.2604  -38.0104   24.7500 H   0  0  0  0  0  0
  -28.1066  -36.2638   24.6306 H   0  0  0  0  0  0
  -27.2299  -37.1492   25.8868 H   0  0  0  0  0  0
  -20.9289  -29.8787   21.6995 H   0  0  0  0  0  0
  -26.0182  -38.2872   24.1399 H   0  0  0  0  0  0
  -29.3665  -16.0376   23.9932 H   0  0  0  0  0  0
  -30.0402  -18.1013   25.1642 H   0  0  0  0  0  0
  -32.2477  -16.9022   20.8732 H   0  0  0  0  0  0
  -33.7833  -22.3469   21.8397 H   0  0  0  0  0  0
  -33.5249  -21.3583   23.2637 H   0  0  0  0  0  0
  -32.1708  -22.2095   22.5535 H   0  0  0  0  0  0
  -33.7530  -18.6772   21.0918 H   0  0  0  0  0  0
  -34.0224  -19.3140   22.6708 H   0  0  0  0  0  0
  -30.5804  -25.1785   19.7222 H   0  0  0  0  0  0
  -29.5859  -24.3571   20.9051 H   0  0  0  0  0  0
  -30.1564  -23.5474   18.0145 H   0  0  0  0  0  0
  -28.7028  -22.9743   18.7840 H   0  0  0  0  0  0
  -27.5702  -24.8701   19.7391 H   0  0  0  0  0  0
  -28.4119  -25.6002   18.3694 H   0  0  0  0  0  0
  -29.5060  -14.6574   22.1931 H   0  0  0  0  0  0
  -29.8610  -21.4070   19.8810 H   0  0  0  0  0  0
  1 25  1  0  0  0
  1 30  2  0  0  0
  1 84  1  0  0  0
  2  3  1  0  0  0
  2 25  1  0  0  0
  2 90  1  0  0  0
  2 91  1  0  0  0
  3  4  1  0  0  0
  3 92  1  0  0  0
  3 93  1  0  0  0
  4  5  1  0  0  0
  4 94  1  0  0  0
  4 95  1  0  0  0
  5  6  1  0  0  0
  5 26  1  0  0  0
  5 96  1  0  0  0
  6 25  1  0  0  0
  6 97  1  0  0  0
  6 98  1  0  0  0
  7  8  2  0  0  0
  7 26  1  0  0  0
  7 29  1  0  0  0
  8  9  1  0  0  0
  8 22  1  0  0  0
  9 10  1  0  0  0
  9 27  2  0  0  0
 10 11  2  0  0  0
 10 15  1  0  0  0
 11 12  1  0  0  0
 11 99  1  0  0  0
 12 13  2  0  0  0
 12100  1  0  0  0
 13 14  1  0  0  0
 13 31  1  0  0  0
 14 15  2  0  0  0
 14101  1  0  0  0
 15102  1  0  0  0
 16 17  2  0  0  0
 16 21  1  0  0  0
 16 31  1  0  0  0
 17 18  1  0  0  0
 17103  1  0  0  0
 18 19  2  0  0  0
 18104  1  0  0  0
 19 20  1  0  0  0
 19 24  1  0  0  0
 20 21  2  0  0  0
 20105  1  0  0  0
 21 23  1  0  0  0
 22 28  1  0  0  0
 22 32  2  0  0  0
 26 27  1  0  0  0
 28106  1  0  0  0
 28107  1  0  0  0
 29108  1  0  0  0
 29109  1  0  0  0
 33 34  1  0  0  0
 33 66  1  0  0  0
 33 70  2  0  0  0
 34 36  1  0  0  0
 34 59  1  0  0  0
 34110  1  0  0  0
 35 44  2  0  0  0
 35 45  1  0  0  0
 35 68  1  0  0  0
 36 56  1  0  0  0
 36111  1  0  0  0
 37 39  1  0  0  0
 37 47  1  0  0  0
 37 66  1  0  0  0
 37112  1  0  0  0
 38 43  2  0  0  0
 38 46  1  0  0  0
 38 47  1  0  0  0
 39 64  1  0  0  0
 39 67  2  0  0  0
 40 52  1  0  0  0
 40 53  2  0  0  0
 40 58  1  0  0  0
 41113  1  0  0  0
 41114  1  0  0  0
 41115  1  0  0  0
 41 48  1  0  0  0
 42 43  1  0  0  0
 42 66  1  0  0  0
 42116  1  0  0  0
 42117  1  0  0  0
 43 44  1  0  0  0
 44118  1  0  0  0
 45 46  2  0  0  0
 45119  1  0  0  0
 46120  1  0  0  0
 47121  1  0  0  0
 47122  1  0  0  0
 48 56  1  0  0  0
 48 65  1  0  0  0
 48123  1  0  0  0
 49 50  1  0  0  0
 49 53  1  0  0  0
 49 64  1  0  0  0
 49124  1  0  0  0
 50 51  1  0  0  0
 50125  1  0  0  0
 50126  1  0  0  0
 51 52  1  0  0  0
 51127  1  0  0  0
 51128  1  0  0  0
 52129  1  0  0  0
 52130  1  0  0  0
 53 54  1  0  0  0
 54 55  2  0  0  0
 54131  1  0  0  0
 55 57  1  0  0  0
 55132  1  0  0  0
 56 69  2  0  0  0
 57 58  2  0  0  0
 57133  1  0  0  0
 58134  1  0  0  0
 59 60  1  0  0  0
 59 61  1  0  0  0
 59 62  1  0  0  0
 60135  1  0  0  0
 60136  1  0  0  0
 60137  1  0  0  0
 61138  1  0  0  0
 61139  1  0  0  0
 61140  1  0  0  0
 62141  1  0  0  0
 62142  1  0  0  0
 62143  1  0  0  0
 63 65  1  0  0  0
 63144  1  0  0  0
 63145  1  0  0  0
 63146  1  0  0  0
 64147  1  0  0  0
 65148  1  0  0  0
 68 83  1  0  0  0
 71 72  2  0  0  0
 71 75  1  0  0  0
 71149  1  0  0  0
 72 76  1  0  0  0
 72150  1  0  0  0
 73 74  1  0  0  0
 73 75  2  0  0  0
 73151  1  0  0  0
 74 76  2  0  0  0
 74 80  1  0  0  0
 75 84  1  0  0  0
 76 89  1  0  0  0
 77 78  1  0  0  0
 77 85  1  0  0  0
 77 87  2  0  0  0
 78 86  1  0  0  0
 78 88  2  0  0  0
 79 86  1  0  0  0
 79152  1  0  0  0
 79153  1  0  0  0
 79154  1  0  0  0
 80 86  1  0  0  0
 80155  1  0  0  0
 80156  1  0  0  0
 81 82  1  0  0  0
 81 83  1  0  0  0
 81157  1  0  0  0
 81158  1  0  0  0
 82 85  1  0  0  0
 82159  1  0  0  0
 82160  1  0  0  0
 83161  1  0  0  0
 83162  1  0  0  0
 84163  1  0  0  0
 85164  1  0  0  0
M  ISO  4   1 100  68 101  83 101  84 100
M  END
> <chiral flag>
0

> <version>
0

> <s_m_source_file>
/data/baiqing/PycharmProjects/Reinvent-master-3.2/result/LINK_invent/BTK/process_docking_weight1_custom_product_contain_oxygen_bond_distance_aromatic_linkinvent_7_9_3/rearranged_h_0053.sdf

> <i_m_source_file_index>
1

> <r_mmod_Potential_Energy-OPLS-2005>
-35.3595123291016

> <r_mmod_Stretch_Energy-OPLS-2005>
37.5903091430664

> <r_mmod_Bend_Energy-OPLS-2005>
111.066276550293

> <r_mmod_Torsional_Energy-OPLS-2005>
217.227951049805

> <r_mmod_Improper_Torsional_Energy-OPLS-2005>
2.29789686203003

> <r_mmod_Van_der_Waal_Energy-OPLS-2005>
169.824340820312

> <r_mmod_Electrostatic_Energy-OPLS-2005>
-329.824127197266

> <r_mmod_Solvation_Energy-OPLS-2005>
-252.002868652344

> <b_mmod_Minimization_Converged-OPLS-2005>
0

> <r_mmod_RMS_Derivative-OPLS-2005>
0.806880235671997

$$$$
1
                    3D
 Structure written by MMmdl.
163171  0  0  1  0            999 V2000
  -30.6837  -14.4498   20.5926 C   0  0  0  0  0  0
  -30.4275  -12.2971   19.4131 C   0  0  0  0  0  0
  -29.4963  -12.5200   18.2028 C   0  0  0  0  0  0
  -28.0161  -12.3762   18.6110 C   0  0  0  0  0  0
  -27.6669  -13.1975   19.8806 C   0  0  2  0  0  0
  -28.7061  -12.9379   20.9959 C   0  0  0  0  0  0
  -25.2629  -13.8130   20.5683 C   0  0  0  0  0  0
  -24.1856  -13.0428   20.9172 C   0  0  0  0  0  0
  -24.6397  -11.6891   20.8722 C   0  0  0  0  0  0
  -23.9059  -10.4288   21.0404 C   0  0  0  0  0  0
  -24.3613   -9.4209   21.9185 C   0  0  0  0  0  0
  -23.6294   -8.2246   22.0756 C   0  0  0  0  0  0
  -22.4276   -8.0277   21.3544 C   0  0  0  0  0  0
  -21.9909   -9.0254   20.4652 C   0  0  0  0  0  0
  -22.7234  -10.2132   20.3064 C   0  0  0  0  0  0
  -21.6849   -6.0734   22.5287 C   0  0  0  0  0  0
  -21.4012   -6.5645   23.8215 C   0  0  0  0  0  0
  -21.3657   -5.6797   24.9176 C   0  0  0  0  0  0
  -21.6052   -4.3062   24.7226 C   0  0  0  0  0  0
  -21.8814   -3.8150   23.4346 C   0  0  0  0  0  0
  -21.9190   -4.6967   22.3400 C   0  0  0  0  0  0
  -22.7888  -13.5244   21.1836 C   0  0  0  0  0  0
  -22.1664   -4.2154   21.0977 F   0  0  0  0  0  0
  -21.5627   -3.4543   25.7735 F   0  0  0  0  0  0
  -30.0434  -13.2568   20.4581 N   0  0  0  0  0  0
  -26.3052  -12.9284   20.3368 N   0  0  0  0  0  0
  -25.9319  -11.6450   20.5739 N   0  0  0  0  0  0
  -22.0530  -12.8235   22.0396 N   0  0  0  0  0  0
  -25.4407  -15.1851   20.4130 N   0  0  0  0  0  0
  -31.7877  -14.6736   20.0874 O   0  0  0  0  0  0
  -21.6640   -6.8881   21.4248 O   0  0  0  0  0  0
  -22.3586  -14.5560   20.6695 O   0  0  0  0  0  0
  -24.6123  -31.8699   23.2082 C   0  0  0  0  0  0
  -25.9003  -32.4840   23.8382 C   0  0  1  0  0  0
  -27.2340  -27.4395   20.0900 C   0  0  0  0  0  0
  -25.5859  -33.8638   24.2333 N   0  0  0  0  0  0
  -23.3992  -30.4867   21.5560 C   0  0  2  0  0  0
  -24.8446  -28.9629   20.1110 C   0  0  0  0  0  0
  -22.7424  -29.4609   22.5059 C   0  0  0  0  0  0
  -18.0290  -28.1348   22.8562 C   0  0  0  0  0  0
  -24.1480  -36.7308   23.2640 C   0  0  0  0  0  0
  -25.9276  -30.8384   21.3579 C   0  0  0  0  0  0
  -26.0053  -29.4729   20.7059 C   0  0  0  0  0  0
  -27.1996  -28.7185   20.6922 C   0  0  0  0  0  0
  -26.0543  -26.9521   19.4764 C   0  0  0  0  0  0
  -24.8646  -27.7023   19.4937 C   0  0  0  0  0  0
  -23.6026  -29.8212   20.1702 C   0  0  0  0  0  0
  -25.4103  -36.3129   24.0345 C   0  0  1  0  0  0
  -20.5871  -28.3606   23.1418 C   0  0  2  0  0  0
  -20.6774  -26.9345   22.5514 C   0  0  0  0  0  0
  -19.5763  -26.6395   21.5294 C   0  0  0  0  0  0
  -18.1954  -26.7888   22.1731 C   0  0  0  0  0  0
  -19.1534  -28.8821   23.2956 C   0  0  0  0  0  0
  -18.9442  -30.1473   23.8874 C   0  0  0  0  0  0
  -17.6427  -30.6598   24.0497 C   0  0  0  0  0  0
  -25.9033  -34.9492   23.5145 C   0  0  0  0  0  0
  -16.5325  -29.9062   23.6311 C   0  0  0  0  0  0
  -16.7276  -28.6455   23.0395 C   0  0  0  0  0  0
  -26.4436  -31.6596   25.0685 C   0  0  0  0  0  0
  -25.3701  -31.3679   26.1422 C   0  0  0  0  0  0
  -27.0249  -30.3060   24.5986 C   0  0  0  0  0  0
  -27.6043  -32.4293   25.7439 C   0  0  0  0  0  0
  -27.5581  -37.1802   24.8474 C   0  0  0  0  0  0
  -21.4154  -29.2949   22.3801 N   0  0  0  0  0  0
  -26.4302  -37.3796   23.9412 N   0  0  0  0  0  0
  -24.6656  -31.0789   22.1001 N   0  0  0  0  0  0
  -23.4210  -28.8190   23.3110 O   0  0  0  0  0  0
  -28.4100  -26.7116   20.1489 O   0  0  0  0  0  0
  -26.5615  -34.8938   22.4720 O   0  0  0  0  0  0
  -23.5313  -32.1477   23.7447 O   0  0  0  0  0  0
  -28.5019  -18.6931   21.4005 C   0  0  0  0  0  0
  -28.8998  -17.4204   21.5548 C   0  0  0  0  0  0
  -31.2213  -17.4396   20.9953 C   0  0  0  0  0  0
  -29.0899  -19.7785   20.8395 C   0  0  0  0  0  0
  -30.3885  -19.9079   20.4296 C   0  0  0  0  0  0
  -30.0542  -16.8017   21.2531 C   0  0  0  0  0  0
  -31.4464  -18.8923   20.7666 C   0  0  0  0  0  0
  -28.1163  -20.8397   20.5354 C   0  0  0  0  0  0
  -30.9057  -21.0874   19.5855 C   0  0  0  0  0  0
  -27.0159  -25.3240   22.3117 C   0  0  0  0  0  0
  -27.4318  -23.1213   21.1872 C   0  0  0  0  0  0
  -28.3601  -25.2712   20.0880 C   0  0  0  0  0  0
  -28.0073  -24.5435   21.4250 C   0  0  1  0  0  0
  -32.6547  -19.2754   20.8156 N   0  0  0  0  0  0
  -29.9315  -15.3945   21.1957 N   0  0  0  0  0  0
  -28.4223  -22.0492   21.0400 N   0  0  0  0  0  0
  -27.0458  -20.6459   19.9522 O   0  0  0  0  0  0
  -31.4737  -12.3985   19.1182 H   0  0  0  0  0  0
  -30.3243  -11.2777   19.7896 H   0  0  0  0  0  0
  -29.7351  -11.8160   17.4053 H   0  0  0  0  0  0
  -29.6642  -13.5145   17.7868 H   0  0  0  0  0  0
  -27.8206  -11.3176   18.7880 H   0  0  0  0  0  0
  -27.3684  -12.6675   17.7842 H   0  0  0  0  0  0
  -27.7214  -14.2510   19.6041 H   0  0  0  0  0  0
  -28.6779  -11.8886   21.2935 H   0  0  0  0  0  0
  -28.4607  -13.4931   21.9020 H   0  0  0  0  0  0
  -25.2761   -9.5675   22.4749 H   0  0  0  0  0  0
  -23.9996   -7.4639   22.7475 H   0  0  0  0  0  0
  -21.0837   -8.8779   19.8962 H   0  0  0  0  0  0
  -22.3703  -10.9669   19.6168 H   0  0  0  0  0  0
  -21.2009   -7.6154   23.9716 H   0  0  0  0  0  0
  -21.1489   -6.0530   25.9075 H   0  0  0  0  0  0
  -22.0594   -2.7616   23.2845 H   0  0  0  0  0  0
  -22.4138  -11.9879   22.4755 H   0  0  0  0  0  0
  -21.1160  -13.1279   22.2614 H   0  0  0  0  0  0
  -24.6834  -15.8468   20.5395 H   0  0  0  0  0  0
  -26.2914  -15.6176   20.0762 H   0  0  0  0  0  0
  -26.7074  -32.5573   23.1147 H   0  0  0  0  0  0
  -24.9949  -33.9822   25.0434 H   0  0  0  0  0  0
  -22.6836  -31.2994   21.4200 H   0  0  0  0  0  0
  -23.3757  -35.9624   23.3335 H   0  0  0  0  0  0
  -24.3573  -36.8896   22.2051 H   0  0  0  0  0  0
  -23.7221  -37.6515   23.6640 H   0  0  0  0  0  0
  -26.0267  -31.6028   20.5858 H   0  0  0  0  0  0
  -26.8225  -30.9010   21.9652 H   0  0  0  0  0  0
  -28.0891  -29.1044   21.1704 H   0  0  0  0  0  0
  -26.0223  -25.9968   18.9775 H   0  0  0  0  0  0
  -23.9725  -27.3028   19.0312 H   0  0  0  0  0  0
  -23.6934  -30.5971   19.4096 H   0  0  0  0  0  0
  -22.7331  -29.2273   19.8850 H   0  0  0  0  0  0
  -25.1278  -36.2003   25.0839 H   0  0  0  0  0  0
  -20.9925  -28.3167   24.1561 H   0  0  0  0  0  0
  -20.5670  -26.2191   23.3679 H   0  0  0  0  0  0
  -21.6657  -26.7410   22.1314 H   0  0  0  0  0  0
  -19.6936  -25.6337   21.1250 H   0  0  0  0  0  0
  -19.6714  -27.3291   20.6903 H   0  0  0  0  0  0
  -17.4191  -26.6578   21.4179 H   0  0  0  0  0  0
  -18.0415  -26.0066   22.9186 H   0  0  0  0  0  0
  -19.7909  -30.7354   24.2170 H   0  0  0  0  0  0
  -17.4964  -31.6331   24.4986 H   0  0  0  0  0  0
  -15.5309  -30.2945   23.7623 H   0  0  0  0  0  0
  -15.8694  -28.0749   22.7126 H   0  0  0  0  0  0
  -24.5886  -30.7016   25.7738 H   0  0  0  0  0  0
  -24.8845  -32.2815   26.4870 H   0  0  0  0  0  0
  -25.8030  -30.8844   27.0182 H   0  0  0  0  0  0
  -26.2762  -29.6849   24.1042 H   0  0  0  0  0  0
  -27.4089  -29.7246   25.4378 H   0  0  0  0  0  0
  -27.8564  -30.4448   23.9067 H   0  0  0  0  0  0
  -27.2704  -33.3604   26.2029 H   0  0  0  0  0  0
  -28.3819  -32.6828   25.0221 H   0  0  0  0  0  0
  -28.0722  -31.8385   26.5322 H   0  0  0  0  0  0
  -28.2617  -38.0080   24.7510 H   0  0  0  0  0  0
  -28.1063  -36.2619   24.6325 H   0  0  0  0  0  0
  -27.2301  -37.1473   25.8876 H   0  0  0  0  0  0
  -20.9284  -29.8571   21.6972 H   0  0  0  0  0  0
  -26.0209  -38.2881   24.1402 H   0  0  0  0  0  0
  -27.4911  -18.8509   21.7587 H   0  0  0  0  0  0
  -28.1306  -16.7823   21.9713 H   0  0  0  0  0  0
  -32.1195  -16.8516   21.1075 H   0  0  0  0  0  0
  -30.1510  -21.4730   18.8991 H   0  0  0  0  0  0
  -31.7476  -20.8008   18.9532 H   0  0  0  0  0  0
  -31.2342  -21.9029   20.2300 H   0  0  0  0  0  0
  -26.8244  -24.7975   23.2463 H   0  0  0  0  0  0
  -26.0562  -25.4642   21.8154 H   0  0  0  0  0  0
  -27.4086  -26.3034   22.5838 H   0  0  0  0  0  0
  -26.7520  -23.1450   20.3324 H   0  0  0  0  0  0
  -26.8111  -22.8294   22.0362 H   0  0  0  0  0  0
  -29.3588  -24.9425   19.8020 H   0  0  0  0  0  0
  -27.7454  -24.9224   19.2621 H   0  0  0  0  0  0
  -28.9228  -24.4574   22.0148 H   0  0  0  0  0  0
  -33.2861  -18.5116   21.0257 H   0  0  0  0  0  0
  -29.0559  -15.0334   21.5436 H   0  0  0  0  0  0
  -29.3024  -22.1384   21.5270 H   0  0  0  0  0  0
  1 25  1  0  0  0
  1 30  2  0  0  0
  1 85  1  0  0  0
  2  3  1  0  0  0
  2 25  1  0  0  0
  2 88  1  0  0  0
  2 89  1  0  0  0
  3  4  1  0  0  0
  3 90  1  0  0  0
  3 91  1  0  0  0
  4  5  1  0  0  0
  4 92  1  0  0  0
  4 93  1  0  0  0
  5  6  1  0  0  0
  5 26  1  0  0  0
  5 94  1  0  0  0
  6 25  1  0  0  0
  6 95  1  0  0  0
  6 96  1  0  0  0
  7  8  2  0  0  0
  7 26  1  0  0  0
  7 29  1  0  0  0
  8  9  1  0  0  0
  8 22  1  0  0  0
  9 10  1  0  0  0
  9 27  2  0  0  0
 10 11  2  0  0  0
 10 15  1  0  0  0
 11 12  1  0  0  0
 11 97  1  0  0  0
 12 13  2  0  0  0
 12 98  1  0  0  0
 13 14  1  0  0  0
 13 31  1  0  0  0
 14 15  2  0  0  0
 14 99  1  0  0  0
 15100  1  0  0  0
 16 17  2  0  0  0
 16 21  1  0  0  0
 16 31  1  0  0  0
 17 18  1  0  0  0
 17101  1  0  0  0
 18 19  2  0  0  0
 18102  1  0  0  0
 19 20  1  0  0  0
 19 24  1  0  0  0
 20 21  2  0  0  0
 20103  1  0  0  0
 21 23  1  0  0  0
 22 28  1  0  0  0
 22 32  2  0  0  0
 26 27  1  0  0  0
 28104  1  0  0  0
 28105  1  0  0  0
 29106  1  0  0  0
 29107  1  0  0  0
 33 34  1  0  0  0
 33 66  1  0  0  0
 33 70  2  0  0  0
 34 36  1  0  0  0
 34 59  1  0  0  0
 34108  1  0  0  0
 35 44  2  0  0  0
 35 45  1  0  0  0
 35 68  1  0  0  0
 36 56  1  0  0  0
 36109  1  0  0  0
 37 39  1  0  0  0
 37 47  1  0  0  0
 37 66  1  0  0  0
 37110  1  0  0  0
 38 43  2  0  0  0
 38 46  1  0  0  0
 38 47  1  0  0  0
 39 64  1  0  0  0
 39 67  2  0  0  0
 40 52  1  0  0  0
 40 53  2  0  0  0
 40 58  1  0  0  0
 41111  1  0  0  0
 41112  1  0  0  0
 41113  1  0  0  0
 41 48  1  0  0  0
 42 43  1  0  0  0
 42 66  1  0  0  0
 42114  1  0  0  0
 42115  1  0  0  0
 43 44  1  0  0  0
 44116  1  0  0  0
 45 46  2  0  0  0
 45117  1  0  0  0
 46118  1  0  0  0
 47119  1  0  0  0
 47120  1  0  0  0
 48 56  1  0  0  0
 48 65  1  0  0  0
 48121  1  0  0  0
 49 50  1  0  0  0
 49 53  1  0  0  0
 49 64  1  0  0  0
 49122  1  0  0  0
 50 51  1  0  0  0
 50123  1  0  0  0
 50124  1  0  0  0
 51 52  1  0  0  0
 51125  1  0  0  0
 51126  1  0  0  0
 52127  1  0  0  0
 52128  1  0  0  0
 53 54  1  0  0  0
 54 55  2  0  0  0
 54129  1  0  0  0
 55 57  1  0  0  0
 55130  1  0  0  0
 56 69  2  0  0  0
 57 58  2  0  0  0
 57131  1  0  0  0
 58132  1  0  0  0
 59 60  1  0  0  0
 59 61  1  0  0  0
 59 62  1  0  0  0
 60133  1  0  0  0
 60134  1  0  0  0
 60135  1  0  0  0
 61136  1  0  0  0
 61137  1  0  0  0
 61138  1  0  0  0
 62139  1  0  0  0
 62140  1  0  0  0
 62141  1  0  0  0
 63 65  1  0  0  0
 63142  1  0  0  0
 63143  1  0  0  0
 63144  1  0  0  0
 64145  1  0  0  0
 65146  1  0  0  0
 68 82  1  0  0  0
 71 72  2  0  0  0
 71 74  1  0  0  0
 71147  1  0  0  0
 72 76  1  0  0  0
 72148  1  0  0  0
 73 76  2  0  0  0
 73 77  1  0  0  0
 73149  1  0  0  0
 74 75  2  0  0  0
 74 78  1  0  0  0
 75 77  1  0  0  0
 75 79  1  0  0  0
 76 85  1  0  0  0
 77 84  2  0  0  0
 78 86  1  0  0  0
 78 87  2  0  0  0
 79150  1  0  0  0
 79151  1  0  0  0
 79152  1  0  0  0
 80153  1  0  0  0
 80154  1  0  0  0
 80155  1  0  0  0
 80 83  1  0  0  0
 81 83  1  0  0  0
 81 86  1  0  0  0
 81156  1  0  0  0
 81157  1  0  0  0
 82 83  1  0  0  0
 82158  1  0  0  0
 82159  1  0  0  0
 83160  1  0  0  0
 84161  1  0  0  0
 85162  1  0  0  0
 86163  1  0  0  0
M  ISO  4   1 100  68 101  82 101  85 100
M  END
> <chiral flag>
0

> <version>
0

> <s_m_source_file>
/data/baiqing/PycharmProjects/Reinvent-master-3.2/result/LINK_invent/BTK/process_docking_weight1_custom_product_contain_oxygen_bond_distance_aromatic_linkinvent_7_9_3/rearranged_h_0053.sdf

> <i_m_source_file_index>
2

> <r_mmod_Potential_Energy-OPLS-2005>
-42.0947723388672

> <r_mmod_Stretch_Energy-OPLS-2005>
44.6936416625977

> <r_mmod_Bend_Energy-OPLS-2005>
137.500381469727

> <r_mmod_Torsional_Energy-OPLS-2005>
216.692230224609

> <r_mmod_Improper_Torsional_Energy-OPLS-2005>
5.55941438674927

> <r_mmod_Van_der_Waal_Energy-OPLS-2005>
182.7919921875

> <r_mmod_Electrostatic_Energy-OPLS-2005>
-413.232818603516

> <r_mmod_Solvation_Energy-OPLS-2005>
-227.912307739258

> <b_mmod_Minimization_Converged-OPLS-2005>
0

> <r_mmod_RMS_Derivative-OPLS-2005>
3.02144765853882

$$$$
2
                    3D
 Structure written by MMmdl.
161169  0  0  1  0            999 V2000
  -30.6828  -14.4469   20.5945 C   0  0  0  0  0  0
  -30.4287  -12.2946   19.4167 C   0  0  0  0  0  0
  -29.5002  -12.5131   18.2041 C   0  0  0  0  0  0
  -28.0155  -12.3871   18.6033 C   0  0  0  0  0  0
  -27.6676  -13.2011   19.8772 C   0  0  2  0  0  0
  -28.7043  -12.9358   20.9933 C   0  0  0  0  0  0
  -25.2594  -13.8161   20.5654 C   0  0  0  0  0  0
  -24.1820  -13.0448   20.9118 C   0  0  0  0  0  0
  -24.6360  -11.6905   20.8659 C   0  0  0  0  0  0
  -23.9016  -10.4294   21.0350 C   0  0  0  0  0  0
  -24.3565   -9.4226   21.9142 C   0  0  0  0  0  0
  -23.6249   -8.2262   22.0745 C   0  0  0  0  0  0
  -22.4233   -8.0282   21.3543 C   0  0  0  0  0  0
  -21.9847   -9.0241   20.4646 C   0  0  0  0  0  0
  -22.7167  -10.2124   20.3032 C   0  0  0  0  0  0
  -21.6865   -6.0713   22.5252 C   0  0  0  0  0  0
  -21.4029   -6.5613   23.8187 C   0  0  0  0  0  0
  -21.3656   -5.6762   24.9147 C   0  0  0  0  0  0
  -21.6050   -4.3022   24.7206 C   0  0  0  0  0  0
  -21.8826   -3.8124   23.4322 C   0  0  0  0  0  0
  -21.9195   -4.6938   22.3382 C   0  0  0  0  0  0
  -22.7858  -13.5273   21.1796 C   0  0  0  0  0  0
  -22.1665   -4.2128   21.0958 F   0  0  0  0  0  0
  -21.5628   -3.4507   25.7718 F   0  0  0  0  0  0
  -30.0441  -13.2515   20.4640 N   0  0  0  0  0  0
  -26.3029  -12.9318   20.3321 N   0  0  0  0  0  0
  -25.9285  -11.6482   20.5671 N   0  0  0  0  0  0
  -22.0491  -12.8305   22.0373 N   0  0  0  0  0  0
  -25.4357  -15.1884   20.4157 N   0  0  0  0  0  0
  -31.7690  -14.6937   20.0626 O   0  0  0  0  0  0
  -21.6642   -6.8852   21.4217 O   0  0  0  0  0  0
  -22.3552  -14.5561   20.6622 O   0  0  0  0  0  0
  -24.6130  -31.8692   23.2131 C   0  0  0  0  0  0
  -25.9028  -32.4841   23.8418 C   0  0  1  0  0  0
  -27.2420  -27.4407   20.0776 C   0  0  0  0  0  0
  -25.5891  -33.8644   24.2335 N   0  0  0  0  0  0
  -23.4015  -30.4935   21.5530 C   0  0  2  0  0  0
  -24.8477  -28.9608   20.1144 C   0  0  0  0  0  0
  -22.7394  -29.4656   22.4990 C   0  0  0  0  0  0
  -18.0271  -28.1378   22.8482 C   0  0  0  0  0  0
  -24.1477  -36.7319   23.2633 C   0  0  0  0  0  0
  -25.9314  -30.8337   21.3689 C   0  0  0  0  0  0
  -26.0073  -29.4702   20.7092 C   0  0  0  0  0  0
  -27.2005  -28.7129   20.6949 C   0  0  0  0  0  0
  -26.0527  -26.9346   19.5016 C   0  0  0  0  0  0
  -24.8636  -27.6893   19.5159 C   0  0  0  0  0  0
  -23.6117  -29.8315   20.1650 C   0  0  0  0  0  0
  -25.4098  -36.3118   24.0333 C   0  0  1  0  0  0
  -20.5858  -28.3653   23.1320 C   0  0  2  0  0  0
  -20.6761  -26.9385   22.5437 C   0  0  0  0  0  0
  -19.5753  -26.6374   21.5216 C   0  0  0  0  0  0
  -18.1920  -26.7933   22.1599 C   0  0  0  0  0  0
  -19.1523  -28.8826   23.2907 C   0  0  0  0  0  0
  -18.9452  -30.1430   23.8921 C   0  0  0  0  0  0
  -17.6458  -30.6577   24.0567 C   0  0  0  0  0  0
  -25.9028  -34.9488   23.5126 C   0  0  0  0  0  0
  -16.5350  -29.9082   23.6324 C   0  0  0  0  0  0
  -16.7264  -28.6508   23.0332 C   0  0  0  0  0  0
  -26.4451  -31.6647   25.0764 C   0  0  0  0  0  0
  -25.3726  -31.3810   26.1537 C   0  0  0  0  0  0
  -27.0278  -30.3072   24.6189 C   0  0  0  0  0  0
  -27.6031  -32.4381   25.7503 C   0  0  0  0  0  0
  -27.5583  -37.1798   24.8438 C   0  0  0  0  0  0
  -21.4123  -29.3024   22.3721 N   0  0  0  0  0  0
  -26.4274  -37.3809   23.9417 N   0  0  0  0  0  0
  -24.6666  -31.0785   22.1036 N   0  0  0  0  0  0
  -23.4165  -28.8201   23.3040 O   0  0  0  0  0  0
  -28.4331  -26.7395   20.1131 O   0  0  0  0  0  0
  -26.5596  -34.8929   22.4691 O   0  0  0  0  0  0
  -23.5325  -32.1456   23.7524 O   0  0  0  0  0  0
  -28.6114  -18.8028   21.6108 C   0  0  0  0  0  0
  -29.0085  -17.4878   21.9193 C   0  0  0  0  0  0
  -30.1147  -17.3284   19.7678 C   0  0  0  0  0  0
  -29.6977  -18.6435   19.4347 C   0  0  0  0  0  0
  -28.9233  -19.3876   20.3647 C   0  0  0  0  0  0
  -29.7554  -16.7276   20.9972 C   0  0  0  0  0  0
  -30.1009  -18.4284   16.9787 C   0  0  0  0  0  0
  -29.9704  -19.1741   18.0884 C   0  0  0  0  0  0
  -28.5392  -23.1849   19.8501 C   0  0  0  0  0  0
  -30.5518  -21.8681   20.4769 C   0  0  0  0  0  0
  -28.3059  -20.7570   20.0264 C   0  0  0  0  0  0
  -29.3912  -24.4740   19.8169 C   0  0  0  0  0  0
  -28.7325  -25.7154   19.1500 C   0  0  0  0  0  0
  -30.0163  -15.3606   21.3231 N   0  0  0  0  0  0
  -29.1290  -21.9858   20.1227 N   0  0  0  0  0  0
  -27.3312  -23.2688   19.6105 O   0  0  0  0  0  0
  -31.4736  -12.3996   19.1227 H   0  0  0  0  0  0
  -30.3338  -11.2765   19.7983 H   0  0  0  0  0  0
  -29.7357  -11.7940   17.4186 H   0  0  0  0  0  0
  -29.6800  -13.5016   17.7763 H   0  0  0  0  0  0
  -27.8002  -11.3292   18.7664 H   0  0  0  0  0  0
  -27.3838  -12.7008   17.7729 H   0  0  0  0  0  0
  -27.7266  -14.2562   19.6044 H   0  0  0  0  0  0
  -28.6725  -11.8838   21.2835 H   0  0  0  0  0  0
  -28.4505  -13.4872   21.8981 H   0  0  0  0  0  0
  -25.2710   -9.5708   22.4703 H   0  0  0  0  0  0
  -23.9964   -7.4657   22.7466 H   0  0  0  0  0  0
  -21.0774   -8.8727   19.8960 H   0  0  0  0  0  0
  -22.3587  -10.9637   19.6135 H   0  0  0  0  0  0
  -21.2028   -7.6119   23.9680 H   0  0  0  0  0  0
  -21.1483   -6.0498   25.9043 H   0  0  0  0  0  0
  -22.0608   -2.7586   23.2847 H   0  0  0  0  0  0
  -22.4108  -11.9987   22.4817 H   0  0  0  0  0  0
  -21.1116  -13.1373   22.2541 H   0  0  0  0  0  0
  -24.6788  -15.8506   20.5428 H   0  0  0  0  0  0
  -26.3059  -15.6229   20.1333 H   0  0  0  0  0  0
  -26.7104  -32.5545   23.1189 H   0  0  0  0  0  0
  -25.0055  -33.9825   25.0485 H   0  0  0  0  0  0
  -22.6912  -31.3119   21.4166 H   0  0  0  0  0  0
  -23.3747  -35.9642   23.3287 H   0  0  0  0  0  0
  -24.3570  -36.8956   22.2052 H   0  0  0  0  0  0
  -23.7218  -37.6510   23.6664 H   0  0  0  0  0  0
  -26.0509  -31.6107   20.6125 H   0  0  0  0  0  0
  -26.8149  -30.8784   21.9947 H   0  0  0  0  0  0
  -28.0963  -29.1029   21.1583 H   0  0  0  0  0  0
  -26.0064  -25.9497   19.0646 H   0  0  0  0  0  0
  -23.9647  -27.2814   19.0749 H   0  0  0  0  0  0
  -23.7298  -30.6145   19.4148 H   0  0  0  0  0  0
  -22.7331  -29.2615   19.8566 H   0  0  0  0  0  0
  -25.1268  -36.1977   25.0821 H   0  0  0  0  0  0
  -20.9949  -28.3233   24.1441 H   0  0  0  0  0  0
  -20.5628  -26.2263   23.3625 H   0  0  0  0  0  0
  -21.6645  -26.7415   22.1265 H   0  0  0  0  0  0
  -19.6914  -25.6286   21.1244 H   0  0  0  0  0  0
  -19.6706  -27.3186   20.6752 H   0  0  0  0  0  0
  -17.4197  -26.6685   21.3993 H   0  0  0  0  0  0
  -18.0297  -26.0066   22.8977 H   0  0  0  0  0  0
  -19.7922  -30.7239   24.2307 H   0  0  0  0  0  0
  -17.5013  -31.6253   24.5167 H   0  0  0  0  0  0
  -15.5354  -30.2989   23.7645 H   0  0  0  0  0  0
  -15.8658  -28.0842   22.7025 H   0  0  0  0  0  0
  -24.5834  -30.7214   25.7906 H   0  0  0  0  0  0
  -24.9002  -32.3013   26.4997 H   0  0  0  0  0  0
  -25.8085  -30.8967   27.0289 H   0  0  0  0  0  0
  -26.2849  -29.6858   24.1179 H   0  0  0  0  0  0
  -27.3940  -29.7294   25.4688 H   0  0  0  0  0  0
  -27.8730  -30.4359   23.9425 H   0  0  0  0  0  0
  -27.2627  -33.3644   26.2143 H   0  0  0  0  0  0
  -28.3789  -32.7020   25.0304 H   0  0  0  0  0  0
  -28.0762  -31.8496   26.5375 H   0  0  0  0  0  0
  -28.2575  -38.0120   24.7540 H   0  0  0  0  0  0
  -28.1101  -36.2666   24.6169 H   0  0  0  0  0  0
  -27.2324  -37.1344   25.8842 H   0  0  0  0  0  0
  -20.9254  -29.8767   21.6979 H   0  0  0  0  0  0
  -26.0162  -38.2871   24.1481 H   0  0  0  0  0  0
  -28.0111  -19.3467   22.3271 H   0  0  0  0  0  0
  -28.7007  -17.0589   22.8613 H   0  0  0  0  0  0
  -30.6870  -16.7667   19.0459 H   0  0  0  0  0  0
  -30.3205  -18.8920   16.0277 H   0  0  0  0  0  0
  -29.9837  -17.3549   16.9858 H   0  0  0  0  0  0
  -30.0935  -20.2441   18.0003 H   0  0  0  0  0  0
  -30.8740  -22.6823   21.1260 H   0  0  0  0  0  0
  -31.1666  -21.8896   19.5768 H   0  0  0  0  0  0
  -30.7934  -20.9549   21.0190 H   0  0  0  0  0  0
  -27.4377  -20.8880   20.6756 H   0  0  0  0  0  0
  -27.8925  -20.7032   19.0181 H   0  0  0  0  0  0
  -30.3082  -24.2523   19.2703 H   0  0  0  0  0  0
  -29.6892  -24.7180   20.8361 H   0  0  0  0  0  0
  -27.9129  -25.4350   18.4934 H   0  0  0  0  0  0
  -29.4619  -26.1567   18.4700 H   0  0  0  0  0  0
  -29.3499  -14.9529   21.9595 H   0  0  0  0  0  0
  1 25  1  0  0  0
  1 30  2  0  0  0
  1 84  1  0  0  0
  2  3  1  0  0  0
  2 25  1  0  0  0
  2 87  1  0  0  0
  2 88  1  0  0  0
  3  4  1  0  0  0
  3 89  1  0  0  0
  3 90  1  0  0  0
  4  5  1  0  0  0
  4 91  1  0  0  0
  4 92  1  0  0  0
  5  6  1  0  0  0
  5 26  1  0  0  0
  5 93  1  0  0  0
  6 25  1  0  0  0
  6 94  1  0  0  0
  6 95  1  0  0  0
  7  8  2  0  0  0
  7 26  1  0  0  0
  7 29  1  0  0  0
  8  9  1  0  0  0
  8 22  1  0  0  0
  9 10  1  0  0  0
  9 27  2  0  0  0
 10 11  2  0  0  0
 10 15  1  0  0  0
 11 12  1  0  0  0
 11 96  1  0  0  0
 12 13  2  0  0  0
 12 97  1  0  0  0
 13 14  1  0  0  0
 13 31  1  0  0  0
 14 15  2  0  0  0
 14 98  1  0  0  0
 15 99  1  0  0  0
 16 17  2  0  0  0
 16 21  1  0  0  0
 16 31  1  0  0  0
 17 18  1  0  0  0
 17100  1  0  0  0
 18 19  2  0  0  0
 18101  1  0  0  0
 19 20  1  0  0  0
 19 24  1  0  0  0
 20 21  2  0  0  0
 20102  1  0  0  0
 21 23  1  0  0  0
 22 28  1  0  0  0
 22 32  2  0  0  0
 26 27  1  0  0  0
 28103  1  0  0  0
 28104  1  0  0  0
 29105  1  0  0  0
 29106  1  0  0  0
 33 34  1  0  0  0
 33 66  1  0  0  0
 33 70  2  0  0  0
 34 36  1  0  0  0
 34 59  1  0  0  0
 34107  1  0  0  0
 35 44  2  0  0  0
 35 45  1  0  0  0
 35 68  1  0  0  0
 36 56  1  0  0  0
 36108  1  0  0  0
 37 39  1  0  0  0
 37 47  1  0  0  0
 37 66  1  0  0  0
 37109  1  0  0  0
 38 43  2  0  0  0
 38 46  1  0  0  0
 38 47  1  0  0  0
 39 64  1  0  0  0
 39 67  2  0  0  0
 40 52  1  0  0  0
 40 53  2  0  0  0
 40 58  1  0  0  0
 41110  1  0  0  0
 41111  1  0  0  0
 41112  1  0  0  0
 41 48  1  0  0  0
 42 43  1  0  0  0
 42 66  1  0  0  0
 42113  1  0  0  0
 42114  1  0  0  0
 43 44  1  0  0  0
 44115  1  0  0  0
 45 46  2  0  0  0
 45116  1  0  0  0
 46117  1  0  0  0
 47118  1  0  0  0
 47119  1  0  0  0
 48 56  1  0  0  0
 48 65  1  0  0  0
 48120  1  0  0  0
 49 50  1  0  0  0
 49 53  1  0  0  0
 49 64  1  0  0  0
 49121  1  0  0  0
 50 51  1  0  0  0
 50122  1  0  0  0
 50123  1  0  0  0
 51 52  1  0  0  0
 51124  1  0  0  0
 51125  1  0  0  0
 52126  1  0  0  0
 52127  1  0  0  0
 53 54  1  0  0  0
 54 55  2  0  0  0
 54128  1  0  0  0
 55 57  1  0  0  0
 55129  1  0  0  0
 56 69  2  0  0  0
 57 58  2  0  0  0
 57130  1  0  0  0
 58131  1  0  0  0
 59 60  1  0  0  0
 59 61  1  0  0  0
 59 62  1  0  0  0
 60132  1  0  0  0
 60133  1  0  0  0
 60134  1  0  0  0
 61135  1  0  0  0
 61136  1  0  0  0
 61137  1  0  0  0
 62138  1  0  0  0
 62139  1  0  0  0
 62140  1  0  0  0
 63 65  1  0  0  0
 63141  1  0  0  0
 63142  1  0  0  0
 63143  1  0  0  0
 64144  1  0  0  0
 65145  1  0  0  0
 68 83  1  0  0  0
 71 72  2  0  0  0
 71 75  1  0  0  0
 71146  1  0  0  0
 72 76  1  0  0  0
 72147  1  0  0  0
 73 74  1  0  0  0
 73 76  2  0  0  0
 73148  1  0  0  0
 74 75  2  0  0  0
 74 78  1  0  0  0
 75 81  1  0  0  0
 76 84  1  0  0  0
 77 78  2  0  0  0
 77149  1  0  0  0
 77150  1  0  0  0
 78151  1  0  0  0
 79 82  1  0  0  0
 79 85  1  0  0  0
 79 86  2  0  0  0
 80 85  1  0  0  0
 80152  1  0  0  0
 80153  1  0  0  0
 80154  1  0  0  0
 81 85  1  0  0  0
 81155  1  0  0  0
 81156  1  0  0  0
 82 83  1  0  0  0
 82157  1  0  0  0
 82158  1  0  0  0
 83159  1  0  0  0
 83160  1  0  0  0
 84161  1  0  0  0
M  ISO  4   1 100  68 101  83 101  84 100
M  END
> <chiral flag>
0

> <version>
0

> <s_m_source_file>
/data/baiqing/PycharmProjects/Reinvent-master-3.2/result/LINK_invent/BTK/process_docking_weight1_custom_product_contain_oxygen_bond_distance_aromatic_linkinvent_7_9_3/rearranged_h_0053.sdf

> <i_m_source_file_index>
3

> <r_mmod_Potential_Energy-OPLS-2005>
-26.5428352355957

> <r_mmod_Stretch_Energy-OPLS-2005>
41.8045082092285

> <r_mmod_Bend_Energy-OPLS-2005>
116.495475769043

> <r_mmod_Torsional_Energy-OPLS-2005>
251.309616088867

> <r_mmod_Improper_Torsional_Energy-OPLS-2005>
4.75155115127563

> <r_mmod_Van_der_Waal_Energy-OPLS-2005>
169.728958129883

> <r_mmod_Electrostatic_Energy-OPLS-2005>
-396.965759277344

> <r_mmod_Solvation_Energy-OPLS-2005>
-225.050323486328

> <b_mmod_Minimization_Converged-OPLS-2005>
0

> <r_mmod_RMS_Derivative-OPLS-2005>
3.54604339599609

$$$$
3
                    3D
 Structure written by MMmdl.
148156  0  0  1  0            999 V2000
  -30.5259  -14.9216   20.4134 C   0  0  0  0  0  0
  -30.4524  -12.5654   19.4816 C   0  0  0  0  0  0
  -29.5226  -12.5118   18.2461 C   0  0  0  0  0  0
  -28.0506  -12.3173   18.6630 C   0  0  0  0  0  0
  -27.6352  -13.2393   19.8388 C   0  0  2  0  0  0
  -28.6845  -13.2380   20.9706 C   0  0  0  0  0  0
  -25.2496  -13.8205   20.5704 C   0  0  0  0  0  0
  -24.1807  -13.0440   20.9244 C   0  0  0  0  0  0
  -24.6410  -11.6919   20.8767 C   0  0  0  0  0  0
  -23.9083  -10.4293   21.0422 C   0  0  0  0  0  0
  -24.3635   -9.4198   21.9190 C   0  0  0  0  0  0
  -23.6303   -8.2234   22.0754 C   0  0  0  0  0  0
  -22.4280   -8.0284   21.3544 C   0  0  0  0  0  0
  -21.9914   -9.0268   20.4656 C   0  0  0  0  0  0
  -22.7247  -10.2145   20.3073 C   0  0  0  0  0  0
  -21.6857   -6.0740   22.5276 C   0  0  0  0  0  0
  -21.4015   -6.5649   23.8207 C   0  0  0  0  0  0
  -21.3652   -5.6801   24.9174 C   0  0  0  0  0  0
  -21.6046   -4.3063   24.7225 C   0  0  0  0  0  0
  -21.8820   -3.8152   23.4345 C   0  0  0  0  0  0
  -21.9193   -4.6967   22.3400 C   0  0  0  0  0  0
  -22.7825  -13.5208   21.1894 C   0  0  0  0  0  0
  -22.1662   -4.2154   21.0977 F   0  0  0  0  0  0
  -21.5622   -3.4541   25.7731 F   0  0  0  0  0  0
  -29.9626  -13.6505   20.3723 N   0  0  0  0  0  0
  -26.2917  -12.9422   20.3241 N   0  0  0  0  0  0
  -25.9339  -11.6561   20.5754 N   0  0  0  0  0  0
  -22.0482  -12.8198   22.0465 N   0  0  0  0  0  0
  -25.4140  -15.1943   20.4105 N   0  0  0  0  0  0
  -31.7348  -15.0333   20.1803 O   0  0  0  0  0  0
  -21.6644   -6.8881   21.4237 O   0  0  0  0  0  0
  -22.3489  -14.5496   20.6725 O   0  0  0  0  0  0
  -24.6408  -31.8452   23.1889 C   0  0  0  0  0  0
  -25.9183  -32.4706   23.8278 C   0  0  1  0  0  0
  -27.2294  -27.1591   20.1574 C   0  0  0  0  0  0
  -25.5926  -33.8508   24.2191 N   0  0  0  0  0  0
  -23.4451  -30.4616   21.5342 C   0  0  2  0  0  0
  -24.8978  -28.8858   20.1178 C   0  0  0  0  0  0
  -22.7559  -29.4539   22.4878 C   0  0  0  0  0  0
  -18.0302  -28.1386   22.8484 C   0  0  0  0  0  0
  -24.1483  -36.7263   23.2638 C   0  0  0  0  0  0
  -25.9988  -30.7257   21.3851 C   0  0  0  0  0  0
  -26.0747  -29.3367   20.7310 C   0  0  0  0  0  0
  -27.2447  -28.4916   20.7289 C   0  0  0  0  0  0
  -26.0257  -26.7954   19.5190 C   0  0  0  0  0  0
  -24.8839  -27.6264   19.4971 C   0  0  0  0  0  0
  -23.6721  -29.7859   20.1556 C   0  0  0  0  0  0
  -25.4113  -36.3037   24.0315 C   0  0  1  0  0  0
  -20.5912  -28.3705   23.1245 C   0  0  2  0  0  0
  -20.6783  -26.9411   22.5404 C   0  0  0  0  0  0
  -19.5751  -26.6369   21.5218 C   0  0  0  0  0  0
  -18.1940  -26.7919   22.1644 C   0  0  0  0  0  0
  -19.1558  -28.8868   23.2852 C   0  0  0  0  0  0
  -18.9477  -30.1468   23.8869 C   0  0  0  0  0  0
  -17.6474  -30.6585   24.0555 C   0  0  0  0  0  0
  -25.9069  -34.9414   23.5067 C   0  0  0  0  0  0
  -16.5365  -29.9078   23.6335 C   0  0  0  0  0  0
  -16.7287  -28.6495   23.0359 C   0  0  0  0  0  0
  -26.4521  -31.6579   25.0719 C   0  0  0  0  0  0
  -25.3720  -31.3770   26.1428 C   0  0  0  0  0  0
  -27.0401  -30.2983   24.6291 C   0  0  0  0  0  0
  -27.6031  -32.4376   25.7500 C   0  0  0  0  0  0
  -27.5592  -37.1753   24.8447 C   0  0  0  0  0  0
  -21.4253  -29.3034   22.3624 N   0  0  0  0  0  0
  -26.4268  -37.3762   23.9440 N   0  0  0  0  0  0
  -24.7146  -31.0315   22.0916 N   0  0  0  0  0  0
  -23.4206  -28.8093   23.3032 O   0  0  0  0  0  0
  -28.2963  -26.1972   20.1458 O   0  0  0  0  0  0
  -26.5668  -34.8908   22.4654 O   0  0  0  0  0  0
  -23.5528  -32.1315   23.7122 O   0  0  0  0  0  0
  -28.5387  -19.7644   19.7244 C   0  0  0  0  0  0
  -28.7025  -18.3194   19.6828 C   0  0  0  0  0  0
  -30.5265  -18.4511   21.1644 C   0  0  0  0  0  0
  -29.3138  -20.6444   20.5470 C   0  0  0  0  0  0
  -29.6918  -17.5646   20.4074 C   0  0  0  0  0  0
  -30.3414  -19.8959   21.2352 C   0  0  0  0  0  0
  -29.0652  -22.2083   20.8061 C   0  0  0  0  0  0
  -28.4864  -23.3311   20.1676 C   0  0  0  0  0  0
  -28.1141  -24.8073   20.7924 C   0  0  0  0  0  0
  -29.6499  -16.0334   20.4612 N   0  0  0  0  0  0
  -31.1791  -20.5858   22.0468 F   0  0  0  0  0  0
  -31.4812  -12.7409   19.1636 H   0  0  0  0  0  0
  -30.4579  -11.6094   20.0078 H   0  0  0  0  0  0
  -29.8275  -11.7030   17.5797 H   0  0  0  0  0  0
  -29.6217  -13.4345   17.6724 H   0  0  0  0  0  0
  -27.9285  -11.2732   18.9542 H   0  0  0  0  0  0
  -27.3912  -12.4745   17.8086 H   0  0  0  0  0  0
  -27.6034  -14.2459   19.4225 H   0  0  0  0  0  0
  -28.7671  -12.2512   21.4290 H   0  0  0  0  0  0
  -28.3948  -13.9244   21.7679 H   0  0  0  0  0  0
  -25.2791   -9.5662   22.4750 H   0  0  0  0  0  0
  -24.0013   -7.4621   22.7469 H   0  0  0  0  0  0
  -21.0837   -8.8814   19.8964 H   0  0  0  0  0  0
  -22.3723  -10.9700   19.6190 H   0  0  0  0  0  0
  -21.2016   -7.6158   23.9715 H   0  0  0  0  0  0
  -21.1466   -6.0532   25.9075 H   0  0  0  0  0  0
  -22.0601   -2.7613   23.2857 H   0  0  0  0  0  0
  -22.4134  -11.9886   22.4877 H   0  0  0  0  0  0
  -21.1099  -13.1216   22.2673 H   0  0  0  0  0  0
  -24.6428  -15.8414   20.5337 H   0  0  0  0  0  0
  -26.2385  -15.6362   20.0277 H   0  0  0  0  0  0
  -26.7247  -32.5325   23.1006 H   0  0  0  0  0  0
  -25.0021  -33.9624   25.0301 H   0  0  0  0  0  0
  -22.7461  -31.2857   21.3783 H   0  0  0  0  0  0
  -23.3741  -35.9596   23.3281 H   0  0  0  0  0  0
  -24.3578  -36.8916   22.2059 H   0  0  0  0  0  0
  -23.7226  -37.6447   23.6688 H   0  0  0  0  0  0
  -26.1521  -31.4808   20.6129 H   0  0  0  0  0  0
  -26.8692  -30.7769   22.0276 H   0  0  0  0  0  0
  -28.1485  -28.8379   21.2112 H   0  0  0  0  0  0
  -25.9596  -25.8271   19.0426 H   0  0  0  0  0  0
  -23.9857  -27.2751   19.0079 H   0  0  0  0  0  0
  -23.8068  -30.5578   19.3972 H   0  0  0  0  0  0
  -22.7876  -29.2259   19.8466 H   0  0  0  0  0  0
  -25.1282  -36.1861   25.0799 H   0  0  0  0  0  0
  -20.9998  -28.3292   24.1369 H   0  0  0  0  0  0
  -20.5684  -26.2316   23.3619 H   0  0  0  0  0  0
  -21.6649  -26.7419   22.1201 H   0  0  0  0  0  0
  -19.6909  -25.6273   21.1264 H   0  0  0  0  0  0
  -19.6678  -27.3167   20.6739 H   0  0  0  0  0  0
  -17.4194  -26.6638   21.4067 H   0  0  0  0  0  0
  -18.0362  -26.0075   22.9060 H   0  0  0  0  0  0
  -19.7952  -30.7297   24.2220 H   0  0  0  0  0  0
  -17.5023  -31.6267   24.5152 H   0  0  0  0  0  0
  -15.5365  -30.2974   23.7667 H   0  0  0  0  0  0
  -15.8686  -28.0806   22.7091 H   0  0  0  0  0  0
  -24.5831  -30.7205   25.7740 H   0  0  0  0  0  0
  -24.8999  -32.2968   26.4889 H   0  0  0  0  0  0
  -25.8001  -30.8884   27.0189 H   0  0  0  0  0  0
  -26.3034  -29.6703   24.1266 H   0  0  0  0  0  0
  -27.3992  -29.7280   25.4868 H   0  0  0  0  0  0
  -27.8943  -30.4238   23.9633 H   0  0  0  0  0  0
  -27.2567  -33.3640   26.2095 H   0  0  0  0  0  0
  -28.3815  -32.7020   25.0331 H   0  0  0  0  0  0
  -28.0737  -31.8525   26.5409 H   0  0  0  0  0  0
  -28.2515  -38.0145   24.7627 H   0  0  0  0  0  0
  -28.1177  -36.2680   24.6090 H   0  0  0  0  0  0
  -27.2334  -37.1169   25.8848 H   0  0  0  0  0  0
  -20.9461  -29.8755   21.6810 H   0  0  0  0  0  0
  -26.0128  -38.2804   24.1537 H   0  0  0  0  0  0
  -27.7299  -20.1953   19.1524 H   0  0  0  0  0  0
  -27.9987  -17.7690   19.0751 H   0  0  0  0  0  0
  -31.3073  -18.0179   21.7718 H   0  0  0  0  0  0
  -29.3793  -22.4520   21.8118 H   0  0  0  0  0  0
  -28.1515  -23.1964   19.1497 H   0  0  0  0  0  0
  -28.6301  -24.8637   21.7511 H   0  0  0  0  0  0
  -27.0605  -24.7287   21.0606 H   0  0  0  0  0  0
  -28.7029  -15.6900   20.4565 H   0  0  0  0  0  0
  1 25  1  0  0  0
  1 30  2  0  0  0
  1 80  1  0  0  0
  2  3  1  0  0  0
  2 25  1  0  0  0
  2 82  1  0  0  0
  2 83  1  0  0  0
  3  4  1  0  0  0
  3 84  1  0  0  0
  3 85  1  0  0  0
  4  5  1  0  0  0
  4 86  1  0  0  0
  4 87  1  0  0  0
  5  6  1  0  0  0
  5 26  1  0  0  0
  5 88  1  0  0  0
  6 25  1  0  0  0
  6 89  1  0  0  0
  6 90  1  0  0  0
  7  8  2  0  0  0
  7 26  1  0  0  0
  7 29  1  0  0  0
  8  9  1  0  0  0
  8 22  1  0  0  0
  9 10  1  0  0  0
  9 27  2  0  0  0
 10 11  2  0  0  0
 10 15  1  0  0  0
 11 12  1  0  0  0
 11 91  1  0  0  0
 12 13  2  0  0  0
 12 92  1  0  0  0
 13 14  1  0  0  0
 13 31  1  0  0  0
 14 15  2  0  0  0
 14 93  1  0  0  0
 15 94  1  0  0  0
 16 17  2  0  0  0
 16 21  1  0  0  0
 16 31  1  0  0  0
 17 18  1  0  0  0
 17 95  1  0  0  0
 18 19  2  0  0  0
 18 96  1  0  0  0
 19 20  1  0  0  0
 19 24  1  0  0  0
 20 21  2  0  0  0
 20 97  1  0  0  0
 21 23  1  0  0  0
 22 28  1  0  0  0
 22 32  2  0  0  0
 26 27  1  0  0  0
 28 98  1  0  0  0
 28 99  1  0  0  0
 29100  1  0  0  0
 29101  1  0  0  0
 33 34  1  0  0  0
 33 66  1  0  0  0
 33 70  2  0  0  0
 34 36  1  0  0  0
 34 59  1  0  0  0
 34102  1  0  0  0
 35 44  2  0  0  0
 35 45  1  0  0  0
 35 68  1  0  0  0
 36 56  1  0  0  0
 36103  1  0  0  0
 37 39  1  0  0  0
 37 47  1  0  0  0
 37 66  1  0  0  0
 37104  1  0  0  0
 38 43  2  0  0  0
 38 46  1  0  0  0
 38 47  1  0  0  0
 39 64  1  0  0  0
 39 67  2  0  0  0
 40 52  1  0  0  0
 40 53  2  0  0  0
 40 58  1  0  0  0
 41105  1  0  0  0
 41106  1  0  0  0
 41107  1  0  0  0
 41 48  1  0  0  0
 42 43  1  0  0  0
 42 66  1  0  0  0
 42108  1  0  0  0
 42109  1  0  0  0
 43 44  1  0  0  0
 44110  1  0  0  0
 45 46  2  0  0  0
 45111  1  0  0  0
 46112  1  0  0  0
 47113  1  0  0  0
 47114  1  0  0  0
 48 56  1  0  0  0
 48 65  1  0  0  0
 48115  1  0  0  0
 49 50  1  0  0  0
 49 53  1  0  0  0
 49 64  1  0  0  0
 49116  1  0  0  0
 50 51  1  0  0  0
 50117  1  0  0  0
 50118  1  0  0  0
 51 52  1  0  0  0
 51119  1  0  0  0
 51120  1  0  0  0
 52121  1  0  0  0
 52122  1  0  0  0
 53 54  1  0  0  0
 54 55  2  0  0  0
 54123  1  0  0  0
 55 57  1  0  0  0
 55124  1  0  0  0
 56 69  2  0  0  0
 57 58  2  0  0  0
 57125  1  0  0  0
 58126  1  0  0  0
 59 60  1  0  0  0
 59 61  1  0  0  0
 59 62  1  0  0  0
 60127  1  0  0  0
 60128  1  0  0  0
 60129  1  0  0  0
 61130  1  0  0  0
 61131  1  0  0  0
 61132  1  0  0  0
 62133  1  0  0  0
 62134  1  0  0  0
 62135  1  0  0  0
 63 65  1  0  0  0
 63136  1  0  0  0
 63137  1  0  0  0
 63138  1  0  0  0
 64139  1  0  0  0
 65140  1  0  0  0
 68 79  1  0  0  0
 71 72  2  0  0  0
 71 74  1  0  0  0
 71141  1  0  0  0
 72 75  1  0  0  0
 72142  1  0  0  0
 73 75  2  0  0  0
 73 76  1  0  0  0
 73143  1  0  0  0
 74 76  2  0  0  0
 74 77  1  0  0  0
 75 80  1  0  0  0
 76 81  1  0  0  0
 77 78  2  0  0  0
 77144  1  0  0  0
 78 79  1  0  0  0
 78145  1  0  0  0
 79146  1  0  0  0
 79147  1  0  0  0
 80148  1  0  0  0
M  ISO  4   1 100  68 101  79 101  80 100
M  END
> <chiral flag>
0

> <version>
0

> <s_m_source_file>
/data/baiqing/PycharmProjects/Reinvent-master-3.2/result/LINK_invent/BTK/process_docking_weight1_custom_product_contain_oxygen_bond_distance_aromatic_linkinvent_7_9_3/rearranged_h_0053.sdf

> <i_m_source_file_index>
4

> <r_mmod_Potential_Energy-OPLS-2005>
476.982269287109

> <r_mmod_Stretch_Energy-OPLS-2005>
209.329864501953

> <r_mmod_Bend_Energy-OPLS-2005>
246.421142578125

> <r_mmod_Torsional_Energy-OPLS-2005>
259.275726318359

> <r_mmod_Improper_Torsional_Energy-OPLS-2005>
9.04186534881592

> <r_mmod_Van_der_Waal_Energy-OPLS-2005>
126.876556396484

> <r_mmod_Electrostatic_Energy-OPLS-2005>
-338.24462890625

> <r_mmod_Solvation_Energy-OPLS-2005>
-208.371688842773

> <b_mmod_Minimization_Converged-OPLS-2005>
0

> <r_mmod_RMS_Derivative-OPLS-2005>
1.40548706054688

$$$$
4
                    3D
 Structure written by MMmdl.
156164  0  0  1  0            999 V2000
  -30.7005  -14.4572   20.5780 C   0  0  0  0  0  0
  -30.4187  -12.3118   19.4043 C   0  0  0  0  0  0
  -29.4864  -12.5186   18.1932 C   0  0  0  0  0  0
  -28.0019  -12.3895   18.5980 C   0  0  0  0  0  0
  -27.6585  -13.1967   19.8784 C   0  0  2  0  0  0
  -28.7055  -12.9154   20.9791 C   0  0  0  0  0  0
  -25.2574  -13.8148   20.5643 C   0  0  0  0  0  0
  -24.1811  -13.0446   20.9167 C   0  0  0  0  0  0
  -24.6354  -11.6912   20.8750 C   0  0  0  0  0  0
  -23.9026  -10.4306   21.0421 C   0  0  0  0  0  0
  -24.3598   -9.4216   21.9178 C   0  0  0  0  0  0
  -23.6279   -8.2251   22.0754 C   0  0  0  0  0  0
  -22.4259   -8.0281   21.3544 C   0  0  0  0  0  0
  -21.9888   -9.0256   20.4643 C   0  0  0  0  0  0
  -22.7214  -10.2145   20.3052 C   0  0  0  0  0  0
  -21.6859   -6.0734   22.5275 C   0  0  0  0  0  0
  -21.4019   -6.5638   23.8213 C   0  0  0  0  0  0
  -21.3652   -5.6791   24.9174 C   0  0  0  0  0  0
  -21.6045   -4.3057   24.7224 C   0  0  0  0  0  0
  -21.8813   -3.8143   23.4347 C   0  0  0  0  0  0
  -21.9195   -4.6956   22.3403 C   0  0  0  0  0  0
  -22.7841  -13.5255   21.1828 C   0  0  0  0  0  0
  -22.1656   -4.2137   21.0985 F   0  0  0  0  0  0
  -21.5628   -3.4544   25.7742 F   0  0  0  0  0  0
  -30.0188  -13.2839   20.4348 N   0  0  0  0  0  0
  -26.2992  -12.9297   20.3372 N   0  0  0  0  0  0
  -25.9277  -11.6466   20.5773 N   0  0  0  0  0  0
  -22.0484  -12.8272   22.0402 N   0  0  0  0  0  0
  -25.4312  -15.1870   20.4008 N   0  0  0  0  0  0
  -31.8417  -14.6072   20.1359 O   0  0  0  0  0  0
  -21.6636   -6.8878   21.4236 O   0  0  0  0  0  0
  -22.3541  -14.5533   20.6640 O   0  0  0  0  0  0
  -24.6312  -31.8739   23.2176 C   0  0  0  0  0  0
  -25.9175  -32.4874   23.8466 C   0  0  1  0  0  0
  -27.2337  -27.4339   20.0880 C   0  0  0  0  0  0
  -25.5985  -33.8654   24.2392 N   0  0  0  0  0  0
  -23.4361  -30.5011   21.5686 C   0  0  2  0  0  0
  -24.8531  -28.9591   20.1197 C   0  0  0  0  0  0
  -22.7755  -29.4865   22.5247 C   0  0  0  0  0  0
  -17.9939  -28.1184   22.8770 C   0  0  0  0  0  0
  -24.1490  -36.7321   23.2633 C   0  0  0  0  0  0
  -25.9502  -30.8339   21.3680 C   0  0  0  0  0  0
  -26.0141  -29.4657   20.7170 C   0  0  0  0  0  0
  -27.2034  -28.7043   20.7028 C   0  0  0  0  0  0
  -26.0534  -26.9383   19.4873 C   0  0  0  0  0  0
  -24.8650  -27.6933   19.5071 C   0  0  0  0  0  0
  -23.6218  -29.8294   20.1797 C   0  0  0  0  0  0
  -25.4109  -36.3129   24.0341 C   0  0  1  0  0  0
  -20.4759  -28.4650   22.7790 C   0  0  2  0  0  0
  -20.6917  -26.9666   22.5373 C   0  0  0  0  0  0
  -19.5556  -26.4587   21.6221 C   0  0  0  0  0  0
  -18.1595  -26.7465   22.2155 C   0  0  0  0  0  0
  -19.1124  -28.8997   23.2539 C   0  0  0  0  0  0
  -18.9318  -30.1488   23.8832 C   0  0  0  0  0  0
  -17.6343  -30.6518   24.0832 C   0  0  0  0  0  0
  -25.9036  -34.9499   23.5142 C   0  0  0  0  0  0
  -16.5193  -29.8965   23.6788 C   0  0  0  0  0  0
  -16.6980  -28.6270   23.0954 C   0  0  0  0  0  0
  -26.4521  -31.6603   25.0779 C   0  0  0  0  0  0
  -25.3769  -31.3717   26.1512 C   0  0  0  0  0  0
  -27.0349  -30.3049   24.6133 C   0  0  0  0  0  0
  -27.6120  -32.4276   25.7562 C   0  0  0  0  0  0
  -27.5582  -37.1831   24.8468 C   0  0  0  0  0  0
  -21.4534  -29.4533   22.4046 N   0  0  0  0  0  0
  -26.4308  -37.3805   23.9400 N   0  0  0  0  0  0
  -24.6944  -31.0843   22.1100 N   0  0  0  0  0  0
  -23.4251  -28.7614   23.2798 O   0  0  0  0  0  0
  -28.4187  -26.7295   20.1045 O   0  0  0  0  0  0
  -26.5566  -34.8940   22.4685 O   0  0  0  0  0  0
  -23.5474  -32.1484   23.7543 O   0  0  0  0  0  0
  -28.2260  -19.1602   23.6399 C   0  0  0  0  0  0
  -28.1751  -20.0707   22.5669 C   0  0  0  0  0  0
  -28.4985  -17.8006   23.4001 C   0  0  0  0  0  0
  -28.6684  -18.2557   21.0123 C   0  0  0  0  0  0
  -28.3948  -19.6246   21.2417 C   0  0  0  0  0  0
  -28.7290  -17.3394   22.0886 C   0  0  0  0  0  0
  -28.5029  -25.4618   19.5790 C   0  0  0  0  0  0
  -28.2480  -24.3331   20.2754 C   0  0  0  0  0  0
  -28.4826  -23.0303   19.6424 C   0  0  0  0  0  0
  -28.3437  -20.5790   20.0466 C   0  0  0  0  0  0
  -28.9701  -15.8531   21.8512 C   0  0  0  0  0  0
  -28.0585  -21.9800   20.3680 N   0  0  0  0  0  0
  -30.0205  -15.5796   20.8740 N   0  0  0  0  0  0
  -29.0519  -22.8714   18.5598 O   0  0  0  0  0  0
  -27.8297  -24.4048   21.5490 O   0  0  0  0  0  0
  -31.4596  -12.4226   19.0955 H   0  0  0  0  0  0
  -30.3359  -11.2939   19.7870 H   0  0  0  0  0  0
  -29.7249  -11.8082   17.4006 H   0  0  0  0  0  0
  -29.6594  -13.5099   17.7723 H   0  0  0  0  0  0
  -27.7812  -11.3344   18.7507 H   0  0  0  0  0  0
  -27.3670  -12.7168   17.7729 H   0  0  0  0  0  0
  -27.7144  -14.2481   19.6019 H   0  0  0  0  0  0
  -28.6985  -11.8500   21.2183 H   0  0  0  0  0  0
  -28.4699  -13.3925   21.9259 H   0  0  0  0  0  0
  -25.2745   -9.5705   22.4752 H   0  0  0  0  0  0
  -23.9983   -7.4648   22.7472 H   0  0  0  0  0  0
  -21.0829   -8.8775   19.8959 H   0  0  0  0  0  0
  -22.3656  -10.9681   19.6163 H   0  0  0  0  0  0
  -21.2014   -7.6149   23.9711 H   0  0  0  0  0  0
  -21.1477   -6.0528   25.9079 H   0  0  0  0  0  0
  -22.0596   -2.7602   23.2858 H   0  0  0  0  0  0
  -22.4088  -11.9923   22.4791 H   0  0  0  0  0  0
  -21.1097  -13.1309   22.2594 H   0  0  0  0  0  0
  -24.6709  -15.8494   20.5064 H   0  0  0  0  0  0
  -26.2851  -15.6178   20.0727 H   0  0  0  0  0  0
  -26.7282  -32.5588   23.1262 H   0  0  0  0  0  0
  -25.0194  -33.9813   25.0578 H   0  0  0  0  0  0
  -22.7377  -31.3278   21.4222 H   0  0  0  0  0  0
  -23.3748  -35.9656   23.3304 H   0  0  0  0  0  0
  -24.3593  -36.8926   22.2049 H   0  0  0  0  0  0
  -23.7242  -37.6540   23.6621 H   0  0  0  0  0  0
  -26.0546  -31.5959   20.5951 H   0  0  0  0  0  0
  -26.8429  -30.8896   21.9799 H   0  0  0  0  0  0
  -28.1036  -29.0819   21.1679 H   0  0  0  0  0  0
  -26.0346  -25.9701   19.0082 H   0  0  0  0  0  0
  -23.9700  -27.2959   19.0482 H   0  0  0  0  0  0
  -23.7230  -30.5981   19.4126 H   0  0  0  0  0  0
  -22.7404  -29.2481   19.9025 H   0  0  0  0  0  0
  -25.1278  -36.2019   25.0836 H   0  0  0  0  0  0
  -20.1605  -28.6823   21.7582 H   0  0  0  0  0  0
  -20.6761  -26.4375   23.4911 H   0  0  0  0  0  0
  -21.6609  -26.7764   22.0759 H   0  0  0  0  0  0
  -19.6688  -25.3868   21.4508 H   0  0  0  0  0  0
  -19.6358  -26.9180   20.6348 H   0  0  0  0  0  0
  -17.4036  -26.6216   21.4382 H   0  0  0  0  0  0
  -17.9335  -25.9980   22.9784 H   0  0  0  0  0  0
  -19.7855  -30.7532   24.1609 H   0  0  0  0  0  0
  -17.4987  -31.6251   24.5339 H   0  0  0  0  0  0
  -15.5231  -30.2846   23.8355 H   0  0  0  0  0  0
  -15.8301  -28.0472   22.8083 H   0  0  0  0  0  0
  -24.5943  -30.7057   25.7842 H   0  0  0  0  0  0
  -24.8953  -32.2881   26.4946 H   0  0  0  0  0  0
  -25.8111  -30.8903   27.0283 H   0  0  0  0  0  0
  -26.2905  -29.6828   24.1149 H   0  0  0  0  0  0
  -27.4091  -29.7263   25.4585 H   0  0  0  0  0  0
  -27.8739  -30.4374   23.9301 H   0  0  0  0  0  0
  -27.2770  -33.3578   26.2151 H   0  0  0  0  0  0
  -28.3940  -32.6810   25.0396 H   0  0  0  0  0  0
  -28.0740  -31.8360   26.5474 H   0  0  0  0  0  0
  -28.2612  -38.0113   24.7502 H   0  0  0  0  0  0
  -28.1065  -36.2654   24.6305 H   0  0  0  0  0  0
  -27.2293  -37.1493   25.8868 H   0  0  0  0  0  0
  -21.0719  -30.1753   21.8108 H   0  0  0  0  0  0
  -26.0204  -38.2890   24.1393 H   0  0  0  0  0  0
  -28.0514  -19.5059   24.6509 H   0  0  0  0  0  0
  -27.9689  -21.1068   22.7845 H   0  0  0  0  0  0
  -28.5241  -17.1107   24.2330 H   0  0  0  0  0  0
  -28.8180  -17.9048   19.9985 H   0  0  0  0  0  0
  -28.8352  -25.4736   18.5509 H   0  0  0  0  0  0
  -27.5903  -20.2176   19.3442 H   0  0  0  0  0  0
  -29.3076  -20.5012   19.5389 H   0  0  0  0  0  0
  -29.2092  -15.3629   22.7970 H   0  0  0  0  0  0
  -28.0179  -15.4637   21.5042 H   0  0  0  0  0  0
  -27.4656  -22.1434   21.1643 H   0  0  0  0  0  0
  -30.5584  -16.4033   20.6537 H   0  0  0  0  0  0
  -27.9195  -23.5397   21.9202 H   0  0  0  0  0  0
  1 25  1  0  0  0
  1 30  2  0  0  0
  1 83  1  0  0  0
  2  3  1  0  0  0
  2 25  1  0  0  0
  2 86  1  0  0  0
  2 87  1  0  0  0
  3  4  1  0  0  0
  3 88  1  0  0  0
  3 89  1  0  0  0
  4  5  1  0  0  0
  4 90  1  0  0  0
  4 91  1  0  0  0
  5  6  1  0  0  0
  5 26  1  0  0  0
  5 92  1  0  0  0
  6 25  1  0  0  0
  6 93  1  0  0  0
  6 94  1  0  0  0
  7  8  2  0  0  0
  7 26  1  0  0  0
  7 29  1  0  0  0
  8  9  1  0  0  0
  8 22  1  0  0  0
  9 10  1  0  0  0
  9 27  2  0  0  0
 10 11  2  0  0  0
 10 15  1  0  0  0
 11 12  1  0  0  0
 11 95  1  0  0  0
 12 13  2  0  0  0
 12 96  1  0  0  0
 13 14  1  0  0  0
 13 31  1  0  0  0
 14 15  2  0  0  0
 14 97  1  0  0  0
 15 98  1  0  0  0
 16 17  2  0  0  0
 16 21  1  0  0  0
 16 31  1  0  0  0
 17 18  1  0  0  0
 17 99  1  0  0  0
 18 19  2  0  0  0
 18100  1  0  0  0
 19 20  1  0  0  0
 19 24  1  0  0  0
 20 21  2  0  0  0
 20101  1  0  0  0
 21 23  1  0  0  0
 22 28  1  0  0  0
 22 32  2  0  0  0
 26 27  1  0  0  0
 28102  1  0  0  0
 28103  1  0  0  0
 29104  1  0  0  0
 29105  1  0  0  0
 33 34  1  0  0  0
 33 66  1  0  0  0
 33 70  2  0  0  0
 34 36  1  0  0  0
 34 59  1  0  0  0
 34106  1  0  0  0
 35 44  2  0  0  0
 35 45  1  0  0  0
 35 68  1  0  0  0
 36 56  1  0  0  0
 36107  1  0  0  0
 37 39  1  0  0  0
 37 47  1  0  0  0
 37 66  1  0  0  0
 37108  1  0  0  0
 38 43  2  0  0  0
 38 46  1  0  0  0
 38 47  1  0  0  0
 39 64  1  0  0  0
 39 67  2  0  0  0
 40 52  1  0  0  0
 40 53  2  0  0  0
 40 58  1  0  0  0
 41109  1  0  0  0
 41110  1  0  0  0
 41111  1  0  0  0
 41 48  1  0  0  0
 42 43  1  0  0  0
 42 66  1  0  0  0
 42112  1  0  0  0
 42113  1  0  0  0
 43 44  1  0  0  0
 44114  1  0  0  0
 45 46  2  0  0  0
 45115  1  0  0  0
 46116  1  0  0  0
 47117  1  0  0  0
 47118  1  0  0  0
 48 56  1  0  0  0
 48 65  1  0  0  0
 48119  1  0  0  0
 49 50  1  0  0  0
 49 53  1  0  0  0
 49 64  1  0  0  0
 49120  1  0  0  0
 50 51  1  0  0  0
 50121  1  0  0  0
 50122  1  0  0  0
 51 52  1  0  0  0
 51123  1  0  0  0
 51124  1  0  0  0
 52125  1  0  0  0
 52126  1  0  0  0
 53 54  1  0  0  0
 54 55  2  0  0  0
 54127  1  0  0  0
 55 57  1  0  0  0
 55128  1  0  0  0
 56 69  2  0  0  0
 57 58  2  0  0  0
 57129  1  0  0  0
 58130  1  0  0  0
 59 60  1  0  0  0
 59 61  1  0  0  0
 59 62  1  0  0  0
 60131  1  0  0  0
 60132  1  0  0  0
 60133  1  0  0  0
 61134  1  0  0  0
 61135  1  0  0  0
 61136  1  0  0  0
 62137  1  0  0  0
 62138  1  0  0  0
 62139  1  0  0  0
 63 65  1  0  0  0
 63140  1  0  0  0
 63141  1  0  0  0
 63142  1  0  0  0
 64143  1  0  0  0
 65144  1  0  0  0
 68 77  1  0  0  0
 71 72  2  0  0  0
 71 73  1  0  0  0
 71145  1  0  0  0
 72 75  1  0  0  0
 72146  1  0  0  0
 73 76  2  0  0  0
 73147  1  0  0  0
 74 75  2  0  0  0
 74 76  1  0  0  0
 74148  1  0  0  0
 75 80  1  0  0  0
 76 81  1  0  0  0
 77 78  2  0  0  0
 77149  1  0  0  0
 78 79  1  0  0  0
 78 85  1  0  0  0
 79 82  1  0  0  0
 79 84  2  0  0  0
 80 82  1  0  0  0
 80150  1  0  0  0
 80151  1  0  0  0
 81 83  1  0  0  0
 81152  1  0  0  0
 81153  1  0  0  0
 82154  1  0  0  0
 83155  1  0  0  0
 85156  1  0  0  0
M  ISO  4   1 100  68 101  77 101  83 100
M  END
> <chiral flag>
0

> <version>
0

> <s_m_source_file>
/data/baiqing/PycharmProjects/Reinvent-master-3.2/result/LINK_invent/BTK/process_docking_weight1_custom_product_contain_oxygen_bond_distance_aromatic_linkinvent_7_9_3/rearranged_h_0053.sdf

> <i_m_source_file_index>
5

> <r_mmod_Potential_Energy-OPLS-2005>
-5.75225973129272

> <r_mmod_Stretch_Energy-OPLS-2005>
32.019458770752

> <r_mmod_Bend_Energy-OPLS-2005>
219.320434570312

> <r_mmod_Torsional_Energy-OPLS-2005>
253.821762084961

> <r_mmod_Improper_Torsional_Energy-OPLS-2005>
13.128719329834

> <r_mmod_Van_der_Waal_Energy-OPLS-2005>
169.666473388672

> <r_mmod_Electrostatic_Energy-OPLS-2005>
-480.2783203125

> <r_mmod_Solvation_Energy-OPLS-2005>
-247.278839111328

> <b_mmod_Minimization_Converged-OPLS-2005>
0

> <r_mmod_RMS_Derivative-OPLS-2005>
3.89221119880676

$$$$
5
                    3D
 Structure written by MMmdl.
161169  0  0  1  0            999 V2000
  -30.7166  -14.4463   20.6100 C   0  0  0  0  0  0
  -30.4087  -12.2963   19.4272 C   0  0  0  0  0  0
  -29.4907  -12.4862   18.2052 C   0  0  0  0  0  0
  -28.0102  -12.3514   18.6129 C   0  0  0  0  0  0
  -27.6508  -13.2050   19.8591 C   0  0  2  0  0  0
  -28.6852  -12.9959   20.9857 C   0  0  0  0  0  0
  -25.2533  -13.8168   20.5635 C   0  0  0  0  0  0
  -24.1800  -13.0438   20.9174 C   0  0  0  0  0  0
  -24.6355  -11.6908   20.8728 C   0  0  0  0  0  0
  -23.9032  -10.4294   21.0399 C   0  0  0  0  0  0
  -24.3589   -9.4212   21.9178 C   0  0  0  0  0  0
  -23.6278   -8.2242   22.0752 C   0  0  0  0  0  0
  -22.4267   -8.0270   21.3541 C   0  0  0  0  0  0
  -21.9888   -9.0238   20.4640 C   0  0  0  0  0  0
  -22.7208  -10.2125   20.3045 C   0  0  0  0  0  0
  -21.6847   -6.0735   22.5283 C   0  0  0  0  0  0
  -21.4015   -6.5641   23.8215 C   0  0  0  0  0  0
  -21.3658   -5.6792   24.9178 C   0  0  0  0  0  0
  -21.6041   -4.3056   24.7228 C   0  0  0  0  0  0
  -21.8816   -3.8148   23.4351 C   0  0  0  0  0  0
  -21.9190   -4.6965   22.3405 C   0  0  0  0  0  0
  -22.7825  -13.5234   21.1861 C   0  0  0  0  0  0
  -22.1658   -4.2148   21.0982 F   0  0  0  0  0  0
  -21.5626   -3.4539   25.7740 F   0  0  0  0  0  0
  -30.0161  -13.2946   20.4322 N   0  0  0  0  0  0
  -26.2936  -12.9328   20.3245 N   0  0  0  0  0  0
  -25.9260  -11.6487   20.5689 N   0  0  0  0  0  0
  -22.0470  -12.8222   22.0423 N   0  0  0  0  0  0
  -25.4293  -15.1879   20.4071 N   0  0  0  0  0  0
  -31.8340  -14.6314   20.1130 O   0  0  0  0  0  0
  -21.6634   -6.8874   21.4245 O   0  0  0  0  0  0
  -22.3504  -14.5538   20.6711 O   0  0  0  0  0  0
  -24.6128  -31.8698   23.2121 C   0  0  0  0  0  0
  -25.9027  -32.4836   23.8384 C   0  0  1  0  0  0
  -27.2279  -27.4156   20.0949 C   0  0  0  0  0  0
  -25.5898  -33.8630   24.2329 N   0  0  0  0  0  0
  -23.3980  -30.4949   21.5533 C   0  0  2  0  0  0
  -24.8425  -28.9621   20.1170 C   0  0  0  0  0  0
  -22.7411  -29.4681   22.5027 C   0  0  0  0  0  0
  -18.0259  -28.1387   22.8503 C   0  0  0  0  0  0
  -24.1468  -36.7282   23.2642 C   0  0  0  0  0  0
  -25.9322  -30.8288   21.3700 C   0  0  0  0  0  0
  -26.0047  -29.4639   20.7125 C   0  0  0  0  0  0
  -27.1962  -28.7008   20.6968 C   0  0  0  0  0  0
  -26.0410  -26.9432   19.4799 C   0  0  0  0  0  0
  -24.8583  -27.7025   19.4989 C   0  0  0  0  0  0
  -23.6052  -29.8277   20.1701 C   0  0  0  0  0  0
  -25.4110  -36.3111   24.0338 C   0  0  1  0  0  0
  -20.5855  -28.3652   23.1343 C   0  0  2  0  0  0
  -20.6770  -26.9398   22.5436 C   0  0  0  0  0  0
  -19.5744  -26.6391   21.5238 C   0  0  0  0  0  0
  -18.1907  -26.7935   22.1640 C   0  0  0  0  0  0
  -19.1509  -28.8844   23.2905 C   0  0  0  0  0  0
  -18.9458  -30.1458   23.8897 C   0  0  0  0  0  0
  -17.6470  -30.6605   24.0563 C   0  0  0  0  0  0
  -25.9042  -34.9483   23.5134 C   0  0  0  0  0  0
  -16.5349  -29.9099   23.6345 C   0  0  0  0  0  0
  -16.7257  -28.6516   23.0359 C   0  0  0  0  0  0
  -26.4450  -31.6617   25.0718 C   0  0  0  0  0  0
  -25.3721  -31.3726   26.1473 C   0  0  0  0  0  0
  -27.0280  -30.3058   24.6106 C   0  0  0  0  0  0
  -27.6023  -32.4356   25.7471 C   0  0  0  0  0  0
  -27.5577  -37.1794   24.8488 C   0  0  0  0  0  0
  -21.4147  -29.3004   22.3764 N   0  0  0  0  0  0
  -26.4290  -37.3815   23.9414 N   0  0  0  0  0  0
  -24.6655  -31.0799   22.1032 N   0  0  0  0  0  0
  -23.4210  -28.8250   23.3070 O   0  0  0  0  0  0
  -28.4178  -26.7002   20.1345 O   0  0  0  0  0  0
  -26.5612  -34.8938   22.4698 O   0  0  0  0  0  0
  -23.5334  -32.1446   23.7531 O   0  0  0  0  0  0
  -32.2071  -16.9146   23.9223 C   0  0  0  0  0  0
  -31.5921  -15.9901   23.0676 C   0  0  0  0  0  0
  -30.4361  -17.8215   21.9256 C   0  0  0  0  0  0
  -31.9614  -18.2934   23.7789 C   0  0  0  0  0  0
  -31.0845  -18.7733   22.7650 C   0  0  0  0  0  0
  -30.7095  -16.4296   22.0589 C   0  0  0  0  0  0
  -29.2112  -23.0648   20.7070 C   0  0  0  0  0  0
  -28.9627  -24.3910   20.8515 C   0  0  0  0  0  0
  -29.6290  -22.2451   21.8531 C   0  0  0  0  0  0
  -32.6503  -19.2389   24.7559 C   0  0  0  0  0  0
  -30.5470  -20.5854   20.2295 C   0  0  0  0  0  0
  -30.8781  -20.3080   22.7038 C   0  0  0  0  0  0
  -28.4890  -25.3139   19.7317 C   0  0  0  0  0  0
  -30.0734  -15.4418   21.2532 N   0  0  0  0  0  0
  -30.2044  -21.0269   21.5874 N   0  0  0  0  0  0
  -29.4829  -22.6511   23.0119 O   0  0  0  0  0  0
  -31.4576  -12.3805   19.1386 H   0  0  0  0  0  0
  -30.2971  -11.2909   19.8367 H   0  0  0  0  0  0
  -29.7349  -11.7525   17.4352 H   0  0  0  0  0  0
  -29.6646  -13.4678   17.7614 H   0  0  0  0  0  0
  -27.8250  -11.2970   18.8235 H   0  0  0  0  0  0
  -27.3614  -12.6083   17.7746 H   0  0  0  0  0  0
  -27.6912  -14.2495   19.5464 H   0  0  0  0  0  0
  -28.6537  -11.9622   21.3326 H   0  0  0  0  0  0
  -28.4357  -13.6029   21.8558 H   0  0  0  0  0  0
  -25.2739   -9.5696   22.4752 H   0  0  0  0  0  0
  -23.9993   -7.4635   22.7461 H   0  0  0  0  0  0
  -21.0828   -8.8738   19.8939 H   0  0  0  0  0  0
  -22.3661  -10.9650   19.6143 H   0  0  0  0  0  0
  -21.2011   -7.6148   23.9720 H   0  0  0  0  0  0
  -21.1480   -6.0524   25.9078 H   0  0  0  0  0  0
  -22.0597   -2.7608   23.2847 H   0  0  0  0  0  0
  -22.4084  -11.9872   22.4797 H   0  0  0  0  0  0
  -21.1084  -13.1228   22.2635 H   0  0  0  0  0  0
  -24.6676  -15.8482   20.5154 H   0  0  0  0  0  0
  -26.2851  -15.6218   20.0839 H   0  0  0  0  0  0
  -26.7095  -32.5549   23.1138 H   0  0  0  0  0  0
  -25.0059  -33.9794   25.0475 H   0  0  0  0  0  0
  -22.6824  -31.3091   21.4182 H   0  0  0  0  0  0
  -23.3764  -35.9587   23.3348 H   0  0  0  0  0  0
  -24.3565  -36.8855   22.2054 H   0  0  0  0  0  0
  -23.7188  -37.6477   23.6636 H   0  0  0  0  0  0
  -26.0545  -31.5966   20.6053 H   0  0  0  0  0  0
  -26.8193  -30.8761   21.9922 H   0  0  0  0  0  0
  -28.0929  -29.0946   21.1525 H   0  0  0  0  0  0
  -25.9729  -25.9996   18.9634 H   0  0  0  0  0  0
  -23.9661  -27.3100   19.0330 H   0  0  0  0  0  0
  -23.7126  -30.6031   19.4097 H   0  0  0  0  0  0
  -22.7270  -29.2457   19.8789 H   0  0  0  0  0  0
  -25.1283  -36.1976   25.0834 H   0  0  0  0  0  0
  -20.9911  -28.3199   24.1475 H   0  0  0  0  0  0
  -20.5723  -26.2239   23.3599 H   0  0  0  0  0  0
  -21.6627  -26.7484   22.1186 H   0  0  0  0  0  0
  -19.6908  -25.6304   21.1242 H   0  0  0  0  0  0
  -19.6682  -27.3226   20.6787 H   0  0  0  0  0  0
  -17.4184  -26.6681   21.4031 H   0  0  0  0  0  0
  -18.0295  -26.0065   22.9028 H   0  0  0  0  0  0
  -19.7935  -30.7267   24.2250 H   0  0  0  0  0  0
  -17.5030  -31.6290   24.5155 H   0  0  0  0  0  0
  -15.5351  -30.3018   23.7692 H   0  0  0  0  0  0
  -15.8639  -28.0863   22.7080 H   0  0  0  0  0  0
  -24.5898  -30.7063   25.7824 H   0  0  0  0  0  0
  -24.8893  -32.2878   26.4910 H   0  0  0  0  0  0
  -25.8079  -30.8915   27.0228 H   0  0  0  0  0  0
  -26.2831  -29.6847   24.1119 H   0  0  0  0  0  0
  -27.4000  -29.7283   25.4566 H   0  0  0  0  0  0
  -27.8678  -30.4386   23.9286 H   0  0  0  0  0  0
  -27.2629  -33.3657   26.2036 H   0  0  0  0  0  0
  -28.3804  -32.6925   25.0276 H   0  0  0  0  0  0
  -28.0694  -31.8489   26.5380 H   0  0  0  0  0  0
  -28.2622  -38.0065   24.7530 H   0  0  0  0  0  0
  -28.1033  -36.2603   24.6318 H   0  0  0  0  0  0
  -27.2285  -37.1443   25.8886 H   0  0  0  0  0  0
  -20.9332  -29.8635   21.6885 H   0  0  0  0  0  0
  -26.0181  -38.2883   24.1456 H   0  0  0  0  0  0
  -32.8677  -16.5505   24.6985 H   0  0  0  0  0  0
  -31.7919  -14.9361   23.2036 H   0  0  0  0  0  0
  -29.7372  -18.1525   21.1730 H   0  0  0  0  0  0
  -29.0741  -22.6190   19.7334 H   0  0  0  0  0  0
  -29.0918  -24.8624   21.8154 H   0  0  0  0  0  0
  -31.9336  -19.8886   25.2585 H   0  0  0  0  0  0
  -33.3821  -19.8625   24.2402 H   0  0  0  0  0  0
  -33.1852  -18.6892   25.5317 H   0  0  0  0  0  0
  -31.0411  -21.3817   19.6700 H   0  0  0  0  0  0
  -29.6514  -20.2810   19.6860 H   0  0  0  0  0  0
  -31.2477  -19.7515   20.2321 H   0  0  0  0  0  0
  -31.8689  -20.7635   22.7423 H   0  0  0  0  0  0
  -30.4031  -20.5529   23.6543 H   0  0  0  0  0  0
  -29.2041  -25.2519   18.9087 H   0  0  0  0  0  0
  -27.5723  -24.8788   19.3539 H   0  0  0  0  0  0
  -29.0830  -15.3106   21.4035 H   0  0  0  0  0  0
  1 25  1  0  0  0
  1 30  2  0  0  0
  1 84  1  0  0  0
  2  3  1  0  0  0
  2 25  1  0  0  0
  2 87  1  0  0  0
  2 88  1  0  0  0
  3  4  1  0  0  0
  3 89  1  0  0  0
  3 90  1  0  0  0
  4  5  1  0  0  0
  4 91  1  0  0  0
  4 92  1  0  0  0
  5  6  1  0  0  0
  5 26  1  0  0  0
  5 93  1  0  0  0
  6 25  1  0  0  0
  6 94  1  0  0  0
  6 95  1  0  0  0
  7  8  2  0  0  0
  7 26  1  0  0  0
  7 29  1  0  0  0
  8  9  1  0  0  0
  8 22  1  0  0  0
  9 10  1  0  0  0
  9 27  2  0  0  0
 10 11  2  0  0  0
 10 15  1  0  0  0
 11 12  1  0  0  0
 11 96  1  0  0  0
 12 13  2  0  0  0
 12 97  1  0  0  0
 13 14  1  0  0  0
 13 31  1  0  0  0
 14 15  2  0  0  0
 14 98  1  0  0  0
 15 99  1  0  0  0
 16 17  2  0  0  0
 16 21  1  0  0  0
 16 31  1  0  0  0
 17 18  1  0  0  0
 17100  1  0  0  0
 18 19  2  0  0  0
 18101  1  0  0  0
 19 20  1  0  0  0
 19 24  1  0  0  0
 20 21  2  0  0  0
 20102  1  0  0  0
 21 23  1  0  0  0
 22 28  1  0  0  0
 22 32  2  0  0  0
 26 27  1  0  0  0
 28103  1  0  0  0
 28104  1  0  0  0
 29105  1  0  0  0
 29106  1  0  0  0
 33 34  1  0  0  0
 33 66  1  0  0  0
 33 70  2  0  0  0
 34 36  1  0  0  0
 34 59  1  0  0  0
 34107  1  0  0  0
 35 44  2  0  0  0
 35 45  1  0  0  0
 35 68  1  0  0  0
 36 56  1  0  0  0
 36108  1  0  0  0
 37 39  1  0  0  0
 37 47  1  0  0  0
 37 66  1  0  0  0
 37109  1  0  0  0
 38 43  2  0  0  0
 38 46  1  0  0  0
 38 47  1  0  0  0
 39 64  1  0  0  0
 39 67  2  0  0  0
 40 52  1  0  0  0
 40 53  2  0  0  0
 40 58  1  0  0  0
 41110  1  0  0  0
 41111  1  0  0  0
 41112  1  0  0  0
 41 48  1  0  0  0
 42 43  1  0  0  0
 42 66  1  0  0  0
 42113  1  0  0  0
 42114  1  0  0  0
 43 44  1  0  0  0
 44115  1  0  0  0
 45 46  2  0  0  0
 45116  1  0  0  0
 46117  1  0  0  0
 47118  1  0  0  0
 47119  1  0  0  0
 48 56  1  0  0  0
 48 65  1  0  0  0
 48120  1  0  0  0
 49 50  1  0  0  0
 49 53  1  0  0  0
 49 64  1  0  0  0
 49121  1  0  0  0
 50 51  1  0  0  0
 50122  1  0  0  0
 50123  1  0  0  0
 51 52  1  0  0  0
 51124  1  0  0  0
 51125  1  0  0  0
 52126  1  0  0  0
 52127  1  0  0  0
 53 54  1  0  0  0
 54 55  2  0  0  0
 54128  1  0  0  0
 55 57  1  0  0  0
 55129  1  0  0  0
 56 69  2  0  0  0
 57 58  2  0  0  0
 57130  1  0  0  0
 58131  1  0  0  0
 59 60  1  0  0  0
 59 61  1  0  0  0
 59 62  1  0  0  0
 60132  1  0  0  0
 60133  1  0  0  0
 60134  1  0  0  0
 61135  1  0  0  0
 61136  1  0  0  0
 61137  1  0  0  0
 62138  1  0  0  0
 62139  1  0  0  0
 62140  1  0  0  0
 63 65  1  0  0  0
 63141  1  0  0  0
 63142  1  0  0  0
 63143  1  0  0  0
 64144  1  0  0  0
 65145  1  0  0  0
 68 83  1  0  0  0
 71 72  2  0  0  0
 71 74  1  0  0  0
 71146  1  0  0  0
 72 76  1  0  0  0
 72147  1  0  0  0
 73 75  1  0  0  0
 73 76  2  0  0  0
 73148  1  0  0  0
 74 75  2  0  0  0
 74 80  1  0  0  0
 75 82  1  0  0  0
 76 84  1  0  0  0
 77 78  2  0  0  0
 77 79  1  0  0  0
 77149  1  0  0  0
 78 83  1  0  0  0
 78150  1  0  0  0
 79 85  1  0  0  0
 79 86  2  0  0  0
 80151  1  0  0  0
 80152  1  0  0  0
 80153  1  0  0  0
 81 85  1  0  0  0
 81154  1  0  0  0
 81155  1  0  0  0
 81156  1  0  0  0
 82 85  1  0  0  0
 82157  1  0  0  0
 82158  1  0  0  0
 83159  1  0  0  0
 83160  1  0  0  0
 84161  1  0  0  0
M  ISO  4   1 100  68 101  83 101  84 100
M  END
> <chiral flag>
0

> <version>
0

> <s_m_source_file>
/data/baiqing/PycharmProjects/Reinvent-master-3.2/result/LINK_invent/BTK/process_docking_weight1_custom_product_contain_oxygen_bond_distance_aromatic_linkinvent_7_9_3/rearranged_h_0053.sdf

> <i_m_source_file_index>
6

> <r_mmod_Potential_Energy-OPLS-2005>
-14.9768238067627

> <r_mmod_Stretch_Energy-OPLS-2005>
47.679141998291

> <r_mmod_Bend_Energy-OPLS-2005>
130.268630981445

> <r_mmod_Torsional_Energy-OPLS-2005>
243.962707519531

> <r_mmod_Improper_Torsional_Energy-OPLS-2005>
4.69213485717773

> <r_mmod_Van_der_Waal_Energy-OPLS-2005>
182.781021118164

> <r_mmod_Electrostatic_Energy-OPLS-2005>
-404.363098144531

> <r_mmod_Solvation_Energy-OPLS-2005>
-233.858489990234

> <b_mmod_Minimization_Converged-OPLS-2005>
0

> <r_mmod_RMS_Derivative-OPLS-2005>
3.67152190208435

$$$$
6
                    3D
 Structure written by MMmdl.
160168  0  0  1  0            999 V2000
  -30.7450  -14.6225   20.4284 C   0  0  0  0  0  0
  -30.4132  -12.3825   19.4363 C   0  0  0  0  0  0
  -29.4810  -12.4385   18.2116 C   0  0  0  0  0  0
  -28.0187  -12.2271   18.6485 C   0  0  0  0  0  0
  -27.6169  -13.1482   19.8240 C   0  0  2  0  0  0
  -28.6904  -13.1745   20.9489 C   0  0  0  0  0  0
  -25.2487  -13.7929   20.5727 C   0  0  0  0  0  0
  -24.1726  -13.0289   20.9271 C   0  0  0  0  0  0
  -24.6237  -11.6742   20.8835 C   0  0  0  0  0  0
  -23.8915  -10.4180   21.0492 C   0  0  0  0  0  0
  -24.3504   -9.4105   21.9252 C   0  0  0  0  0  0
  -23.6207   -8.2132   22.0768 C   0  0  0  0  0  0
  -22.4202   -8.0190   21.3540 C   0  0  0  0  0  0
  -21.9818   -9.0160   20.4653 C   0  0  0  0  0  0
  -22.7117  -10.2050   20.3100 C   0  0  0  0  0  0
  -21.6806   -6.0669   22.5274 C   0  0  0  0  0  0
  -21.3981   -6.5595   23.8202 C   0  0  0  0  0  0
  -21.3665   -5.6769   24.9180 C   0  0  0  0  0  0
  -21.6055   -4.3031   24.7240 C   0  0  0  0  0  0
  -21.8821   -3.8100   23.4366 C   0  0  0  0  0  0
  -21.9173   -4.6902   22.3408 C   0  0  0  0  0  0
  -22.7773  -13.5173   21.1900 C   0  0  0  0  0  0
  -22.1646   -4.2079   21.0988 F   0  0  0  0  0  0
  -21.5653   -3.4531   25.7767 F   0  0  0  0  0  0
  -29.9986  -13.4718   20.3406 N   0  0  0  0  0  0
  -26.2803  -12.8948   20.3293 N   0  0  0  0  0  0
  -25.9128  -11.6195   20.5842 N   0  0  0  0  0  0
  -22.0370  -12.8227   22.0472 N   0  0  0  0  0  0
  -25.4159  -15.1649   20.4069 N   0  0  0  0  0  0
  -31.9631  -14.5656   20.2663 O   0  0  0  0  0  0
  -21.6577   -6.8790   21.4228 O   0  0  0  0  0  0
  -22.3505  -14.5485   20.6710 O   0  0  0  0  0  0
  -24.6144  -31.8673   23.2096 C   0  0  0  0  0  0
  -25.9030  -32.4825   23.8400 C   0  0  1  0  0  0
  -27.2393  -27.4322   20.1045 C   0  0  0  0  0  0
  -25.5892  -33.8623   24.2331 N   0  0  0  0  0  0
  -23.4050  -30.4891   21.5498 C   0  0  2  0  0  0
  -24.8549  -28.9540   20.1159 C   0  0  0  0  0  0
  -22.7422  -29.4651   22.4989 C   0  0  0  0  0  0
  -18.0281  -28.1392   22.8503 C   0  0  0  0  0  0
  -24.1485  -36.7317   23.2642 C   0  0  0  0  0  0
  -25.9338  -30.8331   21.3621 C   0  0  0  0  0  0
  -26.0145  -29.4670   20.7111 C   0  0  0  0  0  0
  -27.2130  -28.7147   20.6988 C   0  0  0  0  0  0
  -26.0658  -26.9345   19.5009 C   0  0  0  0  0  0
  -24.8757  -27.6876   19.5062 C   0  0  0  0  0  0
  -23.6149  -29.8189   20.1655 C   0  0  0  0  0  0
  -25.4109  -36.3112   24.0339 C   0  0  1  0  0  0
  -20.5873  -28.3677   23.1327 C   0  0  2  0  0  0
  -20.6773  -26.9415   22.5422 C   0  0  0  0  0  0
  -19.5747  -26.6398   21.5223 C   0  0  0  0  0  0
  -18.1928  -26.7942   22.1632 C   0  0  0  0  0  0
  -19.1529  -28.8852   23.2915 C   0  0  0  0  0  0
  -18.9452  -30.1463   23.8921 C   0  0  0  0  0  0
  -17.6450  -30.6594   24.0579 C   0  0  0  0  0  0
  -25.9037  -34.9475   23.5134 C   0  0  0  0  0  0
  -16.5345  -29.9098   23.6330 C   0  0  0  0  0  0
  -16.7271  -28.6517   23.0351 C   0  0  0  0  0  0
  -26.4460  -31.6601   25.0723 C   0  0  0  0  0  0
  -25.3731  -31.3692   26.1475 C   0  0  0  0  0  0
  -27.0299  -30.3054   24.6085 C   0  0  0  0  0  0
  -27.6053  -32.4312   25.7471 C   0  0  0  0  0  0
  -27.5583  -37.1815   24.8470 C   0  0  0  0  0  0
  -21.4148  -29.3032   22.3726 N   0  0  0  0  0  0
  -26.4300  -37.3791   23.9406 N   0  0  0  0  0  0
  -24.6692  -31.0773   22.0996 N   0  0  0  0  0  0
  -23.4184  -28.8200   23.3041 O   0  0  0  0  0  0
  -28.3885  -26.6696   20.0966 O   0  0  0  0  0  0
  -26.5601  -34.8916   22.4696 O   0  0  0  0  0  0
  -23.5327  -32.1422   23.7481 O   0  0  0  0  0  0
  -32.3881  -18.7567   19.6134 C   0  0  0  0  0  0
  -31.7544  -19.8056   20.3005 C   0  0  0  0  0  0
  -31.9006  -17.4429   19.7200 C   0  0  0  0  0  0
  -30.6526  -19.5500   21.1434 C   0  0  0  0  0  0
  -30.2316  -18.1972   21.3384 C   0  0  0  0  0  0
  -30.8134  -17.1339   20.5728 C   0  0  0  0  0  0
  -29.2404  -23.1042   21.4032 C   0  0  0  0  0  0
  -29.1192  -17.8853   22.3338 C   0  0  0  0  0  0
  -28.8349  -16.0834   19.7860 C   0  0  0  0  0  0
  -29.9422  -20.7436   21.8137 C   0  0  0  0  0  0
  -29.2242  -24.3243   20.4503 C   0  0  0  0  0  0
  -28.3289  -25.5006   20.9379 C   0  0  0  0  0  0
  -29.8654  -21.9763   21.0078 N   0  0  0  0  0  0
  -30.1297  -15.8637   20.4305 N   0  0  0  0  0  0
  -28.6899  -23.1735   22.5041 O   0  0  0  0  0  0
  -31.4521  -12.4699   19.1137 H   0  0  0  0  0  0
  -30.3375  -11.4181   19.9406 H   0  0  0  0  0  0
  -29.7660  -11.6732   17.4881 H   0  0  0  0  0  0
  -29.5852  -13.3980   17.7025 H   0  0  0  0  0  0
  -27.9083  -11.1833   18.9446 H   0  0  0  0  0  0
  -27.3461  -12.3722   17.8015 H   0  0  0  0  0  0
  -27.5140  -14.0940   19.3275 H   0  0  0  0  0  0
  -28.7286  -12.2139   21.4628 H   0  0  0  0  0  0
  -28.4412  -13.9145   21.7110 H   0  0  0  0  0  0
  -25.2646   -9.5572   22.4836 H   0  0  0  0  0  0
  -23.9904   -7.4502   22.7472 H   0  0  0  0  0  0
  -21.0747   -8.8653   19.8960 H   0  0  0  0  0  0
  -22.3577  -10.9587   19.6203 H   0  0  0  0  0  0
  -21.1958   -7.6103   23.9678 H   0  0  0  0  0  0
  -21.1513   -6.0516   25.9083 H   0  0  0  0  0  0
  -22.0608   -2.7557   23.2891 H   0  0  0  0  0  0
  -22.3922  -11.9888   22.4913 H   0  0  0  0  0  0
  -21.0991  -13.1296   22.2646 H   0  0  0  0  0  0
  -24.6445  -15.8139   20.5187 H   0  0  0  0  0  0
  -26.2632  -15.6082   20.0778 H   0  0  0  0  0  0
  -26.7115  -32.5548   23.1180 H   0  0  0  0  0  0
  -25.0036  -33.9789   25.0470 H   0  0  0  0  0  0
  -22.6939  -31.3060   21.4096 H   0  0  0  0  0  0
  -23.3735  -35.9664   23.3318 H   0  0  0  0  0  0
  -24.3578  -36.8909   22.2054 H   0  0  0  0  0  0
  -23.7242  -37.6531   23.6640 H   0  0  0  0  0  0
  -26.0414  -31.5960   20.5903 H   0  0  0  0  0  0
  -26.8234  -30.8919   21.9770 H   0  0  0  0  0  0
  -28.1103  -29.1068   21.1572 H   0  0  0  0  0  0
  -26.0721  -25.9629   19.0270 H   0  0  0  0  0  0
  -23.9851  -27.2886   19.0410 H   0  0  0  0  0  0
  -23.7241  -30.5929   19.4050 H   0  0  0  0  0  0
  -22.7384  -29.2375   19.8715 H   0  0  0  0  0  0
  -25.1278  -36.1983   25.0833 H   0  0  0  0  0  0
  -20.9985  -28.3246   24.1438 H   0  0  0  0  0  0
  -20.5698  -26.2279   23.3601 H   0  0  0  0  0  0
  -21.6644  -26.7474   22.1200 H   0  0  0  0  0  0
  -19.6905  -25.6311   21.1247 H   0  0  0  0  0  0
  -19.6690  -27.3219   20.6762 H   0  0  0  0  0  0
  -17.4202  -26.6712   21.4028 H   0  0  0  0  0  0
  -18.0326  -26.0079   22.9020 H   0  0  0  0  0  0
  -19.7921  -30.7292   24.2291 H   0  0  0  0  0  0
  -17.4996  -31.6275   24.5185 H   0  0  0  0  0  0
  -15.5347  -30.3005   23.7635 H   0  0  0  0  0  0
  -15.8675  -28.0847   22.7040 H   0  0  0  0  0  0
  -24.5907  -30.7040   25.7799 H   0  0  0  0  0  0
  -24.8918  -32.2841   26.4948 H   0  0  0  0  0  0
  -25.8086  -30.8839   27.0220 H   0  0  0  0  0  0
  -26.2845  -29.6808   24.1154 H   0  0  0  0  0  0
  -27.4102  -29.7286   25.4526 H   0  0  0  0  0  0
  -27.8653  -30.4388   23.9208 H   0  0  0  0  0  0
  -27.2708  -33.3606   26.2091 H   0  0  0  0  0  0
  -28.3840  -32.6885   25.0279 H   0  0  0  0  0  0
  -28.0756  -31.8411   26.5347 H   0  0  0  0  0  0
  -28.2617  -38.0097   24.7505 H   0  0  0  0  0  0
  -28.1059  -36.2628   24.6309 H   0  0  0  0  0  0
  -27.2305  -37.1490   25.8876 H   0  0  0  0  0  0
  -20.9309  -29.8724   21.6925 H   0  0  0  0  0  0
  -26.0183  -38.2868   24.1397 H   0  0  0  0  0  0
  -33.2180  -18.9690   18.9539 H   0  0  0  0  0  0
  -32.1185  -20.8143   20.1643 H   0  0  0  0  0  0
  -32.3423  -16.6901   19.0830 H   0  0  0  0  0  0
  -29.2180  -18.4848   23.2394 H   0  0  0  0  0  0
  -29.1489  -16.8439   22.6539 H   0  0  0  0  0  0
  -28.1408  -18.0776   21.8941 H   0  0  0  0  0  0
  -28.6499  -17.1285   19.5322 H   0  0  0  0  0  0
  -28.0238  -15.8029   20.4525 H   0  0  0  0  0  0
  -28.8030  -15.5736   18.8235 H   0  0  0  0  0  0
  -30.4616  -20.9649   22.7473 H   0  0  0  0  0  0
  -28.9208  -20.4710   22.0801 H   0  0  0  0  0  0
  -28.8798  -23.9950   19.4694 H   0  0  0  0  0  0
  -30.2491  -24.6740   20.3246 H   0  0  0  0  0  0
  -28.6433  -25.8087   21.9363 H   0  0  0  0  0  0
  -27.3047  -25.1379   21.0421 H   0  0  0  0  0  0
  -30.2952  -21.9619   20.0934 H   0  0  0  0  0  0
  1 25  1  0  0  0
  1 30  2  0  0  0
  1 84  1  0  0  0
  2  3  1  0  0  0
  2 25  1  0  0  0
  2 86  1  0  0  0
  2 87  1  0  0  0
  3  4  1  0  0  0
  3 88  1  0  0  0
  3 89  1  0  0  0
  4  5  1  0  0  0
  4 90  1  0  0  0
  4 91  1  0  0  0
  5  6  1  0  0  0
  5 26  1  0  0  0
  5 92  1  0  0  0
  6 25  1  0  0  0
  6 93  1  0  0  0
  6 94  1  0  0  0
  7  8  2  0  0  0
  7 26  1  0  0  0
  7 29  1  0  0  0
  8  9  1  0  0  0
  8 22  1  0  0  0
  9 10  1  0  0  0
  9 27  2  0  0  0
 10 11  2  0  0  0
 10 15  1  0  0  0
 11 12  1  0  0  0
 11 95  1  0  0  0
 12 13  2  0  0  0
 12 96  1  0  0  0
 13 14  1  0  0  0
 13 31  1  0  0  0
 14 15  2  0  0  0
 14 97  1  0  0  0
 15 98  1  0  0  0
 16 17  2  0  0  0
 16 21  1  0  0  0
 16 31  1  0  0  0
 17 18  1  0  0  0
 17 99  1  0  0  0
 18 19  2  0  0  0
 18100  1  0  0  0
 19 20  1  0  0  0
 19 24  1  0  0  0
 20 21  2  0  0  0
 20101  1  0  0  0
 21 23  1  0  0  0
 22 28  1  0  0  0
 22 32  2  0  0  0
 26 27  1  0  0  0
 28102  1  0  0  0
 28103  1  0  0  0
 29104  1  0  0  0
 29105  1  0  0  0
 33 34  1  0  0  0
 33 66  1  0  0  0
 33 70  2  0  0  0
 34 36  1  0  0  0
 34 59  1  0  0  0
 34106  1  0  0  0
 35 44  2  0  0  0
 35 45  1  0  0  0
 35 68  1  0  0  0
 36 56  1  0  0  0
 36107  1  0  0  0
 37 39  1  0  0  0
 37 47  1  0  0  0
 37 66  1  0  0  0
 37108  1  0  0  0
 38 43  2  0  0  0
 38 46  1  0  0  0
 38 47  1  0  0  0
 39 64  1  0  0  0
 39 67  2  0  0  0
 40 52  1  0  0  0
 40 53  2  0  0  0
 40 58  1  0  0  0
 41109  1  0  0  0
 41110  1  0  0  0
 41111  1  0  0  0
 41 48  1  0  0  0
 42 43  1  0  0  0
 42 66  1  0  0  0
 42112  1  0  0  0
 42113  1  0  0  0
 43 44  1  0  0  0
 44114  1  0  0  0
 45 46  2  0  0  0
 45115  1  0  0  0
 46116  1  0  0  0
 47117  1  0  0  0
 47118  1  0  0  0
 48 56  1  0  0  0
 48 65  1  0  0  0
 48119  1  0  0  0
 49 50  1  0  0  0
 49 53  1  0  0  0
 49 64  1  0  0  0
 49120  1  0  0  0
 50 51  1  0  0  0
 50121  1  0  0  0
 50122  1  0  0  0
 51 52  1  0  0  0
 51123  1  0  0  0
 51124  1  0  0  0
 52125  1  0  0  0
 52126  1  0  0  0
 53 54  1  0  0  0
 54 55  2  0  0  0
 54127  1  0  0  0
 55 57  1  0  0  0
 55128  1  0  0  0
 56 69  2  0  0  0
 57 58  2  0  0  0
 57129  1  0  0  0
 58130  1  0  0  0
 59 60  1  0  0  0
 59 61  1  0  0  0
 59 62  1  0  0  0
 60131  1  0  0  0
 60132  1  0  0  0
 60133  1  0  0  0
 61134  1  0  0  0
 61135  1  0  0  0
 61136  1  0  0  0
 62137  1  0  0  0
 62138  1  0  0  0
 62139  1  0  0  0
 63 65  1  0  0  0
 63140  1  0  0  0
 63141  1  0  0  0
 63142  1  0  0  0
 64143  1  0  0  0
 65144  1  0  0  0
 68 82  1  0  0  0
 71 72  2  0  0  0
 71 73  1  0  0  0
 71145  1  0  0  0
 72 74  1  0  0  0
 72146  1  0  0  0
 73 76  2  0  0  0
 73147  1  0  0  0
 74 75  2  0  0  0
 74 80  1  0  0  0
 75 76  1  0  0  0
 75 78  1  0  0  0
 76 84  1  0  0  0
 77 81  1  0  0  0
 77 83  1  0  0  0
 77 85  2  0  0  0
 78148  1  0  0  0
 78149  1  0  0  0
 78150  1  0  0  0
 79 84  1  0  0  0
 79151  1  0  0  0
 79152  1  0  0  0
 79153  1  0  0  0
 80 83  1  0  0  0
 80154  1  0  0  0
 80155  1  0  0  0
 81 82  1  0  0  0
 81156  1  0  0  0
 81157  1  0  0  0
 82158  1  0  0  0
 82159  1  0  0  0
 83160  1  0  0  0
M  ISO  4   1 100  68 101  82 101  84 100
M  END
> <chiral flag>
0

> <version>
0

> <s_m_source_file>
/data/baiqing/PycharmProjects/Reinvent-master-3.2/result/LINK_invent/BTK/process_docking_weight1_custom_product_contain_oxygen_bond_distance_aromatic_linkinvent_7_9_3/rearranged_h_0053.sdf

> <i_m_source_file_index>
7

> <r_mmod_Potential_Energy-OPLS-2005>
148.793167114258

> <r_mmod_Stretch_Energy-OPLS-2005>
50.9481620788574

> <r_mmod_Bend_Energy-OPLS-2005>
120.232498168945

> <r_mmod_Torsional_Energy-OPLS-2005>
332.866027832031

> <r_mmod_Improper_Torsional_Energy-OPLS-2005>
9.33038711547852

> <r_mmod_Van_der_Waal_Energy-OPLS-2005>
179.037185668945

> <r_mmod_Electrostatic_Energy-OPLS-2005>
-379.777526855469

> <r_mmod_Solvation_Energy-OPLS-2005>
-215.229644775391

> <b_mmod_Minimization_Converged-OPLS-2005>
0

> <r_mmod_RMS_Derivative-OPLS-2005>
1.70580005645752

$$$$
7
                    3D
 Structure written by MMmdl.
160168  0  0  1  0            999 V2000
  -30.6690  -14.5015   20.5142 C   0  0  0  0  0  0
  -30.4202  -12.3135   19.4198 C   0  0  0  0  0  0
  -29.4934  -12.5165   18.2032 C   0  0  0  0  0  0
  -28.0117  -12.3767   18.6103 C   0  0  0  0  0  0
  -27.6567  -13.2106   19.8756 C   0  0  2  0  0  0
  -28.7075  -12.9930   20.9921 C   0  0  0  0  0  0
  -25.2557  -13.8209   20.5695 C   0  0  0  0  0  0
  -24.1819  -13.0477   20.9193 C   0  0  0  0  0  0
  -24.6385  -11.6938   20.8736 C   0  0  0  0  0  0
  -23.9061  -10.4317   21.0389 C   0  0  0  0  0  0
  -24.3622   -9.4239   21.9172 C   0  0  0  0  0  0
  -23.6300   -8.2268   22.0742 C   0  0  0  0  0  0
  -22.4279   -8.0297   21.3539 C   0  0  0  0  0  0
  -21.9913   -9.0272   20.4648 C   0  0  0  0  0  0
  -22.7234  -10.2151   20.3043 C   0  0  0  0  0  0
  -21.6879   -6.0741   22.5277 C   0  0  0  0  0  0
  -21.4024   -6.5637   23.8220 C   0  0  0  0  0  0
  -21.3650   -5.6792   24.9180 C   0  0  0  0  0  0
  -21.6037   -4.3049   24.7237 C   0  0  0  0  0  0
  -21.8823   -3.8147   23.4351 C   0  0  0  0  0  0
  -21.9202   -4.6960   22.3412 C   0  0  0  0  0  0
  -22.7847  -13.5264   21.1864 C   0  0  0  0  0  0
  -22.1668   -4.2159   21.0986 F   0  0  0  0  0  0
  -21.5623   -3.4527   25.7740 F   0  0  0  0  0  0
  -30.0225  -13.3084   20.4249 N   0  0  0  0  0  0
  -26.3001  -12.9385   20.3394 N   0  0  0  0  0  0
  -25.9300  -11.6538   20.5734 N   0  0  0  0  0  0
  -22.0470  -12.8275   22.0414 N   0  0  0  0  0  0
  -25.4218  -15.1935   20.4032 N   0  0  0  0  0  0
  -31.8595  -14.6371   20.2278 O   0  0  0  0  0  0
  -21.6653   -6.8879   21.4241 O   0  0  0  0  0  0
  -22.3516  -14.5570   20.6694 O   0  0  0  0  0  0
  -24.6125  -31.8675   23.2043 C   0  0  0  0  0  0
  -25.9011  -32.4830   23.8381 C   0  0  1  0  0  0
  -27.2478  -27.4357   20.1260 C   0  0  0  0  0  0
  -25.5879  -33.8630   24.2318 N   0  0  0  0  0  0
  -23.4061  -30.4785   21.5456 C   0  0  2  0  0  0
  -24.8610  -28.9462   20.1161 C   0  0  0  0  0  0
  -22.7442  -29.4577   22.4994 C   0  0  0  0  0  0
  -18.0248  -28.1398   22.8490 C   0  0  0  0  0  0
  -24.1486  -36.7322   23.2633 C   0  0  0  0  0  0
  -25.9289  -30.8361   21.3578 C   0  0  0  0  0  0
  -26.0145  -29.4656   20.7178 C   0  0  0  0  0  0
  -27.2109  -28.7155   20.7212 C   0  0  0  0  0  0
  -26.0813  -26.9242   19.5193 C   0  0  0  0  0  0
  -24.8893  -27.6754   19.5134 C   0  0  0  0  0  0
  -23.6199  -29.8076   20.1603 C   0  0  0  0  0  0
  -25.4108  -36.3122   24.0334 C   0  0  1  0  0  0
  -20.5838  -28.3635   23.1386 C   0  0  2  0  0  0
  -20.6750  -26.9385   22.5438 C   0  0  0  0  0  0
  -19.5727  -26.6382   21.5237 C   0  0  0  0  0  0
  -18.1906  -26.7943   22.1635 C   0  0  0  0  0  0
  -19.1500  -28.8838   23.2928 C   0  0  0  0  0  0
  -18.9422  -30.1453   23.8915 C   0  0  0  0  0  0
  -17.6422  -30.6598   24.0562 C   0  0  0  0  0  0
  -25.9029  -34.9486   23.5132 C   0  0  0  0  0  0
  -16.5316  -29.9098   23.6316 C   0  0  0  0  0  0
  -16.7242  -28.6522   23.0341 C   0  0  0  0  0  0
  -26.4450  -31.6627   25.0731 C   0  0  0  0  0  0
  -25.3696  -31.3765   26.1473 C   0  0  0  0  0  0
  -27.0293  -30.3069   24.6118 C   0  0  0  0  0  0
  -27.6029  -32.4353   25.7493 C   0  0  0  0  0  0
  -27.5584  -37.1813   24.8469 C   0  0  0  0  0  0
  -21.4152  -29.3001   22.3823 N   0  0  0  0  0  0
  -26.4294  -37.3802   23.9410 N   0  0  0  0  0  0
  -24.6662  -31.0751   22.0949 N   0  0  0  0  0  0
  -23.4230  -28.8130   23.3041 O   0  0  0  0  0  0
  -28.4252  -26.7260   20.0809 O   0  0  0  0  0  0
  -26.5598  -34.8936   22.4698 O   0  0  0  0  0  0
  -23.5297  -32.1456   23.7374 O   0  0  0  0  0  0
  -28.5266  -18.6722   22.9063 C   0  0  0  0  0  0
  -28.3046  -16.4032   22.0363 C   0  0  0  0  0  0
  -30.2077  -17.7783   21.3793 C   0  0  0  0  0  0
  -27.8177  -17.4577   22.8379 C   0  0  0  0  0  0
  -29.7268  -18.8403   22.1896 C   0  0  0  0  0  0
  -29.4983  -16.5520   21.2983 C   0  0  0  0  0  0
  -29.7167  -22.3676   21.6224 C   0  0  0  0  0  0
  -26.5306  -17.2901   23.6225 C   0  0  0  0  0  0
  -30.5190  -20.1316   22.3873 C   0  0  0  0  0  0
  -30.3427  -23.6148   20.9736 C   0  0  0  0  0  0
  -29.4196  -24.5054   20.0969 C   0  0  0  0  0  0
  -28.4791  -25.4982   20.8255 C   0  0  0  0  0  0
  -29.8720  -15.5723   20.3340 N   0  0  0  0  0  0
  -30.3408  -21.1960   21.3950 N   0  0  0  0  0  0
  -28.7707  -22.4853   22.4028 O   0  0  0  0  0  0
  -31.4672  -12.4111   19.1256 H   0  0  0  0  0  0
  -30.3072  -11.3039   19.8185 H   0  0  0  0  0  0
  -29.7402  -11.8015   17.4177 H   0  0  0  0  0  0
  -29.6561  -13.5077   17.7745 H   0  0  0  0  0  0
  -27.8092  -11.3188   18.7847 H   0  0  0  0  0  0
  -27.3761  -12.6679   17.7740 H   0  0  0  0  0  0
  -27.6916  -14.2562   19.5732 H   0  0  0  0  0  0
  -28.6893  -11.9547   21.3275 H   0  0  0  0  0  0
  -28.5143  -13.5827   21.8852 H   0  0  0  0  0  0
  -25.2755   -9.5736   22.4763 H   0  0  0  0  0  0
  -24.0010   -7.4677   22.7472 H   0  0  0  0  0  0
  -21.0835   -8.8791   19.8988 H   0  0  0  0  0  0
  -22.3668  -10.9690   19.6161 H   0  0  0  0  0  0
  -21.2021   -7.6147   23.9729 H   0  0  0  0  0  0
  -21.1457   -6.0510   25.9087 H   0  0  0  0  0  0
  -22.0607   -2.7604   23.2852 H   0  0  0  0  0  0
  -22.4047  -11.9939   22.4847 H   0  0  0  0  0  0
  -21.1071  -13.1309   22.2564 H   0  0  0  0  0  0
  -24.6435  -15.8390   20.4818 H   0  0  0  0  0  0
  -26.2719  -15.6397   20.0827 H   0  0  0  0  0  0
  -26.7105  -32.5574   23.1173 H   0  0  0  0  0  0
  -25.0089  -33.9808   25.0504 H   0  0  0  0  0  0
  -22.6937  -31.2917   21.3995 H   0  0  0  0  0  0
  -23.3745  -35.9658   23.3321 H   0  0  0  0  0  0
  -24.3557  -36.8911   22.2037 H   0  0  0  0  0  0
  -23.7252  -37.6535   23.6644 H   0  0  0  0  0  0
  -26.0335  -31.5919   20.5775 H   0  0  0  0  0  0
  -26.8185  -30.9054   21.9708 H   0  0  0  0  0  0
  -28.1037  -29.1106   21.1869 H   0  0  0  0  0  0
  -26.1031  -25.9538   19.0444 H   0  0  0  0  0  0
  -24.0045  -27.2721   19.0419 H   0  0  0  0  0  0
  -23.7325  -30.5801   19.3984 H   0  0  0  0  0  0
  -22.7523  -29.2159   19.8623 H   0  0  0  0  0  0
  -25.1277  -36.1986   25.0823 H   0  0  0  0  0  0
  -20.9880  -28.3131   24.1533 H   0  0  0  0  0  0
  -20.5682  -26.2214   23.3590 H   0  0  0  0  0  0
  -21.6628  -26.7476   22.1216 H   0  0  0  0  0  0
  -19.6881  -25.6294   21.1264 H   0  0  0  0  0  0
  -19.6687  -27.3206   20.6782 H   0  0  0  0  0  0
  -17.4193  -26.6687   21.4024 H   0  0  0  0  0  0
  -18.0280  -26.0101   22.9040 H   0  0  0  0  0  0
  -19.7884  -30.7278   24.2311 H   0  0  0  0  0  0
  -17.4960  -31.6267   24.5185 H   0  0  0  0  0  0
  -15.5319  -30.3015   23.7616 H   0  0  0  0  0  0
  -15.8635  -28.0841   22.7069 H   0  0  0  0  0  0
  -24.5845  -30.7158   25.7788 H   0  0  0  0  0  0
  -24.8913  -32.2945   26.4896 H   0  0  0  0  0  0
  -25.7985  -30.8925   27.0258 H   0  0  0  0  0  0
  -26.2865  -29.6834   24.1126 H   0  0  0  0  0  0
  -27.4050  -29.7295   25.4578 H   0  0  0  0  0  0
  -27.8690  -30.4413   23.9296 H   0  0  0  0  0  0
  -27.2669  -33.3653   26.2089 H   0  0  0  0  0  0
  -28.3813  -32.6915   25.0302 H   0  0  0  0  0  0
  -28.0752  -31.8494   26.5385 H   0  0  0  0  0  0
  -28.2613  -38.0098   24.7504 H   0  0  0  0  0  0
  -28.1077  -36.2633   24.6310 H   0  0  0  0  0  0
  -27.2318  -37.1488   25.8879 H   0  0  0  0  0  0
  -20.9327  -29.8769   21.7076 H   0  0  0  0  0  0
  -26.0189  -38.2888   24.1381 H   0  0  0  0  0  0
  -28.1582  -19.4802   23.5241 H   0  0  0  0  0  0
  -27.7168  -15.5046   21.9623 H   0  0  0  0  0  0
  -31.1229  -17.9115   20.8183 H   0  0  0  0  0  0
  -26.0674  -18.2572   23.8219 H   0  0  0  0  0  0
  -26.7356  -16.8142   24.5823 H   0  0  0  0  0  0
  -25.8050  -16.6833   23.0791 H   0  0  0  0  0  0
  -31.5792  -19.8781   22.3852 H   0  0  0  0  0  0
  -30.3211  -20.5220   23.3879 H   0  0  0  0  0  0
  -31.1832  -23.2753   20.3657 H   0  0  0  0  0  0
  -30.7935  -24.2175   21.7649 H   0  0  0  0  0  0
  -28.8383  -23.8877   19.4139 H   0  0  0  0  0  0
  -30.0823  -25.0906   19.4580 H   0  0  0  0  0  0
  -28.8766  -25.7393   21.8116 H   0  0  0  0  0  0
  -27.4950  -25.0547   20.9918 H   0  0  0  0  0  0
  -30.2205  -16.0396   19.5110 H   0  0  0  0  0  0
  -31.0451  -21.2055   20.6697 H   0  0  0  0  0  0
  1 25  1  0  0  0
  1 30  2  0  0  0
  1 83  1  0  0  0
  2  3  1  0  0  0
  2 25  1  0  0  0
  2 86  1  0  0  0
  2 87  1  0  0  0
  3  4  1  0  0  0
  3 88  1  0  0  0
  3 89  1  0  0  0
  4  5  1  0  0  0
  4 90  1  0  0  0
  4 91  1  0  0  0
  5  6  1  0  0  0
  5 26  1  0  0  0
  5 92  1  0  0  0
  6 25  1  0  0  0
  6 93  1  0  0  0
  6 94  1  0  0  0
  7  8  2  0  0  0
  7 26  1  0  0  0
  7 29  1  0  0  0
  8  9  1  0  0  0
  8 22  1  0  0  0
  9 10  1  0  0  0
  9 27  2  0  0  0
 10 11  2  0  0  0
 10 15  1  0  0  0
 11 12  1  0  0  0
 11 95  1  0  0  0
 12 13  2  0  0  0
 12 96  1  0  0  0
 13 14  1  0  0  0
 13 31  1  0  0  0
 14 15  2  0  0  0
 14 97  1  0  0  0
 15 98  1  0  0  0
 16 17  2  0  0  0
 16 21  1  0  0  0
 16 31  1  0  0  0
 17 18  1  0  0  0
 17 99  1  0  0  0
 18 19  2  0  0  0
 18100  1  0  0  0
 19 20  1  0  0  0
 19 24  1  0  0  0
 20 21  2  0  0  0
 20101  1  0  0  0
 21 23  1  0  0  0
 22 28  1  0  0  0
 22 32  2  0  0  0
 26 27  1  0  0  0
 28102  1  0  0  0
 28103  1  0  0  0
 29104  1  0  0  0
 29105  1  0  0  0
 33 34  1  0  0  0
 33 66  1  0  0  0
 33 70  2  0  0  0
 34 36  1  0  0  0
 34 59  1  0  0  0
 34106  1  0  0  0
 35 44  2  0  0  0
 35 45  1  0  0  0
 35 68  1  0  0  0
 36 56  1  0  0  0
 36107  1  0  0  0
 37 39  1  0  0  0
 37 47  1  0  0  0
 37 66  1  0  0  0
 37108  1  0  0  0
 38 43  2  0  0  0
 38 46  1  0  0  0
 38 47  1  0  0  0
 39 64  1  0  0  0
 39 67  2  0  0  0
 40 52  1  0  0  0
 40 53  2  0  0  0
 40 58  1  0  0  0
 41109  1  0  0  0
 41110  1  0  0  0
 41111  1  0  0  0
 41 48  1  0  0  0
 42 43  1  0  0  0
 42 66  1  0  0  0
 42112  1  0  0  0
 42113  1  0  0  0
 43 44  1  0  0  0
 44114  1  0  0  0
 45 46  2  0  0  0
 45115  1  0  0  0
 46116  1  0  0  0
 47117  1  0  0  0
 47118  1  0  0  0
 48 56  1  0  0  0
 48 65  1  0  0  0
 48119  1  0  0  0
 49 50  1  0  0  0
 49 53  1  0  0  0
 49 64  1  0  0  0
 49120  1  0  0  0
 50 51  1  0  0  0
 50121  1  0  0  0
 50122  1  0  0  0
 51 52  1  0  0  0
 51123  1  0  0  0
 51124  1  0  0  0
 52125  1  0  0  0
 52126  1  0  0  0
 53 54  1  0  0  0
 54 55  2  0  0  0
 54127  1  0  0  0
 55 57  1  0  0  0
 55128  1  0  0  0
 56 69  2  0  0  0
 57 58  2  0  0  0
 57129  1  0  0  0
 58130  1  0  0  0
 59 60  1  0  0  0
 59 61  1  0  0  0
 59 62  1  0  0  0
 60131  1  0  0  0
 60132  1  0  0  0
 60133  1  0  0  0
 61134  1  0  0  0
 61135  1  0  0  0
 61136  1  0  0  0
 62137  1  0  0  0
 62138  1  0  0  0
 62139  1  0  0  0
 63 65  1  0  0  0
 63140  1  0  0  0
 63141  1  0  0  0
 63142  1  0  0  0
 64143  1  0  0  0
 65144  1  0  0  0
 68 82  1  0  0  0
 71 74  2  0  0  0
 71 75  1  0  0  0
 71145  1  0  0  0
 72 74  1  0  0  0
 72 76  2  0  0  0
 72146  1  0  0  0
 73 75  2  0  0  0
 73 76  1  0  0  0
 73147  1  0  0  0
 74 78  1  0  0  0
 75 79  1  0  0  0
 76 83  1  0  0  0
 77 80  1  0  0  0
 77 84  1  0  0  0
 77 85  2  0  0  0
 78148  1  0  0  0
 78149  1  0  0  0
 78150  1  0  0  0
 79 84  1  0  0  0
 79151  1  0  0  0
 79152  1  0  0  0
 80 81  1  0  0  0
 80153  1  0  0  0
 80154  1  0  0  0
 81 82  1  0  0  0
 81155  1  0  0  0
 81156  1  0  0  0
 82157  1  0  0  0
 82158  1  0  0  0
 83159  1  0  0  0
 84160  1  0  0  0
M  ISO  4   1 100  68 101  82 101  83 100
M  END
> <chiral flag>
0

> <version>
0

> <s_m_source_file>
/data/baiqing/PycharmProjects/Reinvent-master-3.2/result/LINK_invent/BTK/process_docking_weight1_custom_product_contain_oxygen_bond_distance_aromatic_linkinvent_7_9_3/rearranged_h_0053.sdf

> <i_m_source_file_index>
8

> <r_mmod_Potential_Energy-OPLS-2005>
-59.2720909118652

> <r_mmod_Stretch_Energy-OPLS-2005>
36.3127784729004

> <r_mmod_Bend_Energy-OPLS-2005>
116.319862365723

> <r_mmod_Torsional_Energy-OPLS-2005>
319.395233154297

> <r_mmod_Improper_Torsional_Energy-OPLS-2005>
29.1720104217529

> <r_mmod_Van_der_Waal_Energy-OPLS-2005>
131.775421142578

> <r_mmod_Electrostatic_Energy-OPLS-2005>
-485.365112304688

> <r_mmod_Solvation_Energy-OPLS-2005>
-225.235260009766

> <b_mmod_Minimization_Converged-OPLS-2005>
0

> <r_mmod_RMS_Derivative-OPLS-2005>
3.76870203018188

$$$$
8
                    3D
 Structure written by MMmdl.
163171  0  0  1  0            999 V2000
  -30.7080  -14.4290   20.5947 C   0  0  0  0  0  0
  -30.4219  -12.2598   19.4427 C   0  0  0  0  0  0
  -29.4969  -12.4505   18.2192 C   0  0  0  0  0  0
  -28.0278  -12.2795   18.6475 C   0  0  0  0  0  0
  -27.6616  -13.1693   19.8621 C   0  0  2  0  0  0
  -28.6899  -12.9720   20.9993 C   0  0  0  0  0  0
  -25.2633  -13.8055   20.5671 C   0  0  0  0  0  0
  -24.1843  -13.0428   20.9146 C   0  0  0  0  0  0
  -24.6329  -11.6863   20.8701 C   0  0  0  0  0  0
  -23.9015  -10.4282   21.0384 C   0  0  0  0  0  0
  -24.3573   -9.4209   21.9179 C   0  0  0  0  0  0
  -23.6267   -8.2235   22.0763 C   0  0  0  0  0  0
  -22.4262   -8.0243   21.3535 C   0  0  0  0  0  0
  -21.9879   -9.0215   20.4651 C   0  0  0  0  0  0
  -22.7191  -10.2101   20.3051 C   0  0  0  0  0  0
  -21.6826   -6.0722   22.5279 C   0  0  0  0  0  0
  -21.4009   -6.5628   23.8221 C   0  0  0  0  0  0
  -21.3680   -5.6776   24.9182 C   0  0  0  0  0  0
  -21.6037   -4.3037   24.7214 C   0  0  0  0  0  0
  -21.8819   -3.8135   23.4334 C   0  0  0  0  0  0
  -21.9195   -4.6956   22.3396 C   0  0  0  0  0  0
  -22.7863  -13.5239   21.1831 C   0  0  0  0  0  0
  -22.1651   -4.2134   21.0972 F   0  0  0  0  0  0
  -21.5646   -3.4542   25.7739 F   0  0  0  0  0  0
  -30.0378  -13.2485   20.4634 N   0  0  0  0  0  0
  -26.3013  -12.9168   20.3272 N   0  0  0  0  0  0
  -25.9234  -11.6369   20.5729 N   0  0  0  0  0  0
  -22.0495  -12.8234   22.0367 N   0  0  0  0  0  0
  -25.4449  -15.1776   20.4130 N   0  0  0  0  0  0
  -31.7840  -14.6671   20.0357 O   0  0  0  0  0  0
  -21.6621   -6.8850   21.4235 O   0  0  0  0  0  0
  -22.3579  -14.5590   20.6712 O   0  0  0  0  0  0
  -24.6126  -31.8724   23.2165 C   0  0  0  0  0  0
  -25.9038  -32.4841   23.8477 C   0  0  1  0  0  0
  -27.2086  -27.4190   20.0713 C   0  0  0  0  0  0
  -25.5910  -33.8650   24.2334 N   0  0  0  0  0  0
  -23.4000  -30.4978   21.5521 C   0  0  2  0  0  0
  -24.8493  -28.9943   20.0888 C   0  0  0  0  0  0
  -22.7424  -29.4620   22.4944 C   0  0  0  0  0  0
  -18.0238  -28.1501   22.8245 C   0  0  0  0  0  0
  -24.1478  -36.7241   23.2622 C   0  0  0  0  0  0
  -25.9383  -30.8251   21.3983 C   0  0  0  0  0  0
  -26.0084  -29.4730   20.7119 C   0  0  0  0  0  0
  -27.1857  -28.6840   20.7166 C   0  0  0  0  0  0
  -26.0521  -27.0293   19.3570 C   0  0  0  0  0  0
  -24.8688  -27.7756   19.4030 C   0  0  0  0  0  0
  -23.6094  -29.8515   20.1654 C   0  0  0  0  0  0
  -25.4111  -36.3073   24.0300 C   0  0  1  0  0  0
  -20.5845  -28.3647   23.1124 C   0  0  2  0  0  0
  -20.6607  -26.9224   22.5423 C   0  0  0  0  0  0
  -19.5694  -26.6017   21.5269 C   0  0  0  0  0  0
  -18.1766  -26.8093   22.1214 C   0  0  0  0  0  0
  -19.1497  -28.8894   23.2706 C   0  0  0  0  0  0
  -18.9367  -30.1468   23.8767 C   0  0  0  0  0  0
  -17.6362  -30.6513   24.0638 C   0  0  0  0  0  0
  -25.9063  -34.9465   23.5092 C   0  0  0  0  0  0
  -16.5254  -29.8946   23.6492 C   0  0  0  0  0  0
  -16.7239  -28.6530   23.0186 C   0  0  0  0  0  0
  -26.4509  -31.6661   25.0815 C   0  0  0  0  0  0
  -25.3707  -31.3768   26.1496 C   0  0  0  0  0  0
  -27.0366  -30.3048   24.6331 C   0  0  0  0  0  0
  -27.6090  -32.4441   25.7532 C   0  0  0  0  0  0
  -27.5586  -37.1772   24.8480 C   0  0  0  0  0  0
  -21.4201  -29.2840   22.3444 N   0  0  0  0  0  0
  -26.4308  -37.3751   23.9398 N   0  0  0  0  0  0
  -24.6662  -31.0793   22.1104 N   0  0  0  0  0  0
  -23.4161  -28.8302   23.3157 O   0  0  0  0  0  0
  -28.3075  -26.5794   20.1818 O   0  0  0  0  0  0
  -26.5647  -34.8903   22.4658 O   0  0  0  0  0  0
  -23.5319  -32.1565   23.7508 O   0  0  0  0  0  0
  -29.6959  -19.0510   21.5774 C   0  0  0  0  0  0
  -30.1865  -17.7483   21.8215 C   0  0  0  0  0  0
  -29.0167  -16.9546   19.8453 C   0  0  0  0  0  0
  -28.7918  -19.3099   20.5200 C   0  0  0  0  0  0
  -28.4863  -18.2477   19.6187 C   0  0  0  0  0  0
  -29.8169  -16.6820   20.9766 C   0  0  0  0  0  0
  -28.0269  -20.6201   20.5127 C   0  0  0  0  0  0
  -27.5469  -18.4260   18.4347 C   0  0  0  0  0  0
  -26.3528  -24.6791   21.3926 C   0  0  0  0  0  0
  -26.5504  -23.3566   19.2527 C   0  0  0  0  0  0
  -28.2065  -23.0370   21.2017 C   0  0  0  0  0  0
  -28.2401  -25.2139   19.6609 C   0  0  0  0  0  0
  -27.3569  -24.0791   20.3611 C   0  0  0  0  0  0
  -30.0977  -15.3400   21.3627 N   0  0  0  0  0  0
  -28.7135  -21.7800   20.5846 N   0  0  0  0  0  0
  -26.7950  -20.5828   20.5341 O   0  0  0  0  0  0
  -31.4728  -12.3336   19.1562 H   0  0  0  0  0  0
  -30.2961  -11.2539   19.8470 H   0  0  0  0  0  0
  -29.7487  -11.7143   17.4539 H   0  0  0  0  0  0
  -29.6480  -13.4328   17.7741 H   0  0  0  0  0  0
  -27.8981  -11.2327   18.9276 H   0  0  0  0  0  0
  -27.3528  -12.4512   17.8098 H   0  0  0  0  0  0
  -27.7114  -14.2020   19.5228 H   0  0  0  0  0  0
  -28.6478  -11.9449   21.3666 H   0  0  0  0  0  0
  -28.4214  -13.5821   21.8604 H   0  0  0  0  0  0
  -25.2712   -9.5678   22.4771 H   0  0  0  0  0  0
  -23.9973   -7.4617   22.7472 H   0  0  0  0  0  0
  -21.0829   -8.8709   19.8939 H   0  0  0  0  0  0
  -22.3643  -10.9630   19.6156 H   0  0  0  0  0  0
  -21.1986   -7.6139   23.9702 H   0  0  0  0  0  0
  -21.1516   -6.0522   25.9073 H   0  0  0  0  0  0
  -22.0584   -2.7606   23.2838 H   0  0  0  0  0  0
  -22.4071  -11.9857   22.4725 H   0  0  0  0  0  0
  -21.1108  -13.1254   22.2573 H   0  0  0  0  0  0
  -24.6886  -15.8401   20.5457 H   0  0  0  0  0  0
  -26.3251  -15.6180   20.1727 H   0  0  0  0  0  0
  -26.7079  -32.5566   23.1230 H   0  0  0  0  0  0
  -25.0004  -33.9832   25.0447 H   0  0  0  0  0  0
  -22.6842  -31.3055   21.4199 H   0  0  0  0  0  0
  -23.3762  -35.9575   23.3323 H   0  0  0  0  0  0
  -24.3554  -36.8823   22.2042 H   0  0  0  0  0  0
  -23.7283  -37.6440   23.6656 H   0  0  0  0  0  0
  -26.1061  -31.6158   20.6650 H   0  0  0  0  0  0
  -26.7981  -30.8297   22.0531 H   0  0  0  0  0  0
  -28.0630  -29.0373   21.2403 H   0  0  0  0  0  0
  -26.0054  -26.1207   18.7930 H   0  0  0  0  0  0
  -23.9929  -27.4064   18.8899 H   0  0  0  0  0  0
  -23.7060  -30.6322   19.4147 H   0  0  0  0  0  0
  -22.7357  -29.2609   19.8793 H   0  0  0  0  0  0
  -25.1339  -36.1886   25.0811 H   0  0  0  0  0  0
  -21.0121  -28.3449   24.1227 H   0  0  0  0  0  0
  -20.5259  -26.2207   23.3655 H   0  0  0  0  0  0
  -21.6538  -26.7038   22.1346 H   0  0  0  0  0  0
  -19.6610  -25.5718   21.1774 H   0  0  0  0  0  0
  -19.7036  -27.2388   20.6524 H   0  0  0  0  0  0
  -17.4316  -26.7259   21.3298 H   0  0  0  0  0  0
  -17.9522  -26.0210   22.8431 H   0  0  0  0  0  0
  -19.7791  -30.7386   24.1986 H   0  0  0  0  0  0
  -17.4909  -31.6138   24.5403 H   0  0  0  0  0  0
  -15.5207  -30.2702   23.8049 H   0  0  0  0  0  0
  -15.8693  -28.0856   22.6714 H   0  0  0  0  0  0
  -24.5857  -30.7197   25.7686 H   0  0  0  0  0  0
  -24.8974  -32.2957   26.4973 H   0  0  0  0  0  0
  -25.7992  -30.8816   27.0219 H   0  0  0  0  0  0
  -26.2949  -29.6720   24.1405 H   0  0  0  0  0  0
  -27.4008  -29.7422   25.4948 H   0  0  0  0  0  0
  -27.8883  -30.4227   23.9615 H   0  0  0  0  0  0
  -27.2665  -33.3668   26.2217 H   0  0  0  0  0  0
  -28.3814  -32.7129   25.0307 H   0  0  0  0  0  0
  -28.0891  -31.8562   26.5358 H   0  0  0  0  0  0
  -28.2629  -38.0031   24.7520 H   0  0  0  0  0  0
  -28.1056  -36.2587   24.6344 H   0  0  0  0  0  0
  -27.2303  -37.1453   25.8874 H   0  0  0  0  0  0
  -20.9469  -29.8342   21.6394 H   0  0  0  0  0  0
  -26.0158  -38.2810   24.1385 H   0  0  0  0  0  0
  -29.9461  -19.8355   22.2805 H   0  0  0  0  0  0
  -30.7997  -17.5631   22.6923 H   0  0  0  0  0  0
  -28.7461  -16.1575   19.1655 H   0  0  0  0  0  0
  -27.6603  -17.6034   17.7227 H   0  0  0  0  0  0
  -27.7626  -19.3485   17.8997 H   0  0  0  0  0  0
  -26.5013  -18.4358   18.7471 H   0  0  0  0  0  0
  -25.8335  -23.9209   21.9706 H   0  0  0  0  0  0
  -25.5551  -25.2618   20.9477 H   0  0  0  0  0  0
  -26.8655  -25.3194   22.1054 H   0  0  0  0  0  0
  -25.7819  -22.7034   19.6573 H   0  0  0  0  0  0
  -27.1948  -22.7433   18.6201 H   0  0  0  0  0  0
  -26.0346  -24.0351   18.5809 H   0  0  0  0  0  0
  -27.6208  -22.7028   22.0594 H   0  0  0  0  0  0
  -29.0386  -23.5618   21.6593 H   0  0  0  0  0  0
  -27.9613  -25.2938   18.6092 H   0  0  0  0  0  0
  -29.2740  -24.8620   19.5917 H   0  0  0  0  0  0
  -29.3819  -14.9357   21.9490 H   0  0  0  0  0  0
  -29.7170  -21.7019   20.5076 H   0  0  0  0  0  0
  1 25  1  0  0  0
  1 30  2  0  0  0
  1 84  1  0  0  0
  2  3  1  0  0  0
  2 25  1  0  0  0
  2 87  1  0  0  0
  2 88  1  0  0  0
  3  4  1  0  0  0
  3 89  1  0  0  0
  3 90  1  0  0  0
  4  5  1  0  0  0
  4 91  1  0  0  0
  4 92  1  0  0  0
  5  6  1  0  0  0
  5 26  1  0  0  0
  5 93  1  0  0  0
  6 25  1  0  0  0
  6 94  1  0  0  0
  6 95  1  0  0  0
  7  8  2  0  0  0
  7 26  1  0  0  0
  7 29  1  0  0  0
  8  9  1  0  0  0
  8 22  1  0  0  0
  9 10  1  0  0  0
  9 27  2  0  0  0
 10 11  2  0  0  0
 10 15  1  0  0  0
 11 12  1  0  0  0
 11 96  1  0  0  0
 12 13  2  0  0  0
 12 97  1  0  0  0
 13 14  1  0  0  0
 13 31  1  0  0  0
 14 15  2  0  0  0
 14 98  1  0  0  0
 15 99  1  0  0  0
 16 17  2  0  0  0
 16 21  1  0  0  0
 16 31  1  0  0  0
 17 18  1  0  0  0
 17100  1  0  0  0
 18 19  2  0  0  0
 18101  1  0  0  0
 19 20  1  0  0  0
 19 24  1  0  0  0
 20 21  2  0  0  0
 20102  1  0  0  0
 21 23  1  0  0  0
 22 28  1  0  0  0
 22 32  2  0  0  0
 26 27  1  0  0  0
 28103  1  0  0  0
 28104  1  0  0  0
 29105  1  0  0  0
 29106  1  0  0  0
 33 34  1  0  0  0
 33 66  1  0  0  0
 33 70  2  0  0  0
 34 36  1  0  0  0
 34 59  1  0  0  0
 34107  1  0  0  0
 35 44  2  0  0  0
 35 45  1  0  0  0
 35 68  1  0  0  0
 36 56  1  0  0  0
 36108  1  0  0  0
 37 39  1  0  0  0
 37 47  1  0  0  0
 37 66  1  0  0  0
 37109  1  0  0  0
 38 43  2  0  0  0
 38 46  1  0  0  0
 38 47  1  0  0  0
 39 64  1  0  0  0
 39 67  2  0  0  0
 40 52  1  0  0  0
 40 53  2  0  0  0
 40 58  1  0  0  0
 41110  1  0  0  0
 41111  1  0  0  0
 41112  1  0  0  0
 41 48  1  0  0  0
 42 43  1  0  0  0
 42 66  1  0  0  0
 42113  1  0  0  0
 42114  1  0  0  0
 43 44  1  0  0  0
 44115  1  0  0  0
 45 46  2  0  0  0
 45116  1  0  0  0
 46117  1  0  0  0
 47118  1  0  0  0
 47119  1  0  0  0
 48 56  1  0  0  0
 48 65  1  0  0  0
 48120  1  0  0  0
 49 50  1  0  0  0
 49 53  1  0  0  0
 49 64  1  0  0  0
 49121  1  0  0  0
 50 51  1  0  0  0
 50122  1  0  0  0
 50123  1  0  0  0
 51 52  1  0  0  0
 51124  1  0  0  0
 51125  1  0  0  0
 52126  1  0  0  0
 52127  1  0  0  0
 53 54  1  0  0  0
 54 55  2  0  0  0
 54128  1  0  0  0
 55 57  1  0  0  0
 55129  1  0  0  0
 56 69  2  0  0  0
 57 58  2  0  0  0
 57130  1  0  0  0
 58131  1  0  0  0
 59 60  1  0  0  0
 59 61  1  0  0  0
 59 62  1  0  0  0
 60132  1  0  0  0
 60133  1  0  0  0
 60134  1  0  0  0
 61135  1  0  0  0
 61136  1  0  0  0
 61137  1  0  0  0
 62138  1  0  0  0
 62139  1  0  0  0
 62140  1  0  0  0
 63 65  1  0  0  0
 63141  1  0  0  0
 63142  1  0  0  0
 63143  1  0  0  0
 64144  1  0  0  0
 65145  1  0  0  0
 68 82  1  0  0  0
 71 72  2  0  0  0
 71 74  1  0  0  0
 71146  1  0  0  0
 72 76  1  0  0  0
 72147  1  0  0  0
 73 75  1  0  0  0
 73 76  2  0  0  0
 73148  1  0  0  0
 74 75  2  0  0  0
 74 77  1  0  0  0
 75 78  1  0  0  0
 76 84  1  0  0  0
 77 85  1  0  0  0
 77 86  2  0  0  0
 78149  1  0  0  0
 78150  1  0  0  0
 78151  1  0  0  0
 79152  1  0  0  0
 79153  1  0  0  0
 79154  1  0  0  0
 79 83  1  0  0  0
 80 83  1  0  0  0
 80155  1  0  0  0
 80156  1  0  0  0
 80157  1  0  0  0
 81 83  1  0  0  0
 81 85  1  0  0  0
 81158  1  0  0  0
 81159  1  0  0  0
 82 83  1  0  0  0
 82160  1  0  0  0
 82161  1  0  0  0
 84162  1  0  0  0
 85163  1  0  0  0
M  ISO  4   1 100  68 101  82 101  84 100
M  END
> <chiral flag>
0

> <version>
0

> <s_m_source_file>
/data/baiqing/PycharmProjects/Reinvent-master-3.2/result/LINK_invent/BTK/process_docking_weight1_custom_product_contain_oxygen_bond_distance_aromatic_linkinvent_7_9_3/rearranged_h_0053.sdf

> <i_m_source_file_index>
9

> <r_mmod_Potential_Energy-OPLS-2005>
62.6583137512207

> <r_mmod_Stretch_Energy-OPLS-2005>
54.474723815918

> <r_mmod_Bend_Energy-OPLS-2005>
134.857818603516

> <r_mmod_Torsional_Energy-OPLS-2005>
304.745758056641

> <r_mmod_Improper_Torsional_Energy-OPLS-2005>
8.63655090332031

> <r_mmod_Van_der_Waal_Energy-OPLS-2005>
169.286712646484

> <r_mmod_Electrostatic_Energy-OPLS-2005>
-412.283508300781

> <r_mmod_Solvation_Energy-OPLS-2005>
-222.621276855469

> <b_mmod_Minimization_Converged-OPLS-2005>
0

> <r_mmod_RMS_Derivative-OPLS-2005>
10.4536085128784

$$$$
9
                    3D
 Structure written by MMmdl.
160168  0  0  1  0            999 V2000
  -30.6856  -14.4940   20.5436 C   0  0  0  0  0  0
  -30.4189  -12.3087   19.4260 C   0  0  0  0  0  0
  -29.4946  -12.5115   18.2075 C   0  0  0  0  0  0
  -28.0124  -12.3772   18.6122 C   0  0  0  0  0  0
  -27.6587  -13.2049   19.8767 C   0  0  2  0  0  0
  -28.7058  -12.9962   20.9960 C   0  0  0  0  0  0
  -25.2567  -13.8128   20.5701 C   0  0  0  0  0  0
  -24.1821  -13.0410   20.9200 C   0  0  0  0  0  0
  -24.6373  -11.6879   20.8761 C   0  0  0  0  0  0
  -23.9040  -10.4276   21.0389 C   0  0  0  0  0  0
  -24.3599   -9.4208   21.9172 C   0  0  0  0  0  0
  -23.6286   -8.2243   22.0749 C   0  0  0  0  0  0
  -22.4282   -8.0270   21.3536 C   0  0  0  0  0  0
  -21.9905   -9.0237   20.4644 C   0  0  0  0  0  0
  -22.7209  -10.2125   20.3041 C   0  0  0  0  0  0
  -21.6854   -6.0734   22.5278 C   0  0  0  0  0  0
  -21.4017   -6.5644   23.8214 C   0  0  0  0  0  0
  -21.3661   -5.6789   24.9172 C   0  0  0  0  0  0
  -21.6042   -4.3049   24.7217 C   0  0  0  0  0  0
  -21.8817   -3.8147   23.4339 C   0  0  0  0  0  0
  -21.9198   -4.6963   22.3396 C   0  0  0  0  0  0
  -22.7846  -13.5238   21.1823 C   0  0  0  0  0  0
  -22.1651   -4.2154   21.0971 F   0  0  0  0  0  0
  -21.5643   -3.4536   25.7724 F   0  0  0  0  0  0
  -30.0312  -13.3052   20.4357 N   0  0  0  0  0  0
  -26.3012  -12.9302   20.3396 N   0  0  0  0  0  0
  -25.9317  -11.6467   20.5801 N   0  0  0  0  0  0
  -22.0440  -12.8269   22.0378 N   0  0  0  0  0  0
  -25.4266  -15.1841   20.4086 N   0  0  0  0  0  0
  -31.8356  -14.6585   20.1237 O   0  0  0  0  0  0
  -21.6648   -6.8871   21.4239 O   0  0  0  0  0  0
  -22.3561  -14.5548   20.6647 O   0  0  0  0  0  0
  -24.6201  -31.8667   23.2118 C   0  0  0  0  0  0
  -25.9080  -32.4808   23.8416 C   0  0  1  0  0  0
  -27.2119  -27.3845   20.0715 C   0  0  0  0  0  0
  -25.5916  -33.8610   24.2315 N   0  0  0  0  0  0
  -23.4065  -30.4986   21.5548 C   0  0  2  0  0  0
  -24.8429  -28.9698   20.1109 C   0  0  0  0  0  0
  -22.7427  -29.4669   22.4960 C   0  0  0  0  0  0
  -18.0267  -28.1375   22.8493 C   0  0  0  0  0  0
  -24.1465  -36.7305   23.2643 C   0  0  0  0  0  0
  -25.9460  -30.8123   21.3790 C   0  0  0  0  0  0
  -26.0120  -29.4500   20.7122 C   0  0  0  0  0  0
  -27.1945  -28.6649   20.6932 C   0  0  0  0  0  0
  -26.0095  -26.9369   19.4704 C   0  0  0  0  0  0
  -24.8398  -27.7149   19.4896 C   0  0  0  0  0  0
  -23.6147  -29.8477   20.1637 C   0  0  0  0  0  0
  -25.4096  -36.3096   24.0330 C   0  0  1  0  0  0
  -20.5862  -28.3672   23.1281 C   0  0  2  0  0  0
  -20.6746  -26.9400   22.5393 C   0  0  0  0  0  0
  -19.5723  -26.6378   21.5193 C   0  0  0  0  0  0
  -18.1913  -26.7914   22.1623 C   0  0  0  0  0  0
  -19.1526  -28.8837   23.2886 C   0  0  0  0  0  0
  -18.9456  -30.1435   23.8909 C   0  0  0  0  0  0
  -17.6457  -30.6577   24.0569 C   0  0  0  0  0  0
  -25.9038  -34.9469   23.5114 C   0  0  0  0  0  0
  -16.5345  -29.9086   23.6325 C   0  0  0  0  0  0
  -16.7251  -28.6498   23.0355 C   0  0  0  0  0  0
  -26.4486  -31.6624   25.0785 C   0  0  0  0  0  0
  -25.3743  -31.3762   26.1534 C   0  0  0  0  0  0
  -27.0351  -30.3056   24.6249 C   0  0  0  0  0  0
  -27.6034  -32.4394   25.7550 C   0  0  0  0  0  0
  -27.5564  -37.1807   24.8460 C   0  0  0  0  0  0
  -21.4148  -29.3052   22.3702 N   0  0  0  0  0  0
  -26.4261  -37.3799   23.9412 N   0  0  0  0  0  0
  -24.6758  -31.0744   22.1040 N   0  0  0  0  0  0
  -23.4181  -28.8176   23.2993 O   0  0  0  0  0  0
  -28.3727  -26.6129   20.1055 O   0  0  0  0  0  0
  -26.5611  -34.8916   22.4680 O   0  0  0  0  0  0
  -23.5383  -32.1448   23.7485 O   0  0  0  0  0  0
  -31.8116  -18.6438   21.8681 C   0  0  0  0  0  0
  -30.8790  -19.6449   21.5530 C   0  0  0  0  0  0
  -31.5076  -17.2943   21.6302 C   0  0  0  0  0  0
  -29.6478  -19.3336   20.9315 C   0  0  0  0  0  0
  -29.3555  -17.9500   20.6539 C   0  0  0  0  0  0
  -30.2718  -16.9242   21.0523 C   0  0  0  0  0  0
  -28.6738  -20.4791   20.6830 C   0  0  0  0  0  0
  -28.0911  -17.5520   19.8916 C   0  0  0  0  0  0
  -30.1286  -24.6128   21.1126 C   0  0  0  0  0  0
  -28.4304  -22.9286   20.1446 C   0  0  0  0  0  0
  -28.5101  -25.4206   19.2795 C   0  0  0  0  0  0
  -29.3008  -24.2069   19.8836 C   0  0  1  0  0  0
  -29.9246  -15.5328   20.9590 N   0  0  0  0  0  0
  -29.2006  -21.6838   20.3702 N   0  0  0  0  0  0
  -27.4560  -20.3108   20.7830 O   0  0  0  0  0  0
  -31.4642  -12.4039   19.1286 H   0  0  0  0  0  0
  -30.3109  -11.2995   19.8264 H   0  0  0  0  0  0
  -29.7376  -11.7982   17.4201 H   0  0  0  0  0  0
  -29.6679  -13.5010   17.7842 H   0  0  0  0  0  0
  -27.8025  -11.3217   18.7831 H   0  0  0  0  0  0
  -27.3711  -12.6817   17.7818 H   0  0  0  0  0  0
  -27.6934  -14.2512   19.5788 H   0  0  0  0  0  0
  -28.6906  -11.9626   21.3434 H   0  0  0  0  0  0
  -28.4734  -13.6068   21.8706 H   0  0  0  0  0  0
  -25.2711   -9.5724   22.4775 H   0  0  0  0  0  0
  -24.0007   -7.4645   22.7468 H   0  0  0  0  0  0
  -21.0846   -8.8723   19.8952 H   0  0  0  0  0  0
  -22.3617  -10.9666   19.6187 H   0  0  0  0  0  0
  -21.1999   -7.6143   23.9715 H   0  0  0  0  0  0
  -21.1496   -6.0517   25.9075 H   0  0  0  0  0  0
  -22.0605   -2.7614   23.2826 H   0  0  0  0  0  0
  -22.4033  -11.9952   22.4823 H   0  0  0  0  0  0
  -21.1054  -13.1318   22.2507 H   0  0  0  0  0  0
  -24.6545  -15.8343   20.5007 H   0  0  0  0  0  0
  -26.2734  -15.6210   20.0731 H   0  0  0  0  0  0
  -26.7150  -32.5477   23.1167 H   0  0  0  0  0  0
  -25.0043  -33.9783   25.0443 H   0  0  0  0  0  0
  -22.6980  -31.3193   21.4235 H   0  0  0  0  0  0
  -23.3724  -35.9640   23.3304 H   0  0  0  0  0  0
  -24.3549  -36.8934   22.2059 H   0  0  0  0  0  0
  -23.7215  -37.6501   23.6674 H   0  0  0  0  0  0
  -26.0846  -31.5841   20.6211 H   0  0  0  0  0  0
  -26.8224  -30.8427   22.0129 H   0  0  0  0  0  0
  -28.0927  -29.0347   21.1678 H   0  0  0  0  0  0
  -25.8992  -25.9850   18.9826 H   0  0  0  0  0  0
  -23.9402  -27.3405   19.0206 H   0  0  0  0  0  0
  -23.7325  -30.6325   19.4155 H   0  0  0  0  0  0
  -22.7336  -29.2832   19.8579 H   0  0  0  0  0  0
  -25.1273  -36.1951   25.0825 H   0  0  0  0  0  0
  -20.9963  -28.3225   24.1395 H   0  0  0  0  0  0
  -20.5606  -26.2294   23.3597 H   0  0  0  0  0  0
  -21.6618  -26.7411   22.1203 H   0  0  0  0  0  0
  -19.6874  -25.6290   21.1225 H   0  0  0  0  0  0
  -19.6637  -27.3186   20.6723 H   0  0  0  0  0  0
  -17.4167  -26.6640   21.4044 H   0  0  0  0  0  0
  -18.0331  -26.0053   22.9023 H   0  0  0  0  0  0
  -19.7941  -30.7238   24.2284 H   0  0  0  0  0  0
  -17.5025  -31.6261   24.5167 H   0  0  0  0  0  0
  -15.5353  -30.3007   23.7632 H   0  0  0  0  0  0
  -15.8648  -28.0817   22.7085 H   0  0  0  0  0  0
  -24.5852  -30.7183   25.7873 H   0  0  0  0  0  0
  -24.9014  -32.2937   26.5051 H   0  0  0  0  0  0
  -25.8073  -30.8865   27.0261 H   0  0  0  0  0  0
  -26.2944  -29.6807   24.1242 H   0  0  0  0  0  0
  -27.4012  -29.7321   25.4774 H   0  0  0  0  0  0
  -27.8825  -30.4354   23.9512 H   0  0  0  0  0  0
  -27.2602  -33.3668   26.2146 H   0  0  0  0  0  0
  -28.3819  -32.7009   25.0375 H   0  0  0  0  0  0
  -28.0732  -31.8533   26.5458 H   0  0  0  0  0  0
  -28.2576  -38.0110   24.7521 H   0  0  0  0  0  0
  -28.1052  -36.2645   24.6246 H   0  0  0  0  0  0
  -27.2290  -37.1424   25.8862 H   0  0  0  0  0  0
  -20.9296  -29.8844   21.7001 H   0  0  0  0  0  0
  -26.0140  -38.2860   24.1435 H   0  0  0  0  0  0
  -32.7541  -18.9139   22.3241 H   0  0  0  0  0  0
  -31.1200  -20.6673   21.8148 H   0  0  0  0  0  0
  -32.2307  -16.5461   21.9209 H   0  0  0  0  0  0
  -27.2103  -17.5927   20.5333 H   0  0  0  0  0  0
  -28.1584  -16.5518   19.4669 H   0  0  0  0  0  0
  -27.9343  -18.2211   19.0442 H   0  0  0  0  0  0
  -30.7620  -23.7962   21.4576 H   0  0  0  0  0  0
  -29.4822  -24.9086   21.9395 H   0  0  0  0  0  0
  -30.7787  -25.4582   20.8838 H   0  0  0  0  0  0
  -27.7629  -22.7528   19.2988 H   0  0  0  0  0  0
  -27.7855  -23.1007   21.0071 H   0  0  0  0  0  0
  -27.5879  -25.0130   18.8860 H   0  0  0  0  0  0
  -29.0427  -25.7601   18.3917 H   0  0  0  0  0  0
  -30.0136  -23.9186   19.1087 H   0  0  0  0  0  0
  -28.9632  -15.2989   21.1561 H   0  0  0  0  0  0
  -30.2076  -21.7306   20.2937 H   0  0  0  0  0  0
  1 25  1  0  0  0
  1 30  2  0  0  0
  1 83  1  0  0  0
  2  3  1  0  0  0
  2 25  1  0  0  0
  2 86  1  0  0  0
  2 87  1  0  0  0
  3  4  1  0  0  0
  3 88  1  0  0  0
  3 89  1  0  0  0
  4  5  1  0  0  0
  4 90  1  0  0  0
  4 91  1  0  0  0
  5  6  1  0  0  0
  5 26  1  0  0  0
  5 92  1  0  0  0
  6 25  1  0  0  0
  6 93  1  0  0  0
  6 94  1  0  0  0
  7  8  2  0  0  0
  7 26  1  0  0  0
  7 29  1  0  0  0
  8  9  1  0  0  0
  8 22  1  0  0  0
  9 10  1  0  0  0
  9 27  2  0  0  0
 10 11  2  0  0  0
 10 15  1  0  0  0
 11 12  1  0  0  0
 11 95  1  0  0  0
 12 13  2  0  0  0
 12 96  1  0  0  0
 13 14  1  0  0  0
 13 31  1  0  0  0
 14 15  2  0  0  0
 14 97  1  0  0  0
 15 98  1  0  0  0
 16 17  2  0  0  0
 16 21  1  0  0  0
 16 31  1  0  0  0
 17 18  1  0  0  0
 17 99  1  0  0  0
 18 19  2  0  0  0
 18100  1  0  0  0
 19 20  1  0  0  0
 19 24  1  0  0  0
 20 21  2  0  0  0
 20101  1  0  0  0
 21 23  1  0  0  0
 22 28  1  0  0  0
 22 32  2  0  0  0
 26 27  1  0  0  0
 28102  1  0  0  0
 28103  1  0  0  0
 29104  1  0  0  0
 29105  1  0  0  0
 33 34  1  0  0  0
 33 66  1  0  0  0
 33 70  2  0  0  0
 34 36  1  0  0  0
 34 59  1  0  0  0
 34106  1  0  0  0
 35 44  2  0  0  0
 35 45  1  0  0  0
 35 68  1  0  0  0
 36 56  1  0  0  0
 36107  1  0  0  0
 37 39  1  0  0  0
 37 47  1  0  0  0
 37 66  1  0  0  0
 37108  1  0  0  0
 38 43  2  0  0  0
 38 46  1  0  0  0
 38 47  1  0  0  0
 39 64  1  0  0  0
 39 67  2  0  0  0
 40 52  1  0  0  0
 40 53  2  0  0  0
 40 58  1  0  0  0
 41109  1  0  0  0
 41110  1  0  0  0
 41111  1  0  0  0
 41 48  1  0  0  0
 42 43  1  0  0  0
 42 66  1  0  0  0
 42112  1  0  0  0
 42113  1  0  0  0
 43 44  1  0  0  0
 44114  1  0  0  0
 45 46  2  0  0  0
 45115  1  0  0  0
 46116  1  0  0  0
 47117  1  0  0  0
 47118  1  0  0  0
 48 56  1  0  0  0
 48 65  1  0  0  0
 48119  1  0  0  0
 49 50  1  0  0  0
 49 53  1  0  0  0
 49 64  1  0  0  0
 49120  1  0  0  0
 50 51  1  0  0  0
 50121  1  0  0  0
 50122  1  0  0  0
 51 52  1  0  0  0
 51123  1  0  0  0
 51124  1  0  0  0
 52125  1  0  0  0
 52126  1  0  0  0
 53 54  1  0  0  0
 54 55  2  0  0  0
 54127  1  0  0  0
 55 57  1  0  0  0
 55128  1  0  0  0
 56 69  2  0  0  0
 57 58  2  0  0  0
 57129  1  0  0  0
 58130  1  0  0  0
 59 60  1  0  0  0
 59 61  1  0  0  0
 59 62  1  0  0  0
 60131  1  0  0  0
 60132  1  0  0  0
 60133  1  0  0  0
 61134  1  0  0  0
 61135  1  0  0  0
 61136  1  0  0  0
 62137  1  0  0  0
 62138  1  0  0  0
 62139  1  0  0  0
 63 65  1  0  0  0
 63140  1  0  0  0
 63141  1  0  0  0
 63142  1  0  0  0
 64143  1  0  0  0
 65144  1  0  0  0
 68 81  1  0  0  0
 71 72  2  0  0  0
 71 73  1  0  0  0
 71145  1  0  0  0
 72 74  1  0  0  0
 72146  1  0  0  0
 73 76  2  0  0  0
 73147  1  0  0  0
 74 75  2  0  0  0
 74 77  1  0  0  0
 75 76  1  0  0  0
 75 78  1  0  0  0
 76 83  1  0  0  0
 77 84  1  0  0  0
 77 85  2  0  0  0
 78148  1  0  0  0
 78149  1  0  0  0
 78150  1  0  0  0
 79151  1  0  0  0
 79152  1  0  0  0
 79153  1  0  0  0
 79 82  1  0  0  0
 80 82  1  0  0  0
 80 84  1  0  0  0
 80154  1  0  0  0
 80155  1  0  0  0
 81 82  1  0  0  0
 81156  1  0  0  0
 81157  1  0  0  0
 82158  1  0  0  0
 83159  1  0  0  0
 84160  1  0  0  0
M  ISO  4   1 100  68 101  81 101  83 100
M  END
> <chiral flag>
0

> <version>
0

> <s_m_source_file>
/data/baiqing/PycharmProjects/Reinvent-master-3.2/result/LINK_invent/BTK/process_docking_weight1_custom_product_contain_oxygen_bond_distance_aromatic_linkinvent_7_9_3/rearranged_h_0053.sdf

> <i_m_source_file_index>
10

> <r_mmod_Potential_Energy-OPLS-2005>
-49.476921081543

> <r_mmod_Stretch_Energy-OPLS-2005>
51.6982688903809

> <r_mmod_Bend_Energy-OPLS-2005>
117.102928161621

> <r_mmod_Torsional_Energy-OPLS-2005>
252.348205566406

> <r_mmod_Improper_Torsional_Energy-OPLS-2005>
4.90133762359619

> <r_mmod_Van_der_Waal_Energy-OPLS-2005>
163.471145629883

> <r_mmod_Electrostatic_Energy-OPLS-2005>
-435.793701171875

> <r_mmod_Solvation_Energy-OPLS-2005>
-223.413589477539

> <b_mmod_Minimization_Converged-OPLS-2005>
0

> <r_mmod_RMS_Derivative-OPLS-2005>
3.5014750957489

$$$$
10
                    3D
 Structure written by MMmdl.
159167  0  0  1  0            999 V2000
  -30.5830  -14.7444   20.4566 C   0  0  0  0  0  0
  -30.4412  -12.4475   19.4587 C   0  0  0  0  0  0
  -29.5071  -12.4772   18.2295 C   0  0  0  0  0  0
  -28.0353  -12.3062   18.6536 C   0  0  0  0  0  0
  -27.6437  -13.2149   19.8486 C   0  0  2  0  0  0
  -28.6921  -13.1512   20.9785 C   0  0  0  0  0  0
  -25.2555  -13.8167   20.5686 C   0  0  0  0  0  0
  -24.1831  -13.0444   20.9223 C   0  0  0  0  0  0
  -24.6394  -11.6902   20.8789 C   0  0  0  0  0  0
  -23.9060  -10.4290   21.0452 C   0  0  0  0  0  0
  -24.3614   -9.4208   21.9225 C   0  0  0  0  0  0
  -23.6292   -8.2242   22.0770 C   0  0  0  0  0  0
  -22.4284   -8.0273   21.3551 C   0  0  0  0  0  0
  -21.9917   -9.0266   20.4676 C   0  0  0  0  0  0
  -22.7239  -10.2151   20.3091 C   0  0  0  0  0  0
  -21.6856   -6.0736   22.5293 C   0  0  0  0  0  0
  -21.4030   -6.5648   23.8222 C   0  0  0  0  0  0
  -21.3645   -5.6805   24.9182 C   0  0  0  0  0  0
  -21.6030   -4.3066   24.7247 C   0  0  0  0  0  0
  -21.8817   -3.8156   23.4374 C   0  0  0  0  0  0
  -21.9188   -4.6962   22.3425 C   0  0  0  0  0  0
  -22.7856  -13.5252   21.1882 C   0  0  0  0  0  0
  -22.1648   -4.2133   21.1001 F   0  0  0  0  0  0
  -21.5625   -3.4546   25.7769 F   0  0  0  0  0  0
  -29.9841  -13.5088   20.3792 N   0  0  0  0  0  0
  -26.2960  -12.9329   20.3306 N   0  0  0  0  0  0
  -25.9318  -11.6493   20.5817 N   0  0  0  0  0  0
  -22.0490  -12.8239   22.0430 N   0  0  0  0  0  0
  -25.4285  -15.1887   20.4079 N   0  0  0  0  0  0
  -31.7932  -14.8696   20.2505 O   0  0  0  0  0  0
  -21.6637   -6.8877   21.4247 O   0  0  0  0  0  0
  -22.3559  -14.5552   20.6706 O   0  0  0  0  0  0
  -24.6313  -31.8589   23.2005 C   0  0  0  0  0  0
  -25.9137  -32.4773   23.8339 C   0  0  1  0  0  0
  -27.2205  -27.2527   20.1230 C   0  0  0  0  0  0
  -25.5937  -33.8569   24.2244 N   0  0  0  0  0  0
  -23.4273  -30.4784   21.5492 C   0  0  2  0  0  0
  -24.8740  -28.9301   20.1149 C   0  0  0  0  0  0
  -22.7501  -29.4594   22.4984 C   0  0  0  0  0  0
  -18.0265  -28.1363   22.8511 C   0  0  0  0  0  0
  -24.1480  -36.7246   23.2636 C   0  0  0  0  0  0
  -25.9776  -30.7643   21.3847 C   0  0  0  0  0  0
  -26.0517  -29.3896   20.7195 C   0  0  0  0  0  0
  -27.2284  -28.5664   20.7098 C   0  0  0  0  0  0
  -26.0136  -26.8704   19.4885 C   0  0  0  0  0  0
  -24.8625  -27.6780   19.4883 C   0  0  0  0  0  0
  -23.6438  -29.8152   20.1645 C   0  0  0  0  0  0
  -25.4110  -36.3067   24.0319 C   0  0  1  0  0  0
  -20.5867  -28.3675   23.1298 C   0  0  2  0  0  0
  -20.6737  -26.9388   22.5428 C   0  0  0  0  0  0
  -19.5712  -26.6366   21.5226 C   0  0  0  0  0  0
  -18.1895  -26.7906   22.1643 C   0  0  0  0  0  0
  -19.1519  -28.8837   23.2893 C   0  0  0  0  0  0
  -18.9444  -30.1443   23.8909 C   0  0  0  0  0  0
  -17.6443  -30.6591   24.0541 C   0  0  0  0  0  0
  -25.9069  -34.9449   23.5081 C   0  0  0  0  0  0
  -16.5332  -29.9073   23.6328 C   0  0  0  0  0  0
  -16.7249  -28.6466   23.0391 C   0  0  0  0  0  0
  -26.4474  -31.6621   25.0763 C   0  0  0  0  0  0
  -25.3672  -31.3798   26.1479 C   0  0  0  0  0  0
  -27.0322  -30.3033   24.6286 C   0  0  0  0  0  0
  -27.6018  -32.4386   25.7526 C   0  0  0  0  0  0
  -27.5561  -37.1771   24.8473 C   0  0  0  0  0  0
  -21.4205  -29.3031   22.3704 N   0  0  0  0  0  0
  -26.4262  -37.3785   23.9421 N   0  0  0  0  0  0
  -24.6985  -31.0498   22.1017 N   0  0  0  0  0  0
  -23.4204  -28.8154   23.3106 O   0  0  0  0  0  0
  -28.3009  -26.3296   20.1851 O   0  0  0  0  0  0
  -26.5650  -34.8927   22.4672 O   0  0  0  0  0  0
  -23.5461  -32.1426   23.7290 O   0  0  0  0  0  0
  -27.5020  -21.2951   23.1855 C   0  0  0  0  0  0
  -29.0551  -18.4979   22.9427 C   0  0  0  0  0  0
  -29.3482  -17.2632   22.3259 C   0  0  0  0  0  0
  -29.7833  -18.4605   20.2604 C   0  0  0  0  0  0
  -29.1072  -19.7244   22.2405 C   0  0  0  0  0  0
  -29.5108  -19.7576   20.8777 C   0  0  0  0  0  0
  -29.7106  -17.1875   20.9649 C   0  0  0  0  0  0
  -26.2454  -21.6434   23.3472 C   0  0  0  0  0  0
  -28.7503  -20.9415   22.9860 C   0  0  0  0  0  0
  -29.0678  -23.7123   20.2704 C   0  0  0  0  0  0
  -27.4392  -21.9528   19.6670 C   0  0  0  0  0  0
  -29.7505  -21.1651   20.1425 C   0  0  0  0  0  0
  -27.9825  -24.8661   19.9710 C   0  0  0  0  0  0
  -29.7292  -15.8346   20.3606 N   0  0  0  0  0  0
  -28.7640  -22.3467   20.1408 N   0  0  0  0  0  0
  -30.2048  -24.0692   20.5914 O   0  0  0  0  0  0
  -31.4765  -12.5968   19.1482 H   0  0  0  0  0  0
  -30.4058  -11.4714   19.9471 H   0  0  0  0  0  0
  -29.7827  -11.6868   17.5315 H   0  0  0  0  0  0
  -29.6284  -13.4217   17.6989 H   0  0  0  0  0  0
  -27.9018  -11.2596   18.9307 H   0  0  0  0  0  0
  -27.3722  -12.4846   17.8074 H   0  0  0  0  0  0
  -27.6333  -14.2313   19.4572 H   0  0  0  0  0  0
  -28.7293  -12.1587   21.4302 H   0  0  0  0  0  0
  -28.4345  -13.8443   21.7830 H   0  0  0  0  0  0
  -25.2746   -9.5663   22.4819 H   0  0  0  0  0  0
  -23.9980   -7.4624   22.7495 H   0  0  0  0  0  0
  -21.0837   -8.8830   19.8975 H   0  0  0  0  0  0
  -22.3724  -10.9718   19.6215 H   0  0  0  0  0  0
  -21.2030   -7.6156   23.9720 H   0  0  0  0  0  0
  -21.1456   -6.0542   25.9082 H   0  0  0  0  0  0
  -22.0594   -2.7606   23.2908 H   0  0  0  0  0  0
  -22.4101  -11.9880   22.4814 H   0  0  0  0  0  0
  -21.1123  -13.1289   22.2630 H   0  0  0  0  0  0
  -24.6720  -15.8499   20.5416 H   0  0  0  0  0  0
  -26.2777  -15.6295   20.0781 H   0  0  0  0  0  0
  -26.7220  -32.5408   23.1080 H   0  0  0  0  0  0
  -25.0073  -33.9697   25.0384 H   0  0  0  0  0  0
  -22.7203  -31.2985   21.4042 H   0  0  0  0  0  0
  -23.3773  -35.9558   23.3350 H   0  0  0  0  0  0
  -24.3556  -36.8829   22.2043 H   0  0  0  0  0  0
  -23.7197  -37.6433   23.6652 H   0  0  0  0  0  0
  -26.1166  -31.5323   20.6217 H   0  0  0  0  0  0
  -26.8532  -30.8042   22.0228 H   0  0  0  0  0  0
  -28.1273  -28.9117   21.2028 H   0  0  0  0  0  0
  -25.9044  -25.9150   19.0023 H   0  0  0  0  0  0
  -23.9591  -27.3178   19.0151 H   0  0  0  0  0  0
  -23.7590  -30.5943   19.4083 H   0  0  0  0  0  0
  -22.7616  -29.2443   19.8659 H   0  0  0  0  0  0
  -25.1285  -36.1891   25.0803 H   0  0  0  0  0  0
  -20.9921  -28.3227   24.1434 H   0  0  0  0  0  0
  -20.5613  -26.2274   23.3631 H   0  0  0  0  0  0
  -21.6598  -26.7398   22.1219 H   0  0  0  0  0  0
  -19.6864  -25.6272   21.1253 H   0  0  0  0  0  0
  -19.6636  -27.3182   20.6761 H   0  0  0  0  0  0
  -17.4150  -26.6674   21.4062 H   0  0  0  0  0  0
  -18.0298  -26.0027   22.9019 H   0  0  0  0  0  0
  -19.7917  -30.7247   24.2304 H   0  0  0  0  0  0
  -17.4992  -31.6284   24.5115 H   0  0  0  0  0  0
  -15.5326  -30.2981   23.7647 H   0  0  0  0  0  0
  -15.8642  -28.0769   22.7165 H   0  0  0  0  0  0
  -24.5839  -30.7154   25.7801 H   0  0  0  0  0  0
  -24.8874  -32.3004   26.4846 H   0  0  0  0  0  0
  -25.7962  -30.9004   27.0301 H   0  0  0  0  0  0
  -26.2940  -29.6817   24.1215 H   0  0  0  0  0  0
  -27.3882  -29.7247   25.4818 H   0  0  0  0  0  0
  -27.8878  -30.4298   23.9640 H   0  0  0  0  0  0
  -27.2605  -33.3690   26.2085 H   0  0  0  0  0  0
  -28.3835  -32.6962   25.0363 H   0  0  0  0  0  0
  -28.0723  -31.8557   26.5456 H   0  0  0  0  0  0
  -28.2585  -38.0054   24.7524 H   0  0  0  0  0  0
  -28.1038  -36.2590   24.6308 H   0  0  0  0  0  0
  -27.2293  -37.1432   25.8875 H   0  0  0  0  0  0
  -20.9411  -29.8727   21.6873 H   0  0  0  0  0  0
  -26.0148  -38.2854   24.1470 H   0  0  0  0  0  0
  -28.7560  -18.4982   23.9827 H   0  0  0  0  0  0
  -29.2296  -16.3590   22.9055 H   0  0  0  0  0  0
  -30.0395  -18.4446   19.2094 H   0  0  0  0  0  0
  -25.7393  -22.2726   22.6290 H   0  0  0  0  0  0
  -25.6709  -21.3158   24.2016 H   0  0  0  0  0  0
  -29.5635  -21.5403   23.3763 H   0  0  0  0  0  0
  -27.3087  -20.8713   19.6750 H   0  0  0  0  0  0
  -27.3002  -22.2849   18.6383 H   0  0  0  0  0  0
  -26.6536  -22.3800   20.2895 H   0  0  0  0  0  0
  -29.9534  -20.9424   19.0951 H   0  0  0  0  0  0
  -30.7017  -21.5316   20.5286 H   0  0  0  0  0  0
  -27.1057  -24.6294   20.5743 H   0  0  0  0  0  0
  -27.7089  -24.7469   18.9206 H   0  0  0  0  0  0
  -28.8016  -15.5060   20.1430 H   0  0  0  0  0  0
  1 25  1  0  0  0
  1 30  2  0  0  0
  1 84  1  0  0  0
  2  3  1  0  0  0
  2 25  1  0  0  0
  2 87  1  0  0  0
  2 88  1  0  0  0
  3  4  1  0  0  0
  3 89  1  0  0  0
  3 90  1  0  0  0
  4  5  1  0  0  0
  4 91  1  0  0  0
  4 92  1  0  0  0
  5  6  1  0  0  0
  5 26  1  0  0  0
  5 93  1  0  0  0
  6 25  1  0  0  0
  6 94  1  0  0  0
  6 95  1  0  0  0
  7  8  2  0  0  0
  7 26  1  0  0  0
  7 29  1  0  0  0
  8  9  1  0  0  0
  8 22  1  0  0  0
  9 10  1  0  0  0
  9 27  2  0  0  0
 10 11  2  0  0  0
 10 15  1  0  0  0
 11 12  1  0  0  0
 11 96  1  0  0  0
 12 13  2  0  0  0
 12 97  1  0  0  0
 13 14  1  0  0  0
 13 31  1  0  0  0
 14 15  2  0  0  0
 14 98  1  0  0  0
 15 99  1  0  0  0
 16 17  2  0  0  0
 16 21  1  0  0  0
 16 31  1  0  0  0
 17 18  1  0  0  0
 17100  1  0  0  0
 18 19  2  0  0  0
 18101  1  0  0  0
 19 20  1  0  0  0
 19 24  1  0  0  0
 20 21  2  0  0  0
 20102  1  0  0  0
 21 23  1  0  0  0
 22 28  1  0  0  0
 22 32  2  0  0  0
 26 27  1  0  0  0
 28103  1  0  0  0
 28104  1  0  0  0
 29105  1  0  0  0
 29106  1  0  0  0
 33 34  1  0  0  0
 33 66  1  0  0  0
 33 70  2  0  0  0
 34 36  1  0  0  0
 34 59  1  0  0  0
 34107  1  0  0  0
 35 44  2  0  0  0
 35 45  1  0  0  0
 35 68  1  0  0  0
 36 56  1  0  0  0
 36108  1  0  0  0
 37 39  1  0  0  0
 37 47  1  0  0  0
 37 66  1  0  0  0
 37109  1  0  0  0
 38 43  2  0  0  0
 38 46  1  0  0  0
 38 47  1  0  0  0
 39 64  1  0  0  0
 39 67  2  0  0  0
 40 52  1  0  0  0
 40 53  2  0  0  0
 40 58  1  0  0  0
 41110  1  0  0  0
 41111  1  0  0  0
 41112  1  0  0  0
 41 48  1  0  0  0
 42 43  1  0  0  0
 42 66  1  0  0  0
 42113  1  0  0  0
 42114  1  0  0  0
 43 44  1  0  0  0
 44115  1  0  0  0
 45 46  2  0  0  0
 45116  1  0  0  0
 46117  1  0  0  0
 47118  1  0  0  0
 47119  1  0  0  0
 48 56  1  0  0  0
 48 65  1  0  0  0
 48120  1  0  0  0
 49 50  1  0  0  0
 49 53  1  0  0  0
 49 64  1  0  0  0
 49121  1  0  0  0
 50 51  1  0  0  0
 50122  1  0  0  0
 50123  1  0  0  0
 51 52  1  0  0  0
 51124  1  0  0  0
 51125  1  0  0  0
 52126  1  0  0  0
 52127  1  0  0  0
 53 54  1  0  0  0
 54 55  2  0  0  0
 54128  1  0  0  0
 55 57  1  0  0  0
 55129  1  0  0  0
 56 69  2  0  0  0
 57 58  2  0  0  0
 57130  1  0  0  0
 58131  1  0  0  0
 59 60  1  0  0  0
 59 61  1  0  0  0
 59 62  1  0  0  0
 60132  1  0  0  0
 60133  1  0  0  0
 60134  1  0  0  0
 61135  1  0  0  0
 61136  1  0  0  0
 61137  1  0  0  0
 62138  1  0  0  0
 62139  1  0  0  0
 62140  1  0  0  0
 63 65  1  0  0  0
 63141  1  0  0  0
 63142  1  0  0  0
 63143  1  0  0  0
 64144  1  0  0  0
 65145  1  0  0  0
 68 83  1  0  0  0
 71 78  2  0  0  0
 71 79  2  0  0  0
 72 73  2  0  0  0
 72 75  1  0  0  0
 72146  1  0  0  0
 73 77  1  0  0  0
 73147  1  0  0  0
 74 76  1  0  0  0
 74 77  2  0  0  0
 74148  1  0  0  0
 75 76  2  0  0  0
 75 79  1  0  0  0
 76 82  1  0  0  0
 77 84  1  0  0  0
 78149  1  0  0  0
 78150  1  0  0  0
 79151  1  0  0  0
 80 83  1  0  0  0
 80 85  1  0  0  0
 80 86  2  0  0  0
 81 85  1  0  0  0
 81152  1  0  0  0
 81153  1  0  0  0
 81154  1  0  0  0
 82 85  1  0  0  0
 82155  1  0  0  0
 82156  1  0  0  0
 83157  1  0  0  0
 83158  1  0  0  0
 84159  1  0  0  0
M  ISO  4   1 100  68 101  83 101  84 100
M  END
> <chiral flag>
0

> <version>
0

> <s_m_source_file>
/data/baiqing/PycharmProjects/Reinvent-master-3.2/result/LINK_invent/BTK/process_docking_weight1_custom_product_contain_oxygen_bond_distance_aromatic_linkinvent_7_9_3/rearranged_h_0053.sdf

> <i_m_source_file_index>
11

> <r_mmod_Potential_Energy-OPLS-2005>
147.415023803711

> <r_mmod_Stretch_Energy-OPLS-2005>
134.3984375

> <r_mmod_Bend_Energy-OPLS-2005>
172.375549316406

> <r_mmod_Torsional_Energy-OPLS-2005>
185.352401733398

> <r_mmod_Improper_Torsional_Energy-OPLS-2005>
15.3089380264282

> <r_mmod_Van_der_Waal_Energy-OPLS-2005>
133.565017700195

> <r_mmod_Electrostatic_Energy-OPLS-2005>
-348.6650390625

> <r_mmod_Solvation_Energy-OPLS-2005>
-238.945877075195

> <b_mmod_Minimization_Converged-OPLS-2005>
0

> <r_mmod_RMS_Derivative-OPLS-2005>
4.42015361785889

$$$$
11
                    3D
 Structure written by MMmdl.
158166  0  0  1  0            999 V2000
  -30.7136  -14.4466   20.6280 C   0  0  0  0  0  0
  -30.4210  -12.3087   19.4266 C   0  0  0  0  0  0
  -29.4974  -12.5285   18.2124 C   0  0  0  0  0  0
  -28.0141  -12.3866   18.6122 C   0  0  0  0  0  0
  -27.6597  -13.2119   19.8783 C   0  0  2  0  0  0
  -28.6947  -12.9748   21.0031 C   0  0  0  0  0  0
  -25.2546  -13.8193   20.5701 C   0  0  0  0  0  0
  -24.1810  -13.0465   20.9213 C   0  0  0  0  0  0
  -24.6372  -11.6923   20.8752 C   0  0  0  0  0  0
  -23.9033  -10.4312   21.0405 C   0  0  0  0  0  0
  -24.3595   -9.4232   21.9172 C   0  0  0  0  0  0
  -23.6301   -8.2239   22.0722 C   0  0  0  0  0  0
  -22.4287   -8.0261   21.3508 C   0  0  0  0  0  0
  -21.9908   -9.0244   20.4623 C   0  0  0  0  0  0
  -22.7210  -10.2141   20.3050 C   0  0  0  0  0  0
  -21.6850   -6.0743   22.5277 C   0  0  0  0  0  0
  -21.4019   -6.5635   23.8226 C   0  0  0  0  0  0
  -21.3673   -5.6776   24.9180 C   0  0  0  0  0  0
  -21.6045   -4.3039   24.7232 C   0  0  0  0  0  0
  -21.8809   -3.8144   23.4342 C   0  0  0  0  0  0
  -21.9208   -4.6968   22.3410 C   0  0  0  0  0  0
  -22.7822  -13.5237   21.1898 C   0  0  0  0  0  0
  -22.1661   -4.2164   21.0983 F   0  0  0  0  0  0
  -21.5650   -3.4517   25.7740 F   0  0  0  0  0  0
  -30.0337  -13.2777   20.4663 N   0  0  0  0  0  0
  -26.2991  -12.9367   20.3347 N   0  0  0  0  0  0
  -25.9284  -11.6522   20.5714 N   0  0  0  0  0  0
  -22.0475  -12.8229   22.0452 N   0  0  0  0  0  0
  -25.4308  -15.1914   20.4065 N   0  0  0  0  0  0
  -31.7996  -14.6679   20.0844 O   0  0  0  0  0  0
  -21.6631   -6.8867   21.4228 O   0  0  0  0  0  0
  -22.3492  -14.5547   20.6747 O   0  0  0  0  0  0
  -24.6245  -31.8839   23.2170 C   0  0  0  0  0  0
  -25.9102  -32.4941   23.8499 C   0  0  1  0  0  0
  -27.2306  -27.4779   20.0927 C   0  0  0  0  0  0
  -25.5931  -33.8725   24.2431 N   0  0  0  0  0  0
  -23.4271  -30.5047   21.5725 C   0  0  2  0  0  0
  -24.8493  -28.9728   20.1167 C   0  0  0  0  0  0
  -22.7723  -29.4875   22.5297 C   0  0  0  0  0  0
  -17.9898  -28.1210   22.8725 C   0  0  0  0  0  0
  -24.1483  -36.7336   23.2630 C   0  0  0  0  0  0
  -25.9340  -30.8640   21.3494 C   0  0  0  0  0  0
  -26.0072  -29.4936   20.7100 C   0  0  0  0  0  0
  -27.2049  -28.7496   20.6994 C   0  0  0  0  0  0
  -26.0689  -26.9653   19.4822 C   0  0  0  0  0  0
  -24.8728  -27.7097   19.4952 C   0  0  0  0  0  0
  -23.6110  -29.8354   20.1814 C   0  0  0  0  0  0
  -25.4091  -36.3172   24.0355 C   0  0  1  0  0  0
  -20.4764  -28.4572   22.7897 C   0  0  2  0  0  0
  -20.6861  -26.9603   22.5333 C   0  0  0  0  0  0
  -19.5480  -26.4590   21.6169 C   0  0  0  0  0  0
  -18.1513  -26.7509   22.2083 C   0  0  0  0  0  0
  -19.1099  -28.8967   23.2550 C   0  0  0  0  0  0
  -18.9300  -30.1464   23.8824 C   0  0  0  0  0  0
  -17.6312  -30.6497   24.0833 C   0  0  0  0  0  0
  -25.9020  -34.9533   23.5177 C   0  0  0  0  0  0
  -16.5147  -29.8979   23.6741 C   0  0  0  0  0  0
  -16.6937  -28.6322   23.0853 C   0  0  0  0  0  0
  -26.4463  -31.6619   25.0756 C   0  0  0  0  0  0
  -25.3719  -31.3666   26.1481 C   0  0  0  0  0  0
  -27.0237  -30.3086   24.5974 C   0  0  0  0  0  0
  -27.6083  -32.4253   25.7510 C   0  0  0  0  0  0
  -27.5585  -37.1824   24.8475 C   0  0  0  0  0  0
  -21.4504  -29.4467   22.4081 N   0  0  0  0  0  0
  -26.4292  -37.3822   23.9419 N   0  0  0  0  0  0
  -24.6843  -31.0965   22.1083 N   0  0  0  0  0  0
  -23.4243  -28.7669   23.2856 O   0  0  0  0  0  0
  -28.3770  -26.7310   20.0960 O   0  0  0  0  0  0
  -26.5554  -34.8962   22.4721 O   0  0  0  0  0  0
  -23.5422  -32.1563   23.7540 O   0  0  0  0  0  0
  -30.1771  -17.8230   23.6968 C   0  0  0  0  0  0
  -29.4908  -18.6790   24.5782 C   0  0  0  0  0  0
  -28.6336  -18.4319   21.9117 C   0  0  0  0  0  0
  -29.7550  -17.6882   22.3577 C   0  0  0  0  0  0
  -27.9363  -19.2969   22.7932 C   0  0  0  0  0  0
  -28.3717  -19.4096   24.1369 C   0  0  0  0  0  0
  -27.2013  -23.7520   21.9005 C   0  0  0  0  0  0
  -27.7502  -24.5252   20.9452 C   0  0  0  0  0  0
  -26.6150  -22.4771   21.5398 C   0  0  0  0  0  0
  -30.5499  -16.7949   21.4051 C   0  0  0  0  0  0
  -26.7317  -20.0951   22.2910 C   0  0  0  0  0  0
  -28.4599  -25.8389   21.2057 C   0  0  0  0  0  0
  -26.9298  -21.5350   22.4312 N   0  0  0  0  0  0
  -30.0914  -15.4031   21.3399 N   0  0  0  0  0  0
  -25.9568  -22.2516   20.5217 O   0  0  0  0  0  0
  -27.5545  -20.4237   25.2765 Cl  0  0  0  0  0  0
  -31.4643  -12.4201   19.1270 H   0  0  0  0  0  0
  -30.3237  -11.2877   19.8033 H   0  0  0  0  0  0
  -29.7424  -11.8212   17.4184 H   0  0  0  0  0  0
  -29.6704  -13.5271   17.8049 H   0  0  0  0  0  0
  -27.8038  -11.3294   18.7797 H   0  0  0  0  0  0
  -27.3774  -12.6910   17.7819 H   0  0  0  0  0  0
  -27.7111  -14.2625   19.5922 H   0  0  0  0  0  0
  -28.6571  -11.9305   21.3208 H   0  0  0  0  0  0
  -28.4429  -13.5576   21.8908 H   0  0  0  0  0  0
  -25.2745   -9.5742   22.4730 H   0  0  0  0  0  0
  -24.0049   -7.4629   22.7414 H   0  0  0  0  0  0
  -21.0842   -8.8752   19.8925 H   0  0  0  0  0  0
  -22.3649  -10.9677   19.6168 H   0  0  0  0  0  0
  -21.1966   -7.6132   23.9743 H   0  0  0  0  0  0
  -21.1522   -6.0494   25.9096 H   0  0  0  0  0  0
  -22.0584   -2.7607   23.2840 H   0  0  0  0  0  0
  -22.4059  -11.9910   22.4884 H   0  0  0  0  0  0
  -21.1097  -13.1268   22.2643 H   0  0  0  0  0  0
  -24.6693  -15.8552   20.4866 H   0  0  0  0  0  0
  -26.2849  -15.6152   20.0663 H   0  0  0  0  0  0
  -26.7225  -32.5664   23.1334 H   0  0  0  0  0  0
  -25.0131  -33.9954   25.0609 H   0  0  0  0  0  0
  -22.7221  -31.3274   21.4300 H   0  0  0  0  0  0
  -23.3752  -35.9672   23.3343 H   0  0  0  0  0  0
  -24.3605  -36.8876   22.2040 H   0  0  0  0  0  0
  -23.7228  -37.6556   23.6597 H   0  0  0  0  0  0
  -26.0071  -31.6177   20.5636 H   0  0  0  0  0  0
  -26.8423  -30.9552   21.9345 H   0  0  0  0  0  0
  -28.1009  -29.1433   21.1599 H   0  0  0  0  0  0
  -26.0922  -25.9955   19.0042 H   0  0  0  0  0  0
  -23.9892  -27.3133   19.0163 H   0  0  0  0  0  0
  -23.6966  -30.6118   19.4183 H   0  0  0  0  0  0
  -22.7326  -29.2510   19.9041 H   0  0  0  0  0  0
  -25.1253  -36.2074   25.0844 H   0  0  0  0  0  0
  -20.1619  -28.6774   21.7683 H   0  0  0  0  0  0
  -20.6706  -26.4202   23.4803 H   0  0  0  0  0  0
  -21.6563  -26.7665   22.0738 H   0  0  0  0  0  0
  -19.6523  -25.3886   21.4383 H   0  0  0  0  0  0
  -19.6280  -26.9230   20.6320 H   0  0  0  0  0  0
  -17.3933  -26.6285   21.4330 H   0  0  0  0  0  0
  -17.9244  -26.0015   22.9681 H   0  0  0  0  0  0
  -19.7850  -30.7461   24.1625 H   0  0  0  0  0  0
  -17.4915  -31.6184   24.5428 H   0  0  0  0  0  0
  -15.5167  -30.2875   23.8235 H   0  0  0  0  0  0
  -15.8280  -28.0578   22.7862 H   0  0  0  0  0  0
  -24.5961  -30.6944   25.7792 H   0  0  0  0  0  0
  -24.8822  -32.2784   26.4902 H   0  0  0  0  0  0
  -25.8086  -30.8867   27.0248 H   0  0  0  0  0  0
  -26.2747  -29.6925   24.0975 H   0  0  0  0  0  0
  -27.4022  -29.7212   25.4346 H   0  0  0  0  0  0
  -27.8574  -30.4477   23.9090 H   0  0  0  0  0  0
  -27.2795  -33.3579   26.2109 H   0  0  0  0  0  0
  -28.3886  -32.6731   25.0305 H   0  0  0  0  0  0
  -28.0735  -31.8305   26.5382 H   0  0  0  0  0  0
  -28.2598  -38.0120   24.7514 H   0  0  0  0  0  0
  -28.1079  -36.2647   24.6301 H   0  0  0  0  0  0
  -27.2324  -37.1479   25.8883 H   0  0  0  0  0  0
  -21.0659  -30.1661   21.8117 H   0  0  0  0  0  0
  -26.0205  -38.2915   24.1394 H   0  0  0  0  0  0
  -31.0436  -17.2830   24.0542 H   0  0  0  0  0  0
  -29.8250  -18.7799   25.6015 H   0  0  0  0  0  0
  -28.3132  -18.3522   20.8808 H   0  0  0  0  0  0
  -27.2165  -24.0746   22.9343 H   0  0  0  0  0  0
  -27.7274  -24.1975   19.9150 H   0  0  0  0  0  0
  -31.6009  -16.8138   21.7047 H   0  0  0  0  0  0
  -30.5232  -17.2262   20.4025 H   0  0  0  0  0  0
  -25.8437  -19.8049   22.8547 H   0  0  0  0  0  0
  -26.5244  -19.8383   21.2515 H   0  0  0  0  0  0
  -29.5121  -25.6163   21.3837 H   0  0  0  0  0  0
  -28.0779  -26.3014   22.1187 H   0  0  0  0  0  0
  -27.4315  -21.8279   23.2568 H   0  0  0  0  0  0
  -29.2142  -15.1808   21.7840 H   0  0  0  0  0  0
  1 25  1  0  0  0
  1 30  2  0  0  0
  1 84  1  0  0  0
  2  3  1  0  0  0
  2 25  1  0  0  0
  2 87  1  0  0  0
  2 88  1  0  0  0
  3  4  1  0  0  0
  3 89  1  0  0  0
  3 90  1  0  0  0
  4  5  1  0  0  0
  4 91  1  0  0  0
  4 92  1  0  0  0
  5  6  1  0  0  0
  5 26  1  0  0  0
  5 93  1  0  0  0
  6 25  1  0  0  0
  6 94  1  0  0  0
  6 95  1  0  0  0
  7  8  2  0  0  0
  7 26  1  0  0  0
  7 29  1  0  0  0
  8  9  1  0  0  0
  8 22  1  0  0  0
  9 10  1  0  0  0
  9 27  2  0  0  0
 10 11  2  0  0  0
 10 15  1  0  0  0
 11 12  1  0  0  0
 11 96  1  0  0  0
 12 13  2  0  0  0
 12 97  1  0  0  0
 13 14  1  0  0  0
 13 31  1  0  0  0
 14 15  2  0  0  0
 14 98  1  0  0  0
 15 99  1  0  0  0
 16 17  2  0  0  0
 16 21  1  0  0  0
 16 31  1  0  0  0
 17 18  1  0  0  0
 17100  1  0  0  0
 18 19  2  0  0  0
 18101  1  0  0  0
 19 20  1  0  0  0
 19 24  1  0  0  0
 20 21  2  0  0  0
 20102  1  0  0  0
 21 23  1  0  0  0
 22 28  1  0  0  0
 22 32  2  0  0  0
 26 27  1  0  0  0
 28103  1  0  0  0
 28104  1  0  0  0
 29105  1  0  0  0
 29106  1  0  0  0
 33 34  1  0  0  0
 33 66  1  0  0  0
 33 70  2  0  0  0
 34 36  1  0  0  0
 34 59  1  0  0  0
 34107  1  0  0  0
 35 44  2  0  0  0
 35 45  1  0  0  0
 35 68  1  0  0  0
 36 56  1  0  0  0
 36108  1  0  0  0
 37 39  1  0  0  0
 37 47  1  0  0  0
 37 66  1  0  0  0
 37109  1  0  0  0
 38 43  2  0  0  0
 38 46  1  0  0  0
 38 47  1  0  0  0
 39 64  1  0  0  0
 39 67  2  0  0  0
 40 52  1  0  0  0
 40 53  2  0  0  0
 40 58  1  0  0  0
 41110  1  0  0  0
 41111  1  0  0  0
 41112  1  0  0  0
 41 48  1  0  0  0
 42 43  1  0  0  0
 42 66  1  0  0  0
 42113  1  0  0  0
 42114  1  0  0  0
 43 44  1  0  0  0
 44115  1  0  0  0
 45 46  2  0  0  0
 45116  1  0  0  0
 46117  1  0  0  0
 47118  1  0  0  0
 47119  1  0  0  0
 48 56  1  0  0  0
 48 65  1  0  0  0
 48120  1  0  0  0
 49 50  1  0  0  0
 49 53  1  0  0  0
 49 64  1  0  0  0
 49121  1  0  0  0
 50 51  1  0  0  0
 50122  1  0  0  0
 50123  1  0  0  0
 51 52  1  0  0  0
 51124  1  0  0  0
 51125  1  0  0  0
 52126  1  0  0  0
 52127  1  0  0  0
 53 54  1  0  0  0
 54 55  2  0  0  0
 54128  1  0  0  0
 55 57  1  0  0  0
 55129  1  0  0  0
 56 69  2  0  0  0
 57 58  2  0  0  0
 57130  1  0  0  0
 58131  1  0  0  0
 59 60  1  0  0  0
 59 61  1  0  0  0
 59 62  1  0  0  0
 60132  1  0  0  0
 60133  1  0  0  0
 60134  1  0  0  0
 61135  1  0  0  0
 61136  1  0  0  0
 61137  1  0  0  0
 62138  1  0  0  0
 62139  1  0  0  0
 62140  1  0  0  0
 63 65  1  0  0  0
 63141  1  0  0  0
 63142  1  0  0  0
 63143  1  0  0  0
 64144  1  0  0  0
 65145  1  0  0  0
 68 82  1  0  0  0
 71 72  2  0  0  0
 71 74  1  0  0  0
 71146  1  0  0  0
 72 76  1  0  0  0
 72147  1  0  0  0
 73 74  2  0  0  0
 73 75  1  0  0  0
 73148  1  0  0  0
 74 80  1  0  0  0
 75 76  2  0  0  0
 75 81  1  0  0  0
 76 86  1  0  0  0
 77 78  2  0  0  0
 77 79  1  0  0  0
 77149  1  0  0  0
 78 82  1  0  0  0
 78150  1  0  0  0
 79 83  1  0  0  0
 79 85  2  0  0  0
 80 84  1  0  0  0
 80151  1  0  0  0
 80152  1  0  0  0
 81 83  1  0  0  0
 81153  1  0  0  0
 81154  1  0  0  0
 82155  1  0  0  0
 82156  1  0  0  0
 83157  1  0  0  0
 84158  1  0  0  0
M  ISO  4   1 100  68 101  82 101  84 100
M  END
> <chiral flag>
0

> <version>
0

> <s_m_source_file>
/data/baiqing/PycharmProjects/Reinvent-master-3.2/result/LINK_invent/BTK/process_docking_weight1_custom_product_contain_oxygen_bond_distance_aromatic_linkinvent_7_9_3/rearranged_h_0053.sdf

> <i_m_source_file_index>
12

> <r_mmod_Potential_Energy-OPLS-2005>
-74.5894088745117

> <r_mmod_Stretch_Energy-OPLS-2005>
30.8367538452148

> <r_mmod_Bend_Energy-OPLS-2005>
187.516983032227

> <r_mmod_Torsional_Energy-OPLS-2005>
244.42741394043

> <r_mmod_Improper_Torsional_Energy-OPLS-2005>
4.60195064544678

> <r_mmod_Van_der_Waal_Energy-OPLS-2005>
155.316543579102

> <r_mmod_Electrostatic_Energy-OPLS-2005>
-494.223419189453

> <r_mmod_Solvation_Energy-OPLS-2005>
-231.323623657227

> <b_mmod_Minimization_Converged-OPLS-2005>
0

> <r_mmod_RMS_Derivative-OPLS-2005>
4.22134828567505

$$$$
12
                    3D
 Structure written by MMmdl.
155163  0  0  1  0            999 V2000
  -30.6143  -14.6149   20.4810 C   0  0  0  0  0  0
  -30.4186  -12.3772   19.4063 C   0  0  0  0  0  0
  -29.4871  -12.5061   18.1846 C   0  0  0  0  0  0
  -28.0072  -12.3693   18.6029 C   0  0  0  0  0  0
  -27.6417  -13.2232   19.8498 C   0  0  2  0  0  0
  -28.6905  -13.0665   20.9679 C   0  0  0  0  0  0
  -25.2486  -13.8167   20.5636 C   0  0  0  0  0  0
  -24.1792  -13.0449   20.9223 C   0  0  0  0  0  0
  -24.6391  -11.6908   20.8767 C   0  0  0  0  0  0
  -23.9086  -10.4292   21.0417 C   0  0  0  0  0  0
  -24.3634   -9.4201   21.9202 C   0  0  0  0  0  0
  -23.6295   -8.2248   22.0765 C   0  0  0  0  0  0
  -22.4276   -8.0300   21.3554 C   0  0  0  0  0  0
  -21.9928   -9.0276   20.4648 C   0  0  0  0  0  0
  -22.7268  -10.2146   20.3059 C   0  0  0  0  0  0
  -21.6845   -6.0752   22.5279 C   0  0  0  0  0  0
  -21.4017   -6.5640   23.8227 C   0  0  0  0  0  0
  -21.3640   -5.6774   24.9180 C   0  0  0  0  0  0
  -21.6043   -4.3039   24.7207 C   0  0  0  0  0  0
  -21.8824   -3.8149   23.4315 C   0  0  0  0  0  0
  -21.9198   -4.6984   22.3388 C   0  0  0  0  0  0
  -22.7815  -13.5225   21.1824 C   0  0  0  0  0  0
  -22.1669   -4.2177   21.0966 F   0  0  0  0  0  0
  -21.5617   -3.4514   25.7710 F   0  0  0  0  0  0
  -29.9875  -13.4054   20.3751 N   0  0  0  0  0  0
  -26.2919  -12.9378   20.3235 N   0  0  0  0  0  0
  -25.9307  -11.6528   20.5704 N   0  0  0  0  0  0
  -22.0432  -12.8282   22.0388 N   0  0  0  0  0  0
  -25.4130  -15.1911   20.3967 N   0  0  0  0  0  0
  -31.7969  -14.7455   20.1518 O   0  0  0  0  0  0
  -21.6629   -6.8907   21.4249 O   0  0  0  0  0  0
  -22.3513  -14.5538   20.6620 O   0  0  0  0  0  0
  -24.6202  -31.8628   23.2002 C   0  0  0  0  0  0
  -25.9092  -32.4786   23.8335 C   0  0  1  0  0  0
  -27.2378  -27.3699   20.0998 C   0  0  0  0  0  0
  -25.5915  -33.8584   24.2259 N   0  0  0  0  0  0
  -23.4123  -30.4788   21.5474 C   0  0  2  0  0  0
  -24.8571  -28.9261   20.1274 C   0  0  0  0  0  0
  -22.7471  -29.4607   22.4991 C   0  0  0  0  0  0
  -18.0335  -28.1321   22.8440 C   0  0  0  0  0  0
  -24.1502  -36.7329   23.2643 C   0  0  0  0  0  0
  -25.9456  -30.8062   21.3615 C   0  0  0  0  0  0
  -26.0236  -29.4329   20.7147 C   0  0  0  0  0  0
  -27.2186  -28.6632   20.6948 C   0  0  0  0  0  0
  -26.0505  -26.8903   19.5104 C   0  0  0  0  0  0
  -24.8655  -27.6531   19.5300 C   0  0  0  0  0  0
  -23.6246  -29.8051   20.1650 C   0  0  0  0  0  0
  -25.4126  -36.3082   24.0312 C   0  0  1  0  0  0
  -20.5928  -28.3572   23.1267 C   0  0  2  0  0  0
  -20.6821  -26.9309   22.5346 C   0  0  0  0  0  0
  -19.5767  -26.6304   21.5152 C   0  0  0  0  0  0
  -18.1954  -26.7852   22.1579 C   0  0  0  0  0  0
  -19.1591  -28.8758   23.2867 C   0  0  0  0  0  0
  -18.9578  -30.1385   23.8846 C   0  0  0  0  0  0
  -17.6606  -30.6591   24.0399 C   0  0  0  0  0  0
  -25.9030  -34.9451   23.5074 C   0  0  0  0  0  0
  -16.5482  -29.9116   23.6175 C   0  0  0  0  0  0
  -16.7347  -28.6500   23.0261 C   0  0  0  0  0  0
  -26.4481  -31.6592   25.0702 C   0  0  0  0  0  0
  -25.3742  -31.3719   26.1443 C   0  0  0  0  0  0
  -27.0310  -30.3034   24.6085 C   0  0  0  0  0  0
  -27.6011  -32.4335   25.7509 C   0  0  0  0  0  0
  -27.5570  -37.1817   24.8451 C   0  0  0  0  0  0
  -21.4195  -29.2971   22.3701 N   0  0  0  0  0  0
  -26.4305  -37.3755   23.9365 N   0  0  0  0  0  0
  -24.6774  -31.0645   22.0949 N   0  0  0  0  0  0
  -23.4216  -28.8154   23.3055 O   0  0  0  0  0  0
  -28.3892  -26.5907   20.0321 O   0  0  0  0  0  0
  -26.5603  -34.8915   22.4640 O   0  0  0  0  0  0
  -23.5384  -32.1428   23.7361 O   0  0  0  0  0  0
  -31.2587  -18.6003   23.5656 C   0  0  0  0  0  0
  -31.2742  -17.2259   23.8165 C   0  0  0  0  0  0
  -30.6526  -19.0878   22.4020 C   0  0  0  0  0  0
  -30.7761  -16.3481   22.8498 C   0  0  0  0  0  0
  -30.0304  -18.2375   21.4501 C   0  0  0  0  0  0
  -30.2075  -16.7986   21.6293 C   0  0  0  0  0  0
  -28.9547  -22.8275   20.5034 C   0  0  0  0  0  0
  -28.3588  -23.9938   20.0887 C   0  0  0  0  0  0
  -28.8884  -21.5274   19.7966 C   0  0  0  0  0  0
  -29.2437  -18.9902   20.3284 C   0  0  0  0  0  0
  -28.4329  -25.3655   20.8259 C   0  0  0  0  0  0
  -29.8352  -15.7201   20.7385 N   0  0  0  0  0  0
  -28.9662  -20.4425   20.6157 N   0  0  0  0  0  0
  -28.8396  -21.4085   18.5741 O   0  0  0  0  0  0
  -31.4604  -12.4994   19.1025 H   0  0  0  0  0  0
  -30.3423  -11.3747   19.8361 H   0  0  0  0  0  0
  -29.7303  -11.7511   17.4364 H   0  0  0  0  0  0
  -29.6480  -13.4692   17.6975 H   0  0  0  0  0  0
  -27.8246  -11.3127   18.8078 H   0  0  0  0  0  0
  -27.3544  -12.6306   17.7668 H   0  0  0  0  0  0
  -27.6590  -14.2633   19.5244 H   0  0  0  0  0  0
  -28.6979  -12.0427   21.3442 H   0  0  0  0  0  0
  -28.4524  -13.7056   21.8180 H   0  0  0  0  0  0
  -25.2796   -9.5649   22.4764 H   0  0  0  0  0  0
  -23.9990   -7.4632   22.7480 H   0  0  0  0  0  0
  -21.0867   -8.8800   19.8950 H   0  0  0  0  0  0
  -22.3759  -10.9683   19.6135 H   0  0  0  0  0  0
  -21.2025   -7.6150   23.9740 H   0  0  0  0  0  0
  -21.1446   -6.0495   25.9081 H   0  0  0  0  0  0
  -22.0625   -2.7615   23.2796 H   0  0  0  0  0  0
  -22.3996  -11.9984   22.4874 H   0  0  0  0  0  0
  -21.1015  -13.1298   22.2464 H   0  0  0  0  0  0
  -24.6194  -15.8205   20.4631 H   0  0  0  0  0  0
  -26.2220  -15.6238   19.9713 H   0  0  0  0  0  0
  -26.7159  -32.5449   23.1083 H   0  0  0  0  0  0
  -25.0056  -33.9718   25.0402 H   0  0  0  0  0  0
  -22.7005  -31.2955   21.4048 H   0  0  0  0  0  0
  -23.3722  -35.9697   23.3324 H   0  0  0  0  0  0
  -24.3580  -36.8938   22.2047 H   0  0  0  0  0  0
  -23.7305  -37.6557   23.6666 H   0  0  0  0  0  0
  -26.0518  -31.5661   20.5892 H   0  0  0  0  0  0
  -26.8350  -30.8681   21.9737 H   0  0  0  0  0  0
  -28.1190  -29.0523   21.1434 H   0  0  0  0  0  0
  -26.0474  -25.9237   19.0291 H   0  0  0  0  0  0
  -23.9641  -27.2534   19.0862 H   0  0  0  0  0  0
  -23.7478  -30.5812   19.4054 H   0  0  0  0  0  0
  -22.7446  -29.2335   19.8627 H   0  0  0  0  0  0
  -25.1308  -36.1932   25.0798 H   0  0  0  0  0  0
  -21.0034  -28.3072   24.1364 H   0  0  0  0  0  0
  -20.5807  -26.2132   23.3501 H   0  0  0  0  0  0
  -21.6676  -26.7381   22.1131 H   0  0  0  0  0  0
  -19.6902  -25.6226   21.1166 H   0  0  0  0  0  0
  -19.6790  -27.3138   20.6704 H   0  0  0  0  0  0
  -17.4188  -26.6591   21.3999 H   0  0  0  0  0  0
  -18.0394  -25.9931   22.8934 H   0  0  0  0  0  0
  -19.8111  -30.7133   24.2197 H   0  0  0  0  0  0
  -17.5196  -31.6360   24.4841 H   0  0  0  0  0  0
  -15.5506  -30.3060   23.7418 H   0  0  0  0  0  0
  -15.8727  -28.0842   22.6999 H   0  0  0  0  0  0
  -24.5897  -30.7084   25.7783 H   0  0  0  0  0  0
  -24.8980  -32.2901   26.4896 H   0  0  0  0  0  0
  -25.8106  -30.8881   27.0192 H   0  0  0  0  0  0
  -26.2850  -29.6817   24.1123 H   0  0  0  0  0  0
  -27.4066  -29.7234   25.4521 H   0  0  0  0  0  0
  -27.8685  -30.4360   23.9235 H   0  0  0  0  0  0
  -27.2562  -33.3604   26.2109 H   0  0  0  0  0  0
  -28.3836  -32.6958   25.0381 H   0  0  0  0  0  0
  -28.0667  -31.8467   26.5430 H   0  0  0  0  0  0
  -28.2587  -38.0103   24.7425 H   0  0  0  0  0  0
  -28.1060  -36.2619   24.6380 H   0  0  0  0  0  0
  -27.2255  -37.1578   25.8844 H   0  0  0  0  0  0
  -20.9379  -29.8713   21.6924 H   0  0  0  0  0  0
  -26.0194  -38.2823   24.1354 H   0  0  0  0  0  0
  -31.6893  -19.2967   24.2696 H   0  0  0  0  0  0
  -31.6982  -16.8389   24.7301 H   0  0  0  0  0  0
  -30.6756  -20.1606   22.2773 H   0  0  0  0  0  0
  -30.8405  -15.2915   23.0701 H   0  0  0  0  0  0
  -29.5453  -22.8611   21.4062 H   0  0  0  0  0  0
  -27.7440  -23.9834   19.1992 H   0  0  0  0  0  0
  -28.2788  -18.5011   20.1650 H   0  0  0  0  0  0
  -29.8169  -18.8986   19.4103 H   0  0  0  0  0  0
  -29.3801  -25.4019   21.3679 H   0  0  0  0  0  0
  -27.6526  -25.3923   21.5858 H   0  0  0  0  0  0
  -28.8437  -15.6014   20.5964 H   0  0  0  0  0  0
  -28.8312  -20.6510   21.5935 H   0  0  0  0  0  0
  1 25  1  0  0  0
  1 30  2  0  0  0
  1 82  1  0  0  0
  2  3  1  0  0  0
  2 25  1  0  0  0
  2 85  1  0  0  0
  2 86  1  0  0  0
  3  4  1  0  0  0
  3 87  1  0  0  0
  3 88  1  0  0  0
  4  5  1  0  0  0
  4 89  1  0  0  0
  4 90  1  0  0  0
  5  6  1  0  0  0
  5 26  1  0  0  0
  5 91  1  0  0  0
  6 25  1  0  0  0
  6 92  1  0  0  0
  6 93  1  0  0  0
  7  8  2  0  0  0
  7 26  1  0  0  0
  7 29  1  0  0  0
  8  9  1  0  0  0
  8 22  1  0  0  0
  9 10  1  0  0  0
  9 27  2  0  0  0
 10 11  2  0  0  0
 10 15  1  0  0  0
 11 12  1  0  0  0
 11 94  1  0  0  0
 12 13  2  0  0  0
 12 95  1  0  0  0
 13 14  1  0  0  0
 13 31  1  0  0  0
 14 15  2  0  0  0
 14 96  1  0  0  0
 15 97  1  0  0  0
 16 17  2  0  0  0
 16 21  1  0  0  0
 16 31  1  0  0  0
 17 18  1  0  0  0
 17 98  1  0  0  0
 18 19  2  0  0  0
 18 99  1  0  0  0
 19 20  1  0  0  0
 19 24  1  0  0  0
 20 21  2  0  0  0
 20100  1  0  0  0
 21 23  1  0  0  0
 22 28  1  0  0  0
 22 32  2  0  0  0
 26 27  1  0  0  0
 28101  1  0  0  0
 28102  1  0  0  0
 29103  1  0  0  0
 29104  1  0  0  0
 33 34  1  0  0  0
 33 66  1  0  0  0
 33 70  2  0  0  0
 34 36  1  0  0  0
 34 59  1  0  0  0
 34105  1  0  0  0
 35 44  2  0  0  0
 35 45  1  0  0  0
 35 68  1  0  0  0
 36 56  1  0  0  0
 36106  1  0  0  0
 37 39  1  0  0  0
 37 47  1  0  0  0
 37 66  1  0  0  0
 37107  1  0  0  0
 38 43  2  0  0  0
 38 46  1  0  0  0
 38 47  1  0  0  0
 39 64  1  0  0  0
 39 67  2  0  0  0
 40 52  1  0  0  0
 40 53  2  0  0  0
 40 58  1  0  0  0
 41108  1  0  0  0
 41109  1  0  0  0
 41110  1  0  0  0
 41 48  1  0  0  0
 42 43  1  0  0  0
 42 66  1  0  0  0
 42111  1  0  0  0
 42112  1  0  0  0
 43 44  1  0  0  0
 44113  1  0  0  0
 45 46  2  0  0  0
 45114  1  0  0  0
 46115  1  0  0  0
 47116  1  0  0  0
 47117  1  0  0  0
 48 56  1  0  0  0
 48 65  1  0  0  0
 48118  1  0  0  0
 49 50  1  0  0  0
 49 53  1  0  0  0
 49 64  1  0  0  0
 49119  1  0  0  0
 50 51  1  0  0  0
 50120  1  0  0  0
 50121  1  0  0  0
 51 52  1  0  0  0
 51122  1  0  0  0
 51123  1  0  0  0
 52124  1  0  0  0
 52125  1  0  0  0
 53 54  1  0  0  0
 54 55  2  0  0  0
 54126  1  0  0  0
 55 57  1  0  0  0
 55127  1  0  0  0
 56 69  2  0  0  0
 57 58  2  0  0  0
 57128  1  0  0  0
 58129  1  0  0  0
 59 60  1  0  0  0
 59 61  1  0  0  0
 59 62  1  0  0  0
 60130  1  0  0  0
 60131  1  0  0  0
 60132  1  0  0  0
 61133  1  0  0  0
 61134  1  0  0  0
 61135  1  0  0  0
 62136  1  0  0  0
 62137  1  0  0  0
 62138  1  0  0  0
 63 65  1  0  0  0
 63139  1  0  0  0
 63140  1  0  0  0
 63141  1  0  0  0
 64142  1  0  0  0
 65143  1  0  0  0
 68 81  1  0  0  0
 71 72  2  0  0  0
 71 73  1  0  0  0
 71144  1  0  0  0
 72 74  1  0  0  0
 72145  1  0  0  0
 73 75  2  0  0  0
 73146  1  0  0  0
 74 76  2  0  0  0
 74147  1  0  0  0
 75 76  1  0  0  0
 75 80  1  0  0  0
 76 82  1  0  0  0
 77 78  2  0  0  0
 77 79  1  0  0  0
 77148  1  0  0  0
 78 81  1  0  0  0
 78149  1  0  0  0
 79 83  1  0  0  0
 79 84  2  0  0  0
 80 83  1  0  0  0
 80150  1  0  0  0
 80151  1  0  0  0
 81152  1  0  0  0
 81153  1  0  0  0
 82154  1  0  0  0
 83155  1  0  0  0
M  ISO  4   1 100  68 101  81 101  82 100
M  END
> <chiral flag>
0

> <version>
0

> <s_m_source_file>
/data/baiqing/PycharmProjects/Reinvent-master-3.2/result/LINK_invent/BTK/process_docking_weight1_custom_product_contain_oxygen_bond_distance_aromatic_linkinvent_7_9_3/rearranged_h_0053.sdf

> <i_m_source_file_index>
13

> <r_mmod_Potential_Energy-OPLS-2005>
-9.36625671386719

> <r_mmod_Stretch_Energy-OPLS-2005>
69.9874572753906

> <r_mmod_Bend_Energy-OPLS-2005>
135.390029907227

> <r_mmod_Torsional_Energy-OPLS-2005>
277.172241210938

> <r_mmod_Improper_Torsional_Energy-OPLS-2005>
7.93713140487671

> <r_mmod_Van_der_Waal_Energy-OPLS-2005>
148.375549316406

> <r_mmod_Electrostatic_Energy-OPLS-2005>
-443.021820068359

> <r_mmod_Solvation_Energy-OPLS-2005>
-240.826675415039

> <b_mmod_Minimization_Converged-OPLS-2005>
0

> <r_mmod_RMS_Derivative-OPLS-2005>
6.07129192352295

$$$$
13
                    3D
 Structure written by MMmdl.
154162  0  0  1  0            999 V2000
  -30.6038  -14.7159   20.5002 C   0  0  0  0  0  0
  -30.4388  -12.4479   19.4652 C   0  0  0  0  0  0
  -29.5115  -12.5257   18.2289 C   0  0  0  0  0  0
  -28.0340  -12.3515   18.6370 C   0  0  0  0  0  0
  -27.6484  -13.2238   19.8597 C   0  0  2  0  0  0
  -28.6936  -13.1210   20.9927 C   0  0  0  0  0  0
  -25.2593  -13.8157   20.5679 C   0  0  0  0  0  0
  -24.1858  -13.0422   20.9164 C   0  0  0  0  0  0
  -24.6409  -11.6899   20.8720 C   0  0  0  0  0  0
  -23.9071  -10.4291   21.0386 C   0  0  0  0  0  0
  -24.3629   -9.4224   21.9179 C   0  0  0  0  0  0
  -23.6295   -8.2266   22.0759 C   0  0  0  0  0  0
  -22.4270   -8.0303   21.3547 C   0  0  0  0  0  0
  -21.9917   -9.0267   20.4648 C   0  0  0  0  0  0
  -22.7238  -10.2144   20.3050 C   0  0  0  0  0  0
  -21.6853   -6.0749   22.5283 C   0  0  0  0  0  0
  -21.4024   -6.5652   23.8222 C   0  0  0  0  0  0
  -21.3664   -5.6795   24.9184 C   0  0  0  0  0  0
  -21.6055   -4.3060   24.7221 C   0  0  0  0  0  0
  -21.8814   -3.8152   23.4344 C   0  0  0  0  0  0
  -21.9202   -4.6981   22.3399 C   0  0  0  0  0  0
  -22.7891  -13.5238   21.1788 C   0  0  0  0  0  0
  -22.1661   -4.2152   21.0984 F   0  0  0  0  0  0
  -21.5626   -3.4554   25.7741 F   0  0  0  0  0  0
  -29.9940  -13.4850   20.4182 N   0  0  0  0  0  0
  -26.3003  -12.9332   20.3334 N   0  0  0  0  0  0
  -25.9345  -11.6473   20.5754 N   0  0  0  0  0  0
  -22.0497  -12.8274   22.0366 N   0  0  0  0  0  0
  -25.4273  -15.1880   20.4096 N   0  0  0  0  0  0
  -31.7838  -14.8440   20.1589 O   0  0  0  0  0  0
  -21.6654   -6.8892   21.4227 O   0  0  0  0  0  0
  -22.3615  -14.5542   20.6623 O   0  0  0  0  0  0
  -24.6394  -31.8599   23.2038 C   0  0  0  0  0  0
  -25.9200  -32.4760   23.8394 C   0  0  1  0  0  0
  -27.1922  -27.2239   20.1190 C   0  0  0  0  0  0
  -25.5982  -33.8563   24.2336 N   0  0  0  0  0  0
  -23.4350  -30.4897   21.5515 C   0  0  2  0  0  0
  -24.8758  -28.9434   20.1147 C   0  0  0  0  0  0
  -22.7537  -29.4666   22.4967 C   0  0  0  0  0  0
  -18.0373  -28.1384   22.8554 C   0  0  0  0  0  0
  -24.1496  -36.7243   23.2643 C   0  0  0  0  0  0
  -25.9900  -30.7521   21.4027 C   0  0  0  0  0  0
  -26.0546  -29.3776   20.7337 C   0  0  0  0  0  0
  -27.2158  -28.5282   20.7304 C   0  0  0  0  0  0
  -25.9869  -26.8918   19.4503 C   0  0  0  0  0  0
  -24.8500  -27.7089   19.4620 C   0  0  0  0  0  0
  -23.6488  -29.8306   20.1693 C   0  0  0  0  0  0
  -25.4127  -36.3051   24.0344 C   0  0  1  0  0  0
  -20.5983  -28.3685   23.1279 C   0  0  2  0  0  0
  -20.6900  -26.9433   22.5326 C   0  0  0  0  0  0
  -19.5844  -26.6471   21.5174 C   0  0  0  0  0  0
  -18.2064  -26.7935   22.1698 C   0  0  0  0  0  0
  -19.1644  -28.8842   23.2898 C   0  0  0  0  0  0
  -18.9584  -30.1440   23.8903 C   0  0  0  0  0  0
  -17.6574  -30.6616   24.0505 C   0  0  0  0  0  0
  -25.9070  -34.9428   23.5142 C   0  0  0  0  0  0
  -16.5452  -29.9113   23.6353 C   0  0  0  0  0  0
  -16.7346  -28.6503   23.0447 C   0  0  0  0  0  0
  -26.4506  -31.6548   25.0775 C   0  0  0  0  0  0
  -25.3704  -31.3711   26.1483 C   0  0  0  0  0  0
  -27.0429  -30.2984   24.6300 C   0  0  0  0  0  0
  -27.6060  -32.4304   25.7510 C   0  0  0  0  0  0
  -27.5585  -37.1771   24.8464 C   0  0  0  0  0  0
  -21.4257  -29.3100   22.3664 N   0  0  0  0  0  0
  -26.4301  -37.3747   23.9398 N   0  0  0  0  0  0
  -24.7065  -31.0540   22.1062 N   0  0  0  0  0  0
  -23.4226  -28.8169   23.3052 O   0  0  0  0  0  0
  -28.2286  -26.2435   20.1954 O   0  0  0  0  0  0
  -26.5589  -34.8882   22.4681 O   0  0  0  0  0  0
  -23.5556  -32.1418   23.7315 O   0  0  0  0  0  0
  -31.5211  -19.0967   21.6246 C   0  0  0  0  0  0
  -30.6123  -20.0910   21.1807 C   0  0  0  0  0  0
  -31.2836  -17.7129   21.4336 C   0  0  0  0  0  0
  -29.4225  -19.7118   20.5300 C   0  0  0  0  0  0
  -30.0855  -17.2529   20.8474 C   0  0  0  0  0  0
  -29.1656  -18.2798   20.4199 C   0  0  0  0  0  0
  -28.6344  -23.4613   20.2280 C   0  0  0  0  0  0
  -26.8603  -22.3218   19.0159 C   0  0  0  0  0  0
  -28.4917  -20.7263   19.7461 C   0  0  0  0  0  0
  -27.7880  -24.8179   19.9167 C   0  0  0  0  0  0
  -29.7932  -15.8079   20.7437 N   0  0  0  0  0  0
  -28.0861  -22.2212   19.8482 N   0  0  0  0  0  0
  -29.7384  -23.5416   20.7724 O   0  0  0  0  0  0
  -28.0113  -17.8695   19.8434 F   0  0  0  0  0  0
  -31.4791  -12.5858   19.1657 H   0  0  0  0  0  0
  -30.3821  -11.4617   19.9296 H   0  0  0  0  0  0
  -29.7925  -11.7629   17.5007 H   0  0  0  0  0  0
  -29.6456  -13.4880   17.7303 H   0  0  0  0  0  0
  -27.8809  -11.2963   18.8691 H   0  0  0  0  0  0
  -27.3822  -12.5796   17.7922 H   0  0  0  0  0  0
  -27.6538  -14.2540   19.5041 H   0  0  0  0  0  0
  -28.7318  -12.1083   21.3967 H   0  0  0  0  0  0
  -28.4328  -13.7688   21.8319 H   0  0  0  0  0  0
  -25.2752   -9.5725   22.4790 H   0  0  0  0  0  0
  -23.9994   -7.4665   22.7510 H   0  0  0  0  0  0
  -21.0850   -8.8803   19.8966 H   0  0  0  0  0  0
  -22.3669  -10.9708   19.6206 H   0  0  0  0  0  0
  -21.2006   -7.6158   23.9722 H   0  0  0  0  0  0
  -21.1485   -6.0535   25.9090 H   0  0  0  0  0  0
  -22.0574   -2.7616   23.2844 H   0  0  0  0  0  0
  -22.4082  -11.9943   22.4802 H   0  0  0  0  0  0
  -21.1119  -13.1383   22.2536 H   0  0  0  0  0  0
  -24.6491  -15.8319   20.5042 H   0  0  0  0  0  0
  -26.2709  -15.6378   20.0780 H   0  0  0  0  0  0
  -26.7278  -32.5397   23.1146 H   0  0  0  0  0  0
  -25.0118  -33.9685   25.0479 H   0  0  0  0  0  0
  -22.7361  -31.3157   21.4150 H   0  0  0  0  0  0
  -23.3778  -35.9550   23.3315 H   0  0  0  0  0  0
  -24.3570  -36.8852   22.2047 H   0  0  0  0  0  0
  -23.7226  -37.6450   23.6657 H   0  0  0  0  0  0
  -26.1491  -31.5140   20.6370 H   0  0  0  0  0  0
  -26.8656  -30.7869   22.0441 H   0  0  0  0  0  0
  -28.1092  -28.8479   21.2507 H   0  0  0  0  0  0
  -25.8445  -25.9613   18.9232 H   0  0  0  0  0  0
  -23.9477  -27.3752   18.9655 H   0  0  0  0  0  0
  -23.7588  -30.6106   19.4175 H   0  0  0  0  0  0
  -22.7625  -29.2678   19.8731 H   0  0  0  0  0  0
  -25.1304  -36.1892   25.0840 H   0  0  0  0  0  0
  -21.0164  -28.3191   24.1329 H   0  0  0  0  0  0
  -21.6734  -26.7601   22.0973 H   0  0  0  0  0  0
  -20.5898  -26.2199   23.3410 H   0  0  0  0  0  0
  -19.7018  -25.6407   21.1160 H   0  0  0  0  0  0
  -19.6777  -27.3356   20.6760 H   0  0  0  0  0  0
  -17.4268  -26.6617   21.4208 H   0  0  0  0  0  0
  -18.0639  -26.0076   22.9124 H   0  0  0  0  0  0
  -19.8076  -30.7217   24.2271 H   0  0  0  0  0  0
  -17.5131  -31.6330   24.5008 H   0  0  0  0  0  0
  -15.5496  -30.3122   23.7770 H   0  0  0  0  0  0
  -15.8742  -28.0793   22.7248 H   0  0  0  0  0  0
  -24.5849  -30.7082   25.7820 H   0  0  0  0  0  0
  -24.8890  -32.2885   26.4894 H   0  0  0  0  0  0
  -25.7992  -30.8886   27.0271 H   0  0  0  0  0  0
  -26.3090  -29.6676   24.1292 H   0  0  0  0  0  0
  -27.4106  -29.7256   25.4823 H   0  0  0  0  0  0
  -27.8940  -30.4285   23.9614 H   0  0  0  0  0  0
  -27.2660  -33.3614   26.2044 H   0  0  0  0  0  0
  -28.3843  -32.6857   25.0304 H   0  0  0  0  0  0
  -28.0741  -31.8449   26.5426 H   0  0  0  0  0  0
  -28.2605  -38.0068   24.7523 H   0  0  0  0  0  0
  -28.1086  -36.2599   24.6310 H   0  0  0  0  0  0
  -27.2262  -37.1418   25.8853 H   0  0  0  0  0  0
  -20.9424  -29.8785   21.6846 H   0  0  0  0  0  0
  -26.0204  -38.2833   24.1395 H   0  0  0  0  0  0
  -32.4427  -19.3983   22.1020 H   0  0  0  0  0  0
  -30.8593  -21.1391   21.2996 H   0  0  0  0  0  0
  -32.0261  -16.9969   21.7618 H   0  0  0  0  0  0
  -26.4524  -21.3773   18.6552 H   0  0  0  0  0  0
  -27.0755  -22.8650   18.0937 H   0  0  0  0  0  0
  -26.0391  -22.8087   19.5398 H   0  0  0  0  0  0
  -27.5530  -20.1815   19.8451 H   0  0  0  0  0  0
  -28.7991  -20.5853   18.7102 H   0  0  0  0  0  0
  -26.8384  -24.6794   20.4372 H   0  0  0  0  0  0
  -27.6019  -24.8071   18.8443 H   0  0  0  0  0  0
  -28.8168  -15.5752   20.8229 H   0  0  0  0  0  0
  1 25  1  0  0  0
  1 30  2  0  0  0
  1 81  1  0  0  0
  2  3  1  0  0  0
  2 25  1  0  0  0
  2 85  1  0  0  0
  2 86  1  0  0  0
  3  4  1  0  0  0
  3 87  1  0  0  0
  3 88  1  0  0  0
  4  5  1  0  0  0
  4 89  1  0  0  0
  4 90  1  0  0  0
  5  6  1  0  0  0
  5 26  1  0  0  0
  5 91  1  0  0  0
  6 25  1  0  0  0
  6 92  1  0  0  0
  6 93  1  0  0  0
  7  8  2  0  0  0
  7 26  1  0  0  0
  7 29  1  0  0  0
  8  9  1  0  0  0
  8 22  1  0  0  0
  9 10  1  0  0  0
  9 27  2  0  0  0
 10 11  2  0  0  0
 10 15  1  0  0  0
 11 12  1  0  0  0
 11 94  1  0  0  0
 12 13  2  0  0  0
 12 95  1  0  0  0
 13 14  1  0  0  0
 13 31  1  0  0  0
 14 15  2  0  0  0
 14 96  1  0  0  0
 15 97  1  0  0  0
 16 17  2  0  0  0
 16 21  1  0  0  0
 16 31  1  0  0  0
 17 18  1  0  0  0
 17 98  1  0  0  0
 18 19  2  0  0  0
 18 99  1  0  0  0
 19 20  1  0  0  0
 19 24  1  0  0  0
 20 21  2  0  0  0
 20100  1  0  0  0
 21 23  1  0  0  0
 22 28  1  0  0  0
 22 32  2  0  0  0
 26 27  1  0  0  0
 28101  1  0  0  0
 28102  1  0  0  0
 29103  1  0  0  0
 29104  1  0  0  0
 33 34  1  0  0  0
 33 66  1  0  0  0
 33 70  2  0  0  0
 34 36  1  0  0  0
 34 59  1  0  0  0
 34105  1  0  0  0
 35 44  2  0  0  0
 35 45  1  0  0  0
 35 68  1  0  0  0
 36 56  1  0  0  0
 36106  1  0  0  0
 37 39  1  0  0  0
 37 47  1  0  0  0
 37 66  1  0  0  0
 37107  1  0  0  0
 38 43  2  0  0  0
 38 46  1  0  0  0
 38 47  1  0  0  0
 39 64  1  0  0  0
 39 67  2  0  0  0
 40 52  1  0  0  0
 40 53  2  0  0  0
 40 58  1  0  0  0
 41108  1  0  0  0
 41109  1  0  0  0
 41110  1  0  0  0
 41 48  1  0  0  0
 42 43  1  0  0  0
 42 66  1  0  0  0
 42111  1  0  0  0
 42112  1  0  0  0
 43 44  1  0  0  0
 44113  1  0  0  0
 45 46  2  0  0  0
 45114  1  0  0  0
 46115  1  0  0  0
 47116  1  0  0  0
 47117  1  0  0  0
 48 56  1  0  0  0
 48 65  1  0  0  0
 48118  1  0  0  0
 49 50  1  0  0  0
 49 53  1  0  0  0
 49 64  1  0  0  0
 49119  1  0  0  0
 50 51  1  0  0  0
 50120  1  0  0  0
 50121  1  0  0  0
 51 52  1  0  0  0
 51122  1  0  0  0
 51123  1  0  0  0
 52124  1  0  0  0
 52125  1  0  0  0
 53 54  1  0  0  0
 54 55  2  0  0  0
 54126  1  0  0  0
 55 57  1  0  0  0
 55127  1  0  0  0
 56 69  2  0  0  0
 57 58  2  0  0  0
 57128  1  0  0  0
 58129  1  0  0  0
 59 60  1  0  0  0
 59 61  1  0  0  0
 59 62  1  0  0  0
 60130  1  0  0  0
 60131  1  0  0  0
 60132  1  0  0  0
 61133  1  0  0  0
 61134  1  0  0  0
 61135  1  0  0  0
 62136  1  0  0  0
 62137  1  0  0  0
 62138  1  0  0  0
 63 65  1  0  0  0
 63139  1  0  0  0
 63140  1  0  0  0
 63141  1  0  0  0
 64142  1  0  0  0
 65143  1  0  0  0
 68 80  1  0  0  0
 71 72  2  0  0  0
 71 73  1  0  0  0
 71144  1  0  0  0
 72 74  1  0  0  0
 72145  1  0  0  0
 73 75  2  0  0  0
 73146  1  0  0  0
 74 76  2  0  0  0
 74 79  1  0  0  0
 75 76  1  0  0  0
 75 81  1  0  0  0
 76 84  1  0  0  0
 77 80  1  0  0  0
 77 82  1  0  0  0
 77 83  2  0  0  0
 78 82  1  0  0  0
 78147  1  0  0  0
 78148  1  0  0  0
 78149  1  0  0  0
 79 82  1  0  0  0
 79150  1  0  0  0
 79151  1  0  0  0
 80152  1  0  0  0
 80153  1  0  0  0
 81154  1  0  0  0
M  ISO  4   1 100  68 101  80 101  81 100
M  END
> <chiral flag>
0

> <version>
0

> <s_m_source_file>
/data/baiqing/PycharmProjects/Reinvent-master-3.2/result/LINK_invent/BTK/process_docking_weight1_custom_product_contain_oxygen_bond_distance_aromatic_linkinvent_7_9_3/rearranged_h_0053.sdf

> <i_m_source_file_index>
14

> <r_mmod_Potential_Energy-OPLS-2005>
302.711334228516

> <r_mmod_Stretch_Energy-OPLS-2005>
137.106018066406

> <r_mmod_Bend_Energy-OPLS-2005>
264.182525634766

> <r_mmod_Torsional_Energy-OPLS-2005>
229.2119140625

> <r_mmod_Improper_Torsional_Energy-OPLS-2005>
7.28642559051514

> <r_mmod_Van_der_Waal_Energy-OPLS-2005>
172.171188354492

> <r_mmod_Electrostatic_Energy-OPLS-2005>
-366.748016357422

> <r_mmod_Solvation_Energy-OPLS-2005>
-237.770736694336

> <b_mmod_Minimization_Converged-OPLS-2005>
0

> <r_mmod_RMS_Derivative-OPLS-2005>
6.91599607467651

$$$$
14
                    3D
 Structure written by MMmdl.
163171  0  0  1  0            999 V2000
  -30.6125  -14.5579   20.5521 C   0  0  0  0  0  0
  -30.4466  -12.3562   19.4178 C   0  0  0  0  0  0
  -29.5007  -12.5001   18.2049 C   0  0  0  0  0  0
  -28.0243  -12.3361   18.6250 C   0  0  0  0  0  0
  -27.6563  -13.1930   19.8642 C   0  0  2  0  0  0
  -28.6998  -12.9888   20.9852 C   0  0  0  0  0  0
  -25.2590  -13.8129   20.5648 C   0  0  0  0  0  0
  -24.1843  -13.0430   20.9178 C   0  0  0  0  0  0
  -24.6383  -11.6889   20.8748 C   0  0  0  0  0  0
  -23.9051  -10.4292   21.0437 C   0  0  0  0  0  0
  -24.3609   -9.4210   21.9205 C   0  0  0  0  0  0
  -23.6298   -8.2239   22.0754 C   0  0  0  0  0  0
  -22.4282   -8.0286   21.3545 C   0  0  0  0  0  0
  -21.9918   -9.0267   20.4651 C   0  0  0  0  0  0
  -22.7235  -10.2144   20.3082 C   0  0  0  0  0  0
  -21.6850   -6.0746   22.5283 C   0  0  0  0  0  0
  -21.4013   -6.5645   23.8223 C   0  0  0  0  0  0
  -21.3649   -5.6792   24.9180 C   0  0  0  0  0  0
  -21.6041   -4.3058   24.7229 C   0  0  0  0  0  0
  -21.8812   -3.8153   23.4349 C   0  0  0  0  0  0
  -21.9197   -4.6973   22.3411 C   0  0  0  0  0  0
  -22.7870  -13.5238   21.1865 C   0  0  0  0  0  0
  -22.1659   -4.2165   21.0988 F   0  0  0  0  0  0
  -21.5631   -3.4539   25.7739 F   0  0  0  0  0  0
  -30.0194  -13.3361   20.4279 N   0  0  0  0  0  0
  -26.2998  -12.9264   20.3307 N   0  0  0  0  0  0
  -25.9302  -11.6445   20.5752 N   0  0  0  0  0  0
  -22.0499  -12.8253   22.0418 N   0  0  0  0  0  0
  -25.4342  -15.1849   20.4012 N   0  0  0  0  0  0
  -31.7751  -14.7805   20.1965 O   0  0  0  0  0  0
  -21.6630   -6.8893   21.4254 O   0  0  0  0  0  0
  -22.3578  -14.5561   20.6729 O   0  0  0  0  0  0
  -24.6179  -31.8647   23.2057 C   0  0  0  0  0  0
  -25.9061  -32.4792   23.8370 C   0  0  1  0  0  0
  -27.2339  -27.3880   20.1145 C   0  0  0  0  0  0
  -25.5911  -33.8599   24.2298 N   0  0  0  0  0  0
  -23.4072  -30.4866   21.5474 C   0  0  2  0  0  0
  -24.8533  -28.9411   20.1169 C   0  0  0  0  0  0
  -22.7414  -29.4666   22.4991 C   0  0  0  0  0  0
  -18.0272  -28.1375   22.8487 C   0  0  0  0  0  0
  -24.1493  -36.7313   23.2643 C   0  0  0  0  0  0
  -25.9390  -30.8161   21.3630 C   0  0  0  0  0  0
  -26.0169  -29.4473   20.7091 C   0  0  0  0  0  0
  -27.2113  -28.6839   20.6918 C   0  0  0  0  0  0
  -26.0522  -26.9054   19.5116 C   0  0  0  0  0  0
  -24.8691  -27.6720   19.5112 C   0  0  0  0  0  0
  -23.6161  -29.8127   20.1653 C   0  0  0  0  0  0
  -25.4111  -36.3096   24.0332 C   0  0  1  0  0  0
  -20.5864  -28.3681   23.1304 C   0  0  2  0  0  0
  -20.6765  -26.9416   22.5414 C   0  0  0  0  0  0
  -19.5746  -26.6385   21.5209 C   0  0  0  0  0  0
  -18.1925  -26.7917   22.1625 C   0  0  0  0  0  0
  -19.1522  -28.8842   23.2892 C   0  0  0  0  0  0
  -18.9451  -30.1447   23.8902 C   0  0  0  0  0  0
  -17.6453  -30.6582   24.0564 C   0  0  0  0  0  0
  -25.9040  -34.9463   23.5108 C   0  0  0  0  0  0
  -16.5347  -29.9081   23.6324 C   0  0  0  0  0  0
  -16.7264  -28.6498   23.0344 C   0  0  0  0  0  0
  -26.4476  -31.6569   25.0710 C   0  0  0  0  0  0
  -25.3743  -31.3684   26.1457 C   0  0  0  0  0  0
  -27.0301  -30.2999   24.6102 C   0  0  0  0  0  0
  -27.6039  -32.4303   25.7478 C   0  0  0  0  0  0
  -27.5574  -37.1808   24.8461 C   0  0  0  0  0  0
  -21.4142  -29.3039   22.3701 N   0  0  0  0  0  0
  -26.4299  -37.3776   23.9397 N   0  0  0  0  0  0
  -24.6732  -31.0717   22.0964 N   0  0  0  0  0  0
  -23.4160  -28.8232   23.3078 O   0  0  0  0  0  0
  -28.4022  -26.6392   20.1064 O   0  0  0  0  0  0
  -26.5619  -34.8921   22.4681 O   0  0  0  0  0  0
  -23.5367  -32.1445   23.7420 O   0  0  0  0  0  0
  -29.5451  -18.2222   23.3918 C   0  0  0  0  0  0
  -29.6216  -16.9586   22.7822 C   0  0  0  0  0  0
  -29.9966  -18.0385   20.6327 C   0  0  0  0  0  0
  -29.6963  -19.4073   22.6391 C   0  0  0  0  0  0
  -29.9185  -19.3347   21.2372 C   0  0  0  0  0  0
  -29.8611  -16.8438   21.4001 C   0  0  0  0  0  0
  -29.1340  -21.7426   20.2867 C   0  0  0  0  0  0
  -29.6219  -20.7353   23.3766 C   0  0  0  0  0  0
  -30.2309  -24.9307   18.8298 C   0  0  0  0  0  0
  -28.0136  -23.8904   18.3734 C   0  0  0  0  0  0
  -30.2129  -20.6141   20.4009 C   0  0  0  0  0  0
  -28.3583  -25.2382   20.5108 C   0  0  0  0  0  0
  -29.0196  -24.2387   19.4893 C   0  0  0  0  0  0
  -29.7176  -15.5413   20.8220 N   0  0  0  0  0  0
  -29.5988  -23.0064   20.1085 N   0  0  0  0  0  0
  -27.9332  -21.4664   20.2843 O   0  0  0  0  0  0
  -31.4813  -12.5062   19.1053 H   0  0  0  0  0  0
  -30.4001  -11.3486   19.8320 H   0  0  0  0  0  0
  -29.7562  -11.7643   17.4407 H   0  0  0  0  0  0
  -29.6419  -13.4779   17.7403 H   0  0  0  0  0  0
  -27.8588  -11.2814   18.8449 H   0  0  0  0  0  0
  -27.3634  -12.5732   17.7918 H   0  0  0  0  0  0
  -27.6891  -14.2335   19.5426 H   0  0  0  0  0  0
  -28.6983  -11.9509   21.3232 H   0  0  0  0  0  0
  -28.4515  -13.5828   21.8669 H   0  0  0  0  0  0
  -25.2766   -9.5672   22.4769 H   0  0  0  0  0  0
  -24.0006   -7.4623   22.7464 H   0  0  0  0  0  0
  -21.0851   -8.8797   19.8958 H   0  0  0  0  0  0
  -22.3720  -10.9689   19.6183 H   0  0  0  0  0  0
  -21.1998   -7.6151   23.9736 H   0  0  0  0  0  0
  -21.1474   -6.0515   25.9079 H   0  0  0  0  0  0
  -22.0604   -2.7622   23.2844 H   0  0  0  0  0  0
  -22.4095  -11.9883   22.4775 H   0  0  0  0  0  0
  -21.1129  -13.1313   22.2653 H   0  0  0  0  0  0
  -24.6659  -15.8387   20.5007 H   0  0  0  0  0  0
  -26.2813  -15.6216   20.0598 H   0  0  0  0  0  0
  -26.7135  -32.5476   23.1136 H   0  0  0  0  0  0
  -25.0022  -33.9777   25.0413 H   0  0  0  0  0  0
  -22.6978  -31.3044   21.4063 H   0  0  0  0  0  0
  -23.3746  -35.9659   23.3314 H   0  0  0  0  0  0
  -24.3588  -36.8921   22.2058 H   0  0  0  0  0  0
  -23.7262  -37.6526   23.6654 H   0  0  0  0  0  0
  -26.0596  -31.5816   20.5955 H   0  0  0  0  0  0
  -26.8237  -30.8663   21.9856 H   0  0  0  0  0  0
  -28.1118  -29.0773   21.1416 H   0  0  0  0  0  0
  -26.0384  -25.9357   19.0343 H   0  0  0  0  0  0
  -23.9747  -27.2772   19.0492 H   0  0  0  0  0  0
  -23.7260  -30.5868   19.4041 H   0  0  0  0  0  0
  -22.7352  -29.2395   19.8710 H   0  0  0  0  0  0
  -25.1284  -36.1962   25.0827 H   0  0  0  0  0  0
  -20.9970  -28.3269   24.1417 H   0  0  0  0  0  0
  -20.5661  -26.2311   23.3619 H   0  0  0  0  0  0
  -21.6632  -26.7443   22.1214 H   0  0  0  0  0  0
  -19.6918  -25.6300   21.1231 H   0  0  0  0  0  0
  -19.6670  -27.3201   20.6744 H   0  0  0  0  0  0
  -17.4190  -26.6671   21.4029 H   0  0  0  0  0  0
  -18.0331  -26.0050   22.9015 H   0  0  0  0  0  0
  -19.7932  -30.7262   24.2270 H   0  0  0  0  0  0
  -17.5009  -31.6255   24.5174 H   0  0  0  0  0  0
  -15.5348  -30.2986   23.7630 H   0  0  0  0  0  0
  -15.8672  -28.0817   22.7049 H   0  0  0  0  0  0
  -24.5923  -30.7024   25.7787 H   0  0  0  0  0  0
  -24.8945  -32.2846   26.4903 H   0  0  0  0  0  0
  -25.8111  -30.8852   27.0204 H   0  0  0  0  0  0
  -26.2840  -29.6773   24.1145 H   0  0  0  0  0  0
  -27.4041  -29.7221   25.4559 H   0  0  0  0  0  0
  -27.8691  -30.4301   23.9267 H   0  0  0  0  0  0
  -27.2627  -33.3581   26.2084 H   0  0  0  0  0  0
  -28.3826  -32.6894   25.0293 H   0  0  0  0  0  0
  -28.0729  -31.8416   26.5376 H   0  0  0  0  0  0
  -28.2584  -38.0106   24.7472 H   0  0  0  0  0  0
  -28.1074  -36.2629   24.6316 H   0  0  0  0  0  0
  -27.2296  -37.1482   25.8869 H   0  0  0  0  0  0
  -20.9329  -29.8744   21.6888 H   0  0  0  0  0  0
  -26.0183  -38.2859   24.1378 H   0  0  0  0  0  0
  -29.3568  -18.2744   24.4545 H   0  0  0  0  0  0
  -29.4672  -16.0755   23.3885 H   0  0  0  0  0  0
  -30.1474  -17.9573   19.5653 H   0  0  0  0  0  0
  -28.6822  -21.2447   23.1577 H   0  0  0  0  0  0
  -30.4482  -21.3879   23.0991 H   0  0  0  0  0  0
  -29.6660  -20.5881   24.4574 H   0  0  0  0  0  0
  -29.9293  -25.7860   18.2238 H   0  0  0  0  0  0
  -30.7696  -24.2518   18.1669 H   0  0  0  0  0  0
  -30.9415  -25.2970   19.5730 H   0  0  0  0  0  0
  -27.7611  -24.7784   17.7913 H   0  0  0  0  0  0
  -27.0814  -23.4981   18.7797 H   0  0  0  0  0  0
  -28.4145  -23.1501   17.6800 H   0  0  0  0  0  0
  -30.4501  -20.3065   19.3817 H   0  0  0  0  0  0
  -31.1367  -21.0435   20.7898 H   0  0  0  0  0  0
  -27.3441  -24.9187   20.7531 H   0  0  0  0  0  0
  -28.9041  -25.1807   21.4532 H   0  0  0  0  0  0
  -28.7966  -15.1495   20.9408 H   0  0  0  0  0  0
  -30.5977  -23.0803   20.2492 H   0  0  0  0  0  0
  1 25  1  0  0  0
  1 30  2  0  0  0
  1 84  1  0  0  0
  2  3  1  0  0  0
  2 25  1  0  0  0
  2 87  1  0  0  0
  2 88  1  0  0  0
  3  4  1  0  0  0
  3 89  1  0  0  0
  3 90  1  0  0  0
  4  5  1  0  0  0
  4 91  1  0  0  0
  4 92  1  0  0  0
  5  6  1  0  0  0
  5 26  1  0  0  0
  5 93  1  0  0  0
  6 25  1  0  0  0
  6 94  1  0  0  0
  6 95  1  0  0  0
  7  8  2  0  0  0
  7 26  1  0  0  0
  7 29  1  0  0  0
  8  9  1  0  0  0
  8 22  1  0  0  0
  9 10  1  0  0  0
  9 27  2  0  0  0
 10 11  2  0  0  0
 10 15  1  0  0  0
 11 12  1  0  0  0
 11 96  1  0  0  0
 12 13  2  0  0  0
 12 97  1  0  0  0
 13 14  1  0  0  0
 13 31  1  0  0  0
 14 15  2  0  0  0
 14 98  1  0  0  0
 15 99  1  0  0  0
 16 17  2  0  0  0
 16 21  1  0  0  0
 16 31  1  0  0  0
 17 18  1  0  0  0
 17100  1  0  0  0
 18 19  2  0  0  0
 18101  1  0  0  0
 19 20  1  0  0  0
 19 24  1  0  0  0
 20 21  2  0  0  0
 20102  1  0  0  0
 21 23  1  0  0  0
 22 28  1  0  0  0
 22 32  2  0  0  0
 26 27  1  0  0  0
 28103  1  0  0  0
 28104  1  0  0  0
 29105  1  0  0  0
 29106  1  0  0  0
 33 34  1  0  0  0
 33 66  1  0  0  0
 33 70  2  0  0  0
 34 36  1  0  0  0
 34 59  1  0  0  0
 34107  1  0  0  0
 35 44  2  0  0  0
 35 45  1  0  0  0
 35 68  1  0  0  0
 36 56  1  0  0  0
 36108  1  0  0  0
 37 39  1  0  0  0
 37 47  1  0  0  0
 37 66  1  0  0  0
 37109  1  0  0  0
 38 43  2  0  0  0
 38 46  1  0  0  0
 38 47  1  0  0  0
 39 64  1  0  0  0
 39 67  2  0  0  0
 40 52  1  0  0  0
 40 53  2  0  0  0
 40 58  1  0  0  0
 41110  1  0  0  0
 41111  1  0  0  0
 41112  1  0  0  0
 41 48  1  0  0  0
 42 43  1  0  0  0
 42 66  1  0  0  0
 42113  1  0  0  0
 42114  1  0  0  0
 43 44  1  0  0  0
 44115  1  0  0  0
 45 46  2  0  0  0
 45116  1  0  0  0
 46117  1  0  0  0
 47118  1  0  0  0
 47119  1  0  0  0
 48 56  1  0  0  0
 48 65  1  0  0  0
 48120  1  0  0  0
 49 50  1  0  0  0
 49 53  1  0  0  0
 49 64  1  0  0  0
 49121  1  0  0  0
 50 51  1  0  0  0
 50122  1  0  0  0
 50123  1  0  0  0
 51 52  1  0  0  0
 51124  1  0  0  0
 51125  1  0  0  0
 52126  1  0  0  0
 52127  1  0  0  0
 53 54  1  0  0  0
 54 55  2  0  0  0
 54128  1  0  0  0
 55 57  1  0  0  0
 55129  1  0  0  0
 56 69  2  0  0  0
 57 58  2  0  0  0
 57130  1  0  0  0
 58131  1  0  0  0
 59 60  1  0  0  0
 59 61  1  0  0  0
 59 62  1  0  0  0
 60132  1  0  0  0
 60133  1  0  0  0
 60134  1  0  0  0
 61135  1  0  0  0
 61136  1  0  0  0
 61137  1  0  0  0
 62138  1  0  0  0
 62139  1  0  0  0
 62140  1  0  0  0
 63 65  1  0  0  0
 63141  1  0  0  0
 63142  1  0  0  0
 63143  1  0  0  0
 64144  1  0  0  0
 65145  1  0  0  0
 68 82  1  0  0  0
 71 72  2  0  0  0
 71 74  1  0  0  0
 71146  1  0  0  0
 72 76  1  0  0  0
 72147  1  0  0  0
 73 75  1  0  0  0
 73 76  2  0  0  0
 73148  1  0  0  0
 74 75  2  0  0  0
 74 78  1  0  0  0
 75 81  1  0  0  0
 76 84  1  0  0  0
 77 81  1  0  0  0
 77 85  1  0  0  0
 77 86  2  0  0  0
 78149  1  0  0  0
 78150  1  0  0  0
 78151  1  0  0  0
 79152  1  0  0  0
 79153  1  0  0  0
 79154  1  0  0  0
 79 83  1  0  0  0
 80 83  1  0  0  0
 80155  1  0  0  0
 80156  1  0  0  0
 80157  1  0  0  0
 81158  1  0  0  0
 81159  1  0  0  0
 82 83  1  0  0  0
 82160  1  0  0  0
 82161  1  0  0  0
 83 85  1  0  0  0
 84162  1  0  0  0
 85163  1  0  0  0
M  ISO  4   1 100  68 101  82 101  84 100
M  END
> <chiral flag>
0

> <version>
0

> <s_m_source_file>
/data/baiqing/PycharmProjects/Reinvent-master-3.2/result/LINK_invent/BTK/process_docking_weight1_custom_product_contain_oxygen_bond_distance_aromatic_linkinvent_7_9_3/rearranged_h_0053.sdf

> <i_m_source_file_index>
15

> <r_mmod_Potential_Energy-OPLS-2005>
0.837620437145233

> <r_mmod_Stretch_Energy-OPLS-2005>
54.2050933837891

> <r_mmod_Bend_Energy-OPLS-2005>
136.710357666016

> <r_mmod_Torsional_Energy-OPLS-2005>
263.355743408203

> <r_mmod_Improper_Torsional_Energy-OPLS-2005>
11.120677947998

> <r_mmod_Van_der_Waal_Energy-OPLS-2005>
142.625747680664

> <r_mmod_Electrostatic_Energy-OPLS-2005>
-404.357421875

> <r_mmod_Solvation_Energy-OPLS-2005>
-228.567611694336

> <b_mmod_Minimization_Converged-OPLS-2005>
0

> <r_mmod_RMS_Derivative-OPLS-2005>
2.65971684455872

$$$$
15
                    3D
 Structure written by MMmdl.
151159  0  0  1  0            999 V2000
  -30.5970  -14.7547   20.4645 C   0  0  0  0  0  0
  -30.4376  -12.4627   19.4673 C   0  0  0  0  0  0
  -29.5093  -12.5002   18.2334 C   0  0  0  0  0  0
  -28.0371  -12.3188   18.6516 C   0  0  0  0  0  0
  -27.6406  -13.2250   19.8469 C   0  0  2  0  0  0
  -28.6867  -13.1634   20.9808 C   0  0  0  0  0  0
  -25.2510  -13.8182   20.5684 C   0  0  0  0  0  0
  -24.1799  -13.0436   20.9213 C   0  0  0  0  0  0
  -24.6385  -11.6912   20.8760 C   0  0  0  0  0  0
  -23.9062  -10.4293   21.0415 C   0  0  0  0  0  0
  -24.3617   -9.4206   21.9188 C   0  0  0  0  0  0
  -23.6291   -8.2241   22.0752 C   0  0  0  0  0  0
  -22.4271   -8.0282   21.3541 C   0  0  0  0  0  0
  -21.9908   -9.0255   20.4642 C   0  0  0  0  0  0
  -22.7238  -10.2134   20.3057 C   0  0  0  0  0  0
  -21.6852   -6.0734   22.5281 C   0  0  0  0  0  0
  -21.4013   -6.5638   23.8214 C   0  0  0  0  0  0
  -21.3657   -5.6791   24.9178 C   0  0  0  0  0  0
  -21.6045   -4.3053   24.7227 C   0  0  0  0  0  0
  -21.8820   -3.8146   23.4347 C   0  0  0  0  0  0
  -21.9191   -4.6963   22.3405 C   0  0  0  0  0  0
  -22.7822  -13.5224   21.1875 C   0  0  0  0  0  0
  -22.1661   -4.2146   21.0981 F   0  0  0  0  0  0
  -21.5628   -3.4538   25.7740 F   0  0  0  0  0  0
  -29.9829  -13.5241   20.3932 N   0  0  0  0  0  0
  -26.2929  -12.9373   20.3268 N   0  0  0  0  0  0
  -25.9311  -11.6526   20.5758 N   0  0  0  0  0  0
  -22.0467  -12.8211   22.0427 N   0  0  0  0  0  0
  -25.4184  -15.1909   20.4075 N   0  0  0  0  0  0
  -31.7919  -14.8551   20.1705 O   0  0  0  0  0  0
  -21.6637   -6.8876   21.4240 O   0  0  0  0  0  0
  -22.3509  -14.5531   20.6721 O   0  0  0  0  0  0
  -24.6308  -31.8537   23.1965 C   0  0  0  0  0  0
  -25.9130  -32.4747   23.8316 C   0  0  1  0  0  0
  -27.2239  -27.2624   20.1383 C   0  0  0  0  0  0
  -25.5926  -33.8546   24.2243 N   0  0  0  0  0  0
  -23.4283  -30.4743   21.5399 C   0  0  2  0  0  0
  -24.8770  -28.9135   20.1153 C   0  0  0  0  0  0
  -22.7500  -29.4590   22.4910 C   0  0  0  0  0  0
  -18.0292  -28.1375   22.8470 C   0  0  0  0  0  0
  -24.1491  -36.7281   23.2641 C   0  0  0  0  0  0
  -25.9734  -30.7684   21.3740 C   0  0  0  0  0  0
  -26.0485  -29.3884   20.7203 C   0  0  0  0  0  0
  -27.2284  -28.5770   20.7145 C   0  0  0  0  0  0
  -26.0312  -26.8467   19.5130 C   0  0  0  0  0  0
  -24.8728  -27.6502   19.5007 C   0  0  0  0  0  0
  -23.6475  -29.8014   20.1583 C   0  0  0  0  0  0
  -25.4119  -36.3060   24.0323 C   0  0  1  0  0  0
  -20.5897  -28.3686   23.1262 C   0  0  2  0  0  0
  -20.6778  -26.9401   22.5402 C   0  0  0  0  0  0
  -19.5757  -26.6370   21.5200 C   0  0  0  0  0  0
  -18.1937  -26.7916   22.1611 C   0  0  0  0  0  0
  -19.1548  -28.8849   23.2859 C   0  0  0  0  0  0
  -18.9471  -30.1451   23.8876 C   0  0  0  0  0  0
  -17.6472  -30.6578   24.0556 C   0  0  0  0  0  0
  -25.9052  -34.9430   23.5083 C   0  0  0  0  0  0
  -16.5359  -29.9076   23.6329 C   0  0  0  0  0  0
  -16.7280  -28.6495   23.0344 C   0  0  0  0  0  0
  -26.4500  -31.6583   25.0709 C   0  0  0  0  0  0
  -25.3716  -31.3742   26.1425 C   0  0  0  0  0  0
  -27.0355  -30.3003   24.6193 C   0  0  0  0  0  0
  -27.6048  -32.4336   25.7485 C   0  0  0  0  0  0
  -27.5577  -37.1798   24.8464 C   0  0  0  0  0  0
  -21.4208  -29.3040   22.3657 N   0  0  0  0  0  0
  -26.4291  -37.3759   23.9403 N   0  0  0  0  0  0
  -24.6968  -31.0504   22.0936 N   0  0  0  0  0  0
  -23.4202  -28.8134   23.3010 O   0  0  0  0  0  0
  -28.3225  -26.3778   20.1326 O   0  0  0  0  0  0
  -26.5625  -34.8906   22.4655 O   0  0  0  0  0  0
  -23.5458  -32.1359   23.7263 O   0  0  0  0  0  0
  -30.6670  -20.0897   21.4064 C   0  0  0  0  0  0
  -31.4248  -19.0313   21.9536 C   0  0  0  0  0  0
  -29.3090  -18.4292   20.2625 C   0  0  0  0  0  0
  -29.5794  -19.8360   20.5476 C   0  0  0  0  0  0
  -30.0876  -17.3161   20.7975 C   0  0  0  0  0  0
  -31.1439  -17.6769   21.6687 C   0  0  0  0  0  0
  -28.5098  -23.6988   19.9230 C   0  0  0  0  0  0
  -28.7902  -21.0703   19.9075 C   0  0  0  0  0  0
  -28.1742  -25.0221   20.7718 C   0  0  0  0  0  0
  -29.7804  -15.8758   20.5754 N   0  0  0  0  0  0
  -28.7658  -22.4725   20.5295 N   0  0  0  0  0  0
  -28.4811  -23.7790   18.6930 O   0  0  0  0  0  0
  -31.8772  -16.7230   22.2907 F   0  0  0  0  0  0
  -31.4749  -12.6010   19.1587 H   0  0  0  0  0  0
  -30.3977  -11.4877   19.9560 H   0  0  0  0  0  0
  -29.7954  -11.7229   17.5236 H   0  0  0  0  0  0
  -29.6274  -13.4509   17.7116 H   0  0  0  0  0  0
  -27.9028  -11.2715   18.9251 H   0  0  0  0  0  0
  -27.3760  -12.4988   17.8031 H   0  0  0  0  0  0
  -27.6322  -14.2432   19.4582 H   0  0  0  0  0  0
  -28.7281  -12.1660   21.4213 H   0  0  0  0  0  0
  -28.4206  -13.8451   21.7905 H   0  0  0  0  0  0
  -25.2760   -9.5682   22.4763 H   0  0  0  0  0  0
  -24.0001   -7.4629   22.7468 H   0  0  0  0  0  0
  -21.0841   -8.8776   19.8945 H   0  0  0  0  0  0
  -22.3701  -10.9673   19.6167 H   0  0  0  0  0  0
  -21.2007   -7.6145   23.9719 H   0  0  0  0  0  0
  -21.1476   -6.0519   25.9079 H   0  0  0  0  0  0
  -22.0600   -2.7606   23.2852 H   0  0  0  0  0  0
  -22.4086  -11.9873   22.4813 H   0  0  0  0  0  0
  -21.1080  -13.1228   22.2636 H   0  0  0  0  0  0
  -24.6458  -15.8387   20.5171 H   0  0  0  0  0  0
  -26.2529  -15.6325   20.0456 H   0  0  0  0  0  0
  -26.7202  -32.5399   23.1062 H   0  0  0  0  0  0
  -25.0077  -33.9680   25.0391 H   0  0  0  0  0  0
  -22.7246  -31.2960   21.3899 H   0  0  0  0  0  0
  -23.3744  -35.9622   23.3303 H   0  0  0  0  0  0
  -24.3582  -36.8903   22.2054 H   0  0  0  0  0  0
  -23.7256  -37.6487   23.6670 H   0  0  0  0  0  0
  -26.1081  -31.5268   20.6021 H   0  0  0  0  0  0
  -26.8529  -30.8212   22.0044 H   0  0  0  0  0  0
  -28.1304  -28.9392   21.1878 H   0  0  0  0  0  0
  -25.9930  -25.8756   19.0396 H   0  0  0  0  0  0
  -23.9756  -27.2805   19.0228 H   0  0  0  0  0  0
  -23.7734  -30.5738   19.3984 H   0  0  0  0  0  0
  -22.7663  -29.2325   19.8553 H   0  0  0  0  0  0
  -25.1307  -36.1899   25.0815 H   0  0  0  0  0  0
  -20.9992  -28.3263   24.1384 H   0  0  0  0  0  0
  -20.5665  -26.2296   23.3608 H   0  0  0  0  0  0
  -21.6648  -26.7418   22.1205 H   0  0  0  0  0  0
  -19.6918  -25.6280   21.1234 H   0  0  0  0  0  0
  -19.6697  -27.3176   20.6725 H   0  0  0  0  0  0
  -17.4204  -26.6653   21.4014 H   0  0  0  0  0  0
  -18.0347  -26.0059   22.9009 H   0  0  0  0  0  0
  -19.7948  -30.7267   24.2238 H   0  0  0  0  0  0
  -17.5025  -31.6259   24.5158 H   0  0  0  0  0  0
  -15.5360  -30.2972   23.7666 H   0  0  0  0  0  0
  -15.8673  -28.0815   22.7066 H   0  0  0  0  0  0
  -24.5888  -30.7094   25.7759 H   0  0  0  0  0  0
  -24.8900  -32.2911   26.4836 H   0  0  0  0  0  0
  -25.8015  -30.8932   27.0215 H   0  0  0  0  0  0
  -26.2947  -29.6740   24.1208 H   0  0  0  0  0  0
  -27.4043  -29.7274   25.4712 H   0  0  0  0  0  0
  -27.8815  -30.4293   23.9434 H   0  0  0  0  0  0
  -27.2658  -33.3646   26.2042 H   0  0  0  0  0  0
  -28.3868  -32.6885   25.0319 H   0  0  0  0  0  0
  -28.0702  -31.8469   26.5413 H   0  0  0  0  0  0
  -28.2598  -38.0093   24.7504 H   0  0  0  0  0  0
  -28.1069  -36.2620   24.6305 H   0  0  0  0  0  0
  -27.2288  -37.1472   25.8865 H   0  0  0  0  0  0
  -20.9391  -29.8768   21.6869 H   0  0  0  0  0  0
  -26.0160  -38.2828   24.1403 H   0  0  0  0  0  0
  -30.9373  -21.1085   21.6468 H   0  0  0  0  0  0
  -32.2419  -19.2626   22.6215 H   0  0  0  0  0  0
  -28.4825  -18.2007   19.6050 H   0  0  0  0  0  0
  -27.7518  -20.7557   19.7949 H   0  0  0  0  0  0
  -29.1651  -21.1698   18.8883 H   0  0  0  0  0  0
  -27.1644  -24.9083   21.1689 H   0  0  0  0  0  0
  -28.8303  -25.0148   21.6421 H   0  0  0  0  0  0
  -28.7982  -15.6586   20.5356 H   0  0  0  0  0  0
  -28.7989  -22.4922   21.5401 H   0  0  0  0  0  0
  1 25  1  0  0  0
  1 30  2  0  0  0
  1 80  1  0  0  0
  2  3  1  0  0  0
  2 25  1  0  0  0
  2 84  1  0  0  0
  2 85  1  0  0  0
  3  4  1  0  0  0
  3 86  1  0  0  0
  3 87  1  0  0  0
  4  5  1  0  0  0
  4 88  1  0  0  0
  4 89  1  0  0  0
  5  6  1  0  0  0
  5 26  1  0  0  0
  5 90  1  0  0  0
  6 25  1  0  0  0
  6 91  1  0  0  0
  6 92  1  0  0  0
  7  8  2  0  0  0
  7 26  1  0  0  0
  7 29  1  0  0  0
  8  9  1  0  0  0
  8 22  1  0  0  0
  9 10  1  0  0  0
  9 27  2  0  0  0
 10 11  2  0  0  0
 10 15  1  0  0  0
 11 12  1  0  0  0
 11 93  1  0  0  0
 12 13  2  0  0  0
 12 94  1  0  0  0
 13 14  1  0  0  0
 13 31  1  0  0  0
 14 15  2  0  0  0
 14 95  1  0  0  0
 15 96  1  0  0  0
 16 17  2  0  0  0
 16 21  1  0  0  0
 16 31  1  0  0  0
 17 18  1  0  0  0
 17 97  1  0  0  0
 18 19  2  0  0  0
 18 98  1  0  0  0
 19 20  1  0  0  0
 19 24  1  0  0  0
 20 21  2  0  0  0
 20 99  1  0  0  0
 21 23  1  0  0  0
 22 28  1  0  0  0
 22 32  2  0  0  0
 26 27  1  0  0  0
 28100  1  0  0  0
 28101  1  0  0  0
 29102  1  0  0  0
 29103  1  0  0  0
 33 34  1  0  0  0
 33 66  1  0  0  0
 33 70  2  0  0  0
 34 36  1  0  0  0
 34 59  1  0  0  0
 34104  1  0  0  0
 35 44  2  0  0  0
 35 45  1  0  0  0
 35 68  1  0  0  0
 36 56  1  0  0  0
 36105  1  0  0  0
 37 39  1  0  0  0
 37 47  1  0  0  0
 37 66  1  0  0  0
 37106  1  0  0  0
 38 43  2  0  0  0
 38 46  1  0  0  0
 38 47  1  0  0  0
 39 64  1  0  0  0
 39 67  2  0  0  0
 40 52  1  0  0  0
 40 53  2  0  0  0
 40 58  1  0  0  0
 41107  1  0  0  0
 41108  1  0  0  0
 41109  1  0  0  0
 41 48  1  0  0  0
 42 43  1  0  0  0
 42 66  1  0  0  0
 42110  1  0  0  0
 42111  1  0  0  0
 43 44  1  0  0  0
 44112  1  0  0  0
 45 46  2  0  0  0
 45113  1  0  0  0
 46114  1  0  0  0
 47115  1  0  0  0
 47116  1  0  0  0
 48 56  1  0  0  0
 48 65  1  0  0  0
 48117  1  0  0  0
 49 50  1  0  0  0
 49 53  1  0  0  0
 49 64  1  0  0  0
 49118  1  0  0  0
 50 51  1  0  0  0
 50119  1  0  0  0
 50120  1  0  0  0
 51 52  1  0  0  0
 51121  1  0  0  0
 51122  1  0  0  0
 52123  1  0  0  0
 52124  1  0  0  0
 53 54  1  0  0  0
 54 55  2  0  0  0
 54125  1  0  0  0
 55 57  1  0  0  0
 55126  1  0  0  0
 56 69  2  0  0  0
 57 58  2  0  0  0
 57127  1  0  0  0
 58128  1  0  0  0
 59 60  1  0  0  0
 59 61  1  0  0  0
 59 62  1  0  0  0
 60129  1  0  0  0
 60130  1  0  0  0
 60131  1  0  0  0
 61132  1  0  0  0
 61133  1  0  0  0
 61134  1  0  0  0
 62135  1  0  0  0
 62136  1  0  0  0
 62137  1  0  0  0
 63 65  1  0  0  0
 63138  1  0  0  0
 63139  1  0  0  0
 63140  1  0  0  0
 64141  1  0  0  0
 65142  1  0  0  0
 68 79  1  0  0  0
 71 72  2  0  0  0
 71 74  1  0  0  0
 71143  1  0  0  0
 72 76  1  0  0  0
 72144  1  0  0  0
 73 74  2  0  0  0
 73 75  1  0  0  0
 73145  1  0  0  0
 74 78  1  0  0  0
 75 76  2  0  0  0
 75 80  1  0  0  0
 76 83  1  0  0  0
 77 79  1  0  0  0
 77 81  1  0  0  0
 77 82  2  0  0  0
 78 81  1  0  0  0
 78146  1  0  0  0
 78147  1  0  0  0
 79148  1  0  0  0
 79149  1  0  0  0
 80150  1  0  0  0
 81151  1  0  0  0
M  ISO  4   1 100  68 101  79 101  80 100
M  END
> <chiral flag>
0

> <version>
0

> <s_m_source_file>
/data/baiqing/PycharmProjects/Reinvent-master-3.2/result/LINK_invent/BTK/process_docking_weight1_custom_product_contain_oxygen_bond_distance_aromatic_linkinvent_7_9_3/rearranged_h_0053.sdf

> <i_m_source_file_index>
16

> <r_mmod_Potential_Energy-OPLS-2005>
66.3529586791992

> <r_mmod_Stretch_Energy-OPLS-2005>
124.115219116211

> <r_mmod_Bend_Energy-OPLS-2005>
153.348571777344

> <r_mmod_Torsional_Energy-OPLS-2005>
241.331954956055

> <r_mmod_Improper_Torsional_Energy-OPLS-2005>
8.13535499572754

> <r_mmod_Van_der_Waal_Energy-OPLS-2005>
132.696319580078

> <r_mmod_Electrostatic_Energy-OPLS-2005>
-428.979217529297

> <r_mmod_Solvation_Energy-OPLS-2005>
-250.520172119141

> <b_mmod_Minimization_Converged-OPLS-2005>
0

> <r_mmod_RMS_Derivative-OPLS-2005>
0.988580167293549

$$$$
16
                    3D
 Structure written by MMmdl.
151159  0  0  1  0            999 V2000
  -30.6084  -14.6551   20.5124 C   0  0  0  0  0  0
  -30.4381  -12.4059   19.4552 C   0  0  0  0  0  0
  -29.5130  -12.5297   18.2233 C   0  0  0  0  0  0
  -28.0343  -12.3554   18.6287 C   0  0  0  0  0  0
  -27.6527  -13.2157   19.8622 C   0  0  2  0  0  0
  -28.6938  -13.0704   20.9947 C   0  0  0  0  0  0
  -25.2575  -13.8162   20.5668 C   0  0  0  0  0  0
  -24.1836  -13.0433   20.9185 C   0  0  0  0  0  0
  -24.6398  -11.6888   20.8719 C   0  0  0  0  0  0
  -23.9067  -10.4277   21.0386 C   0  0  0  0  0  0
  -24.3624   -9.4201   21.9169 C   0  0  0  0  0  0
  -23.6296   -8.2250   22.0754 C   0  0  0  0  0  0
  -22.4291   -8.0282   21.3533 C   0  0  0  0  0  0
  -21.9909   -9.0259   20.4638 C   0  0  0  0  0  0
  -22.7243  -10.2130   20.3029 C   0  0  0  0  0  0
  -21.6865   -6.0736   22.5276 C   0  0  0  0  0  0
  -21.4021   -6.5636   23.8215 C   0  0  0  0  0  0
  -21.3672   -5.6778   24.9173 C   0  0  0  0  0  0
  -21.6053   -4.3046   24.7221 C   0  0  0  0  0  0
  -21.8831   -3.8138   23.4344 C   0  0  0  0  0  0
  -21.9197   -4.6959   22.3393 C   0  0  0  0  0  0
  -22.7859  -13.5238   21.1846 C   0  0  0  0  0  0
  -22.1664   -4.2138   21.0975 F   0  0  0  0  0  0
  -21.5633   -3.4538   25.7738 F   0  0  0  0  0  0
  -30.0079  -13.4241   20.4358 N   0  0  0  0  0  0
  -26.2991  -12.9329   20.3283 N   0  0  0  0  0  0
  -25.9322  -11.6483   20.5695 N   0  0  0  0  0  0
  -22.0510  -12.8211   22.0389 N   0  0  0  0  0  0
  -25.4303  -15.1893   20.4092 N   0  0  0  0  0  0
  -31.7733  -14.8155   20.1370 O   0  0  0  0  0  0
  -21.6656   -6.8877   21.4238 O   0  0  0  0  0  0
  -22.3530  -14.5548   20.6691 O   0  0  0  0  0  0
  -24.6264  -31.8606   23.2054 C   0  0  0  0  0  0
  -25.9111  -32.4778   23.8372 C   0  0  1  0  0  0
  -27.2181  -27.3157   20.1303 C   0  0  0  0  0  0
  -25.5934  -33.8577   24.2301 N   0  0  0  0  0  0
  -23.4190  -30.4872   21.5478 C   0  0  2  0  0  0
  -24.8643  -28.9437   20.1110 C   0  0  0  0  0  0
  -22.7472  -29.4634   22.4935 C   0  0  0  0  0  0
  -18.0289  -28.1386   22.8493 C   0  0  0  0  0  0
  -24.1492  -36.7296   23.2639 C   0  0  0  0  0  0
  -25.9610  -30.7906   21.3779 C   0  0  0  0  0  0
  -26.0332  -29.4182   20.7205 C   0  0  0  0  0  0
  -27.2140  -28.6167   20.7202 C   0  0  0  0  0  0
  -26.0319  -26.9040   19.4816 C   0  0  0  0  0  0
  -24.8669  -27.6917   19.4796 C   0  0  0  0  0  0
  -23.6330  -29.8252   20.1610 C   0  0  0  0  0  0
  -25.4118  -36.3085   24.0334 C   0  0  1  0  0  0
  -20.5888  -28.3687   23.1281 C   0  0  2  0  0  0
  -20.6778  -26.9414   22.5403 C   0  0  0  0  0  0
  -19.5754  -26.6385   21.5210 C   0  0  0  0  0  0
  -18.1932  -26.7930   22.1619 C   0  0  0  0  0  0
  -19.1540  -28.8858   23.2880 C   0  0  0  0  0  0
  -18.9463  -30.1456   23.8894 C   0  0  0  0  0  0
  -17.6462  -30.6588   24.0568 C   0  0  0  0  0  0
  -25.9058  -34.9449   23.5116 C   0  0  0  0  0  0
  -16.5351  -29.9076   23.6332 C   0  0  0  0  0  0
  -16.7279  -28.6493   23.0357 C   0  0  0  0  0  0
  -26.4498  -31.6569   25.0731 C   0  0  0  0  0  0
  -25.3736  -31.3703   26.1460 C   0  0  0  0  0  0
  -27.0330  -30.2987   24.6187 C   0  0  0  0  0  0
  -27.6067  -32.4290   25.7497 C   0  0  0  0  0  0
  -27.5588  -37.1805   24.8466 C   0  0  0  0  0  0
  -21.4187  -29.3051   22.3669 N   0  0  0  0  0  0
  -26.4298  -37.3778   23.9408 N   0  0  0  0  0  0
  -24.6869  -31.0636   22.0997 N   0  0  0  0  0  0
  -23.4185  -28.8180   23.3021 O   0  0  0  0  0  0
  -28.3216  -26.4501   20.1840 O   0  0  0  0  0  0
  -26.5613  -34.8913   22.4677 O   0  0  0  0  0  0
  -23.5428  -32.1402   23.7384 O   0  0  0  0  0  0
  -28.8029  -19.4159   20.9558 C   0  0  0  0  0  0
  -31.1491  -19.2837   20.4615 C   0  0  0  0  0  0
  -28.7574  -17.9844   21.0011 C   0  0  0  0  0  0
  -31.1029  -17.8604   20.4995 C   0  0  0  0  0  0
  -30.0104  -20.1086   20.6831 C   0  0  0  0  0  0
  -29.9019  -17.1611   20.7731 C   0  0  0  0  0  0
  -29.2568  -24.0291   20.4332 C   0  0  0  0  0  0
  -30.2057  -21.6742   20.6531 C   0  0  0  0  0  0
  -28.0307  -25.0194   20.4774 C   0  0  0  0  0  0
  -29.7788  -15.6994   20.8483 N   0  0  0  0  0  0
  -29.0878  -22.6762   20.6170 N   0  0  0  0  0  0
  -30.3813  -24.4984   20.2346 O   0  0  0  0  0  0
  -31.4811  -12.5359   19.1599 H   0  0  0  0  0  0
  -30.3697  -11.4064   19.8862 H   0  0  0  0  0  0
  -29.7842  -11.7944   17.4662 H   0  0  0  0  0  0
  -29.6542  -13.5087   17.7600 H   0  0  0  0  0  0
  -27.8717  -11.2983   18.8418 H   0  0  0  0  0  0
  -27.3848  -12.5965   17.7861 H   0  0  0  0  0  0
  -27.6682  -14.2536   19.5267 H   0  0  0  0  0  0
  -28.7090  -12.0470   21.3741 H   0  0  0  0  0  0
  -28.4291  -13.6974   21.8482 H   0  0  0  0  0  0
  -25.2772   -9.5698   22.4733 H   0  0  0  0  0  0
  -24.0023   -7.4645   22.7463 H   0  0  0  0  0  0
  -21.0863   -8.8765   19.8933 H   0  0  0  0  0  0
  -22.3701  -10.9670   19.6138 H   0  0  0  0  0  0
  -21.2005   -7.6144   23.9711 H   0  0  0  0  0  0
  -21.1489   -6.0514   25.9080 H   0  0  0  0  0  0
  -22.0591   -2.7593   23.2853 H   0  0  0  0  0  0
  -22.4134  -11.9892   22.4803 H   0  0  0  0  0  0
  -21.1123  -13.1206   22.2571 H   0  0  0  0  0  0
  -24.6598  -15.8416   20.5084 H   0  0  0  0  0  0
  -26.2706  -15.6270   20.0538 H   0  0  0  0  0  0
  -26.7185  -32.5448   23.1122 H   0  0  0  0  0  0
  -25.0105  -33.9722   25.0456 H   0  0  0  0  0  0
  -22.7136  -31.3084   21.4075 H   0  0  0  0  0  0
  -23.3749  -35.9631   23.3306 H   0  0  0  0  0  0
  -24.3588  -36.8905   22.2051 H   0  0  0  0  0  0
  -23.7244  -37.6503   23.6651 H   0  0  0  0  0  0
  -26.0963  -31.5539   20.6098 H   0  0  0  0  0  0
  -26.8393  -30.8363   22.0094 H   0  0  0  0  0  0
  -28.1073  -28.9749   21.2114 H   0  0  0  0  0  0
  -25.9751  -25.9603   18.9630 H   0  0  0  0  0  0
  -23.9764  -27.3278   18.9853 H   0  0  0  0  0  0
  -23.7520  -30.6050   19.4079 H   0  0  0  0  0  0
  -22.7513  -29.2581   19.8570 H   0  0  0  0  0  0
  -25.1300  -36.1950   25.0827 H   0  0  0  0  0  0
  -20.9991  -28.3267   24.1393 H   0  0  0  0  0  0
  -20.5695  -26.2301   23.3606 H   0  0  0  0  0  0
  -21.6647  -26.7452   22.1186 H   0  0  0  0  0  0
  -19.6916  -25.6293   21.1245 H   0  0  0  0  0  0
  -19.6691  -27.3196   20.6744 H   0  0  0  0  0  0
  -17.4203  -26.6685   21.4020 H   0  0  0  0  0  0
  -18.0331  -26.0066   22.9017 H   0  0  0  0  0  0
  -19.7934  -30.7283   24.2259 H   0  0  0  0  0  0
  -17.5007  -31.6269   24.5162 H   0  0  0  0  0  0
  -15.5347  -30.2978   23.7666 H   0  0  0  0  0  0
  -15.8677  -28.0818   22.7071 H   0  0  0  0  0  0
  -24.5902  -30.7066   25.7783 H   0  0  0  0  0  0
  -24.8931  -32.2864   26.4919 H   0  0  0  0  0  0
  -25.8053  -30.8848   27.0221 H   0  0  0  0  0  0
  -26.2888  -29.6742   24.1228 H   0  0  0  0  0  0
  -27.4034  -29.7254   25.4700 H   0  0  0  0  0  0
  -27.8771  -30.4276   23.9402 H   0  0  0  0  0  0
  -27.2706  -33.3593   26.2091 H   0  0  0  0  0  0
  -28.3872  -32.6840   25.0316 H   0  0  0  0  0  0
  -28.0744  -31.8398   26.5396 H   0  0  0  0  0  0
  -28.2604  -38.0107   24.7514 H   0  0  0  0  0  0
  -28.1083  -36.2630   24.6288 H   0  0  0  0  0  0
  -27.2302  -37.1459   25.8870 H   0  0  0  0  0  0
  -20.9360  -29.8749   21.6861 H   0  0  0  0  0  0
  -26.0183  -38.2858   24.1387 H   0  0  0  0  0  0
  -27.8995  -19.9747   21.1522 H   0  0  0  0  0  0
  -32.1007  -19.7563   20.2633 H   0  0  0  0  0  0
  -27.8059  -17.5194   21.2190 H   0  0  0  0  0  0
  -32.0166  -17.3128   20.3192 H   0  0  0  0  0  0
  -30.8422  -21.8794   19.7905 H   0  0  0  0  0  0
  -30.8194  -21.9233   21.5215 H   0  0  0  0  0  0
  -27.6035  -24.9659   21.4799 H   0  0  0  0  0  0
  -27.2893  -24.5971   19.8032 H   0  0  0  0  0  0
  -28.8583  -15.3756   21.1041 H   0  0  0  0  0  0
  -28.1516  -22.3333   20.7904 H   0  0  0  0  0  0
  1 25  1  0  0  0
  1 30  2  0  0  0
  1 80  1  0  0  0
  2  3  1  0  0  0
  2 25  1  0  0  0
  2 83  1  0  0  0
  2 84  1  0  0  0
  3  4  1  0  0  0
  3 85  1  0  0  0
  3 86  1  0  0  0
  4  5  1  0  0  0
  4 87  1  0  0  0
  4 88  1  0  0  0
  5  6  1  0  0  0
  5 26  1  0  0  0
  5 89  1  0  0  0
  6 25  1  0  0  0
  6 90  1  0  0  0
  6 91  1  0  0  0
  7  8  2  0  0  0
  7 26  1  0  0  0
  7 29  1  0  0  0
  8  9  1  0  0  0
  8 22  1  0  0  0
  9 10  1  0  0  0
  9 27  2  0  0  0
 10 11  2  0  0  0
 10 15  1  0  0  0
 11 12  1  0  0  0
 11 92  1  0  0  0
 12 13  2  0  0  0
 12 93  1  0  0  0
 13 14  1  0  0  0
 13 31  1  0  0  0
 14 15  2  0  0  0
 14 94  1  0  0  0
 15 95  1  0  0  0
 16 17  2  0  0  0
 16 21  1  0  0  0
 16 31  1  0  0  0
 17 18  1  0  0  0
 17 96  1  0  0  0
 18 19  2  0  0  0
 18 97  1  0  0  0
 19 20  1  0  0  0
 19 24  1  0  0  0
 20 21  2  0  0  0
 20 98  1  0  0  0
 21 23  1  0  0  0
 22 28  1  0  0  0
 22 32  2  0  0  0
 26 27  1  0  0  0
 28 99  1  0  0  0
 28100  1  0  0  0
 29101  1  0  0  0
 29102  1  0  0  0
 33 34  1  0  0  0
 33 66  1  0  0  0
 33 70  2  0  0  0
 34 36  1  0  0  0
 34 59  1  0  0  0
 34103  1  0  0  0
 35 44  2  0  0  0
 35 45  1  0  0  0
 35 68  1  0  0  0
 36 56  1  0  0  0
 36104  1  0  0  0
 37 39  1  0  0  0
 37 47  1  0  0  0
 37 66  1  0  0  0
 37105  1  0  0  0
 38 43  2  0  0  0
 38 46  1  0  0  0
 38 47  1  0  0  0
 39 64  1  0  0  0
 39 67  2  0  0  0
 40 52  1  0  0  0
 40 53  2  0  0  0
 40 58  1  0  0  0
 41106  1  0  0  0
 41107  1  0  0  0
 41108  1  0  0  0
 41 48  1  0  0  0
 42 43  1  0  0  0
 42 66  1  0  0  0
 42109  1  0  0  0
 42110  1  0  0  0
 43 44  1  0  0  0
 44111  1  0  0  0
 45 46  2  0  0  0
 45112  1  0  0  0
 46113  1  0  0  0
 47114  1  0  0  0
 47115  1  0  0  0
 48 56  1  0  0  0
 48 65  1  0  0  0
 48116  1  0  0  0
 49 50  1  0  0  0
 49 53  1  0  0  0
 49 64  1  0  0  0
 49117  1  0  0  0
 50 51  1  0  0  0
 50118  1  0  0  0
 50119  1  0  0  0
 51 52  1  0  0  0
 51120  1  0  0  0
 51121  1  0  0  0
 52122  1  0  0  0
 52123  1  0  0  0
 53 54  1  0  0  0
 54 55  2  0  0  0
 54124  1  0  0  0
 55 57  1  0  0  0
 55125  1  0  0  0
 56 69  2  0  0  0
 57 58  2  0  0  0
 57126  1  0  0  0
 58127  1  0  0  0
 59 60  1  0  0  0
 59 61  1  0  0  0
 59 62  1  0  0  0
 60128  1  0  0  0
 60129  1  0  0  0
 60130  1  0  0  0
 61131  1  0  0  0
 61132  1  0  0  0
 61133  1  0  0  0
 62134  1  0  0  0
 62135  1  0  0  0
 62136  1  0  0  0
 63 65  1  0  0  0
 63137  1  0  0  0
 63138  1  0  0  0
 63139  1  0  0  0
 64140  1  0  0  0
 65141  1  0  0  0
 68 79  1  0  0  0
 71 73  2  0  0  0
 71 75  1  0  0  0
 71142  1  0  0  0
 72 74  1  0  0  0
 72 75  2  0  0  0
 72143  1  0  0  0
 73 76  1  0  0  0
 73144  1  0  0  0
 74 76  2  0  0  0
 74145  1  0  0  0
 75 78  1  0  0  0
 76 80  1  0  0  0
 77 79  1  0  0  0
 77 81  1  0  0  0
 77 82  2  0  0  0
 78 81  1  0  0  0
 78146  1  0  0  0
 78147  1  0  0  0
 79148  1  0  0  0
 79149  1  0  0  0
 80150  1  0  0  0
 81151  1  0  0  0
M  ISO  4   1 100  68 101  79 101  80 100
M  END
> <chiral flag>
0

> <version>
0

> <s_m_source_file>
/data/baiqing/PycharmProjects/Reinvent-master-3.2/result/LINK_invent/BTK/process_docking_weight1_custom_product_contain_oxygen_bond_distance_aromatic_linkinvent_7_9_3/rearranged_h_0053.sdf

> <i_m_source_file_index>
17

> <r_mmod_Potential_Energy-OPLS-2005>
-10.758228302002

> <r_mmod_Stretch_Energy-OPLS-2005>
80.0377807617188

> <r_mmod_Bend_Energy-OPLS-2005>
141.744247436523

> <r_mmod_Torsional_Energy-OPLS-2005>
213.916030883789

> <r_mmod_Improper_Torsional_Energy-OPLS-2005>
4.45218467712402

> <r_mmod_Van_der_Waal_Energy-OPLS-2005>
144.756072998047

> <r_mmod_Electrostatic_Energy-OPLS-2005>
-400.868408203125

> <r_mmod_Solvation_Energy-OPLS-2005>
-247.765075683594

> <b_mmod_Minimization_Converged-OPLS-2005>
0

> <r_mmod_RMS_Derivative-OPLS-2005>
2.93701672554016

$$$$
17
                    3D
 Structure written by MMmdl.
154162  0  0  1  0            999 V2000
  -30.6738  -14.5492   20.5395 C   0  0  0  0  0  0
  -30.4316  -12.3467   19.4361 C   0  0  0  0  0  0
  -29.5034  -12.4964   18.2128 C   0  0  0  0  0  0
  -28.0247  -12.3462   18.6256 C   0  0  0  0  0  0
  -27.6552  -13.2097   19.8616 C   0  0  2  0  0  0
  -28.6989  -13.0425   20.9893 C   0  0  0  0  0  0
  -25.2552  -13.8162   20.5644 C   0  0  0  0  0  0
  -24.1816  -13.0435   20.9165 C   0  0  0  0  0  0
  -24.6379  -11.6904   20.8722 C   0  0  0  0  0  0
  -23.9043  -10.4290   21.0399 C   0  0  0  0  0  0
  -24.3596   -9.4208   21.9182 C   0  0  0  0  0  0
  -23.6272   -8.2239   22.0757 C   0  0  0  0  0  0
  -22.4262   -8.0268   21.3538 C   0  0  0  0  0  0
  -21.9888   -9.0245   20.4652 C   0  0  0  0  0  0
  -22.7214  -10.2127   20.3053 C   0  0  0  0  0  0
  -21.6849   -6.0722   22.5269 C   0  0  0  0  0  0
  -21.4021   -6.5618   23.8202 C   0  0  0  0  0  0
  -21.3659   -5.6775   24.9163 C   0  0  0  0  0  0
  -21.6044   -4.3038   24.7221 C   0  0  0  0  0  0
  -21.8817   -3.8128   23.4343 C   0  0  0  0  0  0
  -21.9191   -4.6941   22.3396 C   0  0  0  0  0  0
  -22.7836  -13.5229   21.1826 C   0  0  0  0  0  0
  -22.1656   -4.2125   21.0976 F   0  0  0  0  0  0
  -21.5636   -3.4531   25.7740 F   0  0  0  0  0  0
  -30.0203  -13.3574   20.4245 N   0  0  0  0  0  0
  -26.2984  -12.9333   20.3291 N   0  0  0  0  0  0
  -25.9301  -11.6491   20.5726 N   0  0  0  0  0  0
  -22.0467  -12.8247   22.0394 N   0  0  0  0  0  0
  -25.4255  -15.1888   20.4054 N   0  0  0  0  0  0
  -31.8403  -14.6977   20.1635 O   0  0  0  0  0  0
  -21.6623   -6.8861   21.4230 O   0  0  0  0  0  0
  -22.3518  -14.5529   20.6665 O   0  0  0  0  0  0
  -24.6193  -31.8647   23.2061 C   0  0  0  0  0  0
  -25.9071  -32.4801   23.8372 C   0  0  1  0  0  0
  -27.2277  -27.3891   20.1144 C   0  0  0  0  0  0
  -25.5910  -33.8599   24.2306 N   0  0  0  0  0  0
  -23.4089  -30.4878   21.5481 C   0  0  2  0  0  0
  -24.8550  -28.9443   20.1177 C   0  0  0  0  0  0
  -22.7430  -29.4653   22.4978 C   0  0  0  0  0  0
  -18.0278  -28.1375   22.8496 C   0  0  0  0  0  0
  -24.1488  -36.7305   23.2638 C   0  0  0  0  0  0
  -25.9417  -30.8166   21.3659 C   0  0  0  0  0  0
  -26.0178  -29.4455   20.7177 C   0  0  0  0  0  0
  -27.2097  -28.6769   20.7102 C   0  0  0  0  0  0
  -26.0510  -26.9144   19.5013 C   0  0  0  0  0  0
  -24.8688  -27.6800   19.5034 C   0  0  0  0  0  0
  -23.6197  -29.8171   20.1645 C   0  0  0  0  0  0
  -25.4103  -36.3094   24.0338 C   0  0  1  0  0  0
  -20.5872  -28.3672   23.1309 C   0  0  2  0  0  0
  -20.6771  -26.9408   22.5414 C   0  0  0  0  0  0
  -19.5746  -26.6385   21.5216 C   0  0  0  0  0  0
  -18.1925  -26.7921   22.1628 C   0  0  0  0  0  0
  -19.1528  -28.8841   23.2897 C   0  0  0  0  0  0
  -18.9450  -30.1446   23.8910 C   0  0  0  0  0  0
  -17.6450  -30.6583   24.0565 C   0  0  0  0  0  0
  -25.9037  -34.9466   23.5120 C   0  0  0  0  0  0
  -16.5345  -29.9082   23.6323 C   0  0  0  0  0  0
  -16.7265  -28.6496   23.0353 C   0  0  0  0  0  0
  -26.4490  -31.6589   25.0712 C   0  0  0  0  0  0
  -25.3747  -31.3711   26.1459 C   0  0  0  0  0  0
  -27.0327  -30.3022   24.6116 C   0  0  0  0  0  0
  -27.6062  -32.4319   25.7472 C   0  0  0  0  0  0
  -27.5588  -37.1788   24.8456 C   0  0  0  0  0  0
  -21.4154  -29.3033   22.3708 N   0  0  0  0  0  0
  -26.4282  -37.3785   23.9429 N   0  0  0  0  0  0
  -24.6752  -31.0724   22.0975 N   0  0  0  0  0  0
  -23.4186  -28.8201   23.3038 O   0  0  0  0  0  0
  -28.3707  -26.6095   20.0749 O   0  0  0  0  0  0
  -26.5600  -34.8929   22.4682 O   0  0  0  0  0  0
  -23.5378  -32.1423   23.7429 O   0  0  0  0  0  0
  -31.3195  -17.2888   21.9989 C   0  0  0  0  0  0
  -31.6828  -18.6277   22.2396 C   0  0  0  0  0  0
  -29.6447  -18.0607   20.4082 C   0  0  0  0  0  0
  -30.0221  -19.4240   20.6209 C   0  0  0  0  0  0
  -30.3002  -16.9815   21.0729 C   0  0  0  0  0  0
  -31.0553  -19.6880   21.5547 C   0  0  0  0  0  0
  -28.9588  -23.0333   20.0796 C   0  0  0  0  0  0
  -29.4212  -20.5560   19.7463 C   0  0  0  0  0  0
  -27.9228  -24.0814   20.5766 C   0  0  0  0  0  0
  -28.4392  -25.5022   21.0123 C   0  0  0  0  0  0
  -29.8985  -15.6144   20.8712 N   0  0  0  0  0  0
  -28.7728  -21.7248   20.3983 N   0  0  0  0  0  0
  -29.8856  -23.4002   19.3553 O   0  0  0  0  0  0
  -31.6202  -21.2938   21.8576 Cl  0  0  0  0  0  0
  -31.4752  -12.4599   19.1360 H   0  0  0  0  0  0
  -30.3484  -11.3462   19.8639 H   0  0  0  0  0  0
  -29.7587  -11.7531   17.4564 H   0  0  0  0  0  0
  -29.6594  -13.4702   17.7464 H   0  0  0  0  0  0
  -27.8500  -11.2932   18.8500 H   0  0  0  0  0  0
  -27.3713  -12.5915   17.7869 H   0  0  0  0  0  0
  -27.6821  -14.2477   19.5283 H   0  0  0  0  0  0
  -28.6920  -12.0210   21.3720 H   0  0  0  0  0  0
  -28.4572  -13.6790   21.8424 H   0  0  0  0  0  0
  -25.2751   -9.5683   22.4741 H   0  0  0  0  0  0
  -23.9980   -7.4636   22.7482 H   0  0  0  0  0  0
  -21.0812   -8.8765   19.8970 H   0  0  0  0  0  0
  -22.3674  -10.9656   19.6148 H   0  0  0  0  0  0
  -21.2020   -7.6133   23.9697 H   0  0  0  0  0  0
  -21.1482   -6.0508   25.9062 H   0  0  0  0  0  0
  -22.0606   -2.7591   23.2845 H   0  0  0  0  0  0
  -22.4076  -11.9929   22.4822 H   0  0  0  0  0  0
  -21.1092  -13.1304   22.2593 H   0  0  0  0  0  0
  -24.6541  -15.8392   20.5103 H   0  0  0  0  0  0
  -26.2678  -15.6315   20.0611 H   0  0  0  0  0  0
  -26.7142  -32.5500   23.1132 H   0  0  0  0  0  0
  -25.0072  -33.9749   25.0463 H   0  0  0  0  0  0
  -22.6991  -31.3055   21.4057 H   0  0  0  0  0  0
  -23.3748  -35.9637   23.3280 H   0  0  0  0  0  0
  -24.3600  -36.8936   22.2056 H   0  0  0  0  0  0
  -23.7234  -37.6502   23.6664 H   0  0  0  0  0  0
  -26.0608  -31.5793   20.5953 H   0  0  0  0  0  0
  -26.8284  -30.8712   21.9859 H   0  0  0  0  0  0
  -28.1101  -29.0622   21.1684 H   0  0  0  0  0  0
  -26.0467  -25.9514   19.0122 H   0  0  0  0  0  0
  -23.9786  -27.2916   19.0278 H   0  0  0  0  0  0
  -23.7298  -30.5904   19.4032 H   0  0  0  0  0  0
  -22.7424  -29.2390   19.8681 H   0  0  0  0  0  0
  -25.1273  -36.1946   25.0827 H   0  0  0  0  0  0
  -20.9970  -28.3247   24.1430 H   0  0  0  0  0  0
  -20.5688  -26.2282   23.3603 H   0  0  0  0  0  0
  -21.6640  -26.7456   22.1200 H   0  0  0  0  0  0
  -19.6911  -25.6298   21.1237 H   0  0  0  0  0  0
  -19.6679  -27.3202   20.6748 H   0  0  0  0  0  0
  -17.4197  -26.6673   21.4027 H   0  0  0  0  0  0
  -18.0324  -26.0058   22.9020 H   0  0  0  0  0  0
  -19.7929  -30.7256   24.2290 H   0  0  0  0  0  0
  -17.5007  -31.6267   24.5161 H   0  0  0  0  0  0
  -15.5348  -30.2988   23.7633 H   0  0  0  0  0  0
  -15.8666  -28.0812   22.7066 H   0  0  0  0  0  0
  -24.5903  -30.7078   25.7798 H   0  0  0  0  0  0
  -24.8954  -32.2871   26.4921 H   0  0  0  0  0  0
  -25.8093  -30.8863   27.0209 H   0  0  0  0  0  0
  -26.2873  -29.6761   24.1192 H   0  0  0  0  0  0
  -27.4109  -29.7286   25.4591 H   0  0  0  0  0  0
  -27.8709  -30.4331   23.9266 H   0  0  0  0  0  0
  -27.2686  -33.3631   26.2041 H   0  0  0  0  0  0
  -28.3871  -32.6861   25.0290 H   0  0  0  0  0  0
  -28.0730  -31.8440   26.5388 H   0  0  0  0  0  0
  -28.2564  -38.0126   24.7566 H   0  0  0  0  0  0
  -28.1123  -36.2660   24.6192 H   0  0  0  0  0  0
  -27.2324  -37.1333   25.8861 H   0  0  0  0  0  0
  -20.9324  -29.8743   21.6913 H   0  0  0  0  0  0
  -26.0165  -38.2858   24.1448 H   0  0  0  0  0  0
  -31.8258  -16.5023   22.5411 H   0  0  0  0  0  0
  -32.4678  -18.8475   22.9491 H   0  0  0  0  0  0
  -28.8667  -17.8369   19.6915 H   0  0  0  0  0  0
  -28.6827  -20.1152   19.0756 H   0  0  0  0  0  0
  -30.2252  -20.8985   19.0926 H   0  0  0  0  0  0
  -27.4241  -23.6381   21.4391 H   0  0  0  0  0  0
  -27.1496  -24.1779   19.8169 H   0  0  0  0  0  0
  -29.4807  -25.4147   21.3226 H   0  0  0  0  0  0
  -27.9100  -25.7904   21.9227 H   0  0  0  0  0  0
  -28.9136  -15.4193   20.9602 H   0  0  0  0  0  0
  -27.9994  -21.5074   21.0121 H   0  0  0  0  0  0
  1 25  1  0  0  0
  1 30  2  0  0  0
  1 81  1  0  0  0
  2  3  1  0  0  0
  2 25  1  0  0  0
  2 85  1  0  0  0
  2 86  1  0  0  0
  3  4  1  0  0  0
  3 87  1  0  0  0
  3 88  1  0  0  0
  4  5  1  0  0  0
  4 89  1  0  0  0
  4 90  1  0  0  0
  5  6  1  0  0  0
  5 26  1  0  0  0
  5 91  1  0  0  0
  6 25  1  0  0  0
  6 92  1  0  0  0
  6 93  1  0  0  0
  7  8  2  0  0  0
  7 26  1  0  0  0
  7 29  1  0  0  0
  8  9  1  0  0  0
  8 22  1  0  0  0
  9 10  1  0  0  0
  9 27  2  0  0  0
 10 11  2  0  0  0
 10 15  1  0  0  0
 11 12  1  0  0  0
 11 94  1  0  0  0
 12 13  2  0  0  0
 12 95  1  0  0  0
 13 14  1  0  0  0
 13 31  1  0  0  0
 14 15  2  0  0  0
 14 96  1  0  0  0
 15 97  1  0  0  0
 16 17  2  0  0  0
 16 21  1  0  0  0
 16 31  1  0  0  0
 17 18  1  0  0  0
 17 98  1  0  0  0
 18 19  2  0  0  0
 18 99  1  0  0  0
 19 20  1  0  0  0
 19 24  1  0  0  0
 20 21  2  0  0  0
 20100  1  0  0  0
 21 23  1  0  0  0
 22 28  1  0  0  0
 22 32  2  0  0  0
 26 27  1  0  0  0
 28101  1  0  0  0
 28102  1  0  0  0
 29103  1  0  0  0
 29104  1  0  0  0
 33 34  1  0  0  0
 33 66  1  0  0  0
 33 70  2  0  0  0
 34 36  1  0  0  0
 34 59  1  0  0  0
 34105  1  0  0  0
 35 44  2  0  0  0
 35 45  1  0  0  0
 35 68  1  0  0  0
 36 56  1  0  0  0
 36106  1  0  0  0
 37 39  1  0  0  0
 37 47  1  0  0  0
 37 66  1  0  0  0
 37107  1  0  0  0
 38 43  2  0  0  0
 38 46  1  0  0  0
 38 47  1  0  0  0
 39 64  1  0  0  0
 39 67  2  0  0  0
 40 52  1  0  0  0
 40 53  2  0  0  0
 40 58  1  0  0  0
 41108  1  0  0  0
 41109  1  0  0  0
 41110  1  0  0  0
 41 48  1  0  0  0
 42 43  1  0  0  0
 42 66  1  0  0  0
 42111  1  0  0  0
 42112  1  0  0  0
 43 44  1  0  0  0
 44113  1  0  0  0
 45 46  2  0  0  0
 45114  1  0  0  0
 46115  1  0  0  0
 47116  1  0  0  0
 47117  1  0  0  0
 48 56  1  0  0  0
 48 65  1  0  0  0
 48118  1  0  0  0
 49 50  1  0  0  0
 49 53  1  0  0  0
 49 64  1  0  0  0
 49119  1  0  0  0
 50 51  1  0  0  0
 50120  1  0  0  0
 50121  1  0  0  0
 51 52  1  0  0  0
 51122  1  0  0  0
 51123  1  0  0  0
 52124  1  0  0  0
 52125  1  0  0  0
 53 54  1  0  0  0
 54 55  2  0  0  0
 54126  1  0  0  0
 55 57  1  0  0  0
 55127  1  0  0  0
 56 69  2  0  0  0
 57 58  2  0  0  0
 57128  1  0  0  0
 58129  1  0  0  0
 59 60  1  0  0  0
 59 61  1  0  0  0
 59 62  1  0  0  0
 60130  1  0  0  0
 60131  1  0  0  0
 60132  1  0  0  0
 61133  1  0  0  0
 61134  1  0  0  0
 61135  1  0  0  0
 62136  1  0  0  0
 62137  1  0  0  0
 62138  1  0  0  0
 63 65  1  0  0  0
 63139  1  0  0  0
 63140  1  0  0  0
 63141  1  0  0  0
 64142  1  0  0  0
 65143  1  0  0  0
 68 80  1  0  0  0
 71 72  2  0  0  0
 71 75  1  0  0  0
 71144  1  0  0  0
 72 76  1  0  0  0
 72145  1  0  0  0
 73 74  1  0  0  0
 73 75  2  0  0  0
 73146  1  0  0  0
 74 76  2  0  0  0
 74 78  1  0  0  0
 75 81  1  0  0  0
 76 84  1  0  0  0
 77 79  1  0  0  0
 77 82  1  0  0  0
 77 83  2  0  0  0
 78 82  1  0  0  0
 78147  1  0  0  0
 78148  1  0  0  0
 79 80  1  0  0  0
 79149  1  0  0  0
 79150  1  0  0  0
 80151  1  0  0  0
 80152  1  0  0  0
 81153  1  0  0  0
 82154  1  0  0  0
M  ISO  4   1 100  68 101  80 101  81 100
M  END
> <chiral flag>
0

> <version>
0

> <s_m_source_file>
/data/baiqing/PycharmProjects/Reinvent-master-3.2/result/LINK_invent/BTK/process_docking_weight1_custom_product_contain_oxygen_bond_distance_aromatic_linkinvent_7_9_3/rearranged_h_0053.sdf

> <i_m_source_file_index>
18

> <r_mmod_Potential_Energy-OPLS-2005>
-85.3000030517578

> <r_mmod_Stretch_Energy-OPLS-2005>
50.363883972168

> <r_mmod_Bend_Energy-OPLS-2005>
110.669227600098

> <r_mmod_Torsional_Energy-OPLS-2005>
251.30810546875

> <r_mmod_Improper_Torsional_Energy-OPLS-2005>
6.44975852966309

> <r_mmod_Van_der_Waal_Energy-OPLS-2005>
140.406951904297

> <r_mmod_Electrostatic_Energy-OPLS-2005>
-418.462921142578

> <r_mmod_Solvation_Energy-OPLS-2005>
-250.015533447266

> <b_mmod_Minimization_Converged-OPLS-2005>
0

> <r_mmod_RMS_Derivative-OPLS-2005>
1.63230729103088

$$$$
18
                    3D
 Structure written by MMmdl.
163171  0  0  1  0            999 V2000
  -30.6166  -14.5683   20.5310 C   0  0  0  0  0  0
  -30.4316  -12.3519   19.4480 C   0  0  0  0  0  0
  -29.5033  -12.4867   18.2197 C   0  0  0  0  0  0
  -28.0212  -12.3231   18.6244 C   0  0  0  0  0  0
  -27.6394  -13.2008   19.8482 C   0  0  2  0  0  0
  -28.6742  -13.0569   20.9852 C   0  0  0  0  0  0
  -25.2505  -13.8125   20.5630 C   0  0  0  0  0  0
  -24.1787  -13.0415   20.9141 C   0  0  0  0  0  0
  -24.6343  -11.6884   20.8693 C   0  0  0  0  0  0
  -23.9028  -10.4279   21.0377 C   0  0  0  0  0  0
  -24.3594   -9.4221   21.9150 C   0  0  0  0  0  0
  -23.6316   -8.2244   22.0728 C   0  0  0  0  0  0
  -22.4289   -8.0251   21.3522 C   0  0  0  0  0  0
  -21.9903   -9.0205   20.4625 C   0  0  0  0  0  0
  -22.7198  -10.2096   20.3044 C   0  0  0  0  0  0
  -21.6862   -6.0706   22.5267 C   0  0  0  0  0  0
  -21.4009   -6.5621   23.8190 C   0  0  0  0  0  0
  -21.3677   -5.6771   24.9147 C   0  0  0  0  0  0
  -21.6081   -4.3042   24.7205 C   0  0  0  0  0  0
  -21.8821   -3.8122   23.4330 C   0  0  0  0  0  0
  -21.9205   -4.6940   22.3384 C   0  0  0  0  0  0
  -22.7798  -13.5189   21.1882 C   0  0  0  0  0  0
  -22.1650   -4.2121   21.0972 F   0  0  0  0  0  0
  -21.5692   -3.4540   25.7737 F   0  0  0  0  0  0
  -29.9971  -13.3614   20.4274 N   0  0  0  0  0  0
  -26.2914  -12.9274   20.3206 N   0  0  0  0  0  0
  -25.9272  -11.6441   20.5695 N   0  0  0  0  0  0
  -22.0511  -12.8109   22.0424 N   0  0  0  0  0  0
  -25.4329  -15.1867   20.4081 N   0  0  0  0  0  0
  -31.8200  -14.7045   20.3045 O   0  0  0  0  0  0
  -21.6671   -6.8834   21.4214 O   0  0  0  0  0  0
  -22.3423  -14.5474   20.6748 O   0  0  0  0  0  0
  -24.6198  -31.8625   23.2074 C   0  0  0  0  0  0
  -25.9046  -32.4782   23.8393 C   0  0  1  0  0  0
  -27.2320  -27.3823   20.1107 C   0  0  0  0  0  0
  -25.5877  -33.8586   24.2316 N   0  0  0  0  0  0
  -23.4097  -30.4925   21.5466 C   0  0  2  0  0  0
  -24.8556  -28.9444   20.1202 C   0  0  0  0  0  0
  -22.7448  -29.4643   22.4934 C   0  0  0  0  0  0
  -18.0338  -28.1269   22.8556 C   0  0  0  0  0  0
  -24.1485  -36.7330   23.2642 C   0  0  0  0  0  0
  -25.9448  -30.8145   21.3699 C   0  0  0  0  0  0
  -26.0175  -29.4426   20.7207 C   0  0  0  0  0  0
  -27.2028  -28.6665   20.7169 C   0  0  0  0  0  0
  -26.0374  -26.9002   19.5197 C   0  0  0  0  0  0
  -24.8598  -27.6720   19.5268 C   0  0  0  0  0  0
  -23.6244  -29.8227   20.1621 C   0  0  0  0  0  0
  -25.4094  -36.3097   24.0347 C   0  0  1  0  0  0
  -20.5950  -28.3642   23.1286 C   0  0  2  0  0  0
  -20.6813  -26.9366   22.5413 C   0  0  0  0  0  0
  -19.5753  -26.6377   21.5241 C   0  0  0  0  0  0
  -18.2001  -26.7767   22.1794 C   0  0  0  0  0  0
  -19.1603  -28.8769   23.2900 C   0  0  0  0  0  0
  -18.9535  -30.1397   23.8855 C   0  0  0  0  0  0
  -17.6519  -30.6540   24.0541 C   0  0  0  0  0  0
  -25.9005  -34.9444   23.5114 C   0  0  0  0  0  0
  -16.5430  -29.9051   23.6238 C   0  0  0  0  0  0
  -16.7330  -28.6461   23.0312 C   0  0  0  0  0  0
  -26.4483  -31.6584   25.0764 C   0  0  0  0  0  0
  -25.3742  -31.3737   26.1523 C   0  0  0  0  0  0
  -27.0344  -30.3016   24.6188 C   0  0  0  0  0  0
  -27.6032  -32.4350   25.7544 C   0  0  0  0  0  0
  -27.5577  -37.1829   24.8458 C   0  0  0  0  0  0
  -21.4173  -29.3066   22.3692 N   0  0  0  0  0  0
  -26.4282  -37.3782   23.9401 N   0  0  0  0  0  0
  -24.6760  -31.0725   22.0996 N   0  0  0  0  0  0
  -23.4218  -28.8189   23.2994 O   0  0  0  0  0  0
  -28.4190  -26.6606   20.1247 O   0  0  0  0  0  0
  -26.5594  -34.8905   22.4692 O   0  0  0  0  0  0
  -23.5380  -32.1357   23.7471 O   0  0  0  0  0  0
  -28.4421  -17.9992   22.7446 C   0  0  0  0  0  0
  -28.9752  -16.8180   22.1957 C   0  0  0  0  0  0
  -29.3055  -18.0153   20.1163 C   0  0  0  0  0  0
  -28.3084  -19.2055   22.0020 C   0  0  0  0  0  0
  -28.7570  -19.2314   20.6349 C   0  0  0  0  0  0
  -29.4103  -16.8010   20.8568 C   0  0  0  0  0  0
  -28.9070  -22.8098   20.3332 C   0  0  0  0  0  0
  -26.1762  -20.6071   22.2134 C   0  0  0  0  0  0
  -26.9294  -22.1381   19.0931 C   0  0  0  0  0  0
  -28.6571  -20.4069   19.5950 C   0  0  0  0  0  0
  -28.2901  -24.1943   20.7001 C   0  0  0  0  0  0
  -28.5060  -25.2995   19.6262 C   0  0  0  0  0  0
  -27.6045  -20.3603   22.7274 C   0  0  0  0  0  0
  -29.8013  -15.5939   20.1781 N   0  0  0  0  0  0
  -28.1253  -21.7832   19.8811 N   0  0  0  0  0  0
  -30.1187  -22.6606   20.5370 O   0  0  0  0  0  0
  -28.3373  -21.4641   22.7114 F   0  0  0  0  0  0
  -27.4584  -20.0842   24.0267 F   0  0  0  0  0  0
  -31.4688  -12.5024   19.1486 H   0  0  0  0  0  0
  -30.3769  -11.3519   19.8843 H   0  0  0  0  0  0
  -29.7652  -11.7632   17.4495 H   0  0  0  0  0  0
  -29.6399  -13.4707   17.7702 H   0  0  0  0  0  0
  -27.8388  -11.2696   18.8502 H   0  0  0  0  0  0
  -27.3784  -12.5651   17.7758 H   0  0  0  0  0  0
  -27.6493  -14.2293   19.4918 H   0  0  0  0  0  0
  -28.6583  -12.0530   21.4111 H   0  0  0  0  0  0
  -28.4261  -13.7404   21.8000 H   0  0  0  0  0  0
  -25.2763   -9.5703   22.4676 H   0  0  0  0  0  0
  -24.0054   -7.4630   22.7437 H   0  0  0  0  0  0
  -21.0846   -8.8705   19.8918 H   0  0  0  0  0  0
  -22.3672  -10.9613   19.6136 H   0  0  0  0  0  0
  -21.1953   -7.6121   23.9669 H   0  0  0  0  0  0
  -21.1524   -6.0506   25.9043 H   0  0  0  0  0  0
  -22.0598   -2.7604   23.2853 H   0  0  0  0  0  0
  -22.4220  -11.9795   22.4735 H   0  0  0  0  0  0
  -21.1099  -13.1043   22.2716 H   0  0  0  0  0  0
  -24.6909  -15.8604   20.5441 H   0  0  0  0  0  0
  -26.3136  -15.6128   20.1537 H   0  0  0  0  0  0
  -26.7120  -32.5523   23.1146 H   0  0  0  0  0  0
  -25.0009  -33.9699   25.0458 H   0  0  0  0  0  0
  -22.6948  -31.3041   21.3970 H   0  0  0  0  0  0
  -23.3718  -35.9699   23.3313 H   0  0  0  0  0  0
  -24.3564  -36.8952   22.2062 H   0  0  0  0  0  0
  -23.7295  -37.6565   23.6654 H   0  0  0  0  0  0
  -26.0585  -31.5726   20.5925 H   0  0  0  0  0  0
  -26.8341  -30.8698   21.9907 H   0  0  0  0  0  0
  -28.0976  -29.0397   21.1998 H   0  0  0  0  0  0
  -25.9724  -25.9206   19.0721 H   0  0  0  0  0  0
  -23.9562  -27.2693   19.0868 H   0  0  0  0  0  0
  -23.7611  -30.5941   19.4010 H   0  0  0  0  0  0
  -22.7476  -29.2531   19.8501 H   0  0  0  0  0  0
  -25.1272  -36.1950   25.0857 H   0  0  0  0  0  0
  -21.0058  -28.3231   24.1417 H   0  0  0  0  0  0
  -20.5802  -26.2251   23.3628 H   0  0  0  0  0  0
  -21.6614  -26.7344   22.1059 H   0  0  0  0  0  0
  -19.6946  -25.6308   21.1209 H   0  0  0  0  0  0
  -19.6567  -27.3376   20.6894 H   0  0  0  0  0  0
  -17.4211  -26.6294   21.4308 H   0  0  0  0  0  0
  -18.0661  -25.9968   22.9298 H   0  0  0  0  0  0
  -19.8048  -30.7181   24.2176 H   0  0  0  0  0  0
  -17.5114  -31.6183   24.5210 H   0  0  0  0  0  0
  -15.5448  -30.2979   23.7505 H   0  0  0  0  0  0
  -15.8666  -28.0869   22.6989 H   0  0  0  0  0  0
  -24.5842  -30.7135   25.7908 H   0  0  0  0  0  0
  -24.9018  -32.2940   26.4975 H   0  0  0  0  0  0
  -25.8088  -30.8912   27.0281 H   0  0  0  0  0  0
  -26.2945  -29.6759   24.1186 H   0  0  0  0  0  0
  -27.4034  -29.7253   25.4687 H   0  0  0  0  0  0
  -27.8792  -30.4311   23.9417 H   0  0  0  0  0  0
  -27.2547  -33.3590   26.2151 H   0  0  0  0  0  0
  -28.3816  -32.7006   25.0381 H   0  0  0  0  0  0
  -28.0710  -31.8483   26.5445 H   0  0  0  0  0  0
  -28.2601  -38.0120   24.7463 H   0  0  0  0  0  0
  -28.1058  -36.2644   24.6297 H   0  0  0  0  0  0
  -27.2284  -37.1522   25.8860 H   0  0  0  0  0  0
  -20.9283  -29.8885   21.7074 H   0  0  0  0  0  0
  -26.0162  -38.2864   24.1372 H   0  0  0  0  0  0
  -28.0777  -17.9333   23.7597 H   0  0  0  0  0  0
  -28.9806  -15.9300   22.8091 H   0  0  0  0  0  0
  -29.6280  -17.9948   19.0830 H   0  0  0  0  0  0
  -26.0462  -21.6044   21.8006 H   0  0  0  0  0  0
  -25.4540  -20.4826   23.0219 H   0  0  0  0  0  0
  -25.8900  -19.8927   21.4435 H   0  0  0  0  0  0
  -27.2408  -22.5988   18.1503 H   0  0  0  0  0  0
  -26.2647  -22.8538   19.5835 H   0  0  0  0  0  0
  -26.3071  -21.2768   18.8523 H   0  0  0  0  0  0
  -28.0693  -19.9894   18.7729 H   0  0  0  0  0  0
  -29.6369  -20.5285   19.1260 H   0  0  0  0  0  0
  -28.7826  -24.5156   21.6159 H   0  0  0  0  0  0
  -27.2427  -24.1272   20.9831 H   0  0  0  0  0  0
  -27.8633  -25.1322   18.7668 H   0  0  0  0  0  0
  -29.5077  -25.1869   19.2137 H   0  0  0  0  0  0
  -29.8446  -15.7044   19.1792 H   0  0  0  0  0  0
  1 25  1  0  0  0
  1 30  2  0  0  0
  1 84  1  0  0  0
  2  3  1  0  0  0
  2 25  1  0  0  0
  2 89  1  0  0  0
  2 90  1  0  0  0
  3  4  1  0  0  0
  3 91  1  0  0  0
  3 92  1  0  0  0
  4  5  1  0  0  0
  4 93  1  0  0  0
  4 94  1  0  0  0
  5  6  1  0  0  0
  5 26  1  0  0  0
  5 95  1  0  0  0
  6 25  1  0  0  0
  6 96  1  0  0  0
  6 97  1  0  0  0
  7  8  2  0  0  0
  7 26  1  0  0  0
  7 29  1  0  0  0
  8  9  1  0  0  0
  8 22  1  0  0  0
  9 10  1  0  0  0
  9 27  2  0  0  0
 10 11  2  0  0  0
 10 15  1  0  0  0
 11 12  1  0  0  0
 11 98  1  0  0  0
 12 13  2  0  0  0
 12 99  1  0  0  0
 13 14  1  0  0  0
 13 31  1  0  0  0
 14 15  2  0  0  0
 14100  1  0  0  0
 15101  1  0  0  0
 16 17  2  0  0  0
 16 21  1  0  0  0
 16 31  1  0  0  0
 17 18  1  0  0  0
 17102  1  0  0  0
 18 19  2  0  0  0
 18103  1  0  0  0
 19 20  1  0  0  0
 19 24  1  0  0  0
 20 21  2  0  0  0
 20104  1  0  0  0
 21 23  1  0  0  0
 22 28  1  0  0  0
 22 32  2  0  0  0
 26 27  1  0  0  0
 28105  1  0  0  0
 28106  1  0  0  0
 29107  1  0  0  0
 29108  1  0  0  0
 33 34  1  0  0  0
 33 66  1  0  0  0
 33 70  2  0  0  0
 34 36  1  0  0  0
 34 59  1  0  0  0
 34109  1  0  0  0
 35 44  2  0  0  0
 35 45  1  0  0  0
 35 68  1  0  0  0
 36 56  1  0  0  0
 36110  1  0  0  0
 37 39  1  0  0  0
 37 47  1  0  0  0
 37 66  1  0  0  0
 37111  1  0  0  0
 38 43  2  0  0  0
 38 46  1  0  0  0
 38 47  1  0  0  0
 39 64  1  0  0  0
 39 67  2  0  0  0
 40 52  1  0  0  0
 40 53  2  0  0  0
 40 58  1  0  0  0
 41112  1  0  0  0
 41113  1  0  0  0
 41114  1  0  0  0
 41 48  1  0  0  0
 42 43  1  0  0  0
 42 66  1  0  0  0
 42115  1  0  0  0
 42116  1  0  0  0
 43 44  1  0  0  0
 44117  1  0  0  0
 45 46  2  0  0  0
 45118  1  0  0  0
 46119  1  0  0  0
 47120  1  0  0  0
 47121  1  0  0  0
 48 56  1  0  0  0
 48 65  1  0  0  0
 48122  1  0  0  0
 49 50  1  0  0  0
 49 53  1  0  0  0
 49 64  1  0  0  0
 49123  1  0  0  0
 50 51  1  0  0  0
 50124  1  0  0  0
 50125  1  0  0  0
 51 52  1  0  0  0
 51126  1  0  0  0
 51127  1  0  0  0
 52128  1  0  0  0
 52129  1  0  0  0
 53 54  1  0  0  0
 54 55  2  0  0  0
 54130  1  0  0  0
 55 57  1  0  0  0
 55131  1  0  0  0
 56 69  2  0  0  0
 57 58  2  0  0  0
 57132  1  0  0  0
 58133  1  0  0  0
 59 60  1  0  0  0
 59 61  1  0  0  0
 59 62  1  0  0  0
 60134  1  0  0  0
 60135  1  0  0  0
 60136  1  0  0  0
 61137  1  0  0  0
 61138  1  0  0  0
 61139  1  0  0  0
 62140  1  0  0  0
 62141  1  0  0  0
 62142  1  0  0  0
 63 65  1  0  0  0
 63143  1  0  0  0
 63144  1  0  0  0
 63145  1  0  0  0
 64146  1  0  0  0
 65147  1  0  0  0
 68 82  1  0  0  0
 71 72  2  0  0  0
 71 74  1  0  0  0
 71148  1  0  0  0
 72 76  1  0  0  0
 72149  1  0  0  0
 73 75  1  0  0  0
 73 76  2  0  0  0
 73150  1  0  0  0
 74 75  2  0  0  0
 74 83  1  0  0  0
 75 80  1  0  0  0
 76 84  1  0  0  0
 77 81  1  0  0  0
 77 85  1  0  0  0
 77 86  2  0  0  0
 78151  1  0  0  0
 78152  1  0  0  0
 78153  1  0  0  0
 78 83  1  0  0  0
 79 85  1  0  0  0
 79154  1  0  0  0
 79155  1  0  0  0
 79156  1  0  0  0
 80 85  1  0  0  0
 80157  1  0  0  0
 80158  1  0  0  0
 81 82  1  0  0  0
 81159  1  0  0  0
 81160  1  0  0  0
 82161  1  0  0  0
 82162  1  0  0  0
 83 87  1  0  0  0
 83 88  1  0  0  0
 84163  1  0  0  0
M  ISO  4   1 100  68 101  82 101  84 100
M  END
> <chiral flag>
0

> <version>
0

> <s_m_source_file>
/data/baiqing/PycharmProjects/Reinvent-master-3.2/result/LINK_invent/BTK/process_docking_weight1_custom_product_contain_oxygen_bond_distance_aromatic_linkinvent_7_9_3/rearranged_h_0053.sdf

> <i_m_source_file_index>
19

> <r_mmod_Potential_Energy-OPLS-2005>
122.301826477051

> <r_mmod_Stretch_Energy-OPLS-2005>
60.8562278747559

> <r_mmod_Bend_Energy-OPLS-2005>
167.031509399414

> <r_mmod_Torsional_Energy-OPLS-2005>
307.631896972656

> <r_mmod_Improper_Torsional_Energy-OPLS-2005>
31.4736518859863

> <r_mmod_Van_der_Waal_Energy-OPLS-2005>
154.155700683594

> <r_mmod_Electrostatic_Energy-OPLS-2005>
-404.652740478516

> <r_mmod_Solvation_Energy-OPLS-2005>
-227.700317382812

> <b_mmod_Minimization_Converged-OPLS-2005>
0

> <r_mmod_RMS_Derivative-OPLS-2005>
7.87573766708374

$$$$
19
                    3D
 Structure written by MMmdl.
154162  0  0  1  0            999 V2000
  -30.6044  -14.7377   20.4417 C   0  0  0  0  0  0
  -30.4352  -12.4439   19.4811 C   0  0  0  0  0  0
  -29.5147  -12.5039   18.2417 C   0  0  0  0  0  0
  -28.0389  -12.3329   18.6510 C   0  0  0  0  0  0
  -27.6453  -13.2314   19.8538 C   0  0  2  0  0  0
  -28.6877  -13.1562   20.9914 C   0  0  0  0  0  0
  -25.2527  -13.8200   20.5699 C   0  0  0  0  0  0
  -24.1814  -13.0442   20.9207 C   0  0  0  0  0  0
  -24.6402  -11.6920   20.8738 C   0  0  0  0  0  0
  -23.9078  -10.4292   21.0397 C   0  0  0  0  0  0
  -24.3622   -9.4207   21.9180 C   0  0  0  0  0  0
  -23.6293   -8.2243   22.0754 C   0  0  0  0  0  0
  -22.4275   -8.0279   21.3541 C   0  0  0  0  0  0
  -21.9913   -9.0256   20.4645 C   0  0  0  0  0  0
  -22.7246  -10.2134   20.3051 C   0  0  0  0  0  0
  -21.6853   -6.0732   22.5274 C   0  0  0  0  0  0
  -21.4017   -6.5637   23.8208 C   0  0  0  0  0  0
  -21.3661   -5.6790   24.9171 C   0  0  0  0  0  0
  -21.6043   -4.3052   24.7223 C   0  0  0  0  0  0
  -21.8821   -3.8144   23.4344 C   0  0  0  0  0  0
  -21.9196   -4.6960   22.3399 C   0  0  0  0  0  0
  -22.7833  -13.5220   21.1864 C   0  0  0  0  0  0
  -22.1661   -4.2145   21.0977 F   0  0  0  0  0  0
  -21.5630   -3.4537   25.7738 F   0  0  0  0  0  0
  -29.9939  -13.5036   20.4175 N   0  0  0  0  0  0
  -26.2955  -12.9408   20.3283 N   0  0  0  0  0  0
  -25.9334  -11.6548   20.5750 N   0  0  0  0  0  0
  -22.0484  -12.8203   22.0423 N   0  0  0  0  0  0
  -25.4223  -15.1927   20.4120 N   0  0  0  0  0  0
  -31.7916  -14.8387   20.1181 O   0  0  0  0  0  0
  -21.6639   -6.8876   21.4236 O   0  0  0  0  0  0
  -22.3513  -14.5522   20.6718 O   0  0  0  0  0  0
  -24.6304  -31.8560   23.1989 C   0  0  0  0  0  0
  -25.9138  -32.4755   23.8326 C   0  0  1  0  0  0
  -27.2149  -27.2633   20.1287 C   0  0  0  0  0  0
  -25.5945  -33.8555   24.2252 N   0  0  0  0  0  0
  -23.4258  -30.4771   21.5437 C   0  0  2  0  0  0
  -24.8736  -28.9297   20.1058 C   0  0  0  0  0  0
  -22.7502  -29.4578   22.4929 C   0  0  0  0  0  0
  -18.0280  -28.1361   22.8477 C   0  0  0  0  0  0
  -24.1495  -36.7282   23.2638 C   0  0  0  0  0  0
  -25.9715  -30.7700   21.3791 C   0  0  0  0  0  0
  -26.0444  -29.3938   20.7184 C   0  0  0  0  0  0
  -27.2177  -28.5722   20.7197 C   0  0  0  0  0  0
  -26.0246  -26.8753   19.4724 C   0  0  0  0  0  0
  -24.8692  -27.6795   19.4698 C   0  0  0  0  0  0
  -23.6431  -29.8146   20.1579 C   0  0  0  0  0  0
  -25.4119  -36.3064   24.0325 C   0  0  1  0  0  0
  -20.5887  -28.3664   23.1279 C   0  0  2  0  0  0
  -20.6767  -26.9386   22.5410 C   0  0  0  0  0  0
  -19.5747  -26.6364   21.5202 C   0  0  0  0  0  0
  -18.1922  -26.7904   22.1612 C   0  0  0  0  0  0
  -19.1538  -28.8833   23.2864 C   0  0  0  0  0  0
  -18.9464  -30.1438   23.8873 C   0  0  0  0  0  0
  -17.6464  -30.6573   24.0548 C   0  0  0  0  0  0
  -25.9064  -34.9440   23.5090 C   0  0  0  0  0  0
  -16.5352  -29.9067   23.6326 C   0  0  0  0  0  0
  -16.7269  -28.6482   23.0349 C   0  0  0  0  0  0
  -26.4504  -31.6578   25.0714 C   0  0  0  0  0  0
  -25.3721  -31.3744   26.1436 C   0  0  0  0  0  0
  -27.0347  -30.2989   24.6203 C   0  0  0  0  0  0
  -27.6055  -32.4326   25.7491 C   0  0  0  0  0  0
  -27.5582  -37.1793   24.8463 C   0  0  0  0  0  0
  -21.4209  -29.3022   22.3685 N   0  0  0  0  0  0
  -26.4290  -37.3770   23.9414 N   0  0  0  0  0  0
  -24.6947  -31.0520   22.0972 N   0  0  0  0  0  0
  -23.4209  -28.8110   23.3015 O   0  0  0  0  0  0
  -28.3047  -26.3635   20.2126 O   0  0  0  0  0  0
  -26.5633  -34.8921   22.4657 O   0  0  0  0  0  0
  -23.5459  -32.1390   23.7285 O   0  0  0  0  0  0
  -30.0047  -19.8130   18.8346 C   0  0  0  0  0  0
  -30.3343  -18.6313   18.1451 C   0  0  0  0  0  0
  -29.5850  -19.7951   20.1816 C   0  0  0  0  0  0
  -29.5296  -18.4679   20.8178 C   0  0  0  0  0  0
  -29.9112  -17.2339   20.1261 C   0  0  0  0  0  0
  -30.2862  -17.3695   18.7657 C   0  0  0  0  0  0
  -29.3564  -21.1828   20.8770 C   0  0  0  0  0  0
  -29.0638  -18.3474   22.2634 C   0  0  0  0  0  0
  -29.0723  -23.7786   20.6134 C   0  0  0  0  0  0
  -28.0820  -24.8909   19.9875 C   0  0  0  0  0  0
  -29.8289  -15.8602   20.6992 N   0  0  0  0  0  0
  -28.9886  -22.3140   20.1663 N   0  0  0  0  0  0
  -29.5603  -21.2781   22.0877 O   0  0  0  0  0  0
  -30.5585  -16.2801   18.0078 F   0  0  0  0  0  0
  -31.4770  -12.5661   19.1803 H   0  0  0  0  0  0
  -30.3780  -11.4656   19.9604 H   0  0  0  0  0  0
  -29.7954  -11.7299   17.5261 H   0  0  0  0  0  0
  -29.6473  -13.4586   17.7295 H   0  0  0  0  0  0
  -27.8920  -11.2843   18.9126 H   0  0  0  0  0  0
  -27.3845  -12.5282   17.8010 H   0  0  0  0  0  0
  -27.6436  -14.2545   19.4770 H   0  0  0  0  0  0
  -28.7170  -12.1563   21.4266 H   0  0  0  0  0  0
  -28.4238  -13.8337   21.8046 H   0  0  0  0  0  0
  -25.2767   -9.5684   22.4757 H   0  0  0  0  0  0
  -24.0000   -7.4636   22.7476 H   0  0  0  0  0  0
  -21.0846   -8.8777   19.8949 H   0  0  0  0  0  0
  -22.3704  -10.9673   19.6158 H   0  0  0  0  0  0
  -21.2006   -7.6145   23.9711 H   0  0  0  0  0  0
  -21.1481   -6.0519   25.9075 H   0  0  0  0  0  0
  -22.0600   -2.7606   23.2846 H   0  0  0  0  0  0
  -22.4102  -11.9856   22.4790 H   0  0  0  0  0  0
  -21.1104  -13.1227   22.2635 H   0  0  0  0  0  0
  -24.6548  -15.8463   20.5238 H   0  0  0  0  0  0
  -26.2667  -15.6313   20.0668 H   0  0  0  0  0  0
  -26.7208  -32.5421   23.1073 H   0  0  0  0  0  0
  -25.0090  -33.9687   25.0395 H   0  0  0  0  0  0
  -22.7210  -31.2988   21.4008 H   0  0  0  0  0  0
  -23.3765  -35.9607   23.3285 H   0  0  0  0  0  0
  -24.3578  -36.8918   22.2053 H   0  0  0  0  0  0
  -23.7241  -37.6473   23.6674 H   0  0  0  0  0  0
  -26.1097  -31.5341   20.6125 H   0  0  0  0  0  0
  -26.8481  -30.8161   22.0133 H   0  0  0  0  0  0
  -28.1123  -28.9180   21.2188 H   0  0  0  0  0  0
  -25.9536  -25.9245   18.9655 H   0  0  0  0  0  0
  -23.9746  -27.3231   18.9774 H   0  0  0  0  0  0
  -23.7638  -30.5936   19.4042 H   0  0  0  0  0  0
  -22.7619  -29.2460   19.8545 H   0  0  0  0  0  0
  -25.1298  -36.1904   25.0817 H   0  0  0  0  0  0
  -20.9958  -28.3244   24.1407 H   0  0  0  0  0  0
  -20.5648  -26.2274   23.3610 H   0  0  0  0  0  0
  -21.6639  -26.7407   22.1216 H   0  0  0  0  0  0
  -19.6911  -25.6272   21.1235 H   0  0  0  0  0  0
  -19.6692  -27.3175   20.6733 H   0  0  0  0  0  0
  -17.4193  -26.6647   21.4015 H   0  0  0  0  0  0
  -18.0324  -26.0036   22.9002 H   0  0  0  0  0  0
  -19.7951  -30.7244   24.2241 H   0  0  0  0  0  0
  -17.5029  -31.6256   24.5148 H   0  0  0  0  0  0
  -15.5353  -30.2959   23.7668 H   0  0  0  0  0  0
  -15.8668  -28.0799   22.7072 H   0  0  0  0  0  0
  -24.5910  -30.7064   25.7787 H   0  0  0  0  0  0
  -24.8891  -32.2916   26.4815 H   0  0  0  0  0  0
  -25.8037  -30.8971   27.0240 H   0  0  0  0  0  0
  -26.2923  -29.6735   24.1226 H   0  0  0  0  0  0
  -27.4019  -29.7254   25.4722 H   0  0  0  0  0  0
  -27.8813  -30.4248   23.9448 H   0  0  0  0  0  0
  -27.2660  -33.3656   26.2002 H   0  0  0  0  0  0
  -28.3902  -32.6830   25.0340 H   0  0  0  0  0  0
  -28.0672  -31.8480   26.5456 H   0  0  0  0  0  0
  -28.2588  -38.0102   24.7525 H   0  0  0  0  0  0
  -28.1087  -36.2630   24.6270 H   0  0  0  0  0  0
  -27.2295  -37.1420   25.8864 H   0  0  0  0  0  0
  -20.9383  -29.8772   21.6922 H   0  0  0  0  0  0
  -26.0165  -38.2842   24.1428 H   0  0  0  0  0  0
  -30.0952  -20.7520   18.3068 H   0  0  0  0  0  0
  -30.6328  -18.6921   17.1085 H   0  0  0  0  0  0
  -29.8849  -18.5730   22.9442 H   0  0  0  0  0  0
  -28.6956  -17.3499   22.4995 H   0  0  0  0  0  0
  -28.2444  -19.0360   22.4707 H   0  0  0  0  0  0
  -28.9744  -23.8184   21.6991 H   0  0  0  0  0  0
  -30.0942  -24.0976   20.4083 H   0  0  0  0  0  0
  -27.0898  -24.6297   20.3578 H   0  0  0  0  0  0
  -28.0471  -24.7411   18.9081 H   0  0  0  0  0  0
  -28.9594  -15.6558   21.1649 H   0  0  0  0  0  0
  -28.7820  -22.1667   19.1881 H   0  0  0  0  0  0
  1 25  1  0  0  0
  1 30  2  0  0  0
  1 81  1  0  0  0
  2  3  1  0  0  0
  2 25  1  0  0  0
  2 85  1  0  0  0
  2 86  1  0  0  0
  3  4  1  0  0  0
  3 87  1  0  0  0
  3 88  1  0  0  0
  4  5  1  0  0  0
  4 89  1  0  0  0
  4 90  1  0  0  0
  5  6  1  0  0  0
  5 26  1  0  0  0
  5 91  1  0  0  0
  6 25  1  0  0  0
  6 92  1  0  0  0
  6 93  1  0  0  0
  7  8  2  0  0  0
  7 26  1  0  0  0
  7 29  1  0  0  0
  8  9  1  0  0  0
  8 22  1  0  0  0
  9 10  1  0  0  0
  9 27  2  0  0  0
 10 11  2  0  0  0
 10 15  1  0  0  0
 11 12  1  0  0  0
 11 94  1  0  0  0
 12 13  2  0  0  0
 12 95  1  0  0  0
 13 14  1  0  0  0
 13 31  1  0  0  0
 14 15  2  0  0  0
 14 96  1  0  0  0
 15 97  1  0  0  0
 16 17  2  0  0  0
 16 21  1  0  0  0
 16 31  1  0  0  0
 17 18  1  0  0  0
 17 98  1  0  0  0
 18 19  2  0  0  0
 18 99  1  0  0  0
 19 20  1  0  0  0
 19 24  1  0  0  0
 20 21  2  0  0  0
 20100  1  0  0  0
 21 23  1  0  0  0
 22 28  1  0  0  0
 22 32  2  0  0  0
 26 27  1  0  0  0
 28101  1  0  0  0
 28102  1  0  0  0
 29103  1  0  0  0
 29104  1  0  0  0
 33 34  1  0  0  0
 33 66  1  0  0  0
 33 70  2  0  0  0
 34 36  1  0  0  0
 34 59  1  0  0  0
 34105  1  0  0  0
 35 44  2  0  0  0
 35 45  1  0  0  0
 35 68  1  0  0  0
 36 56  1  0  0  0
 36106  1  0  0  0
 37 39  1  0  0  0
 37 47  1  0  0  0
 37 66  1  0  0  0
 37107  1  0  0  0
 38 43  2  0  0  0
 38 46  1  0  0  0
 38 47  1  0  0  0
 39 64  1  0  0  0
 39 67  2  0  0  0
 40 52  1  0  0  0
 40 53  2  0  0  0
 40 58  1  0  0  0
 41108  1  0  0  0
 41109  1  0  0  0
 41110  1  0  0  0
 41 48  1  0  0  0
 42 43  1  0  0  0
 42 66  1  0  0  0
 42111  1  0  0  0
 42112  1  0  0  0
 43 44  1  0  0  0
 44113  1  0  0  0
 45 46  2  0  0  0
 45114  1  0  0  0
 46115  1  0  0  0
 47116  1  0  0  0
 47117  1  0  0  0
 48 56  1  0  0  0
 48 65  1  0  0  0
 48118  1  0  0  0
 49 50  1  0  0  0
 49 53  1  0  0  0
 49 64  1  0  0  0
 49119  1  0  0  0
 50 51  1  0  0  0
 50120  1  0  0  0
 50121  1  0  0  0
 51 52  1  0  0  0
 51122  1  0  0  0
 51123  1  0  0  0
 52124  1  0  0  0
 52125  1  0  0  0
 53 54  1  0  0  0
 54 55  2  0  0  0
 54126  1  0  0  0
 55 57  1  0  0  0
 55127  1  0  0  0
 56 69  2  0  0  0
 57 58  2  0  0  0
 57128  1  0  0  0
 58129  1  0  0  0
 59 60  1  0  0  0
 59 61  1  0  0  0
 59 62  1  0  0  0
 60130  1  0  0  0
 60131  1  0  0  0
 60132  1  0  0  0
 61133  1  0  0  0
 61134  1  0  0  0
 61135  1  0  0  0
 62136  1  0  0  0
 62137  1  0  0  0
 62138  1  0  0  0
 63 65  1  0  0  0
 63139  1  0  0  0
 63140  1  0  0  0
 63141  1  0  0  0
 64142  1  0  0  0
 65143  1  0  0  0
 68 80  1  0  0  0
 71 72  2  0  0  0
 71 73  1  0  0  0
 71144  1  0  0  0
 72 76  1  0  0  0
 72145  1  0  0  0
 73 74  2  0  0  0
 73 77  1  0  0  0
 74 75  1  0  0  0
 74 78  1  0  0  0
 75 76  2  0  0  0
 75 81  1  0  0  0
 76 84  1  0  0  0
 77 82  1  0  0  0
 77 83  2  0  0  0
 78146  1  0  0  0
 78147  1  0  0  0
 78148  1  0  0  0
 79 80  1  0  0  0
 79 82  1  0  0  0
 79149  1  0  0  0
 79150  1  0  0  0
 80151  1  0  0  0
 80152  1  0  0  0
 81153  1  0  0  0
 82154  1  0  0  0
M  ISO  4   1 100  68 101  80 101  81 100
M  END
> <chiral flag>
0

> <version>
0

> <s_m_source_file>
/data/baiqing/PycharmProjects/Reinvent-master-3.2/result/LINK_invent/BTK/process_docking_weight1_custom_product_contain_oxygen_bond_distance_aromatic_linkinvent_7_9_3/rearranged_h_0053.sdf

> <i_m_source_file_index>
20

> <r_mmod_Potential_Energy-OPLS-2005>
61.9998741149902

> <r_mmod_Stretch_Energy-OPLS-2005>
126.745849609375

> <r_mmod_Bend_Energy-OPLS-2005>
151.933670043945

> <r_mmod_Torsional_Energy-OPLS-2005>
245.062759399414

> <r_mmod_Improper_Torsional_Energy-OPLS-2005>
5.10851860046387

> <r_mmod_Van_der_Waal_Energy-OPLS-2005>
147.897491455078

> <r_mmod_Electrostatic_Energy-OPLS-2005>
-460.465789794922

> <r_mmod_Solvation_Energy-OPLS-2005>
-239.051040649414

> <b_mmod_Minimization_Converged-OPLS-2005>
0

> <r_mmod_RMS_Derivative-OPLS-2005>
1.01180732250214

$$$$
20
                    3D
 Structure written by MMmdl.
161170  0  0  1  0            999 V2000
  -30.7489  -14.4334   20.4519 C   0  0  0  0  0  0
  -30.3985  -12.2457   19.4316 C   0  0  0  0  0  0
  -29.4860  -12.4511   18.2056 C   0  0  0  0  0  0
  -28.0014  -12.3599   18.6123 C   0  0  0  0  0  0
  -27.6553  -13.2154   19.8629 C   0  0  2  0  0  0
  -28.7056  -13.0432   20.9856 C   0  0  0  0  0  0
  -25.2541  -13.8215   20.5664 C   0  0  0  0  0  0
  -24.1820  -13.0485   20.9190 C   0  0  0  0  0  0
  -24.6360  -11.6949   20.8764 C   0  0  0  0  0  0
  -23.9021  -10.4331   21.0425 C   0  0  0  0  0  0
  -24.3600   -9.4239   21.9192 C   0  0  0  0  0  0
  -23.6314   -8.2243   22.0746 C   0  0  0  0  0  0
  -22.4278   -8.0281   21.3540 C   0  0  0  0  0  0
  -21.9896   -9.0249   20.4635 C   0  0  0  0  0  0
  -22.7197  -10.2143   20.3061 C   0  0  0  0  0  0
  -21.6843   -6.0726   22.5288 C   0  0  0  0  0  0
  -21.3996   -6.5627   23.8220 C   0  0  0  0  0  0
  -21.3683   -5.6779   24.9197 C   0  0  0  0  0  0
  -21.6074   -4.3047   24.7231 C   0  0  0  0  0  0
  -21.8820   -3.8130   23.4343 C   0  0  0  0  0  0
  -21.9171   -4.6956   22.3403 C   0  0  0  0  0  0
  -22.7813  -13.5241   21.1873 C   0  0  0  0  0  0
  -22.1647   -4.2139   21.0984 F   0  0  0  0  0  0
  -21.5666   -3.4530   25.7743 F   0  0  0  0  0  0
  -30.0404  -13.2769   20.4131 N   0  0  0  0  0  0
  -26.2987  -12.9394   20.3350 N   0  0  0  0  0  0
  -25.9290  -11.6556   20.5820 N   0  0  0  0  0  0
  -22.0393  -12.8249   22.0418 N   0  0  0  0  0  0
  -25.4192  -15.1924   20.3981 N   0  0  0  0  0  0
  -31.9480  -14.5110   20.1779 O   0  0  0  0  0  0
  -21.6653   -6.8870   21.4238 O   0  0  0  0  0  0
  -22.3512  -14.5536   20.6697 O   0  0  0  0  0  0
  -24.6189  -31.8657   23.2072 C   0  0  0  0  0  0
  -25.9068  -32.4805   23.8388 C   0  0  1  0  0  0
  -27.2372  -27.4081   20.1059 C   0  0  0  0  0  0
  -25.5905  -33.8604   24.2317 N   0  0  0  0  0  0
  -23.4102  -30.4862   21.5489 C   0  0  2  0  0  0
  -24.8575  -28.9537   20.1094 C   0  0  0  0  0  0
  -22.7453  -29.4625   22.4986 C   0  0  0  0  0  0
  -18.0280  -28.1354   22.8494 C   0  0  0  0  0  0
  -24.1485  -36.7337   23.2610 C   0  0  0  0  0  0
  -25.9412  -30.8220   21.3644 C   0  0  0  0  0  0
  -26.0171  -29.4538   20.7147 C   0  0  0  0  0  0
  -27.2089  -28.6878   20.7121 C   0  0  0  0  0  0
  -26.0632  -26.9454   19.4652 C   0  0  0  0  0  0
  -24.8759  -27.7000   19.4785 C   0  0  0  0  0  0
  -23.6198  -29.8199   20.1628 C   0  0  0  0  0  0
  -25.4083  -36.3109   24.0333 C   0  0  1  0  0  0
  -20.5868  -28.3656   23.1309 C   0  0  2  0  0  0
  -20.6760  -26.9397   22.5398 C   0  0  0  0  0  0
  -19.5724  -26.6385   21.5203 C   0  0  0  0  0  0
  -18.1919  -26.7900   22.1635 C   0  0  0  0  0  0
  -19.1524  -28.8817   23.2893 C   0  0  0  0  0  0
  -18.9450  -30.1420   23.8907 C   0  0  0  0  0  0
  -17.6447  -30.6565   24.0552 C   0  0  0  0  0  0
  -25.9042  -34.9470   23.5131 C   0  0  0  0  0  0
  -16.5340  -29.9074   23.6307 C   0  0  0  0  0  0
  -16.7265  -28.6480   23.0345 C   0  0  0  0  0  0
  -26.4492  -31.6572   25.0711 C   0  0  0  0  0  0
  -25.3792  -31.3721   26.1514 C   0  0  0  0  0  0
  -27.0270  -30.2998   24.6075 C   0  0  0  0  0  0
  -27.6115  -32.4266   25.7423 C   0  0  0  0  0  0
  -27.5627  -37.1754   24.8383 C   0  0  0  0  0  0
  -21.4170  -29.3016   22.3718 N   0  0  0  0  0  0
  -26.4240  -37.3835   23.9483 N   0  0  0  0  0  0
  -24.6757  -31.0718   22.1000 N   0  0  0  0  0  0
  -23.4213  -28.8155   23.3024 O   0  0  0  0  0  0
  -28.3861  -26.6347   20.1302 O   0  0  0  0  0  0
  -26.5619  -34.8927   22.4698 O   0  0  0  0  0  0
  -23.5363  -32.1414   23.7440 O   0  0  0  0  0  0
  -30.7262  -17.6033   17.4324 C   0  0  0  0  0  0
  -30.9313  -18.8759   17.9931 C   0  0  0  0  0  0
  -30.4188  -16.5151   18.2669 C   0  0  0  0  0  0
  -30.8460  -19.0703   19.3901 C   0  0  0  0  0  0
  -30.3463  -16.6792   19.6718 C   0  0  0  0  0  0
  -30.5611  -17.9615   20.2369 C   0  0  0  0  0  0
  -30.1829  -22.9290   21.0706 C   0  0  0  0  0  0
  -31.8856  -20.9879   20.6415 C   0  0  0  0  0  0
  -33.0559  -20.3713   20.8802 C   0  0  0  0  0  0
  -29.8914  -24.2594   21.0413 C   0  0  0  0  0  0
  -31.6150  -22.3890   21.2398 C   0  0  0  0  0  0
  -29.1761  -21.8104   20.9072 C   0  0  0  0  0  0
  -29.5676  -21.0120   19.6715 C   0  0  0  0  0  0
  -30.8748  -20.3957   19.8730 N   0  0  0  0  0  0
  -30.0166  -15.5521   20.4853 N   0  0  0  0  0  0
  -27.6699  -24.2525   19.5378 O   0  0  0  0  0  0
  -27.5059  -25.0553   21.9449 O   0  0  0  0  0  0
  -28.2477  -25.0106   20.6705 S   0  0  0  0  0  0
  -30.4330  -18.1712   21.9534 Cl  0  0  0  0  0  0
  -31.4492  -12.2859   19.1382 H   0  0  0  0  0  0
  -30.2480  -11.2508   19.8558 H   0  0  0  0  0  0
  -29.7107  -11.7035   17.4421 H   0  0  0  0  0  0
  -29.6847  -13.4189   17.7481 H   0  0  0  0  0  0
  -27.7740  -11.3110   18.7999 H   0  0  0  0  0  0
  -27.3649  -12.6565   17.7781 H   0  0  0  0  0  0
  -27.6825  -14.2550   19.5391 H   0  0  0  0  0  0
  -28.6602  -12.0382   21.4069 H   0  0  0  0  0  0
  -28.5065  -13.7270   21.8105 H   0  0  0  0  0  0
  -25.2747   -9.5759   22.4757 H   0  0  0  0  0  0
  -24.0045   -7.4637   22.7459 H   0  0  0  0  0  0
  -21.0810   -8.8747   19.8942 H   0  0  0  0  0  0
  -22.3636  -10.9680   19.6175 H   0  0  0  0  0  0
  -21.1970   -7.6129   23.9724 H   0  0  0  0  0  0
  -21.1520   -6.0507   25.9101 H   0  0  0  0  0  0
  -22.0563   -2.7587   23.2832 H   0  0  0  0  0  0
  -22.3932  -11.9906   22.4881 H   0  0  0  0  0  0
  -21.0986  -13.1317   22.2547 H   0  0  0  0  0  0
  -24.6432  -15.8372   20.4960 H   0  0  0  0  0  0
  -26.2584  -15.6367   20.0493 H   0  0  0  0  0  0
  -26.7134  -32.5512   23.1146 H   0  0  0  0  0  0
  -25.0030  -33.9748   25.0450 H   0  0  0  0  0  0
  -22.6992  -31.3024   21.4082 H   0  0  0  0  0  0
  -23.3766  -35.9643   23.3125 H   0  0  0  0  0  0
  -24.3666  -36.9093   22.2064 H   0  0  0  0  0  0
  -23.7179  -37.6477   23.6704 H   0  0  0  0  0  0
  -26.0459  -31.5811   20.5873 H   0  0  0  0  0  0
  -26.8355  -30.8841   21.9748 H   0  0  0  0  0  0
  -28.1078  -29.0623   21.1793 H   0  0  0  0  0  0
  -26.0421  -25.9948   18.9534 H   0  0  0  0  0  0
  -23.9891  -27.3165   18.9934 H   0  0  0  0  0  0
  -23.7279  -30.5957   19.4032 H   0  0  0  0  0  0
  -22.7448  -29.2378   19.8686 H   0  0  0  0  0  0
  -25.1216  -36.1942   25.0816 H   0  0  0  0  0  0
  -20.9950  -28.3193   24.1428 H   0  0  0  0  0  0
  -20.5678  -26.2255   23.3568 H   0  0  0  0  0  0
  -21.6622  -26.7443   22.1154 H   0  0  0  0  0  0
  -19.6890  -25.6313   21.1184 H   0  0  0  0  0  0
  -19.6644  -27.3231   20.6751 H   0  0  0  0  0  0
  -17.4183  -26.6630   21.4052 H   0  0  0  0  0  0
  -18.0353  -26.0040   22.9029 H   0  0  0  0  0  0
  -19.7928  -30.7224   24.2297 H   0  0  0  0  0  0
  -17.5005  -31.6249   24.5149 H   0  0  0  0  0  0
  -15.5338  -30.2978   23.7604 H   0  0  0  0  0  0
  -15.8666  -28.0795   22.7057 H   0  0  0  0  0  0
  -24.5776  -30.7311   25.7834 H   0  0  0  0  0  0
  -24.9240  -32.2917   26.5206 H   0  0  0  0  0  0
  -25.8138  -30.8629   27.0128 H   0  0  0  0  0  0
  -26.2772  -29.6778   24.1181 H   0  0  0  0  0  0
  -27.4060  -29.7232   25.4519 H   0  0  0  0  0  0
  -27.8615  -30.4270   23.9183 H   0  0  0  0  0  0
  -27.2796  -33.3588   26.2009 H   0  0  0  0  0  0
  -28.3909  -32.6786   25.0215 H   0  0  0  0  0  0
  -28.0802  -31.8372   26.5315 H   0  0  0  0  0  0
  -28.2365  -38.0303   24.7820 H   0  0  0  0  0  0
  -28.1370  -36.2897   24.5665 H   0  0  0  0  0  0
  -27.2450  -37.0734   25.8765 H   0  0  0  0  0  0
  -20.9347  -29.8777   21.6967 H   0  0  0  0  0  0
  -26.0097  -38.2845   24.1711 H   0  0  0  0  0  0
  -30.7835  -17.4647   16.3608 H   0  0  0  0  0  0
  -31.1270  -19.7121   17.3369 H   0  0  0  0  0  0
  -30.2374  -15.5484   17.8194 H   0  0  0  0  0  0
  -33.8157  -20.8338   21.4932 H   0  0  0  0  0  0
  -33.2842  -19.3934   20.4778 H   0  0  0  0  0  0
  -30.6574  -25.0017   21.1791 H   0  0  0  0  0  0
  -31.8378  -22.3342   22.3066 H   0  0  0  0  0  0
  -32.3327  -23.0940   20.8143 H   0  0  0  0  0  0
  -28.1485  -22.1579   20.8406 H   0  0  0  0  0  0
  -29.2245  -21.1578   21.7848 H   0  0  0  0  0  0
  -29.6361  -21.6709   18.8058 H   0  0  0  0  0  0
  -28.7969  -20.2711   19.4512 H   0  0  0  0  0  0
  -29.0520  -15.4581   20.7633 H   0  0  0  0  0  0
  1 25  1  0  0  0
  1 30  2  0  0  0
  1 85  1  0  0  0
  2  3  1  0  0  0
  2 25  1  0  0  0
  2 90  1  0  0  0
  2 91  1  0  0  0
  3  4  1  0  0  0
  3 92  1  0  0  0
  3 93  1  0  0  0
  4  5  1  0  0  0
  4 94  1  0  0  0
  4 95  1  0  0  0
  5  6  1  0  0  0
  5 26  1  0  0  0
  5 96  1  0  0  0
  6 25  1  0  0  0
  6 97  1  0  0  0
  6 98  1  0  0  0
  7  8  2  0  0  0
  7 26  1  0  0  0
  7 29  1  0  0  0
  8  9  1  0  0  0
  8 22  1  0  0  0
  9 10  1  0  0  0
  9 27  2  0  0  0
 10 11  2  0  0  0
 10 15  1  0  0  0
 11 12  1  0  0  0
 11 99  1  0  0  0
 12 13  2  0  0  0
 12100  1  0  0  0
 13 14  1  0  0  0
 13 31  1  0  0  0
 14 15  2  0  0  0
 14101  1  0  0  0
 15102  1  0  0  0
 16 17  2  0  0  0
 16 21  1  0  0  0
 16 31  1  0  0  0
 17 18  1  0  0  0
 17103  1  0  0  0
 18 19  2  0  0  0
 18104  1  0  0  0
 19 20  1  0  0  0
 19 24  1  0  0  0
 20 21  2  0  0  0
 20105  1  0  0  0
 21 23  1  0  0  0
 22 28  1  0  0  0
 22 32  2  0  0  0
 26 27  1  0  0  0
 28106  1  0  0  0
 28107  1  0  0  0
 29108  1  0  0  0
 29109  1  0  0  0
 33 34  1  0  0  0
 33 66  1  0  0  0
 33 70  2  0  0  0
 34 36  1  0  0  0
 34 59  1  0  0  0
 34110  1  0  0  0
 35 44  2  0  0  0
 35 45  1  0  0  0
 35 68  1  0  0  0
 36 56  1  0  0  0
 36111  1  0  0  0
 37 39  1  0  0  0
 37 47  1  0  0  0
 37 66  1  0  0  0
 37112  1  0  0  0
 38 43  2  0  0  0
 38 46  1  0  0  0
 38 47  1  0  0  0
 39 64  1  0  0  0
 39 67  2  0  0  0
 40 52  1  0  0  0
 40 53  2  0  0  0
 40 58  1  0  0  0
 41113  1  0  0  0
 41114  1  0  0  0
 41115  1  0  0  0
 41 48  1  0  0  0
 42 43  1  0  0  0
 42 66  1  0  0  0
 42116  1  0  0  0
 42117  1  0  0  0
 43 44  1  0  0  0
 44118  1  0  0  0
 45 46  2  0  0  0
 45119  1  0  0  0
 46120  1  0  0  0
 47121  1  0  0  0
 47122  1  0  0  0
 48 56  1  0  0  0
 48 65  1  0  0  0
 48123  1  0  0  0
 49 50  1  0  0  0
 49 53  1  0  0  0
 49 64  1  0  0  0
 49124  1  0  0  0
 50 51  1  0  0  0
 50125  1  0  0  0
 50126  1  0  0  0
 51 52  1  0  0  0
 51127  1  0  0  0
 51128  1  0  0  0
 52129  1  0  0  0
 52130  1  0  0  0
 53 54  1  0  0  0
 54 55  2  0  0  0
 54131  1  0  0  0
 55 57  1  0  0  0
 55132  1  0  0  0
 56 69  2  0  0  0
 57 58  2  0  0  0
 57133  1  0  0  0
 58134  1  0  0  0
 59 60  1  0  0  0
 59 61  1  0  0  0
 59 62  1  0  0  0
 60135  1  0  0  0
 60136  1  0  0  0
 60137  1  0  0  0
 61138  1  0  0  0
 61139  1  0  0  0
 61140  1  0  0  0
 62141  1  0  0  0
 62142  1  0  0  0
 62143  1  0  0  0
 63 65  1  0  0  0
 63144  1  0  0  0
 63145  1  0  0  0
 63146  1  0  0  0
 64147  1  0  0  0
 65148  1  0  0  0
 68 88  1  0  0  0
 71 72  2  0  0  0
 71 73  1  0  0  0
 71149  1  0  0  0
 72 74  1  0  0  0
 72150  1  0  0  0
 73 75  2  0  0  0
 73151  1  0  0  0
 74 76  2  0  0  0
 74 84  1  0  0  0
 75 76  1  0  0  0
 75 85  1  0  0  0
 76 89  1  0  0  0
 77 80  2  0  0  0
 77 81  1  0  0  0
 77 82  1  0  0  0
 78 79  2  0  0  0
 78 81  1  0  0  0
 78 84  1  0  0  0
 79152  1  0  0  0
 79153  1  0  0  0
 80 88  1  0  0  0
 80154  1  0  0  0
 81155  1  0  0  0
 81156  1  0  0  0
 82 83  1  0  0  0
 82157  1  0  0  0
 82158  1  0  0  0
 83 84  1  0  0  0
 83159  1  0  0  0
 83160  1  0  0  0
 85161  1  0  0  0
 86 88  2  0  0  0
 87 88  2  0  0  0
M  ISO  4   1 100  68 101  85 100  88 101
M  END
> <chiral flag>
0

> <version>
0

> <s_m_source_file>
/data/baiqing/PycharmProjects/Reinvent-master-3.2/result/LINK_invent/BTK/process_docking_weight1_custom_product_contain_oxygen_bond_distance_aromatic_linkinvent_7_9_3/rearranged_h_0053.sdf

> <i_m_source_file_index>
21

> <r_mmod_Potential_Energy-OPLS-2005>
53.854377746582

> <r_mmod_Stretch_Energy-OPLS-2005>
44.3174743652344

> <r_mmod_Bend_Energy-OPLS-2005>
105.597732543945

> <r_mmod_Torsional_Energy-OPLS-2005>
271.242248535156

> <r_mmod_Improper_Torsional_Energy-OPLS-2005>
10.8127937316895

> <r_mmod_Van_der_Waal_Energy-OPLS-2005>
152.834655761719

> <r_mmod_Electrostatic_Energy-OPLS-2005>
-316.61865234375

> <r_mmod_Solvation_Energy-OPLS-2005>
-239.971282958984

> <b_mmod_Minimization_Converged-OPLS-2005>
0

> <r_mmod_RMS_Derivative-OPLS-2005>
5.10643625259399

$$$$
21
                    3D
 Structure written by MMmdl.
165173  0  0  1  0            999 V2000
  -30.6826  -14.4957   20.5430 C   0  0  0  0  0  0
  -30.4317  -12.3189   19.4105 C   0  0  0  0  0  0
  -29.4994  -12.4921   18.1931 C   0  0  0  0  0  0
  -28.0193  -12.3525   18.6080 C   0  0  0  0  0  0
  -27.6562  -13.2025   19.8583 C   0  0  2  0  0  0
  -28.7011  -13.0002   20.9783 C   0  0  0  0  0  0
  -25.2552  -13.8156   20.5619 C   0  0  0  0  0  0
  -24.1812  -13.0440   20.9167 C   0  0  0  0  0  0
  -24.6347  -11.6884   20.8716 C   0  0  0  0  0  0
  -23.9001  -10.4281   21.0391 C   0  0  0  0  0  0
  -24.3562   -9.4191   21.9155 C   0  0  0  0  0  0
  -23.6249   -8.2226   22.0739 C   0  0  0  0  0  0
  -22.4237   -8.0253   21.3531 C   0  0  0  0  0  0
  -21.9867   -9.0215   20.4640 C   0  0  0  0  0  0
  -22.7186  -10.2098   20.3034 C   0  0  0  0  0  0
  -21.6844   -6.0702   22.5279 C   0  0  0  0  0  0
  -21.4023   -6.5608   23.8219 C   0  0  0  0  0  0
  -21.3650   -5.6756   24.9181 C   0  0  0  0  0  0
  -21.6039   -4.3019   24.7229 C   0  0  0  0  0  0
  -21.8819   -3.8111   23.4351 C   0  0  0  0  0  0
  -21.9188   -4.6933   22.3405 C   0  0  0  0  0  0
  -22.7846  -13.5251   21.1822 C   0  0  0  0  0  0
  -22.1663   -4.2126   21.0980 F   0  0  0  0  0  0
  -21.5602   -3.4491   25.7732 F   0  0  0  0  0  0
  -30.0251  -13.3118   20.4151 N   0  0  0  0  0  0
  -26.2975  -12.9305   20.3252 N   0  0  0  0  0  0
  -25.9270  -11.6470   20.5700 N   0  0  0  0  0  0
  -22.0446  -12.8286   22.0395 N   0  0  0  0  0  0
  -25.4220  -15.1892   20.4029 N   0  0  0  0  0  0
  -31.8433  -14.6684   20.1628 O   0  0  0  0  0  0
  -21.6607   -6.8844   21.4241 O   0  0  0  0  0  0
  -22.3538  -14.5537   20.6631 O   0  0  0  0  0  0
  -24.6177  -31.8691   23.2101 C   0  0  0  0  0  0
  -25.9073  -32.4824   23.8396 C   0  0  1  0  0  0
  -27.2335  -27.4112   20.1085 C   0  0  0  0  0  0
  -25.5957  -33.8621   24.2334 N   0  0  0  0  0  0
  -23.4098  -30.4936   21.5500 C   0  0  2  0  0  0
  -24.8612  -28.9639   20.1125 C   0  0  0  0  0  0
  -22.7437  -29.4685   22.4962 C   0  0  0  0  0  0
  -18.0309  -28.1290   22.8555 C   0  0  0  0  0  0
  -24.1497  -36.7305   23.2633 C   0  0  0  0  0  0
  -25.9435  -30.8275   21.3734 C   0  0  0  0  0  0
  -26.0235  -29.4632   20.7136 C   0  0  0  0  0  0
  -27.2174  -28.6952   20.7084 C   0  0  0  0  0  0
  -26.0606  -26.9599   19.4604 C   0  0  0  0  0  0
  -24.8774  -27.7149   19.4740 C   0  0  0  0  0  0
  -23.6225  -29.8295   20.1639 C   0  0  0  0  0  0
  -25.4126  -36.3113   24.0331 C   0  0  1  0  0  0
  -20.5921  -28.3656   23.1222 C   0  0  2  0  0  0
  -20.6874  -26.9466   22.5177 C   0  0  0  0  0  0
  -19.5696  -26.6352   21.5193 C   0  0  0  0  0  0
  -18.1989  -26.7756   22.1865 C   0  0  0  0  0  0
  -19.1568  -28.8796   23.2877 C   0  0  0  0  0  0
  -18.9514  -30.1414   23.8865 C   0  0  0  0  0  0
  -17.6526  -30.6572   24.0497 C   0  0  0  0  0  0
  -25.9072  -34.9480   23.5137 C   0  0  0  0  0  0
  -16.5408  -29.9070   23.6295 C   0  0  0  0  0  0
  -16.7302  -28.6426   23.0430 C   0  0  0  0  0  0
  -26.4499  -31.6601   25.0724 C   0  0  0  0  0  0
  -25.3727  -31.3721   26.1439 C   0  0  0  0  0  0
  -27.0317  -30.3021   24.6115 C   0  0  0  0  0  0
  -27.6073  -32.4322   25.7495 C   0  0  0  0  0  0
  -27.5593  -37.1814   24.8467 C   0  0  0  0  0  0
  -21.4160  -29.3126   22.3721 N   0  0  0  0  0  0
  -26.4310  -37.3805   23.9418 N   0  0  0  0  0  0
  -24.6753  -31.0751   22.1042 N   0  0  0  0  0  0
  -23.4181  -28.8189   23.2998 O   0  0  0  0  0  0
  -28.3380  -26.5717   20.1987 O   0  0  0  0  0  0
  -26.5566  -34.8938   22.4666 O   0  0  0  0  0  0
  -23.5353  -32.1495   23.7450 O   0  0  0  0  0  0
  -30.8936  -19.5179   22.0256 C   0  0  0  0  0  0
  -31.2679  -17.1125   22.1762 C   0  0  0  0  0  0
  -29.9164  -19.3283   21.0220 C   0  0  0  0  0  0
  -29.6530  -17.9948   20.5512 C   0  0  0  0  0  0
  -30.3001  -16.8826   21.1741 C   0  0  0  0  0  0
  -31.5775  -18.4224   22.5815 C   0  0  0  0  0  0
  -29.1495  -20.5282   20.5947 C   0  0  0  0  0  0
  -28.7085  -17.7298   19.3745 C   0  0  0  0  0  0
  -28.6850  -23.5804   22.4818 C   0  0  0  0  0  0
  -30.4692  -24.7928   21.2133 C   0  0  0  0  0  0
  -29.0232  -23.0260   20.0426 C   0  0  0  0  0  0
  -27.9847  -25.2777   20.7613 C   0  0  0  0  0  0
  -29.0623  -24.1789   21.1042 C   0  0  0  0  0  0
  -27.8366  -20.4030   20.4052 N   0  0  0  0  0  0
  -29.8980  -15.5374   20.8930 N   0  0  0  0  0  0
  -29.7050  -21.7564   20.4488 N   0  3  0  0  0  0
  -32.5072  -18.6308   23.5452 F   0  0  0  0  0  0
  -31.4742  -12.4338   19.1073 H   0  0  0  0  0  0
  -30.3479  -11.3131   19.8220 H   0  0  0  0  0  0
  -29.7498  -11.7554   17.4279 H   0  0  0  0  0  0
  -29.6654  -13.4673   17.7333 H   0  0  0  0  0  0
  -27.8343  -11.2972   18.8107 H   0  0  0  0  0  0
  -27.3732  -12.6183   17.7704 H   0  0  0  0  0  0
  -27.6933  -14.2457   19.5429 H   0  0  0  0  0  0
  -28.6838  -11.9699   21.3383 H   0  0  0  0  0  0
  -28.4619  -13.6193   21.8431 H   0  0  0  0  0  0
  -25.2706   -9.5644   22.4735 H   0  0  0  0  0  0
  -23.9940   -7.4603   22.7459 H   0  0  0  0  0  0
  -21.0798   -8.8705   19.8957 H   0  0  0  0  0  0
  -22.3638  -10.9595   19.6112 H   0  0  0  0  0  0
  -21.2056   -7.6118   23.9731 H   0  0  0  0  0  0
  -21.1466   -6.0476   25.9082 H   0  0  0  0  0  0
  -22.0621   -2.7574   23.2851 H   0  0  0  0  0  0
  -22.4045  -11.9999   22.4875 H   0  0  0  0  0  0
  -21.1038  -13.1305   22.2508 H   0  0  0  0  0  0
  -24.6375  -15.8278   20.4884 H   0  0  0  0  0  0
  -26.2409  -15.6253   20.0026 H   0  0  0  0  0  0
  -26.7134  -32.5548   23.1159 H   0  0  0  0  0  0
  -25.0172  -33.9777   25.0503 H   0  0  0  0  0  0
  -22.7021  -31.3112   21.4053 H   0  0  0  0  0  0
  -23.3763  -35.9637   23.3318 H   0  0  0  0  0  0
  -24.3582  -36.8888   22.2044 H   0  0  0  0  0  0
  -23.7224  -37.6508   23.6623 H   0  0  0  0  0  0
  -26.0584  -31.5948   20.6081 H   0  0  0  0  0  0
  -26.8302  -30.8770   21.9935 H   0  0  0  0  0  0
  -28.1088  -29.0653   21.1971 H   0  0  0  0  0  0
  -26.0397  -26.0147   18.9396 H   0  0  0  0  0  0
  -23.9940  -27.3346   18.9833 H   0  0  0  0  0  0
  -23.7305  -30.6019   19.4018 H   0  0  0  0  0  0
  -22.7509  -29.2461   19.8680 H   0  0  0  0  0  0
  -25.1300  -36.2007   25.0816 H   0  0  0  0  0  0
  -21.0023  -28.3128   24.1330 H   0  0  0  0  0  0
  -20.6139  -26.2225   23.3303 H   0  0  0  0  0  0
  -21.6670  -26.7749   22.0654 H   0  0  0  0  0  0
  -19.6915  -25.6267   21.1206 H   0  0  0  0  0  0
  -19.6378  -27.3168   20.6710 H   0  0  0  0  0  0
  -17.4115  -26.6163   21.4502 H   0  0  0  0  0  0
  -18.0763  -26.0014   22.9465 H   0  0  0  0  0  0
  -19.8016  -30.7216   24.2211 H   0  0  0  0  0  0
  -17.5119  -31.6272   24.5057 H   0  0  0  0  0  0
  -15.5419  -30.3008   23.7649 H   0  0  0  0  0  0
  -15.8664  -28.0738   22.7242 H   0  0  0  0  0  0
  -24.5915  -30.7076   25.7755 H   0  0  0  0  0  0
  -24.8896  -32.2874   26.4859 H   0  0  0  0  0  0
  -25.8038  -30.8894   27.0207 H   0  0  0  0  0  0
  -26.2857  -29.6795   24.1153 H   0  0  0  0  0  0
  -27.4056  -29.7277   25.4600 H   0  0  0  0  0  0
  -27.8729  -30.4343   23.9300 H   0  0  0  0  0  0
  -27.2694  -33.3619   26.2096 H   0  0  0  0  0  0
  -28.3866  -32.6888   25.0304 H   0  0  0  0  0  0
  -28.0753  -31.8420   26.5388 H   0  0  0  0  0  0
  -28.2617  -38.0107   24.7516 H   0  0  0  0  0  0
  -28.1083  -36.2632   24.6308 H   0  0  0  0  0  0
  -27.2298  -37.1477   25.8864 H   0  0  0  0  0  0
  -20.9306  -29.8978   21.7063 H   0  0  0  0  0  0
  -26.0201  -38.2891   24.1406 H   0  0  0  0  0  0
  -31.1078  -20.5040   22.4130 H   0  0  0  0  0  0
  -31.7575  -16.2851   22.6676 H   0  0  0  0  0  0
  -27.6752  -17.6350   19.7069 H   0  0  0  0  0  0
  -28.9749  -16.8194   18.8378 H   0  0  0  0  0  0
  -28.7592  -18.5266   18.6321 H   0  0  0  0  0  0
  -29.4151  -22.8471   22.8263 H   0  0  0  0  0  0
  -27.7136  -23.0847   22.4469 H   0  0  0  0  0  0
  -28.6312  -24.3511   23.2515 H   0  0  0  0  0  0
  -31.2100  -24.0512   21.5166 H   0  0  0  0  0  0
  -30.4930  -25.5934   21.9540 H   0  0  0  0  0  0
  -30.7892  -25.2121   20.2581 H   0  0  0  0  0  0
  -29.4752  -23.3729   19.1127 H   0  0  0  0  0  0
  -27.9856  -22.8077   19.7878 H   0  0  0  0  0  0
  -27.4249  -25.5008   21.6720 H   0  0  0  0  0  0
  -27.2536  -24.7946   20.1192 H   0  0  0  0  0  0
  -27.2515  -21.1659   20.1145 H   0  0  0  0  0  0
  -27.4138  -19.4997   20.5527 H   0  0  0  0  0  0
  -28.9140  -15.3364   20.9703 H   0  0  0  0  0  0
  -30.7087  -21.8136   20.5766 H   0  0  0  0  0  0
  1 25  1  0  0  0
  1 30  2  0  0  0
  1 85  1  0  0  0
  2  3  1  0  0  0
  2 25  1  0  0  0
  2 88  1  0  0  0
  2 89  1  0  0  0
  3  4  1  0  0  0
  3 90  1  0  0  0
  3 91  1  0  0  0
  4  5  1  0  0  0
  4 92  1  0  0  0
  4 93  1  0  0  0
  5  6  1  0  0  0
  5 26  1  0  0  0
  5 94  1  0  0  0
  6 25  1  0  0  0
  6 95  1  0  0  0
  6 96  1  0  0  0
  7  8  2  0  0  0
  7 26  1  0  0  0
  7 29  1  0  0  0
  8  9  1  0  0  0
  8 22  1  0  0  0
  9 10  1  0  0  0
  9 27  2  0  0  0
 10 11  2  0  0  0
 10 15  1  0  0  0
 11 12  1  0  0  0
 11 97  1  0  0  0
 12 13  2  0  0  0
 12 98  1  0  0  0
 13 14  1  0  0  0
 13 31  1  0  0  0
 14 15  2  0  0  0
 14 99  1  0  0  0
 15100  1  0  0  0
 16 17  2  0  0  0
 16 21  1  0  0  0
 16 31  1  0  0  0
 17 18  1  0  0  0
 17101  1  0  0  0
 18 19  2  0  0  0
 18102  1  0  0  0
 19 20  1  0  0  0
 19 24  1  0  0  0
 20 21  2  0  0  0
 20103  1  0  0  0
 21 23  1  0  0  0
 22 28  1  0  0  0
 22 32  2  0  0  0
 26 27  1  0  0  0
 28104  1  0  0  0
 28105  1  0  0  0
 29106  1  0  0  0
 29107  1  0  0  0
 33 34  1  0  0  0
 33 66  1  0  0  0
 33 70  2  0  0  0
 34 36  1  0  0  0
 34 59  1  0  0  0
 34108  1  0  0  0
 35 44  2  0  0  0
 35 45  1  0  0  0
 35 68  1  0  0  0
 36 56  1  0  0  0
 36109  1  0  0  0
 37 39  1  0  0  0
 37 47  1  0  0  0
 37 66  1  0  0  0
 37110  1  0  0  0
 38 43  2  0  0  0
 38 46  1  0  0  0
 38 47  1  0  0  0
 39 64  1  0  0  0
 39 67  2  0  0  0
 40 52  1  0  0  0
 40 53  2  0  0  0
 40 58  1  0  0  0
 41111  1  0  0  0
 41112  1  0  0  0
 41113  1  0  0  0
 41 48  1  0  0  0
 42 43  1  0  0  0
 42 66  1  0  0  0
 42114  1  0  0  0
 42115  1  0  0  0
 43 44  1  0  0  0
 44116  1  0  0  0
 45 46  2  0  0  0
 45117  1  0  0  0
 46118  1  0  0  0
 47119  1  0  0  0
 47120  1  0  0  0
 48 56  1  0  0  0
 48 65  1  0  0  0
 48121  1  0  0  0
 49 50  1  0  0  0
 49 53  1  0  0  0
 49 64  1  0  0  0
 49122  1  0  0  0
 50 51  1  0  0  0
 50123  1  0  0  0
 50124  1  0  0  0
 51 52  1  0  0  0
 51125  1  0  0  0
 51126  1  0  0  0
 52127  1  0  0  0
 52128  1  0  0  0
 53 54  1  0  0  0
 54 55  2  0  0  0
 54129  1  0  0  0
 55 57  1  0  0  0
 55130  1  0  0  0
 56 69  2  0  0  0
 57 58  2  0  0  0
 57131  1  0  0  0
 58132  1  0  0  0
 59 60  1  0  0  0
 59 61  1  0  0  0
 59 62  1  0  0  0
 60133  1  0  0  0
 60134  1  0  0  0
 60135  1  0  0  0
 61136  1  0  0  0
 61137  1  0  0  0
 61138  1  0  0  0
 62139  1  0  0  0
 62140  1  0  0  0
 62141  1  0  0  0
 63 65  1  0  0  0
 63142  1  0  0  0
 63143  1  0  0  0
 63144  1  0  0  0
 64145  1  0  0  0
 65146  1  0  0  0
 68 82  1  0  0  0
 71 73  2  0  0  0
 71 76  1  0  0  0
 71147  1  0  0  0
 72 75  1  0  0  0
 72 76  2  0  0  0
 72148  1  0  0  0
 73 74  1  0  0  0
 73 77  1  0  0  0
 74 75  2  0  0  0
 74 78  1  0  0  0
 75 85  1  0  0  0
 76 87  1  0  0  0
 77 84  1  0  0  0
 77 86  2  0  0  0
 78149  1  0  0  0
 78150  1  0  0  0
 78151  1  0  0  0
 79152  1  0  0  0
 79153  1  0  0  0
 79154  1  0  0  0
 79 83  1  0  0  0
 80 83  1  0  0  0
 80155  1  0  0  0
 80156  1  0  0  0
 80157  1  0  0  0
 81 83  1  0  0  0
 81 86  1  0  0  0
 81158  1  0  0  0
 81159  1  0  0  0
 82 83  1  0  0  0
 82160  1  0  0  0
 82161  1  0  0  0
 84162  1  0  0  0
 84163  1  0  0  0
 85164  1  0  0  0
 86165  1  0  0  0
M  CHG  1  86   1
M  ISO  4   1 100  68 101  82 101  85 100
M  END
> <chiral flag>
0

> <version>
0

> <s_m_source_file>
/data/baiqing/PycharmProjects/Reinvent-master-3.2/result/LINK_invent/BTK/process_docking_weight1_custom_product_contain_oxygen_bond_distance_aromatic_linkinvent_7_9_3/rearranged_h_0053.sdf

> <i_m_source_file_index>
22

> <r_mmod_Potential_Energy-OPLS-2005>
-226.702102661133

> <r_mmod_Stretch_Energy-OPLS-2005>
50.3856468200684

> <r_mmod_Bend_Energy-OPLS-2005>
110.042030334473

> <r_mmod_Torsional_Energy-OPLS-2005>
281.424774169922

> <r_mmod_Improper_Torsional_Energy-OPLS-2005>
6.67264461517334

> <r_mmod_Van_der_Waal_Energy-OPLS-2005>
170.526000976562

> <r_mmod_Electrostatic_Energy-OPLS-2005>
-449.980499267578

> <r_mmod_Solvation_Energy-OPLS-2005>
-419.068603515625

> <b_mmod_Minimization_Converged-OPLS-2005>
0

> <r_mmod_RMS_Derivative-OPLS-2005>
4.04940319061279

$$$$
22
                    3D
 Structure written by MMmdl.
157165  0  0  1  0            999 V2000
  -30.6909  -14.4762   20.5045 C   0  0  0  0  0  0
  -30.4252  -12.2878   19.4325 C   0  0  0  0  0  0
  -29.5022  -12.4825   18.2100 C   0  0  0  0  0  0
  -28.0218  -12.3533   18.6203 C   0  0  0  0  0  0
  -27.6645  -13.2082   19.8661 C   0  0  2  0  0  0
  -28.7060  -13.0077   20.9927 C   0  0  0  0  0  0
  -25.2616  -13.8174   20.5678 C   0  0  0  0  0  0
  -24.1852  -13.0453   20.9171 C   0  0  0  0  0  0
  -24.6419  -11.6920   20.8733 C   0  0  0  0  0  0
  -23.9064  -10.4307   21.0397 C   0  0  0  0  0  0
  -24.3611   -9.4220   21.9165 C   0  0  0  0  0  0
  -23.6305   -8.2252   22.0724 C   0  0  0  0  0  0
  -22.4307   -8.0274   21.3509 C   0  0  0  0  0  0
  -21.9932   -9.0261   20.4631 C   0  0  0  0  0  0
  -22.7242  -10.2151   20.3048 C   0  0  0  0  0  0
  -21.6879   -6.0740   22.5258 C   0  0  0  0  0  0
  -21.4028   -6.5635   23.8193 C   0  0  0  0  0  0
  -21.3657   -5.6784   24.9149 C   0  0  0  0  0  0
  -21.6045   -4.3048   24.7203 C   0  0  0  0  0  0
  -21.8815   -3.8148   23.4315 C   0  0  0  0  0  0
  -21.9190   -4.6969   22.3383 C   0  0  0  0  0  0
  -22.7858  -13.5240   21.1815 C   0  0  0  0  0  0
  -22.1654   -4.2152   21.0966 F   0  0  0  0  0  0
  -21.5635   -3.4523   25.7716 F   0  0  0  0  0  0
  -30.0396  -13.2866   20.4390 N   0  0  0  0  0  0
  -26.3055  -12.9347   20.3322 N   0  0  0  0  0  0
  -25.9347  -11.6517   20.5751 N   0  0  0  0  0  0
  -22.0491  -12.8277   22.0399 N   0  0  0  0  0  0
  -25.4382  -15.1892   20.4113 N   0  0  0  0  0  0
  -31.8516  -14.6311   20.1147 O   0  0  0  0  0  0
  -21.6644   -6.8890   21.4228 O   0  0  0  0  0  0
  -22.3531  -14.5524   20.6633 O   0  0  0  0  0  0
  -24.6172  -31.8681   23.2134 C   0  0  0  0  0  0
  -25.9049  -32.4833   23.8433 C   0  0  1  0  0  0
  -27.2156  -27.4192   20.0875 C   0  0  0  0  0  0
  -25.5915  -33.8627   24.2342 N   0  0  0  0  0  0
  -23.4044  -30.4982   21.5555 C   0  0  2  0  0  0
  -24.8460  -28.9788   20.1109 C   0  0  0  0  0  0
  -22.7412  -29.4655   22.4972 C   0  0  0  0  0  0
  -18.0272  -28.1356   22.8481 C   0  0  0  0  0  0
  -24.1488  -36.7322   23.2631 C   0  0  0  0  0  0
  -25.9389  -30.8315   21.3706 C   0  0  0  0  0  0
  -26.0137  -29.4706   20.7074 C   0  0  0  0  0  0
  -27.2038  -28.7001   20.6927 C   0  0  0  0  0  0
  -26.0235  -26.9697   19.4604 C   0  0  0  0  0  0
  -24.8468  -27.7282   19.4835 C   0  0  0  0  0  0
  -23.6118  -29.8453   20.1667 C   0  0  0  0  0  0
  -25.4104  -36.3115   24.0333 C   0  0  1  0  0  0
  -20.5863  -28.3643   23.1302 C   0  0  2  0  0  0
  -20.6757  -26.9376   22.5396 C   0  0  0  0  0  0
  -19.5741  -26.6363   21.5180 C   0  0  0  0  0  0
  -18.1924  -26.7909   22.1603 C   0  0  0  0  0  0
  -19.1525  -28.8815   23.2896 C   0  0  0  0  0  0
  -18.9445  -30.1426   23.8905 C   0  0  0  0  0  0
  -17.6449  -30.6569   24.0544 C   0  0  0  0  0  0
  -25.9030  -34.9472   23.5121 C   0  0  0  0  0  0
  -16.5342  -29.9064   23.6327 C   0  0  0  0  0  0
  -16.7257  -28.6481   23.0350 C   0  0  0  0  0  0
  -26.4461  -31.6612   25.0761 C   0  0  0  0  0  0
  -25.3744  -31.3749   26.1537 C   0  0  0  0  0  0
  -27.0256  -30.3043   24.6146 C   0  0  0  0  0  0
  -27.6043  -32.4328   25.7520 C   0  0  0  0  0  0
  -27.5577  -37.1814   24.8458 C   0  0  0  0  0  0
  -21.4133  -29.3030   22.3723 N   0  0  0  0  0  0
  -26.4295  -37.3797   23.9411 N   0  0  0  0  0  0
  -24.6721  -31.0796   22.1036 N   0  0  0  0  0  0
  -23.4178  -28.8168   23.2995 O   0  0  0  0  0  0
  -28.3480  -26.6149   20.1441 O   0  0  0  0  0  0
  -26.5567  -34.8916   22.4666 O   0  0  0  0  0  0
  -23.5354  -32.1429   23.7509 O   0  0  0  0  0  0
  -30.4150  -17.0001   18.8965 C   0  0  0  0  0  0
  -30.3163  -18.2525   18.2718 C   0  0  0  0  0  0
  -29.3324  -17.9140   20.8717 C   0  0  0  0  0  0
  -29.2418  -19.1892   20.2591 C   0  0  0  0  0  0
  -29.9213  -16.8114   20.2083 C   0  0  0  0  0  0
  -29.7235  -19.3437   18.9306 C   0  0  0  0  0  0
  -28.4901  -22.7253   20.4636 C   0  0  0  0  0  0
  -30.5327  -21.7526   21.4955 C   0  0  0  0  0  0
  -28.5647  -20.3170   21.0551 C   0  0  0  0  0  0
  -29.1027  -24.1547   20.4862 C   0  0  0  0  0  0
  -28.0606  -25.2035   20.0280 C   0  0  0  0  0  0
  -29.9234  -15.5308   20.8446 N   0  0  0  0  0  0
  -29.1684  -21.6645   20.9753 N   0  0  0  0  0  0
  -27.3653  -22.5767   19.9739 O   0  0  0  0  0  0
  -29.5945  -20.8098   18.0251 Cl  0  0  0  0  0  0
  -31.4717  -12.3770   19.1362 H   0  0  0  0  0  0
  -30.3173  -11.2838   19.8455 H   0  0  0  0  0  0
  -29.7397  -11.7445   17.4417 H   0  0  0  0  0  0
  -29.6757  -13.4618   17.7598 H   0  0  0  0  0  0
  -27.8313  -11.3010   18.8332 H   0  0  0  0  0  0
  -27.3710  -12.6104   17.7836 H   0  0  0  0  0  0
  -27.7055  -14.2512   19.5492 H   0  0  0  0  0  0
  -28.6754  -11.9823   21.3623 H   0  0  0  0  0  0
  -28.4821  -13.6407   21.8525 H   0  0  0  0  0  0
  -25.2766   -9.5701   22.4710 H   0  0  0  0  0  0
  -24.0021   -7.4646   22.7453 H   0  0  0  0  0  0
  -21.0842   -8.8785   19.8975 H   0  0  0  0  0  0
  -22.3682  -10.9676   19.6149 H   0  0  0  0  0  0
  -21.2037   -7.6153   23.9707 H   0  0  0  0  0  0
  -21.1488   -6.0505   25.9049 H   0  0  0  0  0  0
  -22.0612   -2.7611   23.2809 H   0  0  0  0  0  0
  -22.4126  -11.9997   22.4877 H   0  0  0  0  0  0
  -21.1075  -13.1280   22.2524 H   0  0  0  0  0  0
  -24.6876  -15.8577   20.5428 H   0  0  0  0  0  0
  -26.3023  -15.6200   20.1061 H   0  0  0  0  0  0
  -26.7116  -32.5535   23.1189 H   0  0  0  0  0  0
  -25.0105  -33.9804   25.0523 H   0  0  0  0  0  0
  -22.6944  -31.3167   21.4215 H   0  0  0  0  0  0
  -23.3743  -35.9664   23.3292 H   0  0  0  0  0  0
  -24.3599  -36.8931   22.2046 H   0  0  0  0  0  0
  -23.7240  -37.6532   23.6639 H   0  0  0  0  0  0
  -26.0575  -31.6038   20.6100 H   0  0  0  0  0  0
  -26.8242  -30.8756   21.9924 H   0  0  0  0  0  0
  -28.1016  -29.0690   21.1691 H   0  0  0  0  0  0
  -25.9552  -26.0195   18.9526 H   0  0  0  0  0  0
  -23.9505  -27.3473   19.0131 H   0  0  0  0  0  0
  -23.7219  -30.6254   19.4128 H   0  0  0  0  0  0
  -22.7357  -29.2690   19.8656 H   0  0  0  0  0  0
  -25.1272  -36.1980   25.0827 H   0  0  0  0  0  0
  -20.9957  -28.3184   24.1420 H   0  0  0  0  0  0
  -20.5638  -26.2231   23.3572 H   0  0  0  0  0  0
  -21.6634  -26.7412   22.1200 H   0  0  0  0  0  0
  -19.6908  -25.6268   21.1221 H   0  0  0  0  0  0
  -19.6700  -27.3159   20.6700 H   0  0  0  0  0  0
  -17.4186  -26.6628   21.4014 H   0  0  0  0  0  0
  -18.0359  -26.0054   22.9005 H   0  0  0  0  0  0
  -19.7928  -30.7226   24.2283 H   0  0  0  0  0  0
  -17.5013  -31.6266   24.5116 H   0  0  0  0  0  0
  -15.5341  -30.2958   23.7671 H   0  0  0  0  0  0
  -15.8658  -28.0805   22.7057 H   0  0  0  0  0  0
  -24.5900  -30.7095   25.7914 H   0  0  0  0  0  0
  -24.8968  -32.2919   26.5003 H   0  0  0  0  0  0
  -25.8131  -30.8931   27.0287 H   0  0  0  0  0  0
  -26.2778  -29.6856   24.1171 H   0  0  0  0  0  0
  -27.3952  -29.7245   25.4612 H   0  0  0  0  0  0
  -27.8662  -30.4331   23.9326 H   0  0  0  0  0  0
  -27.2658  -33.3614   26.2135 H   0  0  0  0  0  0
  -28.3844  -32.6913   25.0346 H   0  0  0  0  0  0
  -28.0724  -31.8439   26.5421 H   0  0  0  0  0  0
  -28.2591  -38.0114   24.7505 H   0  0  0  0  0  0
  -28.1067  -36.2640   24.6268 H   0  0  0  0  0  0
  -27.2303  -37.1451   25.8865 H   0  0  0  0  0  0
  -20.9259  -29.8802   21.7016 H   0  0  0  0  0  0
  -26.0170  -38.2872   24.1434 H   0  0  0  0  0  0
  -30.8462  -16.1852   18.3334 H   0  0  0  0  0  0
  -30.6794  -18.3766   17.2619 H   0  0  0  0  0  0
  -28.9312  -17.7773   21.8653 H   0  0  0  0  0  0
  -30.6786  -22.6208   22.1371 H   0  0  0  0  0  0
  -31.2398  -21.8054   20.6668 H   0  0  0  0  0  0
  -30.7912  -20.8729   22.0881 H   0  0  0  0  0  0
  -28.5660  -20.0416   22.1108 H   0  0  0  0  0  0
  -27.5089  -20.3135   20.7816 H   0  0  0  0  0  0
  -29.9791  -24.1833   19.8399 H   0  0  0  0  0  0
  -29.4271  -24.3873   21.4989 H   0  0  0  0  0  0
  -27.1638  -25.0015   20.6205 H   0  0  0  0  0  0
  -27.8276  -24.9957   18.9826 H   0  0  0  0  0  0
  -29.1004  -15.3093   21.3832 H   0  0  0  0  0  0
  1 25  1  0  0  0
  1 30  2  0  0  0
  1 82  1  0  0  0
  2  3  1  0  0  0
  2 25  1  0  0  0
  2 86  1  0  0  0
  2 87  1  0  0  0
  3  4  1  0  0  0
  3 88  1  0  0  0
  3 89  1  0  0  0
  4  5  1  0  0  0
  4 90  1  0  0  0
  4 91  1  0  0  0
  5  6  1  0  0  0
  5 26  1  0  0  0
  5 92  1  0  0  0
  6 25  1  0  0  0
  6 93  1  0  0  0
  6 94  1  0  0  0
  7  8  2  0  0  0
  7 26  1  0  0  0
  7 29  1  0  0  0
  8  9  1  0  0  0
  8 22  1  0  0  0
  9 10  1  0  0  0
  9 27  2  0  0  0
 10 11  2  0  0  0
 10 15  1  0  0  0
 11 12  1  0  0  0
 11 95  1  0  0  0
 12 13  2  0  0  0
 12 96  1  0  0  0
 13 14  1  0  0  0
 13 31  1  0  0  0
 14 15  2  0  0  0
 14 97  1  0  0  0
 15 98  1  0  0  0
 16 17  2  0  0  0
 16 21  1  0  0  0
 16 31  1  0  0  0
 17 18  1  0  0  0
 17 99  1  0  0  0
 18 19  2  0  0  0
 18100  1  0  0  0
 19 20  1  0  0  0
 19 24  1  0  0  0
 20 21  2  0  0  0
 20101  1  0  0  0
 21 23  1  0  0  0
 22 28  1  0  0  0
 22 32  2  0  0  0
 26 27  1  0  0  0
 28102  1  0  0  0
 28103  1  0  0  0
 29104  1  0  0  0
 29105  1  0  0  0
 33 34  1  0  0  0
 33 66  1  0  0  0
 33 70  2  0  0  0
 34 36  1  0  0  0
 34 59  1  0  0  0
 34106  1  0  0  0
 35 44  2  0  0  0
 35 45  1  0  0  0
 35 68  1  0  0  0
 36 56  1  0  0  0
 36107  1  0  0  0
 37 39  1  0  0  0
 37 47  1  0  0  0
 37 66  1  0  0  0
 37108  1  0  0  0
 38 43  2  0  0  0
 38 46  1  0  0  0
 38 47  1  0  0  0
 39 64  1  0  0  0
 39 67  2  0  0  0
 40 52  1  0  0  0
 40 53  2  0  0  0
 40 58  1  0  0  0
 41109  1  0  0  0
 41110  1  0  0  0
 41111  1  0  0  0
 41 48  1  0  0  0
 42 43  1  0  0  0
 42 66  1  0  0  0
 42112  1  0  0  0
 42113  1  0  0  0
 43 44  1  0  0  0
 44114  1  0  0  0
 45 46  2  0  0  0
 45115  1  0  0  0
 46116  1  0  0  0
 47117  1  0  0  0
 47118  1  0  0  0
 48 56  1  0  0  0
 48 65  1  0  0  0
 48119  1  0  0  0
 49 50  1  0  0  0
 49 53  1  0  0  0
 49 64  1  0  0  0
 49120  1  0  0  0
 50 51  1  0  0  0
 50121  1  0  0  0
 50122  1  0  0  0
 51 52  1  0  0  0
 51123  1  0  0  0
 51124  1  0  0  0
 52125  1  0  0  0
 52126  1  0  0  0
 53 54  1  0  0  0
 54 55  2  0  0  0
 54127  1  0  0  0
 55 57  1  0  0  0
 55128  1  0  0  0
 56 69  2  0  0  0
 57 58  2  0  0  0
 57129  1  0  0  0
 58130  1  0  0  0
 59 60  1  0  0  0
 59 61  1  0  0  0
 59 62  1  0  0  0
 60131  1  0  0  0
 60132  1  0  0  0
 60133  1  0  0  0
 61134  1  0  0  0
 61135  1  0  0  0
 61136  1  0  0  0
 62137  1  0  0  0
 62138  1  0  0  0
 62139  1  0  0  0
 63 65  1  0  0  0
 63140  1  0  0  0
 63141  1  0  0  0
 63142  1  0  0  0
 64143  1  0  0  0
 65144  1  0  0  0
 68 81  1  0  0  0
 71 72  2  0  0  0
 71 75  1  0  0  0
 71145  1  0  0  0
 72 76  1  0  0  0
 72146  1  0  0  0
 73 74  1  0  0  0
 73 75  2  0  0  0
 73147  1  0  0  0
 74 76  2  0  0  0
 74 79  1  0  0  0
 75 82  1  0  0  0
 76 85  1  0  0  0
 77 80  1  0  0  0
 77 83  1  0  0  0
 77 84  2  0  0  0
 78 83  1  0  0  0
 78148  1  0  0  0
 78149  1  0  0  0
 78150  1  0  0  0
 79 83  1  0  0  0
 79151  1  0  0  0
 79152  1  0  0  0
 80 81  1  0  0  0
 80153  1  0  0  0
 80154  1  0  0  0
 81155  1  0  0  0
 81156  1  0  0  0
 82157  1  0  0  0
M  ISO  4   1 100  68 101  81 101  82 100
M  END
> <chiral flag>
0

> <version>
0

> <s_m_source_file>
/data/baiqing/PycharmProjects/Reinvent-master-3.2/result/LINK_invent/BTK/process_docking_weight1_custom_product_contain_oxygen_bond_distance_aromatic_linkinvent_7_9_3/rearranged_h_0053.sdf

> <i_m_source_file_index>
23

> <r_mmod_Potential_Energy-OPLS-2005>
-33.269359588623

> <r_mmod_Stretch_Energy-OPLS-2005>
41.7006950378418

> <r_mmod_Bend_Energy-OPLS-2005>
105.262626647949

> <r_mmod_Torsional_Energy-OPLS-2005>
240.371978759766

> <r_mmod_Improper_Torsional_Energy-OPLS-2005>
5.64067125320435

> <r_mmod_Van_der_Waal_Energy-OPLS-2005>
182.408813476562

> <r_mmod_Electrostatic_Energy-OPLS-2005>
-401.148040771484

> <r_mmod_Solvation_Energy-OPLS-2005>
-227.33561706543

> <b_mmod_Minimization_Converged-OPLS-2005>
0

> <r_mmod_RMS_Derivative-OPLS-2005>
3.20526146888733

$$$$
23
                    3D
 Structure written by MMmdl.
163171  0  0  1  0            999 V2000
  -30.6791  -14.4619   20.5254 C   0  0  0  0  0  0
  -30.4301  -12.2877   19.4092 C   0  0  0  0  0  0
  -29.4953  -12.5053   18.2006 C   0  0  0  0  0  0
  -28.0146  -12.3678   18.6127 C   0  0  0  0  0  0
  -27.6667  -13.1931   19.8844 C   0  0  2  0  0  0
  -28.7150  -12.9527   20.9956 C   0  0  0  0  0  0
  -25.2617  -13.8121   20.5695 C   0  0  0  0  0  0
  -24.1838  -13.0431   20.9196 C   0  0  0  0  0  0
  -24.6361  -11.6883   20.8798 C   0  0  0  0  0  0
  -23.9017  -10.4295   21.0510 C   0  0  0  0  0  0
  -24.3588   -9.4205   21.9268 C   0  0  0  0  0  0
  -23.6282   -8.2214   22.0802 C   0  0  0  0  0  0
  -22.4270   -8.0252   21.3574 C   0  0  0  0  0  0
  -21.9898   -9.0225   20.4694 C   0  0  0  0  0  0
  -22.7209  -10.2124   20.3136 C   0  0  0  0  0  0
  -21.6838   -6.0696   22.5264 C   0  0  0  0  0  0
  -21.3997   -6.5591   23.8194 C   0  0  0  0  0  0
  -21.3682   -5.6757   24.9165 C   0  0  0  0  0  0
  -21.6050   -4.3016   24.7227 C   0  0  0  0  0  0
  -21.8833   -3.8100   23.4345 C   0  0  0  0  0  0
  -21.9182   -4.6918   22.3394 C   0  0  0  0  0  0
  -22.7857  -13.5251   21.1825 C   0  0  0  0  0  0
  -22.1660   -4.2100   21.0966 F   0  0  0  0  0  0
  -21.5682   -3.4517   25.7735 F   0  0  0  0  0  0
  -30.0455  -13.2614   20.4439 N   0  0  0  0  0  0
  -26.3047  -12.9254   20.3426 N   0  0  0  0  0  0
  -25.9282  -11.6431   20.5815 N   0  0  0  0  0  0
  -22.0477  -12.8294   22.0426 N   0  0  0  0  0  0
  -25.4371  -15.1835   20.4147 N   0  0  0  0  0  0
  -31.8207  -14.6536   20.0935 O   0  0  0  0  0  0
  -21.6645   -6.8838   21.4215 O   0  0  0  0  0  0
  -22.3525  -14.5533   20.6641 O   0  0  0  0  0  0
  -24.6182  -31.8671   23.2108 C   0  0  0  0  0  0
  -25.9056  -32.4815   23.8392 C   0  0  1  0  0  0
  -27.2369  -27.4236   20.0747 C   0  0  0  0  0  0
  -25.5885  -33.8601   24.2332 N   0  0  0  0  0  0
  -23.4067  -30.4884   21.5558 C   0  0  2  0  0  0
  -24.8494  -28.9541   20.1229 C   0  0  0  0  0  0
  -22.7413  -29.4637   22.5038 C   0  0  0  0  0  0
  -18.0231  -28.1370   22.8488 C   0  0  0  0  0  0
  -24.1501  -36.7329   23.2633 C   0  0  0  0  0  0
  -25.9366  -30.8282   21.3634 C   0  0  0  0  0  0
  -26.0133  -29.4598   20.7143 C   0  0  0  0  0  0
  -27.2077  -28.7002   20.6897 C   0  0  0  0  0  0
  -26.0514  -26.9426   19.4725 C   0  0  0  0  0  0
  -24.8631  -27.6929   19.5058 C   0  0  0  0  0  0
  -23.6155  -29.8219   20.1732 C   0  0  0  0  0  0
  -25.4105  -36.3094   24.0342 C   0  0  1  0  0  0
  -20.5835  -28.3653   23.1350 C   0  0  2  0  0  0
  -20.6743  -26.9395   22.5440 C   0  0  0  0  0  0
  -19.5726  -26.6396   21.5224 C   0  0  0  0  0  0
  -18.1895  -26.7924   22.1624 C   0  0  0  0  0  0
  -19.1479  -28.8821   23.2919 C   0  0  0  0  0  0
  -18.9409  -30.1424   23.8946 C   0  0  0  0  0  0
  -17.6410  -30.6587   24.0552 C   0  0  0  0  0  0
  -25.9031  -34.9454   23.5132 C   0  0  0  0  0  0
  -16.5298  -29.9099   23.6317 C   0  0  0  0  0  0
  -16.7217  -28.6509   23.0350 C   0  0  0  0  0  0
  -26.4487  -31.6574   25.0699 C   0  0  0  0  0  0
  -25.3744  -31.3679   26.1443 C   0  0  0  0  0  0
  -27.0321  -30.3012   24.6071 C   0  0  0  0  0  0
  -27.6085  -32.4263   25.7451 C   0  0  0  0  0  0
  -27.5587  -37.1810   24.8461 C   0  0  0  0  0  0
  -21.4136  -29.3020   22.3777 N   0  0  0  0  0  0
  -26.4295  -37.3783   23.9409 N   0  0  0  0  0  0
  -24.6733  -31.0754   22.1010 N   0  0  0  0  0  0
  -23.4178  -28.8145   23.3055 O   0  0  0  0  0  0
  -28.4176  -26.7002   20.0369 O   0  0  0  0  0  0
  -26.5598  -34.8920   22.4700 O   0  0  0  0  0  0
  -23.5367  -32.1394   23.7491 O   0  0  0  0  0  0
  -28.2721  -18.7327   20.0756 C   0  0  0  0  0  0
  -28.7492  -17.6345   20.8204 C   0  0  0  0  0  0
  -30.0399  -16.9129   18.8986 C   0  0  0  0  0  0
  -28.6290  -18.9066   18.7207 C   0  0  0  0  0  0
  -29.5762  -18.0167   18.1373 C   0  0  0  0  0  0
  -29.6019  -16.6800   20.2239 C   0  0  0  0  0  0
  -29.0734  -24.5730   18.8879 C   0  0  0  0  0  0
  -27.7821  -22.4045   18.3787 C   0  0  0  0  0  0
  -31.3436  -17.4367   16.3158 C   0  0  0  0  0  0
  -27.8604  -19.9549   17.9051 C   0  0  0  0  0  0
  -28.2091  -23.8029   17.8829 C   0  0  0  0  0  0
  -28.3528  -25.2535   20.0612 C   0  0  0  0  0  0
  -30.0495  -18.1898   16.6871 C   0  0  0  0  0  0
  -30.3319  -24.6661   18.7515 N   0  0  0  0  0  0
  -29.9110  -15.4841   20.9539 N   0  0  0  0  0  0
  -28.4092  -21.3185   17.8868 N   0  0  0  0  0  0
  -26.8146  -22.3097   19.1399 O   0  0  0  0  0  0
  -30.2872  -19.4808   16.4449 F   0  0  0  0  0  0
  -29.0824  -17.7739   15.8674 F   0  0  0  0  0  0
  -31.4734  -12.3960   19.1012 H   0  0  0  0  0  0
  -30.3369  -11.2682   19.7897 H   0  0  0  0  0  0
  -29.7311  -11.7879   17.4131 H   0  0  0  0  0  0
  -29.6623  -13.4964   17.7741 H   0  0  0  0  0  0
  -27.8173  -11.3089   18.7884 H   0  0  0  0  0  0
  -27.3681  -12.6576   17.7837 H   0  0  0  0  0  0
  -27.7169  -14.2457   19.6085 H   0  0  0  0  0  0
  -28.6885  -11.9123   21.3218 H   0  0  0  0  0  0
  -28.4941  -13.5375   21.8887 H   0  0  0  0  0  0
  -25.2744   -9.5655   22.4826 H   0  0  0  0  0  0
  -24.0019   -7.4553   22.7446 H   0  0  0  0  0  0
  -21.0855   -8.8680   19.8956 H   0  0  0  0  0  0
  -22.3662  -10.9646   19.6229 H   0  0  0  0  0  0
  -21.1974   -7.6096   23.9674 H   0  0  0  0  0  0
  -21.1534   -6.0508   25.9050 H   0  0  0  0  0  0
  -22.0615   -2.7556   23.2852 H   0  0  0  0  0  0
  -22.4044  -11.9960   22.4847 H   0  0  0  0  0  0
  -21.1098  -13.1341   22.2608 H   0  0  0  0  0  0
  -24.6815  -15.8459   20.5496 H   0  0  0  0  0  0
  -26.2983  -15.6250   20.1156 H   0  0  0  0  0  0
  -26.7105  -32.5536   23.1145 H   0  0  0  0  0  0
  -24.9963  -33.9780   25.0422 H   0  0  0  0  0  0
  -22.6946  -31.3037   21.4168 H   0  0  0  0  0  0
  -23.3752  -35.9680   23.3294 H   0  0  0  0  0  0
  -24.3612  -36.8937   22.2053 H   0  0  0  0  0  0
  -23.7292  -37.6545   23.6648 H   0  0  0  0  0  0
  -26.0360  -31.5899   20.5889 H   0  0  0  0  0  0
  -26.8309  -30.8945   21.9724 H   0  0  0  0  0  0
  -28.1071  -29.0916   21.1463 H   0  0  0  0  0  0
  -26.0297  -25.9977   18.9490 H   0  0  0  0  0  0
  -23.9698  -27.3024   19.0389 H   0  0  0  0  0  0
  -23.7204  -30.5976   19.4141 H   0  0  0  0  0  0
  -22.7451  -29.2353   19.8782 H   0  0  0  0  0  0
  -25.1290  -36.1960   25.0841 H   0  0  0  0  0  0
  -20.9847  -28.3202   24.1501 H   0  0  0  0  0  0
  -20.5644  -26.2252   23.3611 H   0  0  0  0  0  0
  -21.6619  -26.7452   22.1225 H   0  0  0  0  0  0
  -19.6903  -25.6326   21.1221 H   0  0  0  0  0  0
  -19.6685  -27.3240   20.6787 H   0  0  0  0  0  0
  -17.4169  -26.6622   21.4033 H   0  0  0  0  0  0
  -18.0289  -26.0080   22.9031 H   0  0  0  0  0  0
  -19.7880  -30.7191   24.2390 H   0  0  0  0  0  0
  -17.4977  -31.6279   24.5120 H   0  0  0  0  0  0
  -15.5311  -30.3004   23.7642 H   0  0  0  0  0  0
  -15.8612  -28.0835   22.7077 H   0  0  0  0  0  0
  -24.5924  -30.7031   25.7760 H   0  0  0  0  0  0
  -24.8927  -32.2836   26.4867 H   0  0  0  0  0  0
  -25.8079  -30.8842   27.0211 H   0  0  0  0  0  0
  -26.2870  -29.6787   24.1099 H   0  0  0  0  0  0
  -27.4071  -29.7235   25.4540 H   0  0  0  0  0  0
  -27.8727  -30.4343   23.9255 H   0  0  0  0  0  0
  -27.2711  -33.3545   26.2093 H   0  0  0  0  0  0
  -28.3859  -32.6827   25.0234 H   0  0  0  0  0  0
  -28.0809  -31.8333   26.5300 H   0  0  0  0  0  0
  -28.2572  -38.0129   24.7478 H   0  0  0  0  0  0
  -28.1091  -36.2640   24.6282 H   0  0  0  0  0  0
  -27.2311  -37.1481   25.8867 H   0  0  0  0  0  0
  -20.9296  -29.8767   21.7023 H   0  0  0  0  0  0
  -26.0185  -38.2867   24.1398 H   0  0  0  0  0  0
  -27.5725  -19.4212   20.5305 H   0  0  0  0  0  0
  -28.4166  -17.5080   21.8400 H   0  0  0  0  0  0
  -30.7011  -16.1980   18.4390 H   0  0  0  0  0  0
  -32.1791  -17.7202   16.9567 H   0  0  0  0  0  0
  -31.6353  -17.6545   15.2915 H   0  0  0  0  0  0
  -31.2239  -16.3546   16.3682 H   0  0  0  0  0  0
  -26.8291  -19.9611   18.2674 H   0  0  0  0  0  0
  -27.7590  -19.6156   16.8735 H   0  0  0  0  0  0
  -28.7247  -23.7229   16.9241 H   0  0  0  0  0  0
  -27.3068  -24.3821   17.6812 H   0  0  0  0  0  0
  -27.3477  -24.8520   20.1628 H   0  0  0  0  0  0
  -28.8567  -24.9260   20.9721 H   0  0  0  0  0  0
  -30.6709  -24.1727   17.9311 H   0  0  0  0  0  0
  -29.1876  -15.1945   21.5944 H   0  0  0  0  0  0
  -29.2124  -21.4587   17.2860 H   0  0  0  0  0  0
  1 25  1  0  0  0
  1 30  2  0  0  0
  1 85  1  0  0  0
  2  3  1  0  0  0
  2 25  1  0  0  0
  2 90  1  0  0  0
  2 91  1  0  0  0
  3  4  1  0  0  0
  3 92  1  0  0  0
  3 93  1  0  0  0
  4  5  1  0  0  0
  4 94  1  0  0  0
  4 95  1  0  0  0
  5  6  1  0  0  0
  5 26  1  0  0  0
  5 96  1  0  0  0
  6 25  1  0  0  0
  6 97  1  0  0  0
  6 98  1  0  0  0
  7  8  2  0  0  0
  7 26  1  0  0  0
  7 29  1  0  0  0
  8  9  1  0  0  0
  8 22  1  0  0  0
  9 10  1  0  0  0
  9 27  2  0  0  0
 10 11  2  0  0  0
 10 15  1  0  0  0
 11 12  1  0  0  0
 11 99  1  0  0  0
 12 13  2  0  0  0
 12100  1  0  0  0
 13 14  1  0  0  0
 13 31  1  0  0  0
 14 15  2  0  0  0
 14101  1  0  0  0
 15102  1  0  0  0
 16 17  2  0  0  0
 16 21  1  0  0  0
 16 31  1  0  0  0
 17 18  1  0  0  0
 17103  1  0  0  0
 18 19  2  0  0  0
 18104  1  0  0  0
 19 20  1  0  0  0
 19 24  1  0  0  0
 20 21  2  0  0  0
 20105  1  0  0  0
 21 23  1  0  0  0
 22 28  1  0  0  0
 22 32  2  0  0  0
 26 27  1  0  0  0
 28106  1  0  0  0
 28107  1  0  0  0
 29108  1  0  0  0
 29109  1  0  0  0
 33 34  1  0  0  0
 33 66  1  0  0  0
 33 70  2  0  0  0
 34 36  1  0  0  0
 34 59  1  0  0  0
 34110  1  0  0  0
 35 44  2  0  0  0
 35 45  1  0  0  0
 35 68  1  0  0  0
 36 56  1  0  0  0
 36111  1  0  0  0
 37 39  1  0  0  0
 37 47  1  0  0  0
 37 66  1  0  0  0
 37112  1  0  0  0
 38 43  2  0  0  0
 38 46  1  0  0  0
 38 47  1  0  0  0
 39 64  1  0  0  0
 39 67  2  0  0  0
 40 52  1  0  0  0
 40 53  2  0  0  0
 40 58  1  0  0  0
 41113  1  0  0  0
 41114  1  0  0  0
 41115  1  0  0  0
 41 48  1  0  0  0
 42 43  1  0  0  0
 42 66  1  0  0  0
 42116  1  0  0  0
 42117  1  0  0  0
 43 44  1  0  0  0
 44118  1  0  0  0
 45 46  2  0  0  0
 45119  1  0  0  0
 46120  1  0  0  0
 47121  1  0  0  0
 47122  1  0  0  0
 48 56  1  0  0  0
 48 65  1  0  0  0
 48123  1  0  0  0
 49 50  1  0  0  0
 49 53  1  0  0  0
 49 64  1  0  0  0
 49124  1  0  0  0
 50 51  1  0  0  0
 50125  1  0  0  0
 50126  1  0  0  0
 51 52  1  0  0  0
 51127  1  0  0  0
 51128  1  0  0  0
 52129  1  0  0  0
 52130  1  0  0  0
 53 54  1  0  0  0
 54 55  2  0  0  0
 54131  1  0  0  0
 55 57  1  0  0  0
 55132  1  0  0  0
 56 69  2  0  0  0
 57 58  2  0  0  0
 57133  1  0  0  0
 58134  1  0  0  0
 59 60  1  0  0  0
 59 61  1  0  0  0
 59 62  1  0  0  0
 60135  1  0  0  0
 60136  1  0  0  0
 60137  1  0  0  0
 61138  1  0  0  0
 61139  1  0  0  0
 61140  1  0  0  0
 62141  1  0  0  0
 62142  1  0  0  0
 62143  1  0  0  0
 63 65  1  0  0  0
 63144  1  0  0  0
 63145  1  0  0  0
 63146  1  0  0  0
 64147  1  0  0  0
 65148  1  0  0  0
 68 82  1  0  0  0
 71 72  2  0  0  0
 71 74  1  0  0  0
 71149  1  0  0  0
 72 76  1  0  0  0
 72150  1  0  0  0
 73 75  1  0  0  0
 73 76  2  0  0  0
 73151  1  0  0  0
 74 75  2  0  0  0
 74 80  1  0  0  0
 75 83  1  0  0  0
 76 85  1  0  0  0
 77 81  1  0  0  0
 77 82  1  0  0  0
 77 84  2  0  0  0
 78 81  1  0  0  0
 78 86  1  0  0  0
 78 87  2  0  0  0
 79152  1  0  0  0
 79153  1  0  0  0
 79154  1  0  0  0
 79 83  1  0  0  0
 80 86  1  0  0  0
 80155  1  0  0  0
 80156  1  0  0  0
 81157  1  0  0  0
 81158  1  0  0  0
 82159  1  0  0  0
 82160  1  0  0  0
 83 88  1  0  0  0
 83 89  1  0  0  0
 84161  1  0  0  0
 85162  1  0  0  0
 86163  1  0  0  0
M  ISO  4   1 100  68 101  82 101  85 100
M  END
> <chiral flag>
0

> <version>
0

> <s_m_source_file>
/data/baiqing/PycharmProjects/Reinvent-master-3.2/result/LINK_invent/BTK/process_docking_weight1_custom_product_contain_oxygen_bond_distance_aromatic_linkinvent_7_9_3/rearranged_h_0053.sdf

> <i_m_source_file_index>
24

> <r_mmod_Potential_Energy-OPLS-2005>
-102.622489929199

> <r_mmod_Stretch_Energy-OPLS-2005>
42.868766784668

> <r_mmod_Bend_Energy-OPLS-2005>
106.139556884766

> <r_mmod_Torsional_Energy-OPLS-2005>
251.140960693359

> <r_mmod_Improper_Torsional_Energy-OPLS-2005>
8.25131797790527

> <r_mmod_Van_der_Waal_Energy-OPLS-2005>
155.401931762695

> <r_mmod_Electrostatic_Energy-OPLS-2005>
-439.374633789062

> <r_mmod_Solvation_Energy-OPLS-2005>
-240.07893371582

> <b_mmod_Minimization_Converged-OPLS-2005>
0

> <r_mmod_RMS_Derivative-OPLS-2005>
4.18668365478516

$$$$
24
                    3D
 Structure written by MMmdl.
162171  0  0  1  0            999 V2000
  -30.5822  -14.8870   20.3953 C   0  0  0  0  0  0
  -30.4313  -12.5392   19.4962 C   0  0  0  0  0  0
  -29.5240  -12.5418   18.2460 C   0  0  0  0  0  0
  -28.0517  -12.3408   18.6595 C   0  0  0  0  0  0
  -27.6360  -13.2513   19.8459 C   0  0  2  0  0  0
  -28.6807  -13.2563   20.9826 C   0  0  0  0  0  0
  -25.2489  -13.8235   20.5770 C   0  0  0  0  0  0
  -24.1798  -13.0457   20.9250 C   0  0  0  0  0  0
  -24.6411  -11.6950   20.8753 C   0  0  0  0  0  0
  -23.9075  -10.4317   21.0411 C   0  0  0  0  0  0
  -24.3612   -9.4226   21.9194 C   0  0  0  0  0  0
  -23.6290   -8.2268   22.0762 C   0  0  0  0  0  0
  -22.4260   -8.0316   21.3558 C   0  0  0  0  0  0
  -21.9894   -9.0289   20.4663 C   0  0  0  0  0  0
  -22.7239  -10.2158   20.3072 C   0  0  0  0  0  0
  -21.6870   -6.0744   22.5291 C   0  0  0  0  0  0
  -21.4023   -6.5639   23.8224 C   0  0  0  0  0  0
  -21.3650   -5.6791   24.9180 C   0  0  0  0  0  0
  -21.6059   -4.3062   24.7221 C   0  0  0  0  0  0
  -21.8814   -3.8140   23.4341 C   0  0  0  0  0  0
  -21.9184   -4.6969   22.3399 C   0  0  0  0  0  0
  -22.7812  -13.5250   21.1902 C   0  0  0  0  0  0
  -22.1663   -4.2163   21.0981 F   0  0  0  0  0  0
  -21.5597   -3.4542   25.7715 F   0  0  0  0  0  0
  -29.9669  -13.6403   20.3865 N   0  0  0  0  0  0
  -26.2915  -12.9476   20.3278 N   0  0  0  0  0  0
  -25.9339  -11.6584   20.5716 N   0  0  0  0  0  0
  -22.0416  -12.8257   22.0441 N   0  0  0  0  0  0
  -25.4155  -15.1980   20.4233 N   0  0  0  0  0  0
  -31.7871  -14.9183   20.1217 O   0  0  0  0  0  0
  -21.6641   -6.8899   21.4256 O   0  0  0  0  0  0
  -22.3533  -14.5576   20.6765 O   0  0  0  0  0  0
  -24.6438  -31.8427   23.1858 C   0  0  0  0  0  0
  -25.9212  -32.4681   23.8255 C   0  0  1  0  0  0
  -27.2423  -27.1624   20.1367 C   0  0  0  0  0  0
  -25.5952  -33.8488   24.2193 N   0  0  0  0  0  0
  -23.4462  -30.4595   21.5310 C   0  0  2  0  0  0
  -24.8973  -28.8773   20.1164 C   0  0  0  0  0  0
  -22.7547  -29.4556   22.4865 C   0  0  0  0  0  0
  -18.0304  -28.1371   22.8457 C   0  0  0  0  0  0
  -24.1485  -36.7248   23.2637 C   0  0  0  0  0  0
  -26.0005  -30.7262   21.3764 C   0  0  0  0  0  0
  -26.0767  -29.3371   20.7177 C   0  0  0  0  0  0
  -27.2493  -28.4986   20.7028 C   0  0  0  0  0  0
  -26.0326  -26.7855   19.5173 C   0  0  0  0  0  0
  -24.8871  -27.6120   19.5045 C   0  0  0  0  0  0
  -23.6717  -29.7762   20.1549 C   0  0  0  0  0  0
  -25.4111  -36.3017   24.0316 C   0  0  1  0  0  0
  -20.5916  -28.3713   23.1216 C   0  0  2  0  0  0
  -20.6794  -26.9407   22.5388 C   0  0  0  0  0  0
  -19.5770  -26.6361   21.5183 C   0  0  0  0  0  0
  -18.1951  -26.7909   22.1593 C   0  0  0  0  0  0
  -19.1557  -28.8854   23.2835 C   0  0  0  0  0  0
  -18.9486  -30.1443   23.8880 C   0  0  0  0  0  0
  -17.6481  -30.6566   24.0555 C   0  0  0  0  0  0
  -25.9067  -34.9396   23.5059 C   0  0  0  0  0  0
  -16.5369  -29.9059   23.6325 C   0  0  0  0  0  0
  -16.7288  -28.6471   23.0354 C   0  0  0  0  0  0
  -26.4523  -31.6549   25.0697 C   0  0  0  0  0  0
  -25.3721  -31.3735   26.1403 C   0  0  0  0  0  0
  -27.0385  -30.2945   24.6268 C   0  0  0  0  0  0
  -27.6050  -32.4306   25.7499 C   0  0  0  0  0  0
  -27.5573  -37.1772   24.8455 C   0  0  0  0  0  0
  -21.4248  -29.3053   22.3598 N   0  0  0  0  0  0
  -26.4261  -37.3738   23.9410 N   0  0  0  0  0  0
  -24.7167  -31.0297   22.0867 N   0  0  0  0  0  0
  -23.4192  -28.8107   23.3011 O   0  0  0  0  0  0
  -28.3430  -26.2403   20.1596 O   0  0  0  0  0  0
  -26.5655  -34.8895   22.4638 O   0  0  0  0  0  0
  -23.5565  -32.1289   23.7086 O   0  0  0  0  0  0
  -31.1478  -18.8678   18.2768 C   0  0  0  0  0  0
  -30.9425  -17.6409   18.9254 C   0  0  0  0  0  0
  -30.5284  -20.0694   18.6841 C   0  0  0  0  0  0
  -29.4578  -18.7938   20.4780 C   0  0  0  0  0  0
  -29.6695  -20.1196   19.8210 C   0  0  0  0  0  0
  -30.0798  -17.5106   20.0337 C   0  0  0  0  0  0
  -29.6295  -22.3797   21.0714 C   0  0  0  0  0  0
  -30.6416  -21.2915   16.5266 C   0  0  0  0  0  0
  -30.7930  -21.2605   17.8603 C   0  0  0  0  0  0
  -29.3801  -23.9731   21.0878 C   0  0  0  0  0  0
  -28.2133  -23.7955   18.9836 C   0  0  0  0  0  0
  -28.1258  -22.2027   19.2118 C   0  0  0  0  0  0
  -28.2194  -24.6924   20.2716 C   0  0  2  0  0  0
  -28.5338  -18.7317   21.6797 C   0  0  0  0  0  0
  -29.0983  -21.5167   20.1378 N   0  0  0  0  0  0
  -29.8391  -16.0885   20.5394 N   0  0  0  0  0  0
  -30.3763  -21.9426   21.9546 O   0  0  0  0  0  0
  -31.4772  -12.6540   19.2034 H   0  0  0  0  0  0
  -30.3687  -11.5797   20.0098 H   0  0  0  0  0  0
  -29.8267  -11.7556   17.5527 H   0  0  0  0  0  0
  -29.6392  -13.4830   17.7071 H   0  0  0  0  0  0
  -27.9345  -11.2934   18.9405 H   0  0  0  0  0  0
  -27.3963  -12.5079   17.8052 H   0  0  0  0  0  0
  -27.6085  -14.2622   19.4402 H   0  0  0  0  0  0
  -28.7538  -12.2754   21.4561 H   0  0  0  0  0  0
  -28.4004  -13.9599   21.7685 H   0  0  0  0  0  0
  -25.2746   -9.5690   22.4774 H   0  0  0  0  0  0
  -23.9998   -7.4640   22.7462 H   0  0  0  0  0  0
  -21.0822   -8.8801   19.8967 H   0  0  0  0  0  0
  -22.3700  -10.9686   19.6178 H   0  0  0  0  0  0
  -21.2054   -7.6150   23.9733 H   0  0  0  0  0  0
  -21.1469   -6.0517   25.9087 H   0  0  0  0  0  0
  -22.0593   -2.7605   23.2834 H   0  0  0  0  0  0
  -22.3999  -11.9922   22.4844 H   0  0  0  0  0  0
  -21.1045  -13.1346   22.2623 H   0  0  0  0  0  0
  -24.6468  -15.8464   20.5528 H   0  0  0  0  0  0
  -26.2577  -15.6426   20.0787 H   0  0  0  0  0  0
  -26.7289  -32.5285   23.0999 H   0  0  0  0  0  0
  -25.0123  -33.9594   25.0354 H   0  0  0  0  0  0
  -22.7509  -31.2860   21.3681 H   0  0  0  0  0  0
  -23.3749  -35.9575   23.3270 H   0  0  0  0  0  0
  -24.3591  -36.8910   22.2062 H   0  0  0  0  0  0
  -23.7245  -37.6431   23.6697 H   0  0  0  0  0  0
  -26.1549  -31.4811   20.6047 H   0  0  0  0  0  0
  -26.8725  -30.7778   22.0177 H   0  0  0  0  0  0
  -28.1560  -28.8544   21.1724 H   0  0  0  0  0  0
  -25.9642  -25.8169   19.0448 H   0  0  0  0  0  0
  -23.9852  -27.2495   19.0289 H   0  0  0  0  0  0
  -23.8068  -30.5432   19.3914 H   0  0  0  0  0  0
  -22.7885  -29.2123   19.8485 H   0  0  0  0  0  0
  -25.1298  -36.1834   25.0809 H   0  0  0  0  0  0
  -21.0023  -28.3310   24.1325 H   0  0  0  0  0  0
  -20.5635  -26.2333   23.3623 H   0  0  0  0  0  0
  -21.6669  -26.7382   22.1225 H   0  0  0  0  0  0
  -19.6940  -25.6249   21.1251 H   0  0  0  0  0  0
  -19.6707  -27.3142   20.6680 H   0  0  0  0  0  0
  -17.4219  -26.6652   21.4000 H   0  0  0  0  0  0
  -18.0351  -26.0033   22.8985 H   0  0  0  0  0  0
  -19.7962  -30.7253   24.2269 H   0  0  0  0  0  0
  -17.5030  -31.6256   24.5134 H   0  0  0  0  0  0
  -15.5371  -30.2965   23.7622 H   0  0  0  0  0  0
  -15.8691  -28.0759   22.7111 H   0  0  0  0  0  0
  -24.5882  -30.7097   25.7739 H   0  0  0  0  0  0
  -24.8923  -32.2914   26.4804 H   0  0  0  0  0  0
  -25.8011  -30.8926   27.0203 H   0  0  0  0  0  0
  -26.2996  -29.6668   24.1269 H   0  0  0  0  0  0
  -27.4004  -29.7242   25.4837 H   0  0  0  0  0  0
  -27.8899  -30.4189   23.9575 H   0  0  0  0  0  0
  -27.2627  -33.3615   26.2041 H   0  0  0  0  0  0
  -28.3882  -32.6857   25.0346 H   0  0  0  0  0  0
  -28.0688  -31.8451   26.5454 H   0  0  0  0  0  0
  -28.2552  -38.0101   24.7522 H   0  0  0  0  0  0
  -28.1102  -36.2635   24.6233 H   0  0  0  0  0  0
  -27.2310  -37.1371   25.8859 H   0  0  0  0  0  0
  -20.9454  -29.8777   21.6788 H   0  0  0  0  0  0
  -26.0130  -38.2796   24.1415 H   0  0  0  0  0  0
  -31.8084  -18.8806   17.4216 H   0  0  0  0  0  0
  -31.4422  -16.7799   18.5042 H   0  0  0  0  0  0
  -30.8536  -22.1870   15.9614 H   0  0  0  0  0  0
  -30.2906  -20.4278   15.9778 H   0  0  0  0  0  0
  -31.1431  -22.1459   18.3739 H   0  0  0  0  0  0
  -30.3169  -24.3958   20.7207 H   0  0  0  0  0  0
  -29.3203  -24.2885   22.1288 H   0  0  0  0  0  0
  -27.3873  -24.0967   18.3411 H   0  0  0  0  0  0
  -29.1134  -24.0125   18.4051 H   0  0  0  0  0  0
  -28.1752  -21.7208   18.2345 H   0  0  0  0  0  0
  -27.1288  -21.9645   19.5832 H   0  0  0  0  0  0
  -27.2872  -24.4967   20.8021 H   0  0  0  0  0  0
  -28.5723  -19.6517   22.2620 H   0  0  0  0  0  0
  -28.8179  -17.9162   22.3457 H   0  0  0  0  0  0
  -27.5077  -18.5611   21.3534 H   0  0  0  0  0  0
  -28.9079  -15.9366   20.8983 H   0  0  0  0  0  0
  1 25  1  0  0  0
  1 30  2  0  0  0
  1 86  1  0  0  0
  2  3  1  0  0  0
  2 25  1  0  0  0
  2 88  1  0  0  0
  2 89  1  0  0  0
  3  4  1  0  0  0
  3 90  1  0  0  0
  3 91  1  0  0  0
  4  5  1  0  0  0
  4 92  1  0  0  0
  4 93  1  0  0  0
  5  6  1  0  0  0
  5 26  1  0  0  0
  5 94  1  0  0  0
  6 25  1  0  0  0
  6 95  1  0  0  0
  6 96  1  0  0  0
  7  8  2  0  0  0
  7 26  1  0  0  0
  7 29  1  0  0  0
  8  9  1  0  0  0
  8 22  1  0  0  0
  9 10  1  0  0  0
  9 27  2  0  0  0
 10 11  2  0  0  0
 10 15  1  0  0  0
 11 12  1  0  0  0
 11 97  1  0  0  0
 12 13  2  0  0  0
 12 98  1  0  0  0
 13 14  1  0  0  0
 13 31  1  0  0  0
 14 15  2  0  0  0
 14 99  1  0  0  0
 15100  1  0  0  0
 16 17  2  0  0  0
 16 21  1  0  0  0
 16 31  1  0  0  0
 17 18  1  0  0  0
 17101  1  0  0  0
 18 19  2  0  0  0
 18102  1  0  0  0
 19 20  1  0  0  0
 19 24  1  0  0  0
 20 21  2  0  0  0
 20103  1  0  0  0
 21 23  1  0  0  0
 22 28  1  0  0  0
 22 32  2  0  0  0
 26 27  1  0  0  0
 28104  1  0  0  0
 28105  1  0  0  0
 29106  1  0  0  0
 29107  1  0  0  0
 33 34  1  0  0  0
 33 66  1  0  0  0
 33 70  2  0  0  0
 34 36  1  0  0  0
 34 59  1  0  0  0
 34108  1  0  0  0
 35 44  2  0  0  0
 35 45  1  0  0  0
 35 68  1  0  0  0
 36 56  1  0  0  0
 36109  1  0  0  0
 37 39  1  0  0  0
 37 47  1  0  0  0
 37 66  1  0  0  0
 37110  1  0  0  0
 38 43  2  0  0  0
 38 46  1  0  0  0
 38 47  1  0  0  0
 39 64  1  0  0  0
 39 67  2  0  0  0
 40 52  1  0  0  0
 40 53  2  0  0  0
 40 58  1  0  0  0
 41111  1  0  0  0
 41112  1  0  0  0
 41113  1  0  0  0
 41 48  1  0  0  0
 42 43  1  0  0  0
 42 66  1  0  0  0
 42114  1  0  0  0
 42115  1  0  0  0
 43 44  1  0  0  0
 44116  1  0  0  0
 45 46  2  0  0  0
 45117  1  0  0  0
 46118  1  0  0  0
 47119  1  0  0  0
 47120  1  0  0  0
 48 56  1  0  0  0
 48 65  1  0  0  0
 48121  1  0  0  0
 49 50  1  0  0  0
 49 53  1  0  0  0
 49 64  1  0  0  0
 49122  1  0  0  0
 50 51  1  0  0  0
 50123  1  0  0  0
 50124  1  0  0  0
 51 52  1  0  0  0
 51125  1  0  0  0
 51126  1  0  0  0
 52127  1  0  0  0
 52128  1  0  0  0
 53 54  1  0  0  0
 54 55  2  0  0  0
 54129  1  0  0  0
 55 57  1  0  0  0
 55130  1  0  0  0
 56 69  2  0  0  0
 57 58  2  0  0  0
 57131  1  0  0  0
 58132  1  0  0  0
 59 60  1  0  0  0
 59 61  1  0  0  0
 59 62  1  0  0  0
 60133  1  0  0  0
 60134  1  0  0  0
 60135  1  0  0  0
 61136  1  0  0  0
 61137  1  0  0  0
 61138  1  0  0  0
 62139  1  0  0  0
 62140  1  0  0  0
 62141  1  0  0  0
 63 65  1  0  0  0
 63142  1  0  0  0
 63143  1  0  0  0
 63144  1  0  0  0
 64145  1  0  0  0
 65146  1  0  0  0
 68 83  1  0  0  0
 71 72  2  0  0  0
 71 73  1  0  0  0
 71147  1  0  0  0
 72 76  1  0  0  0
 72148  1  0  0  0
 73 75  2  0  0  0
 73 79  1  0  0  0
 74 75  1  0  0  0
 74 76  2  0  0  0
 74 84  1  0  0  0
 75 85  1  0  0  0
 76 86  1  0  0  0
 77 80  1  0  0  0
 77 85  1  0  0  0
 77 87  2  0  0  0
 78 79  2  0  0  0
 78149  1  0  0  0
 78150  1  0  0  0
 79151  1  0  0  0
 80 83  1  0  0  0
 80152  1  0  0  0
 80153  1  0  0  0
 81 82  1  0  0  0
 81 83  1  0  0  0
 81154  1  0  0  0
 81155  1  0  0  0
 82 85  1  0  0  0
 82156  1  0  0  0
 82157  1  0  0  0
 83158  1  0  0  0
 84159  1  0  0  0
 84160  1  0  0  0
 84161  1  0  0  0
 86162  1  0  0  0
M  ISO  4   1 100  68 101  83 101  86 100
M  END
> <chiral flag>
0

> <version>
0

> <s_m_source_file>
/data/baiqing/PycharmProjects/Reinvent-master-3.2/result/LINK_invent/BTK/process_docking_weight1_custom_product_contain_oxygen_bond_distance_aromatic_linkinvent_7_9_3/rearranged_h_0053.sdf

> <i_m_source_file_index>
25

> <r_mmod_Potential_Energy-OPLS-2005>
472.8466796875

> <r_mmod_Stretch_Energy-OPLS-2005>
224.28271484375

> <r_mmod_Bend_Energy-OPLS-2005>
240.525634765625

> <r_mmod_Torsional_Energy-OPLS-2005>
325.331512451172

> <r_mmod_Improper_Torsional_Energy-OPLS-2005>
4.90537738800049

> <r_mmod_Van_der_Waal_Energy-OPLS-2005>
138.051040649414

> <r_mmod_Electrostatic_Energy-OPLS-2005>
-388.353851318359

> <r_mmod_Solvation_Energy-OPLS-2005>
-224.495697021484

> <b_mmod_Minimization_Converged-OPLS-2005>
0

> <r_mmod_RMS_Derivative-OPLS-2005>
4.31771039962769

$$$$
25
                    3D
 Structure written by MMmdl.
153161  0  0  1  0            999 V2000
  -30.6155  -14.6494   20.5057 C   0  0  0  0  0  0
  -30.4402  -12.3999   19.4532 C   0  0  0  0  0  0
  -29.5070  -12.5082   18.2255 C   0  0  0  0  0  0
  -28.0308  -12.3434   18.6385 C   0  0  0  0  0  0
  -27.6536  -13.2159   19.8648 C   0  0  2  0  0  0
  -28.6979  -13.0684   20.9946 C   0  0  0  0  0  0
  -25.2546  -13.8150   20.5643 C   0  0  0  0  0  0
  -24.1827  -13.0425   20.9191 C   0  0  0  0  0  0
  -24.6401  -11.6899   20.8753 C   0  0  0  0  0  0
  -23.9067  -10.4286   21.0417 C   0  0  0  0  0  0
  -24.3618   -9.4200   21.9190 C   0  0  0  0  0  0
  -23.6293   -8.2237   22.0754 C   0  0  0  0  0  0
  -22.4275   -8.0279   21.3545 C   0  0  0  0  0  0
  -21.9912   -9.0254   20.4648 C   0  0  0  0  0  0
  -22.7241  -10.2133   20.3064 C   0  0  0  0  0  0
  -21.6852   -6.0739   22.5280 C   0  0  0  0  0  0
  -21.4011   -6.5642   23.8213 C   0  0  0  0  0  0
  -21.3656   -5.6795   24.9175 C   0  0  0  0  0  0
  -21.6046   -4.3059   24.7225 C   0  0  0  0  0  0
  -21.8820   -3.8150   23.4346 C   0  0  0  0  0  0
  -21.9193   -4.6967   22.3404 C   0  0  0  0  0  0
  -22.7853  -13.5224   21.1854 C   0  0  0  0  0  0
  -22.1662   -4.2155   21.0980 F   0  0  0  0  0  0
  -21.5630   -3.4541   25.7736 F   0  0  0  0  0  0
  -30.0137  -13.4183   20.4345 N   0  0  0  0  0  0
  -26.2990  -12.9342   20.3321 N   0  0  0  0  0  0
  -25.9332  -11.6501   20.5780 N   0  0  0  0  0  0
  -22.0499  -12.8220   22.0416 N   0  0  0  0  0  0
  -25.4204  -15.1855   20.3947 N   0  0  0  0  0  0
  -31.7723  -14.8165   20.1069 O   0  0  0  0  0  0
  -21.6639   -6.8878   21.4241 O   0  0  0  0  0  0
  -22.3539  -14.5530   20.6702 O   0  0  0  0  0  0
  -24.6273  -31.8599   23.2026 C   0  0  0  0  0  0
  -25.9119  -32.4779   23.8358 C   0  0  1  0  0  0
  -27.2240  -27.3170   20.1138 C   0  0  0  0  0  0
  -25.5934  -33.8580   24.2288 N   0  0  0  0  0  0
  -23.4205  -30.4846   21.5459 C   0  0  2  0  0  0
  -24.8662  -28.9415   20.1111 C   0  0  0  0  0  0
  -22.7482  -29.4629   22.4938 C   0  0  0  0  0  0
  -18.0287  -28.1387   22.8482 C   0  0  0  0  0  0
  -24.1487  -36.7285   23.2642 C   0  0  0  0  0  0
  -25.9629  -30.7909   21.3734 C   0  0  0  0  0  0
  -26.0365  -29.4191   20.7138 C   0  0  0  0  0  0
  -27.2186  -28.6195   20.7042 C   0  0  0  0  0  0
  -26.0273  -26.8940   19.4890 C   0  0  0  0  0  0
  -24.8642  -27.6846   19.4896 C   0  0  0  0  0  0
  -23.6341  -29.8205   20.1611 C   0  0  0  0  0  0
  -25.4110  -36.3081   24.0334 C   0  0  1  0  0  0
  -20.5890  -28.3685   23.1280 C   0  0  2  0  0  0
  -20.6779  -26.9408   22.5406 C   0  0  0  0  0  0
  -19.5752  -26.6380   21.5212 C   0  0  0  0  0  0
  -18.1930  -26.7928   22.1619 C   0  0  0  0  0  0
  -19.1542  -28.8851   23.2879 C   0  0  0  0  0  0
  -18.9466  -30.1452   23.8895 C   0  0  0  0  0  0
  -17.6469  -30.6589   24.0559 C   0  0  0  0  0  0
  -25.9049  -34.9454   23.5109 C   0  0  0  0  0  0
  -16.5356  -29.9087   23.6336 C   0  0  0  0  0  0
  -16.7275  -28.6506   23.0352 C   0  0  0  0  0  0
  -26.4505  -31.6592   25.0729 C   0  0  0  0  0  0
  -25.3743  -31.3731   26.1458 C   0  0  0  0  0  0
  -27.0349  -30.3020   24.6173 C   0  0  0  0  0  0
  -27.6067  -32.4322   25.7498 C   0  0  0  0  0  0
  -27.5575  -37.1795   24.8468 C   0  0  0  0  0  0
  -21.4194  -29.3041   22.3676 N   0  0  0  0  0  0
  -26.4285  -37.3778   23.9414 N   0  0  0  0  0  0
  -24.6894  -31.0614   22.0975 N   0  0  0  0  0  0
  -23.4207  -28.8175   23.3021 O   0  0  0  0  0  0
  -28.3414  -26.4647   20.1616 O   0  0  0  0  0  0
  -26.5607  -34.8919   22.4669 O   0  0  0  0  0  0
  -23.5435  -32.1387   23.7353 O   0  0  0  0  0  0
  -30.8624  -19.2822   19.9733 C   0  0  0  0  0  0
  -30.8933  -17.8607   20.1109 C   0  0  0  0  0  0
  -28.7498  -19.3716   21.0895 C   0  0  0  0  0  0
  -29.7931  -20.0904   20.4527 C   0  0  0  0  0  0
  -28.7723  -17.9487   21.2487 C   0  0  0  0  0  0
  -29.8494  -17.1439   20.7547 C   0  0  0  0  0  0
  -29.8395  -21.6230   20.3079 C   0  0  0  0  0  0
  -27.5931  -17.3264   21.9831 C   0  0  0  0  0  0
  -29.2970  -23.9904   20.3832 C   0  0  0  0  0  0
  -28.1054  -25.0010   20.0793 C   0  0  0  0  0  0
  -28.9232  -22.5322   20.4870 N   0  0  0  0  0  0
  -29.8078  -15.6830   20.9098 N   0  0  0  0  0  0
  -31.4800  -12.5307   19.1490 H   0  0  0  0  0  0
  -30.3819  -11.4033   19.8940 H   0  0  0  0  0  0
  -29.7714  -11.7533   17.4837 H   0  0  0  0  0  0
  -29.6457  -13.4756   17.7401 H   0  0  0  0  0  0
  -27.8711  -11.2905   18.8737 H   0  0  0  0  0  0
  -27.3738  -12.5680   17.7972 H   0  0  0  0  0  0
  -27.6726  -14.2515   19.5244 H   0  0  0  0  0  0
  -28.7120  -12.0442   21.3705 H   0  0  0  0  0  0
  -28.4383  -13.6917   21.8514 H   0  0  0  0  0  0
  -25.2763   -9.5679   22.4764 H   0  0  0  0  0  0
  -24.0008   -7.4628   22.7469 H   0  0  0  0  0  0
  -21.0844   -8.8774   19.8950 H   0  0  0  0  0  0
  -22.3699  -10.9678   19.6179 H   0  0  0  0  0  0
  -21.1999   -7.6150   23.9718 H   0  0  0  0  0  0
  -21.1476   -6.0524   25.9078 H   0  0  0  0  0  0
  -22.0599   -2.7613   23.2845 H   0  0  0  0  0  0
  -22.4118  -11.9887   22.4812 H   0  0  0  0  0  0
  -21.1121  -13.1253   22.2627 H   0  0  0  0  0  0
  -24.6391  -15.8268   20.4715 H   0  0  0  0  0  0
  -26.2501  -15.6164   20.0082 H   0  0  0  0  0  0
  -26.7188  -32.5447   23.1108 H   0  0  0  0  0  0
  -25.0115  -33.9727   25.0456 H   0  0  0  0  0  0
  -22.7145  -31.3057   21.4038 H   0  0  0  0  0  0
  -23.3754  -35.9614   23.3308 H   0  0  0  0  0  0
  -24.3582  -36.8896   22.2056 H   0  0  0  0  0  0
  -23.7236  -37.6487   23.6657 H   0  0  0  0  0  0
  -26.0946  -31.5554   20.6063 H   0  0  0  0  0  0
  -26.8436  -30.8381   22.0027 H   0  0  0  0  0  0
  -28.1158  -28.9828   21.1851 H   0  0  0  0  0  0
  -25.9570  -25.9352   18.9988 H   0  0  0  0  0  0
  -23.9683  -27.3116   19.0136 H   0  0  0  0  0  0
  -23.7513  -30.5972   19.4046 H   0  0  0  0  0  0
  -22.7543  -29.2494   19.8592 H   0  0  0  0  0  0
  -25.1294  -36.1933   25.0830 H   0  0  0  0  0  0
  -20.9975  -28.3250   24.1402 H   0  0  0  0  0  0
  -20.5682  -26.2295   23.3604 H   0  0  0  0  0  0
  -21.6647  -26.7439   22.1196 H   0  0  0  0  0  0
  -19.6919  -25.6294   21.1235 H   0  0  0  0  0  0
  -19.6695  -27.3194   20.6746 H   0  0  0  0  0  0
  -17.4204  -26.6677   21.4016 H   0  0  0  0  0  0
  -18.0324  -26.0075   22.9018 H   0  0  0  0  0  0
  -19.7950  -30.7263   24.2261 H   0  0  0  0  0  0
  -17.5031  -31.6270   24.5156 H   0  0  0  0  0  0
  -15.5358  -30.2989   23.7670 H   0  0  0  0  0  0
  -15.8672  -28.0824   22.7070 H   0  0  0  0  0  0
  -24.5921  -30.7074   25.7794 H   0  0  0  0  0  0
  -24.8933  -32.2900   26.4873 H   0  0  0  0  0  0
  -25.8070  -30.8923   27.0239 H   0  0  0  0  0  0
  -26.2919  -29.6764   24.1210 H   0  0  0  0  0  0
  -27.4082  -29.7281   25.4665 H   0  0  0  0  0  0
  -27.8775  -30.4327   23.9377 H   0  0  0  0  0  0
  -27.2687  -33.3629   26.2066 H   0  0  0  0  0  0
  -28.3881  -32.6861   25.0324 H   0  0  0  0  0  0
  -28.0730  -31.8451   26.5419 H   0  0  0  0  0  0
  -28.2595  -38.0089   24.7507 H   0  0  0  0  0  0
  -28.1067  -36.2618   24.6302 H   0  0  0  0  0  0
  -27.2294  -37.1451   25.8872 H   0  0  0  0  0  0
  -20.9370  -29.8764   21.6886 H   0  0  0  0  0  0
  -26.0167  -38.2854   24.1419 H   0  0  0  0  0  0
  -31.6953  -19.7627   19.4793 H   0  0  0  0  0  0
  -31.7433  -17.3301   19.7067 H   0  0  0  0  0  0
  -27.9137  -19.9316   21.4862 H   0  0  0  0  0  0
  -30.8347  -21.9734   20.0170 H   0  0  0  0  0  0
  -27.5301  -17.7293   22.9942 H   0  0  0  0  0  0
  -27.6410  -16.2425   22.0693 H   0  0  0  0  0  0
  -26.6641  -17.5746   21.4700 H   0  0  0  0  0  0
  -29.7501  -24.2981   21.3269 H   0  0  0  0  0  0
  -30.0700  -24.1408   19.6266 H   0  0  0  0  0  0
  -27.2857  -24.7580   20.7572 H   0  0  0  0  0  0
  -27.7568  -24.7674   19.0730 H   0  0  0  0  0  0
  -28.9367  -15.3434   21.2851 H   0  0  0  0  0  0
  1 25  1  0  0  0
  1 30  2  0  0  0
  1 82  1  0  0  0
  2  3  1  0  0  0
  2 25  1  0  0  0
  2 83  1  0  0  0
  2 84  1  0  0  0
  3  4  1  0  0  0
  3 85  1  0  0  0
  3 86  1  0  0  0
  4  5  1  0  0  0
  4 87  1  0  0  0
  4 88  1  0  0  0
  5  6  1  0  0  0
  5 26  1  0  0  0
  5 89  1  0  0  0
  6 25  1  0  0  0
  6 90  1  0  0  0
  6 91  1  0  0  0
  7  8  2  0  0  0
  7 26  1  0  0  0
  7 29  1  0  0  0
  8  9  1  0  0  0
  8 22  1  0  0  0
  9 10  1  0  0  0
  9 27  2  0  0  0
 10 11  2  0  0  0
 10 15  1  0  0  0
 11 12  1  0  0  0
 11 92  1  0  0  0
 12 13  2  0  0  0
 12 93  1  0  0  0
 13 14  1  0  0  0
 13 31  1  0  0  0
 14 15  2  0  0  0
 14 94  1  0  0  0
 15 95  1  0  0  0
 16 17  2  0  0  0
 16 21  1  0  0  0
 16 31  1  0  0  0
 17 18  1  0  0  0
 17 96  1  0  0  0
 18 19  2  0  0  0
 18 97  1  0  0  0
 19 20  1  0  0  0
 19 24  1  0  0  0
 20 21  2  0  0  0
 20 98  1  0  0  0
 21 23  1  0  0  0
 22 28  1  0  0  0
 22 32  2  0  0  0
 26 27  1  0  0  0
 28 99  1  0  0  0
 28100  1  0  0  0
 29101  1  0  0  0
 29102  1  0  0  0
 33 34  1  0  0  0
 33 66  1  0  0  0
 33 70  2  0  0  0
 34 36  1  0  0  0
 34 59  1  0  0  0
 34103  1  0  0  0
 35 44  2  0  0  0
 35 45  1  0  0  0
 35 68  1  0  0  0
 36 56  1  0  0  0
 36104  1  0  0  0
 37 39  1  0  0  0
 37 47  1  0  0  0
 37 66  1  0  0  0
 37105  1  0  0  0
 38 43  2  0  0  0
 38 46  1  0  0  0
 38 47  1  0  0  0
 39 64  1  0  0  0
 39 67  2  0  0  0
 40 52  1  0  0  0
 40 53  2  0  0  0
 40 58  1  0  0  0
 41106  1  0  0  0
 41107  1  0  0  0
 41108  1  0  0  0
 41 48  1  0  0  0
 42 43  1  0  0  0
 42 66  1  0  0  0
 42109  1  0  0  0
 42110  1  0  0  0
 43 44  1  0  0  0
 44111  1  0  0  0
 45 46  2  0  0  0
 45112  1  0  0  0
 46113  1  0  0  0
 47114  1  0  0  0
 47115  1  0  0  0
 48 56  1  0  0  0
 48 65  1  0  0  0
 48116  1  0  0  0
 49 50  1  0  0  0
 49 53  1  0  0  0
 49 64  1  0  0  0
 49117  1  0  0  0
 50 51  1  0  0  0
 50118  1  0  0  0
 50119  1  0  0  0
 51 52  1  0  0  0
 51120  1  0  0  0
 51121  1  0  0  0
 52122  1  0  0  0
 52123  1  0  0  0
 53 54  1  0  0  0
 54 55  2  0  0  0
 54124  1  0  0  0
 55 57  1  0  0  0
 55125  1  0  0  0
 56 69  2  0  0  0
 57 58  2  0  0  0
 57126  1  0  0  0
 58127  1  0  0  0
 59 60  1  0  0  0
 59 61  1  0  0  0
 59 62  1  0  0  0
 60128  1  0  0  0
 60129  1  0  0  0
 60130  1  0  0  0
 61131  1  0  0  0
 61132  1  0  0  0
 61133  1  0  0  0
 62134  1  0  0  0
 62135  1  0  0  0
 62136  1  0  0  0
 63 65  1  0  0  0
 63137  1  0  0  0
 63138  1  0  0  0
 63139  1  0  0  0
 64140  1  0  0  0
 65141  1  0  0  0
 68 80  1  0  0  0
 71 72  2  0  0  0
 71 74  1  0  0  0
 71142  1  0  0  0
 72 76  1  0  0  0
 72143  1  0  0  0
 73 74  2  0  0  0
 73 75  1  0  0  0
 73144  1  0  0  0
 74 77  1  0  0  0
 75 76  2  0  0  0
 75 78  1  0  0  0
 76 82  1  0  0  0
 77 81  2  0  0  0
 77145  1  0  0  0
 78146  1  0  0  0
 78147  1  0  0  0
 78148  1  0  0  0
 79 80  1  0  0  0
 79 81  1  0  0  0
 79149  1  0  0  0
 79150  1  0  0  0
 80151  1  0  0  0
 80152  1  0  0  0
 82153  1  0  0  0
M  ISO  4   1 100  68 101  80 101  82 100
M  END
> <chiral flag>
0

> <version>
0

> <s_m_source_file>
/data/baiqing/PycharmProjects/Reinvent-master-3.2/result/LINK_invent/BTK/process_docking_weight1_custom_product_contain_oxygen_bond_distance_aromatic_linkinvent_7_9_3/rearranged_h_0053.sdf

> <i_m_source_file_index>
26

> <r_mmod_Potential_Energy-OPLS-2005>
59.4139137268066

> <r_mmod_Stretch_Energy-OPLS-2005>
85.7764587402344

> <r_mmod_Bend_Energy-OPLS-2005>
137.054000854492

> <r_mmod_Torsional_Energy-OPLS-2005>
210.257217407227

> <r_mmod_Improper_Torsional_Energy-OPLS-2005>
3.87988662719727

> <r_mmod_Van_der_Waal_Energy-OPLS-2005>
147.322570800781

> <r_mmod_Electrostatic_Energy-OPLS-2005>
-359.451507568359

> <r_mmod_Solvation_Energy-OPLS-2005>
-215.646453857422

> <b_mmod_Minimization_Converged-OPLS-2005>
0

> <r_mmod_RMS_Derivative-OPLS-2005>
0.8565593957901

$$$$
26
                    3D
 Structure written by MMmdl.
164172  0  0  1  0            999 V2000
  -30.6715  -14.5568   20.5569 C   0  0  0  0  0  0
  -30.4358  -12.3716   19.4079 C   0  0  0  0  0  0
  -29.4951  -12.5166   18.1925 C   0  0  0  0  0  0
  -28.0212  -12.3674   18.6245 C   0  0  0  0  0  0
  -27.6576  -13.2218   19.8681 C   0  0  2  0  0  0
  -28.7073  -13.0398   20.9811 C   0  0  0  0  0  0
  -25.2552  -13.8224   20.5677 C   0  0  0  0  0  0
  -24.1837  -13.0449   20.9207 C   0  0  0  0  0  0
  -24.6437  -11.6917   20.8777 C   0  0  0  0  0  0
  -23.9126  -10.4257   21.0436 C   0  0  0  0  0  0
  -24.3661   -9.4163   21.9210 C   0  0  0  0  0  0
  -23.6286   -8.2203   22.0778 C   0  0  0  0  0  0
  -22.4269   -8.0277   21.3564 C   0  0  0  0  0  0
  -21.9927   -9.0285   20.4674 C   0  0  0  0  0  0
  -22.7302  -10.2132   20.3076 C   0  0  0  0  0  0
  -21.6835   -6.0709   22.5286 C   0  0  0  0  0  0
  -21.3978   -6.5617   23.8217 C   0  0  0  0  0  0
  -21.3672   -5.6788   24.9198 C   0  0  0  0  0  0
  -21.6064   -4.3058   24.7255 C   0  0  0  0  0  0
  -21.8820   -3.8134   23.4381 C   0  0  0  0  0  0
  -21.9171   -4.6925   22.3421 C   0  0  0  0  0  0
  -22.7867  -13.5238   21.1827 C   0  0  0  0  0  0
  -22.1656   -4.2115   21.1017 F   0  0  0  0  0  0
  -21.5645   -3.4542   25.7783 F   0  0  0  0  0  0
  -30.0218  -13.3689   20.4032 N   0  0  0  0  0  0
  -26.2995  -12.9406   20.3379 N   0  0  0  0  0  0
  -25.9386  -11.6551   20.5823 N   0  0  0  0  0  0
  -22.0498  -12.8191   22.0399 N   0  0  0  0  0  0
  -25.4243  -15.1931   20.4060 N   0  0  0  0  0  0
  -31.8349  -14.7383   20.1887 O   0  0  0  0  0  0
  -21.6651   -6.8882   21.4260 O   0  0  0  0  0  0
  -22.3540  -14.5533   20.6713 O   0  0  0  0  0  0
  -24.6240  -31.8673   23.2064 C   0  0  0  0  0  0
  -25.9105  -32.4789   23.8381 C   0  0  1  0  0  0
  -27.2109  -27.3659   20.0878 C   0  0  0  0  0  0
  -25.5937  -33.8567   24.2285 N   0  0  0  0  0  0
  -23.4120  -30.4914   21.5476 C   0  0  2  0  0  0
  -24.8572  -28.9576   20.1083 C   0  0  0  0  0  0
  -22.7443  -29.4658   22.4920 C   0  0  0  0  0  0
  -18.0270  -28.1403   22.8436 C   0  0  0  0  0  0
  -24.1487  -36.7311   23.2623 C   0  0  0  0  0  0
  -25.9527  -30.8093   21.3740 C   0  0  0  0  0  0
  -26.0230  -29.4419   20.7107 C   0  0  0  0  0  0
  -27.2080  -28.6532   20.6965 C   0  0  0  0  0  0
  -26.0231  -26.9326   19.4582 C   0  0  0  0  0  0
  -24.8565  -27.7058   19.4789 C   0  0  0  0  0  0
  -23.6242  -29.8358   20.1599 C   0  0  0  0  0  0
  -25.4107  -36.3094   24.0327 C   0  0  1  0  0  0
  -20.5880  -28.3691   23.1271 C   0  0  2  0  0  0
  -20.6753  -26.9416   22.5385 C   0  0  0  0  0  0
  -19.5742  -26.6391   21.5177 C   0  0  0  0  0  0
  -18.1929  -26.7935   22.1602 C   0  0  0  0  0  0
  -19.1524  -28.8864   23.2850 C   0  0  0  0  0  0
  -18.9452  -30.1460   23.8880 C   0  0  0  0  0  0
  -17.6452  -30.6590   24.0577 C   0  0  0  0  0  0
  -25.9049  -34.9453   23.5087 C   0  0  0  0  0  0
  -16.5343  -29.9102   23.6344 C   0  0  0  0  0  0
  -16.7267  -28.6538   23.0326 C   0  0  0  0  0  0
  -26.4491  -31.6611   25.0735 C   0  0  0  0  0  0
  -25.3716  -31.3760   26.1455 C   0  0  0  0  0  0
  -27.0328  -30.3023   24.6222 C   0  0  0  0  0  0
  -27.6060  -32.4316   25.7501 C   0  0  0  0  0  0
  -27.5585  -37.1812   24.8458 C   0  0  0  0  0  0
  -21.4155  -29.3086   22.3705 N   0  0  0  0  0  0
  -26.4287  -37.3794   23.9413 N   0  0  0  0  0  0
  -24.6816  -31.0687   22.1017 N   0  0  0  0  0  0
  -23.4183  -28.8181   23.2979 O   0  0  0  0  0  0
  -28.3279  -26.5395   20.1141 O   0  0  0  0  0  0
  -26.5592  -34.8914   22.4636 O   0  0  0  0  0  0
  -23.5405  -32.1427   23.7428 O   0  0  0  0  0  0
  -29.7232  -19.1708   21.0517 C   0  0  0  0  0  0
  -32.0235  -18.3928   21.0742 C   0  0  0  0  0  0
  -30.1359  -20.5147   20.7533 C   0  0  0  0  0  0
  -30.6579  -18.1017   21.2139 C   0  0  0  0  0  0
  -31.5374  -20.7517   20.5734 C   0  0  0  0  0  0
  -32.4603  -19.7044   20.8067 C   0  0  0  0  0  0
  -29.1385  -21.6793   20.8735 C   0  0  0  0  0  0
  -32.1075  -22.1393   20.2512 C   0  0  0  0  0  0
  -29.4493  -24.4461   21.9793 C   0  0  0  0  0  0
  -34.3347  -19.8495   22.2182 C   0  0  0  0  0  0
  -30.2983  -16.7365   21.8498 C   0  0  0  0  0  0
  -28.1153  -25.1014   19.9037 C   0  0  0  0  0  0
  -29.2715  -24.2177   20.4673 C   0  0  2  0  0  0
  -29.3044  -22.7659   20.0820 N   0  0  0  0  0  0
  -29.9021  -15.5652   21.0287 N   0  0  0  0  0  0
  -28.2637  -21.6409   21.7419 O   0  0  0  0  0  0
  -33.8012  -19.9800   20.8962 O   0  0  0  0  0  0
  -31.4754  -12.5082   19.1034 H   0  0  0  0  0  0
  -30.3668  -11.3673   19.8288 H   0  0  0  0  0  0
  -29.7406  -11.7735   17.4325 H   0  0  0  0  0  0
  -29.6455  -13.4890   17.7202 H   0  0  0  0  0  0
  -27.8587  -11.3144   18.8539 H   0  0  0  0  0  0
  -27.3566  -12.6151   17.7945 H   0  0  0  0  0  0
  -27.6828  -14.2674   19.5543 H   0  0  0  0  0  0
  -28.7084  -12.0121   21.3424 H   0  0  0  0  0  0
  -28.4723  -13.6549   21.8488 H   0  0  0  0  0  0
  -25.2832   -9.5604   22.4823 H   0  0  0  0  0  0
  -23.9984   -7.4594   22.7503 H   0  0  0  0  0  0
  -21.0856   -8.8865   19.9008 H   0  0  0  0  0  0
  -22.3824  -10.9694   19.6195 H   0  0  0  0  0  0
  -21.1968   -7.6135   23.9699 H   0  0  0  0  0  0
  -21.1501   -6.0550   25.9111 H   0  0  0  0  0  0
  -22.0582   -2.7579   23.2931 H   0  0  0  0  0  0
  -22.4108  -11.9854   22.4803 H   0  0  0  0  0  0
  -21.1160  -13.1268   22.2678 H   0  0  0  0  0  0
  -24.6683  -15.8615   20.5116 H   0  0  0  0  0  0
  -26.2792  -15.6196   20.0623 H   0  0  0  0  0  0
  -26.7174  -32.5473   23.1142 H   0  0  0  0  0  0
  -25.0127  -33.9769   25.0462 H   0  0  0  0  0  0
  -22.7075  -31.3139   21.4061 H   0  0  0  0  0  0
  -23.3738  -35.9657   23.3282 H   0  0  0  0  0  0
  -24.3578  -36.8918   22.2042 H   0  0  0  0  0  0
  -23.7290  -37.6514   23.6651 H   0  0  0  0  0  0
  -26.0824  -31.5804   20.6121 H   0  0  0  0  0  0
  -26.8337  -30.8539   22.0024 H   0  0  0  0  0  0
  -28.1097  -29.0220   21.1708 H   0  0  0  0  0  0
  -25.9629  -25.9914   18.9352 H   0  0  0  0  0  0
  -23.9602  -27.3391   18.9973 H   0  0  0  0  0  0
  -23.7566  -30.6158   19.4098 H   0  0  0  0  0  0
  -22.7486  -29.2680   19.8440 H   0  0  0  0  0  0
  -25.1307  -36.1921   25.0828 H   0  0  0  0  0  0
  -20.9948  -28.3248   24.1408 H   0  0  0  0  0  0
  -20.5642  -26.2309   23.3576 H   0  0  0  0  0  0
  -21.6625  -26.7473   22.1214 H   0  0  0  0  0  0
  -19.6917  -25.6299   21.1234 H   0  0  0  0  0  0
  -19.6678  -27.3174   20.6683 H   0  0  0  0  0  0
  -17.4188  -26.6625   21.4030 H   0  0  0  0  0  0
  -18.0383  -26.0099   22.9027 H   0  0  0  0  0  0
  -19.7919  -30.7265   24.2258 H   0  0  0  0  0  0
  -17.5021  -31.6253   24.5172 H   0  0  0  0  0  0
  -15.5360  -30.3022   23.7656 H   0  0  0  0  0  0
  -15.8657  -28.0885   22.7039 H   0  0  0  0  0  0
  -24.5920  -30.7075   25.7793 H   0  0  0  0  0  0
  -24.8880  -32.2927   26.4828 H   0  0  0  0  0  0
  -25.8039  -30.8987   27.0266 H   0  0  0  0  0  0
  -26.2926  -29.6758   24.1231 H   0  0  0  0  0  0
  -27.3975  -29.7302   25.4779 H   0  0  0  0  0  0
  -27.8827  -30.4249   23.9494 H   0  0  0  0  0  0
  -27.2698  -33.3612   26.2098 H   0  0  0  0  0  0
  -28.3884  -32.6862   25.0339 H   0  0  0  0  0  0
  -28.0726  -31.8415   26.5407 H   0  0  0  0  0  0
  -28.2594  -38.0109   24.7506 H   0  0  0  0  0  0
  -28.1088  -36.2651   24.6288 H   0  0  0  0  0  0
  -27.2297  -37.1476   25.8848 H   0  0  0  0  0  0
  -20.9316  -29.8867   21.6968 H   0  0  0  0  0  0
  -26.0154  -38.2855   24.1392 H   0  0  0  0  0  0
  -28.6772  -18.9742   21.2513 H   0  0  0  0  0  0
  -32.7570  -17.6253   21.2877 H   0  0  0  0  0  0
  -31.7006  -22.5163   19.3174 H   0  0  0  0  0  0
  -33.1838  -22.1510   20.1250 H   0  0  0  0  0  0
  -31.8748  -22.8310   21.0575 H   0  0  0  0  0  0
  -30.2891  -23.8859   22.3909 H   0  0  0  0  0  0
  -28.5520  -24.1746   22.5391 H   0  0  0  0  0  0
  -29.6363  -25.5030   22.1583 H   0  0  0  0  0  0
  -34.3662  -20.8156   22.7248 H   0  0  0  0  0  0
  -35.3535  -19.4735   22.1804 H   0  0  0  0  0  0
  -33.7674  -19.1756   22.8608 H   0  0  0  0  0  0
  -29.4730  -16.9186   22.5446 H   0  0  0  0  0  0
  -31.1163  -16.4173   22.5008 H   0  0  0  0  0  0
  -27.2017  -24.7606   20.3924 H   0  0  0  0  0  0
  -28.0002  -24.9107   18.8309 H   0  0  0  0  0  0
  -30.1672  -24.6071   19.9798 H   0  0  0  0  0  0
  -29.9207  -22.5589   19.3012 H   0  0  0  0  0  0
  -28.9318  -15.3112   21.1285 H   0  0  0  0  0  0
  1 25  1  0  0  0
  1 30  2  0  0  0
  1 85  1  0  0  0
  2  3  1  0  0  0
  2 25  1  0  0  0
  2 88  1  0  0  0
  2 89  1  0  0  0
  3  4  1  0  0  0
  3 90  1  0  0  0
  3 91  1  0  0  0
  4  5  1  0  0  0
  4 92  1  0  0  0
  4 93  1  0  0  0
  5  6  1  0  0  0
  5 26  1  0  0  0
  5 94  1  0  0  0
  6 25  1  0  0  0
  6 95  1  0  0  0
  6 96  1  0  0  0
  7  8  2  0  0  0
  7 26  1  0  0  0
  7 29  1  0  0  0
  8  9  1  0  0  0
  8 22  1  0  0  0
  9 10  1  0  0  0
  9 27  2  0  0  0
 10 11  2  0  0  0
 10 15  1  0  0  0
 11 12  1  0  0  0
 11 97  1  0  0  0
 12 13  2  0  0  0
 12 98  1  0  0  0
 13 14  1  0  0  0
 13 31  1  0  0  0
 14 15  2  0  0  0
 14 99  1  0  0  0
 15100  1  0  0  0
 16 17  2  0  0  0
 16 21  1  0  0  0
 16 31  1  0  0  0
 17 18  1  0  0  0
 17101  1  0  0  0
 18 19  2  0  0  0
 18102  1  0  0  0
 19 20  1  0  0  0
 19 24  1  0  0  0
 20 21  2  0  0  0
 20103  1  0  0  0
 21 23  1  0  0  0
 22 28  1  0  0  0
 22 32  2  0  0  0
 26 27  1  0  0  0
 28104  1  0  0  0
 28105  1  0  0  0
 29106  1  0  0  0
 29107  1  0  0  0
 33 34  1  0  0  0
 33 66  1  0  0  0
 33 70  2  0  0  0
 34 36  1  0  0  0
 34 59  1  0  0  0
 34108  1  0  0  0
 35 44  2  0  0  0
 35 45  1  0  0  0
 35 68  1  0  0  0
 36 56  1  0  0  0
 36109  1  0  0  0
 37 39  1  0  0  0
 37 47  1  0  0  0
 37 66  1  0  0  0
 37110  1  0  0  0
 38 43  2  0  0  0
 38 46  1  0  0  0
 38 47  1  0  0  0
 39 64  1  0  0  0
 39 67  2  0  0  0
 40 52  1  0  0  0
 40 53  2  0  0  0
 40 58  1  0  0  0
 41111  1  0  0  0
 41112  1  0  0  0
 41113  1  0  0  0
 41 48  1  0  0  0
 42 43  1  0  0  0
 42 66  1  0  0  0
 42114  1  0  0  0
 42115  1  0  0  0
 43 44  1  0  0  0
 44116  1  0  0  0
 45 46  2  0  0  0
 45117  1  0  0  0
 46118  1  0  0  0
 47119  1  0  0  0
 47120  1  0  0  0
 48 56  1  0  0  0
 48 65  1  0  0  0
 48121  1  0  0  0
 49 50  1  0  0  0
 49 53  1  0  0  0
 49 64  1  0  0  0
 49122  1  0  0  0
 50 51  1  0  0  0
 50123  1  0  0  0
 50124  1  0  0  0
 51 52  1  0  0  0
 51125  1  0  0  0
 51126  1  0  0  0
 52127  1  0  0  0
 52128  1  0  0  0
 53 54  1  0  0  0
 54 55  2  0  0  0
 54129  1  0  0  0
 55 57  1  0  0  0
 55130  1  0  0  0
 56 69  2  0  0  0
 57 58  2  0  0  0
 57131  1  0  0  0
 58132  1  0  0  0
 59 60  1  0  0  0
 59 61  1  0  0  0
 59 62  1  0  0  0
 60133  1  0  0  0
 60134  1  0  0  0
 60135  1  0  0  0
 61136  1  0  0  0
 61137  1  0  0  0
 61138  1  0  0  0
 62139  1  0  0  0
 62140  1  0  0  0
 62141  1  0  0  0
 63 65  1  0  0  0
 63142  1  0  0  0
 63143  1  0  0  0
 63144  1  0  0  0
 64145  1  0  0  0
 65146  1  0  0  0
 68 82  1  0  0  0
 71 73  2  0  0  0
 71 74  1  0  0  0
 71147  1  0  0  0
 72 74  2  0  0  0
 72 76  1  0  0  0
 72148  1  0  0  0
 73 75  1  0  0  0
 73 77  1  0  0  0
 74 81  1  0  0  0
 75 76  2  0  0  0
 75 78  1  0  0  0
 76 87  1  0  0  0
 77 84  1  0  0  0
 77 86  2  0  0  0
 78149  1  0  0  0
 78150  1  0  0  0
 78151  1  0  0  0
 79152  1  0  0  0
 79153  1  0  0  0
 79154  1  0  0  0
 79 83  1  0  0  0
 80 87  1  0  0  0
 80155  1  0  0  0
 80156  1  0  0  0
 80157  1  0  0  0
 81 85  1  0  0  0
 81158  1  0  0  0
 81159  1  0  0  0
 82 83  1  0  0  0
 82160  1  0  0  0
 82161  1  0  0  0
 83 84  1  0  0  0
 83162  1  0  0  0
 84163  1  0  0  0
 85164  1  0  0  0
M  ISO  4   1 100  68 101  82 101  85 100
M  END
> <chiral flag>
0

> <version>
0

> <s_m_source_file>
/data/baiqing/PycharmProjects/Reinvent-master-3.2/result/LINK_invent/BTK/process_docking_weight1_custom_product_contain_oxygen_bond_distance_aromatic_linkinvent_7_9_3/rearranged_h_0053.sdf

> <i_m_source_file_index>
27

> <r_mmod_Potential_Energy-OPLS-2005>
-33.2308769226074

> <r_mmod_Stretch_Energy-OPLS-2005>
60.6108436584473

> <r_mmod_Bend_Energy-OPLS-2005>
129.735275268555

> <r_mmod_Torsional_Energy-OPLS-2005>
285.900360107422

> <r_mmod_Improper_Torsional_Energy-OPLS-2005>
11.0003938674927

> <r_mmod_Van_der_Waal_Energy-OPLS-2005>
168.341583251953

> <r_mmod_Electrostatic_Energy-OPLS-2005>
-478.217712402344

> <r_mmod_Solvation_Energy-OPLS-2005>
-241.916473388672

> <b_mmod_Minimization_Converged-OPLS-2005>
0

> <r_mmod_RMS_Derivative-OPLS-2005>
9.96256065368652

$$$$
27
                    3D
 Structure written by MMmdl.
168176  0  0  1  0            999 V2000
  -30.7217  -14.5570   20.5913 C   0  0  0  0  0  0
  -30.4195  -12.3771   19.4515 C   0  0  0  0  0  0
  -29.4957  -12.5086   18.2260 C   0  0  0  0  0  0
  -28.0255  -12.3406   18.6422 C   0  0  0  0  0  0
  -27.6530  -13.2214   19.8648 C   0  0  2  0  0  0
  -28.6891  -13.0913   21.0019 C   0  0  0  0  0  0
  -25.2589  -13.8203   20.5696 C   0  0  0  0  0  0
  -24.1831  -13.0481   20.9168 C   0  0  0  0  0  0
  -24.6396  -11.6949   20.8723 C   0  0  0  0  0  0
  -23.9054  -10.4339   21.0427 C   0  0  0  0  0  0
  -24.3601   -9.4254   21.9204 C   0  0  0  0  0  0
  -23.6285   -8.2283   22.0757 C   0  0  0  0  0  0
  -22.4261   -8.0307   21.3556 C   0  0  0  0  0  0
  -21.9903   -9.0275   20.4639 C   0  0  0  0  0  0
  -22.7223  -10.2177   20.3058 C   0  0  0  0  0  0
  -21.6859   -6.0744   22.5282 C   0  0  0  0  0  0
  -21.4002   -6.5638   23.8221 C   0  0  0  0  0  0
  -21.3654   -5.6783   24.9170 C   0  0  0  0  0  0
  -21.6054   -4.3049   24.7213 C   0  0  0  0  0  0
  -21.8815   -3.8149   23.4332 C   0  0  0  0  0  0
  -21.9190   -4.6970   22.3392 C   0  0  0  0  0  0
  -22.7859  -13.5293   21.1827 C   0  0  0  0  0  0
  -22.1662   -4.2157   21.0968 F   0  0  0  0  0  0
  -21.5621   -3.4538   25.7733 F   0  0  0  0  0  0
  -30.0116  -13.3994   20.4396 N   0  0  0  0  0  0
  -26.3001  -12.9382   20.3316 N   0  0  0  0  0  0
  -25.9316  -11.6524   20.5719 N   0  0  0  0  0  0
  -22.0493  -12.8269   22.0353 N   0  0  0  0  0  0
  -25.4350  -15.1916   20.4146 N   0  0  0  0  0  0
  -31.8402  -14.6778   20.0820 O   0  0  0  0  0  0
  -21.6637   -6.8891   21.4245 O   0  0  0  0  0  0
  -22.3562  -14.5637   20.6719 O   0  0  0  0  0  0
  -24.6214  -31.8628   23.2112 C   0  0  0  0  0  0
  -25.9060  -32.4805   23.8431 C   0  0  1  0  0  0
  -27.1963  -27.3460   20.1032 C   0  0  0  0  0  0
  -25.5868  -33.8614   24.2314 N   0  0  0  0  0  0
  -23.4125  -30.4961   21.5517 C   0  0  2  0  0  0
  -24.8521  -28.9701   20.1043 C   0  0  0  0  0  0
  -22.7483  -29.4631   22.4943 C   0  0  0  0  0  0
  -18.0287  -28.1373   22.8433 C   0  0  0  0  0  0
  -24.1480  -36.7323   23.2647 C   0  0  0  0  0  0
  -25.9560  -30.7993   21.3834 C   0  0  0  0  0  0
  -26.0238  -29.4364   20.7173 C   0  0  0  0  0  0
  -27.2025  -28.6370   20.7093 C   0  0  0  0  0  0
  -26.0145  -26.9509   19.4335 C   0  0  0  0  0  0
  -24.8526  -27.7338   19.4496 C   0  0  0  0  0  0
  -23.6210  -29.8494   20.1610 C   0  0  0  0  0  0
  -25.4095  -36.3130   24.0356 C   0  0  1  0  0  0
  -20.5889  -28.3672   23.1250 C   0  0  2  0  0  0
  -20.6791  -26.9394   22.5381 C   0  0  0  0  0  0
  -19.5773  -26.6347   21.5182 C   0  0  0  0  0  0
  -18.1931  -26.7891   22.1556 C   0  0  0  0  0  0
  -19.1543  -28.8825   23.2838 C   0  0  0  0  0  0
  -18.9482  -30.1427   23.8870 C   0  0  0  0  0  0
  -17.6485  -30.6568   24.0556 C   0  0  0  0  0  0
  -25.9035  -34.9485   23.5128 C   0  0  0  0  0  0
  -16.5371  -29.9066   23.6354 C   0  0  0  0  0  0
  -16.7268  -28.6508   23.0302 C   0  0  0  0  0  0
  -26.4456  -31.6624   25.0802 C   0  0  0  0  0  0
  -25.3654  -31.3723   26.1502 C   0  0  0  0  0  0
  -27.0316  -30.3038   24.6253 C   0  0  0  0  0  0
  -27.6065  -32.4317   25.7496 C   0  0  0  0  0  0
  -27.5585  -37.1807   24.8465 C   0  0  0  0  0  0
  -21.4192  -29.3052   22.3702 N   0  0  0  0  0  0
  -26.4269  -37.3807   23.9427 N   0  0  0  0  0  0
  -24.6818  -31.0686   22.1046 N   0  0  0  0  0  0
  -23.4242  -28.8145   23.2973 O   0  0  0  0  0  0
  -28.2847  -26.4709   20.1583 O   0  0  0  0  0  0
  -26.5643  -34.8942   22.4732 O   0  0  0  0  0  0
  -23.5377  -32.1378   23.7462 O   0  0  0  0  0  0
  -32.7372  -18.6492   22.8108 C   0  0  0  0  0  0
  -32.9380  -17.2908   23.0638 C   0  0  0  0  0  0
  -31.5909  -19.0642   22.1161 C   0  0  0  0  0  0
  -32.0240  -16.3510   22.5610 C   0  0  0  0  0  0
  -30.6267  -18.1465   21.6244 C   0  0  0  0  0  0
  -30.8990  -16.7296   21.7779 C   0  0  0  0  0  0
  -27.3680  -21.6606   14.8975 C   0  0  0  0  0  0
  -28.2918  -21.7486   15.8678 C   0  0  0  0  0  0
  -28.5020  -20.6861   16.8260 C   0  0  0  0  0  0
  -29.3143  -20.7943   17.8956 C   0  0  0  0  0  0
  -29.4380  -19.6582   18.7967 C   0  0  0  0  0  0
  -29.3251  -18.7752   21.0639 C   0  0  0  0  0  0
  -28.5099  -22.4501   20.4786 C   0  0  0  0  0  0
  -29.0397  -23.9435   20.4218 C   0  0  0  0  0  0
  -29.6204  -21.3458   20.6816 C   0  0  0  0  0  0
  -27.9365  -25.0655   20.4572 C   0  0  0  0  0  0
  -30.1400  -15.6264   21.2183 N   0  0  0  0  0  0
  -29.4290  -19.9503   20.1268 N   0  0  0  0  0  0
  -29.4830  -18.4977   18.3733 O   0  0  0  0  0  0
  -31.4583  -12.4869   19.1389 H   0  0  0  0  0  0
  -30.3494  -11.3799   19.8893 H   0  0  0  0  0  0
  -29.7571  -11.7653   17.4725 H   0  0  0  0  0  0
  -29.6373  -13.4852   17.7585 H   0  0  0  0  0  0
  -27.8745  -11.2866   18.8854 H   0  0  0  0  0  0
  -27.3658  -12.5575   17.8012 H   0  0  0  0  0  0
  -27.6768  -14.2561   19.5180 H   0  0  0  0  0  0
  -28.6791  -12.0812   21.4126 H   0  0  0  0  0  0
  -28.4297  -13.7533   21.8289 H   0  0  0  0  0  0
  -25.2760   -9.5732   22.4777 H   0  0  0  0  0  0
  -23.9995   -7.4677   22.7500 H   0  0  0  0  0  0
  -21.0833   -8.8798   19.8953 H   0  0  0  0  0  0
  -22.3704  -10.9705   19.6160 H   0  0  0  0  0  0
  -21.1985   -7.6145   23.9715 H   0  0  0  0  0  0
  -21.1470   -6.0518   25.9071 H   0  0  0  0  0  0
  -22.0591   -2.7609   23.2832 H   0  0  0  0  0  0
  -22.4046  -11.9882   22.4696 H   0  0  0  0  0  0
  -21.1120  -13.1303   22.2601 H   0  0  0  0  0  0
  -24.6661  -15.8442   20.5098 H   0  0  0  0  0  0
  -26.2792  -15.6257   20.0623 H   0  0  0  0  0  0
  -26.7133  -32.5463   23.1180 H   0  0  0  0  0  0
  -25.0027  -33.9802   25.0472 H   0  0  0  0  0  0
  -22.7017  -31.3176   21.4235 H   0  0  0  0  0  0
  -23.3764  -35.9627   23.3266 H   0  0  0  0  0  0
  -24.3595  -36.8966   22.2075 H   0  0  0  0  0  0
  -23.7185  -37.6493   23.6680 H   0  0  0  0  0  0
  -26.0935  -31.5673   20.6214 H   0  0  0  0  0  0
  -26.8367  -30.8354   22.0142 H   0  0  0  0  0  0
  -28.0983  -28.9857   21.2034 H   0  0  0  0  0  0
  -25.9565  -26.0314   18.8717 H   0  0  0  0  0  0
  -23.9676  -27.3879   18.9328 H   0  0  0  0  0  0
  -23.7367  -30.6390   19.4162 H   0  0  0  0  0  0
  -22.7377  -29.2876   19.8542 H   0  0  0  0  0  0
  -25.1255  -36.2001   25.0837 H   0  0  0  0  0  0
  -20.9980  -28.3240   24.1348 H   0  0  0  0  0  0
  -20.5640  -26.2313   23.3606 H   0  0  0  0  0  0
  -21.6662  -26.7374   22.1196 H   0  0  0  0  0  0
  -19.6988  -25.6252   21.1188 H   0  0  0  0  0  0
  -19.6698  -27.3177   20.6717 H   0  0  0  0  0  0
  -17.4204  -26.6627   21.3958 H   0  0  0  0  0  0
  -18.0328  -26.0003   22.8928 H   0  0  0  0  0  0
  -19.7975  -30.7248   24.2206 H   0  0  0  0  0  0
  -17.5037  -31.6240   24.5159 H   0  0  0  0  0  0
  -15.5384  -30.2960   23.7692 H   0  0  0  0  0  0
  -15.8661  -28.0857   22.6965 H   0  0  0  0  0  0
  -24.5952  -30.6923   25.7849 H   0  0  0  0  0  0
  -24.8673  -32.2857   26.4812 H   0  0  0  0  0  0
  -25.7934  -30.9039   27.0377 H   0  0  0  0  0  0
  -26.2934  -29.6773   24.1237 H   0  0  0  0  0  0
  -27.4013  -29.7314   25.4774 H   0  0  0  0  0  0
  -27.8778  -30.4371   23.9500 H   0  0  0  0  0  0
  -27.2792  -33.3705   26.1990 H   0  0  0  0  0  0
  -28.3882  -32.6719   25.0274 H   0  0  0  0  0  0
  -28.0708  -31.8460   26.5439 H   0  0  0  0  0  0
  -28.2584  -38.0142   24.7563 H   0  0  0  0  0  0
  -28.1104  -36.2670   24.6173 H   0  0  0  0  0  0
  -27.2336  -37.1323   25.8883 H   0  0  0  0  0  0
  -20.9401  -29.8840   21.6957 H   0  0  0  0  0  0
  -26.0175  -38.2880   24.1430 H   0  0  0  0  0  0
  -33.4462  -19.3817   23.1742 H   0  0  0  0  0  0
  -33.8018  -16.9688   23.6303 H   0  0  0  0  0  0
  -31.4742  -20.1271   22.0032 H   0  0  0  0  0  0
  -32.2215  -15.3083   22.7693 H   0  0  0  0  0  0
  -27.2270  -22.4660   14.1907 H   0  0  0  0  0  0
  -26.7334  -20.7929   14.7907 H   0  0  0  0  0  0
  -28.8962  -22.6443   15.9263 H   0  0  0  0  0  0
  -27.9702  -19.7539   16.6679 H   0  0  0  0  0  0
  -29.8583  -21.7117   18.0737 H   0  0  0  0  0  0
  -28.7553  -19.1090   21.9296 H   0  0  0  0  0  0
  -28.7027  -17.9850   20.6420 H   0  0  0  0  0  0
  -27.9011  -22.2485   19.5974 H   0  0  0  0  0  0
  -27.8099  -22.3608   21.3124 H   0  0  0  0  0  0
  -29.6170  -24.0458   19.5026 H   0  0  0  0  0  0
  -29.7424  -24.1055   21.2432 H   0  0  0  0  0  0
  -29.7735  -21.2847   21.7583 H   0  0  0  0  0  0
  -30.5658  -21.7193   20.2815 H   0  0  0  0  0  0
  -27.4860  -25.0588   21.4520 H   0  0  0  0  0  0
  -27.1722  -24.6971   19.7774 H   0  0  0  0  0  0
  -29.1584  -15.5662   21.4450 H   0  0  0  0  0  0
  1 25  1  0  0  0
  1 30  2  0  0  0
  1 87  1  0  0  0
  2  3  1  0  0  0
  2 25  1  0  0  0
  2 90  1  0  0  0
  2 91  1  0  0  0
  3  4  1  0  0  0
  3 92  1  0  0  0
  3 93  1  0  0  0
  4  5  1  0  0  0
  4 94  1  0  0  0
  4 95  1  0  0  0
  5  6  1  0  0  0
  5 26  1  0  0  0
  5 96  1  0  0  0
  6 25  1  0  0  0
  6 97  1  0  0  0
  6 98  1  0  0  0
  7  8  2  0  0  0
  7 26  1  0  0  0
  7 29  1  0  0  0
  8  9  1  0  0  0
  8 22  1  0  0  0
  9 10  1  0  0  0
  9 27  2  0  0  0
 10 11  2  0  0  0
 10 15  1  0  0  0
 11 12  1  0  0  0
 11 99  1  0  0  0
 12 13  2  0  0  0
 12100  1  0  0  0
 13 14  1  0  0  0
 13 31  1  0  0  0
 14 15  2  0  0  0
 14101  1  0  0  0
 15102  1  0  0  0
 16 17  2  0  0  0
 16 21  1  0  0  0
 16 31  1  0  0  0
 17 18  1  0  0  0
 17103  1  0  0  0
 18 19  2  0  0  0
 18104  1  0  0  0
 19 20  1  0  0  0
 19 24  1  0  0  0
 20 21  2  0  0  0
 20105  1  0  0  0
 21 23  1  0  0  0
 22 28  1  0  0  0
 22 32  2  0  0  0
 26 27  1  0  0  0
 28106  1  0  0  0
 28107  1  0  0  0
 29108  1  0  0  0
 29109  1  0  0  0
 33 34  1  0  0  0
 33 66  1  0  0  0
 33 70  2  0  0  0
 34 36  1  0  0  0
 34 59  1  0  0  0
 34110  1  0  0  0
 35 44  2  0  0  0
 35 45  1  0  0  0
 35 68  1  0  0  0
 36 56  1  0  0  0
 36111  1  0  0  0
 37 39  1  0  0  0
 37 47  1  0  0  0
 37 66  1  0  0  0
 37112  1  0  0  0
 38 43  2  0  0  0
 38 46  1  0  0  0
 38 47  1  0  0  0
 39 64  1  0  0  0
 39 67  2  0  0  0
 40 52  1  0  0  0
 40 53  2  0  0  0
 40 58  1  0  0  0
 41113  1  0  0  0
 41114  1  0  0  0
 41115  1  0  0  0
 41 48  1  0  0  0
 42 43  1  0  0  0
 42 66  1  0  0  0
 42116  1  0  0  0
 42117  1  0  0  0
 43 44  1  0  0  0
 44118  1  0  0  0
 45 46  2  0  0  0
 45119  1  0  0  0
 46120  1  0  0  0
 47121  1  0  0  0
 47122  1  0  0  0
 48 56  1  0  0  0
 48 65  1  0  0  0
 48123  1  0  0  0
 49 50  1  0  0  0
 49 53  1  0  0  0
 49 64  1  0  0  0
 49124  1  0  0  0
 50 51  1  0  0  0
 50125  1  0  0  0
 50126  1  0  0  0
 51 52  1  0  0  0
 51127  1  0  0  0
 51128  1  0  0  0
 52129  1  0  0  0
 52130  1  0  0  0
 53 54  1  0  0  0
 54 55  2  0  0  0
 54131  1  0  0  0
 55 57  1  0  0  0
 55132  1  0  0  0
 56 69  2  0  0  0
 57 58  2  0  0  0
 57133  1  0  0  0
 58134  1  0  0  0
 59 60  1  0  0  0
 59 61  1  0  0  0
 59 62  1  0  0  0
 60135  1  0  0  0
 60136  1  0  0  0
 60137  1  0  0  0
 61138  1  0  0  0
 61139  1  0  0  0
 61140  1  0  0  0
 62141  1  0  0  0
 62142  1  0  0  0
 62143  1  0  0  0
 63 65  1  0  0  0
 63144  1  0  0  0
 63145  1  0  0  0
 63146  1  0  0  0
 64147  1  0  0  0
 65148  1  0  0  0
 68 86  1  0  0  0
 71 72  2  0  0  0
 71 73  1  0  0  0
 71149  1  0  0  0
 72 74  1  0  0  0
 72150  1  0  0  0
 73 75  2  0  0  0
 73151  1  0  0  0
 74 76  2  0  0  0
 74152  1  0  0  0
 75 76  1  0  0  0
 75 82  1  0  0  0
 76 87  1  0  0  0
 77 78  2  0  0  0
 77153  1  0  0  0
 77154  1  0  0  0
 78 79  1  0  0  0
 78155  1  0  0  0
 79 80  2  0  0  0
 79156  1  0  0  0
 80 81  1  0  0  0
 80157  1  0  0  0
 81 88  1  0  0  0
 81 89  2  0  0  0
 82 88  1  0  0  0
 82158  1  0  0  0
 82159  1  0  0  0
 83 84  1  0  0  0
 83 85  1  0  0  0
 83160  1  0  0  0
 83161  1  0  0  0
 84 86  1  0  0  0
 84162  1  0  0  0
 84163  1  0  0  0
 85 88  1  0  0  0
 85164  1  0  0  0
 85165  1  0  0  0
 86166  1  0  0  0
 86167  1  0  0  0
 87168  1  0  0  0
M  ISO  4   1 100  68 101  86 101  87 100
M  END
> <chiral flag>
0

> <version>
0

> <s_m_source_file>
/data/baiqing/PycharmProjects/Reinvent-master-3.2/result/LINK_invent/BTK/process_docking_weight1_custom_product_contain_oxygen_bond_distance_aromatic_linkinvent_7_9_3/rearranged_h_0053.sdf

> <i_m_source_file_index>
28

> <r_mmod_Potential_Energy-OPLS-2005>
124.359565734863

> <r_mmod_Stretch_Energy-OPLS-2005>
77.1225433349609

> <r_mmod_Bend_Energy-OPLS-2005>
141.917098999023

> <r_mmod_Torsional_Energy-OPLS-2005>
275.425384521484

> <r_mmod_Improper_Torsional_Energy-OPLS-2005>
3.36786508560181

> <r_mmod_Van_der_Waal_Energy-OPLS-2005>
171.814804077148

> <r_mmod_Electrostatic_Energy-OPLS-2005>
-354.53271484375

> <r_mmod_Solvation_Energy-OPLS-2005>
-228.990707397461

> <b_mmod_Minimization_Converged-OPLS-2005>
0

> <r_mmod_RMS_Derivative-OPLS-2005>
4.76452875137329

$$$$
28
                    3D
 Structure written by MMmdl.
159167  0  0  1  0            999 V2000
  -30.7285  -14.4321   20.5834 C   0  0  0  0  0  0
  -30.4168  -12.2815   19.4183 C   0  0  0  0  0  0
  -29.4965  -12.5125   18.2036 C   0  0  0  0  0  0
  -28.0161  -12.3684   18.6108 C   0  0  0  0  0  0
  -27.6629  -13.2085   19.8717 C   0  0  2  0  0  0
  -28.7036  -12.9751   20.9936 C   0  0  0  0  0  0
  -25.2563  -13.8157   20.5638 C   0  0  0  0  0  0
  -24.1821  -13.0431   20.9151 C   0  0  0  0  0  0
  -24.6383  -11.6901   20.8717 C   0  0  0  0  0  0
  -23.9051  -10.4290   21.0391 C   0  0  0  0  0  0
  -24.3605   -9.4198   21.9174 C   0  0  0  0  0  0
  -23.6273   -8.2237   22.0753 C   0  0  0  0  0  0
  -22.4261   -8.0272   21.3535 C   0  0  0  0  0  0
  -21.9888   -9.0259   20.4660 C   0  0  0  0  0  0
  -22.7215  -10.2137   20.3041 C   0  0  0  0  0  0
  -21.6853   -6.0736   22.5262 C   0  0  0  0  0  0
  -21.4038   -6.5639   23.8211 C   0  0  0  0  0  0
  -21.3662   -5.6778   24.9176 C   0  0  0  0  0  0
  -21.6017   -4.3032   24.7212 C   0  0  0  0  0  0
  -21.8817   -3.8134   23.4330 C   0  0  0  0  0  0
  -21.9196   -4.6965   22.3390 C   0  0  0  0  0  0
  -22.7842  -13.5242   21.1803 C   0  0  0  0  0  0
  -22.1645   -4.2146   21.0967 F   0  0  0  0  0  0
  -21.5635   -3.4514   25.7730 F   0  0  0  0  0  0
  -30.0423  -13.2651   20.4465 N   0  0  0  0  0  0
  -26.3023  -12.9344   20.3344 N   0  0  0  0  0  0
  -25.9314  -11.6492   20.5717 N   0  0  0  0  0  0
  -22.0463  -12.8300   22.0388 N   0  0  0  0  0  0
  -25.4196  -15.1889   20.4014 N   0  0  0  0  0  0
  -31.8313  -14.6254   20.0631 O   0  0  0  0  0  0
  -21.6615   -6.8871   21.4224 O   0  0  0  0  0  0
  -22.3519  -14.5522   20.6619 O   0  0  0  0  0  0
  -24.6140  -31.8694   23.2100 C   0  0  0  0  0  0
  -25.9047  -32.4830   23.8402 C   0  0  1  0  0  0
  -27.2318  -27.4376   20.0901 C   0  0  0  0  0  0
  -25.5934  -33.8622   24.2365 N   0  0  0  0  0  0
  -23.4033  -30.4914   21.5522 C   0  0  2  0  0  0
  -24.8506  -28.9538   20.1190 C   0  0  0  0  0  0
  -22.7413  -29.4680   22.5022 C   0  0  0  0  0  0
  -18.0270  -28.1381   22.8490 C   0  0  0  0  0  0
  -24.1493  -36.7310   23.2635 C   0  0  0  0  0  0
  -25.9321  -30.8311   21.3674 C   0  0  0  0  0  0
  -26.0121  -29.4653   20.7145 C   0  0  0  0  0  0
  -27.2100  -28.7135   20.6977 C   0  0  0  0  0  0
  -26.0565  -26.9362   19.4952 C   0  0  0  0  0  0
  -24.8647  -27.6859   19.5094 C   0  0  0  0  0  0
  -23.6132  -29.8221   20.1691 C   0  0  0  0  0  0
  -25.4121  -36.3119   24.0344 C   0  0  1  0  0  0
  -20.5862  -28.3682   23.1322 C   0  0  2  0  0  0
  -20.6788  -26.9436   22.5417 C   0  0  0  0  0  0
  -19.5772  -26.6391   21.5224 C   0  0  0  0  0  0
  -18.1934  -26.7931   22.1615 C   0  0  0  0  0  0
  -19.1521  -28.8852   23.2881 C   0  0  0  0  0  0
  -18.9448  -30.1448   23.8905 C   0  0  0  0  0  0
  -17.6447  -30.6588   24.0569 C   0  0  0  0  0  0
  -25.9036  -34.9475   23.5157 C   0  0  0  0  0  0
  -16.5340  -29.9091   23.6312 C   0  0  0  0  0  0
  -16.7254  -28.6501   23.0352 C   0  0  0  0  0  0
  -26.4483  -31.6604   25.0720 C   0  0  0  0  0  0
  -25.3740  -31.3704   26.1465 C   0  0  0  0  0  0
  -27.0329  -30.3058   24.6092 C   0  0  0  0  0  0
  -27.6073  -32.4328   25.7458 C   0  0  0  0  0  0
  -27.5598  -37.1806   24.8459 C   0  0  0  0  0  0
  -21.4146  -29.3037   22.3737 N   0  0  0  0  0  0
  -26.4321  -37.3798   23.9388 N   0  0  0  0  0  0
  -24.6678  -31.0785   22.1014 N   0  0  0  0  0  0
  -23.4182  -28.8234   23.3085 O   0  0  0  0  0  0
  -28.3812  -26.6809   20.0512 O   0  0  0  0  0  0
  -26.5564  -34.8905   22.4697 O   0  0  0  0  0  0
  -23.5338  -32.1484   23.7489 O   0  0  0  0  0  0
  -28.3908  -24.2565   20.2211 C   0  0  0  0  0  0
  -31.7292  -18.4802   22.5959 C   0  0  0  0  0  0
  -31.2401  -17.1661   22.5016 C   0  0  0  0  0  0
  -30.3157  -17.6858   20.3063 C   0  0  0  0  0  0
  -31.5323  -19.4067   21.5478 C   0  0  0  0  0  0
  -30.8005  -19.0165   20.3939 C   0  0  0  0  0  0
  -30.5536  -16.7520   21.3450 C   0  0  0  0  0  0
  -28.3346  -25.4762   20.7152 C   0  0  0  0  0  0
  -28.3476  -23.0037   19.7923 C   0  0  0  0  0  0
  -29.6207  -22.2943   19.6043 C   0  0  0  0  0  0
  -32.1385  -20.7931   21.7080 C   0  0  0  0  0  0
  -27.0137  -22.3327   19.4871 C   0  0  0  0  0  0
  -30.5423  -19.9805   19.2318 C   0  0  0  0  0  0
  -30.0931  -15.4098   21.2503 N   0  0  0  0  0  0
  -29.4810  -20.9582   19.4995 N   0  0  0  0  0  0
  -30.7267  -22.8336   19.5110 O   0  0  0  0  0  0
  -31.4665  -12.3498   19.1293 H   0  0  0  0  0  0
  -30.2881  -11.2704   19.8052 H   0  0  0  0  0  0
  -29.7389  -11.8084   17.4074 H   0  0  0  0  0  0
  -29.6656  -13.5071   17.7878 H   0  0  0  0  0  0
  -27.8275  -11.3117   18.8053 H   0  0  0  0  0  0
  -27.3667  -12.6428   17.7774 H   0  0  0  0  0  0
  -27.7114  -14.2565   19.5788 H   0  0  0  0  0  0
  -28.6670  -11.9353   21.3249 H   0  0  0  0  0  0
  -28.4643  -13.5658   21.8777 H   0  0  0  0  0  0
  -25.2762   -9.5697   22.4741 H   0  0  0  0  0  0
  -23.9999   -7.4638   22.7471 H   0  0  0  0  0  0
  -21.0819   -8.8768   19.8975 H   0  0  0  0  0  0
  -22.3657  -10.9677   19.6141 H   0  0  0  0  0  0
  -21.2036   -7.6154   23.9728 H   0  0  0  0  0  0
  -21.1487   -6.0505   25.9085 H   0  0  0  0  0  0
  -22.0600   -2.7592   23.2814 H   0  0  0  0  0  0
  -22.4041  -12.0030   22.4919 H   0  0  0  0  0  0
  -21.1071  -13.1365   22.2497 H   0  0  0  0  0  0
  -24.6422  -15.8354   20.4877 H   0  0  0  0  0  0
  -26.2718  -15.6372   20.0867 H   0  0  0  0  0  0
  -26.7124  -32.5566   23.1156 H   0  0  0  0  0  0
  -25.0162  -33.9797   25.0559 H   0  0  0  0  0  0
  -22.6921  -31.3074   21.4116 H   0  0  0  0  0  0
  -23.3767  -35.9646   23.3322 H   0  0  0  0  0  0
  -24.3583  -36.8893   22.2050 H   0  0  0  0  0  0
  -23.7230  -37.6513   23.6630 H   0  0  0  0  0  0
  -26.0517  -31.5959   20.5994 H   0  0  0  0  0  0
  -26.8197  -30.8841   21.9876 H   0  0  0  0  0  0
  -28.1087  -29.1034   21.1524 H   0  0  0  0  0  0
  -26.0686  -25.9670   19.0170 H   0  0  0  0  0  0
  -23.9710  -27.2890   19.0452 H   0  0  0  0  0  0
  -23.7246  -30.5946   19.4087 H   0  0  0  0  0  0
  -22.7391  -29.2387   19.8737 H   0  0  0  0  0  0
  -25.1290  -36.2013   25.0847 H   0  0  0  0  0  0
  -20.9925  -28.3266   24.1452 H   0  0  0  0  0  0
  -20.5755  -26.2292   23.3596 H   0  0  0  0  0  0
  -21.6653  -26.7523   22.1184 H   0  0  0  0  0  0
  -19.6943  -25.6297   21.1253 H   0  0  0  0  0  0
  -19.6722  -27.3213   20.6752 H   0  0  0  0  0  0
  -17.4222  -26.6699   21.3980 H   0  0  0  0  0  0
  -18.0297  -26.0080   22.9001 H   0  0  0  0  0  0
  -19.7921  -30.7247   24.2314 H   0  0  0  0  0  0
  -17.5000  -31.6264   24.5185 H   0  0  0  0  0  0
  -15.5337  -30.2992   23.7630 H   0  0  0  0  0  0
  -15.8657  -28.0795   22.7097 H   0  0  0  0  0  0
  -24.5890  -30.7107   25.7763 H   0  0  0  0  0  0
  -24.8958  -32.2864   26.4942 H   0  0  0  0  0  0
  -25.8066  -30.8812   27.0196 H   0  0  0  0  0  0
  -26.2886  -29.6780   24.1203 H   0  0  0  0  0  0
  -27.4181  -29.7328   25.4527 H   0  0  0  0  0  0
  -27.8666  -30.4398   23.9210 H   0  0  0  0  0  0
  -27.2726  -33.3615   26.2075 H   0  0  0  0  0  0
  -28.3825  -32.6919   25.0239 H   0  0  0  0  0  0
  -28.0809  -31.8439   26.5305 H   0  0  0  0  0  0
  -28.2621  -38.0089   24.7506 H   0  0  0  0  0  0
  -28.1088  -36.2623   24.6309 H   0  0  0  0  0  0
  -27.2303  -37.1477   25.8854 H   0  0  0  0  0  0
  -20.9353  -29.8724   21.6906 H   0  0  0  0  0  0
  -26.0223  -38.2896   24.1358 H   0  0  0  0  0  0
  -32.2788  -18.7707   23.4795 H   0  0  0  0  0  0
  -31.4249  -16.4731   23.3088 H   0  0  0  0  0  0
  -29.7701  -17.3790   19.4252 H   0  0  0  0  0  0
  -28.2439  -25.6466   21.7782 H   0  0  0  0  0  0
  -33.0271  -20.7535   22.3406 H   0  0  0  0  0  0
  -31.4286  -21.4775   22.1732 H   0  0  0  0  0  0
  -32.4629  -21.2220   20.7615 H   0  0  0  0  0  0
  -26.1788  -23.0273   19.5914 H   0  0  0  0  0  0
  -26.8232  -21.4956   20.1598 H   0  0  0  0  0  0
  -27.0050  -21.9607   18.4604 H   0  0  0  0  0  0
  -30.2596  -19.4056   18.3484 H   0  0  0  0  0  0
  -31.4771  -20.4629   18.9445 H   0  0  0  0  0  0
  -29.2108  -15.1850   21.6840 H   0  0  0  0  0  0
  -28.5434  -20.5932   19.5752 H   0  0  0  0  0  0
  1 25  1  0  0  0
  1 30  2  0  0  0
  1 84  1  0  0  0
  2  3  1  0  0  0
  2 25  1  0  0  0
  2 87  1  0  0  0
  2 88  1  0  0  0
  3  4  1  0  0  0
  3 89  1  0  0  0
  3 90  1  0  0  0
  4  5  1  0  0  0
  4 91  1  0  0  0
  4 92  1  0  0  0
  5  6  1  0  0  0
  5 26  1  0  0  0
  5 93  1  0  0  0
  6 25  1  0  0  0
  6 94  1  0  0  0
  6 95  1  0  0  0
  7  8  2  0  0  0
  7 26  1  0  0  0
  7 29  1  0  0  0
  8  9  1  0  0  0
  8 22  1  0  0  0
  9 10  1  0  0  0
  9 27  2  0  0  0
 10 11  2  0  0  0
 10 15  1  0  0  0
 11 12  1  0  0  0
 11 96  1  0  0  0
 12 13  2  0  0  0
 12 97  1  0  0  0
 13 14  1  0  0  0
 13 31  1  0  0  0
 14 15  2  0  0  0
 14 98  1  0  0  0
 15 99  1  0  0  0
 16 17  2  0  0  0
 16 21  1  0  0  0
 16 31  1  0  0  0
 17 18  1  0  0  0
 17100  1  0  0  0
 18 19  2  0  0  0
 18101  1  0  0  0
 19 20  1  0  0  0
 19 24  1  0  0  0
 20 21  2  0  0  0
 20102  1  0  0  0
 21 23  1  0  0  0
 22 28  1  0  0  0
 22 32  2  0  0  0
 26 27  1  0  0  0
 28103  1  0  0  0
 28104  1  0  0  0
 29105  1  0  0  0
 29106  1  0  0  0
 33 34  1  0  0  0
 33 66  1  0  0  0
 33 70  2  0  0  0
 34 36  1  0  0  0
 34 59  1  0  0  0
 34107  1  0  0  0
 35 44  2  0  0  0
 35 45  1  0  0  0
 35 68  1  0  0  0
 36 56  1  0  0  0
 36108  1  0  0  0
 37 39  1  0  0  0
 37 47  1  0  0  0
 37 66  1  0  0  0
 37109  1  0  0  0
 38 43  2  0  0  0
 38 46  1  0  0  0
 38 47  1  0  0  0
 39 64  1  0  0  0
 39 67  2  0  0  0
 40 52  1  0  0  0
 40 53  2  0  0  0
 40 58  1  0  0  0
 41110  1  0  0  0
 41111  1  0  0  0
 41112  1  0  0  0
 41 48  1  0  0  0
 42 43  1  0  0  0
 42 66  1  0  0  0
 42113  1  0  0  0
 42114  1  0  0  0
 43 44  1  0  0  0
 44115  1  0  0  0
 45 46  2  0  0  0
 45116  1  0  0  0
 46117  1  0  0  0
 47118  1  0  0  0
 47119  1  0  0  0
 48 56  1  0  0  0
 48 65  1  0  0  0
 48120  1  0  0  0
 49 50  1  0  0  0
 49 53  1  0  0  0
 49 64  1  0  0  0
 49121  1  0  0  0
 50 51  1  0  0  0
 50122  1  0  0  0
 50123  1  0  0  0
 51 52  1  0  0  0
 51124  1  0  0  0
 51125  1  0  0  0
 52126  1  0  0  0
 52127  1  0  0  0
 53 54  1  0  0  0
 54 55  2  0  0  0
 54128  1  0  0  0
 55 57  1  0  0  0
 55129  1  0  0  0
 56 69  2  0  0  0
 57 58  2  0  0  0
 57130  1  0  0  0
 58131  1  0  0  0
 59 60  1  0  0  0
 59 61  1  0  0  0
 59 62  1  0  0  0
 60132  1  0  0  0
 60133  1  0  0  0
 60134  1  0  0  0
 61135  1  0  0  0
 61136  1  0  0  0
 61137  1  0  0  0
 62138  1  0  0  0
 62139  1  0  0  0
 62140  1  0  0  0
 63 65  1  0  0  0
 63141  1  0  0  0
 63142  1  0  0  0
 63143  1  0  0  0
 64144  1  0  0  0
 65145  1  0  0  0
 68 78  1  0  0  0
 71 78  2  0  0  0
 71 79  2  0  0  0
 72 73  2  0  0  0
 72 75  1  0  0  0
 72146  1  0  0  0
 73 77  1  0  0  0
 73147  1  0  0  0
 74 76  1  0  0  0
 74 77  2  0  0  0
 74148  1  0  0  0
 75 76  2  0  0  0
 75 81  1  0  0  0
 76 83  1  0  0  0
 77 84  1  0  0  0
 78149  1  0  0  0
 79 80  1  0  0  0
 79 82  1  0  0  0
 80 85  1  0  0  0
 80 86  2  0  0  0
 81150  1  0  0  0
 81151  1  0  0  0
 81152  1  0  0  0
 82153  1  0  0  0
 82154  1  0  0  0
 82155  1  0  0  0
 83 85  1  0  0  0
 83156  1  0  0  0
 83157  1  0  0  0
 84158  1  0  0  0
 85159  1  0  0  0
M  ISO  4   1 100  68 101  78 101  84 100
M  END
> <chiral flag>
0

> <version>
0

> <s_m_source_file>
/data/baiqing/PycharmProjects/Reinvent-master-3.2/result/LINK_invent/BTK/process_docking_weight1_custom_product_contain_oxygen_bond_distance_aromatic_linkinvent_7_9_3/rearranged_h_0053.sdf

> <i_m_source_file_index>
29

> <r_mmod_Potential_Energy-OPLS-2005>
-211.26676940918

> <r_mmod_Stretch_Energy-OPLS-2005>
37.3760261535645

> <r_mmod_Bend_Energy-OPLS-2005>
88.8583374023438

> <r_mmod_Torsional_Energy-OPLS-2005>
169.68782043457

> <r_mmod_Improper_Torsional_Energy-OPLS-2005>
2.64129853248596

> <r_mmod_Van_der_Waal_Energy-OPLS-2005>
153.681930541992

> <r_mmod_Electrostatic_Energy-OPLS-2005>
-445.766632080078

> <r_mmod_Solvation_Energy-OPLS-2005>
-228.035034179688

> <b_mmod_Minimization_Converged-OPLS-2005>
0

> <r_mmod_RMS_Derivative-OPLS-2005>
4.70202922821045

$$$$
29
                    3D
 Structure written by MMmdl.
159167  0  0  1  0            999 V2000
  -30.6860  -14.5238   20.6189 C   0  0  0  0  0  0
  -30.4456  -12.3559   19.4304 C   0  0  0  0  0  0
  -29.5142  -12.5220   18.2109 C   0  0  0  0  0  0
  -28.0337  -12.3576   18.6191 C   0  0  0  0  0  0
  -27.6626  -13.2066   19.8651 C   0  0  2  0  0  0
  -28.7032  -13.0100   20.9907 C   0  0  0  0  0  0
  -25.2613  -13.8138   20.5687 C   0  0  0  0  0  0
  -24.1860  -13.0413   20.9163 C   0  0  0  0  0  0
  -24.6407  -11.6876   20.8655 C   0  0  0  0  0  0
  -23.9082  -10.4261   21.0330 C   0  0  0  0  0  0
  -24.3622   -9.4217   21.9138 C   0  0  0  0  0  0
  -23.6304   -8.2252   22.0742 C   0  0  0  0  0  0
  -22.4299   -8.0269   21.3550 C   0  0  0  0  0  0
  -21.9919   -9.0232   20.4653 C   0  0  0  0  0  0
  -22.7225  -10.2104   20.3011 C   0  0  0  0  0  0
  -21.6874   -6.0736   22.5277 C   0  0  0  0  0  0
  -21.4019   -6.5635   23.8208 C   0  0  0  0  0  0
  -21.3665   -5.6788   24.9178 C   0  0  0  0  0  0
  -21.6048   -4.3058   24.7226 C   0  0  0  0  0  0
  -21.8841   -3.8148   23.4345 C   0  0  0  0  0  0
  -21.9209   -4.6963   22.3402 C   0  0  0  0  0  0
  -22.7892  -13.5227   21.1856 C   0  0  0  0  0  0
  -22.1684   -4.2147   21.0984 F   0  0  0  0  0  0
  -21.5615   -3.4558   25.7747 F   0  0  0  0  0  0
  -30.0333  -13.3370   20.4467 N   0  0  0  0  0  0
  -26.3041  -12.9313   20.3300 N   0  0  0  0  0  0
  -25.9331  -11.6465   20.5665 N   0  0  0  0  0  0
  -22.0550  -12.8189   22.0405 N   0  0  0  0  0  0
  -25.4331  -15.1874   20.4175 N   0  0  0  0  0  0
  -31.8221  -14.7307   20.1823 O   0  0  0  0  0  0
  -21.6661   -6.8874   21.4237 O   0  0  0  0  0  0
  -22.3570  -14.5548   20.6752 O   0  0  0  0  0  0
  -24.6229  -31.8572   23.2143 C   0  0  0  0  0  0
  -25.9129  -32.4751   23.8405 C   0  0  1  0  0  0
  -27.2363  -27.3941   20.0996 C   0  0  0  0  0  0
  -25.5966  -33.8545   24.2360 N   0  0  0  0  0  0
  -23.4070  -30.4912   21.5479 C   0  0  2  0  0  0
  -24.8579  -28.9578   20.1085 C   0  0  0  0  0  0
  -22.7388  -29.4689   22.4949 C   0  0  0  0  0  0
  -18.0278  -28.1394   22.8466 C   0  0  0  0  0  0
  -24.1486  -36.7342   23.2641 C   0  0  0  0  0  0
  -25.9420  -30.8154   21.3719 C   0  0  0  0  0  0
  -26.0183  -29.4468   20.7217 C   0  0  0  0  0  0
  -27.2043  -28.6694   20.7230 C   0  0  0  0  0  0
  -26.0557  -26.9508   19.4519 C   0  0  0  0  0  0
  -24.8759  -27.7112   19.4677 C   0  0  0  0  0  0
  -23.6170  -29.8216   20.1644 C   0  0  0  0  0  0
  -25.4092  -36.3056   24.0333 C   0  0  1  0  0  0
  -20.5858  -28.3699   23.1299 C   0  0  2  0  0  0
  -20.6769  -26.9433   22.5389 C   0  0  0  0  0  0
  -19.5790  -26.6398   21.5160 C   0  0  0  0  0  0
  -18.1956  -26.7950   22.1562 C   0  0  0  0  0  0
  -19.1512  -28.8868   23.2891 C   0  0  0  0  0  0
  -18.9441  -30.1459   23.8943 C   0  0  0  0  0  0
  -17.6434  -30.6599   24.0577 C   0  0  0  0  0  0
  -25.8999  -34.9419   23.5119 C   0  0  0  0  0  0
  -16.5332  -29.9079   23.6354 C   0  0  0  0  0  0
  -16.7258  -28.6493   23.0377 C   0  0  0  0  0  0
  -26.4534  -31.6555   25.0754 C   0  0  0  0  0  0
  -25.3809  -31.3604   26.1514 C   0  0  0  0  0  0
  -27.0421  -30.3008   24.6199 C   0  0  0  0  0  0
  -27.6129  -32.4258   25.7515 C   0  0  0  0  0  0
  -27.5573  -37.1803   24.8458 C   0  0  0  0  0  0
  -21.4116  -29.3083   22.3710 N   0  0  0  0  0  0
  -26.4274  -37.3749   23.9390 N   0  0  0  0  0  0
  -24.6757  -31.0672   22.1035 N   0  0  0  0  0  0
  -23.4116  -28.8207   23.3001 O   0  0  0  0  0  0
  -28.3904  -26.6139   20.1515 O   0  0  0  0  0  0
  -26.5515  -34.8880   22.4643 O   0  0  0  0  0  0
  -23.5428  -32.1310   23.7558 O   0  0  0  0  0  0
  -30.9586  -18.4102   23.2850 C   0  0  0  0  0  0
  -30.8503  -17.0904   22.7991 C   0  0  0  0  0  0
  -29.8355  -17.9549   20.7657 C   0  0  0  0  0  0
  -29.9034  -19.2978   21.2561 C   0  0  0  0  0  0
  -30.4725  -19.5148   22.5474 C   0  0  0  0  0  0
  -30.2737  -16.8460   21.5360 C   0  0  0  0  0  0
  -29.2806  -20.3826   20.4439 C   0  0  0  0  0  0
  -30.5331  -20.8856   23.2218 C   0  0  0  0  0  0
  -29.3326  -24.2212   20.3015 C   0  0  0  0  0  0
  -29.1628  -22.8115   19.6561 C   0  0  0  0  0  0
  -28.2938  -25.2287   19.7321 C   0  0  0  0  0  0
  -28.1997  -20.0914   19.7215 N   0  0  0  0  0  0
  -29.9262  -15.5091   21.1520 N   0  0  0  0  0  0
  -29.7326  -21.6618   20.4218 N   0  3  0  0  0  0
  -31.4872  -12.4847   19.1281 H   0  0  0  0  0  0
  -30.3696  -11.3466   19.8340 H   0  0  0  0  0  0
  -29.7724  -11.7890   17.4463 H   0  0  0  0  0  0
  -29.6759  -13.5029   17.7588 H   0  0  0  0  0  0
  -27.8625  -11.3010   18.8292 H   0  0  0  0  0  0
  -27.3858  -12.6061   17.7793 H   0  0  0  0  0  0
  -27.6958  -14.2503   19.5505 H   0  0  0  0  0  0
  -28.6900  -11.9784   21.3465 H   0  0  0  0  0  0
  -28.4398  -13.6171   21.8567 H   0  0  0  0  0  0
  -25.2765   -9.5732   22.4720 H   0  0  0  0  0  0
  -24.0048   -7.4660   22.7455 H   0  0  0  0  0  0
  -21.0863   -8.8724   19.8961 H   0  0  0  0  0  0
  -22.3661  -10.9638   19.6124 H   0  0  0  0  0  0
  -21.2004   -7.6134   23.9723 H   0  0  0  0  0  0
  -21.1466   -6.0511   25.9086 H   0  0  0  0  0  0
  -22.0614   -2.7608   23.2857 H   0  0  0  0  0  0
  -22.4187  -11.9827   22.4717 H   0  0  0  0  0  0
  -21.1150  -13.1190   22.2591 H   0  0  0  0  0  0
  -24.6628  -15.8371   20.5358 H   0  0  0  0  0  0
  -26.2835  -15.6402   20.1067 H   0  0  0  0  0  0
  -26.7198  -32.5430   23.1173 H   0  0  0  0  0  0
  -25.0189  -33.9649   25.0561 H   0  0  0  0  0  0
  -22.7035  -31.3154   21.4084 H   0  0  0  0  0  0
  -23.3689  -35.9738   23.3267 H   0  0  0  0  0  0
  -24.3631  -36.8979   22.2066 H   0  0  0  0  0  0
  -23.7277  -37.6557   23.6666 H   0  0  0  0  0  0
  -26.0518  -31.5817   20.6018 H   0  0  0  0  0  0
  -26.8297  -30.8695   21.9918 H   0  0  0  0  0  0
  -28.0914  -29.0307   21.2224 H   0  0  0  0  0  0
  -26.0110  -26.0137   18.9189 H   0  0  0  0  0  0
  -23.9934  -27.3348   18.9685 H   0  0  0  0  0  0
  -23.7177  -30.5909   19.3996 H   0  0  0  0  0  0
  -22.7410  -29.2384   19.8734 H   0  0  0  0  0  0
  -25.1259  -36.1910   25.0817 H   0  0  0  0  0  0
  -20.9965  -28.3263   24.1408 H   0  0  0  0  0  0
  -20.5662  -26.2282   23.3542 H   0  0  0  0  0  0
  -21.6645  -26.7480   22.1208 H   0  0  0  0  0  0
  -19.6965  -25.6293   21.1224 H   0  0  0  0  0  0
  -19.6792  -27.3175   20.6665 H   0  0  0  0  0  0
  -17.4204  -26.6687   21.3966 H   0  0  0  0  0  0
  -18.0431  -26.0072   22.8955 H   0  0  0  0  0  0
  -19.7902  -30.7263   24.2342 H   0  0  0  0  0  0
  -17.4979  -31.6283   24.5153 H   0  0  0  0  0  0
  -15.5335  -30.2977   23.7695 H   0  0  0  0  0  0
  -15.8641  -28.0797   22.7136 H   0  0  0  0  0  0
  -24.6074  -30.6838   25.7860 H   0  0  0  0  0  0
  -24.8937  -32.2718   26.4967 H   0  0  0  0  0  0
  -25.8223  -30.8800   27.0260 H   0  0  0  0  0  0
  -26.2994  -29.6648   24.1375 H   0  0  0  0  0  0
  -27.4283  -29.7363   25.4699 H   0  0  0  0  0  0
  -27.8771  -30.4314   23.9324 H   0  0  0  0  0  0
  -27.2813  -33.3570   26.2105 H   0  0  0  0  0  0
  -28.3964  -32.6737   25.0350 H   0  0  0  0  0  0
  -28.0776  -31.8325   26.5408 H   0  0  0  0  0  0
  -28.2543  -38.0139   24.7482 H   0  0  0  0  0  0
  -28.1077  -36.2644   24.6263 H   0  0  0  0  0  0
  -27.2286  -37.1459   25.8860 H   0  0  0  0  0  0
  -20.9251  -29.8816   21.6963 H   0  0  0  0  0  0
  -26.0145  -38.2805   24.1400 H   0  0  0  0  0  0
  -31.3780  -18.5660   24.2703 H   0  0  0  0  0  0
  -31.1610  -16.2727   23.4355 H   0  0  0  0  0  0
  -29.3766  -17.7584   19.8085 H   0  0  0  0  0  0
  -30.7252  -20.7953   24.2921 H   0  0  0  0  0  0
  -29.5911  -21.4277   23.1281 H   0  0  0  0  0  0
  -31.3352  -21.4932   22.8018 H   0  0  0  0  0  0
  -30.3398  -24.5857   20.0964 H   0  0  0  0  0  0
  -29.2259  -24.1550   21.3860 H   0  0  0  0  0  0
  -29.5780  -22.8157   18.6469 H   0  0  0  0  0  0
  -28.0954  -22.6338   19.5343 H   0  0  0  0  0  0
  -27.3293  -24.8153   20.0235 H   0  0  0  0  0  0
  -28.3432  -25.2076   18.6444 H   0  0  0  0  0  0
  -27.8202  -19.1580   19.7714 H   0  0  0  0  0  0
  -27.7086  -20.7725   19.1682 H   0  0  0  0  0  0
  -28.9731  -15.2403   21.3439 H   0  0  0  0  0  0
  -30.6115  -21.8147   20.8983 H   0  0  0  0  0  0
  1 25  1  0  0  0
  1 30  2  0  0  0
  1 83  1  0  0  0
  2  3  1  0  0  0
  2 25  1  0  0  0
  2 85  1  0  0  0
  2 86  1  0  0  0
  3  4  1  0  0  0
  3 87  1  0  0  0
  3 88  1  0  0  0
  4  5  1  0  0  0
  4 89  1  0  0  0
  4 90  1  0  0  0
  5  6  1  0  0  0
  5 26  1  0  0  0
  5 91  1  0  0  0
  6 25  1  0  0  0
  6 92  1  0  0  0
  6 93  1  0  0  0
  7  8  2  0  0  0
  7 26  1  0  0  0
  7 29  1  0  0  0
  8  9  1  0  0  0
  8 22  1  0  0  0
  9 10  1  0  0  0
  9 27  2  0  0  0
 10 11  2  0  0  0
 10 15  1  0  0  0
 11 12  1  0  0  0
 11 94  1  0  0  0
 12 13  2  0  0  0
 12 95  1  0  0  0
 13 14  1  0  0  0
 13 31  1  0  0  0
 14 15  2  0  0  0
 14 96  1  0  0  0
 15 97  1  0  0  0
 16 17  2  0  0  0
 16 21  1  0  0  0
 16 31  1  0  0  0
 17 18  1  0  0  0
 17 98  1  0  0  0
 18 19  2  0  0  0
 18 99  1  0  0  0
 19 20  1  0  0  0
 19 24  1  0  0  0
 20 21  2  0  0  0
 20100  1  0  0  0
 21 23  1  0  0  0
 22 28  1  0  0  0
 22 32  2  0  0  0
 26 27  1  0  0  0
 28101  1  0  0  0
 28102  1  0  0  0
 29103  1  0  0  0
 29104  1  0  0  0
 33 34  1  0  0  0
 33 66  1  0  0  0
 33 70  2  0  0  0
 34 36  1  0  0  0
 34 59  1  0  0  0
 34105  1  0  0  0
 35 44  2  0  0  0
 35 45  1  0  0  0
 35 68  1  0  0  0
 36 56  1  0  0  0
 36106  1  0  0  0
 37 39  1  0  0  0
 37 47  1  0  0  0
 37 66  1  0  0  0
 37107  1  0  0  0
 38 43  2  0  0  0
 38 46  1  0  0  0
 38 47  1  0  0  0
 39 64  1  0  0  0
 39 67  2  0  0  0
 40 52  1  0  0  0
 40 53  2  0  0  0
 40 58  1  0  0  0
 41108  1  0  0  0
 41109  1  0  0  0
 41110  1  0  0  0
 41 48  1  0  0  0
 42 43  1  0  0  0
 42 66  1  0  0  0
 42111  1  0  0  0
 42112  1  0  0  0
 43 44  1  0  0  0
 44113  1  0  0  0
 45 46  2  0  0  0
 45114  1  0  0  0
 46115  1  0  0  0
 47116  1  0  0  0
 47117  1  0  0  0
 48 56  1  0  0  0
 48 65  1  0  0  0
 48118  1  0  0  0
 49 50  1  0  0  0
 49 53  1  0  0  0
 49 64  1  0  0  0
 49119  1  0  0  0
 50 51  1  0  0  0
 50120  1  0  0  0
 50121  1  0  0  0
 51 52  1  0  0  0
 51122  1  0  0  0
 51123  1  0  0  0
 52124  1  0  0  0
 52125  1  0  0  0
 53 54  1  0  0  0
 54 55  2  0  0  0
 54126  1  0  0  0
 55 57  1  0  0  0
 55127  1  0  0  0
 56 69  2  0  0  0
 57 58  2  0  0  0
 57128  1  0  0  0
 58129  1  0  0  0
 59 60  1  0  0  0
 59 61  1  0  0  0
 59 62  1  0  0  0
 60130  1  0  0  0
 60131  1  0  0  0
 60132  1  0  0  0
 61133  1  0  0  0
 61134  1  0  0  0
 61135  1  0  0  0
 62136  1  0  0  0
 62137  1  0  0  0
 62138  1  0  0  0
 63 65  1  0  0  0
 63139  1  0  0  0
 63140  1  0  0  0
 63141  1  0  0  0
 64142  1  0  0  0
 65143  1  0  0  0
 68 81  1  0  0  0
 71 72  2  0  0  0
 71 75  1  0  0  0
 71144  1  0  0  0
 72 76  1  0  0  0
 72145  1  0  0  0
 73 74  1  0  0  0
 73 76  2  0  0  0
 73146  1  0  0  0
 74 75  2  0  0  0
 74 77  1  0  0  0
 75 78  1  0  0  0
 76 83  1  0  0  0
 77 82  1  0  0  0
 77 84  2  0  0  0
 78147  1  0  0  0
 78148  1  0  0  0
 78149  1  0  0  0
 79 80  1  0  0  0
 79 81  1  0  0  0
 79150  1  0  0  0
 79151  1  0  0  0
 80 84  1  0  0  0
 80152  1  0  0  0
 80153  1  0  0  0
 81154  1  0  0  0
 81155  1  0  0  0
 82156  1  0  0  0
 82157  1  0  0  0
 83158  1  0  0  0
 84159  1  0  0  0
M  CHG  1  84   1
M  ISO  4   1 100  68 101  81 101  83 100
M  END
> <chiral flag>
0

> <version>
0

> <s_m_source_file>
/data/baiqing/PycharmProjects/Reinvent-master-3.2/result/LINK_invent/BTK/process_docking_weight1_custom_product_contain_oxygen_bond_distance_aromatic_linkinvent_7_9_3/rearranged_h_0053.sdf

> <i_m_source_file_index>
30

> <r_mmod_Potential_Energy-OPLS-2005>
-199.314025878906

> <r_mmod_Stretch_Energy-OPLS-2005>
48.8166313171387

> <r_mmod_Bend_Energy-OPLS-2005>
110.469284057617

> <r_mmod_Torsional_Energy-OPLS-2005>
233.003997802734

> <r_mmod_Improper_Torsional_Energy-OPLS-2005>
5.40645599365234

> <r_mmod_Van_der_Waal_Energy-OPLS-2005>
164.308883666992

> <r_mmod_Electrostatic_Energy-OPLS-2005>
-358.347869873047

> <r_mmod_Solvation_Energy-OPLS-2005>
-425.434387207031

> <b_mmod_Minimization_Converged-OPLS-2005>
0

> <r_mmod_RMS_Derivative-OPLS-2005>
4.35342788696289

$$$$
30
                    3D
 Structure written by MMmdl.
163172  0  0  1  0            999 V2000
  -30.6155  -14.7719   20.4467 C   0  0  0  0  0  0
  -30.4260  -12.4679   19.4906 C   0  0  0  0  0  0
  -29.5075  -12.5197   18.2473 C   0  0  0  0  0  0
  -28.0371  -12.3301   18.6630 C   0  0  0  0  0  0
  -27.6423  -13.2377   19.8570 C   0  0  2  0  0  0
  -28.6858  -13.1785   20.9951 C   0  0  0  0  0  0
  -25.2509  -13.8211   20.5692 C   0  0  0  0  0  0
  -24.1829  -13.0431   20.9232 C   0  0  0  0  0  0
  -24.6425  -11.6924   20.8761 C   0  0  0  0  0  0
  -23.9093  -10.4280   21.0411 C   0  0  0  0  0  0
  -24.3635   -9.4201   21.9192 C   0  0  0  0  0  0
  -23.6317   -8.2231   22.0749 C   0  0  0  0  0  0
  -22.4292   -8.0285   21.3540 C   0  0  0  0  0  0
  -21.9931   -9.0253   20.4629 C   0  0  0  0  0  0
  -22.7262  -10.2128   20.3047 C   0  0  0  0  0  0
  -21.6854   -6.0752   22.5302 C   0  0  0  0  0  0
  -21.4017   -6.5661   23.8237 C   0  0  0  0  0  0
  -21.3647   -5.6797   24.9190 C   0  0  0  0  0  0
  -21.6026   -4.3065   24.7227 C   0  0  0  0  0  0
  -21.8821   -3.8173   23.4354 C   0  0  0  0  0  0
  -21.9191   -4.6987   22.3410 C   0  0  0  0  0  0
  -22.7839  -13.5239   21.1886 C   0  0  0  0  0  0
  -22.1667   -4.2182   21.0988 F   0  0  0  0  0  0
  -21.5611   -3.4541   25.7735 F   0  0  0  0  0  0
  -29.9884  -13.5395   20.4220 N   0  0  0  0  0  0
  -26.2954  -12.9417   20.3339 N   0  0  0  0  0  0
  -25.9382  -11.6548   20.5808 N   0  0  0  0  0  0
  -22.0494  -12.8163   22.0404 N   0  0  0  0  0  0
  -25.4277  -15.1904   20.4132 N   0  0  0  0  0  0
  -31.7923  -14.8482   20.0765 O   0  0  0  0  0  0
  -21.6647   -6.8892   21.4250 O   0  0  0  0  0  0
  -22.3505  -14.5499   20.6729 O   0  0  0  0  0  0
  -24.6277  -31.8552   23.1957 C   0  0  0  0  0  0
  -25.9114  -32.4778   23.8317 C   0  0  1  0  0  0
  -27.1930  -27.2554   20.1556 C   0  0  0  0  0  0
  -25.5935  -33.8594   24.2278 N   0  0  0  0  0  0
  -23.4222  -30.4830   21.5388 C   0  0  2  0  0  0
  -24.8707  -28.9423   20.0924 C   0  0  0  0  0  0
  -22.7475  -29.4622   22.4916 C   0  0  0  0  0  0
  -18.0305  -28.1354   22.8572 C   0  0  0  0  0  0
  -24.1488  -36.7280   23.2659 C   0  0  0  0  0  0
  -25.9673  -30.7760   21.3736 C   0  0  0  0  0  0
  -26.0392  -29.3986   20.7171 C   0  0  0  0  0  0
  -27.2030  -28.5630   20.7523 C   0  0  0  0  0  0
  -26.0257  -26.8906   19.4479 C   0  0  0  0  0  0
  -24.8737  -27.6993   19.4404 C   0  0  0  0  0  0
  -23.6379  -29.8255   20.1521 C   0  0  0  0  0  0
  -25.4131  -36.3089   24.0336 C   0  0  1  0  0  0
  -20.5916  -28.3654   23.1320 C   0  0  2  0  0  0
  -20.6808  -26.9391   22.5432 C   0  0  0  0  0  0
  -19.5780  -26.6348   21.5260 C   0  0  0  0  0  0
  -18.1954  -26.7915   22.1647 C   0  0  0  0  0  0
  -19.1574  -28.8832   23.2920 C   0  0  0  0  0  0
  -18.9499  -30.1464   23.8862 C   0  0  0  0  0  0
  -17.6489  -30.6576   24.0571 C   0  0  0  0  0  0
  -25.9056  -34.9455   23.5095 C   0  0  0  0  0  0
  -16.5379  -29.9087   23.6329 C   0  0  0  0  0  0
  -16.7278  -28.6487   23.0374 C   0  0  0  0  0  0
  -26.4490  -31.6599   25.0694 C   0  0  0  0  0  0
  -25.3717  -31.3758   26.1413 C   0  0  0  0  0  0
  -27.0338  -30.3059   24.6102 C   0  0  0  0  0  0
  -27.6041  -32.4367   25.7466 C   0  0  0  0  0  0
  -27.5563  -37.1802   24.8473 C   0  0  0  0  0  0
  -21.4183  -29.3029   22.3684 N   0  0  0  0  0  0
  -26.4249  -37.3829   23.9476 N   0  0  0  0  0  0
  -24.6919  -31.0554   22.0917 N   0  0  0  0  0  0
  -23.4193  -28.8253   23.3058 O   0  0  0  0  0  0
  -28.1912  -26.2592   20.3246 O   0  0  0  0  0  0
  -26.5594  -34.8906   22.4643 O   0  0  0  0  0  0
  -23.5424  -32.1380   23.7261 O   0  0  0  0  0  0
  -30.4861  -18.6372   18.1377 C   0  0  0  0  0  0
  -30.3810  -17.3938   18.7903 C   0  0  0  0  0  0
  -29.6013  -18.5610   20.7715 C   0  0  0  0  0  0
  -30.2022  -19.8595   18.7901 C   0  0  0  0  0  0
  -29.6886  -19.8699   20.1183 C   0  0  0  0  0  0
  -29.9750  -17.2933   20.1417 C   0  0  0  0  0  0
  -26.7825  -24.7528   21.6409 C   0  0  0  0  0  0
  -27.7982  -24.9051   20.6679 C   0  0  0  0  0  0
  -25.9721  -23.6088   21.5948 C   0  0  0  0  0  0
  -28.6899  -23.7252   20.2496 C   0  0  0  0  0  0
  -25.0788  -23.3724   22.5895 C   0  0  0  0  0  0
  -25.9486  -22.6850   20.3979 C   0  0  0  0  0  0
  -27.0973  -21.7187   20.5094 C   0  0  0  0  0  0
  -30.5590  -21.1351   18.0357 C   0  0  0  0  0  0
  -29.4581  -21.2766   20.8675 C   0  0  0  0  0  0
  -28.4188  -22.3571   20.5045 N   0  0  0  0  0  0
  -29.8932  -15.9272   20.7497 N   0  0  0  0  0  0
  -26.5624  -25.6534   22.4908 O   0  5  0  0  0  0
  -29.7947  -24.0069   19.7850 O   0  0  0  0  0  0
  -31.4721  -12.5788   19.1964 H   0  0  0  0  0  0
  -30.3590  -11.4960   19.9815 H   0  0  0  0  0  0
  -29.7991  -11.7515   17.5303 H   0  0  0  0  0  0
  -29.6245  -13.4779   17.7390 H   0  0  0  0  0  0
  -27.9087  -11.2840   18.9420 H   0  0  0  0  0  0
  -27.3716  -12.5011   17.8156 H   0  0  0  0  0  0
  -27.6348  -14.2556   19.4702 H   0  0  0  0  0  0
  -28.7288  -12.1758   21.4233 H   0  0  0  0  0  0
  -28.4153  -13.8453   21.8142 H   0  0  0  0  0  0
  -25.2771   -9.5678   22.4780 H   0  0  0  0  0  0
  -24.0034   -7.4608   22.7456 H   0  0  0  0  0  0
  -21.0877   -8.8757   19.8931 H   0  0  0  0  0  0
  -22.3731  -10.9662   19.6156 H   0  0  0  0  0  0
  -21.2011   -7.6175   23.9745 H   0  0  0  0  0  0
  -21.1460   -6.0536   25.9087 H   0  0  0  0  0  0
  -22.0602   -2.7646   23.2843 H   0  0  0  0  0  0
  -22.4137  -11.9833   22.4765 H   0  0  0  0  0  0
  -21.1109  -13.1174   22.2618 H   0  0  0  0  0  0
  -24.6643  -15.8527   20.4918 H   0  0  0  0  0  0
  -26.2865  -15.6146   20.0843 H   0  0  0  0  0  0
  -26.7156  -32.5405   23.1002 H   0  0  0  0  0  0
  -25.0231  -33.9794   25.0503 H   0  0  0  0  0  0
  -22.7088  -31.2982   21.3995 H   0  0  0  0  0  0
  -23.3745  -35.9603   23.3290 H   0  0  0  0  0  0
  -24.3589  -36.8895   22.2073 H   0  0  0  0  0  0
  -23.7168  -37.6457   23.6656 H   0  0  0  0  0  0
  -26.0954  -31.5329   20.5987 H   0  0  0  0  0  0
  -26.8438  -30.8303   22.0042 H   0  0  0  0  0  0
  -28.0704  -28.8829   21.3099 H   0  0  0  0  0  0
  -25.9731  -25.9214   18.9687 H   0  0  0  0  0  0
  -23.9828  -27.3544   18.9321 H   0  0  0  0  0  0
  -23.7510  -30.6031   19.3976 H   0  0  0  0  0  0
  -22.7498  -29.2665   19.8487 H   0  0  0  0  0  0
  -25.1292  -36.1895   25.0805 H   0  0  0  0  0  0
  -21.0004  -28.3182   24.1434 H   0  0  0  0  0  0
  -20.5821  -26.2237   23.3637 H   0  0  0  0  0  0
  -21.6665  -26.7470   22.1174 H   0  0  0  0  0  0
  -19.6939  -25.6263   21.1273 H   0  0  0  0  0  0
  -19.6700  -27.3179   20.6821 H   0  0  0  0  0  0
  -17.4258  -26.6758   21.3972 H   0  0  0  0  0  0
  -18.0234  -26.0043   22.8993 H   0  0  0  0  0  0
  -19.7974  -30.7336   24.2131 H   0  0  0  0  0  0
  -17.5032  -31.6237   24.5205 H   0  0  0  0  0  0
  -15.5386  -30.2950   23.7655 H   0  0  0  0  0  0
  -15.8679  -28.0743   22.7096 H   0  0  0  0  0  0
  -24.5930  -30.7043   25.7787 H   0  0  0  0  0  0
  -24.8868  -32.2959   26.4725 H   0  0  0  0  0  0
  -25.8061  -30.9060   27.0249 H   0  0  0  0  0  0
  -26.2912  -29.6831   24.1114 H   0  0  0  0  0  0
  -27.4093  -29.7267   25.4555 H   0  0  0  0  0  0
  -27.8723  -30.4422   23.9286 H   0  0  0  0  0  0
  -27.2635  -33.3759   26.1840 H   0  0  0  0  0  0
  -28.3922  -32.6766   25.0323 H   0  0  0  0  0  0
  -28.0561  -31.8610   26.5529 H   0  0  0  0  0  0
  -28.2566  -38.0133   24.7586 H   0  0  0  0  0  0
  -28.1048  -36.2647   24.6156 H   0  0  0  0  0  0
  -27.2301  -37.1265   25.8882 H   0  0  0  0  0  0
  -20.9296  -29.8692   21.6901 H   0  0  0  0  0  0
  -26.0081  -38.2868   24.1511 H   0  0  0  0  0  0
  -30.8358  -18.6501   17.1154 H   0  0  0  0  0  0
  -30.6406  -16.5075   18.2286 H   0  0  0  0  0  0
  -29.2874  -18.5298   21.8078 H   0  0  0  0  0  0
  -24.9894  -23.9901   23.4728 H   0  0  0  0  0  0
  -24.4149  -22.5204   22.5489 H   0  0  0  0  0  0
  -26.0070  -23.2614   19.4740 H   0  0  0  0  0  0
  -25.0046  -22.1401   20.3496 H   0  0  0  0  0  0
  -27.0367  -20.9849   19.7029 H   0  0  0  0  0  0
  -26.9649  -21.1514   21.4332 H   0  0  0  0  0  0
  -31.3721  -20.9429   17.3333 H   0  0  0  0  0  0
  -30.9193  -21.9186   18.6964 H   0  0  0  0  0  0
  -29.7123  -21.5134   17.4637 H   0  0  0  0  0  0
  -30.4335  -21.7615   20.9093 H   0  0  0  0  0  0
  -29.2432  -21.0259   21.9089 H   0  0  0  0  0  0
  -29.0781  -15.7691   21.3210 H   0  0  0  0  0  0
  1 25  1  0  0  0
  1 30  2  0  0  0
  1 87  1  0  0  0
  2  3  1  0  0  0
  2 25  1  0  0  0
  2 90  1  0  0  0
  2 91  1  0  0  0
  3  4  1  0  0  0
  3 92  1  0  0  0
  3 93  1  0  0  0
  4  5  1  0  0  0
  4 94  1  0  0  0
  4 95  1  0  0  0
  5  6  1  0  0  0
  5 26  1  0  0  0
  5 96  1  0  0  0
  6 25  1  0  0  0
  6 97  1  0  0  0
  6 98  1  0  0  0
  7  8  2  0  0  0
  7 26  1  0  0  0
  7 29  1  0  0  0
  8  9  1  0  0  0
  8 22  1  0  0  0
  9 10  1  0  0  0
  9 27  2  0  0  0
 10 11  2  0  0  0
 10 15  1  0  0  0
 11 12  1  0  0  0
 11 99  1  0  0  0
 12 13  2  0  0  0
 12100  1  0  0  0
 13 14  1  0  0  0
 13 31  1  0  0  0
 14 15  2  0  0  0
 14101  1  0  0  0
 15102  1  0  0  0
 16 17  2  0  0  0
 16 21  1  0  0  0
 16 31  1  0  0  0
 17 18  1  0  0  0
 17103  1  0  0  0
 18 19  2  0  0  0
 18104  1  0  0  0
 19 20  1  0  0  0
 19 24  1  0  0  0
 20 21  2  0  0  0
 20105  1  0  0  0
 21 23  1  0  0  0
 22 28  1  0  0  0
 22 32  2  0  0  0
 26 27  1  0  0  0
 28106  1  0  0  0
 28107  1  0  0  0
 29108  1  0  0  0
 29109  1  0  0  0
 33 34  1  0  0  0
 33 66  1  0  0  0
 33 70  2  0  0  0
 34 36  1  0  0  0
 34 59  1  0  0  0
 34110  1  0  0  0
 35 44  2  0  0  0
 35 45  1  0  0  0
 35 68  1  0  0  0
 36 56  1  0  0  0
 36111  1  0  0  0
 37 39  1  0  0  0
 37 47  1  0  0  0
 37 66  1  0  0  0
 37112  1  0  0  0
 38 43  2  0  0  0
 38 46  1  0  0  0
 38 47  1  0  0  0
 39 64  1  0  0  0
 39 67  2  0  0  0
 40 52  1  0  0  0
 40 53  2  0  0  0
 40 58  1  0  0  0
 41113  1  0  0  0
 41114  1  0  0  0
 41115  1  0  0  0
 41 48  1  0  0  0
 42 43  1  0  0  0
 42 66  1  0  0  0
 42116  1  0  0  0
 42117  1  0  0  0
 43 44  1  0  0  0
 44118  1  0  0  0
 45 46  2  0  0  0
 45119  1  0  0  0
 46120  1  0  0  0
 47121  1  0  0  0
 47122  1  0  0  0
 48 56  1  0  0  0
 48 65  1  0  0  0
 48123  1  0  0  0
 49 50  1  0  0  0
 49 53  1  0  0  0
 49 64  1  0  0  0
 49124  1  0  0  0
 50 51  1  0  0  0
 50125  1  0  0  0
 50126  1  0  0  0
 51 52  1  0  0  0
 51127  1  0  0  0
 51128  1  0  0  0
 52129  1  0  0  0
 52130  1  0  0  0
 53 54  1  0  0  0
 54 55  2  0  0  0
 54131  1  0  0  0
 55 57  1  0  0  0
 55132  1  0  0  0
 56 69  2  0  0  0
 57 58  2  0  0  0
 57133  1  0  0  0
 58134  1  0  0  0
 59 60  1  0  0  0
 59 61  1  0  0  0
 59 62  1  0  0  0
 60135  1  0  0  0
 60136  1  0  0  0
 60137  1  0  0  0
 61138  1  0  0  0
 61139  1  0  0  0
 61140  1  0  0  0
 62141  1  0  0  0
 62142  1  0  0  0
 62143  1  0  0  0
 63 65  1  0  0  0
 63144  1  0  0  0
 63145  1  0  0  0
 63146  1  0  0  0
 64147  1  0  0  0
 65148  1  0  0  0
 68 78  1  0  0  0
 71 72  2  0  0  0
 71 74  1  0  0  0
 71149  1  0  0  0
 72 76  1  0  0  0
 72150  1  0  0  0
 73 75  1  0  0  0
 73 76  2  0  0  0
 73151  1  0  0  0
 74 75  2  0  0  0
 74 84  1  0  0  0
 75 85  1  0  0  0
 76 87  1  0  0  0
 77 78  2  0  0  0
 77 79  1  0  0  0
 77 88  1  0  0  0
 78 80  1  0  0  0
 79 81  2  0  0  0
 79 82  1  0  0  0
 80 86  1  0  0  0
 80 89  2  0  0  0
 81152  1  0  0  0
 81153  1  0  0  0
 82 83  1  0  0  0
 82154  1  0  0  0
 82155  1  0  0  0
 83 86  1  0  0  0
 83156  1  0  0  0
 83157  1  0  0  0
 84158  1  0  0  0
 84159  1  0  0  0
 84160  1  0  0  0
 85 86  1  0  0  0
 85161  1  0  0  0
 85162  1  0  0  0
 87163  1  0  0  0
M  CHG  1  88  -1
M  ISO  4   1 100  68 101  78 101  87 100
M  END
> <chiral flag>
0

> <version>
0

> <s_m_source_file>
/data/baiqing/PycharmProjects/Reinvent-master-3.2/result/LINK_invent/BTK/process_docking_weight1_custom_product_contain_oxygen_bond_distance_aromatic_linkinvent_7_9_3/rearranged_h_0053.sdf

> <i_m_source_file_index>
31

> <r_mmod_Potential_Energy-OPLS-2005>
201.655731201172

> <r_mmod_Stretch_Energy-OPLS-2005>
161.687622070312

> <r_mmod_Bend_Energy-OPLS-2005>
239.29377746582

> <r_mmod_Torsional_Energy-OPLS-2005>
368.127868652344

> <r_mmod_Improper_Torsional_Energy-OPLS-2005>
8.12909030914307

> <r_mmod_Van_der_Waal_Energy-OPLS-2005>
170.514236450195

> <r_mmod_Electrostatic_Energy-OPLS-2005>
-379.106567382812

> <r_mmod_Solvation_Energy-OPLS-2005>
-477.54248046875

> <b_mmod_Minimization_Converged-OPLS-2005>
0

> <r_mmod_RMS_Derivative-OPLS-2005>
6.86634683609009

$$$$
31
                    3D
 Structure written by MMmdl.
155163  0  0  1  0            999 V2000
  -30.7510  -14.4298   20.6225 C   0  0  0  0  0  0
  -30.4128  -12.2947   19.4343 C   0  0  0  0  0  0
  -29.4939  -12.5232   18.2179 C   0  0  0  0  0  0
  -28.0112  -12.3984   18.6163 C   0  0  0  0  0  0
  -27.6655  -13.2174   19.8874 C   0  0  2  0  0  0
  -28.7050  -12.9908   21.0112 C   0  0  0  0  0  0
  -25.2596  -13.8201   20.5719 C   0  0  0  0  0  0
  -24.1851  -13.0461   20.9182 C   0  0  0  0  0  0
  -24.6410  -11.6934   20.8741 C   0  0  0  0  0  0
  -23.9078  -10.4316   21.0400 C   0  0  0  0  0  0
  -24.3637   -9.4227   21.9172 C   0  0  0  0  0  0
  -23.6323   -8.2253   22.0729 C   0  0  0  0  0  0
  -22.4302   -8.0290   21.3528 C   0  0  0  0  0  0
  -21.9936   -9.0258   20.4623 C   0  0  0  0  0  0
  -22.7252  -10.2144   20.3040 C   0  0  0  0  0  0
  -21.6862   -6.0745   22.5276 C   0  0  0  0  0  0
  -21.4016   -6.5643   23.8213 C   0  0  0  0  0  0
  -21.3670   -5.6793   24.9173 C   0  0  0  0  0  0
  -21.6054   -4.3056   24.7227 C   0  0  0  0  0  0
  -21.8818   -3.8152   23.4347 C   0  0  0  0  0  0
  -21.9196   -4.6972   22.3402 C   0  0  0  0  0  0
  -22.7877  -13.5228   21.1847 C   0  0  0  0  0  0
  -22.1656   -4.2168   21.0979 F   0  0  0  0  0  0
  -21.5639   -3.4528   25.7736 F   0  0  0  0  0  0
  -30.0487  -13.2718   20.4738 N   0  0  0  0  0  0
  -26.3053  -12.9399   20.3444 N   0  0  0  0  0  0
  -25.9349  -11.6536   20.5804 N   0  0  0  0  0  0
  -22.0521  -12.8211   22.0414 N   0  0  0  0  0  0
  -25.4329  -15.1918   20.4140 N   0  0  0  0  0  0
  -31.8332  -14.6220   20.0630 O   0  0  0  0  0  0
  -21.6648   -6.8898   21.4242 O   0  0  0  0  0  0
  -22.3564  -14.5534   20.6701 O   0  0  0  0  0  0
  -24.6142  -31.8710   23.2142 C   0  0  0  0  0  0
  -25.9035  -32.4846   23.8426 C   0  0  1  0  0  0
  -27.2207  -27.4381   20.0904 C   0  0  0  0  0  0
  -25.5894  -33.8641   24.2359 N   0  0  0  0  0  0
  -23.4013  -30.4984   21.5544 C   0  0  2  0  0  0
  -24.8436  -28.9699   20.1127 C   0  0  0  0  0  0
  -22.7410  -29.4667   22.4976 C   0  0  0  0  0  0
  -18.0284  -28.1369   22.8508 C   0  0  0  0  0  0
  -24.1478  -36.7331   23.2631 C   0  0  0  0  0  0
  -25.9309  -30.8359   21.3671 C   0  0  0  0  0  0
  -26.0059  -29.4710   20.7147 C   0  0  0  0  0  0
  -27.1981  -28.7090   20.7089 C   0  0  0  0  0  0
  -26.0474  -26.9703   19.4533 C   0  0  0  0  0  0
  -24.8569  -27.7161   19.4835 C   0  0  0  0  0  0
  -23.6091  -29.8404   20.1657 C   0  0  0  0  0  0
  -25.4095  -36.3132   24.0346 C   0  0  1  0  0  0
  -20.5870  -28.3650   23.1328 C   0  0  2  0  0  0
  -20.6766  -26.9382   22.5426 C   0  0  0  0  0  0
  -19.5738  -26.6366   21.5231 C   0  0  0  0  0  0
  -18.1919  -26.7918   22.1641 C   0  0  0  0  0  0
  -19.1531  -28.8827   23.2922 C   0  0  0  0  0  0
  -18.9454  -30.1434   23.8933 C   0  0  0  0  0  0
  -17.6452  -30.6578   24.0567 C   0  0  0  0  0  0
  -25.9022  -34.9489   23.5153 C   0  0  0  0  0  0
  -16.5347  -29.9080   23.6311 C   0  0  0  0  0  0
  -16.7272  -28.6491   23.0347 C   0  0  0  0  0  0
  -26.4456  -31.6618   25.0747 C   0  0  0  0  0  0
  -25.3740  -31.3709   26.1513 C   0  0  0  0  0  0
  -27.0265  -30.3069   24.6087 C   0  0  0  0  0  0
  -27.6051  -32.4310   25.7510 C   0  0  0  0  0  0
  -27.5593  -37.1816   24.8458 C   0  0  0  0  0  0
  -21.4133  -29.3038   22.3742 N   0  0  0  0  0  0
  -26.4290  -37.3820   23.9420 N   0  0  0  0  0  0
  -24.6679  -31.0809   22.1052 N   0  0  0  0  0  0
  -23.4192  -28.8180   23.2988 O   0  0  0  0  0  0
  -28.3585  -26.6554   20.1198 O   0  0  0  0  0  0
  -26.5574  -34.8940   22.4705 O   0  0  0  0  0  0
  -23.5335  -32.1445   23.7548 O   0  0  0  0  0  0
  -31.1332  -18.8264   20.1698 C   0  0  0  0  0  0
  -31.2702  -17.4904   20.6001 C   0  0  0  0  0  0
  -28.9349  -17.4710   21.2717 C   0  0  0  0  0  0
  -29.8815  -19.4782   20.2325 C   0  0  0  0  0  0
  -30.1502  -16.7755   21.0949 C   0  0  0  0  0  0
  -28.7939  -18.8062   20.8319 C   0  0  0  0  0  0
  -29.0641  -24.3426   20.0781 C   0  0  0  0  0  0
  -28.1565  -25.3057   20.3274 C   0  0  0  0  0  0
  -28.6692  -22.9390   20.2003 C   0  0  0  0  0  0
  -30.9508  -22.3734   20.9803 C   0  0  0  0  0  0
  -29.6762  -20.8079   19.5016 C   0  0  0  0  0  0
  -30.1738  -15.3749   21.3895 N   0  0  0  0  0  0
  -29.7017  -22.0629   20.2786 N   0  0  0  0  0  0
  -27.5014  -22.5572   20.0723 O   0  0  0  0  0  0
  -27.5862  -19.4107   20.9185 F   0  0  0  0  0  0
  -31.4582  -12.3736   19.1333 H   0  0  0  0  0  0
  -30.2934  -11.2812   19.8185 H   0  0  0  0  0  0
  -29.7320  -11.8092   17.4308 H   0  0  0  0  0  0
  -29.6793  -13.5145   17.8008 H   0  0  0  0  0  0
  -27.7947  -11.3418   18.7786 H   0  0  0  0  0  0
  -27.3745  -12.7142   17.7884 H   0  0  0  0  0  0
  -27.7121  -14.2705   19.6107 H   0  0  0  0  0  0
  -28.6649  -11.9595   21.3631 H   0  0  0  0  0  0
  -28.4616  -13.6015   21.8806 H   0  0  0  0  0  0
  -25.2777   -9.5704   22.4752 H   0  0  0  0  0  0
  -24.0043   -7.4636   22.7434 H   0  0  0  0  0  0
  -21.0866   -8.8762   19.8934 H   0  0  0  0  0  0
  -22.3695  -10.9683   19.6153 H   0  0  0  0  0  0
  -21.1995   -7.6149   23.9726 H   0  0  0  0  0  0
  -21.1498   -6.0514   25.9081 H   0  0  0  0  0  0
  -22.0594   -2.7615   23.2824 H   0  0  0  0  0  0
  -22.4132  -11.9872   22.4811 H   0  0  0  0  0  0
  -21.1112  -13.1208   22.2592 H   0  0  0  0  0  0
  -24.6724  -15.8536   20.5267 H   0  0  0  0  0  0
  -26.2903  -15.6261   20.0992 H   0  0  0  0  0  0
  -26.7103  -32.5553   23.1187 H   0  0  0  0  0  0
  -25.0080  -33.9807   25.0530 H   0  0  0  0  0  0
  -22.6904  -31.3164   21.4217 H   0  0  0  0  0  0
  -23.3758  -35.9648   23.3274 H   0  0  0  0  0  0
  -24.3600  -36.8965   22.2058 H   0  0  0  0  0  0
  -23.7206  -37.6520   23.6654 H   0  0  0  0  0  0
  -26.0382  -31.5995   20.5950 H   0  0  0  0  0  0
  -26.8222  -30.8922   21.9806 H   0  0  0  0  0  0
  -28.0916  -29.0829   21.1882 H   0  0  0  0  0  0
  -26.0398  -26.0180   18.9408 H   0  0  0  0  0  0
  -23.9643  -27.3281   19.0122 H   0  0  0  0  0  0
  -23.7233  -30.6221   19.4140 H   0  0  0  0  0  0
  -22.7302  -29.2686   19.8629 H   0  0  0  0  0  0
  -25.1266  -36.2009   25.0842 H   0  0  0  0  0  0
  -20.9983  -28.3206   24.1439 H   0  0  0  0  0  0
  -20.5666  -26.2251   23.3608 H   0  0  0  0  0  0
  -21.6630  -26.7411   22.1213 H   0  0  0  0  0  0
  -19.6879  -25.6275   21.1259 H   0  0  0  0  0  0
  -19.6685  -27.3177   20.6762 H   0  0  0  0  0  0
  -17.4191  -26.6690   21.4042 H   0  0  0  0  0  0
  -18.0304  -26.0055   22.9024 H   0  0  0  0  0  0
  -19.7925  -30.7246   24.2313 H   0  0  0  0  0  0
  -17.5005  -31.6267   24.5145 H   0  0  0  0  0  0
  -15.5343  -30.2991   23.7613 H   0  0  0  0  0  0
  -15.8676  -28.0818   22.7041 H   0  0  0  0  0  0
  -24.5910  -30.7049   25.7868 H   0  0  0  0  0  0
  -24.8926  -32.2851   26.4997 H   0  0  0  0  0  0
  -25.8115  -30.8868   27.0253 H   0  0  0  0  0  0
  -26.2790  -29.6870   24.1123 H   0  0  0  0  0  0
  -27.4030  -29.7267   25.4518 H   0  0  0  0  0  0
  -27.8630  -30.4407   23.9227 H   0  0  0  0  0  0
  -27.2700  -33.3609   26.2116 H   0  0  0  0  0  0
  -28.3862  -32.6864   25.0338 H   0  0  0  0  0  0
  -28.0711  -31.8404   26.5409 H   0  0  0  0  0  0
  -28.2577  -38.0145   24.7558 H   0  0  0  0  0  0
  -28.1119  -36.2685   24.6201 H   0  0  0  0  0  0
  -27.2325  -37.1370   25.8861 H   0  0  0  0  0  0
  -20.9261  -29.8819   21.7033 H   0  0  0  0  0  0
  -26.0183  -38.2893   24.1461 H   0  0  0  0  0  0
  -31.9828  -19.3276   19.7282 H   0  0  0  0  0  0
  -32.2366  -17.0183   20.4928 H   0  0  0  0  0  0
  -28.0690  -16.9648   21.6761 H   0  0  0  0  0  0
  -30.0564  -24.6043   19.7391 H   0  0  0  0  0  0
  -27.1668  -25.0724   20.7003 H   0  0  0  0  0  0
  -30.7963  -23.1150   21.7675 H   0  0  0  0  0  0
  -31.6999  -22.7588   20.2878 H   0  0  0  0  0  0
  -31.3531  -21.4864   21.4678 H   0  0  0  0  0  0
  -28.7476  -20.7103   18.9360 H   0  0  0  0  0  0
  -30.4430  -20.8958   18.7308 H   0  0  0  0  0  0
  -29.3853  -15.0314   21.9177 H   0  0  0  0  0  0
  1 25  1  0  0  0
  1 30  2  0  0  0
  1 82  1  0  0  0
  2  3  1  0  0  0
  2 25  1  0  0  0
  2 86  1  0  0  0
  2 87  1  0  0  0
  3  4  1  0  0  0
  3 88  1  0  0  0
  3 89  1  0  0  0
  4  5  1  0  0  0
  4 90  1  0  0  0
  4 91  1  0  0  0
  5  6  1  0  0  0
  5 26  1  0  0  0
  5 92  1  0  0  0
  6 25  1  0  0  0
  6 93  1  0  0  0
  6 94  1  0  0  0
  7  8  2  0  0  0
  7 26  1  0  0  0
  7 29  1  0  0  0
  8  9  1  0  0  0
  8 22  1  0  0  0
  9 10  1  0  0  0
  9 27  2  0  0  0
 10 11  2  0  0  0
 10 15  1  0  0  0
 11 12  1  0  0  0
 11 95  1  0  0  0
 12 13  2  0  0  0
 12 96  1  0  0  0
 13 14  1  0  0  0
 13 31  1  0  0  0
 14 15  2  0  0  0
 14 97  1  0  0  0
 15 98  1  0  0  0
 16 17  2  0  0  0
 16 21  1  0  0  0
 16 31  1  0  0  0
 17 18  1  0  0  0
 17 99  1  0  0  0
 18 19  2  0  0  0
 18100  1  0  0  0
 19 20  1  0  0  0
 19 24  1  0  0  0
 20 21  2  0  0  0
 20101  1  0  0  0
 21 23  1  0  0  0
 22 28  1  0  0  0
 22 32  2  0  0  0
 26 27  1  0  0  0
 28102  1  0  0  0
 28103  1  0  0  0
 29104  1  0  0  0
 29105  1  0  0  0
 33 34  1  0  0  0
 33 66  1  0  0  0
 33 70  2  0  0  0
 34 36  1  0  0  0
 34 59  1  0  0  0
 34106  1  0  0  0
 35 44  2  0  0  0
 35 45  1  0  0  0
 35 68  1  0  0  0
 36 56  1  0  0  0
 36107  1  0  0  0
 37 39  1  0  0  0
 37 47  1  0  0  0
 37 66  1  0  0  0
 37108  1  0  0  0
 38 43  2  0  0  0
 38 46  1  0  0  0
 38 47  1  0  0  0
 39 64  1  0  0  0
 39 67  2  0  0  0
 40 52  1  0  0  0
 40 53  2  0  0  0
 40 58  1  0  0  0
 41109  1  0  0  0
 41110  1  0  0  0
 41111  1  0  0  0
 41 48  1  0  0  0
 42 43  1  0  0  0
 42 66  1  0  0  0
 42112  1  0  0  0
 42113  1  0  0  0
 43 44  1  0  0  0
 44114  1  0  0  0
 45 46  2  0  0  0
 45115  1  0  0  0
 46116  1  0  0  0
 47117  1  0  0  0
 47118  1  0  0  0
 48 56  1  0  0  0
 48 65  1  0  0  0
 48119  1  0  0  0
 49 50  1  0  0  0
 49 53  1  0  0  0
 49 64  1  0  0  0
 49120  1  0  0  0
 50 51  1  0  0  0
 50121  1  0  0  0
 50122  1  0  0  0
 51 52  1  0  0  0
 51123  1  0  0  0
 51124  1  0  0  0
 52125  1  0  0  0
 52126  1  0  0  0
 53 54  1  0  0  0
 54 55  2  0  0  0
 54127  1  0  0  0
 55 57  1  0  0  0
 55128  1  0  0  0
 56 69  2  0  0  0
 57 58  2  0  0  0
 57129  1  0  0  0
 58130  1  0  0  0
 59 60  1  0  0  0
 59 61  1  0  0  0
 59 62  1  0  0  0
 60131  1  0  0  0
 60132  1  0  0  0
 60133  1  0  0  0
 61134  1  0  0  0
 61135  1  0  0  0
 61136  1  0  0  0
 62137  1  0  0  0
 62138  1  0  0  0
 62139  1  0  0  0
 63 65  1  0  0  0
 63140  1  0  0  0
 63141  1  0  0  0
 63142  1  0  0  0
 64143  1  0  0  0
 65144  1  0  0  0
 68 78  1  0  0  0
 71 72  2  0  0  0
 71 74  1  0  0  0
 71145  1  0  0  0
 72 75  1  0  0  0
 72146  1  0  0  0
 73 75  2  0  0  0
 73 76  1  0  0  0
 73147  1  0  0  0
 74 76  2  0  0  0
 74 81  1  0  0  0
 75 82  1  0  0  0
 76 85  1  0  0  0
 77 78  2  0  0  0
 77 79  1  0  0  0
 77148  1  0  0  0
 78149  1  0  0  0
 79 83  1  0  0  0
 79 84  2  0  0  0
 80 83  1  0  0  0
 80150  1  0  0  0
 80151  1  0  0  0
 80152  1  0  0  0
 81 83  1  0  0  0
 81153  1  0  0  0
 81154  1  0  0  0
 82155  1  0  0  0
M  ISO  4   1 100  68 101  78 101  82 100
M  END
> <chiral flag>
0

> <version>
0

> <s_m_source_file>
/data/baiqing/PycharmProjects/Reinvent-master-3.2/result/LINK_invent/BTK/process_docking_weight1_custom_product_contain_oxygen_bond_distance_aromatic_linkinvent_7_9_3/rearranged_h_0053.sdf

> <i_m_source_file_index>
32

> <r_mmod_Potential_Energy-OPLS-2005>
1.48943519592285

> <r_mmod_Stretch_Energy-OPLS-2005>
37.9175834655762

> <r_mmod_Bend_Energy-OPLS-2005>
95.4009552001953

> <r_mmod_Torsional_Energy-OPLS-2005>
268.900054931641

> <r_mmod_Improper_Torsional_Energy-OPLS-2005>
7.60577344894409

> <r_mmod_Van_der_Waal_Energy-OPLS-2005>
168.740753173828

> <r_mmod_Electrostatic_Energy-OPLS-2005>
-367.781311035156

> <r_mmod_Solvation_Energy-OPLS-2005>
-221.146179199219

> <b_mmod_Minimization_Converged-OPLS-2005>
0

> <r_mmod_RMS_Derivative-OPLS-2005>
2.71493053436279

$$$$
32
                    3D
 Structure written by MMmdl.
157165  0  0  1  0            999 V2000
  -31.7306  -14.5728   20.1360 C   0  0  0  0  0  0
  -30.5775  -12.2619   19.9624 C   0  0  0  0  0  0
  -29.2019  -11.6896   18.8542 C   0  0  0  0  0  0
  -27.5929  -12.4704   18.4453 C   0  0  0  0  0  0
  -27.0026  -14.0906   19.2802 C   0  0  2  0  0  0
  -29.6841  -14.9895   21.0243 C   0  0  0  0  0  0
  -24.8355  -14.0032   20.4802 C   0  0  0  0  0  0
  -23.9543  -13.0904   20.9237 C   0  0  0  0  0  0
  -24.5490  -11.8023   20.8200 C   0  0  0  0  0  0
  -23.9118  -10.4732   21.0046 C   0  0  0  0  0  0
  -24.3796   -9.4768   21.8937 C   0  0  0  0  0  0
  -23.6595   -8.2672   22.0584 C   0  0  0  0  0  0
  -22.4523   -8.0398   21.3478 C   0  0  0  0  0  0
  -22.0150   -9.0170   20.4374 C   0  0  0  0  0  0
  -22.7362  -10.2137   20.2726 C   0  0  0  0  0  0
  -21.7050   -6.0854   22.5361 C   0  0  0  0  0  0
  -21.4172   -6.5710   23.8323 C   0  0  0  0  0  0
  -21.3718   -5.6797   24.9221 C   0  0  0  0  0  0
  -21.6044   -4.3063   24.7218 C   0  0  0  0  0  0
  -21.8808   -3.8187   23.4328 C   0  0  0  0  0  0
  -21.9269   -4.7053   22.3429 C   0  0  0  0  0  0
  -22.5579  -13.4732   21.2245 C   0  0  0  0  0  0
  -22.1665   -4.2240   21.0995 F   0  0  0  0  0  0
  -21.5596   -3.4508   25.7714 F   0  0  0  0  0  0
  -30.8124  -13.7912   20.7231 N   0  0  0  0  0  0
  -25.8652  -13.3257   19.9820 N   0  0  0  0  0  0
  -25.7911  -11.9733   20.3677 N   0  0  0  0  0  0
  -21.8618  -12.7339   22.0692 N   0  0  0  0  0  0
  -24.8239  -15.3794   20.3891 N   0  0  0  0  0  0
  -32.8751  -14.3063   20.2868 O   0  0  0  0  0  0
  -21.6867   -6.8985   21.4305 O   0  0  0  0  0  0
  -22.0958  -14.4963   20.7265 O   0  0  0  0  0  0
  -24.6603  -31.8289   23.1714 C   0  0  0  0  0  0
  -25.9330  -32.4576   23.8150 C   0  0  1  0  0  0
  -27.0521  -26.8415   20.2750 C   0  0  0  0  0  0
  -25.6043  -33.8385   24.2090 N   0  0  0  0  0  0
  -23.4666  -30.4517   21.5223 C   0  0  2  0  0  0
  -24.8937  -28.8388   20.1021 C   0  0  0  0  0  0
  -22.7625  -29.4471   22.4750 C   0  0  0  0  0  0
  -18.0316  -28.1399   22.8473 C   0  0  0  0  0  0
  -24.1515  -36.7211   23.2648 C   0  0  0  0  0  0
  -26.0360  -30.6110   21.4092 C   0  0  0  0  0  0
  -26.0752  -29.1938   20.7683 C   0  0  0  0  0  0
  -27.1672  -28.2124   20.8284 C   0  0  0  0  0  0
  -25.8824  -26.6674   19.5139 C   0  0  0  0  0  0
  -24.8301  -27.6072   19.4372 C   0  0  0  0  0  0
  -23.7004  -29.7903   20.1378 C   0  0  0  0  0  0
  -25.4155  -36.2952   24.0295 C   0  0  1  0  0  0
  -20.5941  -28.3740   23.1194 C   0  0  2  0  0  0
  -20.6797  -26.9431   22.5386 C   0  0  0  0  0  0
  -19.5759  -26.6380   21.5199 C   0  0  0  0  0  0
  -18.1949  -26.7937   22.1626 C   0  0  0  0  0  0
  -19.1579  -28.8881   23.2832 C   0  0  0  0  0  0
  -18.9486  -30.1474   23.8861 C   0  0  0  0  0  0
  -17.6478  -30.6594   24.0552 C   0  0  0  0  0  0
  -25.9127  -34.9336   23.5008 C   0  0  0  0  0  0
  -16.5370  -29.9081   23.6330 C   0  0  0  0  0  0
  -16.7297  -28.6499   23.0355 C   0  0  0  0  0  0
  -26.4589  -31.6484   25.0663 C   0  0  0  0  0  0
  -25.3721  -31.3712   26.1321 C   0  0  0  0  0  0
  -27.0474  -30.2844   24.6380 C   0  0  0  0  0  0
  -27.6099  -32.4258   25.7471 C   0  0  0  0  0  0
  -27.5578  -37.1765   24.8477 C   0  0  0  0  0  0
  -21.4296  -29.3044   22.3527 N   0  0  0  0  0  0
  -26.4299  -37.3687   23.9405 N   0  0  0  0  0  0
  -24.7431  -30.9968   22.0837 N   0  0  0  0  0  0
  -23.4201  -28.8020   23.2959 O   0  0  0  0  0  0
  -27.9144  -25.6362   20.3838 O   0  0  0  0  0  0
  -26.5703  -34.8863   22.4581 O   0  0  0  0  0  0
  -23.5679  -32.1247   23.6848 O   0  0  0  0  0  0
  -29.1868  -14.1087   19.0474 C   0  0  0  0  0  0
  -28.3487  -13.3004   20.7851 C   0  0  0  0  0  0
  -28.1727  -16.4679   19.5374 C   0  0  0  0  0  0
  -29.0392  -15.5540   18.7280 C   0  0  0  0  0  0
  -27.5107  -16.2181   20.8738 C   0  0  0  0  0  0
  -27.4732  -14.6626   21.5466 C   0  0  0  0  0  0
  -27.4671  -20.8225   21.2396 C   0  0  0  0  0  0
  -30.4156  -16.0674   18.3307 C   0  0  0  0  0  0
  -27.2075  -17.8528   21.4710 C   0  0  0  0  0  0
  -27.6987  -22.3526   20.3779 C   0  0  0  0  0  0
  -27.4397  -24.0930   20.8414 C   0  0  0  0  0  0
  -27.4603  -19.3985   20.8037 N   0  0  0  0  0  0
  -31.4965  -15.6475   19.2968 N   0  0  0  0  0  0
  -27.3163  -20.9870   22.4459 O   0  0  0  0  0  0
  -26.7784  -14.4346   23.1126 Cl  0  0  0  0  0  0
  -31.5184  -12.0077   19.4746 H   0  0  0  0  0  0
  -30.5753  -11.5761   20.8093 H   0  0  0  0  0  0
  -28.9528  -10.6870   19.2063 H   0  0  0  0  0  0
  -29.6796  -11.4681   17.8976 H   0  0  0  0  0  0
  -26.8278  -11.7277   18.2346 H   0  0  0  0  0  0
  -27.7553  -12.7989   17.4137 H   0  0  0  0  0  0
  -26.6010  -14.7560   18.5166 H   0  0  0  0  0  0
  -29.6819  -14.8650   22.1175 H   0  0  0  0  0  0
  -30.0005  -16.0382   21.0760 H   0  0  0  0  0  0
  -25.2913   -9.6474   22.4529 H   0  0  0  0  0  0
  -24.0438   -7.5181   22.7346 H   0  0  0  0  0  0
  -21.1249   -8.8473   19.8491 H   0  0  0  0  0  0
  -22.3769  -10.9442   19.5638 H   0  0  0  0  0  0
  -21.2178   -7.6202   23.9934 H   0  0  0  0  0  0
  -21.1534   -6.0414   25.9164 H   0  0  0  0  0  0
  -22.0497   -2.7623   23.2780 H   0  0  0  0  0  0
  -22.2325  -11.8866   22.4723 H   0  0  0  0  0  0
  -20.9014  -12.9770   22.2712 H   0  0  0  0  0  0
  -23.9914  -15.9062   20.6379 H   0  0  0  0  0  0
  -25.5814  -15.9395   20.0232 H   0  0  0  0  0  0
  -26.7384  -32.5076   23.0833 H   0  0  0  0  0  0
  -25.0142  -33.9456   25.0210 H   0  0  0  0  0  0
  -22.7782  -31.2865   21.3683 H   0  0  0  0  0  0
  -23.3763  -35.9560   23.3274 H   0  0  0  0  0  0
  -24.3588  -36.8887   22.2073 H   0  0  0  0  0  0
  -23.7291  -37.6398   23.6713 H   0  0  0  0  0  0
  -26.2226  -31.3446   20.6248 H   0  0  0  0  0  0
  -26.9000  -30.6653   22.0593 H   0  0  0  0  0  0
  -28.0505  -28.4574   21.4041 H   0  0  0  0  0  0
  -25.7284  -25.7145   19.0265 H   0  0  0  0  0  0
  -23.9376  -27.3442   18.8838 H   0  0  0  0  0  0
  -23.8667  -30.5694   19.3919 H   0  0  0  0  0  0
  -22.7992  -29.2693   19.8094 H   0  0  0  0  0  0
  -25.1343  -36.1741   25.0781 H   0  0  0  0  0  0
  -21.0042  -28.3342   24.1312 H   0  0  0  0  0  0
  -20.5666  -26.2360   23.3624 H   0  0  0  0  0  0
  -21.6664  -26.7411   22.1182 H   0  0  0  0  0  0
  -19.6914  -25.6275   21.1251 H   0  0  0  0  0  0
  -19.6681  -27.3182   20.6719 H   0  0  0  0  0  0
  -17.4208  -26.6666   21.4048 H   0  0  0  0  0  0
  -18.0357  -26.0093   22.9035 H   0  0  0  0  0  0
  -19.7957  -30.7304   24.2222 H   0  0  0  0  0  0
  -17.5025  -31.6272   24.5174 H   0  0  0  0  0  0
  -15.5369  -30.2968   23.7670 H   0  0  0  0  0  0
  -15.8699  -28.0802   22.7090 H   0  0  0  0  0  0
  -24.5936  -30.7038   25.7612 H   0  0  0  0  0  0
  -24.8877  -32.2897   26.4629 H   0  0  0  0  0  0
  -25.7954  -30.8935   27.0170 H   0  0  0  0  0  0
  -26.3124  -29.6512   24.1397 H   0  0  0  0  0  0
  -27.4018  -29.7195   25.5016 H   0  0  0  0  0  0
  -27.9070  -30.4014   23.9778 H   0  0  0  0  0  0
  -27.2693  -33.3587   26.1967 H   0  0  0  0  0  0
  -28.3955  -32.6762   25.0330 H   0  0  0  0  0  0
  -28.0722  -31.8425   26.5448 H   0  0  0  0  0  0
  -28.2583  -38.0066   24.7472 H   0  0  0  0  0  0
  -28.1072  -36.2577   24.6355 H   0  0  0  0  0  0
  -27.2275  -37.1478   25.8876 H   0  0  0  0  0  0
  -20.9514  -29.8799   21.6735 H   0  0  0  0  0  0
  -26.0132  -38.2745   24.1370 H   0  0  0  0  0  0
  -29.8925  -13.7192   18.3192 H   0  0  0  0  0  0
  -28.3957  -12.3027   21.1928 H   0  0  0  0  0  0
  -28.2665  -17.5034   19.2497 H   0  0  0  0  0  0
  -30.6908  -15.7165   17.3329 H   0  0  0  0  0  0
  -30.3933  -17.1586   18.2771 H   0  0  0  0  0  0
  -27.7477  -17.8805   22.4150 H   0  0  0  0  0  0
  -26.1623  -17.8647   21.7833 H   0  0  0  0  0  0
  -27.1188  -22.2196   19.4666 H   0  0  0  0  0  0
  -28.7314  -22.2826   20.0369 H   0  0  0  0  0  0
  -27.7312  -24.0847   21.8943 H   0  0  0  0  0  0
  -26.3559  -24.1713   20.8863 H   0  0  0  0  0  0
  -27.5978  -19.3547   19.8023 H   0  0  0  0  0  0
  -32.3349  -16.2020   19.1800 H   0  0  0  0  0  0
  1 25  1  0  0  0
  1 30  2  0  0  0
  1 83  1  0  0  0
  2  3  1  0  0  0
  2 25  1  0  0  0
  2 86  1  0  0  0
  2 87  1  0  0  0
  3  4  1  0  0  0
  3 88  1  0  0  0
  3 89  1  0  0  0
  4  5  1  0  0  0
  4 90  1  0  0  0
  4 91  1  0  0  0
  5  6  1  0  0  0
  5 26  1  0  0  0
  5 92  1  0  0  0
  6 25  1  0  0  0
  6 93  1  0  0  0
  6 94  1  0  0  0
  7  8  2  0  0  0
  7 26  1  0  0  0
  7 29  1  0  0  0
  8  9  1  0  0  0
  8 22  1  0  0  0
  9 10  1  0  0  0
  9 27  2  0  0  0
 10 11  2  0  0  0
 10 15  1  0  0  0
 11 12  1  0  0  0
 11 95  1  0  0  0
 12 13  2  0  0  0
 12 96  1  0  0  0
 13 14  1  0  0  0
 13 31  1  0  0  0
 14 15  2  0  0  0
 14 97  1  0  0  0
 15 98  1  0  0  0
 16 17  2  0  0  0
 16 21  1  0  0  0
 16 31  1  0  0  0
 17 18  1  0  0  0
 17 99  1  0  0  0
 18 19  2  0  0  0
 18100  1  0  0  0
 19 20  1  0  0  0
 19 24  1  0  0  0
 20 21  2  0  0  0
 20101  1  0  0  0
 21 23  1  0  0  0
 22 28  1  0  0  0
 22 32  2  0  0  0
 26 27  1  0  0  0
 28102  1  0  0  0
 28103  1  0  0  0
 29104  1  0  0  0
 29105  1  0  0  0
 33 34  1  0  0  0
 33 66  1  0  0  0
 33 70  2  0  0  0
 34 36  1  0  0  0
 34 59  1  0  0  0
 34106  1  0  0  0
 35 44  2  0  0  0
 35 45  1  0  0  0
 35 68  1  0  0  0
 36 56  1  0  0  0
 36107  1  0  0  0
 37 39  1  0  0  0
 37 47  1  0  0  0
 37 66  1  0  0  0
 37108  1  0  0  0
 38 43  2  0  0  0
 38 46  1  0  0  0
 38 47  1  0  0  0
 39 64  1  0  0  0
 39 67  2  0  0  0
 40 52  1  0  0  0
 40 53  2  0  0  0
 40 58  1  0  0  0
 41109  1  0  0  0
 41110  1  0  0  0
 41111  1  0  0  0
 41 48  1  0  0  0
 42 43  1  0  0  0
 42 66  1  0  0  0
 42112  1  0  0  0
 42113  1  0  0  0
 43 44  1  0  0  0
 44114  1  0  0  0
 45 46  2  0  0  0
 45115  1  0  0  0
 46116  1  0  0  0
 47117  1  0  0  0
 47118  1  0  0  0
 48 56  1  0  0  0
 48 65  1  0  0  0
 48119  1  0  0  0
 49 50  1  0  0  0
 49 53  1  0  0  0
 49 64  1  0  0  0
 49120  1  0  0  0
 50 51  1  0  0  0
 50121  1  0  0  0
 50122  1  0  0  0
 51 52  1  0  0  0
 51123  1  0  0  0
 51124  1  0  0  0
 52125  1  0  0  0
 52126  1  0  0  0
 53 54  1  0  0  0
 54 55  2  0  0  0
 54127  1  0  0  0
 55 57  1  0  0  0
 55128  1  0  0  0
 56 69  2  0  0  0
 57 58  2  0  0  0
 57129  1  0  0  0
 58130  1  0  0  0
 59 60  1  0  0  0
 59 61  1  0  0  0
 59 62  1  0  0  0
 60131  1  0  0  0
 60132  1  0  0  0
 60133  1  0  0  0
 61134  1  0  0  0
 61135  1  0  0  0
 61136  1  0  0  0
 62137  1  0  0  0
 62138  1  0  0  0
 62139  1  0  0  0
 63 65  1  0  0  0
 63140  1  0  0  0
 63141  1  0  0  0
 63142  1  0  0  0
 64143  1  0  0  0
 65144  1  0  0  0
 68 81  1  0  0  0
 71 72  2  0  0  0
 71 74  1  0  0  0
 71145  1  0  0  0
 72 76  1  0  0  0
 72146  1  0  0  0
 73 74  2  0  0  0
 73 75  1  0  0  0
 73147  1  0  0  0
 74 78  1  0  0  0
 75 76  2  0  0  0
 75 79  1  0  0  0
 76 85  1  0  0  0
 77 80  1  0  0  0
 77 82  1  0  0  0
 77 84  2  0  0  0
 78 83  1  0  0  0
 78148  1  0  0  0
 78149  1  0  0  0
 79 82  1  0  0  0
 79150  1  0  0  0
 79151  1  0  0  0
 80 81  1  0  0  0
 80152  1  0  0  0
 80153  1  0  0  0
 81154  1  0  0  0
 81155  1  0  0  0
 82156  1  0  0  0
 83157  1  0  0  0
M  ISO  4   1 100  68 101  81 101  83 100
M  END
> <chiral flag>
0

> <version>
0

> <s_m_source_file>
/data/baiqing/PycharmProjects/Reinvent-master-3.2/result/LINK_invent/BTK/process_docking_weight1_custom_product_contain_oxygen_bond_distance_aromatic_linkinvent_7_9_3/rearranged_h_0053.sdf

> <i_m_source_file_index>
33

> <r_mmod_Potential_Energy-OPLS-2005>
11242.3232421875

> <r_mmod_Stretch_Energy-OPLS-2005>
6269.95947265625

> <r_mmod_Bend_Energy-OPLS-2005>
784.406433105469

> <r_mmod_Torsional_Energy-OPLS-2005>
432.644500732422

> <r_mmod_Improper_Torsional_Energy-OPLS-2005>
24.5888690948486

> <r_mmod_Van_der_Waal_Energy-OPLS-2005>
2793.86279296875

> <r_mmod_Electrostatic_Energy-OPLS-2005>
-463.513275146484

> <r_mmod_Solvation_Energy-OPLS-2005>
-254.84245300293

> <b_mmod_Minimization_Converged-OPLS-2005>
0

> <r_mmod_RMS_Derivative-OPLS-2005>
18.6464519500732

$$$$
33
                    3D
 Structure written by MMmdl.
158166  0  0  1  0            999 V2000
  -30.7289  -14.4118   20.5933 C   0  0  0  0  0  0
  -30.4140  -12.2802   19.4060 C   0  0  0  0  0  0
  -29.4855  -12.5100   18.1972 C   0  0  0  0  0  0
  -28.0060  -12.3847   18.6102 C   0  0  0  0  0  0
  -27.6636  -13.2064   19.8821 C   0  0  2  0  0  0
  -28.7068  -12.9575   20.9953 C   0  0  0  0  0  0
  -25.2588  -13.8171   20.5673 C   0  0  0  0  0  0
  -24.1847  -13.0439   20.9193 C   0  0  0  0  0  0
  -24.6408  -11.6909   20.8759 C   0  0  0  0  0  0
  -23.9073  -10.4290   21.0418 C   0  0  0  0  0  0
  -24.3620   -9.4202   21.9195 C   0  0  0  0  0  0
  -23.6290   -8.2243   22.0759 C   0  0  0  0  0  0
  -22.4275   -8.0292   21.3547 C   0  0  0  0  0  0
  -21.9928   -9.0260   20.4640 C   0  0  0  0  0  0
  -22.7257  -10.2136   20.3051 C   0  0  0  0  0  0
  -21.6843   -6.0749   22.5285 C   0  0  0  0  0  0
  -21.4009   -6.5650   23.8218 C   0  0  0  0  0  0
  -21.3656   -5.6796   24.9175 C   0  0  0  0  0  0
  -21.6045   -4.3059   24.7225 C   0  0  0  0  0  0
  -21.8820   -3.8161   23.4341 C   0  0  0  0  0  0
  -21.9192   -4.6980   22.3395 C   0  0  0  0  0  0
  -22.7864  -13.5231   21.1854 C   0  0  0  0  0  0
  -22.1662   -4.2172   21.0970 F   0  0  0  0  0  0
  -21.5628   -3.4541   25.7733 F   0  0  0  0  0  0
  -30.0406  -13.2508   20.4431 N   0  0  0  0  0  0
  -26.3035  -12.9337   20.3410 N   0  0  0  0  0  0
  -25.9331  -11.6490   20.5787 N   0  0  0  0  0  0
  -22.0487  -12.8213   22.0396 N   0  0  0  0  0  0
  -25.4274  -15.1882   20.3995 N   0  0  0  0  0  0
  -31.8307  -14.6055   20.0720 O   0  0  0  0  0  0
  -21.6631   -6.8901   21.4245 O   0  0  0  0  0  0
  -22.3563  -14.5554   20.6723 O   0  0  0  0  0  0
  -24.6139  -31.8729   23.2202 C   0  0  0  0  0  0
  -25.9068  -32.4839   23.8476 C   0  0  1  0  0  0
  -27.2241  -27.4616   20.0640 C   0  0  0  0  0  0
  -25.5976  -33.8647   24.2406 N   0  0  0  0  0  0
  -23.3955  -30.5018   21.5626 C   0  0  2  0  0  0
  -24.8338  -28.9741   20.1213 C   0  0  0  0  0  0
  -22.7382  -29.4691   22.5057 C   0  0  0  0  0  0
  -18.0266  -28.1354   22.8501 C   0  0  0  0  0  0
  -24.1470  -36.7289   23.2630 C   0  0  0  0  0  0
  -25.9243  -30.8424   21.3704 C   0  0  0  0  0  0
  -25.9953  -29.4781   20.7171 C   0  0  0  0  0  0
  -27.1887  -28.7226   20.7010 C   0  0  0  0  0  0
  -26.0370  -26.9740   19.4691 C   0  0  0  0  0  0
  -24.8473  -27.7161   19.5036 C   0  0  0  0  0  0
  -23.5987  -29.8418   20.1738 C   0  0  0  0  0  0
  -25.4098  -36.3126   24.0338 C   0  0  1  0  0  0
  -20.5843  -28.3643   23.1311 C   0  0  2  0  0  0
  -20.6751  -26.9375   22.5416 C   0  0  0  0  0  0
  -19.5722  -26.6365   21.5201 C   0  0  0  0  0  0
  -18.1897  -26.7920   22.1594 C   0  0  0  0  0  0
  -19.1515  -28.8821   23.2900 C   0  0  0  0  0  0
  -18.9454  -30.1431   23.8906 C   0  0  0  0  0  0
  -17.6455  -30.6561   24.0575 C   0  0  0  0  0  0
  -25.9050  -34.9489   23.5155 C   0  0  0  0  0  0
  -16.5349  -29.9061   23.6333 C   0  0  0  0  0  0
  -16.7264  -28.6473   23.0365 C   0  0  0  0  0  0
  -26.4514  -31.6598   25.0786 C   0  0  0  0  0  0
  -25.3783  -31.3618   26.1514 C   0  0  0  0  0  0
  -27.0372  -30.3067   24.6133 C   0  0  0  0  0  0
  -27.6102  -32.4305   25.7555 C   0  0  0  0  0  0
  -27.5566  -37.1814   24.8477 C   0  0  0  0  0  0
  -21.4119  -29.3041   22.3762 N   0  0  0  0  0  0
  -26.4279  -37.3812   23.9426 N   0  0  0  0  0  0
  -24.6632  -31.0848   22.1101 N   0  0  0  0  0  0
  -23.4170  -28.8220   23.3074 O   0  0  0  0  0  0
  -28.4114  -26.7598   20.0567 O   0  0  0  0  0  0
  -26.5565  -34.8915   22.4689 O   0  0  0  0  0  0
  -23.5348  -32.1508   23.7601 O   0  0  0  0  0  0
  -32.0554  -18.5345   21.6785 C   0  0  0  0  0  0
  -31.7598  -17.1696   21.5360 C   0  0  0  0  0  0
  -29.3984  -17.7117   21.3483 C   0  0  0  0  0  0
  -31.0329  -19.5056   21.6644 C   0  0  0  0  0  0
  -29.6794  -19.0919   21.4705 C   0  0  0  0  0  0
  -30.4252  -16.7452   21.3688 C   0  0  0  0  0  0
  -28.7082  -23.4281   19.9239 C   0  0  0  0  0  0
  -28.0590  -24.4337   19.3119 C   0  0  0  0  0  0
  -28.0492  -22.1534   20.1469 C   0  0  0  0  0  0
  -31.4567  -20.9496   21.9004 C   0  0  0  0  0  0
  -28.4723  -20.0362   21.4151 C   0  0  0  0  0  0
  -28.6512  -25.8029   19.0215 C   0  0  0  0  0  0
  -30.0696  -15.3733   21.2611 N   0  0  0  0  0  0
  -28.7733  -21.3840   20.9573 N   0  0  0  0  0  0
  -26.9679  -21.7998   19.6714 O   0  0  0  0  0  0
  -31.4597  -12.3624   19.1049 H   0  0  0  0  0  0
  -30.2961  -11.2668   19.7898 H   0  0  0  0  0  0
  -29.7087  -11.7902   17.4090 H   0  0  0  0  0  0
  -29.6682  -13.4974   17.7706 H   0  0  0  0  0  0
  -27.8017  -11.3277   18.7864 H   0  0  0  0  0  0
  -27.3574  -12.6842   17.7855 H   0  0  0  0  0  0
  -27.7148  -14.2597   19.6040 H   0  0  0  0  0  0
  -28.6746  -11.9159   21.3178 H   0  0  0  0  0  0
  -28.4740  -13.5363   21.8907 H   0  0  0  0  0  0
  -25.2750   -9.5687   22.4787 H   0  0  0  0  0  0
  -23.9998   -7.4645   22.7479 H   0  0  0  0  0  0
  -21.0867   -8.8772   19.8934 H   0  0  0  0  0  0
  -22.3722  -10.9677   19.6164 H   0  0  0  0  0  0
  -21.1988   -7.6145   23.9733 H   0  0  0  0  0  0
  -21.1477   -6.0520   25.9084 H   0  0  0  0  0  0
  -22.0597   -2.7622   23.2831 H   0  0  0  0  0  0
  -22.4060  -11.9829   22.4732 H   0  0  0  0  0  0
  -21.1111  -13.1250   22.2596 H   0  0  0  0  0  0
  -24.6482  -15.8342   20.4689 H   0  0  0  0  0  0
  -26.2643  -15.6166   20.0246 H   0  0  0  0  0  0
  -26.7151  -32.5552   23.1255 H   0  0  0  0  0  0
  -25.0328  -33.9855   25.0690 H   0  0  0  0  0  0
  -22.6835  -31.3200   21.4309 H   0  0  0  0  0  0
  -23.3771  -35.9579   23.3289 H   0  0  0  0  0  0
  -24.3568  -36.8918   22.2042 H   0  0  0  0  0  0
  -23.7172  -37.6460   23.6669 H   0  0  0  0  0  0
  -26.0391  -31.6090   20.6023 H   0  0  0  0  0  0
  -26.8122  -30.8924   21.9889 H   0  0  0  0  0  0
  -28.0866  -29.1113   21.1608 H   0  0  0  0  0  0
  -25.9900  -26.0262   18.9660 H   0  0  0  0  0  0
  -23.9522  -27.3179   19.0472 H   0  0  0  0  0  0
  -23.7123  -30.6247   19.4241 H   0  0  0  0  0  0
  -22.7182  -29.2717   19.8695 H   0  0  0  0  0  0
  -25.1259  -36.2005   25.0832 H   0  0  0  0  0  0
  -20.9935  -28.3209   24.1428 H   0  0  0  0  0  0
  -20.5634  -26.2258   23.3615 H   0  0  0  0  0  0
  -21.6628  -26.7401   22.1228 H   0  0  0  0  0  0
  -19.6898  -25.6280   21.1220 H   0  0  0  0  0  0
  -19.6652  -27.3180   20.6734 H   0  0  0  0  0  0
  -17.4176  -26.6738   21.3970 H   0  0  0  0  0  0
  -18.0243  -26.0013   22.8926 H   0  0  0  0  0  0
  -19.7922  -30.7272   24.2244 H   0  0  0  0  0  0
  -17.4997  -31.6237   24.5183 H   0  0  0  0  0  0
  -15.5359  -30.2977   23.7632 H   0  0  0  0  0  0
  -15.8665  -28.0806   22.7076 H   0  0  0  0  0  0
  -24.6152  -30.6724   25.7881 H   0  0  0  0  0  0
  -24.8728  -32.2677   26.4852 H   0  0  0  0  0  0
  -25.8183  -30.8973   27.0345 H   0  0  0  0  0  0
  -26.2921  -29.6789   24.1227 H   0  0  0  0  0  0
  -27.4224  -29.7327   25.4577 H   0  0  0  0  0  0
  -27.8717  -30.4428   23.9245 H   0  0  0  0  0  0
  -27.2796  -33.3656   26.2077 H   0  0  0  0  0  0
  -28.3957  -32.6745   25.0396 H   0  0  0  0  0  0
  -28.0720  -31.8448   26.5517 H   0  0  0  0  0  0
  -28.2584  -38.0105   24.7539 H   0  0  0  0  0  0
  -28.1054  -36.2645   24.6297 H   0  0  0  0  0  0
  -27.2292  -37.1451   25.8879 H   0  0  0  0  0  0
  -20.9286  -29.8806   21.7014 H   0  0  0  0  0  0
  -26.0162  -38.2879   24.1460 H   0  0  0  0  0  0
  -33.0864  -18.8284   21.8174 H   0  0  0  0  0  0
  -32.5742  -16.4602   21.5716 H   0  0  0  0  0  0
  -28.3724  -17.3918   21.2237 H   0  0  0  0  0  0
  -29.7281  -23.5826   20.2479 H   0  0  0  0  0  0
  -27.0423  -24.2687   18.9900 H   0  0  0  0  0  0
  -32.4962  -21.0083   22.2261 H   0  0  0  0  0  0
  -30.8536  -21.4103   22.6840 H   0  0  0  0  0  0
  -31.3834  -21.5399   20.9860 H   0  0  0  0  0  0
  -28.0263  -20.0902   22.4088 H   0  0  0  0  0  0
  -27.7122  -19.5931   20.7684 H   0  0  0  0  0  0
  -28.2989  -26.1649   18.0551 H   0  0  0  0  0  0
  -29.7326  -25.7025   18.9269 H   0  0  0  0  0  0
  -29.1406  -15.1191   21.5597 H   0  0  0  0  0  0
  -29.6385  -21.7735   21.2972 H   0  0  0  0  0  0
  1 25  1  0  0  0
  1 30  2  0  0  0
  1 83  1  0  0  0
  2  3  1  0  0  0
  2 25  1  0  0  0
  2 86  1  0  0  0
  2 87  1  0  0  0
  3  4  1  0  0  0
  3 88  1  0  0  0
  3 89  1  0  0  0
  4  5  1  0  0  0
  4 90  1  0  0  0
  4 91  1  0  0  0
  5  6  1  0  0  0
  5 26  1  0  0  0
  5 92  1  0  0  0
  6 25  1  0  0  0
  6 93  1  0  0  0
  6 94  1  0  0  0
  7  8  2  0  0  0
  7 26  1  0  0  0
  7 29  1  0  0  0
  8  9  1  0  0  0
  8 22  1  0  0  0
  9 10  1  0  0  0
  9 27  2  0  0  0
 10 11  2  0  0  0
 10 15  1  0  0  0
 11 12  1  0  0  0
 11 95  1  0  0  0
 12 13  2  0  0  0
 12 96  1  0  0  0
 13 14  1  0  0  0
 13 31  1  0  0  0
 14 15  2  0  0  0
 14 97  1  0  0  0
 15 98  1  0  0  0
 16 17  2  0  0  0
 16 21  1  0  0  0
 16 31  1  0  0  0
 17 18  1  0  0  0
 17 99  1  0  0  0
 18 19  2  0  0  0
 18100  1  0  0  0
 19 20  1  0  0  0
 19 24  1  0  0  0
 20 21  2  0  0  0
 20101  1  0  0  0
 21 23  1  0  0  0
 22 28  1  0  0  0
 22 32  2  0  0  0
 26 27  1  0  0  0
 28102  1  0  0  0
 28103  1  0  0  0
 29104  1  0  0  0
 29105  1  0  0  0
 33 34  1  0  0  0
 33 66  1  0  0  0
 33 70  2  0  0  0
 34 36  1  0  0  0
 34 59  1  0  0  0
 34106  1  0  0  0
 35 44  2  0  0  0
 35 45  1  0  0  0
 35 68  1  0  0  0
 36 56  1  0  0  0
 36107  1  0  0  0
 37 39  1  0  0  0
 37 47  1  0  0  0
 37 66  1  0  0  0
 37108  1  0  0  0
 38 43  2  0  0  0
 38 46  1  0  0  0
 38 47  1  0  0  0
 39 64  1  0  0  0
 39 67  2  0  0  0
 40 52  1  0  0  0
 40 53  2  0  0  0
 40 58  1  0  0  0
 41109  1  0  0  0
 41110  1  0  0  0
 41111  1  0  0  0
 41 48  1  0  0  0
 42 43  1  0  0  0
 42 66  1  0  0  0
 42112  1  0  0  0
 42113  1  0  0  0
 43 44  1  0  0  0
 44114  1  0  0  0
 45 46  2  0  0  0
 45115  1  0  0  0
 46116  1  0  0  0
 47117  1  0  0  0
 47118  1  0  0  0
 48 56  1  0  0  0
 48 65  1  0  0  0
 48119  1  0  0  0
 49 50  1  0  0  0
 49 53  1  0  0  0
 49 64  1  0  0  0
 49120  1  0  0  0
 50 51  1  0  0  0
 50121  1  0  0  0
 50122  1  0  0  0
 51 52  1  0  0  0
 51123  1  0  0  0
 51124  1  0  0  0
 52125  1  0  0  0
 52126  1  0  0  0
 53 54  1  0  0  0
 54 55  2  0  0  0
 54127  1  0  0  0
 55 57  1  0  0  0
 55128  1  0  0  0
 56 69  2  0  0  0
 57 58  2  0  0  0
 57129  1  0  0  0
 58130  1  0  0  0
 59 60  1  0  0  0
 59 61  1  0  0  0
 59 62  1  0  0  0
 60131  1  0  0  0
 60132  1  0  0  0
 60133  1  0  0  0
 61134  1  0  0  0
 61135  1  0  0  0
 61136  1  0  0  0
 62137  1  0  0  0
 62138  1  0  0  0
 62139  1  0  0  0
 63 65  1  0  0  0
 63140  1  0  0  0
 63141  1  0  0  0
 63142  1  0  0  0
 64143  1  0  0  0
 65144  1  0  0  0
 68 82  1  0  0  0
 71 72  2  0  0  0
 71 74  1  0  0  0
 71145  1  0  0  0
 72 76  1  0  0  0
 72146  1  0  0  0
 73 75  1  0  0  0
 73 76  2  0  0  0
 73147  1  0  0  0
 74 75  2  0  0  0
 74 80  1  0  0  0
 75 81  1  0  0  0
 76 83  1  0  0  0
 77 78  2  0  0  0
 77 79  1  0  0  0
 77148  1  0  0  0
 78 82  1  0  0  0
 78149  1  0  0  0
 79 84  1  0  0  0
 79 85  2  0  0  0
 80150  1  0  0  0
 80151  1  0  0  0
 80152  1  0  0  0
 81 84  1  0  0  0
 81153  1  0  0  0
 81154  1  0  0  0
 82155  1  0  0  0
 82156  1  0  0  0
 83157  1  0  0  0
 84158  1  0  0  0
M  ISO  4   1 100  68 101  82 101  83 100
M  END
> <chiral flag>
0

> <version>
0

> <s_m_source_file>
/data/baiqing/PycharmProjects/Reinvent-master-3.2/result/LINK_invent/BTK/process_docking_weight1_custom_product_contain_oxygen_bond_distance_aromatic_linkinvent_7_9_3/rearranged_h_0053.sdf

> <i_m_source_file_index>
34

> <r_mmod_Potential_Energy-OPLS-2005>
-179.448440551758

> <r_mmod_Stretch_Energy-OPLS-2005>
33.756290435791

> <r_mmod_Bend_Energy-OPLS-2005>
102.006332397461

> <r_mmod_Torsional_Energy-OPLS-2005>
204.98713684082

> <r_mmod_Improper_Torsional_Energy-OPLS-2005>
3.39730548858643

> <r_mmod_Van_der_Waal_Energy-OPLS-2005>
174.173583984375

> <r_mmod_Electrostatic_Energy-OPLS-2005>
-475.087799072266

> <r_mmod_Solvation_Energy-OPLS-2005>
-232.051193237305

> <b_mmod_Minimization_Converged-OPLS-2005>
0

> <r_mmod_RMS_Derivative-OPLS-2005>
2.54378962516785

$$$$
34
                    3D
 Structure written by MMmdl.
169178  0  0  1  0            999 V2000
  -30.6914  -14.7159   20.4387 C   0  0  0  0  0  0
  -30.4341  -12.4226   19.4734 C   0  0  0  0  0  0
  -29.5157  -12.4244   18.2340 C   0  0  0  0  0  0
  -28.0310  -12.2802   18.6347 C   0  0  0  0  0  0
  -27.6227  -13.1766   19.8316 C   0  0  2  0  0  0
  -28.6916  -13.1938   20.9556 C   0  0  0  0  0  0
  -25.2469  -13.7975   20.5700 C   0  0  0  0  0  0
  -24.1746  -13.0325   20.9269 C   0  0  0  0  0  0
  -24.6292  -11.6796   20.8812 C   0  0  0  0  0  0
  -23.8948  -10.4223   21.0403 C   0  0  0  0  0  0
  -24.3539   -9.4167   21.9180 C   0  0  0  0  0  0
  -23.6237   -8.2217   22.0736 C   0  0  0  0  0  0
  -22.4220   -8.0239   21.3552 C   0  0  0  0  0  0
  -21.9837   -9.0180   20.4642 C   0  0  0  0  0  0
  -22.7124  -10.2061   20.3043 C   0  0  0  0  0  0
  -21.6838   -6.0696   22.5279 C   0  0  0  0  0  0
  -21.4005   -6.5616   23.8198 C   0  0  0  0  0  0
  -21.3674   -5.6770   24.9178 C   0  0  0  0  0  0
  -21.6054   -4.3032   24.7206 C   0  0  0  0  0  0
  -21.8830   -3.8122   23.4334 C   0  0  0  0  0  0
  -21.9207   -4.6942   22.3390 C   0  0  0  0  0  0
  -22.7794  -13.5184   21.1860 C   0  0  0  0  0  0
  -22.1670   -4.2152   21.0958 F   0  0  0  0  0  0
  -21.5637   -3.4492   25.7706 F   0  0  0  0  0  0
  -29.9910  -13.5266   20.3451 N   0  0  0  0  0  0
  -26.2835  -12.9079   20.3284 N   0  0  0  0  0  0
  -25.9205  -11.6295   20.5844 N   0  0  0  0  0  0
  -22.0382  -12.8245   22.0418 N   0  0  0  0  0  0
  -25.4054  -15.1679   20.4001 N   0  0  0  0  0  0
  -31.9136  -14.7040   20.2730 O   0  0  0  0  0  0
  -21.6639   -6.8812   21.4221 O   0  0  0  0  0  0
  -22.3562  -14.5494   20.6662 O   0  0  0  0  0  0
  -24.6163  -31.8663   23.2080 C   0  0  0  0  0  0
  -25.9020  -32.4835   23.8410 C   0  0  1  0  0  0
  -27.2921  -27.4488   20.1086 C   0  0  0  0  0  0
  -25.5827  -33.8625   24.2332 N   0  0  0  0  0  0
  -23.4104  -30.4878   21.5474 C   0  0  2  0  0  0
  -24.8767  -28.9486   20.1297 C   0  0  0  0  0  0
  -22.7433  -29.4660   22.4967 C   0  0  0  0  0  0
  -18.0284  -28.1426   22.8499 C   0  0  0  0  0  0
  -24.1467  -36.7350   23.2644 C   0  0  0  0  0  0
  -25.9378  -30.8439   21.3570 C   0  0  0  0  0  0
  -26.0352  -29.4677   20.7245 C   0  0  0  0  0  0
  -27.2460  -28.7262   20.7214 C   0  0  0  0  0  0
  -26.1126  -26.9491   19.5085 C   0  0  0  0  0  0
  -24.9076  -27.6818   19.5236 C   0  0  0  0  0  0
  -23.6329  -29.8124   20.1680 C   0  0  0  0  0  0
  -25.4084  -36.3139   24.0348 C   0  0  1  0  0  0
  -20.5876  -28.3700   23.1304 C   0  0  2  0  0  0
  -20.6765  -26.9436   22.5416 C   0  0  0  0  0  0
  -19.5737  -26.6425   21.5218 C   0  0  0  0  0  0
  -18.1919  -26.7964   22.1639 C   0  0  0  0  0  0
  -19.1532  -28.8871   23.2906 C   0  0  0  0  0  0
  -18.9475  -30.1467   23.8926 C   0  0  0  0  0  0
  -17.6473  -30.6617   24.0596 C   0  0  0  0  0  0
  -25.9007  -34.9493   23.5155 C   0  0  0  0  0  0
  -16.5364  -29.9151   23.6318 C   0  0  0  0  0  0
  -16.7266  -28.6578   23.0327 C   0  0  0  0  0  0
  -26.4469  -31.6597   25.0701 C   0  0  0  0  0  0
  -25.3740  -31.3704   26.1450 C   0  0  0  0  0  0
  -27.0255  -30.3051   24.5993 C   0  0  0  0  0  0
  -27.6052  -32.4287   25.7460 C   0  0  0  0  0  0
  -27.5586  -37.1825   24.8479 C   0  0  0  0  0  0
  -21.4157  -29.3076   22.3714 N   0  0  0  0  0  0
  -26.4288  -37.3816   23.9424 N   0  0  0  0  0  0
  -24.6738  -31.0761   22.1008 N   0  0  0  0  0  0
  -23.4191  -28.8179   23.3014 O   0  0  0  0  0  0
  -28.3964  -26.6153   20.0198 O   0  0  0  0  0  0
  -26.5592  -34.8960   22.4742 O   0  0  0  0  0  0
  -23.5333  -32.1421   23.7447 O   0  0  0  0  0  0
  -31.8269  -19.2493   19.9578 C   0  0  0  0  0  0
  -31.4282  -17.9014   19.7939 C   0  0  0  0  0  0
  -30.7042  -19.3256   22.0900 C   0  0  0  0  0  0
  -31.4785  -19.9879   21.1087 C   0  0  0  0  0  0
  -30.2742  -17.9748   21.9250 C   0  0  0  0  0  0
  -30.6336  -17.2232   20.7594 C   0  0  0  0  0  0
  -30.9775  -23.3853   22.3824 C   0  0  0  0  0  0
  -29.0384  -16.1548   19.4800 C   0  0  0  0  0  0
  -30.3394  -24.7959   22.2660 C   0  0  0  0  0  0
  -30.0360  -24.3920   19.8347 C   0  0  0  0  0  0
  -30.9625  -23.1554   19.9138 C   0  0  0  0  0  0
  -30.4180  -25.4604   20.8732 C   0  0  1  0  0  0
  -29.3486  -17.4127   22.9888 C   0  0  0  0  0  0
  -27.9185  -17.1445   19.8181 C   0  0  0  0  0  0
  -32.0692  -21.4068   21.3216 C   0  0  0  0  0  0
  -29.6121  -26.8091   20.7613 C   0  0  0  0  0  0
  -31.2002  -22.6226   21.2727 N   0  0  0  0  0  0
  -30.0271  -15.9424   20.3846 N   0  0  0  0  0  0
  -31.2786  -22.9979   23.5155 O   0  0  0  0  0  0
  -29.0562  -15.6902   18.3338 O   0  0  0  0  0  0
  -31.4790  -12.5274   19.1720 H   0  0  0  0  0  0
  -30.3593  -11.4699   20.0000 H   0  0  0  0  0  0
  -29.7902  -11.5979   17.5786 H   0  0  0  0  0  0
  -29.6766  -13.3330   17.6564 H   0  0  0  0  0  0
  -27.8635  -11.2338   18.8905 H   0  0  0  0  0  0
  -27.3952  -12.4899   17.7722 H   0  0  0  0  0  0
  -27.5276  -14.1532   19.3944 H   0  0  0  0  0  0
  -28.7457  -12.2208   21.4477 H   0  0  0  0  0  0
  -28.4256  -13.9191   21.7247 H   0  0  0  0  0  0
  -25.2670   -9.5715   22.4754 H   0  0  0  0  0  0
  -23.9998   -7.4618   22.7428 H   0  0  0  0  0  0
  -21.0773   -8.8618   19.8936 H   0  0  0  0  0  0
  -22.3530  -10.9584   19.6155 H   0  0  0  0  0  0
  -21.1969   -7.6119   23.9694 H   0  0  0  0  0  0
  -21.1501   -6.0500   25.9076 H   0  0  0  0  0  0
  -22.0605   -2.7581   23.2818 H   0  0  0  0  0  0
  -22.3932  -11.9947   22.4941 H   0  0  0  0  0  0
  -21.0984  -13.1305   22.2453 H   0  0  0  0  0  0
  -24.6144  -15.7978   20.4749 H   0  0  0  0  0  0
  -26.2223  -15.5975   19.9931 H   0  0  0  0  0  0
  -26.7099  -32.5599   23.1210 H   0  0  0  0  0  0
  -24.9896  -33.9799   25.0411 H   0  0  0  0  0  0
  -22.7032  -31.3069   21.3973 H   0  0  0  0  0  0
  -23.3713  -35.9700   23.3310 H   0  0  0  0  0  0
  -24.3583  -36.8951   22.2065 H   0  0  0  0  0  0
  -23.7225  -37.6565   23.6638 H   0  0  0  0  0  0
  -26.0142  -31.5923   20.5655 H   0  0  0  0  0  0
  -26.8392  -30.9365   21.9519 H   0  0  0  0  0  0
  -28.1376  -29.1424   21.1738 H   0  0  0  0  0  0
  -26.1296  -25.9793   19.0335 H   0  0  0  0  0  0
  -24.0200  -27.2681   19.0668 H   0  0  0  0  0  0
  -23.7567  -30.5877   19.4118 H   0  0  0  0  0  0
  -22.7584  -29.2410   19.8530 H   0  0  0  0  0  0
  -25.1256  -36.2029   25.0834 H   0  0  0  0  0  0
  -20.9990  -28.3273   24.1411 H   0  0  0  0  0  0
  -20.5654  -26.2321   23.3618 H   0  0  0  0  0  0
  -21.6635  -26.7469   22.1197 H   0  0  0  0  0  0
  -19.6898  -25.6346   21.1219 H   0  0  0  0  0  0
  -19.6664  -27.3249   20.6758 H   0  0  0  0  0  0
  -17.4185  -26.6701   21.4053 H   0  0  0  0  0  0
  -18.0334  -26.0110   22.9043 H   0  0  0  0  0  0
  -19.7959  -30.7269   24.2306 H   0  0  0  0  0  0
  -17.5056  -31.6289   24.5229 H   0  0  0  0  0  0
  -15.5368  -30.3088   23.7627 H   0  0  0  0  0  0
  -15.8671  -28.0925   22.7003 H   0  0  0  0  0  0
  -24.5904  -30.7063   25.7823 H   0  0  0  0  0  0
  -24.8929  -32.2842   26.4925 H   0  0  0  0  0  0
  -25.8084  -30.8876   27.0204 H   0  0  0  0  0  0
  -26.2762  -29.6829   24.1092 H   0  0  0  0  0  0
  -27.4132  -29.7267   25.4387 H   0  0  0  0  0  0
  -27.8545  -30.4421   23.9047 H   0  0  0  0  0  0
  -27.2709  -33.3606   26.2045 H   0  0  0  0  0  0
  -28.3863  -32.6804   25.0269 H   0  0  0  0  0  0
  -28.0703  -31.8373   26.5363 H   0  0  0  0  0  0
  -28.2609  -38.0119   24.7488 H   0  0  0  0  0  0
  -28.1052  -36.2632   24.6301 H   0  0  0  0  0  0
  -27.2302  -37.1501   25.8887 H   0  0  0  0  0  0
  -20.9322  -29.8859   21.6984 H   0  0  0  0  0  0
  -26.0179  -38.2899   24.1410 H   0  0  0  0  0  0
  -32.4217  -19.7155   19.1860 H   0  0  0  0  0  0
  -31.6938  -17.4024   18.8730 H   0  0  0  0  0  0
  -30.4308  -19.8685   22.9877 H   0  0  0  0  0  0
  -30.8240  -25.4489   22.9943 H   0  0  0  0  0  0
  -29.2980  -24.7140   22.5754 H   0  0  0  0  0  0
  -29.0052  -24.0791   19.9991 H   0  0  0  0  0  0
  -30.0713  -24.8143   18.8290 H   0  0  0  0  0  0
  -31.9293  -23.4315   19.4921 H   0  0  0  0  0  0
  -30.5646  -22.3636   19.2801 H   0  0  0  0  0  0
  -31.4701  -25.7113   20.7100 H   0  0  0  0  0  0
  -29.7081  -17.6924   23.9800 H   0  0  0  0  0  0
  -29.2657  -16.3292   22.9580 H   0  0  0  0  0  0
  -28.3518  -17.8427   22.8708 H   0  0  0  0  0  0
  -27.4619  -16.8890   20.7737 H   0  0  0  0  0  0
  -27.1398  -17.1241   19.0538 H   0  0  0  0  0  0
  -28.2800  -18.1697   19.8807 H   0  0  0  0  0  0
  -32.8508  -21.5521   20.5733 H   0  0  0  0  0  0
  -32.6339  -21.3777   22.2562 H   0  0  0  0  0  0
  -30.2265  -27.5460   20.2366 H   0  0  0  0  0  0
  -29.4271  -27.2137   21.7584 H   0  0  0  0  0  0
  1 25  1  0  0  0
  1 30  2  0  0  0
  1 88  1  0  0  0
  2  3  1  0  0  0
  2 25  1  0  0  0
  2 91  1  0  0  0
  2 92  1  0  0  0
  3  4  1  0  0  0
  3 93  1  0  0  0
  3 94  1  0  0  0
  4  5  1  0  0  0
  4 95  1  0  0  0
  4 96  1  0  0  0
  5  6  1  0  0  0
  5 26  1  0  0  0
  5 97  1  0  0  0
  6 25  1  0  0  0
  6 98  1  0  0  0
  6 99  1  0  0  0
  7  8  2  0  0  0
  7 26  1  0  0  0
  7 29  1  0  0  0
  8  9  1  0  0  0
  8 22  1  0  0  0
  9 10  1  0  0  0
  9 27  2  0  0  0
 10 11  2  0  0  0
 10 15  1  0  0  0
 11 12  1  0  0  0
 11100  1  0  0  0
 12 13  2  0  0  0
 12101  1  0  0  0
 13 14  1  0  0  0
 13 31  1  0  0  0
 14 15  2  0  0  0
 14102  1  0  0  0
 15103  1  0  0  0
 16 17  2  0  0  0
 16 21  1  0  0  0
 16 31  1  0  0  0
 17 18  1  0  0  0
 17104  1  0  0  0
 18 19  2  0  0  0
 18105  1  0  0  0
 19 20  1  0  0  0
 19 24  1  0  0  0
 20 21  2  0  0  0
 20106  1  0  0  0
 21 23  1  0  0  0
 22 28  1  0  0  0
 22 32  2  0  0  0
 26 27  1  0  0  0
 28107  1  0  0  0
 28108  1  0  0  0
 29109  1  0  0  0
 29110  1  0  0  0
 33 34  1  0  0  0
 33 66  1  0  0  0
 33 70  2  0  0  0
 34 36  1  0  0  0
 34 59  1  0  0  0
 34111  1  0  0  0
 35 44  2  0  0  0
 35 45  1  0  0  0
 35 68  1  0  0  0
 36 56  1  0  0  0
 36112  1  0  0  0
 37 39  1  0  0  0
 37 47  1  0  0  0
 37 66  1  0  0  0
 37113  1  0  0  0
 38 43  2  0  0  0
 38 46  1  0  0  0
 38 47  1  0  0  0
 39 64  1  0  0  0
 39 67  2  0  0  0
 40 52  1  0  0  0
 40 53  2  0  0  0
 40 58  1  0  0  0
 41114  1  0  0  0
 41115  1  0  0  0
 41116  1  0  0  0
 41 48  1  0  0  0
 42 43  1  0  0  0
 42 66  1  0  0  0
 42117  1  0  0  0
 42118  1  0  0  0
 43 44  1  0  0  0
 44119  1  0  0  0
 45 46  2  0  0  0
 45120  1  0  0  0
 46121  1  0  0  0
 47122  1  0  0  0
 47123  1  0  0  0
 48 56  1  0  0  0
 48 65  1  0  0  0
 48124  1  0  0  0
 49 50  1  0  0  0
 49 53  1  0  0  0
 49 64  1  0  0  0
 49125  1  0  0  0
 50 51  1  0  0  0
 50126  1  0  0  0
 50127  1  0  0  0
 51 52  1  0  0  0
 51128  1  0  0  0
 51129  1  0  0  0
 52130  1  0  0  0
 52131  1  0  0  0
 53 54  1  0  0  0
 54 55  2  0  0  0
 54132  1  0  0  0
 55 57  1  0  0  0
 55133  1  0  0  0
 56 69  2  0  0  0
 57 58  2  0  0  0
 57134  1  0  0  0
 58135  1  0  0  0
 59 60  1  0  0  0
 59 61  1  0  0  0
 59 62  1  0  0  0
 60136  1  0  0  0
 60137  1  0  0  0
 60138  1  0  0  0
 61139  1  0  0  0
 61140  1  0  0  0
 61141  1  0  0  0
 62142  1  0  0  0
 62143  1  0  0  0
 62144  1  0  0  0
 63 65  1  0  0  0
 63145  1  0  0  0
 63146  1  0  0  0
 63147  1  0  0  0
 64148  1  0  0  0
 65149  1  0  0  0
 68 86  1  0  0  0
 71 72  2  0  0  0
 71 74  1  0  0  0
 71150  1  0  0  0
 72 76  1  0  0  0
 72151  1  0  0  0
 73 74  2  0  0  0
 73 75  1  0  0  0
 73152  1  0  0  0
 74 85  1  0  0  0
 75 76  2  0  0  0
 75 83  1  0  0  0
 76 88  1  0  0  0
 77 79  1  0  0  0
 77 87  1  0  0  0
 77 89  2  0  0  0
 78 84  1  0  0  0
 78 88  1  0  0  0
 78 90  2  0  0  0
 79 82  1  0  0  0
 79153  1  0  0  0
 79154  1  0  0  0
 80 81  1  0  0  0
 80 82  1  0  0  0
 80155  1  0  0  0
 80156  1  0  0  0
 81 87  1  0  0  0
 81157  1  0  0  0
 81158  1  0  0  0
 82 86  1  0  0  0
 82159  1  0  0  0
 83160  1  0  0  0
 83161  1  0  0  0
 83162  1  0  0  0
 84163  1  0  0  0
 84164  1  0  0  0
 84165  1  0  0  0
 85 87  1  0  0  0
 85166  1  0  0  0
 85167  1  0  0  0
 86168  1  0  0  0
 86169  1  0  0  0
M  ISO  4   1 100  68 101  86 101  88 100
M  END
> <chiral flag>
0

> <version>
0

> <s_m_source_file>
/data/baiqing/PycharmProjects/Reinvent-master-3.2/result/LINK_invent/BTK/process_docking_weight1_custom_product_contain_oxygen_bond_distance_aromatic_linkinvent_7_9_3/rearranged_h_0053.sdf

> <i_m_source_file_index>
35

> <r_mmod_Potential_Energy-OPLS-2005>
238.180755615234

> <r_mmod_Stretch_Energy-OPLS-2005>
68.6103363037109

> <r_mmod_Bend_Energy-OPLS-2005>
163.468185424805

> <r_mmod_Torsional_Energy-OPLS-2005>
360.586486816406

> <r_mmod_Improper_Torsional_Energy-OPLS-2005>
15.2471790313721

> <r_mmod_Van_der_Waal_Energy-OPLS-2005>
167.915252685547

> <r_mmod_Electrostatic_Energy-OPLS-2005>
-382.963897705078

> <r_mmod_Solvation_Energy-OPLS-2005>
-213.567031860352

> <b_mmod_Minimization_Converged-OPLS-2005>
0

> <r_mmod_RMS_Derivative-OPLS-2005>
5.64697599411011

$$$$
35
                    3D
 Structure written by MMmdl.
161169  0  0  1  0            999 V2000
  -30.7073  -14.4389   20.5313 C   0  0  0  0  0  0
  -30.4173  -12.2706   19.4252 C   0  0  0  0  0  0
  -29.4912  -12.4807   18.2092 C   0  0  0  0  0  0
  -28.0121  -12.3572   18.6246 C   0  0  0  0  0  0
  -27.6637  -13.2027   19.8788 C   0  0  2  0  0  0
  -28.7050  -12.9827   21.0010 C   0  0  0  0  0  0
  -25.2590  -13.8168   20.5665 C   0  0  0  0  0  0
  -24.1833  -13.0448   20.9162 C   0  0  0  0  0  0
  -24.6389  -11.6914   20.8744 C   0  0  0  0  0  0
  -23.9062  -10.4297   21.0415 C   0  0  0  0  0  0
  -24.3607   -9.4209   21.9198 C   0  0  0  0  0  0
  -23.6284   -8.2245   22.0771 C   0  0  0  0  0  0
  -22.4272   -8.0277   21.3553 C   0  0  0  0  0  0
  -21.9905   -9.0252   20.4645 C   0  0  0  0  0  0
  -22.7239  -10.2131   20.3060 C   0  0  0  0  0  0
  -21.6841   -6.0730   22.5277 C   0  0  0  0  0  0
  -21.4003   -6.5626   23.8214 C   0  0  0  0  0  0
  -21.3656   -5.6780   24.9165 C   0  0  0  0  0  0
  -21.6046   -4.3046   24.7219 C   0  0  0  0  0  0
  -21.8821   -3.8138   23.4341 C   0  0  0  0  0  0
  -21.9187   -4.6955   22.3393 C   0  0  0  0  0  0
  -22.7858  -13.5238   21.1831 C   0  0  0  0  0  0
  -22.1659   -4.2148   21.0976 F   0  0  0  0  0  0
  -21.5631   -3.4535   25.7730 F   0  0  0  0  0  0
  -30.0424  -13.2584   20.4474 N   0  0  0  0  0  0
  -26.3034  -12.9335   20.3387 N   0  0  0  0  0  0
  -25.9320  -11.6501   20.5795 N   0  0  0  0  0  0
  -22.0504  -12.8220   22.0384 N   0  0  0  0  0  0
  -25.4349  -15.1882   20.4050 N   0  0  0  0  0  0
  -31.8521  -14.6018   20.0989 O   0  0  0  0  0  0
  -21.6630   -6.8881   21.4246 O   0  0  0  0  0  0
  -22.3544  -14.5546   20.6691 O   0  0  0  0  0  0
  -24.6091  -31.8705   23.2097 C   0  0  0  0  0  0
  -25.8997  -32.4831   23.8373 C   0  0  1  0  0  0
  -27.2322  -27.4596   20.0750 C   0  0  0  0  0  0
  -25.5837  -33.8626   24.2303 N   0  0  0  0  0  0
  -23.3956  -30.4948   21.5505 C   0  0  2  0  0  0
  -24.8405  -28.9702   20.1042 C   0  0  0  0  0  0
  -22.7379  -29.4684   22.4987 C   0  0  0  0  0  0
  -18.0286  -28.1354   22.8485 C   0  0  0  0  0  0
  -24.1498  -36.7351   23.2645 C   0  0  0  0  0  0
  -25.9227  -30.8388   21.3638 C   0  0  0  0  0  0
  -25.9974  -29.4775   20.7065 C   0  0  0  0  0  0
  -27.1911  -28.7273   20.6945 C   0  0  0  0  0  0
  -26.0613  -26.9721   19.4469 C   0  0  0  0  0  0
  -24.8677  -27.7158   19.4728 C   0  0  0  0  0  0
  -23.5985  -29.8299   20.1628 C   0  0  0  0  0  0
  -25.4127  -36.3126   24.0324 C   0  0  1  0  0  0
  -20.5877  -28.3651   23.1313 C   0  0  2  0  0  0
  -20.6794  -26.9390   22.5402 C   0  0  0  0  0  0
  -19.5754  -26.6380   21.5211 C   0  0  0  0  0  0
  -18.1917  -26.7894   22.1624 C   0  0  0  0  0  0
  -19.1533  -28.8817   23.2899 C   0  0  0  0  0  0
  -18.9481  -30.1433   23.8896 C   0  0  0  0  0  0
  -17.6486  -30.6563   24.0576 C   0  0  0  0  0  0
  -25.9055  -34.9489   23.5134 C   0  0  0  0  0  0
  -16.5373  -29.9080   23.6323 C   0  0  0  0  0  0
  -16.7283  -28.6506   23.0315 C   0  0  0  0  0  0
  -26.4426  -31.6572   25.0679 C   0  0  0  0  0  0
  -25.3679  -31.3572   26.1389 C   0  0  0  0  0  0
  -27.0291  -30.3044   24.5988 C   0  0  0  0  0  0
  -27.5986  -32.4286   25.7459 C   0  0  0  0  0  0
  -27.5600  -37.1827   24.8457 C   0  0  0  0  0  0
  -21.4113  -29.3018   22.3703 N   0  0  0  0  0  0
  -26.4313  -37.3803   23.9391 N   0  0  0  0  0  0
  -24.6605  -31.0815   22.0994 N   0  0  0  0  0  0
  -23.4166  -28.8250   23.3038 O   0  0  0  0  0  0
  -28.4208  -26.7564   20.1311 O   0  0  0  0  0  0
  -26.5662  -34.8929   22.4726 O   0  0  0  0  0  0
  -23.5291  -32.1475   23.7505 O   0  0  0  0  0  0
  -30.1658  -19.4133   19.3374 C   0  0  0  0  0  0
  -30.3247  -17.0094   19.0499 C   0  0  0  0  0  0
  -29.8833  -19.2455   20.7103 C   0  0  0  0  0  0
  -29.7953  -17.9313   21.2586 C   0  0  0  0  0  0
  -30.0510  -16.8080   20.4249 C   0  0  0  0  0  0
  -30.3805  -18.3014   18.5084 C   0  0  0  0  0  0
  -27.6410  -22.0437   21.4143 C   0  0  0  0  0  0
  -27.7727  -24.4410   20.7664 C   0  0  0  0  0  0
  -29.4526  -17.6914   22.7268 C   0  0  0  0  0  0
  -26.1669  -22.0774   21.7401 C   0  0  0  0  0  0
  -29.6890  -20.5132   21.5368 C   0  0  0  0  0  0
  -28.4770  -25.3708   19.7516 C   0  0  0  0  0  0
  -29.9735  -15.4824   20.9538 N   0  0  0  0  0  0
  -28.2903  -23.1024   20.8502 N   0  0  0  0  0  0
  -28.2684  -20.8711   21.6808 N   0  3  0  0  0  0
  -26.8180  -24.8052   21.4625 O   0  0  0  0  0  0
  -30.7157  -18.5181   16.8299 Cl  0  0  0  0  0  0
  -31.4627  -12.3535   19.1212 H   0  0  0  0  0  0
  -30.3059  -11.2607   19.8230 H   0  0  0  0  0  0
  -29.7181  -11.7468   17.4345 H   0  0  0  0  0  0
  -29.6721  -13.4612   17.7672 H   0  0  0  0  0  0
  -27.8173  -11.3030   18.8260 H   0  0  0  0  0  0
  -27.3617  -12.6317   17.7933 H   0  0  0  0  0  0
  -27.7111  -14.2483   19.5757 H   0  0  0  0  0  0
  -28.6657  -11.9540   21.3581 H   0  0  0  0  0  0
  -28.4800  -13.6021   21.8705 H   0  0  0  0  0  0
  -25.2757   -9.5673   22.4772 H   0  0  0  0  0  0
  -23.9986   -7.4638   22.7500 H   0  0  0  0  0  0
  -21.0843   -8.8768   19.8949 H   0  0  0  0  0  0
  -22.3716  -10.9667   19.6154 H   0  0  0  0  0  0
  -21.1997   -7.6129   23.9713 H   0  0  0  0  0  0
  -21.1468   -6.0506   25.9070 H   0  0  0  0  0  0
  -22.0600   -2.7605   23.2838 H   0  0  0  0  0  0
  -22.4127  -11.9869   22.4743 H   0  0  0  0  0  0
  -21.1119  -13.1237   22.2607 H   0  0  0  0  0  0
  -24.6706  -15.8476   20.4997 H   0  0  0  0  0  0
  -26.2892  -15.6196   20.0758 H   0  0  0  0  0  0
  -26.7056  -32.5553   23.1137 H   0  0  0  0  0  0
  -24.9778  -33.9785   25.0286 H   0  0  0  0  0  0
  -22.6841  -31.3124   21.4133 H   0  0  0  0  0  0
  -23.3740  -35.9696   23.3292 H   0  0  0  0  0  0
  -24.3589  -36.9028   22.2068 H   0  0  0  0  0  0
  -23.7287  -37.6553   23.6706 H   0  0  0  0  0  0
  -26.0430  -31.6056   20.5979 H   0  0  0  0  0  0
  -26.8092  -30.8839   21.9850 H   0  0  0  0  0  0
  -28.0802  -29.1131   21.1726 H   0  0  0  0  0  0
  -26.0381  -26.0170   18.9439 H   0  0  0  0  0  0
  -23.9784  -27.3252   18.9960 H   0  0  0  0  0  0
  -23.6982  -30.6064   19.4029 H   0  0  0  0  0  0
  -22.7225  -29.2477   19.8714 H   0  0  0  0  0  0
  -25.1304  -36.1996   25.0815 H   0  0  0  0  0  0
  -20.9991  -28.3234   24.1430 H   0  0  0  0  0  0
  -20.5735  -26.2250   23.3586 H   0  0  0  0  0  0
  -21.6665  -26.7443   22.1192 H   0  0  0  0  0  0
  -19.6926  -25.6308   21.1222 H   0  0  0  0  0  0
  -19.6679  -27.3227   20.6765 H   0  0  0  0  0  0
  -17.4194  -26.6648   21.4006 H   0  0  0  0  0  0
  -18.0323  -26.0003   22.8999 H   0  0  0  0  0  0
  -19.7968  -30.7251   24.2240 H   0  0  0  0  0  0
  -17.5048  -31.6244   24.5173 H   0  0  0  0  0  0
  -15.5380  -30.2995   23.7631 H   0  0  0  0  0  0
  -15.8686  -28.0874   22.6963 H   0  0  0  0  0  0
  -24.5911  -30.6884   25.7665 H   0  0  0  0  0  0
  -24.8758  -32.2651   26.4870 H   0  0  0  0  0  0
  -25.8002  -30.8697   27.0135 H   0  0  0  0  0  0
  -26.2822  -29.6787   24.1089 H   0  0  0  0  0  0
  -27.4191  -29.7279   25.4388 H   0  0  0  0  0  0
  -27.8575  -30.4436   23.9043 H   0  0  0  0  0  0
  -27.2602  -33.3592   26.2041 H   0  0  0  0  0  0
  -28.3780  -32.6868   25.0274 H   0  0  0  0  0  0
  -28.0646  -31.8392   26.5370 H   0  0  0  0  0  0
  -28.2588  -38.0156   24.7582 H   0  0  0  0  0  0
  -28.1152  -36.2703   24.6232 H   0  0  0  0  0  0
  -27.2302  -37.1422   25.8850 H   0  0  0  0  0  0
  -20.9274  -29.8682   21.6880 H   0  0  0  0  0  0
  -26.0211  -38.2896   24.1333 H   0  0  0  0  0  0
  -30.2230  -20.4022   18.9052 H   0  0  0  0  0  0
  -30.4937  -16.1738   18.3862 H   0  0  0  0  0  0
  -29.1818  -18.5921   23.2744 H   0  0  0  0  0  0
  -30.2985  -17.2339   23.2407 H   0  0  0  0  0  0
  -28.6045  -17.0111   22.8062 H   0  0  0  0  0  0
  -25.5966  -22.5331   20.9291 H   0  0  0  0  0  0
  -25.9830  -22.6338   22.6592 H   0  0  0  0  0  0
  -25.7669  -21.0728   21.8768 H   0  0  0  0  0  0
  -30.2371  -21.3319   21.0727 H   0  0  0  0  0  0
  -30.1425  -20.3942   22.5207 H   0  0  0  0  0  0
  -28.0826  -25.2167   18.7467 H   0  0  0  0  0  0
  -29.5316  -25.0980   19.7044 H   0  0  0  0  0  0
  -29.1458  -15.2622   21.4846 H   0  0  0  0  0  0
  -29.1558  -22.8832   20.3860 H   0  0  0  0  0  0
  -27.7033  -20.1274   22.0672 H   0  0  0  0  0  0
  1 25  1  0  0  0
  1 30  2  0  0  0
  1 83  1  0  0  0
  2  3  1  0  0  0
  2 25  1  0  0  0
  2 88  1  0  0  0
  2 89  1  0  0  0
  3  4  1  0  0  0
  3 90  1  0  0  0
  3 91  1  0  0  0
  4  5  1  0  0  0
  4 92  1  0  0  0
  4 93  1  0  0  0
  5  6  1  0  0  0
  5 26  1  0  0  0
  5 94  1  0  0  0
  6 25  1  0  0  0
  6 95  1  0  0  0
  6 96  1  0  0  0
  7  8  2  0  0  0
  7 26  1  0  0  0
  7 29  1  0  0  0
  8  9  1  0  0  0
  8 22  1  0  0  0
  9 10  1  0  0  0
  9 27  2  0  0  0
 10 11  2  0  0  0
 10 15  1  0  0  0
 11 12  1  0  0  0
 11 97  1  0  0  0
 12 13  2  0  0  0
 12 98  1  0  0  0
 13 14  1  0  0  0
 13 31  1  0  0  0
 14 15  2  0  0  0
 14 99  1  0  0  0
 15100  1  0  0  0
 16 17  2  0  0  0
 16 21  1  0  0  0
 16 31  1  0  0  0
 17 18  1  0  0  0
 17101  1  0  0  0
 18 19  2  0  0  0
 18102  1  0  0  0
 19 20  1  0  0  0
 19 24  1  0  0  0
 20 21  2  0  0  0
 20103  1  0  0  0
 21 23  1  0  0  0
 22 28  1  0  0  0
 22 32  2  0  0  0
 26 27  1  0  0  0
 28104  1  0  0  0
 28105  1  0  0  0
 29106  1  0  0  0
 29107  1  0  0  0
 33 34  1  0  0  0
 33 66  1  0  0  0
 33 70  2  0  0  0
 34 36  1  0  0  0
 34 59  1  0  0  0
 34108  1  0  0  0
 35 44  2  0  0  0
 35 45  1  0  0  0
 35 68  1  0  0  0
 36 56  1  0  0  0
 36109  1  0  0  0
 37 39  1  0  0  0
 37 47  1  0  0  0
 37 66  1  0  0  0
 37110  1  0  0  0
 38 43  2  0  0  0
 38 46  1  0  0  0
 38 47  1  0  0  0
 39 64  1  0  0  0
 39 67  2  0  0  0
 40 52  1  0  0  0
 40 53  2  0  0  0
 40 58  1  0  0  0
 41111  1  0  0  0
 41112  1  0  0  0
 41113  1  0  0  0
 41 48  1  0  0  0
 42 43  1  0  0  0
 42 66  1  0  0  0
 42114  1  0  0  0
 42115  1  0  0  0
 43 44  1  0  0  0
 44116  1  0  0  0
 45 46  2  0  0  0
 45117  1  0  0  0
 46118  1  0  0  0
 47119  1  0  0  0
 47120  1  0  0  0
 48 56  1  0  0  0
 48 65  1  0  0  0
 48121  1  0  0  0
 49 50  1  0  0  0
 49 53  1  0  0  0
 49 64  1  0  0  0
 49122  1  0  0  0
 50 51  1  0  0  0
 50123  1  0  0  0
 50124  1  0  0  0
 51 52  1  0  0  0
 51125  1  0  0  0
 51126  1  0  0  0
 52127  1  0  0  0
 52128  1  0  0  0
 53 54  1  0  0  0
 54 55  2  0  0  0
 54129  1  0  0  0
 55 57  1  0  0  0
 55130  1  0  0  0
 56 69  2  0  0  0
 57 58  2  0  0  0
 57131  1  0  0  0
 58132  1  0  0  0
 59 60  1  0  0  0
 59 61  1  0  0  0
 59 62  1  0  0  0
 60133  1  0  0  0
 60134  1  0  0  0
 60135  1  0  0  0
 61136  1  0  0  0
 61137  1  0  0  0
 61138  1  0  0  0
 62139  1  0  0  0
 62140  1  0  0  0
 62141  1  0  0  0
 63 65  1  0  0  0
 63142  1  0  0  0
 63143  1  0  0  0
 63144  1  0  0  0
 64145  1  0  0  0
 65146  1  0  0  0
 68 82  1  0  0  0
 71 73  2  0  0  0
 71 76  1  0  0  0
 71147  1  0  0  0
 72 75  1  0  0  0
 72 76  2  0  0  0
 72148  1  0  0  0
 73 74  1  0  0  0
 73 81  1  0  0  0
 74 75  2  0  0  0
 74 79  1  0  0  0
 75 83  1  0  0  0
 76 87  1  0  0  0
 77 80  1  0  0  0
 77 84  1  0  0  0
 77 85  2  0  0  0
 78 82  1  0  0  0
 78 84  1  0  0  0
 78 86  2  0  0  0
 79149  1  0  0  0
 79150  1  0  0  0
 79151  1  0  0  0
 80152  1  0  0  0
 80153  1  0  0  0
 80154  1  0  0  0
 81 85  1  0  0  0
 81155  1  0  0  0
 81156  1  0  0  0
 82157  1  0  0  0
 82158  1  0  0  0
 83159  1  0  0  0
 84160  1  0  0  0
 85161  1  0  0  0
M  CHG  1  85   1
M  ISO  4   1 100  68 101  82 101  83 100
M  END
> <chiral flag>
0

> <version>
0

> <s_m_source_file>
/data/baiqing/PycharmProjects/Reinvent-master-3.2/result/LINK_invent/BTK/process_docking_weight1_custom_product_contain_oxygen_bond_distance_aromatic_linkinvent_7_9_3/rearranged_h_0053.sdf

> <i_m_source_file_index>
36

> <r_mmod_Potential_Energy-OPLS-2005>
-130.038314819336

> <r_mmod_Stretch_Energy-OPLS-2005>
38.5706672668457

> <r_mmod_Bend_Energy-OPLS-2005>
112.209785461426

> <r_mmod_Torsional_Energy-OPLS-2005>
238.399597167969

> <r_mmod_Improper_Torsional_Energy-OPLS-2005>
5.29386281967163

> <r_mmod_Van_der_Waal_Energy-OPLS-2005>
167.49543762207

> <r_mmod_Electrostatic_Energy-OPLS-2005>
-219.319244384766

> <r_mmod_Solvation_Energy-OPLS-2005>
-486.002197265625

> <b_mmod_Minimization_Converged-OPLS-2005>
0

> <r_mmod_RMS_Derivative-OPLS-2005>
2.63423442840576

$$$$
36
                    3D
 Structure written by MMmdl.
158167  0  0  1  0            999 V2000
  -30.6263  -14.7692   20.4158 C   0  0  0  0  0  0
  -30.4317  -12.4570   19.4923 C   0  0  0  0  0  0
  -29.5277  -12.5056   18.2398 C   0  0  0  0  0  0
  -28.0445  -12.3595   18.6309 C   0  0  0  0  0  0
  -27.6436  -13.2485   19.8407 C   0  0  2  0  0  0
  -28.6884  -13.1972   20.9766 C   0  0  0  0  0  0
  -25.2507  -13.8244   20.5646 C   0  0  0  0  0  0
  -24.1818  -13.0480   20.9223 C   0  0  0  0  0  0
  -24.6442  -11.6954   20.8772 C   0  0  0  0  0  0
  -23.9104  -10.4322   21.0428 C   0  0  0  0  0  0
  -24.3660   -9.4229   21.9185 C   0  0  0  0  0  0
  -23.6339   -8.2252   22.0739 C   0  0  0  0  0  0
  -22.4315   -8.0300   21.3525 C   0  0  0  0  0  0
  -21.9957   -9.0291   20.4634 C   0  0  0  0  0  0
  -22.7289  -10.2166   20.3053 C   0  0  0  0  0  0
  -21.6868   -6.0755   22.5285 C   0  0  0  0  0  0
  -21.4036   -6.5662   23.8214 C   0  0  0  0  0  0
  -21.3664   -5.6800   24.9174 C   0  0  0  0  0  0
  -21.6057   -4.3064   24.7221 C   0  0  0  0  0  0
  -21.8814   -3.8150   23.4329 C   0  0  0  0  0  0
  -21.9197   -4.6977   22.3398 C   0  0  0  0  0  0
  -22.7811  -13.5258   21.1861 C   0  0  0  0  0  0
  -22.1642   -4.2177   21.0961 F   0  0  0  0  0  0
  -21.5636   -3.4527   25.7706 F   0  0  0  0  0  0
  -29.9905  -13.5436   20.3958 N   0  0  0  0  0  0
  -26.2959  -12.9484   20.3199 N   0  0  0  0  0  0
  -25.9387  -11.6619   20.5707 N   0  0  0  0  0  0
  -22.0395  -12.8271   22.0407 N   0  0  0  0  0  0
  -25.4148  -15.1983   20.4072 N   0  0  0  0  0  0
  -31.8251  -14.8294   20.1385 O   0  0  0  0  0  0
  -21.6655   -6.8905   21.4239 O   0  0  0  0  0  0
  -22.3500  -14.5544   20.6665 O   0  0  0  0  0  0
  -24.6352  -31.8537   23.1929 C   0  0  0  0  0  0
  -25.9168  -32.4739   23.8315 C   0  0  1  0  0  0
  -27.2166  -27.2341   20.0875 C   0  0  0  0  0  0
  -25.5952  -33.8542   24.2210 N   0  0  0  0  0  0
  -23.4261  -30.4817   21.5362 C   0  0  2  0  0  0
  -24.8673  -28.9183   20.1106 C   0  0  0  0  0  0
  -22.7501  -29.4633   22.4873 C   0  0  0  0  0  0
  -18.0284  -28.1316   22.8456 C   0  0  0  0  0  0
  -24.1488  -36.7279   23.2634 C   0  0  0  0  0  0
  -25.9777  -30.7548   21.3784 C   0  0  0  0  0  0
  -26.0460  -29.3748   20.7149 C   0  0  0  0  0  0
  -27.2154  -28.5432   20.6945 C   0  0  0  0  0  0
  -25.9996  -26.8485   19.4906 C   0  0  0  0  0  0
  -24.8486  -27.6577   19.5010 C   0  0  0  0  0  0
  -23.6402  -29.8084   20.1565 C   0  0  0  0  0  0
  -25.4115  -36.3061   24.0304 C   0  0  1  0  0  0
  -20.5895  -28.3646   23.1225 C   0  0  2  0  0  0
  -20.6716  -26.9355   22.5361 C   0  0  0  0  0  0
  -19.5700  -26.6314   21.5140 C   0  0  0  0  0  0
  -18.1904  -26.7848   22.1593 C   0  0  0  0  0  0
  -19.1541  -28.8787   23.2833 C   0  0  0  0  0  0
  -18.9478  -30.1385   23.8857 C   0  0  0  0  0  0
  -17.6487  -30.6529   24.0523 C   0  0  0  0  0  0
  -25.9066  -34.9435   23.5047 C   0  0  0  0  0  0
  -16.5369  -29.9023   23.6321 C   0  0  0  0  0  0
  -16.7280  -28.6428   23.0357 C   0  0  0  0  0  0
  -26.4485  -31.6616   25.0757 C   0  0  0  0  0  0
  -25.3703  -31.3819   26.1496 C   0  0  0  0  0  0
  -27.0325  -30.3018   24.6300 C   0  0  0  0  0  0
  -27.6000  -32.4398   25.7567 C   0  0  0  0  0  0
  -27.5585  -37.1777   24.8437 C   0  0  0  0  0  0
  -21.4205  -29.3049   22.3649 N   0  0  0  0  0  0
  -26.4266  -37.3789   23.9429 N   0  0  0  0  0  0
  -24.6989  -31.0510   22.0895 N   0  0  0  0  0  0
  -23.4228  -28.8164   23.2954 O   0  0  0  0  0  0
  -28.3514  -26.3795   20.1100 O   0  0  0  0  0  0
  -26.5645  -34.8935   22.4635 O   0  0  0  0  0  0
  -23.5499  -32.1366   23.7223 O   0  0  0  0  0  0
  -30.5397  -20.0409   19.1718 C   0  0  0  0  0  0
  -31.1077  -17.6450   19.2199 C   0  0  0  0  0  0
  -29.5036  -19.8589   20.1106 C   0  0  0  0  0  0
  -29.3245  -18.5015   20.6273 C   0  0  0  0  0  0
  -30.1000  -17.3479   20.1686 C   0  0  0  0  0  0
  -31.3340  -18.9593   18.7537 C   0  0  0  0  0  0
  -28.7930  -23.7512   20.5251 C   0  0  0  0  0  0
  -27.7556  -24.2221   18.4484 C   0  0  0  0  0  0
  -28.2236  -22.7377   18.5377 C   0  0  0  0  0  0
  -28.5446  -24.9667   19.5511 C   0  0  1  0  0  0
  -28.3196  -18.3110   21.7545 C   0  0  0  0  0  0
  -28.6349  -21.1267   20.5502 C   0  0  0  0  0  0
  -28.7134  -22.5194   19.9078 N   0  0  0  0  0  0
  -29.8617  -15.9252   20.5785 N   0  0  0  0  0  0
  -29.0196  -23.9155   21.7285 O   0  0  0  0  0  0
  -32.6239  -19.2550   17.6507 Cl  0  0  0  0  0  0
  -31.4803  -12.5541   19.2082 H   0  0  0  0  0  0
  -30.3437  -11.4912   19.9933 H   0  0  0  0  0  0
  -29.8158  -11.7135   17.5471 H   0  0  0  0  0  0
  -29.6766  -13.4466   17.7067 H   0  0  0  0  0  0
  -27.8728  -11.3100   18.8662 H   0  0  0  0  0  0
  -27.4090  -12.5834   17.7729 H   0  0  0  0  0  0
  -27.6341  -14.2728   19.4698 H   0  0  0  0  0  0
  -28.7186  -12.2078   21.4348 H   0  0  0  0  0  0
  -28.4201  -13.8989   21.7686 H   0  0  0  0  0  0
  -25.2797   -9.5736   22.4772 H   0  0  0  0  0  0
  -24.0062   -7.4650   22.7483 H   0  0  0  0  0  0
  -21.0858   -8.8848   19.8978 H   0  0  0  0  0  0
  -22.3744  -10.9722   19.6179 H   0  0  0  0  0  0
  -21.2022   -7.6167   23.9747 H   0  0  0  0  0  0
  -21.1497   -6.0498   25.9086 H   0  0  0  0  0  0
  -22.0583   -2.7617   23.2809 H   0  0  0  0  0  0
  -22.3970  -11.9985   22.4924 H   0  0  0  0  0  0
  -21.1009  -13.1336   22.2520 H   0  0  0  0  0  0
  -24.6408  -15.8449   20.5106 H   0  0  0  0  0  0
  -26.2564  -15.6415   20.0627 H   0  0  0  0  0  0
  -26.7222  -32.5371   23.1049 H   0  0  0  0  0  0
  -25.0072  -33.9659   25.0320 H   0  0  0  0  0  0
  -22.7238  -31.3048   21.3863 H   0  0  0  0  0  0
  -23.3777  -35.9580   23.3212 H   0  0  0  0  0  0
  -24.3600  -36.9009   22.2074 H   0  0  0  0  0  0
  -23.7183  -37.6418   23.6731 H   0  0  0  0  0  0
  -26.1235  -31.5148   20.6110 H   0  0  0  0  0  0
  -26.8470  -30.7993   22.0220 H   0  0  0  0  0  0
  -28.1204  -28.8872   21.1774 H   0  0  0  0  0  0
  -25.8724  -25.9003   19.0245 H   0  0  0  0  0  0
  -23.9382  -27.2802   19.0524 H   0  0  0  0  0  0
  -23.7598  -30.5733   19.3898 H   0  0  0  0  0  0
  -22.7590  -29.2369   19.8615 H   0  0  0  0  0  0
  -25.1290  -36.1874   25.0782 H   0  0  0  0  0  0
  -20.9978  -28.3179   24.1349 H   0  0  0  0  0  0
  -20.5434  -26.2299   23.3572 H   0  0  0  0  0  0
  -21.6606  -26.7224   22.1280 H   0  0  0  0  0  0
  -19.6842  -25.6208   21.1180 H   0  0  0  0  0  0
  -19.6623  -27.3094   20.6639 H   0  0  0  0  0  0
  -17.4149  -26.6555   21.4030 H   0  0  0  0  0  0
  -18.0375  -25.9976   22.8996 H   0  0  0  0  0  0
  -19.7982  -30.7162   24.2217 H   0  0  0  0  0  0
  -17.5074  -31.6225   24.5108 H   0  0  0  0  0  0
  -15.5362  -30.2915   23.7637 H   0  0  0  0  0  0
  -15.8686  -28.0711   22.7098 H   0  0  0  0  0  0
  -24.5767  -30.7288   25.7842 H   0  0  0  0  0  0
  -24.9033  -32.3024   26.5030 H   0  0  0  0  0  0
  -25.8031  -30.8900   27.0217 H   0  0  0  0  0  0
  -26.2924  -29.6814   24.1236 H   0  0  0  0  0  0
  -27.3832  -29.7275   25.4883 H   0  0  0  0  0  0
  -27.8890  -30.4232   23.9664 H   0  0  0  0  0  0
  -27.2510  -33.3648   26.2173 H   0  0  0  0  0  0
  -28.3831  -32.7062   25.0456 H   0  0  0  0  0  0
  -28.0649  -31.8528   26.5492 H   0  0  0  0  0  0
  -28.2518  -38.0164   24.7625 H   0  0  0  0  0  0
  -28.1159  -36.2702   24.6060 H   0  0  0  0  0  0
  -27.2342  -37.1194   25.8845 H   0  0  0  0  0  0
  -20.9335  -29.9011   21.7094 H   0  0  0  0  0  0
  -26.0127  -38.2831   24.1544 H   0  0  0  0  0  0
  -30.7513  -21.0229   18.7737 H   0  0  0  0  0  0
  -31.7438  -16.8688   18.8222 H   0  0  0  0  0  0
  -26.6860  -24.1785   18.6194 H   0  0  0  0  0  0
  -27.9240  -24.6404   17.4568 H   0  0  0  0  0  0
  -29.0159  -22.5441   17.8130 H   0  0  0  0  0  0
  -27.3953  -22.0674   18.2993 H   0  0  0  0  0  0
  -29.5316  -25.0791   19.0937 H   0  0  0  0  0  0
  -28.6440  -18.8855   22.6233 H   0  0  0  0  0  0
  -28.2285  -17.2742   22.0682 H   0  0  0  0  0  0
  -27.3279  -18.6578   21.4731 H   0  0  0  0  0  0
  -28.7509  -21.2512   21.6282 H   0  0  0  0  0  0
  -27.5960  -20.8241   20.4087 H   0  0  0  0  0  0
  -28.9289  -15.7498   20.9182 H   0  0  0  0  0  0
  1 25  1  0  0  0
  1 30  2  0  0  0
  1 84  1  0  0  0
  2  3  1  0  0  0
  2 25  1  0  0  0
  2 87  1  0  0  0
  2 88  1  0  0  0
  3  4  1  0  0  0
  3 89  1  0  0  0
  3 90  1  0  0  0
  4  5  1  0  0  0
  4 91  1  0  0  0
  4 92  1  0  0  0
  5  6  1  0  0  0
  5 26  1  0  0  0
  5 93  1  0  0  0
  6 25  1  0  0  0
  6 94  1  0  0  0
  6 95  1  0  0  0
  7  8  2  0  0  0
  7 26  1  0  0  0
  7 29  1  0  0  0
  8  9  1  0  0  0
  8 22  1  0  0  0
  9 10  1  0  0  0
  9 27  2  0  0  0
 10 11  2  0  0  0
 10 15  1  0  0  0
 11 12  1  0  0  0
 11 96  1  0  0  0
 12 13  2  0  0  0
 12 97  1  0  0  0
 13 14  1  0  0  0
 13 31  1  0  0  0
 14 15  2  0  0  0
 14 98  1  0  0  0
 15 99  1  0  0  0
 16 17  2  0  0  0
 16 21  1  0  0  0
 16 31  1  0  0  0
 17 18  1  0  0  0
 17100  1  0  0  0
 18 19  2  0  0  0
 18101  1  0  0  0
 19 20  1  0  0  0
 19 24  1  0  0  0
 20 21  2  0  0  0
 20102  1  0  0  0
 21 23  1  0  0  0
 22 28  1  0  0  0
 22 32  2  0  0  0
 26 27  1  0  0  0
 28103  1  0  0  0
 28104  1  0  0  0
 29105  1  0  0  0
 29106  1  0  0  0
 33 34  1  0  0  0
 33 66  1  0  0  0
 33 70  2  0  0  0
 34 36  1  0  0  0
 34 59  1  0  0  0
 34107  1  0  0  0
 35 44  2  0  0  0
 35 45  1  0  0  0
 35 68  1  0  0  0
 36 56  1  0  0  0
 36108  1  0  0  0
 37 39  1  0  0  0
 37 47  1  0  0  0
 37 66  1  0  0  0
 37109  1  0  0  0
 38 43  2  0  0  0
 38 46  1  0  0  0
 38 47  1  0  0  0
 39 64  1  0  0  0
 39 67  2  0  0  0
 40 52  1  0  0  0
 40 53  2  0  0  0
 40 58  1  0  0  0
 41110  1  0  0  0
 41111  1  0  0  0
 41112  1  0  0  0
 41 48  1  0  0  0
 42 43  1  0  0  0
 42 66  1  0  0  0
 42113  1  0  0  0
 42114  1  0  0  0
 43 44  1  0  0  0
 44115  1  0  0  0
 45 46  2  0  0  0
 45116  1  0  0  0
 46117  1  0  0  0
 47118  1  0  0  0
 47119  1  0  0  0
 48 56  1  0  0  0
 48 65  1  0  0  0
 48120  1  0  0  0
 49 50  1  0  0  0
 49 53  1  0  0  0
 49 64  1  0  0  0
 49121  1  0  0  0
 50 51  1  0  0  0
 50122  1  0  0  0
 50123  1  0  0  0
 51 52  1  0  0  0
 51124  1  0  0  0
 51125  1  0  0  0
 52126  1  0  0  0
 52127  1  0  0  0
 53 54  1  0  0  0
 54 55  2  0  0  0
 54128  1  0  0  0
 55 57  1  0  0  0
 55129  1  0  0  0
 56 69  2  0  0  0
 57 58  2  0  0  0
 57130  1  0  0  0
 58131  1  0  0  0
 59 60  1  0  0  0
 59 61  1  0  0  0
 59 62  1  0  0  0
 60132  1  0  0  0
 60133  1  0  0  0
 60134  1  0  0  0
 61135  1  0  0  0
 61136  1  0  0  0
 61137  1  0  0  0
 62138  1  0  0  0
 62139  1  0  0  0
 62140  1  0  0  0
 63 65  1  0  0  0
 63141  1  0  0  0
 63142  1  0  0  0
 63143  1  0  0  0
 64144  1  0  0  0
 65145  1  0  0  0
 68 80  1  0  0  0
 71 73  2  0  0  0
 71 76  1  0  0  0
 71146  1  0  0  0
 72 75  1  0  0  0
 72 76  2  0  0  0
 72147  1  0  0  0
 73 74  1  0  0  0
 73 82  1  0  0  0
 74 75  2  0  0  0
 74 81  1  0  0  0
 75 84  1  0  0  0
 76 86  1  0  0  0
 77 80  1  0  0  0
 77 83  1  0  0  0
 77 85  2  0  0  0
 78 79  1  0  0  0
 78 80  1  0  0  0
 78148  1  0  0  0
 78149  1  0  0  0
 79 83  1  0  0  0
 79150  1  0  0  0
 79151  1  0  0  0
 80152  1  0  0  0
 81153  1  0  0  0
 81154  1  0  0  0
 81155  1  0  0  0
 82 83  1  0  0  0
 82156  1  0  0  0
 82157  1  0  0  0
 84158  1  0  0  0
M  ISO  4   1 100  68 101  80 101  84 100
M  END
> <chiral flag>
0

> <version>
0

> <s_m_source_file>
/data/baiqing/PycharmProjects/Reinvent-master-3.2/result/LINK_invent/BTK/process_docking_weight1_custom_product_contain_oxygen_bond_distance_aromatic_linkinvent_7_9_3/rearranged_h_0053.sdf

> <i_m_source_file_index>
37

> <r_mmod_Potential_Energy-OPLS-2005>
277.138305664062

> <r_mmod_Stretch_Energy-OPLS-2005>
137.0703125

> <r_mmod_Bend_Energy-OPLS-2005>
263.074829101562

> <r_mmod_Torsional_Energy-OPLS-2005>
236.874206542969

> <r_mmod_Improper_Torsional_Energy-OPLS-2005>
5.23273754119873

> <r_mmod_Van_der_Waal_Energy-OPLS-2005>
134.234497070312

> <r_mmod_Electrostatic_Energy-OPLS-2005>
-351.883270263672

> <r_mmod_Solvation_Energy-OPLS-2005>
-241.348007202148

> <b_mmod_Minimization_Converged-OPLS-2005>
0

> <r_mmod_RMS_Derivative-OPLS-2005>
5.95331573486328

$$$$
37
                    3D
 Structure written by MMmdl.
160168  0  0  1  0            999 V2000
  -30.6927  -14.4674   20.5512 C   0  0  0  0  0  0
  -30.4250  -12.2959   19.4259 C   0  0  0  0  0  0
  -29.4976  -12.5002   18.2092 C   0  0  0  0  0  0
  -28.0171  -12.3662   18.6195 C   0  0  0  0  0  0
  -27.6639  -13.2056   19.8767 C   0  0  2  0  0  0
  -28.7041  -12.9807   20.9980 C   0  0  0  0  0  0
  -25.2603  -13.8165   20.5682 C   0  0  0  0  0  0
  -24.1848  -13.0443   20.9168 C   0  0  0  0  0  0
  -24.6398  -11.6907   20.8733 C   0  0  0  0  0  0
  -23.9062  -10.4293   21.0407 C   0  0  0  0  0  0
  -24.3614   -9.4209   21.9186 C   0  0  0  0  0  0
  -23.6288   -8.2245   22.0757 C   0  0  0  0  0  0
  -22.4273   -8.0282   21.3548 C   0  0  0  0  0  0
  -21.9905   -9.0256   20.4651 C   0  0  0  0  0  0
  -22.7234  -10.2134   20.3056 C   0  0  0  0  0  0
  -21.6851   -6.0733   22.5280 C   0  0  0  0  0  0
  -21.4012   -6.5641   23.8213 C   0  0  0  0  0  0
  -21.3657   -5.6793   24.9175 C   0  0  0  0  0  0
  -21.6044   -4.3055   24.7227 C   0  0  0  0  0  0
  -21.8819   -3.8145   23.4348 C   0  0  0  0  0  0
  -21.9193   -4.6961   22.3404 C   0  0  0  0  0  0
  -22.7872  -13.5244   21.1832 C   0  0  0  0  0  0
  -22.1662   -4.2147   21.0982 F   0  0  0  0  0  0
  -21.5629   -3.4539   25.7737 F   0  0  0  0  0  0
  -30.0393  -13.2788   20.4502 N   0  0  0  0  0  0
  -26.3036  -12.9330   20.3368 N   0  0  0  0  0  0
  -25.9326  -11.6489   20.5768 N   0  0  0  0  0  0
  -22.0507  -12.8243   22.0389 N   0  0  0  0  0  0
  -25.4348  -15.1880   20.4104 N   0  0  0  0  0  0
  -31.8306  -14.6385   20.1057 O   0  0  0  0  0  0
  -21.6640   -6.8877   21.4242 O   0  0  0  0  0  0
  -22.3560  -14.5554   20.6685 O   0  0  0  0  0  0
  -24.6135  -31.8683   23.2106 C   0  0  0  0  0  0
  -25.9030  -32.4827   23.8399 C   0  0  1  0  0  0
  -27.2355  -27.4505   20.0962 C   0  0  0  0  0  0
  -25.5888  -33.8623   24.2340 N   0  0  0  0  0  0
  -23.4013  -30.4919   21.5498 C   0  0  2  0  0  0
  -24.8505  -28.9592   20.1124 C   0  0  0  0  0  0
  -22.7404  -29.4665   22.4987 C   0  0  0  0  0  0
  -18.0267  -28.1375   22.8501 C   0  0  0  0  0  0
  -24.1485  -36.7316   23.2637 C   0  0  0  0  0  0
  -25.9284  -30.8397   21.3604 C   0  0  0  0  0  0
  -26.0091  -29.4749   20.7088 C   0  0  0  0  0  0
  -27.2082  -28.7274   20.6989 C   0  0  0  0  0  0
  -26.0664  -26.9460   19.4912 C   0  0  0  0  0  0
  -24.8730  -27.6932   19.5002 C   0  0  0  0  0  0
  -23.6101  -29.8229   20.1642 C   0  0  0  0  0  0
  -25.4100  -36.3109   24.0346 C   0  0  1  0  0  0
  -20.5860  -28.3657   23.1324 C   0  0  2  0  0  0
  -20.6763  -26.9397   22.5419 C   0  0  0  0  0  0
  -19.5739  -26.6385   21.5216 C   0  0  0  0  0  0
  -18.1916  -26.7925   22.1625 C   0  0  0  0  0  0
  -19.1519  -28.8831   23.2913 C   0  0  0  0  0  0
  -18.9450  -30.1441   23.8917 C   0  0  0  0  0  0
  -17.6455  -30.6586   24.0570 C   0  0  0  0  0  0
  -25.9026  -34.9476   23.5137 C   0  0  0  0  0  0
  -16.5343  -29.9094   23.6325 C   0  0  0  0  0  0
  -16.7258  -28.6509   23.0347 C   0  0  0  0  0  0
  -26.4463  -31.6593   25.0719 C   0  0  0  0  0  0
  -25.3741  -31.3704   26.1478 C   0  0  0  0  0  0
  -27.0279  -30.3038   24.6066 C   0  0  0  0  0  0
  -27.6048  -32.4298   25.7475 C   0  0  0  0  0  0
  -27.5583  -37.1801   24.8458 C   0  0  0  0  0  0
  -21.4132  -29.3034   22.3736 N   0  0  0  0  0  0
  -26.4284  -37.3796   23.9423 N   0  0  0  0  0  0
  -24.6659  -31.0801   22.0994 N   0  0  0  0  0  0
  -23.4186  -28.8207   23.3018 O   0  0  0  0  0  0
  -28.3715  -26.6778   20.1115 O   0  0  0  0  0  0
  -26.5592  -34.8931   22.4701 O   0  0  0  0  0  0
  -23.5330  -32.1421   23.7515 O   0  0  0  0  0  0
  -28.7750  -19.0164   20.8533 C   0  0  0  0  0  0
  -28.9273  -17.6725   21.2544 C   0  0  0  0  0  0
  -30.8214  -17.4502   19.7584 C   0  0  0  0  0  0
  -29.6247  -19.5876   19.8801 C   0  0  0  0  0  0
  -30.6826  -18.7988   19.3451 C   0  0  0  0  0  0
  -29.9367  -16.8598   20.6958 C   0  0  0  0  0  0
  -29.0557  -23.3641   20.0590 C   0  0  0  0  0  0
  -30.6720  -21.9511   21.3024 C   0  0  0  0  0  0
  -29.3240  -21.0120   19.3804 C   0  0  0  0  0  0
  -29.4006  -24.5595   20.9773 C   0  0  0  0  0  0
  -28.3035  -25.6436   21.1034 C   0  0  0  0  0  0
  -31.6572  -19.3568   18.3039 C   0  0  0  0  0  0
  -29.9618  -15.4747   21.0717 N   0  0  0  0  0  0
  -29.6463  -22.1532   20.2688 N   0  0  0  0  0  0
  -28.2450  -23.5408   19.1440 O   0  0  0  0  0  0
  -32.6906  -18.5391   18.0969 F   0  0  0  0  0  0
  -31.0305  -19.5219   17.1389 F   0  0  0  0  0  0
  -32.1542  -20.5293   18.6984 F   0  0  0  0  0  0
  -31.4704  -12.3915   19.1254 H   0  0  0  0  0  0
  -30.3232  -11.2844   19.8211 H   0  0  0  0  0  0
  -29.7358  -11.7750   17.4298 H   0  0  0  0  0  0
  -29.6709  -13.4855   17.7724 H   0  0  0  0  0  0
  -27.8236  -11.3107   18.8144 H   0  0  0  0  0  0
  -27.3691  -12.6438   17.7876 H   0  0  0  0  0  0
  -27.7104  -14.2541   19.5809 H   0  0  0  0  0  0
  -28.6753  -11.9451   21.3398 H   0  0  0  0  0  0
  -28.4672  -13.5809   21.8776 H   0  0  0  0  0  0
  -25.2760   -9.5684   22.4757 H   0  0  0  0  0  0
  -24.0000   -7.4634   22.7477 H   0  0  0  0  0  0
  -21.0834   -8.8771   19.8958 H   0  0  0  0  0  0
  -22.3695  -10.9668   19.6162 H   0  0  0  0  0  0
  -21.2004   -7.6148   23.9715 H   0  0  0  0  0  0
  -21.1479   -6.0524   25.9079 H   0  0  0  0  0  0
  -22.0601   -2.7605   23.2848 H   0  0  0  0  0  0
  -22.4109  -11.9898   22.4770 H   0  0  0  0  0  0
  -21.1126  -13.1279   22.2593 H   0  0  0  0  0  0
  -24.6709  -15.8461   20.5210 H   0  0  0  0  0  0
  -26.2906  -15.6251   20.0917 H   0  0  0  0  0  0
  -26.7110  -32.5550   23.1174 H   0  0  0  0  0  0
  -25.0042  -33.9782   25.0488 H   0  0  0  0  0  0
  -22.6896  -31.3081   21.4103 H   0  0  0  0  0  0
  -23.3747  -35.9644   23.3277 H   0  0  0  0  0  0
  -24.3595  -36.8948   22.2057 H   0  0  0  0  0  0
  -23.7229  -37.6516   23.6656 H   0  0  0  0  0  0
  -26.0365  -31.6053   20.5909 H   0  0  0  0  0  0
  -26.8185  -30.8963   21.9753 H   0  0  0  0  0  0
  -28.1025  -29.1178   21.1646 H   0  0  0  0  0  0
  -26.0821  -25.9708   19.0243 H   0  0  0  0  0  0
  -23.9828  -27.2902   19.0372 H   0  0  0  0  0  0
  -23.7172  -30.5972   19.4037 H   0  0  0  0  0  0
  -22.7351  -29.2408   19.8698 H   0  0  0  0  0  0
  -25.1271  -36.1966   25.0836 H   0  0  0  0  0  0
  -20.9954  -28.3214   24.1442 H   0  0  0  0  0  0
  -20.5659  -26.2265   23.3603 H   0  0  0  0  0  0
  -21.6633  -26.7442   22.1205 H   0  0  0  0  0  0
  -19.6899  -25.6302   21.1227 H   0  0  0  0  0  0
  -19.6677  -27.3214   20.6761 H   0  0  0  0  0  0
  -17.4189  -26.6681   21.4025 H   0  0  0  0  0  0
  -18.0313  -26.0062   22.9013 H   0  0  0  0  0  0
  -19.7930  -30.7255   24.2285 H   0  0  0  0  0  0
  -17.5015  -31.6267   24.5169 H   0  0  0  0  0  0
  -15.5347  -30.3006   23.7640 H   0  0  0  0  0  0
  -15.8657  -28.0845   22.7038 H   0  0  0  0  0  0
  -24.5891  -30.7073   25.7823 H   0  0  0  0  0  0
  -24.8962  -32.2870   26.4951 H   0  0  0  0  0  0
  -25.8105  -30.8851   27.0219 H   0  0  0  0  0  0
  -26.2811  -29.6813   24.1124 H   0  0  0  0  0  0
  -27.4072  -29.7252   25.4498 H   0  0  0  0  0  0
  -27.8635  -30.4368   23.9190 H   0  0  0  0  0  0
  -27.2679  -33.3594   26.2072 H   0  0  0  0  0  0
  -28.3848  -32.6859   25.0291 H   0  0  0  0  0  0
  -28.0721  -31.8403   26.5375 H   0  0  0  0  0  0
  -28.2571  -38.0128   24.7543 H   0  0  0  0  0  0
  -28.1110  -36.2664   24.6217 H   0  0  0  0  0  0
  -27.2321  -37.1366   25.8864 H   0  0  0  0  0  0
  -20.9276  -29.8780   21.6992 H   0  0  0  0  0  0
  -26.0170  -38.2868   24.1442 H   0  0  0  0  0  0
  -27.9699  -19.6041   21.2727 H   0  0  0  0  0  0
  -28.2342  -17.2644   21.9778 H   0  0  0  0  0  0
  -31.6090  -16.8690   19.3081 H   0  0  0  0  0  0
  -30.2039  -21.8445   22.2817 H   0  0  0  0  0  0
  -31.3700  -22.7880   21.3452 H   0  0  0  0  0  0
  -31.2864  -21.0686   21.1347 H   0  0  0  0  0  0
  -28.2524  -21.0197   19.1692 H   0  0  0  0  0  0
  -29.7876  -21.1963   18.4125 H   0  0  0  0  0  0
  -30.3422  -25.0062   20.6581 H   0  0  0  0  0  0
  -29.5643  -24.1772   21.9840 H   0  0  0  0  0  0
  -28.4037  -26.1229   22.0784 H   0  0  0  0  0  0
  -27.3214  -25.1652   21.1143 H   0  0  0  0  0  0
  -29.1438  -15.1558   21.5685 H   0  0  0  0  0  0
  1 25  1  0  0  0
  1 30  2  0  0  0
  1 83  1  0  0  0
  2  3  1  0  0  0
  2 25  1  0  0  0
  2 89  1  0  0  0
  2 90  1  0  0  0
  3  4  1  0  0  0
  3 91  1  0  0  0
  3 92  1  0  0  0
  4  5  1  0  0  0
  4 93  1  0  0  0
  4 94  1  0  0  0
  5  6  1  0  0  0
  5 26  1  0  0  0
  5 95  1  0  0  0
  6 25  1  0  0  0
  6 96  1  0  0  0
  6 97  1  0  0  0
  7  8  2  0  0  0
  7 26  1  0  0  0
  7 29  1  0  0  0
  8  9  1  0  0  0
  8 22  1  0  0  0
  9 10  1  0  0  0
  9 27  2  0  0  0
 10 11  2  0  0  0
 10 15  1  0  0  0
 11 12  1  0  0  0
 11 98  1  0  0  0
 12 13  2  0  0  0
 12 99  1  0  0  0
 13 14  1  0  0  0
 13 31  1  0  0  0
 14 15  2  0  0  0
 14100  1  0  0  0
 15101  1  0  0  0
 16 17  2  0  0  0
 16 21  1  0  0  0
 16 31  1  0  0  0
 17 18  1  0  0  0
 17102  1  0  0  0
 18 19  2  0  0  0
 18103  1  0  0  0
 19 20  1  0  0  0
 19 24  1  0  0  0
 20 21  2  0  0  0
 20104  1  0  0  0
 21 23  1  0  0  0
 22 28  1  0  0  0
 22 32  2  0  0  0
 26 27  1  0  0  0
 28105  1  0  0  0
 28106  1  0  0  0
 29107  1  0  0  0
 29108  1  0  0  0
 33 34  1  0  0  0
 33 66  1  0  0  0
 33 70  2  0  0  0
 34 36  1  0  0  0
 34 59  1  0  0  0
 34109  1  0  0  0
 35 44  2  0  0  0
 35 45  1  0  0  0
 35 68  1  0  0  0
 36 56  1  0  0  0
 36110  1  0  0  0
 37 39  1  0  0  0
 37 47  1  0  0  0
 37 66  1  0  0  0
 37111  1  0  0  0
 38 43  2  0  0  0
 38 46  1  0  0  0
 38 47  1  0  0  0
 39 64  1  0  0  0
 39 67  2  0  0  0
 40 52  1  0  0  0
 40 53  2  0  0  0
 40 58  1  0  0  0
 41112  1  0  0  0
 41113  1  0  0  0
 41114  1  0  0  0
 41 48  1  0  0  0
 42 43  1  0  0  0
 42 66  1  0  0  0
 42115  1  0  0  0
 42116  1  0  0  0
 43 44  1  0  0  0
 44117  1  0  0  0
 45 46  2  0  0  0
 45118  1  0  0  0
 46119  1  0  0  0
 47120  1  0  0  0
 47121  1  0  0  0
 48 56  1  0  0  0
 48 65  1  0  0  0
 48122  1  0  0  0
 49 50  1  0  0  0
 49 53  1  0  0  0
 49 64  1  0  0  0
 49123  1  0  0  0
 50 51  1  0  0  0
 50124  1  0  0  0
 50125  1  0  0  0
 51 52  1  0  0  0
 51126  1  0  0  0
 51127  1  0  0  0
 52128  1  0  0  0
 52129  1  0  0  0
 53 54  1  0  0  0
 54 55  2  0  0  0
 54130  1  0  0  0
 55 57  1  0  0  0
 55131  1  0  0  0
 56 69  2  0  0  0
 57 58  2  0  0  0
 57132  1  0  0  0
 58133  1  0  0  0
 59 60  1  0  0  0
 59 61  1  0  0  0
 59 62  1  0  0  0
 60134  1  0  0  0
 60135  1  0  0  0
 60136  1  0  0  0
 61137  1  0  0  0
 61138  1  0  0  0
 61139  1  0  0  0
 62140  1  0  0  0
 62141  1  0  0  0
 62142  1  0  0  0
 63 65  1  0  0  0
 63143  1  0  0  0
 63144  1  0  0  0
 63145  1  0  0  0
 64146  1  0  0  0
 65147  1  0  0  0
 68 81  1  0  0  0
 71 72  2  0  0  0
 71 74  1  0  0  0
 71148  1  0  0  0
 72 76  1  0  0  0
 72149  1  0  0  0
 73 75  1  0  0  0
 73 76  2  0  0  0
 73150  1  0  0  0
 74 75  2  0  0  0
 74 79  1  0  0  0
 75 82  1  0  0  0
 76 83  1  0  0  0
 77 80  1  0  0  0
 77 84  1  0  0  0
 77 85  2  0  0  0
 78 84  1  0  0  0
 78151  1  0  0  0
 78152  1  0  0  0
 78153  1  0  0  0
 79 84  1  0  0  0
 79154  1  0  0  0
 79155  1  0  0  0
 80 81  1  0  0  0
 80156  1  0  0  0
 80157  1  0  0  0
 81158  1  0  0  0
 81159  1  0  0  0
 82 86  1  0  0  0
 82 87  1  0  0  0
 82 88  1  0  0  0
 83160  1  0  0  0
M  ISO  4   1 100  68 101  81 101  83 100
M  END
> <chiral flag>
0

> <version>
0

> <s_m_source_file>
/data/baiqing/PycharmProjects/Reinvent-master-3.2/result/LINK_invent/BTK/process_docking_weight1_custom_product_contain_oxygen_bond_distance_aromatic_linkinvent_7_9_3/rearranged_h_0053.sdf

> <i_m_source_file_index>
38

> <r_mmod_Potential_Energy-OPLS-2005>
-10.7069568634033

> <r_mmod_Stretch_Energy-OPLS-2005>
41.8038139343262

> <r_mmod_Bend_Energy-OPLS-2005>
102.213279724121

> <r_mmod_Torsional_Energy-OPLS-2005>
252.083602905273

> <r_mmod_Improper_Torsional_Energy-OPLS-2005>
4.264892578125

> <r_mmod_Van_der_Waal_Energy-OPLS-2005>
168.766845703125

> <r_mmod_Electrostatic_Energy-OPLS-2005>
-368.841613769531

> <r_mmod_Solvation_Energy-OPLS-2005>
-223.541839599609

> <b_mmod_Minimization_Converged-OPLS-2005>
0

> <r_mmod_RMS_Derivative-OPLS-2005>
0.783284962177277

$$$$
38
                    3D
 Structure written by MMmdl.
157165  0  0  1  0            999 V2000
  -30.6388  -14.6244   20.5116 C   0  0  0  0  0  0
  -30.4394  -12.3845   19.4525 C   0  0  0  0  0  0
  -29.5086  -12.5097   18.2262 C   0  0  0  0  0  0
  -28.0302  -12.3518   18.6351 C   0  0  0  0  0  0
  -27.6568  -13.2169   19.8678 C   0  0  2  0  0  0
  -28.7022  -13.0641   20.9973 C   0  0  0  0  0  0
  -25.2578  -13.8177   20.5684 C   0  0  0  0  0  0
  -24.1835  -13.0455   20.9186 C   0  0  0  0  0  0
  -24.6411  -11.6922   20.8754 C   0  0  0  0  0  0
  -23.9084  -10.4303   21.0407 C   0  0  0  0  0  0
  -24.3630   -9.4209   21.9184 C   0  0  0  0  0  0
  -23.6302   -8.2248   22.0753 C   0  0  0  0  0  0
  -22.4283   -8.0289   21.3536 C   0  0  0  0  0  0
  -21.9926   -9.0266   20.4639 C   0  0  0  0  0  0
  -22.7265  -10.2148   20.3054 C   0  0  0  0  0  0
  -21.6859   -6.0750   22.5286 C   0  0  0  0  0  0
  -21.4010   -6.5645   23.8221 C   0  0  0  0  0  0
  -21.3651   -5.6792   24.9175 C   0  0  0  0  0  0
  -21.6048   -4.3062   24.7226 C   0  0  0  0  0  0
  -21.8818   -3.8162   23.4344 C   0  0  0  0  0  0
  -21.9188   -4.6976   22.3400 C   0  0  0  0  0  0
  -22.7852  -13.5243   21.1849 C   0  0  0  0  0  0
  -22.1657   -4.2161   21.0981 F   0  0  0  0  0  0
  -21.5626   -3.4550   25.7740 F   0  0  0  0  0  0
  -30.0224  -13.4017   20.4383 N   0  0  0  0  0  0
  -26.3010  -12.9361   20.3345 N   0  0  0  0  0  0
  -25.9337  -11.6517   20.5766 N   0  0  0  0  0  0
  -22.0496  -12.8222   22.0411 N   0  0  0  0  0  0
  -25.4311  -15.1898   20.4090 N   0  0  0  0  0  0
  -31.7909  -14.7864   20.0989 O   0  0  0  0  0  0
  -21.6643   -6.8895   21.4247 O   0  0  0  0  0  0
  -22.3537  -14.5554   20.6717 O   0  0  0  0  0  0
  -24.6264  -31.8602   23.2033 C   0  0  0  0  0  0
  -25.9117  -32.4778   23.8361 C   0  0  1  0  0  0
  -27.2235  -27.3271   20.1151 C   0  0  0  0  0  0
  -25.5948  -33.8584   24.2296 N   0  0  0  0  0  0
  -23.4172  -30.4853   21.5469 C   0  0  2  0  0  0
  -24.8626  -28.9434   20.1139 C   0  0  0  0  0  0
  -22.7452  -29.4623   22.4947 C   0  0  0  0  0  0
  -18.0283  -28.1349   22.8486 C   0  0  0  0  0  0
  -24.1476  -36.7281   23.2638 C   0  0  0  0  0  0
  -25.9583  -30.7949   21.3722 C   0  0  0  0  0  0
  -26.0323  -29.4239   20.7144 C   0  0  0  0  0  0
  -27.2174  -28.6294   20.7011 C   0  0  0  0  0  0
  -26.0260  -26.8982   19.4934 C   0  0  0  0  0  0
  -24.8605  -27.6864   19.4951 C   0  0  0  0  0  0
  -23.6293  -29.8213   20.1638 C   0  0  0  0  0  0
  -25.4100  -36.3077   24.0331 C   0  0  1  0  0  0
  -20.5877  -28.3669   23.1267 C   0  0  2  0  0  0
  -20.6766  -26.9386   22.5388 C   0  0  0  0  0  0
  -19.5739  -26.6351   21.5187 C   0  0  0  0  0  0
  -18.1916  -26.7897   22.1605 C   0  0  0  0  0  0
  -19.1533  -28.8828   23.2864 C   0  0  0  0  0  0
  -18.9470  -30.1448   23.8862 C   0  0  0  0  0  0
  -17.6473  -30.6570   24.0552 C   0  0  0  0  0  0
  -25.9047  -34.9454   23.5107 C   0  0  0  0  0  0
  -16.5361  -29.9049   23.6344 C   0  0  0  0  0  0
  -16.7273  -28.6468   23.0359 C   0  0  0  0  0  0
  -26.4490  -31.6589   25.0738 C   0  0  0  0  0  0
  -25.3722  -31.3735   26.1478 C   0  0  0  0  0  0
  -27.0365  -30.3020   24.6200 C   0  0  0  0  0  0
  -27.6041  -32.4352   25.7509 C   0  0  0  0  0  0
  -27.5565  -37.1778   24.8460 C   0  0  0  0  0  0
  -21.4165  -29.3052   22.3684 N   0  0  0  0  0  0
  -26.4268  -37.3777   23.9429 N   0  0  0  0  0  0
  -24.6862  -31.0622   22.0986 N   0  0  0  0  0  0
  -23.4181  -28.8140   23.3003 O   0  0  0  0  0  0
  -28.3436  -26.4817   20.1655 O   0  0  0  0  0  0
  -26.5595  -34.8921   22.4663 O   0  0  0  0  0  0
  -23.5433  -32.1398   23.7372 O   0  0  0  0  0  0
  -28.9090  -17.9088   21.3586 C   0  0  0  0  0  0
  -28.8675  -19.3247   21.2231 C   0  0  0  0  0  0
  -30.9224  -17.8267   20.0532 C   0  0  0  0  0  0
  -30.8917  -19.2537   19.8990 C   0  0  0  0  0  0
  -29.9306  -17.1147   20.7795 C   0  0  0  0  0  0
  -29.8462  -20.0421   20.4853 C   0  0  0  0  0  0
  -28.8892  -22.4623   20.5536 C   0  0  0  0  0  0
  -33.0633  -20.6028   19.9699 C   0  0  0  0  0  0
  -29.2725  -23.9894   20.4009 C   0  0  0  0  0  0
  -28.0940  -25.0218   20.1272 C   0  0  0  0  0  0
  -32.0108  -19.9188   19.0843 C   0  0  0  0  0  0
  -29.8518  -21.5054   20.3619 N   0  0  0  0  0  0
  -29.8576  -15.6621   20.9440 N   0  0  0  0  0  0
  -27.7283  -22.1689   20.8459 O   0  0  0  0  0  0
  -31.4986  -20.8285   18.2535 F   0  0  0  0  0  0
  -32.6446  -19.0207   18.3289 F   0  0  0  0  0  0
  -31.4805  -12.5086   19.1496 H   0  0  0  0  0  0
  -30.3756  -11.3855   19.8858 H   0  0  0  0  0  0
  -29.7674  -11.7599   17.4772 H   0  0  0  0  0  0
  -29.6557  -13.4807   17.7503 H   0  0  0  0  0  0
  -27.8624  -11.2974   18.8577 H   0  0  0  0  0  0
  -27.3784  -12.5907   17.7939 H   0  0  0  0  0  0
  -27.6791  -14.2538   19.5329 H   0  0  0  0  0  0
  -28.7061  -12.0408   21.3757 H   0  0  0  0  0  0
  -28.4503  -13.6915   21.8525 H   0  0  0  0  0  0
  -25.2771   -9.5688   22.4765 H   0  0  0  0  0  0
  -24.0012   -7.4645   22.7476 H   0  0  0  0  0  0
  -21.0860   -8.8795   19.8942 H   0  0  0  0  0  0
  -22.3724  -10.9692   19.6169 H   0  0  0  0  0  0
  -21.2001   -7.6151   23.9730 H   0  0  0  0  0  0
  -21.1465   -6.0520   25.9077 H   0  0  0  0  0  0
  -22.0599   -2.7627   23.2850 H   0  0  0  0  0  0
  -22.4101  -11.9886   22.4809 H   0  0  0  0  0  0
  -21.1110  -13.1242   22.2618 H   0  0  0  0  0  0
  -24.6682  -15.8490   20.5144 H   0  0  0  0  0  0
  -26.2832  -15.6247   20.0798 H   0  0  0  0  0  0
  -26.7184  -32.5449   23.1114 H   0  0  0  0  0  0
  -25.0151  -33.9735   25.0479 H   0  0  0  0  0  0
  -22.7118  -31.3068   21.4018 H   0  0  0  0  0  0
  -23.3745  -35.9597   23.3271 H   0  0  0  0  0  0
  -24.3555  -36.8940   22.2058 H   0  0  0  0  0  0
  -23.7224  -37.6469   23.6684 H   0  0  0  0  0  0
  -26.0831  -31.5571   20.6012 H   0  0  0  0  0  0
  -26.8403  -30.8451   21.9981 H   0  0  0  0  0  0
  -28.1184  -28.9959   21.1726 H   0  0  0  0  0  0
  -25.9524  -25.9394   19.0051 H   0  0  0  0  0  0
  -23.9623  -27.3140   19.0220 H   0  0  0  0  0  0
  -23.7428  -30.5965   19.4055 H   0  0  0  0  0  0
  -22.7487  -29.2493   19.8653 H   0  0  0  0  0  0
  -25.1251  -36.1913   25.0817 H   0  0  0  0  0  0
  -20.9967  -28.3244   24.1382 H   0  0  0  0  0  0
  -20.5636  -26.2277   23.3591 H   0  0  0  0  0  0
  -21.6630  -26.7382   22.1189 H   0  0  0  0  0  0
  -19.6886  -25.6244   21.1255 H   0  0  0  0  0  0
  -19.6680  -27.3137   20.6698 H   0  0  0  0  0  0
  -17.4174  -26.6676   21.4010 H   0  0  0  0  0  0
  -18.0309  -26.0003   22.8975 H   0  0  0  0  0  0
  -19.7952  -30.7285   24.2176 H   0  0  0  0  0  0
  -17.5030  -31.6247   24.5150 H   0  0  0  0  0  0
  -15.5363  -30.2956   23.7671 H   0  0  0  0  0  0
  -15.8672  -28.0799   22.7061 H   0  0  0  0  0  0
  -24.5874  -30.7102   25.7816 H   0  0  0  0  0  0
  -24.8944  -32.2917   26.4915 H   0  0  0  0  0  0
  -25.8059  -30.8904   27.0251 H   0  0  0  0  0  0
  -26.2965  -29.6747   24.1222 H   0  0  0  0  0  0
  -27.4073  -29.7291   25.4707 H   0  0  0  0  0  0
  -27.8800  -30.4308   23.9415 H   0  0  0  0  0  0
  -27.2627  -33.3668   26.2041 H   0  0  0  0  0  0
  -28.3868  -32.6919   25.0354 H   0  0  0  0  0  0
  -28.0680  -31.8521   26.5470 H   0  0  0  0  0  0
  -28.2540  -38.0111   24.7559 H   0  0  0  0  0  0
  -28.1113  -36.2655   24.6218 H   0  0  0  0  0  0
  -27.2302  -37.1345   25.8864 H   0  0  0  0  0  0
  -20.9332  -29.8848   21.6964 H   0  0  0  0  0  0
  -26.0136  -38.2833   24.1490 H   0  0  0  0  0  0
  -28.1259  -17.4332   21.9315 H   0  0  0  0  0  0
  -28.0615  -19.8487   21.7148 H   0  0  0  0  0  0
  -31.7262  -17.2711   19.5937 H   0  0  0  0  0  0
  -32.6238  -21.3729   20.6028 H   0  0  0  0  0  0
  -33.8282  -21.0826   19.3585 H   0  0  0  0  0  0
  -33.5636  -19.8877   20.6218 H   0  0  0  0  0  0
  -30.0138  -24.0831   19.6059 H   0  0  0  0  0  0
  -29.7807  -24.2767   21.3221 H   0  0  0  0  0  0
  -27.2922  -24.8137   20.8385 H   0  0  0  0  0  0
  -27.7078  -24.7658   19.1412 H   0  0  0  0  0  0
  -30.7249  -21.8887   20.0282 H   0  0  0  0  0  0
  -28.9913  -15.3382   21.3469 H   0  0  0  0  0  0
  1 25  1  0  0  0
  1 30  2  0  0  0
  1 83  1  0  0  0
  2  3  1  0  0  0
  2 25  1  0  0  0
  2 87  1  0  0  0
  2 88  1  0  0  0
  3  4  1  0  0  0
  3 89  1  0  0  0
  3 90  1  0  0  0
  4  5  1  0  0  0
  4 91  1  0  0  0
  4 92  1  0  0  0
  5  6  1  0  0  0
  5 26  1  0  0  0
  5 93  1  0  0  0
  6 25  1  0  0  0
  6 94  1  0  0  0
  6 95  1  0  0  0
  7  8  2  0  0  0
  7 26  1  0  0  0
  7 29  1  0  0  0
  8  9  1  0  0  0
  8 22  1  0  0  0
  9 10  1  0  0  0
  9 27  2  0  0  0
 10 11  2  0  0  0
 10 15  1  0  0  0
 11 12  1  0  0  0
 11 96  1  0  0  0
 12 13  2  0  0  0
 12 97  1  0  0  0
 13 14  1  0  0  0
 13 31  1  0  0  0
 14 15  2  0  0  0
 14 98  1  0  0  0
 15 99  1  0  0  0
 16 17  2  0  0  0
 16 21  1  0  0  0
 16 31  1  0  0  0
 17 18  1  0  0  0
 17100  1  0  0  0
 18 19  2  0  0  0
 18101  1  0  0  0
 19 20  1  0  0  0
 19 24  1  0  0  0
 20 21  2  0  0  0
 20102  1  0  0  0
 21 23  1  0  0  0
 22 28  1  0  0  0
 22 32  2  0  0  0
 26 27  1  0  0  0
 28103  1  0  0  0
 28104  1  0  0  0
 29105  1  0  0  0
 29106  1  0  0  0
 33 34  1  0  0  0
 33 66  1  0  0  0
 33 70  2  0  0  0
 34 36  1  0  0  0
 34 59  1  0  0  0
 34107  1  0  0  0
 35 44  2  0  0  0
 35 45  1  0  0  0
 35 68  1  0  0  0
 36 56  1  0  0  0
 36108  1  0  0  0
 37 39  1  0  0  0
 37 47  1  0  0  0
 37 66  1  0  0  0
 37109  1  0  0  0
 38 43  2  0  0  0
 38 46  1  0  0  0
 38 47  1  0  0  0
 39 64  1  0  0  0
 39 67  2  0  0  0
 40 52  1  0  0  0
 40 53  2  0  0  0
 40 58  1  0  0  0
 41110  1  0  0  0
 41111  1  0  0  0
 41112  1  0  0  0
 41 48  1  0  0  0
 42 43  1  0  0  0
 42 66  1  0  0  0
 42113  1  0  0  0
 42114  1  0  0  0
 43 44  1  0  0  0
 44115  1  0  0  0
 45 46  2  0  0  0
 45116  1  0  0  0
 46117  1  0  0  0
 47118  1  0  0  0
 47119  1  0  0  0
 48 56  1  0  0  0
 48 65  1  0  0  0
 48120  1  0  0  0
 49 50  1  0  0  0
 49 53  1  0  0  0
 49 64  1  0  0  0
 49121  1  0  0  0
 50 51  1  0  0  0
 50122  1  0  0  0
 50123  1  0  0  0
 51 52  1  0  0  0
 51124  1  0  0  0
 51125  1  0  0  0
 52126  1  0  0  0
 52127  1  0  0  0
 53 54  1  0  0  0
 54 55  2  0  0  0
 54128  1  0  0  0
 55 57  1  0  0  0
 55129  1  0  0  0
 56 69  2  0  0  0
 57 58  2  0  0  0
 57130  1  0  0  0
 58131  1  0  0  0
 59 60  1  0  0  0
 59 61  1  0  0  0
 59 62  1  0  0  0
 60132  1  0  0  0
 60133  1  0  0  0
 60134  1  0  0  0
 61135  1  0  0  0
 61136  1  0  0  0
 61137  1  0  0  0
 62138  1  0  0  0
 62139  1  0  0  0
 62140  1  0  0  0
 63 65  1  0  0  0
 63141  1  0  0  0
 63142  1  0  0  0
 63143  1  0  0  0
 64144  1  0  0  0
 65145  1  0  0  0
 68 80  1  0  0  0
 71 72  2  0  0  0
 71 75  1  0  0  0
 71146  1  0  0  0
 72 76  1  0  0  0
 72147  1  0  0  0
 73 74  1  0  0  0
 73 75  2  0  0  0
 73148  1  0  0  0
 74 76  2  0  0  0
 74 81  1  0  0  0
 75 83  1  0  0  0
 76 82  1  0  0  0
 77 79  1  0  0  0
 77 82  1  0  0  0
 77 84  2  0  0  0
 78149  1  0  0  0
 78150  1  0  0  0
 78151  1  0  0  0
 78 81  1  0  0  0
 79 80  1  0  0  0
 79152  1  0  0  0
 79153  1  0  0  0
 80154  1  0  0  0
 80155  1  0  0  0
 81 85  1  0  0  0
 81 86  1  0  0  0
 82156  1  0  0  0
 83157  1  0  0  0
M  ISO  4   1 100  68 101  80 101  83 100
M  END
> <chiral flag>
0

> <version>
0

> <s_m_source_file>
/data/baiqing/PycharmProjects/Reinvent-master-3.2/result/LINK_invent/BTK/process_docking_weight1_custom_product_contain_oxygen_bond_distance_aromatic_linkinvent_7_9_3/rearranged_h_0053.sdf

> <i_m_source_file_index>
39

> <r_mmod_Potential_Energy-OPLS-2005>
-17.4725246429443

> <r_mmod_Stretch_Energy-OPLS-2005>
79.0576705932617

> <r_mmod_Bend_Energy-OPLS-2005>
139.754165649414

> <r_mmod_Torsional_Energy-OPLS-2005>
219.994537353516

> <r_mmod_Improper_Torsional_Energy-OPLS-2005>
3.47838377952576

> <r_mmod_Van_der_Waal_Energy-OPLS-2005>
152.152297973633

> <r_mmod_Electrostatic_Energy-OPLS-2005>
-428.483276367188

> <r_mmod_Solvation_Energy-OPLS-2005>
-227.30908203125

> <b_mmod_Minimization_Converged-OPLS-2005>
0

> <r_mmod_RMS_Derivative-OPLS-2005>
2.36499547958374

$$$$
39
                    3D
 Structure written by MMmdl.
156164  0  0  1  0            999 V2000
  -30.6655  -14.5462   20.5455 C   0  0  0  0  0  0
  -30.4308  -12.3493   19.4214 C   0  0  0  0  0  0
  -29.4949  -12.5040   18.2040 C   0  0  0  0  0  0
  -28.0191  -12.3485   18.6239 C   0  0  0  0  0  0
  -27.6551  -13.2070   19.8643 C   0  0  2  0  0  0
  -28.7028  -13.0286   20.9857 C   0  0  0  0  0  0
  -25.2575  -13.8152   20.5670 C   0  0  0  0  0  0
  -24.1838  -13.0425   20.9191 C   0  0  0  0  0  0
  -24.6398  -11.6900   20.8752 C   0  0  0  0  0  0
  -23.9070  -10.4289   21.0418 C   0  0  0  0  0  0
  -24.3621   -9.4206   21.9193 C   0  0  0  0  0  0
  -23.6294   -8.2244   22.0762 C   0  0  0  0  0  0
  -22.4275   -8.0285   21.3553 C   0  0  0  0  0  0
  -21.9917   -9.0262   20.4658 C   0  0  0  0  0  0
  -22.7247  -10.2138   20.3069 C   0  0  0  0  0  0
  -21.6850   -6.0742   22.5284 C   0  0  0  0  0  0
  -21.4011   -6.5644   23.8215 C   0  0  0  0  0  0
  -21.3657   -5.6799   24.9179 C   0  0  0  0  0  0
  -21.6041   -4.3059   24.7228 C   0  0  0  0  0  0
  -21.8819   -3.8153   23.4346 C   0  0  0  0  0  0
  -21.9190   -4.6972   22.3404 C   0  0  0  0  0  0
  -22.7869  -13.5239   21.1846 C   0  0  0  0  0  0
  -22.1661   -4.2154   21.0982 F   0  0  0  0  0  0
  -21.5628   -3.4543   25.7741 F   0  0  0  0  0  0
  -30.0200  -13.3520   20.4166 N   0  0  0  0  0  0
  -26.2999  -12.9315   20.3332 N   0  0  0  0  0  0
  -25.9319  -11.6480   20.5769 N   0  0  0  0  0  0
  -22.0498  -12.8235   22.0399 N   0  0  0  0  0  0
  -25.4278  -15.1870   20.4042 N   0  0  0  0  0  0
  -31.8330  -14.7086   20.1789 O   0  0  0  0  0  0
  -21.6636   -6.8884   21.4245 O   0  0  0  0  0  0
  -22.3559  -14.5545   20.6693 O   0  0  0  0  0  0
  -24.6187  -31.8647   23.2065 C   0  0  0  0  0  0
  -25.9066  -32.4798   23.8366 C   0  0  1  0  0  0
  -27.2293  -27.3864   20.1151 C   0  0  0  0  0  0
  -25.5920  -33.8601   24.2310 N   0  0  0  0  0  0
  -23.4095  -30.4859   21.5489 C   0  0  2  0  0  0
  -24.8562  -28.9419   20.1185 C   0  0  0  0  0  0
  -22.7430  -29.4630   22.4986 C   0  0  0  0  0  0
  -18.0279  -28.1368   22.8490 C   0  0  0  0  0  0
  -24.1494  -36.7310   23.2637 C   0  0  0  0  0  0
  -25.9409  -30.8166   21.3648 C   0  0  0  0  0  0
  -26.0195  -29.4452   20.7155 C   0  0  0  0  0  0
  -27.2130  -28.6771   20.7050 C   0  0  0  0  0  0
  -26.0497  -26.9073   19.5096 C   0  0  0  0  0  0
  -24.8676  -27.6742   19.5102 C   0  0  0  0  0  0
  -23.6207  -29.8166   20.1647 C   0  0  0  0  0  0
  -25.4108  -36.3098   24.0334 C   0  0  1  0  0  0
  -20.5864  -28.3657   23.1315 C   0  0  2  0  0  0
  -20.6761  -26.9392   22.5418 C   0  0  0  0  0  0
  -19.5742  -26.6383   21.5206 C   0  0  0  0  0  0
  -18.1919  -26.7918   22.1611 C   0  0  0  0  0  0
  -19.1525  -28.8823   23.2898 C   0  0  0  0  0  0
  -18.9459  -30.1431   23.8907 C   0  0  0  0  0  0
  -17.6463  -30.6580   24.0557 C   0  0  0  0  0  0
  -25.9039  -34.9466   23.5112 C   0  0  0  0  0  0
  -16.5355  -29.9075   23.6324 C   0  0  0  0  0  0
  -16.7268  -28.6485   23.0349 C   0  0  0  0  0  0
  -26.4485  -31.6592   25.0712 C   0  0  0  0  0  0
  -25.3741  -31.3718   26.1460 C   0  0  0  0  0  0
  -27.0312  -30.3029   24.6104 C   0  0  0  0  0  0
  -27.6073  -32.4301   25.7464 C   0  0  0  0  0  0
  -27.5585  -37.1790   24.8458 C   0  0  0  0  0  0
  -21.4155  -29.3030   22.3728 N   0  0  0  0  0  0
  -26.4299  -37.3778   23.9405 N   0  0  0  0  0  0
  -24.6746  -31.0703   22.0985 N   0  0  0  0  0  0
  -23.4182  -28.8173   23.3047 O   0  0  0  0  0  0
  -28.3736  -26.6081   20.0782 O   0  0  0  0  0  0
  -26.5615  -34.8932   22.4682 O   0  0  0  0  0  0
  -23.5365  -32.1429   23.7432 O   0  0  0  0  0  0
  -31.2398  -18.3277   23.0185 C   0  0  0  0  0  0
  -30.9467  -17.0509   22.5088 C   0  0  0  0  0  0
  -29.8370  -18.0988   20.6124 C   0  0  0  0  0  0
  -30.1455  -19.4115   21.0978 C   0  0  0  0  0  0
  -30.8707  -19.5043   22.3274 C   0  0  0  0  0  0
  -30.2471  -16.9145   21.2961 C   0  0  0  0  0  0
  -29.8228  -20.6353   20.2344 C   0  0  0  0  0  0
  -28.3661  -24.0690   20.2405 C   0  0  0  0  0  0
  -31.3164  -20.8252   22.9438 C   0  0  0  0  0  0
  -29.6300  -23.1631   20.2484 C   0  0  0  0  0  0
  -28.4038  -25.4525   20.9628 C   0  0  0  0  0  0
  -29.8686  -15.6001   20.8567 N   0  0  0  0  0  0
  -29.4611  -21.7982   20.8287 N   0  0  0  0  0  0
  -29.9279  -20.5473   19.0095 O   0  0  0  0  0  0
  -27.3357  -23.6790   19.6827 O   0  0  0  0  0  0
  -31.4722  -12.4667   19.1168 H   0  0  0  0  0  0
  -30.3511  -11.3451   19.8424 H   0  0  0  0  0  0
  -29.7446  -11.7670   17.4394 H   0  0  0  0  0  0
  -29.6432  -13.4827   17.7445 H   0  0  0  0  0  0
  -27.8500  -11.2934   18.8422 H   0  0  0  0  0  0
  -27.3613  -12.5929   17.7894 H   0  0  0  0  0  0
  -27.6835  -14.2468   19.5384 H   0  0  0  0  0  0
  -28.7002  -12.0012   21.3534 H   0  0  0  0  0  0
  -28.4654  -13.6535   21.8480 H   0  0  0  0  0  0
  -25.2763   -9.5671   22.4767 H   0  0  0  0  0  0
  -23.9997   -7.4633   22.7478 H   0  0  0  0  0  0
  -21.0848   -8.8789   19.8961 H   0  0  0  0  0  0
  -22.3713  -10.9684   19.6178 H   0  0  0  0  0  0
  -21.2005   -7.6149   23.9720 H   0  0  0  0  0  0
  -21.1478   -6.0528   25.9080 H   0  0  0  0  0  0
  -22.0598   -2.7614   23.2848 H   0  0  0  0  0  0
  -22.4107  -11.9884   22.4777 H   0  0  0  0  0  0
  -21.1122  -13.1278   22.2613 H   0  0  0  0  0  0
  -24.6543  -15.8365   20.5013 H   0  0  0  0  0  0
  -26.2679  -15.6270   20.0504 H   0  0  0  0  0  0
  -26.7134  -32.5506   23.1121 H   0  0  0  0  0  0
  -25.0044  -33.9742   25.0438 H   0  0  0  0  0  0
  -22.7006  -31.3043   21.4072 H   0  0  0  0  0  0
  -23.3750  -35.9650   23.3298 H   0  0  0  0  0  0
  -24.3575  -36.8934   22.2052 H   0  0  0  0  0  0
  -23.7265  -37.6514   23.6661 H   0  0  0  0  0  0
  -26.0527  -31.5792   20.5929 H   0  0  0  0  0  0
  -26.8280  -30.8750   21.9830 H   0  0  0  0  0  0
  -28.1146  -29.0625   21.1592 H   0  0  0  0  0  0
  -26.0432  -25.9384   19.0309 H   0  0  0  0  0  0
  -23.9746  -27.2826   19.0412 H   0  0  0  0  0  0
  -23.7347  -30.5920   19.4056 H   0  0  0  0  0  0
  -22.7422  -29.2412   19.8676 H   0  0  0  0  0  0
  -25.1281  -36.1949   25.0827 H   0  0  0  0  0  0
  -20.9951  -28.3226   24.1437 H   0  0  0  0  0  0
  -20.5650  -26.2270   23.3604 H   0  0  0  0  0  0
  -21.6634  -26.7434   22.1216 H   0  0  0  0  0  0
  -19.6918  -25.6295   21.1227 H   0  0  0  0  0  0
  -19.6690  -27.3205   20.6736 H   0  0  0  0  0  0
  -17.4198  -26.6681   21.4008 H   0  0  0  0  0  0
  -18.0305  -26.0048   22.8987 H   0  0  0  0  0  0
  -19.7946  -30.7228   24.2296 H   0  0  0  0  0  0
  -17.5030  -31.6262   24.5152 H   0  0  0  0  0  0
  -15.5353  -30.2979   23.7649 H   0  0  0  0  0  0
  -15.8667  -28.0810   22.7059 H   0  0  0  0  0  0
  -24.5950  -30.7010   25.7814 H   0  0  0  0  0  0
  -24.8878  -32.2873   26.4846 H   0  0  0  0  0  0
  -25.8094  -30.8956   27.0259 H   0  0  0  0  0  0
  -26.2853  -29.6765   24.1194 H   0  0  0  0  0  0
  -27.4111  -29.7283   25.4560 H   0  0  0  0  0  0
  -27.8681  -30.4320   23.9231 H   0  0  0  0  0  0
  -27.2727  -33.3615   26.2035 H   0  0  0  0  0  0
  -28.3888  -32.6826   25.0285 H   0  0  0  0  0  0
  -28.0736  -31.8419   26.5375 H   0  0  0  0  0  0
  -28.2594  -38.0096   24.7501 H   0  0  0  0  0  0
  -28.1092  -36.2621   24.6283 H   0  0  0  0  0  0
  -27.2300  -37.1445   25.8864 H   0  0  0  0  0  0
  -20.9323  -29.8774   21.6965 H   0  0  0  0  0  0
  -26.0190  -38.2854   24.1424 H   0  0  0  0  0  0
  -31.7737  -18.3968   23.9565 H   0  0  0  0  0  0
  -31.2466  -16.1772   23.0715 H   0  0  0  0  0  0
  -29.2937  -18.0044   19.6822 H   0  0  0  0  0  0
  -32.0744  -20.6686   23.7121 H   0  0  0  0  0  0
  -30.4788  -21.3356   23.4190 H   0  0  0  0  0  0
  -31.7612  -21.4867   22.2003 H   0  0  0  0  0  0
  -30.4221  -23.6694   20.8002 H   0  0  0  0  0  0
  -29.9835  -23.1024   19.2181 H   0  0  0  0  0  0
  -29.3027  -25.5096   21.5765 H   0  0  0  0  0  0
  -27.5638  -25.4922   21.6586 H   0  0  0  0  0  0
  -28.8841  -15.3892   20.9027 H   0  0  0  0  0  0
  -29.3281  -21.7534   21.8288 H   0  0  0  0  0  0
  1 25  1  0  0  0
  1 30  2  0  0  0
  1 82  1  0  0  0
  2  3  1  0  0  0
  2 25  1  0  0  0
  2 86  1  0  0  0
  2 87  1  0  0  0
  3  4  1  0  0  0
  3 88  1  0  0  0
  3 89  1  0  0  0
  4  5  1  0  0  0
  4 90  1  0  0  0
  4 91  1  0  0  0
  5  6  1  0  0  0
  5 26  1  0  0  0
  5 92  1  0  0  0
  6 25  1  0  0  0
  6 93  1  0  0  0
  6 94  1  0  0  0
  7  8  2  0  0  0
  7 26  1  0  0  0
  7 29  1  0  0  0
  8  9  1  0  0  0
  8 22  1  0  0  0
  9 10  1  0  0  0
  9 27  2  0  0  0
 10 11  2  0  0  0
 10 15  1  0  0  0
 11 12  1  0  0  0
 11 95  1  0  0  0
 12 13  2  0  0  0
 12 96  1  0  0  0
 13 14  1  0  0  0
 13 31  1  0  0  0
 14 15  2  0  0  0
 14 97  1  0  0  0
 15 98  1  0  0  0
 16 17  2  0  0  0
 16 21  1  0  0  0
 16 31  1  0  0  0
 17 18  1  0  0  0
 17 99  1  0  0  0
 18 19  2  0  0  0
 18100  1  0  0  0
 19 20  1  0  0  0
 19 24  1  0  0  0
 20 21  2  0  0  0
 20101  1  0  0  0
 21 23  1  0  0  0
 22 28  1  0  0  0
 22 32  2  0  0  0
 26 27  1  0  0  0
 28102  1  0  0  0
 28103  1  0  0  0
 29104  1  0  0  0
 29105  1  0  0  0
 33 34  1  0  0  0
 33 66  1  0  0  0
 33 70  2  0  0  0
 34 36  1  0  0  0
 34 59  1  0  0  0
 34106  1  0  0  0
 35 44  2  0  0  0
 35 45  1  0  0  0
 35 68  1  0  0  0
 36 56  1  0  0  0
 36107  1  0  0  0
 37 39  1  0  0  0
 37 47  1  0  0  0
 37 66  1  0  0  0
 37108  1  0  0  0
 38 43  2  0  0  0
 38 46  1  0  0  0
 38 47  1  0  0  0
 39 64  1  0  0  0
 39 67  2  0  0  0
 40 52  1  0  0  0
 40 53  2  0  0  0
 40 58  1  0  0  0
 41109  1  0  0  0
 41110  1  0  0  0
 41111  1  0  0  0
 41 48  1  0  0  0
 42 43  1  0  0  0
 42 66  1  0  0  0
 42112  1  0  0  0
 42113  1  0  0  0
 43 44  1  0  0  0
 44114  1  0  0  0
 45 46  2  0  0  0
 45115  1  0  0  0
 46116  1  0  0  0
 47117  1  0  0  0
 47118  1  0  0  0
 48 56  1  0  0  0
 48 65  1  0  0  0
 48119  1  0  0  0
 49 50  1  0  0  0
 49 53  1  0  0  0
 49 64  1  0  0  0
 49120  1  0  0  0
 50 51  1  0  0  0
 50121  1  0  0  0
 50122  1  0  0  0
 51 52  1  0  0  0
 51123  1  0  0  0
 51124  1  0  0  0
 52125  1  0  0  0
 52126  1  0  0  0
 53 54  1  0  0  0
 54 55  2  0  0  0
 54127  1  0  0  0
 55 57  1  0  0  0
 55128  1  0  0  0
 56 69  2  0  0  0
 57 58  2  0  0  0
 57129  1  0  0  0
 58130  1  0  0  0
 59 60  1  0  0  0
 59 61  1  0  0  0
 59 62  1  0  0  0
 60131  1  0  0  0
 60132  1  0  0  0
 60133  1  0  0  0
 61134  1  0  0  0
 61135  1  0  0  0
 61136  1  0  0  0
 62137  1  0  0  0
 62138  1  0  0  0
 62139  1  0  0  0
 63 65  1  0  0  0
 63140  1  0  0  0
 63141  1  0  0  0
 63142  1  0  0  0
 64143  1  0  0  0
 65144  1  0  0  0
 68 81  1  0  0  0
 71 72  2  0  0  0
 71 75  1  0  0  0
 71145  1  0  0  0
 72 76  1  0  0  0
 72146  1  0  0  0
 73 74  1  0  0  0
 73 76  2  0  0  0
 73147  1  0  0  0
 74 75  2  0  0  0
 74 77  1  0  0  0
 75 79  1  0  0  0
 76 82  1  0  0  0
 77 83  1  0  0  0
 77 84  2  0  0  0
 78 80  1  0  0  0
 78 81  1  0  0  0
 78 85  2  0  0  0
 79148  1  0  0  0
 79149  1  0  0  0
 79150  1  0  0  0
 80 83  1  0  0  0
 80151  1  0  0  0
 80152  1  0  0  0
 81153  1  0  0  0
 81154  1  0  0  0
 82155  1  0  0  0
 83156  1  0  0  0
M  ISO  4   1 100  68 101  81 101  82 100
M  END
> <chiral flag>
0

> <version>
0

> <s_m_source_file>
/data/baiqing/PycharmProjects/Reinvent-master-3.2/result/LINK_invent/BTK/process_docking_weight1_custom_product_contain_oxygen_bond_distance_aromatic_linkinvent_7_9_3/rearranged_h_0053.sdf

> <i_m_source_file_index>
40

> <r_mmod_Potential_Energy-OPLS-2005>
-54.5502052307129

> <r_mmod_Stretch_Energy-OPLS-2005>
52.8272895812988

> <r_mmod_Bend_Energy-OPLS-2005>
107.792816162109

> <r_mmod_Torsional_Energy-OPLS-2005>
292.327972412109

> <r_mmod_Improper_Torsional_Energy-OPLS-2005>
7.83824443817139

> <r_mmod_Van_der_Waal_Energy-OPLS-2005>
144.695159912109

> <r_mmod_Electrostatic_Energy-OPLS-2005>
-425.449951171875

> <r_mmod_Solvation_Energy-OPLS-2005>
-258.378570556641

> <b_mmod_Minimization_Converged-OPLS-2005>
0

> <r_mmod_RMS_Derivative-OPLS-2005>
1.81872689723969

$$$$
40
                    3D
 Structure written by MMmdl.
157165  0  0  1  0            999 V2000
  -30.6789  -14.5059   20.5938 C   0  0  0  0  0  0
  -30.4411  -12.3328   19.4320 C   0  0  0  0  0  0
  -29.5064  -12.5011   18.2155 C   0  0  0  0  0  0
  -28.0310  -12.3360   18.6290 C   0  0  0  0  0  0
  -27.6632  -13.1950   19.8668 C   0  0  2  0  0  0
  -28.7012  -12.9922   20.9938 C   0  0  0  0  0  0
  -25.2658  -13.8113   20.5769 C   0  0  0  0  0  0
  -24.1859  -13.0413   20.9148 C   0  0  0  0  0  0
  -24.6385  -11.6873   20.8704 C   0  0  0  0  0  0
  -23.9034  -10.4285   21.0395 C   0  0  0  0  0  0
  -24.3578   -9.4201   21.9177 C   0  0  0  0  0  0
  -23.6267   -8.2240   22.0744 C   0  0  0  0  0  0
  -22.4252   -8.0283   21.3533 C   0  0  0  0  0  0
  -21.9882   -9.0263   20.4636 C   0  0  0  0  0  0
  -22.7198  -10.2143   20.3055 C   0  0  0  0  0  0
  -21.6856   -6.0722   22.5284 C   0  0  0  0  0  0
  -21.3998   -6.5626   23.8214 C   0  0  0  0  0  0
  -21.3661   -5.6775   24.9179 C   0  0  0  0  0  0
  -21.6047   -4.3042   24.7226 C   0  0  0  0  0  0
  -21.8821   -3.8125   23.4359 C   0  0  0  0  0  0
  -21.9185   -4.6946   22.3404 C   0  0  0  0  0  0
  -22.7899  -13.5270   21.1822 C   0  0  0  0  0  0
  -22.1666   -4.2133   21.0993 F   0  0  0  0  0  0
  -21.5625   -3.4528   25.7741 F   0  0  0  0  0  0
  -30.0326  -13.3140   20.4499 N   0  0  0  0  0  0
  -26.3044  -12.9256   20.3321 N   0  0  0  0  0  0
  -25.9308  -11.6430   20.5713 N   0  0  0  0  0  0
  -22.0509  -12.8297   22.0383 N   0  0  0  0  0  0
  -25.4508  -15.1841   20.4468 N   0  0  0  0  0  0
  -31.8030  -14.7178   20.1331 O   0  0  0  0  0  0
  -21.6635   -6.8874   21.4251 O   0  0  0  0  0  0
  -22.3651  -14.5607   20.6685 O   0  0  0  0  0  0
  -24.6191  -31.8650   23.2068 C   0  0  0  0  0  0
  -25.9066  -32.4803   23.8369 C   0  0  1  0  0  0
  -27.2395  -27.4004   20.1049 C   0  0  0  0  0  0
  -25.5926  -33.8599   24.2333 N   0  0  0  0  0  0
  -23.4080  -30.4870   21.5491 C   0  0  2  0  0  0
  -24.8526  -28.9441   20.1191 C   0  0  0  0  0  0
  -22.7445  -29.4628   22.5003 C   0  0  0  0  0  0
  -18.0277  -28.1393   22.8484 C   0  0  0  0  0  0
  -24.1479  -36.7312   23.2631 C   0  0  0  0  0  0
  -25.9360  -30.8251   21.3573 C   0  0  0  0  0  0
  -26.0137  -29.4519   20.7139 C   0  0  0  0  0  0
  -27.2034  -28.6845   20.7046 C   0  0  0  0  0  0
  -26.0505  -26.9083   19.5154 C   0  0  0  0  0  0
  -24.8676  -27.6730   19.5210 C   0  0  0  0  0  0
  -23.6188  -29.8190   20.1637 C   0  0  0  0  0  0
  -25.4090  -36.3114   24.0360 C   0  0  1  0  0  0
  -20.5866  -28.3678   23.1334 C   0  0  2  0  0  0
  -20.6772  -26.9414   22.5430 C   0  0  0  0  0  0
  -19.5739  -26.6403   21.5232 C   0  0  0  0  0  0
  -18.1915  -26.7940   22.1631 C   0  0  0  0  0  0
  -19.1525  -28.8849   23.2899 C   0  0  0  0  0  0
  -18.9459  -30.1452   23.8912 C   0  0  0  0  0  0
  -17.6458  -30.6583   24.0570 C   0  0  0  0  0  0
  -25.9034  -34.9475   23.5145 C   0  0  0  0  0  0
  -16.5347  -29.9094   23.6313 C   0  0  0  0  0  0
  -16.7268  -28.6517   23.0327 C   0  0  0  0  0  0
  -26.4495  -31.6579   25.0686 C   0  0  0  0  0  0
  -25.3777  -31.3707   26.1463 C   0  0  0  0  0  0
  -27.0299  -30.3011   24.6028 C   0  0  0  0  0  0
  -27.6086  -32.4274   25.7448 C   0  0  0  0  0  0
  -27.5592  -37.1804   24.8464 C   0  0  0  0  0  0
  -21.4165  -29.3039   22.3746 N   0  0  0  0  0  0
  -26.4285  -37.3795   23.9446 N   0  0  0  0  0  0
  -24.6730  -31.0738   22.0982 N   0  0  0  0  0  0
  -23.4194  -28.8182   23.3066 O   0  0  0  0  0  0
  -28.4308  -26.6889   20.1362 O   0  0  0  0  0  0
  -26.5580  -34.8929   22.4691 O   0  0  0  0  0  0
  -23.5367  -32.1426   23.7446 O   0  0  0  0  0  0
  -30.9397  -18.6121   22.9001 C   0  0  0  0  0  0
  -30.4817  -19.6084   22.0156 C   0  0  0  0  0  0
  -30.8049  -17.2502   22.5743 C   0  0  0  0  0  0
  -29.8768  -19.2625   20.7866 C   0  0  0  0  0  0
  -29.7701  -17.8752   20.4433 C   0  0  0  0  0  0
  -30.2235  -16.8659   21.3484 C   0  0  0  0  0  0
  -28.8862  -22.8226   19.6568 C   0  0  0  0  0  0
  -29.1469  -17.4668   19.1105 C   0  0  0  0  0  0
  -29.3637  -20.3714   19.8359 C   0  0  0  0  0  0
  -28.5043  -24.1524   20.3607 C   0  0  0  0  0  0
  -28.5979  -25.4237   19.4559 C   0  0  0  0  0  0
  -29.9298  -15.4782   21.1567 N   0  0  0  0  0  0
  -29.0919  -21.7131   20.4034 N   0  0  0  0  0  0
  -28.9837  -22.7912   18.4269 O   0  0  0  0  0  0
  -31.4843  -12.4583   19.1377 H   0  0  0  0  0  0
  -30.3642  -11.3233   19.8383 H   0  0  0  0  0  0
  -29.7587  -11.7767   17.4402 H   0  0  0  0  0  0
  -29.6509  -13.4864   17.7722 H   0  0  0  0  0  0
  -27.8627  -11.2811   18.8507 H   0  0  0  0  0  0
  -27.3809  -12.5750   17.7855 H   0  0  0  0  0  0
  -27.7028  -14.2367   19.5494 H   0  0  0  0  0  0
  -28.6862  -11.9577   21.3370 H   0  0  0  0  0  0
  -28.4437  -13.5868   21.8694 H   0  0  0  0  0  0
  -25.2730   -9.5689   22.4732 H   0  0  0  0  0  0
  -23.9948   -7.4638   22.7474 H   0  0  0  0  0  0
  -21.0791   -8.8811   19.8972 H   0  0  0  0  0  0
  -22.3656  -10.9690   19.6168 H   0  0  0  0  0  0
  -21.2000   -7.6136   23.9722 H   0  0  0  0  0  0
  -21.1482   -6.0507   25.9078 H   0  0  0  0  0  0
  -22.0599   -2.7592   23.2876 H   0  0  0  0  0  0
  -22.4064  -11.9919   22.4733 H   0  0  0  0  0  0
  -21.1166  -13.1428   22.2646 H   0  0  0  0  0  0
  -24.7154  -15.8541   20.6420 H   0  0  0  0  0  0
  -26.3367  -15.6217   20.2298 H   0  0  0  0  0  0
  -26.7135  -32.5523   23.1133 H   0  0  0  0  0  0
  -25.0112  -33.9749   25.0506 H   0  0  0  0  0  0
  -22.6977  -31.3034   21.4095 H   0  0  0  0  0  0
  -23.3760  -35.9625   23.3252 H   0  0  0  0  0  0
  -24.3570  -36.8948   22.2051 H   0  0  0  0  0  0
  -23.7209  -37.6501   23.6641 H   0  0  0  0  0  0
  -26.0306  -31.5842   20.5782 H   0  0  0  0  0  0
  -26.8291  -30.8961   21.9654 H   0  0  0  0  0  0
  -28.1003  -29.0742   21.1654 H   0  0  0  0  0  0
  -26.0040  -25.9309   19.0616 H   0  0  0  0  0  0
  -23.9709  -27.2727   19.0673 H   0  0  0  0  0  0
  -23.7401  -30.5943   19.4071 H   0  0  0  0  0  0
  -22.7397  -29.2503   19.8567 H   0  0  0  0  0  0
  -25.1244  -36.1975   25.0855 H   0  0  0  0  0  0
  -20.9927  -28.3251   24.1469 H   0  0  0  0  0  0
  -20.5699  -26.2282   23.3615 H   0  0  0  0  0  0
  -21.6645  -26.7471   22.1209 H   0  0  0  0  0  0
  -19.6899  -25.6329   21.1220 H   0  0  0  0  0  0
  -19.6662  -27.3256   20.6794 H   0  0  0  0  0  0
  -17.4188  -26.6698   21.4025 H   0  0  0  0  0  0
  -18.0289  -26.0083   22.9017 H   0  0  0  0  0  0
  -19.7933  -30.7268   24.2291 H   0  0  0  0  0  0
  -17.5012  -31.6257   24.5194 H   0  0  0  0  0  0
  -15.5348  -30.3007   23.7634 H   0  0  0  0  0  0
  -15.8669  -28.0860   22.7015 H   0  0  0  0  0  0
  -24.5971  -30.6994   25.7863 H   0  0  0  0  0  0
  -24.8932  -32.2866   26.4856 H   0  0  0  0  0  0
  -25.8168  -30.8953   27.0242 H   0  0  0  0  0  0
  -26.2815  -29.6782   24.1105 H   0  0  0  0  0  0
  -27.4124  -29.7221   25.4450 H   0  0  0  0  0  0
  -27.8621  -30.4326   23.9104 H   0  0  0  0  0  0
  -27.2730  -33.3584   26.2023 H   0  0  0  0  0  0
  -28.3901  -32.6818   25.0278 H   0  0  0  0  0  0
  -28.0736  -31.8371   26.5356 H   0  0  0  0  0  0
  -28.2599  -38.0116   24.7556 H   0  0  0  0  0  0
  -28.1093  -36.2662   24.6205 H   0  0  0  0  0  0
  -27.2310  -37.1358   25.8860 H   0  0  0  0  0  0
  -20.9352  -29.8769   21.6957 H   0  0  0  0  0  0
  -26.0174  -38.2856   24.1490 H   0  0  0  0  0  0
  -31.3780  -18.8967   23.8483 H   0  0  0  0  0  0
  -30.6000  -20.6444   22.3024 H   0  0  0  0  0  0
  -31.1274  -16.5024   23.2867 H   0  0  0  0  0  0
  -29.4570  -18.1376   18.3071 H   0  0  0  0  0  0
  -28.0586  -17.4846   19.1736 H   0  0  0  0  0  0
  -29.4552  -16.4678   18.8020 H   0  0  0  0  0  0
  -28.4360  -20.0342   19.3766 H   0  0  0  0  0  0
  -30.0885  -20.4678   19.0247 H   0  0  0  0  0  0
  -29.1640  -24.2739   21.2186 H   0  0  0  0  0  0
  -27.4918  -24.0572   20.7529 H   0  0  0  0  0  0
  -27.9582  -25.3334   18.5791 H   0  0  0  0  0  0
  -29.6080  -25.4593   19.0465 H   0  0  0  0  0  0
  -29.0195  -15.1798   21.4677 H   0  0  0  0  0  0
  -28.9684  -21.7792   21.4040 H   0  0  0  0  0  0
  1 25  1  0  0  0
  1 30  2  0  0  0
  1 82  1  0  0  0
  2  3  1  0  0  0
  2 25  1  0  0  0
  2 85  1  0  0  0
  2 86  1  0  0  0
  3  4  1  0  0  0
  3 87  1  0  0  0
  3 88  1  0  0  0
  4  5  1  0  0  0
  4 89  1  0  0  0
  4 90  1  0  0  0
  5  6  1  0  0  0
  5 26  1  0  0  0
  5 91  1  0  0  0
  6 25  1  0  0  0
  6 92  1  0  0  0
  6 93  1  0  0  0
  7  8  2  0  0  0
  7 26  1  0  0  0
  7 29  1  0  0  0
  8  9  1  0  0  0
  8 22  1  0  0  0
  9 10  1  0  0  0
  9 27  2  0  0  0
 10 11  2  0  0  0
 10 15  1  0  0  0
 11 12  1  0  0  0
 11 94  1  0  0  0
 12 13  2  0  0  0
 12 95  1  0  0  0
 13 14  1  0  0  0
 13 31  1  0  0  0
 14 15  2  0  0  0
 14 96  1  0  0  0
 15 97  1  0  0  0
 16 17  2  0  0  0
 16 21  1  0  0  0
 16 31  1  0  0  0
 17 18  1  0  0  0
 17 98  1  0  0  0
 18 19  2  0  0  0
 18 99  1  0  0  0
 19 20  1  0  0  0
 19 24  1  0  0  0
 20 21  2  0  0  0
 20100  1  0  0  0
 21 23  1  0  0  0
 22 28  1  0  0  0
 22 32  2  0  0  0
 26 27  1  0  0  0
 28101  1  0  0  0
 28102  1  0  0  0
 29103  1  0  0  0
 29104  1  0  0  0
 33 34  1  0  0  0
 33 66  1  0  0  0
 33 70  2  0  0  0
 34 36  1  0  0  0
 34 59  1  0  0  0
 34105  1  0  0  0
 35 44  2  0  0  0
 35 45  1  0  0  0
 35 68  1  0  0  0
 36 56  1  0  0  0
 36106  1  0  0  0
 37 39  1  0  0  0
 37 47  1  0  0  0
 37 66  1  0  0  0
 37107  1  0  0  0
 38 43  2  0  0  0
 38 46  1  0  0  0
 38 47  1  0  0  0
 39 64  1  0  0  0
 39 67  2  0  0  0
 40 52  1  0  0  0
 40 53  2  0  0  0
 40 58  1  0  0  0
 41108  1  0  0  0
 41109  1  0  0  0
 41110  1  0  0  0
 41 48  1  0  0  0
 42 43  1  0  0  0
 42 66  1  0  0  0
 42111  1  0  0  0
 42112  1  0  0  0
 43 44  1  0  0  0
 44113  1  0  0  0
 45 46  2  0  0  0
 45114  1  0  0  0
 46115  1  0  0  0
 47116  1  0  0  0
 47117  1  0  0  0
 48 56  1  0  0  0
 48 65  1  0  0  0
 48118  1  0  0  0
 49 50  1  0  0  0
 49 53  1  0  0  0
 49 64  1  0  0  0
 49119  1  0  0  0
 50 51  1  0  0  0
 50120  1  0  0  0
 50121  1  0  0  0
 51 52  1  0  0  0
 51122  1  0  0  0
 51123  1  0  0  0
 52124  1  0  0  0
 52125  1  0  0  0
 53 54  1  0  0  0
 54 55  2  0  0  0
 54126  1  0  0  0
 55 57  1  0  0  0
 55127  1  0  0  0
 56 69  2  0  0  0
 57 58  2  0  0  0
 57128  1  0  0  0
 58129  1  0  0  0
 59 60  1  0  0  0
 59 61  1  0  0  0
 59 62  1  0  0  0
 60130  1  0  0  0
 60131  1  0  0  0
 60132  1  0  0  0
 61133  1  0  0  0
 61134  1  0  0  0
 61135  1  0  0  0
 62136  1  0  0  0
 62137  1  0  0  0
 62138  1  0  0  0
 63 65  1  0  0  0
 63139  1  0  0  0
 63140  1  0  0  0
 63141  1  0  0  0
 64142  1  0  0  0
 65143  1  0  0  0
 68 81  1  0  0  0
 71 72  2  0  0  0
 71 73  1  0  0  0
 71144  1  0  0  0
 72 74  1  0  0  0
 72145  1  0  0  0
 73 76  2  0  0  0
 73146  1  0  0  0
 74 75  2  0  0  0
 74 79  1  0  0  0
 75 76  1  0  0  0
 75 78  1  0  0  0
 76 82  1  0  0  0
 77 80  1  0  0  0
 77 83  1  0  0  0
 77 84  2  0  0  0
 78147  1  0  0  0
 78148  1  0  0  0
 78149  1  0  0  0
 79 83  1  0  0  0
 79150  1  0  0  0
 79151  1  0  0  0
 80 81  1  0  0  0
 80152  1  0  0  0
 80153  1  0  0  0
 81154  1  0  0  0
 81155  1  0  0  0
 82156  1  0  0  0
 83157  1  0  0  0
M  ISO  4   1 100  68 101  81 101  82 100
M  END
> <chiral flag>
0

> <version>
0

> <s_m_source_file>
/data/baiqing/PycharmProjects/Reinvent-master-3.2/result/LINK_invent/BTK/process_docking_weight1_custom_product_contain_oxygen_bond_distance_aromatic_linkinvent_7_9_3/rearranged_h_0053.sdf

> <i_m_source_file_index>
41

> <r_mmod_Potential_Energy-OPLS-2005>
-137.917358398438

> <r_mmod_Stretch_Energy-OPLS-2005>
46.4062652587891

> <r_mmod_Bend_Energy-OPLS-2005>
111.336715698242

> <r_mmod_Torsional_Energy-OPLS-2005>
225.202850341797

> <r_mmod_Improper_Torsional_Energy-OPLS-2005>
4.04504585266113

> <r_mmod_Van_der_Waal_Energy-OPLS-2005>
152.224868774414

> <r_mmod_Electrostatic_Energy-OPLS-2005>
-457.894134521484

> <r_mmod_Solvation_Energy-OPLS-2005>
-237.312469482422

> <b_mmod_Minimization_Converged-OPLS-2005>
0

> <r_mmod_RMS_Derivative-OPLS-2005>
3.94387888908386

$$$$
41
                    3D
 Structure written by MMmdl.
158166  0  0  1  0            999 V2000
  -30.7289  -14.4118   20.5933 C   0  0  0  0  0  0
  -30.4140  -12.2802   19.4060 C   0  0  0  0  0  0
  -29.4855  -12.5100   18.1972 C   0  0  0  0  0  0
  -28.0060  -12.3847   18.6102 C   0  0  0  0  0  0
  -27.6636  -13.2064   19.8821 C   0  0  2  0  0  0
  -28.7068  -12.9575   20.9953 C   0  0  0  0  0  0
  -25.2588  -13.8171   20.5673 C   0  0  0  0  0  0
  -24.1847  -13.0439   20.9193 C   0  0  0  0  0  0
  -24.6408  -11.6909   20.8759 C   0  0  0  0  0  0
  -23.9073  -10.4290   21.0418 C   0  0  0  0  0  0
  -24.3620   -9.4202   21.9195 C   0  0  0  0  0  0
  -23.6290   -8.2243   22.0759 C   0  0  0  0  0  0
  -22.4275   -8.0292   21.3547 C   0  0  0  0  0  0
  -21.9928   -9.0260   20.4640 C   0  0  0  0  0  0
  -22.7257  -10.2136   20.3051 C   0  0  0  0  0  0
  -21.6843   -6.0749   22.5285 C   0  0  0  0  0  0
  -21.4009   -6.5650   23.8218 C   0  0  0  0  0  0
  -21.3656   -5.6796   24.9175 C   0  0  0  0  0  0
  -21.6045   -4.3059   24.7225 C   0  0  0  0  0  0
  -21.8820   -3.8161   23.4341 C   0  0  0  0  0  0
  -21.9192   -4.6980   22.3395 C   0  0  0  0  0  0
  -22.7864  -13.5231   21.1854 C   0  0  0  0  0  0
  -22.1662   -4.2172   21.0970 F   0  0  0  0  0  0
  -21.5628   -3.4541   25.7733 F   0  0  0  0  0  0
  -30.0406  -13.2508   20.4431 N   0  0  0  0  0  0
  -26.3035  -12.9337   20.3410 N   0  0  0  0  0  0
  -25.9331  -11.6490   20.5787 N   0  0  0  0  0  0
  -22.0487  -12.8213   22.0396 N   0  0  0  0  0  0
  -25.4274  -15.1882   20.3995 N   0  0  0  0  0  0
  -31.8307  -14.6055   20.0720 O   0  0  0  0  0  0
  -21.6631   -6.8901   21.4245 O   0  0  0  0  0  0
  -22.3563  -14.5554   20.6723 O   0  0  0  0  0  0
  -24.6139  -31.8729   23.2202 C   0  0  0  0  0  0
  -25.9068  -32.4839   23.8476 C   0  0  1  0  0  0
  -27.2241  -27.4616   20.0640 C   0  0  0  0  0  0
  -25.5976  -33.8647   24.2406 N   0  0  0  0  0  0
  -23.3955  -30.5018   21.5626 C   0  0  2  0  0  0
  -24.8338  -28.9741   20.1213 C   0  0  0  0  0  0
  -22.7382  -29.4691   22.5057 C   0  0  0  0  0  0
  -18.0266  -28.1354   22.8501 C   0  0  0  0  0  0
  -24.1470  -36.7289   23.2630 C   0  0  0  0  0  0
  -25.9243  -30.8424   21.3704 C   0  0  0  0  0  0
  -25.9953  -29.4781   20.7171 C   0  0  0  0  0  0
  -27.1887  -28.7226   20.7010 C   0  0  0  0  0  0
  -26.0370  -26.9740   19.4691 C   0  0  0  0  0  0
  -24.8473  -27.7161   19.5036 C   0  0  0  0  0  0
  -23.5987  -29.8418   20.1738 C   0  0  0  0  0  0
  -25.4098  -36.3126   24.0338 C   0  0  1  0  0  0
  -20.5843  -28.3643   23.1311 C   0  0  2  0  0  0
  -20.6751  -26.9375   22.5416 C   0  0  0  0  0  0
  -19.5722  -26.6365   21.5201 C   0  0  0  0  0  0
  -18.1897  -26.7920   22.1594 C   0  0  0  0  0  0
  -19.1515  -28.8821   23.2900 C   0  0  0  0  0  0
  -18.9454  -30.1431   23.8906 C   0  0  0  0  0  0
  -17.6455  -30.6561   24.0575 C   0  0  0  0  0  0
  -25.9050  -34.9489   23.5155 C   0  0  0  0  0  0
  -16.5349  -29.9061   23.6333 C   0  0  0  0  0  0
  -16.7264  -28.6473   23.0365 C   0  0  0  0  0  0
  -26.4514  -31.6598   25.0786 C   0  0  0  0  0  0
  -25.3783  -31.3618   26.1514 C   0  0  0  0  0  0
  -27.0372  -30.3067   24.6133 C   0  0  0  0  0  0
  -27.6102  -32.4305   25.7555 C   0  0  0  0  0  0
  -27.5566  -37.1814   24.8477 C   0  0  0  0  0  0
  -21.4119  -29.3041   22.3762 N   0  0  0  0  0  0
  -26.4279  -37.3812   23.9426 N   0  0  0  0  0  0
  -24.6632  -31.0848   22.1101 N   0  0  0  0  0  0
  -23.4170  -28.8220   23.3074 O   0  0  0  0  0  0
  -28.4114  -26.7598   20.0567 O   0  0  0  0  0  0
  -26.5565  -34.8915   22.4689 O   0  0  0  0  0  0
  -23.5348  -32.1508   23.7601 O   0  0  0  0  0  0
  -32.0554  -18.5345   21.6785 C   0  0  0  0  0  0
  -31.7598  -17.1696   21.5360 C   0  0  0  0  0  0
  -29.3984  -17.7117   21.3483 C   0  0  0  0  0  0
  -31.0329  -19.5056   21.6644 C   0  0  0  0  0  0
  -29.6794  -19.0919   21.4705 C   0  0  0  0  0  0
  -30.4252  -16.7452   21.3688 C   0  0  0  0  0  0
  -28.7082  -23.4281   19.9239 C   0  0  0  0  0  0
  -28.0590  -24.4337   19.3119 C   0  0  0  0  0  0
  -28.0492  -22.1534   20.1469 C   0  0  0  0  0  0
  -31.4567  -20.9496   21.9004 C   0  0  0  0  0  0
  -28.4723  -20.0362   21.4151 C   0  0  0  0  0  0
  -28.6512  -25.8029   19.0215 C   0  0  0  0  0  0
  -30.0696  -15.3733   21.2611 N   0  0  0  0  0  0
  -28.7733  -21.3840   20.9573 N   0  0  0  0  0  0
  -26.9679  -21.7998   19.6714 O   0  0  0  0  0  0
  -31.4597  -12.3624   19.1049 H   0  0  0  0  0  0
  -30.2961  -11.2668   19.7898 H   0  0  0  0  0  0
  -29.7087  -11.7902   17.4090 H   0  0  0  0  0  0
  -29.6682  -13.4974   17.7706 H   0  0  0  0  0  0
  -27.8017  -11.3277   18.7864 H   0  0  0  0  0  0
  -27.3574  -12.6842   17.7855 H   0  0  0  0  0  0
  -27.7148  -14.2597   19.6040 H   0  0  0  0  0  0
  -28.6746  -11.9159   21.3178 H   0  0  0  0  0  0
  -28.4740  -13.5363   21.8907 H   0  0  0  0  0  0
  -25.2750   -9.5687   22.4787 H   0  0  0  0  0  0
  -23.9998   -7.4645   22.7479 H   0  0  0  0  0  0
  -21.0867   -8.8772   19.8934 H   0  0  0  0  0  0
  -22.3722  -10.9677   19.6164 H   0  0  0  0  0  0
  -21.1988   -7.6145   23.9733 H   0  0  0  0  0  0
  -21.1477   -6.0520   25.9084 H   0  0  0  0  0  0
  -22.0597   -2.7622   23.2831 H   0  0  0  0  0  0
  -22.4060  -11.9829   22.4732 H   0  0  0  0  0  0
  -21.1111  -13.1250   22.2596 H   0  0  0  0  0  0
  -24.6482  -15.8342   20.4689 H   0  0  0  0  0  0
  -26.2643  -15.6166   20.0246 H   0  0  0  0  0  0
  -26.7151  -32.5552   23.1255 H   0  0  0  0  0  0
  -25.0328  -33.9855   25.0690 H   0  0  0  0  0  0
  -22.6835  -31.3200   21.4309 H   0  0  0  0  0  0
  -23.3771  -35.9579   23.3289 H   0  0  0  0  0  0
  -24.3568  -36.8918   22.2042 H   0  0  0  0  0  0
  -23.7172  -37.6460   23.6669 H   0  0  0  0  0  0
  -26.0391  -31.6090   20.6023 H   0  0  0  0  0  0
  -26.8122  -30.8924   21.9889 H   0  0  0  0  0  0
  -28.0866  -29.1113   21.1608 H   0  0  0  0  0  0
  -25.9900  -26.0262   18.9660 H   0  0  0  0  0  0
  -23.9522  -27.3179   19.0472 H   0  0  0  0  0  0
  -23.7123  -30.6247   19.4241 H   0  0  0  0  0  0
  -22.7182  -29.2717   19.8695 H   0  0  0  0  0  0
  -25.1259  -36.2005   25.0832 H   0  0  0  0  0  0
  -20.9935  -28.3209   24.1428 H   0  0  0  0  0  0
  -20.5634  -26.2258   23.3615 H   0  0  0  0  0  0
  -21.6628  -26.7401   22.1228 H   0  0  0  0  0  0
  -19.6898  -25.6280   21.1220 H   0  0  0  0  0  0
  -19.6652  -27.3180   20.6734 H   0  0  0  0  0  0
  -17.4176  -26.6738   21.3970 H   0  0  0  0  0  0
  -18.0243  -26.0013   22.8926 H   0  0  0  0  0  0
  -19.7922  -30.7272   24.2244 H   0  0  0  0  0  0
  -17.4997  -31.6237   24.5183 H   0  0  0  0  0  0
  -15.5359  -30.2977   23.7632 H   0  0  0  0  0  0
  -15.8665  -28.0806   22.7076 H   0  0  0  0  0  0
  -24.6152  -30.6724   25.7881 H   0  0  0  0  0  0
  -24.8728  -32.2677   26.4852 H   0  0  0  0  0  0
  -25.8183  -30.8973   27.0345 H   0  0  0  0  0  0
  -26.2921  -29.6789   24.1227 H   0  0  0  0  0  0
  -27.4224  -29.7327   25.4577 H   0  0  0  0  0  0
  -27.8717  -30.4428   23.9245 H   0  0  0  0  0  0
  -27.2796  -33.3656   26.2077 H   0  0  0  0  0  0
  -28.3957  -32.6745   25.0396 H   0  0  0  0  0  0
  -28.0720  -31.8448   26.5517 H   0  0  0  0  0  0
  -28.2584  -38.0105   24.7539 H   0  0  0  0  0  0
  -28.1054  -36.2645   24.6297 H   0  0  0  0  0  0
  -27.2292  -37.1451   25.8879 H   0  0  0  0  0  0
  -20.9286  -29.8806   21.7014 H   0  0  0  0  0  0
  -26.0162  -38.2879   24.1460 H   0  0  0  0  0  0
  -33.0864  -18.8284   21.8174 H   0  0  0  0  0  0
  -32.5742  -16.4602   21.5716 H   0  0  0  0  0  0
  -28.3724  -17.3918   21.2237 H   0  0  0  0  0  0
  -29.7281  -23.5826   20.2479 H   0  0  0  0  0  0
  -27.0423  -24.2687   18.9900 H   0  0  0  0  0  0
  -32.4962  -21.0083   22.2261 H   0  0  0  0  0  0
  -30.8536  -21.4103   22.6840 H   0  0  0  0  0  0
  -31.3834  -21.5399   20.9860 H   0  0  0  0  0  0
  -28.0263  -20.0902   22.4088 H   0  0  0  0  0  0
  -27.7122  -19.5931   20.7684 H   0  0  0  0  0  0
  -28.2989  -26.1649   18.0551 H   0  0  0  0  0  0
  -29.7326  -25.7025   18.9269 H   0  0  0  0  0  0
  -29.1406  -15.1191   21.5597 H   0  0  0  0  0  0
  -29.6385  -21.7735   21.2972 H   0  0  0  0  0  0
  1 25  1  0  0  0
  1 30  2  0  0  0
  1 83  1  0  0  0
  2  3  1  0  0  0
  2 25  1  0  0  0
  2 86  1  0  0  0
  2 87  1  0  0  0
  3  4  1  0  0  0
  3 88  1  0  0  0
  3 89  1  0  0  0
  4  5  1  0  0  0
  4 90  1  0  0  0
  4 91  1  0  0  0
  5  6  1  0  0  0
  5 26  1  0  0  0
  5 92  1  0  0  0
  6 25  1  0  0  0
  6 93  1  0  0  0
  6 94  1  0  0  0
  7  8  2  0  0  0
  7 26  1  0  0  0
  7 29  1  0  0  0
  8  9  1  0  0  0
  8 22  1  0  0  0
  9 10  1  0  0  0
  9 27  2  0  0  0
 10 11  2  0  0  0
 10 15  1  0  0  0
 11 12  1  0  0  0
 11 95  1  0  0  0
 12 13  2  0  0  0
 12 96  1  0  0  0
 13 14  1  0  0  0
 13 31  1  0  0  0
 14 15  2  0  0  0
 14 97  1  0  0  0
 15 98  1  0  0  0
 16 17  2  0  0  0
 16 21  1  0  0  0
 16 31  1  0  0  0
 17 18  1  0  0  0
 17 99  1  0  0  0
 18 19  2  0  0  0
 18100  1  0  0  0
 19 20  1  0  0  0
 19 24  1  0  0  0
 20 21  2  0  0  0
 20101  1  0  0  0
 21 23  1  0  0  0
 22 28  1  0  0  0
 22 32  2  0  0  0
 26 27  1  0  0  0
 28102  1  0  0  0
 28103  1  0  0  0
 29104  1  0  0  0
 29105  1  0  0  0
 33 34  1  0  0  0
 33 66  1  0  0  0
 33 70  2  0  0  0
 34 36  1  0  0  0
 34 59  1  0  0  0
 34106  1  0  0  0
 35 44  2  0  0  0
 35 45  1  0  0  0
 35 68  1  0  0  0
 36 56  1  0  0  0
 36107  1  0  0  0
 37 39  1  0  0  0
 37 47  1  0  0  0
 37 66  1  0  0  0
 37108  1  0  0  0
 38 43  2  0  0  0
 38 46  1  0  0  0
 38 47  1  0  0  0
 39 64  1  0  0  0
 39 67  2  0  0  0
 40 52  1  0  0  0
 40 53  2  0  0  0
 40 58  1  0  0  0
 41109  1  0  0  0
 41110  1  0  0  0
 41111  1  0  0  0
 41 48  1  0  0  0
 42 43  1  0  0  0
 42 66  1  0  0  0
 42112  1  0  0  0
 42113  1  0  0  0
 43 44  1  0  0  0
 44114  1  0  0  0
 45 46  2  0  0  0
 45115  1  0  0  0
 46116  1  0  0  0
 47117  1  0  0  0
 47118  1  0  0  0
 48 56  1  0  0  0
 48 65  1  0  0  0
 48119  1  0  0  0
 49 50  1  0  0  0
 49 53  1  0  0  0
 49 64  1  0  0  0
 49120  1  0  0  0
 50 51  1  0  0  0
 50121  1  0  0  0
 50122  1  0  0  0
 51 52  1  0  0  0
 51123  1  0  0  0
 51124  1  0  0  0
 52125  1  0  0  0
 52126  1  0  0  0
 53 54  1  0  0  0
 54 55  2  0  0  0
 54127  1  0  0  0
 55 57  1  0  0  0
 55128  1  0  0  0
 56 69  2  0  0  0
 57 58  2  0  0  0
 57129  1  0  0  0
 58130  1  0  0  0
 59 60  1  0  0  0
 59 61  1  0  0  0
 59 62  1  0  0  0
 60131  1  0  0  0
 60132  1  0  0  0
 60133  1  0  0  0
 61134  1  0  0  0
 61135  1  0  0  0
 61136  1  0  0  0
 62137  1  0  0  0
 62138  1  0  0  0
 62139  1  0  0  0
 63 65  1  0  0  0
 63140  1  0  0  0
 63141  1  0  0  0
 63142  1  0  0  0
 64143  1  0  0  0
 65144  1  0  0  0
 68 82  1  0  0  0
 71 72  2  0  0  0
 71 74  1  0  0  0
 71145  1  0  0  0
 72 76  1  0  0  0
 72146  1  0  0  0
 73 75  1  0  0  0
 73 76  2  0  0  0
 73147  1  0  0  0
 74 75  2  0  0  0
 74 80  1  0  0  0
 75 81  1  0  0  0
 76 83  1  0  0  0
 77 78  2  0  0  0
 77 79  1  0  0  0
 77148  1  0  0  0
 78 82  1  0  0  0
 78149  1  0  0  0
 79 84  1  0  0  0
 79 85  2  0  0  0
 80150  1  0  0  0
 80151  1  0  0  0
 80152  1  0  0  0
 81 84  1  0  0  0
 81153  1  0  0  0
 81154  1  0  0  0
 82155  1  0  0  0
 82156  1  0  0  0
 83157  1  0  0  0
 84158  1  0  0  0
M  ISO  4   1 100  68 101  82 101  83 100
M  END
> <chiral flag>
0

> <version>
0

> <s_m_source_file>
/data/baiqing/PycharmProjects/Reinvent-master-3.2/result/LINK_invent/BTK/process_docking_weight1_custom_product_contain_oxygen_bond_distance_aromatic_linkinvent_7_9_3/rearranged_h_0053.sdf

> <i_m_source_file_index>
42

> <r_mmod_Potential_Energy-OPLS-2005>
-179.448440551758

> <r_mmod_Stretch_Energy-OPLS-2005>
33.756290435791

> <r_mmod_Bend_Energy-OPLS-2005>
102.006332397461

> <r_mmod_Torsional_Energy-OPLS-2005>
204.98713684082

> <r_mmod_Improper_Torsional_Energy-OPLS-2005>
3.39730548858643

> <r_mmod_Van_der_Waal_Energy-OPLS-2005>
174.173583984375

> <r_mmod_Electrostatic_Energy-OPLS-2005>
-475.087799072266

> <r_mmod_Solvation_Energy-OPLS-2005>
-232.051193237305

> <b_mmod_Minimization_Converged-OPLS-2005>
0

> <r_mmod_RMS_Derivative-OPLS-2005>
2.54378962516785

$$$$
42
                    3D
 Structure written by MMmdl.
154162  0  0  1  0            999 V2000
  -30.7031  -14.4668   20.5247 C   0  0  0  0  0  0
  -30.4175  -12.2872   19.4329 C   0  0  0  0  0  0
  -29.4959  -12.4895   18.2116 C   0  0  0  0  0  0
  -28.0158  -12.3581   18.6212 C   0  0  0  0  0  0
  -27.6609  -13.2070   19.8717 C   0  0  2  0  0  0
  -28.7020  -13.0040   20.9973 C   0  0  0  0  0  0
  -25.2587  -13.8166   20.5681 C   0  0  0  0  0  0
  -24.1836  -13.0444   20.9172 C   0  0  0  0  0  0
  -24.6387  -11.6910   20.8731 C   0  0  0  0  0  0
  -23.9054  -10.4297   21.0398 C   0  0  0  0  0  0
  -24.3610   -9.4214   21.9177 C   0  0  0  0  0  0
  -23.6289   -8.2248   22.0751 C   0  0  0  0  0  0
  -22.4269   -8.0284   21.3544 C   0  0  0  0  0  0
  -21.9900   -9.0257   20.4645 C   0  0  0  0  0  0
  -22.7226  -10.2137   20.3049 C   0  0  0  0  0  0
  -21.6853   -6.0738   22.5277 C   0  0  0  0  0  0
  -21.4019   -6.5640   23.8212 C   0  0  0  0  0  0
  -21.3658   -5.6791   24.9173 C   0  0  0  0  0  0
  -21.6041   -4.3054   24.7224 C   0  0  0  0  0  0
  -21.8820   -3.8148   23.4345 C   0  0  0  0  0  0
  -21.9194   -4.6966   22.3401 C   0  0  0  0  0  0
  -22.7859  -13.5246   21.1836 C   0  0  0  0  0  0
  -22.1661   -4.2152   21.0980 F   0  0  0  0  0  0
  -21.5624   -3.4536   25.7736 F   0  0  0  0  0  0
  -30.0358  -13.2853   20.4436 N   0  0  0  0  0  0
  -26.3019  -12.9335   20.3351 N   0  0  0  0  0  0
  -25.9311  -11.6495   20.5761 N   0  0  0  0  0  0
  -22.0499  -12.8249   22.0396 N   0  0  0  0  0  0
  -25.4314  -15.1885   20.4099 N   0  0  0  0  0  0
  -31.8616  -14.6038   20.1216 O   0  0  0  0  0  0
  -21.6636   -6.8880   21.4238 O   0  0  0  0  0  0
  -22.3548  -14.5553   20.6688 O   0  0  0  0  0  0
  -24.6141  -31.8694   23.2122 C   0  0  0  0  0  0
  -25.9040  -32.4832   23.8407 C   0  0  1  0  0  0
  -27.2325  -27.4370   20.0896 C   0  0  0  0  0  0
  -25.5903  -33.8630   24.2340 N   0  0  0  0  0  0
  -23.4008  -30.4950   21.5524 C   0  0  2  0  0  0
  -24.8450  -28.9645   20.1144 C   0  0  0  0  0  0
  -22.7406  -29.4669   22.4990 C   0  0  0  0  0  0
  -18.0271  -28.1379   22.8490 C   0  0  0  0  0  0
  -24.1488  -36.7315   23.2638 C   0  0  0  0  0  0
  -25.9302  -30.8347   21.3658 C   0  0  0  0  0  0
  -26.0053  -29.4700   20.7124 C   0  0  0  0  0  0
  -27.1986  -28.7122   20.7002 C   0  0  0  0  0  0
  -26.0495  -26.9515   19.4796 C   0  0  0  0  0  0
  -24.8621  -27.7036   19.4974 C   0  0  0  0  0  0
  -23.6086  -29.8316   20.1657 C   0  0  0  0  0  0
  -25.4111  -36.3117   24.0339 C   0  0  1  0  0  0
  -20.5863  -28.3665   23.1323 C   0  0  2  0  0  0
  -20.6765  -26.9404   22.5419 C   0  0  0  0  0  0
  -19.5743  -26.6388   21.5215 C   0  0  0  0  0  0
  -18.1920  -26.7926   22.1624 C   0  0  0  0  0  0
  -19.1521  -28.8836   23.2904 C   0  0  0  0  0  0
  -18.9452  -30.1441   23.8917 C   0  0  0  0  0  0
  -17.6455  -30.6586   24.0568 C   0  0  0  0  0  0
  -25.9034  -34.9481   23.5132 C   0  0  0  0  0  0
  -16.5345  -29.9091   23.6325 C   0  0  0  0  0  0
  -16.7260  -28.6508   23.0345 C   0  0  0  0  0  0
  -26.4473  -31.6605   25.0728 C   0  0  0  0  0  0
  -25.3744  -31.3704   26.1478 C   0  0  0  0  0  0
  -27.0302  -30.3052   24.6090 C   0  0  0  0  0  0
  -27.6056  -32.4320   25.7486 C   0  0  0  0  0  0
  -27.5582  -37.1814   24.8467 C   0  0  0  0  0  0
  -21.4133  -29.3034   22.3726 N   0  0  0  0  0  0
  -26.4298  -37.3800   23.9406 N   0  0  0  0  0  0
  -24.6666  -31.0804   22.1020 N   0  0  0  0  0  0
  -23.4182  -28.8208   23.3026 O   0  0  0  0  0  0
  -28.4124  -26.7151   20.1198 O   0  0  0  0  0  0
  -26.5593  -34.8928   22.4692 O   0  0  0  0  0  0
  -23.5334  -32.1444   23.7521 O   0  0  0  0  0  0
  -29.5843  -19.2734   20.7167 C   0  0  0  0  0  0
  -30.7550  -18.5060   18.7343 C   0  0  0  0  0  0
  -29.5271  -17.9389   21.1906 C   0  0  0  0  0  0
  -30.6996  -17.1815   19.2040 C   0  0  0  0  0  0
  -30.2014  -19.5663   19.4779 C   0  0  0  0  0  0
  -30.0915  -16.8751   20.4460 C   0  0  0  0  0  0
  -29.9263  -23.3693   19.1777 C   0  0  0  0  0  0
  -30.2640  -20.9621   18.8537 C   0  0  0  0  0  0
  -29.6407  -24.5677   20.0954 C   0  0  0  0  0  0
  -28.3881  -25.3579   19.6554 C   0  0  0  0  0  0
  -29.9697  -15.5277   20.9209 N   0  0  0  0  0  0
  -29.9538  -22.1250   19.6909 N   0  0  0  0  0  0
  -30.1454  -23.5772   17.9819 O   0  0  0  0  0  0
  -31.4642  -12.3677   19.1347 H   0  0  0  0  0  0
  -30.3018  -11.2811   19.8396 H   0  0  0  0  0  0
  -29.7337  -11.7602   17.4358 H   0  0  0  0  0  0
  -29.6706  -13.4726   17.7711 H   0  0  0  0  0  0
  -27.8237  -11.3039   18.8248 H   0  0  0  0  0  0
  -27.3677  -12.6271   17.7860 H   0  0  0  0  0  0
  -27.7016  -14.2516   19.5628 H   0  0  0  0  0  0
  -28.6686  -11.9775   21.3650 H   0  0  0  0  0  0
  -28.4738  -13.6322   21.8592 H   0  0  0  0  0  0
  -25.2758   -9.5693   22.4748 H   0  0  0  0  0  0
  -24.0001   -7.4640   22.7471 H   0  0  0  0  0  0
  -21.0830   -8.8779   19.8953 H   0  0  0  0  0  0
  -22.3685  -10.9677   19.6159 H   0  0  0  0  0  0
  -21.2016   -7.6148   23.9719 H   0  0  0  0  0  0
  -21.1473   -6.0518   25.9076 H   0  0  0  0  0  0
  -22.0599   -2.7609   23.2842 H   0  0  0  0  0  0
  -22.4113  -11.9920   22.4804 H   0  0  0  0  0  0
  -21.1116  -13.1279   22.2588 H   0  0  0  0  0  0
  -24.6668  -15.8457   20.5205 H   0  0  0  0  0  0
  -26.2870  -15.6276   20.0926 H   0  0  0  0  0  0
  -26.7109  -32.5546   23.1169 H   0  0  0  0  0  0
  -25.0068  -33.9799   25.0493 H   0  0  0  0  0  0
  -22.6886  -31.3117   21.4165 H   0  0  0  0  0  0
  -23.3747  -35.9652   23.3319 H   0  0  0  0  0  0
  -24.3576  -36.8909   22.2047 H   0  0  0  0  0  0
  -23.7248  -37.6528   23.6637 H   0  0  0  0  0  0
  -26.0436  -31.6013   20.5981 H   0  0  0  0  0  0
  -26.8184  -30.8865   21.9838 H   0  0  0  0  0  0
  -28.0934  -29.1002   21.1667 H   0  0  0  0  0  0
  -26.0143  -25.9950   18.9799 H   0  0  0  0  0  0
  -23.9699  -27.3101   19.0298 H   0  0  0  0  0  0
  -23.7186  -30.6086   19.4085 H   0  0  0  0  0  0
  -22.7318  -29.2536   19.8681 H   0  0  0  0  0  0
  -25.1289  -36.1986   25.0833 H   0  0  0  0  0  0
  -20.9953  -28.3231   24.1444 H   0  0  0  0  0  0
  -20.5676  -26.2271   23.3601 H   0  0  0  0  0  0
  -21.6636  -26.7453   22.1209 H   0  0  0  0  0  0
  -19.6908  -25.6304   21.1232 H   0  0  0  0  0  0
  -19.6690  -27.3209   20.6754 H   0  0  0  0  0  0
  -17.4193  -26.6673   21.4023 H   0  0  0  0  0  0
  -18.0323  -26.0068   22.9020 H   0  0  0  0  0  0
  -19.7927  -30.7249   24.2300 H   0  0  0  0  0  0
  -17.5012  -31.6272   24.5162 H   0  0  0  0  0  0
  -15.5347  -30.3004   23.7639 H   0  0  0  0  0  0
  -15.8657  -28.0837   22.7050 H   0  0  0  0  0  0
  -24.5924  -30.7043   25.7815 H   0  0  0  0  0  0
  -24.8926  -32.2856   26.4929 H   0  0  0  0  0  0
  -25.8104  -30.8874   27.0231 H   0  0  0  0  0  0
  -26.2839  -29.6817   24.1152 H   0  0  0  0  0  0
  -27.4089  -29.7283   25.4537 H   0  0  0  0  0  0
  -27.8667  -30.4377   23.9227 H   0  0  0  0  0  0
  -27.2684  -33.3613   26.2088 H   0  0  0  0  0  0
  -28.3851  -32.6889   25.0302 H   0  0  0  0  0  0
  -28.0738  -31.8427   26.5379 H   0  0  0  0  0  0
  -28.2616  -38.0096   24.7505 H   0  0  0  0  0  0
  -28.1062  -36.2629   24.6307 H   0  0  0  0  0  0
  -27.2293  -37.1484   25.8868 H   0  0  0  0  0  0
  -20.9285  -29.8756   21.6953 H   0  0  0  0  0  0
  -26.0189  -38.2880   24.1403 H   0  0  0  0  0  0
  -29.1343  -20.0607   21.3043 H   0  0  0  0  0  0
  -31.2169  -18.7034   17.7764 H   0  0  0  0  0  0
  -29.0390  -17.7401   22.1347 H   0  0  0  0  0  0
  -31.1175  -16.4096   18.5743 H   0  0  0  0  0  0
  -29.5858  -20.9574   17.9980 H   0  0  0  0  0  0
  -31.2668  -21.1002   18.4438 H   0  0  0  0  0  0
  -30.5131  -25.2204   20.0440 H   0  0  0  0  0  0
  -29.5509  -24.2549   21.1357 H   0  0  0  0  0  0
  -27.5223  -24.8268   20.0534 H   0  0  0  0  0  0
  -28.2942  -25.3730   18.5681 H   0  0  0  0  0  0
  -29.1231  -15.3087   21.4238 H   0  0  0  0  0  0
  -29.7908  -21.9845   20.6781 H   0  0  0  0  0  0
  1 25  1  0  0  0
  1 30  2  0  0  0
  1 81  1  0  0  0
  2  3  1  0  0  0
  2 25  1  0  0  0
  2 84  1  0  0  0
  2 85  1  0  0  0
  3  4  1  0  0  0
  3 86  1  0  0  0
  3 87  1  0  0  0
  4  5  1  0  0  0
  4 88  1  0  0  0
  4 89  1  0  0  0
  5  6  1  0  0  0
  5 26  1  0  0  0
  5 90  1  0  0  0
  6 25  1  0  0  0
  6 91  1  0  0  0
  6 92  1  0  0  0
  7  8  2  0  0  0
  7 26  1  0  0  0
  7 29  1  0  0  0
  8  9  1  0  0  0
  8 22  1  0  0  0
  9 10  1  0  0  0
  9 27  2  0  0  0
 10 11  2  0  0  0
 10 15  1  0  0  0
 11 12  1  0  0  0
 11 93  1  0  0  0
 12 13  2  0  0  0
 12 94  1  0  0  0
 13 14  1  0  0  0
 13 31  1  0  0  0
 14 15  2  0  0  0
 14 95  1  0  0  0
 15 96  1  0  0  0
 16 17  2  0  0  0
 16 21  1  0  0  0
 16 31  1  0  0  0
 17 18  1  0  0  0
 17 97  1  0  0  0
 18 19  2  0  0  0
 18 98  1  0  0  0
 19 20  1  0  0  0
 19 24  1  0  0  0
 20 21  2  0  0  0
 20 99  1  0  0  0
 21 23  1  0  0  0
 22 28  1  0  0  0
 22 32  2  0  0  0
 26 27  1  0  0  0
 28100  1  0  0  0
 28101  1  0  0  0
 29102  1  0  0  0
 29103  1  0  0  0
 33 34  1  0  0  0
 33 66  1  0  0  0
 33 70  2  0  0  0
 34 36  1  0  0  0
 34 59  1  0  0  0
 34104  1  0  0  0
 35 44  2  0  0  0
 35 45  1  0  0  0
 35 68  1  0  0  0
 36 56  1  0  0  0
 36105  1  0  0  0
 37 39  1  0  0  0
 37 47  1  0  0  0
 37 66  1  0  0  0
 37106  1  0  0  0
 38 43  2  0  0  0
 38 46  1  0  0  0
 38 47  1  0  0  0
 39 64  1  0  0  0
 39 67  2  0  0  0
 40 52  1  0  0  0
 40 53  2  0  0  0
 40 58  1  0  0  0
 41107  1  0  0  0
 41108  1  0  0  0
 41109  1  0  0  0
 41 48  1  0  0  0
 42 43  1  0  0  0
 42 66  1  0  0  0
 42110  1  0  0  0
 42111  1  0  0  0
 43 44  1  0  0  0
 44112  1  0  0  0
 45 46  2  0  0  0
 45113  1  0  0  0
 46114  1  0  0  0
 47115  1  0  0  0
 47116  1  0  0  0
 48 56  1  0  0  0
 48 65  1  0  0  0
 48117  1  0  0  0
 49 50  1  0  0  0
 49 53  1  0  0  0
 49 64  1  0  0  0
 49118  1  0  0  0
 50 51  1  0  0  0
 50119  1  0  0  0
 50120  1  0  0  0
 51 52  1  0  0  0
 51121  1  0  0  0
 51122  1  0  0  0
 52123  1  0  0  0
 52124  1  0  0  0
 53 54  1  0  0  0
 54 55  2  0  0  0
 54125  1  0  0  0
 55 57  1  0  0  0
 55126  1  0  0  0
 56 69  2  0  0  0
 57 58  2  0  0  0
 57127  1  0  0  0
 58128  1  0  0  0
 59 60  1  0  0  0
 59 61  1  0  0  0
 59 62  1  0  0  0
 60129  1  0  0  0
 60130  1  0  0  0
 60131  1  0  0  0
 61132  1  0  0  0
 61133  1  0  0  0
 61134  1  0  0  0
 62135  1  0  0  0
 62136  1  0  0  0
 62137  1  0  0  0
 63 65  1  0  0  0
 63138  1  0  0  0
 63139  1  0  0  0
 63140  1  0  0  0
 64141  1  0  0  0
 65142  1  0  0  0
 68 80  1  0  0  0
 71 73  2  0  0  0
 71 75  1  0  0  0
 71143  1  0  0  0
 72 74  1  0  0  0
 72 75  2  0  0  0
 72144  1  0  0  0
 73 76  1  0  0  0
 73145  1  0  0  0
 74 76  2  0  0  0
 74146  1  0  0  0
 75 78  1  0  0  0
 76 81  1  0  0  0
 77 79  1  0  0  0
 77 82  1  0  0  0
 77 83  2  0  0  0
 78 82  1  0  0  0
 78147  1  0  0  0
 78148  1  0  0  0
 79 80  1  0  0  0
 79149  1  0  0  0
 79150  1  0  0  0
 80151  1  0  0  0
 80152  1  0  0  0
 81153  1  0  0  0
 82154  1  0  0  0
M  ISO  4   1 100  68 101  80 101  81 100
M  END
> <chiral flag>
0

> <version>
0

> <s_m_source_file>
/data/baiqing/PycharmProjects/Reinvent-master-3.2/result/LINK_invent/BTK/process_docking_weight1_custom_product_contain_oxygen_bond_distance_aromatic_linkinvent_7_9_3/rearranged_h_0053.sdf

> <i_m_source_file_index>
43

> <r_mmod_Potential_Energy-OPLS-2005>
-136.95133972168

> <r_mmod_Stretch_Energy-OPLS-2005>
36.3676567077637

> <r_mmod_Bend_Energy-OPLS-2005>
98.5114364624023

> <r_mmod_Torsional_Energy-OPLS-2005>
217.594100952148

> <r_mmod_Improper_Torsional_Energy-OPLS-2005>
4.52767610549927

> <r_mmod_Van_der_Waal_Energy-OPLS-2005>
164.533584594727

> <r_mmod_Electrostatic_Energy-OPLS-2005>
-436.875091552734

> <r_mmod_Solvation_Energy-OPLS-2005>
-236.604675292969

> <b_mmod_Minimization_Converged-OPLS-2005>
0

> <r_mmod_RMS_Derivative-OPLS-2005>
0.736432313919067

$$$$
43
                    3D
 Structure written by MMmdl.
173182  0  0  1  0            999 V2000
  -30.7124  -14.5296   20.5155 C   0  0  0  0  0  0
  -30.4180  -12.3277   19.4456 C   0  0  0  0  0  0
  -29.5022  -12.4956   18.2150 C   0  0  0  0  0  0
  -28.0230  -12.3615   18.6210 C   0  0  0  0  0  0
  -27.6567  -13.2241   19.8610 C   0  0  2  0  0  0
  -28.6984  -13.0664   20.9927 C   0  0  0  0  0  0
  -25.2574  -13.8204   20.5699 C   0  0  0  0  0  0
  -24.1847  -13.0442   20.9191 C   0  0  0  0  0  0
  -24.6421  -11.6922   20.8724 C   0  0  0  0  0  0
  -23.9069  -10.4310   21.0394 C   0  0  0  0  0  0
  -24.3616   -9.4229   21.9170 C   0  0  0  0  0  0
  -23.6292   -8.2261   22.0739 C   0  0  0  0  0  0
  -22.4273   -8.0299   21.3527 C   0  0  0  0  0  0
  -21.9913   -9.0265   20.4620 C   0  0  0  0  0  0
  -22.7245  -10.2147   20.3033 C   0  0  0  0  0  0
  -21.6865   -6.0757   22.5274 C   0  0  0  0  0  0
  -21.4035   -6.5641   23.8218 C   0  0  0  0  0  0
  -21.3669   -5.6783   24.9162 C   0  0  0  0  0  0
  -21.6038   -4.3042   24.7207 C   0  0  0  0  0  0
  -21.8828   -3.8149   23.4320 C   0  0  0  0  0  0
  -21.9197   -4.6980   22.3394 C   0  0  0  0  0  0
  -22.7872  -13.5238   21.1837 C   0  0  0  0  0  0
  -22.1655   -4.2179   21.0962 F   0  0  0  0  0  0
  -21.5614   -3.4518   25.7712 F   0  0  0  0  0  0
  -30.0257  -13.3530   20.4295 N   0  0  0  0  0  0
  -26.3007  -12.9404   20.3290 N   0  0  0  0  0  0
  -25.9348  -11.6538   20.5695 N   0  0  0  0  0  0
  -22.0474  -12.8253   22.0369 N   0  0  0  0  0  0
  -25.4230  -15.1933   20.4177 N   0  0  0  0  0  0
  -31.8843  -14.6082   20.1472 O   0  0  0  0  0  0
  -21.6628   -6.8900   21.4232 O   0  0  0  0  0  0
  -22.3569  -14.5522   20.6648 O   0  0  0  0  0  0
  -24.6196  -31.8635   23.2084 C   0  0  0  0  0  0
  -25.9088  -32.4791   23.8359 C   0  0  1  0  0  0
  -27.2261  -27.3791   20.0921 C   0  0  0  0  0  0
  -25.5939  -33.8590   24.2302 N   0  0  0  0  0  0
  -23.4099  -30.4919   21.5489 C   0  0  2  0  0  0
  -24.8563  -28.9615   20.1127 C   0  0  0  0  0  0
  -22.7423  -29.4641   22.4931 C   0  0  0  0  0  0
  -18.0290  -28.1404   22.8458 C   0  0  0  0  0  0
  -24.1507  -36.7307   23.2635 C   0  0  0  0  0  0
  -25.9483  -30.8075   21.3772 C   0  0  0  0  0  0
  -26.0210  -29.4408   20.7237 C   0  0  0  0  0  0
  -27.2056  -28.6542   20.7208 C   0  0  0  0  0  0
  -26.0475  -26.9566   19.4454 C   0  0  0  0  0  0
  -24.8662  -27.7156   19.4734 C   0  0  0  0  0  0
  -23.6232  -29.8351   20.1612 C   0  0  0  0  0  0
  -25.4129  -36.3101   24.0326 C   0  0  1  0  0  0
  -20.5896  -28.3661   23.1271 C   0  0  2  0  0  0
  -20.6801  -26.9416   22.5388 C   0  0  0  0  0  0
  -19.5738  -26.6355   21.5242 C   0  0  0  0  0  0
  -18.1907  -26.7964   22.1589 C   0  0  0  0  0  0
  -19.1558  -28.8841   23.2880 C   0  0  0  0  0  0
  -18.9485  -30.1432   23.8923 C   0  0  0  0  0  0
  -17.6474  -30.6565   24.0617 C   0  0  0  0  0  0
  -25.9044  -34.9457   23.5093 C   0  0  0  0  0  0
  -16.5358  -29.9099   23.6342 C   0  0  0  0  0  0
  -16.7291  -28.6548   23.0330 C   0  0  0  0  0  0
  -26.4528  -31.6551   25.0667 C   0  0  0  0  0  0
  -25.3785  -31.3636   26.1386 C   0  0  0  0  0  0
  -27.0350  -30.2978   24.6066 C   0  0  0  0  0  0
  -27.6107  -32.4268   25.7431 C   0  0  0  0  0  0
  -27.5588  -37.1815   24.8458 C   0  0  0  0  0  0
  -21.4147  -29.3030   22.3655 N   0  0  0  0  0  0
  -26.4309  -37.3795   23.9386 N   0  0  0  0  0  0
  -24.6777  -31.0683   22.1028 N   0  0  0  0  0  0
  -23.4163  -28.8180   23.3009 O   0  0  0  0  0  0
  -28.3689  -26.5839   20.1179 O   0  0  0  0  0  0
  -26.5597  -34.8927   22.4650 O   0  0  0  0  0  0
  -23.5368  -32.1409   23.7439 O   0  0  0  0  0  0
  -22.4719  -24.7058   19.7331 C   0  0  0  0  0  0
  -23.1469  -24.5117   18.5175 C   0  0  0  0  0  0
  -31.5957  -18.8082   19.5311 C   0  0  0  0  0  0
  -23.1254  -24.4300   20.9469 C   0  0  0  0  0  0
  -24.4761  -24.0535   18.5209 C   0  0  0  0  0  0
  -30.8532  -19.8051   20.1767 C   0  0  0  0  0  0
  -31.3157  -17.4521   19.7647 C   0  0  0  0  0  0
  -24.4558  -23.9638   20.9623 C   0  0  0  0  0  0
  -25.1538  -23.7934   19.7341 C   0  0  0  0  0  0
  -29.8206  -19.4631   21.0686 C   0  0  0  0  0  0
  -29.5349  -18.0727   21.3123 C   0  0  0  0  0  0
  -30.2944  -17.0409   20.6608 C   0  0  0  0  0  0
  -28.7358  -23.0789   21.0897 C   0  0  0  0  0  0
  -25.0622  -23.6522   22.3210 C   0  0  0  0  0  0
  -28.4143  -17.6946   22.2760 C   0  0  0  0  0  0
  -26.5838  -23.2605   19.6520 C   0  0  0  0  0  0
  -29.1165  -20.6442   21.7782 C   0  0  0  0  0  0
  -28.3605  -25.2316   19.5523 C   0  0  0  0  0  0
  -27.7135  -24.0579   20.3995 C   0  0  2  0  0  0
  -29.9985  -15.6313   20.8749 N   0  0  0  0  0  0
  -28.6396  -21.7360   20.8949 N   0  0  0  0  0  0
  -29.5658  -23.5416   21.8720 O   0  0  0  0  0  0
  -31.4639  -12.4062   19.1439 H   0  0  0  0  0  0
  -30.3042  -11.3320   19.8769 H   0  0  0  0  0  0
  -29.7456  -11.7474   17.4589 H   0  0  0  0  0  0
  -29.6801  -13.4700   17.7537 H   0  0  0  0  0  0
  -27.8350  -11.3084   18.8306 H   0  0  0  0  0  0
  -27.3809  -12.6185   17.7775 H   0  0  0  0  0  0
  -27.6785  -14.2651   19.5342 H   0  0  0  0  0  0
  -28.6797  -12.0532   21.3962 H   0  0  0  0  0  0
  -28.4628  -13.7262   21.8285 H   0  0  0  0  0  0
  -25.2761   -9.5733   22.4739 H   0  0  0  0  0  0
  -24.0019   -7.4659   22.7467 H   0  0  0  0  0  0
  -21.0847   -8.8781   19.8922 H   0  0  0  0  0  0
  -22.3697  -10.9679   19.6144 H   0  0  0  0  0  0
  -21.2028   -7.6151   23.9750 H   0  0  0  0  0  0
  -21.1482   -6.0484   25.9081 H   0  0  0  0  0  0
  -22.0603   -2.7616   23.2780 H   0  0  0  0  0  0
  -22.4052  -11.9932   22.4828 H   0  0  0  0  0  0
  -21.1076  -13.1306   22.2467 H   0  0  0  0  0  0
  -24.6489  -15.8378   20.5445 H   0  0  0  0  0  0
  -26.2584  -15.6460   20.0701 H   0  0  0  0  0  0
  -26.7144  -32.5500   23.1099 H   0  0  0  0  0  0
  -25.0133  -33.9747   25.0478 H   0  0  0  0  0  0
  -22.7046  -31.3140   21.4135 H   0  0  0  0  0  0
  -23.3772  -35.9636   23.3297 H   0  0  0  0  0  0
  -24.3614  -36.8918   22.2050 H   0  0  0  0  0  0
  -23.7271  -37.6521   23.6639 H   0  0  0  0  0  0
  -26.0743  -31.5741   20.6116 H   0  0  0  0  0  0
  -26.8318  -30.8529   22.0030 H   0  0  0  0  0  0
  -28.1004  -29.0150   21.2101 H   0  0  0  0  0  0
  -26.0197  -26.0357   18.8997 H   0  0  0  0  0  0
  -23.9776  -27.3417   18.9859 H   0  0  0  0  0  0
  -23.7505  -30.6185   19.4128 H   0  0  0  0  0  0
  -22.7420  -29.2700   19.8501 H   0  0  0  0  0  0
  -25.1334  -36.1942   25.0825 H   0  0  0  0  0  0
  -21.0038  -28.3190   24.1373 H   0  0  0  0  0  0
  -20.5763  -26.2296   23.3594 H   0  0  0  0  0  0
  -21.6671  -26.7504   22.1170 H   0  0  0  0  0  0
  -19.6797  -25.6209   21.1412 H   0  0  0  0  0  0
  -19.6720  -27.3051   20.6691 H   0  0  0  0  0  0
  -17.4232  -26.6766   21.3918 H   0  0  0  0  0  0
  -18.0213  -26.0102   22.8972 H   0  0  0  0  0  0
  -19.7962  -30.7229   24.2286 H   0  0  0  0  0  0
  -17.5026  -31.6224   24.5260 H   0  0  0  0  0  0
  -15.5367  -30.3014   23.7661 H   0  0  0  0  0  0
  -15.8670  -28.0898   22.7030 H   0  0  0  0  0  0
  -24.6006  -30.6956   25.7679 H   0  0  0  0  0  0
  -24.8935  -32.2770   26.4806 H   0  0  0  0  0  0
  -25.8117  -30.8799   27.0140 H   0  0  0  0  0  0
  -26.2851  -29.6713   24.1217 H   0  0  0  0  0  0
  -27.4207  -29.7254   25.4508 H   0  0  0  0  0  0
  -27.8668  -30.4288   23.9153 H   0  0  0  0  0  0
  -27.2751  -33.3576   26.2018 H   0  0  0  0  0  0
  -28.3914  -32.6798   25.0244 H   0  0  0  0  0  0
  -28.0778  -31.8366   26.5329 H   0  0  0  0  0  0
  -28.2624  -38.0105   24.7531 H   0  0  0  0  0  0
  -28.1089  -36.2639   24.6282 H   0  0  0  0  0  0
  -27.2288  -37.1459   25.8860 H   0  0  0  0  0  0
  -20.9273  -29.8745   21.6894 H   0  0  0  0  0  0
  -26.0185  -38.2863   24.1403 H   0  0  0  0  0  0
  -21.4486  -25.0500   19.7354 H   0  0  0  0  0  0
  -22.6464  -24.7127   17.5802 H   0  0  0  0  0  0
  -32.3858  -19.0843   18.8470 H   0  0  0  0  0  0
  -22.5908  -24.5628   21.8757 H   0  0  0  0  0  0
  -24.9830  -23.9102   17.5764 H   0  0  0  0  0  0
  -31.0847  -20.8463   19.9932 H   0  0  0  0  0  0
  -31.9182  -16.7474   19.2139 H   0  0  0  0  0  0
  -24.3354  -23.1451   22.9544 H   0  0  0  0  0  0
  -25.3497  -24.5772   22.8211 H   0  0  0  0  0  0
  -25.9321  -23.0030   22.2669 H   0  0  0  0  0  0
  -28.6440  -18.0480   23.2821 H   0  0  0  0  0  0
  -28.2309  -16.6237   22.3489 H   0  0  0  0  0  0
  -27.4763  -18.1447   21.9518 H   0  0  0  0  0  0
  -26.8737  -23.1312   18.6080 H   0  0  0  0  0  0
  -26.4588  -22.2459   20.0258 H   0  0  0  0  0  0
  -29.8197  -21.0374   22.5149 H   0  0  0  0  0  0
  -28.2623  -20.2967   22.3579 H   0  0  0  0  0  0
  -27.9594  -25.2507   18.5378 H   0  0  0  0  0  0
  -29.4091  -24.9846   19.3827 H   0  0  0  0  0  0
  -27.2540  -24.5679   21.2417 H   0  0  0  0  0  0
  -29.0869  -15.4297   21.2529 H   0  0  0  0  0  0
  -27.9849  -21.4364   20.1860 H   0  0  0  0  0  0
  1 25  1  0  0  0
  1 30  2  0  0  0
  1 90  1  0  0  0
  2  3  1  0  0  0
  2 25  1  0  0  0
  2 93  1  0  0  0
  2 94  1  0  0  0
  3  4  1  0  0  0
  3 95  1  0  0  0
  3 96  1  0  0  0
  4  5  1  0  0  0
  4 97  1  0  0  0
  4 98  1  0  0  0
  5  6  1  0  0  0
  5 26  1  0  0  0
  5 99  1  0  0  0
  6 25  1  0  0  0
  6100  1  0  0  0
  6101  1  0  0  0
  7  8  2  0  0  0
  7 26  1  0  0  0
  7 29  1  0  0  0
  8  9  1  0  0  0
  8 22  1  0  0  0
  9 10  1  0  0  0
  9 27  2  0  0  0
 10 11  2  0  0  0
 10 15  1  0  0  0
 11 12  1  0  0  0
 11102  1  0  0  0
 12 13  2  0  0  0
 12103  1  0  0  0
 13 14  1  0  0  0
 13 31  1  0  0  0
 14 15  2  0  0  0
 14104  1  0  0  0
 15105  1  0  0  0
 16 17  2  0  0  0
 16 21  1  0  0  0
 16 31  1  0  0  0
 17 18  1  0  0  0
 17106  1  0  0  0
 18 19  2  0  0  0
 18107  1  0  0  0
 19 20  1  0  0  0
 19 24  1  0  0  0
 20 21  2  0  0  0
 20108  1  0  0  0
 21 23  1  0  0  0
 22 28  1  0  0  0
 22 32  2  0  0  0
 26 27  1  0  0  0
 28109  1  0  0  0
 28110  1  0  0  0
 29111  1  0  0  0
 29112  1  0  0  0
 33 34  1  0  0  0
 33 66  1  0  0  0
 33 70  2  0  0  0
 34 36  1  0  0  0
 34 59  1  0  0  0
 34113  1  0  0  0
 35 44  2  0  0  0
 35 45  1  0  0  0
 35 68  1  0  0  0
 36 56  1  0  0  0
 36114  1  0  0  0
 37 39  1  0  0  0
 37 47  1  0  0  0
 37 66  1  0  0  0
 37115  1  0  0  0
 38 43  2  0  0  0
 38 46  1  0  0  0
 38 47  1  0  0  0
 39 64  1  0  0  0
 39 67  2  0  0  0
 40 52  1  0  0  0
 40 53  2  0  0  0
 40 58  1  0  0  0
 41116  1  0  0  0
 41117  1  0  0  0
 41118  1  0  0  0
 41 48  1  0  0  0
 42 43  1  0  0  0
 42 66  1  0  0  0
 42119  1  0  0  0
 42120  1  0  0  0
 43 44  1  0  0  0
 44121  1  0  0  0
 45 46  2  0  0  0
 45122  1  0  0  0
 46123  1  0  0  0
 47124  1  0  0  0
 47125  1  0  0  0
 48 56  1  0  0  0
 48 65  1  0  0  0
 48126  1  0  0  0
 49 50  1  0  0  0
 49 53  1  0  0  0
 49 64  1  0  0  0
 49127  1  0  0  0
 50 51  1  0  0  0
 50128  1  0  0  0
 50129  1  0  0  0
 51 52  1  0  0  0
 51130  1  0  0  0
 51131  1  0  0  0
 52132  1  0  0  0
 52133  1  0  0  0
 53 54  1  0  0  0
 54 55  2  0  0  0
 54134  1  0  0  0
 55 57  1  0  0  0
 55135  1  0  0  0
 56 69  2  0  0  0
 57 58  2  0  0  0
 57136  1  0  0  0
 58137  1  0  0  0
 59 60  1  0  0  0
 59 61  1  0  0  0
 59 62  1  0  0  0
 60138  1  0  0  0
 60139  1  0  0  0
 60140  1  0  0  0
 61141  1  0  0  0
 61142  1  0  0  0
 61143  1  0  0  0
 62144  1  0  0  0
 62145  1  0  0  0
 62146  1  0  0  0
 63 65  1  0  0  0
 63147  1  0  0  0
 63148  1  0  0  0
 63149  1  0  0  0
 64150  1  0  0  0
 65151  1  0  0  0
 68 88  1  0  0  0
 71 72  2  0  0  0
 71 74  1  0  0  0
 71152  1  0  0  0
 72 75  1  0  0  0
 72153  1  0  0  0
 73 76  2  0  0  0
 73 77  1  0  0  0
 73154  1  0  0  0
 74 78  2  0  0  0
 74155  1  0  0  0
 75 79  2  0  0  0
 75156  1  0  0  0
 76 80  1  0  0  0
 76157  1  0  0  0
 77 82  2  0  0  0
 77158  1  0  0  0
 78 79  1  0  0  0
 78 84  1  0  0  0
 79 86  1  0  0  0
 80 81  2  0  0  0
 80 87  1  0  0  0
 81 82  1  0  0  0
 81 85  1  0  0  0
 82 90  1  0  0  0
 83 89  1  0  0  0
 83 91  1  0  0  0
 83 92  2  0  0  0
 84159  1  0  0  0
 84160  1  0  0  0
 84161  1  0  0  0
 85162  1  0  0  0
 85163  1  0  0  0
 85164  1  0  0  0
 86165  1  0  0  0
 86166  1  0  0  0
 86 89  1  0  0  0
 87 91  1  0  0  0
 87167  1  0  0  0
 87168  1  0  0  0
 88 89  1  0  0  0
 88169  1  0  0  0
 88170  1  0  0  0
 89171  1  0  0  0
 90172  1  0  0  0
 91173  1  0  0  0
M  ISO  4   1 100  68 101  88 101  90 100
M  END
> <chiral flag>
0

> <version>
0

> <s_m_source_file>
/data/baiqing/PycharmProjects/Reinvent-master-3.2/result/LINK_invent/BTK/process_docking_weight1_custom_product_contain_oxygen_bond_distance_aromatic_linkinvent_7_9_3/rearranged_h_0053.sdf

> <i_m_source_file_index>
44

> <r_mmod_Potential_Energy-OPLS-2005>
-52.0063858032227

> <r_mmod_Stretch_Energy-OPLS-2005>
66.0470809936523

> <r_mmod_Bend_Energy-OPLS-2005>
136.463455200195

> <r_mmod_Torsional_Energy-OPLS-2005>
229.206787109375

> <r_mmod_Improper_Torsional_Energy-OPLS-2005>
4.98929309844971

> <r_mmod_Van_der_Waal_Energy-OPLS-2005>
175.266738891602

> <r_mmod_Electrostatic_Energy-OPLS-2005>
-453.864379882812

> <r_mmod_Solvation_Energy-OPLS-2005>
-236.95068359375

> <b_mmod_Minimization_Converged-OPLS-2005>
0

> <r_mmod_RMS_Derivative-OPLS-2005>
3.27786087989807

$$$$
44
                    3D
 Structure written by MMmdl.
154162  0  0  1  0            999 V2000
  -30.5869  -14.7540   20.4124 C   0  0  0  0  0  0
  -30.4189  -12.4531   19.4738 C   0  0  0  0  0  0
  -29.4962  -12.5108   18.2366 C   0  0  0  0  0  0
  -28.0234  -12.3315   18.6491 C   0  0  0  0  0  0
  -27.6327  -13.2313   19.8529 C   0  0  2  0  0  0
  -28.6745  -13.1683   20.9890 C   0  0  0  0  0  0
  -25.2448  -13.8209   20.5728 C   0  0  0  0  0  0
  -24.1744  -13.0444   20.9239 C   0  0  0  0  0  0
  -24.6348  -11.6924   20.8775 C   0  0  0  0  0  0
  -23.9021  -10.4312   21.0428 C   0  0  0  0  0  0
  -24.3588   -9.4211   21.9187 C   0  0  0  0  0  0
  -23.6287   -8.2233   22.0768 C   0  0  0  0  0  0
  -22.4273   -8.0264   21.3558 C   0  0  0  0  0  0
  -21.9908   -9.0217   20.4649 C   0  0  0  0  0  0
  -22.7214  -10.2105   20.3063 C   0  0  0  0  0  0
  -21.6847   -6.0732   22.5297 C   0  0  0  0  0  0
  -21.4000   -6.5640   23.8233 C   0  0  0  0  0  0
  -21.3668   -5.6793   24.9199 C   0  0  0  0  0  0
  -21.6043   -4.3054   24.7234 C   0  0  0  0  0  0
  -21.8815   -3.8139   23.4360 C   0  0  0  0  0  0
  -21.9195   -4.6962   22.3413 C   0  0  0  0  0  0
  -22.7771  -13.5197   21.1908 C   0  0  0  0  0  0
  -22.1671   -4.2144   21.0995 F   0  0  0  0  0  0
  -21.5631   -3.4535   25.7748 F   0  0  0  0  0  0
  -29.9817  -13.5149   20.4117 N   0  0  0  0  0  0
  -26.2871  -12.9414   20.3313 N   0  0  0  0  0  0
  -25.9277  -11.6554   20.5784 N   0  0  0  0  0  0
  -22.0423  -12.8153   22.0448 N   0  0  0  0  0  0
  -25.4140  -15.1942   20.4152 N   0  0  0  0  0  0
  -31.7662  -14.8575   20.0617 O   0  0  0  0  0  0
  -21.6637   -6.8861   21.4259 O   0  0  0  0  0  0
  -22.3440  -14.5506   20.6784 O   0  0  0  0  0  0
  -24.6310  -31.8563   23.2012 C   0  0  0  0  0  0
  -25.9131  -32.4759   23.8348 C   0  0  1  0  0  0
  -27.2103  -27.2674   20.1129 C   0  0  0  0  0  0
  -25.5942  -33.8568   24.2277 N   0  0  0  0  0  0
  -23.4269  -30.4791   21.5466 C   0  0  2  0  0  0
  -24.8714  -28.9379   20.1068 C   0  0  0  0  0  0
  -22.7502  -29.4605   22.4960 C   0  0  0  0  0  0
  -18.0295  -28.1386   22.8487 C   0  0  0  0  0  0
  -24.1505  -36.7274   23.2644 C   0  0  0  0  0  0
  -25.9752  -30.7682   21.3843 C   0  0  0  0  0  0
  -26.0453  -29.3956   20.7175 C   0  0  0  0  0  0
  -27.2174  -28.5707   20.7156 C   0  0  0  0  0  0
  -26.0155  -26.8922   19.4527 C   0  0  0  0  0  0
  -24.8609  -27.6950   19.4630 C   0  0  0  0  0  0
  -23.6404  -29.8204   20.1604 C   0  0  0  0  0  0
  -25.4126  -36.3088   24.0344 C   0  0  1  0  0  0
  -20.5892  -28.3696   23.1284 C   0  0  2  0  0  0
  -20.6801  -26.9422   22.5413 C   0  0  0  0  0  0
  -19.5781  -26.6397   21.5210 C   0  0  0  0  0  0
  -18.1951  -26.7936   22.1604 C   0  0  0  0  0  0
  -19.1544  -28.8861   23.2866 C   0  0  0  0  0  0
  -18.9458  -30.1467   23.8879 C   0  0  0  0  0  0
  -17.6456  -30.6587   24.0574 C   0  0  0  0  0  0
  -25.9055  -34.9451   23.5107 C   0  0  0  0  0  0
  -16.5352  -29.9085   23.6345 C   0  0  0  0  0  0
  -16.7281  -28.6502   23.0367 C   0  0  0  0  0  0
  -26.4496  -31.6575   25.0732 C   0  0  0  0  0  0
  -25.3735  -31.3676   26.1458 C   0  0  0  0  0  0
  -27.0347  -30.2997   24.6216 C   0  0  0  0  0  0
  -27.6055  -32.4310   25.7496 C   0  0  0  0  0  0
  -27.5604  -37.1778   24.8452 C   0  0  0  0  0  0
  -21.4212  -29.3034   22.3683 N   0  0  0  0  0  0
  -26.4303  -37.3785   23.9421 N   0  0  0  0  0  0
  -24.6954  -31.0523   22.0987 N   0  0  0  0  0  0
  -23.4207  -28.8164   23.3073 O   0  0  0  0  0  0
  -28.2888  -26.3517   20.1833 O   0  0  0  0  0  0
  -26.5618  -34.8937   22.4670 O   0  0  0  0  0  0
  -23.5464  -32.1389   23.7310 O   0  0  0  0  0  0
  -29.9639  -18.5112   17.9092 C   0  0  0  0  0  0
  -30.0369  -17.2869   18.6071 C   0  0  0  0  0  0
  -29.5550  -18.4951   20.6473 C   0  0  0  0  0  0
  -29.7136  -19.7451   18.5535 C   0  0  0  0  0  0
  -29.5093  -19.7862   19.9622 C   0  0  0  0  0  0
  -29.8357  -17.2204   20.0026 C   0  0  0  0  0  0
  -28.9739  -23.7750   20.4627 C   0  0  0  0  0  0
  -29.7118  -21.0008   17.6903 C   0  0  0  0  0  0
  -28.0135  -24.9032   19.8701 C   0  0  0  0  0  0
  -29.3964  -21.1775   20.7544 C   0  0  0  0  0  0
  -29.8167  -15.8846   20.6619 N   0  0  0  0  0  0
  -28.7521  -22.4344   20.1777 N   0  0  0  0  0  0
  -29.8918  -24.1319   21.2070 O   0  0  0  0  0  0
  -28.7736  -20.9157   21.9046 F   0  0  0  0  0  0
  -30.6645  -21.4664   21.0519 F   0  0  0  0  0  0
  -31.4583  -12.5711   19.1663 H   0  0  0  0  0  0
  -30.3602  -11.4751   19.9529 H   0  0  0  0  0  0
  -29.7736  -11.7413   17.5160 H   0  0  0  0  0  0
  -29.6169  -13.4635   17.7209 H   0  0  0  0  0  0
  -27.8784  -11.2814   18.9045 H   0  0  0  0  0  0
  -27.3684  -12.5296   17.8009 H   0  0  0  0  0  0
  -27.6275  -14.2527   19.4726 H   0  0  0  0  0  0
  -28.6996  -12.1731   21.4370 H   0  0  0  0  0  0
  -28.4060  -13.8519   21.7968 H   0  0  0  0  0  0
  -25.2730   -9.5677   22.4748 H   0  0  0  0  0  0
  -24.0004   -7.4615   22.7472 H   0  0  0  0  0  0
  -21.0873   -8.8693   19.8926 H   0  0  0  0  0  0
  -22.3671  -10.9618   19.6157 H   0  0  0  0  0  0
  -21.1981   -7.6152   23.9704 H   0  0  0  0  0  0
  -21.1514   -6.0560   25.9096 H   0  0  0  0  0  0
  -22.0590   -2.7602   23.2873 H   0  0  0  0  0  0
  -22.4076  -11.9817   22.4793 H   0  0  0  0  0  0
  -21.1020  -13.1131   22.2651 H   0  0  0  0  0  0
  -24.6438  -15.8454   20.5251 H   0  0  0  0  0  0
  -26.2613  -15.6385   20.0817 H   0  0  0  0  0  0
  -26.7207  -32.5422   23.1093 H   0  0  0  0  0  0
  -25.0091  -33.9711   25.0435 H   0  0  0  0  0  0
  -22.7227  -31.3002   21.4044 H   0  0  0  0  0  0
  -23.3819  -35.9546   23.3239 H   0  0  0  0  0  0
  -24.3585  -36.8964   22.2064 H   0  0  0  0  0  0
  -23.7209  -37.6433   23.6707 H   0  0  0  0  0  0
  -26.1287  -31.5350   20.6241 H   0  0  0  0  0  0
  -26.8469  -30.8027   22.0258 H   0  0  0  0  0  0
  -28.1124  -28.9127   21.2167 H   0  0  0  0  0  0
  -25.9300  -25.9546   18.9259 H   0  0  0  0  0  0
  -23.9701  -27.3414   18.9623 H   0  0  0  0  0  0
  -23.7580  -30.5977   19.4040 H   0  0  0  0  0  0
  -22.7594  -29.2480   19.8606 H   0  0  0  0  0  0
  -25.1310  -36.1933   25.0843 H   0  0  0  0  0  0
  -20.9960  -28.3287   24.1410 H   0  0  0  0  0  0
  -20.5735  -26.2292   23.3604 H   0  0  0  0  0  0
  -21.6673  -26.7463   22.1204 H   0  0  0  0  0  0
  -19.6953  -25.6310   21.1236 H   0  0  0  0  0  0
  -19.6737  -27.3214   20.6747 H   0  0  0  0  0  0
  -17.4235  -26.6714   21.4002 H   0  0  0  0  0  0
  -18.0301  -26.0064   22.8973 H   0  0  0  0  0  0
  -19.7932  -30.7298   24.2246 H   0  0  0  0  0  0
  -17.5008  -31.6257   24.5185 H   0  0  0  0  0  0
  -15.5354  -30.2986   23.7665 H   0  0  0  0  0  0
  -15.8683  -28.0815   22.7103 H   0  0  0  0  0  0
  -24.5961  -30.6964   25.7785 H   0  0  0  0  0  0
  -24.8865  -32.2816   26.4867 H   0  0  0  0  0  0
  -25.8088  -30.8881   27.0243 H   0  0  0  0  0  0
  -26.2920  -29.6730   24.1269 H   0  0  0  0  0  0
  -27.4065  -29.7263   25.4719 H   0  0  0  0  0  0
  -27.8796  -30.4267   23.9442 H   0  0  0  0  0  0
  -27.2681  -33.3644   26.2018 H   0  0  0  0  0  0
  -28.3881  -32.6812   25.0319 H   0  0  0  0  0  0
  -28.0710  -31.8472   26.5453 H   0  0  0  0  0  0
  -28.2567  -38.0131   24.7588 H   0  0  0  0  0  0
  -28.1172  -36.2668   24.6184 H   0  0  0  0  0  0
  -27.2320  -37.1301   25.8851 H   0  0  0  0  0  0
  -20.9431  -29.8670   21.6796 H   0  0  0  0  0  0
  -26.0196  -38.2857   24.1465 H   0  0  0  0  0  0
  -30.1244  -18.4957   16.8405 H   0  0  0  0  0  0
  -30.2258  -16.3899   18.0362 H   0  0  0  0  0  0
  -29.3943  -18.4942   21.7149 H   0  0  0  0  0  0
  -30.0405  -20.7866   16.6702 H   0  0  0  0  0  0
  -30.3895  -21.7581   18.0856 H   0  0  0  0  0  0
  -28.7083  -21.4229   17.6158 H   0  0  0  0  0  0
  -27.0254  -24.6299   20.2418 H   0  0  0  0  0  0
  -27.9898  -24.7863   18.7859 H   0  0  0  0  0  0
  -28.9794  -15.6985   21.1937 H   0  0  0  0  0  0
  -27.9572  -22.2484   19.5859 H   0  0  0  0  0  0
  1 25  1  0  0  0
  1 30  2  0  0  0
  1 81  1  0  0  0
  2  3  1  0  0  0
  2 25  1  0  0  0
  2 86  1  0  0  0
  2 87  1  0  0  0
  3  4  1  0  0  0
  3 88  1  0  0  0
  3 89  1  0  0  0
  4  5  1  0  0  0
  4 90  1  0  0  0
  4 91  1  0  0  0
  5  6  1  0  0  0
  5 26  1  0  0  0
  5 92  1  0  0  0
  6 25  1  0  0  0
  6 93  1  0  0  0
  6 94  1  0  0  0
  7  8  2  0  0  0
  7 26  1  0  0  0
  7 29  1  0  0  0
  8  9  1  0  0  0
  8 22  1  0  0  0
  9 10  1  0  0  0
  9 27  2  0  0  0
 10 11  2  0  0  0
 10 15  1  0  0  0
 11 12  1  0  0  0
 11 95  1  0  0  0
 12 13  2  0  0  0
 12 96  1  0  0  0
 13 14  1  0  0  0
 13 31  1  0  0  0
 14 15  2  0  0  0
 14 97  1  0  0  0
 15 98  1  0  0  0
 16 17  2  0  0  0
 16 21  1  0  0  0
 16 31  1  0  0  0
 17 18  1  0  0  0
 17 99  1  0  0  0
 18 19  2  0  0  0
 18100  1  0  0  0
 19 20  1  0  0  0
 19 24  1  0  0  0
 20 21  2  0  0  0
 20101  1  0  0  0
 21 23  1  0  0  0
 22 28  1  0  0  0
 22 32  2  0  0  0
 26 27  1  0  0  0
 28102  1  0  0  0
 28103  1  0  0  0
 29104  1  0  0  0
 29105  1  0  0  0
 33 34  1  0  0  0
 33 66  1  0  0  0
 33 70  2  0  0  0
 34 36  1  0  0  0
 34 59  1  0  0  0
 34106  1  0  0  0
 35 44  2  0  0  0
 35 45  1  0  0  0
 35 68  1  0  0  0
 36 56  1  0  0  0
 36107  1  0  0  0
 37 39  1  0  0  0
 37 47  1  0  0  0
 37 66  1  0  0  0
 37108  1  0  0  0
 38 43  2  0  0  0
 38 46  1  0  0  0
 38 47  1  0  0  0
 39 64  1  0  0  0
 39 67  2  0  0  0
 40 52  1  0  0  0
 40 53  2  0  0  0
 40 58  1  0  0  0
 41109  1  0  0  0
 41110  1  0  0  0
 41111  1  0  0  0
 41 48  1  0  0  0
 42 43  1  0  0  0
 42 66  1  0  0  0
 42112  1  0  0  0
 42113  1  0  0  0
 43 44  1  0  0  0
 44114  1  0  0  0
 45 46  2  0  0  0
 45115  1  0  0  0
 46116  1  0  0  0
 47117  1  0  0  0
 47118  1  0  0  0
 48 56  1  0  0  0
 48 65  1  0  0  0
 48119  1  0  0  0
 49 50  1  0  0  0
 49 53  1  0  0  0
 49 64  1  0  0  0
 49120  1  0  0  0
 50 51  1  0  0  0
 50121  1  0  0  0
 50122  1  0  0  0
 51 52  1  0  0  0
 51123  1  0  0  0
 51124  1  0  0  0
 52125  1  0  0  0
 52126  1  0  0  0
 53 54  1  0  0  0
 54 55  2  0  0  0
 54127  1  0  0  0
 55 57  1  0  0  0
 55128  1  0  0  0
 56 69  2  0  0  0
 57 58  2  0  0  0
 57129  1  0  0  0
 58130  1  0  0  0
 59 60  1  0  0  0
 59 61  1  0  0  0
 59 62  1  0  0  0
 60131  1  0  0  0
 60132  1  0  0  0
 60133  1  0  0  0
 61134  1  0  0  0
 61135  1  0  0  0
 61136  1  0  0  0
 62137  1  0  0  0
 62138  1  0  0  0
 62139  1  0  0  0
 63 65  1  0  0  0
 63140  1  0  0  0
 63141  1  0  0  0
 63142  1  0  0  0
 64143  1  0  0  0
 65144  1  0  0  0
 68 79  1  0  0  0
 71 72  2  0  0  0
 71 74  1  0  0  0
 71145  1  0  0  0
 72 76  1  0  0  0
 72146  1  0  0  0
 73 75  1  0  0  0
 73 76  2  0  0  0
 73147  1  0  0  0
 74 75  2  0  0  0
 74 78  1  0  0  0
 75 80  1  0  0  0
 76 81  1  0  0  0
 77 79  1  0  0  0
 77 82  1  0  0  0
 77 83  2  0  0  0
 78148  1  0  0  0
 78149  1  0  0  0
 78150  1  0  0  0
 79151  1  0  0  0
 79152  1  0  0  0
 80 82  1  0  0  0
 80 84  1  0  0  0
 80 85  1  0  0  0
 81153  1  0  0  0
 82154  1  0  0  0
M  ISO  4   1 100  68 101  79 101  81 100
M  END
> <chiral flag>
0

> <version>
0

> <s_m_source_file>
/data/baiqing/PycharmProjects/Reinvent-master-3.2/result/LINK_invent/BTK/process_docking_weight1_custom_product_contain_oxygen_bond_distance_aromatic_linkinvent_7_9_3/rearranged_h_0053.sdf

> <i_m_source_file_index>
45

> <r_mmod_Potential_Energy-OPLS-2005>
77.1078338623047

> <r_mmod_Stretch_Energy-OPLS-2005>
122.767997741699

> <r_mmod_Bend_Energy-OPLS-2005>
157.161163330078

> <r_mmod_Torsional_Energy-OPLS-2005>
230.198638916016

> <r_mmod_Improper_Torsional_Energy-OPLS-2005>
5.40971565246582

> <r_mmod_Van_der_Waal_Energy-OPLS-2005>
144.885559082031

> <r_mmod_Electrostatic_Energy-OPLS-2005>
-423.773986816406

> <r_mmod_Solvation_Energy-OPLS-2005>
-249.573211669922

> <b_mmod_Minimization_Converged-OPLS-2005>
0

> <r_mmod_RMS_Derivative-OPLS-2005>
3.69434022903442

$$$$
45
                    3D
 Structure written by MMmdl.
168176  0  0  1  0            999 V2000
  -30.6224  -14.4945   20.4841 C   0  0  0  0  0  0
  -30.4303  -12.2889   19.4266 C   0  0  0  0  0  0
  -29.5022  -12.4760   18.2040 C   0  0  0  0  0  0
  -28.0157  -12.3384   18.6027 C   0  0  0  0  0  0
  -27.6544  -13.1878   19.8542 C   0  0  2  0  0  0
  -28.6914  -12.9724   20.9770 C   0  0  0  0  0  0
  -25.2591  -13.8145   20.5620 C   0  0  0  0  0  0
  -24.1837  -13.0447   20.9151 C   0  0  0  0  0  0
  -24.6353  -11.6906   20.8732 C   0  0  0  0  0  0
  -23.9028  -10.4295   21.0396 C   0  0  0  0  0  0
  -24.3625   -9.4222   21.9185 C   0  0  0  0  0  0
  -23.6318   -8.2250   22.0747 C   0  0  0  0  0  0
  -22.4295   -8.0279   21.3521 C   0  0  0  0  0  0
  -21.9907   -9.0235   20.4623 C   0  0  0  0  0  0
  -22.7207  -10.2129   20.3032 C   0  0  0  0  0  0
  -21.6823   -6.0742   22.5283 C   0  0  0  0  0  0
  -21.3998   -6.5654   23.8233 C   0  0  0  0  0  0
  -21.3659   -5.6801   24.9201 C   0  0  0  0  0  0
  -21.6055   -4.3054   24.7218 C   0  0  0  0  0  0
  -21.8846   -3.8149   23.4333 C   0  0  0  0  0  0
  -21.9178   -4.6976   22.3393 C   0  0  0  0  0  0
  -22.7859  -13.5254   21.1820 C   0  0  0  0  0  0
  -22.1624   -4.2190   21.0948 F   0  0  0  0  0  0
  -21.5651   -3.4519   25.7713 F   0  0  0  0  0  0
  -30.0281  -13.2764   20.4383 N   0  0  0  0  0  0
  -26.2975  -12.9257   20.3238 N   0  0  0  0  0  0
  -25.9249  -11.6445   20.5715 N   0  0  0  0  0  0
  -22.0463  -12.8298   22.0390 N   0  0  0  0  0  0
  -25.4426  -15.1842   20.4048 N   0  0  0  0  0  0
  -31.8042  -14.6404   20.1457 O   0  0  0  0  0  0
  -21.6622   -6.8884   21.4230 O   0  0  0  0  0  0
  -22.3535  -14.5537   20.6624 O   0  0  0  0  0  0
  -24.6076  -31.8690   23.2129 C   0  0  0  0  0  0
  -25.8990  -32.4838   23.8409 C   0  0  1  0  0  0
  -27.3094  -27.5217   20.0948 C   0  0  0  0  0  0
  -25.5867  -33.8634   24.2370 N   0  0  0  0  0  0
  -23.3972  -30.4852   21.5487 C   0  0  2  0  0  0
  -24.8566  -28.9463   20.1279 C   0  0  0  0  0  0
  -22.7387  -29.4652   22.5019 C   0  0  0  0  0  0
  -18.0266  -28.1356   22.8496 C   0  0  0  0  0  0
  -24.1466  -36.7298   23.2645 C   0  0  0  0  0  0
  -25.9113  -30.8624   21.3520 C   0  0  0  0  0  0
  -26.0022  -29.4977   20.7109 C   0  0  0  0  0  0
  -27.2182  -28.7959   20.7012 C   0  0  0  0  0  0
  -26.1379  -26.9587   19.5374 C   0  0  0  0  0  0
  -24.9141  -27.6657   19.5456 C   0  0  0  0  0  0
  -23.6097  -29.8031   20.1661 C   0  0  0  0  0  0
  -25.4081  -36.3116   24.0357 C   0  0  1  0  0  0
  -20.5855  -28.3652   23.1329 C   0  0  2  0  0  0
  -20.6748  -26.9390   22.5414 C   0  0  0  0  0  0
  -19.5743  -26.6376   21.5203 C   0  0  0  0  0  0
  -18.1917  -26.7908   22.1605 C   0  0  0  0  0  0
  -19.1511  -28.8826   23.2903 C   0  0  0  0  0  0
  -18.9448  -30.1427   23.8920 C   0  0  0  0  0  0
  -17.6444  -30.6588   24.0560 C   0  0  0  0  0  0
  -25.9017  -34.9484   23.5164 C   0  0  0  0  0  0
  -16.5340  -29.9100   23.6299 C   0  0  0  0  0  0
  -16.7248  -28.6504   23.0350 C   0  0  0  0  0  0
  -26.4483  -31.6580   25.0687 C   0  0  0  0  0  0
  -25.3821  -31.3609   26.1492 C   0  0  0  0  0  0
  -27.0325  -30.3047   24.5988 C   0  0  0  0  0  0
  -27.6092  -32.4305   25.7428 C   0  0  0  0  0  0
  -27.5588  -37.1787   24.8485 C   0  0  0  0  0  0
  -21.4121  -29.3015   22.3744 N   0  0  0  0  0  0
  -26.4290  -37.3790   23.9439 N   0  0  0  0  0  0
  -24.6549  -31.0870   22.0986 N   0  0  0  0  0  0
  -23.4172  -28.8202   23.3059 O   0  0  0  0  0  0
  -28.4883  -26.8011   20.0085 O   0  0  0  0  0  0
  -26.5575  -34.8930   22.4721 O   0  0  0  0  0  0
  -23.5298  -32.1430   23.7561 O   0  0  0  0  0  0
  -27.2781  -19.0291   19.5822 C   0  0  0  0  0  0
  -28.0680  -17.8861   19.7883 C   0  0  0  0  0  0
  -27.6979  -20.2641   20.0972 C   0  0  0  0  0  0
  -29.2694  -17.9487   20.5330 C   0  0  0  0  0  0
  -28.8877  -20.3679   20.8497 C   0  0  0  0  0  0
  -29.6577  -19.1942   21.1131 C   0  0  0  0  0  0
  -30.1271  -16.7338   20.6206 C   0  0  0  0  0  0
  -31.2511  -23.3210   21.2004 C   0  0  0  0  0  0
  -30.8632  -19.2701   22.0520 C   0  0  0  0  0  0
  -29.9748  -28.4046   18.9097 C   0  0  0  0  0  0
  -29.2852  -21.7564   21.3532 C   0  0  0  0  0  0
  -30.9308  -26.5327   20.3074 C   0  0  0  0  0  0
  -30.9593  -25.7896   21.6575 C   0  0  0  0  0  0
  -29.7408  -27.5078   20.1401 C   0  0  2  0  0  0
  -29.7113  -15.5266   20.7127 N   0  0  0  0  0  0
  -32.5704  -23.4370   21.0105 N   0  0  0  0  0  0
  -30.5087  -24.3913   21.5250 N   0  0  0  0  0  0
  -30.6822  -22.1158   21.0503 N   0  3  0  0  0  0
  -31.4752  -12.3973   19.1253 H   0  0  0  0  0  0
  -30.3315  -11.2781   19.8269 H   0  0  0  0  0  0
  -29.7526  -11.7397   17.4386 H   0  0  0  0  0  0
  -29.6786  -13.4536   17.7559 H   0  0  0  0  0  0
  -27.8313  -11.2802   18.7903 H   0  0  0  0  0  0
  -27.3709  -12.5954   17.7625 H   0  0  0  0  0  0
  -27.6964  -14.2311   19.5398 H   0  0  0  0  0  0
  -28.6657  -11.9379   21.3260 H   0  0  0  0  0  0
  -28.4536  -13.5873   21.8458 H   0  0  0  0  0  0
  -25.2779   -9.5715   22.4750 H   0  0  0  0  0  0
  -24.0040   -7.4629   22.7457 H   0  0  0  0  0  0
  -21.0838   -8.8726   19.8929 H   0  0  0  0  0  0
  -22.3642  -10.9669   19.6140 H   0  0  0  0  0  0
  -21.1983   -7.6171   23.9763 H   0  0  0  0  0  0
  -21.1453   -6.0506   25.9113 H   0  0  0  0  0  0
  -22.0611   -2.7616   23.2793 H   0  0  0  0  0  0
  -22.4010  -11.9972   22.4866 H   0  0  0  0  0  0
  -21.1047  -13.1318   22.2472 H   0  0  0  0  0  0
  -24.7045  -15.8631   20.5594 H   0  0  0  0  0  0
  -26.3365  -15.6022   20.1839 H   0  0  0  0  0  0
  -26.7079  -32.5603   23.1212 H   0  0  0  0  0  0
  -25.0057  -33.9808   25.0550 H   0  0  0  0  0  0
  -22.6864  -31.2975   21.4012 H   0  0  0  0  0  0
  -23.3744  -35.9621   23.3308 H   0  0  0  0  0  0
  -24.3606  -36.8904   22.2071 H   0  0  0  0  0  0
  -23.7191  -37.6493   23.6648 H   0  0  0  0  0  0
  -26.0228  -31.6306   20.5854 H   0  0  0  0  0  0
  -26.7991  -30.9258   21.9665 H   0  0  0  0  0  0
  -28.0720  -29.2825   21.1458 H   0  0  0  0  0  0
  -26.1884  -25.9810   19.0779 H   0  0  0  0  0  0
  -24.0369  -27.2200   19.0937 H   0  0  0  0  0  0
  -23.7220  -30.5744   19.4037 H   0  0  0  0  0  0
  -22.7390  -29.2157   19.8689 H   0  0  0  0  0  0
  -25.1252  -36.1996   25.0851 H   0  0  0  0  0  0
  -20.9978  -28.3218   24.1442 H   0  0  0  0  0  0
  -20.5633  -26.2278   23.3611 H   0  0  0  0  0  0
  -21.6632  -26.7419   22.1227 H   0  0  0  0  0  0
  -19.6900  -25.6304   21.1212 H   0  0  0  0  0  0
  -19.6673  -27.3211   20.6759 H   0  0  0  0  0  0
  -17.4200  -26.6684   21.3997 H   0  0  0  0  0  0
  -18.0293  -26.0041   22.8981 H   0  0  0  0  0  0
  -19.7939  -30.7217   24.2311 H   0  0  0  0  0  0
  -17.5020  -31.6268   24.5152 H   0  0  0  0  0  0
  -15.5346  -30.3011   23.7586 H   0  0  0  0  0  0
  -15.8657  -28.0805   22.7061 H   0  0  0  0  0  0
  -24.6007  -30.6948   25.7822 H   0  0  0  0  0  0
  -24.9015  -32.2742   26.5021 H   0  0  0  0  0  0
  -25.8277  -30.8734   27.0182 H   0  0  0  0  0  0
  -26.2805  -29.6748   24.1251 H   0  0  0  0  0  0
  -27.4367  -29.7345   25.4355 H   0  0  0  0  0  0
  -27.8506  -30.4396   23.8921 H   0  0  0  0  0  0
  -27.2736  -33.3611   26.2017 H   0  0  0  0  0  0
  -28.3881  -32.6859   25.0232 H   0  0  0  0  0  0
  -28.0785  -31.8426   26.5333 H   0  0  0  0  0  0
  -28.2594  -38.0092   24.7571 H   0  0  0  0  0  0
  -28.1091  -36.2644   24.6250 H   0  0  0  0  0  0
  -27.2346  -37.1363   25.8895 H   0  0  0  0  0  0
  -20.9284  -29.8763   21.6983 H   0  0  0  0  0  0
  -26.0180  -38.2870   24.1457 H   0  0  0  0  0  0
  -26.3577  -18.9627   19.0116 H   0  0  0  0  0  0
  -27.7492  -16.9550   19.3438 H   0  0  0  0  0  0
  -27.0859  -21.1386   19.9234 H   0  0  0  0  0  0
  -31.1967  -16.9589   20.5758 H   0  0  0  0  0  0
  -31.0821  -18.3216   22.5368 H   0  0  0  0  0  0
  -30.6760  -19.9687   22.8666 H   0  0  0  0  0  0
  -31.7692  -19.5857   21.5321 H   0  0  0  0  0  0
  -30.9060  -28.9619   19.0109 H   0  0  0  0  0  0
  -29.1789  -29.1352   18.7782 H   0  0  0  0  0  0
  -30.0413  -27.8206   17.9928 H   0  0  0  0  0  0
  -29.1395  -21.7923   22.4346 H   0  0  0  0  0  0
  -28.6284  -22.5133   20.9218 H   0  0  0  0  0  0
  -30.9525  -25.8345   19.4726 H   0  0  0  0  0  0
  -31.8583  -27.1029   20.2286 H   0  0  0  0  0  0
  -30.3258  -26.3043   22.3806 H   0  0  0  0  0  0
  -31.9622  -25.8110   22.0900 H   0  0  0  0  0  0
  -29.7567  -28.1305   21.0334 H   0  0  0  0  0  0
  -33.0546  -24.3140   21.1553 H   0  0  0  0  0  0
  -33.1531  -22.6372   20.8063 H   0  0  0  0  0  0
  -29.5099  -24.2665   21.6249 H   0  0  0  0  0  0
  -31.2290  -21.3540   20.6848 H   0  0  0  0  0  0
  1 25  1  0  0  0
  1 30  2  0  0  0
  1 85  1  0  0  0
  2  3  1  0  0  0
  2 25  1  0  0  0
  2 89  1  0  0  0
  2 90  1  0  0  0
  3  4  1  0  0  0
  3 91  1  0  0  0
  3 92  1  0  0  0
  4  5  1  0  0  0
  4 93  1  0  0  0
  4 94  1  0  0  0
  5  6  1  0  0  0
  5 26  1  0  0  0
  5 95  1  0  0  0
  6 25  1  0  0  0
  6 96  1  0  0  0
  6 97  1  0  0  0
  7  8  2  0  0  0
  7 26  1  0  0  0
  7 29  1  0  0  0
  8  9  1  0  0  0
  8 22  1  0  0  0
  9 10  1  0  0  0
  9 27  2  0  0  0
 10 11  2  0  0  0
 10 15  1  0  0  0
 11 12  1  0  0  0
 11 98  1  0  0  0
 12 13  2  0  0  0
 12 99  1  0  0  0
 13 14  1  0  0  0
 13 31  1  0  0  0
 14 15  2  0  0  0
 14100  1  0  0  0
 15101  1  0  0  0
 16 17  2  0  0  0
 16 21  1  0  0  0
 16 31  1  0  0  0
 17 18  1  0  0  0
 17102  1  0  0  0
 18 19  2  0  0  0
 18103  1  0  0  0
 19 20  1  0  0  0
 19 24  1  0  0  0
 20 21  2  0  0  0
 20104  1  0  0  0
 21 23  1  0  0  0
 22 28  1  0  0  0
 22 32  2  0  0  0
 26 27  1  0  0  0
 28105  1  0  0  0
 28106  1  0  0  0
 29107  1  0  0  0
 29108  1  0  0  0
 33 34  1  0  0  0
 33 66  1  0  0  0
 33 70  2  0  0  0
 34 36  1  0  0  0
 34 59  1  0  0  0
 34109  1  0  0  0
 35 44  2  0  0  0
 35 45  1  0  0  0
 35 68  1  0  0  0
 36 56  1  0  0  0
 36110  1  0  0  0
 37 39  1  0  0  0
 37 47  1  0  0  0
 37 66  1  0  0  0
 37111  1  0  0  0
 38 43  2  0  0  0
 38 46  1  0  0  0
 38 47  1  0  0  0
 39 64  1  0  0  0
 39 67  2  0  0  0
 40 52  1  0  0  0
 40 53  2  0  0  0
 40 58  1  0  0  0
 41112  1  0  0  0
 41113  1  0  0  0
 41114  1  0  0  0
 41 48  1  0  0  0
 42 43  1  0  0  0
 42 66  1  0  0  0
 42115  1  0  0  0
 42116  1  0  0  0
 43 44  1  0  0  0
 44117  1  0  0  0
 45 46  2  0  0  0
 45118  1  0  0  0
 46119  1  0  0  0
 47120  1  0  0  0
 47121  1  0  0  0
 48 56  1  0  0  0
 48 65  1  0  0  0
 48122  1  0  0  0
 49 50  1  0  0  0
 49 53  1  0  0  0
 49 64  1  0  0  0
 49123  1  0  0  0
 50 51  1  0  0  0
 50124  1  0  0  0
 50125  1  0  0  0
 51 52  1  0  0  0
 51126  1  0  0  0
 51127  1  0  0  0
 52128  1  0  0  0
 52129  1  0  0  0
 53 54  1  0  0  0
 54 55  2  0  0  0
 54130  1  0  0  0
 55 57  1  0  0  0
 55131  1  0  0  0
 56 69  2  0  0  0
 57 58  2  0  0  0
 57132  1  0  0  0
 58133  1  0  0  0
 59 60  1  0  0  0
 59 61  1  0  0  0
 59 62  1  0  0  0
 60134  1  0  0  0
 60135  1  0  0  0
 60136  1  0  0  0
 61137  1  0  0  0
 61138  1  0  0  0
 61139  1  0  0  0
 62140  1  0  0  0
 62141  1  0  0  0
 62142  1  0  0  0
 63 65  1  0  0  0
 63143  1  0  0  0
 63144  1  0  0  0
 63145  1  0  0  0
 64146  1  0  0  0
 65147  1  0  0  0
 68 84  1  0  0  0
 71 72  2  0  0  0
 71 73  1  0  0  0
 71148  1  0  0  0
 72 74  1  0  0  0
 72149  1  0  0  0
 73 75  2  0  0  0
 73150  1  0  0  0
 74 76  2  0  0  0
 74 77  1  0  0  0
 75 76  1  0  0  0
 75 81  1  0  0  0
 76 79  1  0  0  0
 77 85  2  0  0  0
 77151  1  0  0  0
 78 86  1  0  0  0
 78 87  1  0  0  0
 78 88  2  0  0  0
 79152  1  0  0  0
 79153  1  0  0  0
 79154  1  0  0  0
 80155  1  0  0  0
 80156  1  0  0  0
 80157  1  0  0  0
 80 84  1  0  0  0
 81 88  1  0  0  0
 81158  1  0  0  0
 81159  1  0  0  0
 82 83  1  0  0  0
 82 84  1  0  0  0
 82160  1  0  0  0
 82161  1  0  0  0
 83 87  1  0  0  0
 83162  1  0  0  0
 83163  1  0  0  0
 84164  1  0  0  0
 86165  1  0  0  0
 86166  1  0  0  0
 87167  1  0  0  0
 88168  1  0  0  0
M  CHG  1  88   1
M  ISO  4   1 100  68 101  84 101  85 100
M  END
> <chiral flag>
0

> <version>
0

> <s_m_source_file>
/data/baiqing/PycharmProjects/Reinvent-master-3.2/result/LINK_invent/BTK/process_docking_weight1_custom_product_contain_oxygen_bond_distance_aromatic_linkinvent_7_9_3/rearranged_h_0053.sdf

> <i_m_source_file_index>
46

> <r_mmod_Potential_Energy-OPLS-2005>
-166.836166381836

> <r_mmod_Stretch_Energy-OPLS-2005>
40.5177955627441

> <r_mmod_Bend_Energy-OPLS-2005>
104.197654724121

> <r_mmod_Torsional_Energy-OPLS-2005>
197.117904663086

> <r_mmod_Improper_Torsional_Energy-OPLS-2005>
6.05187702178955

> <r_mmod_Van_der_Waal_Energy-OPLS-2005>
177.204742431641

> <r_mmod_Electrostatic_Energy-OPLS-2005>
-304.711730957031

> <r_mmod_Solvation_Energy-OPLS-2005>
-404.315460205078

> <b_mmod_Minimization_Converged-OPLS-2005>
0

> <r_mmod_RMS_Derivative-OPLS-2005>
6.84818553924561

$$$$
46
                    3D
 Structure written by MMmdl.
165174  0  0  1  0            999 V2000
  -30.6041  -14.6796   20.4855 C   0  0  0  0  0  0
  -30.4399  -12.4218   19.4358 C   0  0  0  0  0  0
  -29.5003  -12.4988   18.2121 C   0  0  0  0  0  0
  -28.0267  -12.3318   18.6356 C   0  0  0  0  0  0
  -27.6444  -13.2171   19.8519 C   0  0  2  0  0  0
  -28.6964  -13.1058   20.9762 C   0  0  0  0  0  0
  -25.2525  -13.8159   20.5688 C   0  0  0  0  0  0
  -24.1807  -13.0423   20.9194 C   0  0  0  0  0  0
  -24.6381  -11.6894   20.8739 C   0  0  0  0  0  0
  -23.9060  -10.4284   21.0405 C   0  0  0  0  0  0
  -24.3608   -9.4205   21.9189 C   0  0  0  0  0  0
  -23.6279   -8.2239   22.0767 C   0  0  0  0  0  0
  -22.4270   -8.0274   21.3543 C   0  0  0  0  0  0
  -21.9897   -9.0251   20.4653 C   0  0  0  0  0  0
  -22.7226  -10.2131   20.3061 C   0  0  0  0  0  0
  -21.6849   -6.0728   22.5276 C   0  0  0  0  0  0
  -21.4010   -6.5631   23.8211 C   0  0  0  0  0  0
  -21.3663   -5.6779   24.9168 C   0  0  0  0  0  0
  -21.6049   -4.3045   24.7217 C   0  0  0  0  0  0
  -21.8820   -3.8138   23.4338 C   0  0  0  0  0  0
  -21.9193   -4.6957   22.3395 C   0  0  0  0  0  0
  -22.7832  -13.5226   21.1854 C   0  0  0  0  0  0
  -22.1659   -4.2139   21.0973 F   0  0  0  0  0  0
  -21.5641   -3.4537   25.7737 F   0  0  0  0  0  0
  -29.9953  -13.4567   20.3873 N   0  0  0  0  0  0
  -26.2953  -12.9338   20.3292 N   0  0  0  0  0  0
  -25.9309  -11.6495   20.5752 N   0  0  0  0  0  0
  -22.0468  -12.8227   22.0414 N   0  0  0  0  0  0
  -25.4210  -15.1888   20.4133 N   0  0  0  0  0  0
  -31.8079  -14.8151   20.2478 O   0  0  0  0  0  0
  -21.6634   -6.8869   21.4238 O   0  0  0  0  0  0
  -22.3534  -14.5541   20.6714 O   0  0  0  0  0  0
  -24.6268  -31.8561   23.1968 C   0  0  0  0  0  0
  -25.9102  -32.4747   23.8322 C   0  0  1  0  0  0
  -27.2342  -27.2903   20.1079 C   0  0  0  0  0  0
  -25.5907  -33.8554   24.2231 N   0  0  0  0  0  0
  -23.4246  -30.4772   21.5389 C   0  0  2  0  0  0
  -24.8730  -28.9245   20.1051 C   0  0  0  0  0  0
  -22.7515  -29.4583   22.4910 C   0  0  0  0  0  0
  -18.0300  -28.1395   22.8488 C   0  0  0  0  0  0
  -24.1477  -36.7266   23.2642 C   0  0  0  0  0  0
  -25.9648  -30.7766   21.3714 C   0  0  0  0  0  0
  -26.0387  -29.3999   20.7138 C   0  0  0  0  0  0
  -27.2148  -28.5911   20.7082 C   0  0  0  0  0  0
  -26.0315  -26.8570   19.5080 C   0  0  0  0  0  0
  -24.8721  -27.6608   19.4925 C   0  0  0  0  0  0
  -23.6442  -29.8103   20.1557 C   0  0  0  0  0  0
  -25.4107  -36.3043   24.0317 C   0  0  1  0  0  0
  -20.5901  -28.3713   23.1263 C   0  0  2  0  0  0
  -20.6780  -26.9429   22.5413 C   0  0  0  0  0  0
  -19.5750  -26.6384   21.5230 C   0  0  0  0  0  0
  -18.1930  -26.7930   22.1645 C   0  0  0  0  0  0
  -19.1557  -28.8869   23.2877 C   0  0  0  0  0  0
  -18.9496  -30.1474   23.8895 C   0  0  0  0  0  0
  -17.6501  -30.6612   24.0569 C   0  0  0  0  0  0
  -25.9056  -34.9432   23.5072 C   0  0  0  0  0  0
  -16.5382  -29.9123   23.6327 C   0  0  0  0  0  0
  -16.7289  -28.6539   23.0341 C   0  0  0  0  0  0
  -26.4474  -31.6580   25.0713 C   0  0  0  0  0  0
  -25.3676  -31.3770   26.1425 C   0  0  0  0  0  0
  -27.0297  -30.2998   24.6154 C   0  0  0  0  0  0
  -27.6028  -32.4336   25.7471 C   0  0  0  0  0  0
  -27.5558  -37.1770   24.8468 C   0  0  0  0  0  0
  -21.4227  -29.3048   22.3666 N   0  0  0  0  0  0
  -26.4261  -37.3759   23.9428 N   0  0  0  0  0  0
  -24.6910  -31.0539   22.0920 N   0  0  0  0  0  0
  -23.4246  -28.8111   23.2987 O   0  0  0  0  0  0
  -28.3773  -26.4672   20.1972 O   0  0  0  0  0  0
  -26.5623  -34.8906   22.4646 O   0  0  0  0  0  0
  -23.5427  -32.1398   23.7265 O   0  0  0  0  0  0
  -30.0311  -17.0960   22.5264 C   0  0  0  0  0  0
  -29.6169  -18.3549   20.4875 C   0  0  0  0  0  0
  -29.9505  -18.2856   23.2834 C   0  0  0  0  0  0
  -29.7134  -19.5370   22.6365 C   0  0  0  0  0  0
  -29.5637  -19.6078   21.2160 C   0  0  0  0  0  0
  -29.8658  -17.0819   21.1308 C   0  0  0  0  0  0
  -30.1102  -23.2051   19.9922 C   0  0  0  0  0  0
  -28.8958  -23.8157   19.9605 C   0  0  0  0  0  0
  -30.3969  -21.8092   20.4036 C   0  0  0  0  0  0
  -27.6929  -22.9570   20.3384 C   0  0  0  0  0  0
  -27.9694  -21.4005   20.3010 C   0  0  0  0  0  0
  -29.6312  -20.8125   23.4801 C   0  0  0  0  0  0
  -28.1690  -25.2605   17.9174 C   0  0  0  0  0  0
  -28.7061  -25.2802   19.3582 C   0  0  1  0  0  0
  -30.0905  -18.1728   24.8085 C   0  0  0  0  0  0
  -29.3511  -20.9410   20.5951 N   0  0  0  0  0  0
  -29.7579  -15.7674   20.4921 N   0  0  0  0  0  0
  -31.5629  -21.4315   20.5653 O   0  0  0  0  0  0
  -30.4632  -16.9488   25.1876 F   0  0  0  0  0  0
  -31.0088  -19.0213   25.2708 F   0  0  0  0  0  0
  -28.9248  -18.4292   25.4031 F   0  0  0  0  0  0
  -31.4758  -12.5697   19.1244 H   0  0  0  0  0  0
  -30.4005  -11.4345   19.8976 H   0  0  0  0  0  0
  -29.7684  -11.7343   17.4808 H   0  0  0  0  0  0
  -29.6295  -13.4586   17.7093 H   0  0  0  0  0  0
  -27.8735  -11.2810   18.8825 H   0  0  0  0  0  0
  -27.3665  -12.5441   17.7938 H   0  0  0  0  0  0
  -27.6450  -14.2446   19.4892 H   0  0  0  0  0  0
  -28.7227  -12.0946   21.3825 H   0  0  0  0  0  0
  -28.4489  -13.7640   21.8106 H   0  0  0  0  0  0
  -25.2750   -9.5687   22.4763 H   0  0  0  0  0  0
  -23.9989   -7.4637   22.7495 H   0  0  0  0  0  0
  -21.0829   -8.8762   19.8963 H   0  0  0  0  0  0
  -22.3674  -10.9667   19.6175 H   0  0  0  0  0  0
  -21.1992   -7.6137   23.9703 H   0  0  0  0  0  0
  -21.1490   -6.0515   25.9068 H   0  0  0  0  0  0
  -22.0599   -2.7603   23.2836 H   0  0  0  0  0  0
  -22.4057  -11.9861   22.4767 H   0  0  0  0  0  0
  -21.1112  -13.1304   22.2655 H   0  0  0  0  0  0
  -24.6506  -15.8369   20.5366 H   0  0  0  0  0  0
  -26.2672  -15.6419   20.0940 H   0  0  0  0  0  0
  -26.7164  -32.5410   23.1065 H   0  0  0  0  0  0
  -25.0026  -33.9731   25.0336 H   0  0  0  0  0  0
  -22.7160  -31.2967   21.3920 H   0  0  0  0  0  0
  -23.3745  -35.9600   23.3317 H   0  0  0  0  0  0
  -24.3561  -36.8878   22.2061 H   0  0  0  0  0  0
  -23.7229  -37.6465   23.6666 H   0  0  0  0  0  0
  -26.0922  -31.5351   20.5972 H   0  0  0  0  0  0
  -26.8461  -30.8323   21.9974 H   0  0  0  0  0  0
  -28.1114  -28.9498   21.1939 H   0  0  0  0  0  0
  -25.9452  -25.8687   19.0902 H   0  0  0  0  0  0
  -23.9723  -27.2869   19.0223 H   0  0  0  0  0  0
  -23.7704  -30.5891   19.4038 H   0  0  0  0  0  0
  -22.7614  -29.2465   19.8497 H   0  0  0  0  0  0
  -25.1273  -36.1866   25.0804 H   0  0  0  0  0  0
  -21.0000  -28.3278   24.1387 H   0  0  0  0  0  0
  -20.5674  -26.2332   23.3633 H   0  0  0  0  0  0
  -21.6640  -26.7417   22.1197 H   0  0  0  0  0  0
  -19.6913  -25.6295   21.1271 H   0  0  0  0  0  0
  -19.6669  -27.3196   20.6761 H   0  0  0  0  0  0
  -17.4190  -26.6704   21.4053 H   0  0  0  0  0  0
  -18.0299  -26.0066   22.9033 H   0  0  0  0  0  0
  -19.7986  -30.7300   24.2235 H   0  0  0  0  0  0
  -17.5070  -31.6274   24.5212 H   0  0  0  0  0  0
  -15.5392  -30.3044   23.7645 H   0  0  0  0  0  0
  -15.8678  -28.0886   22.7002 H   0  0  0  0  0  0
  -24.5921  -30.7006   25.7795 H   0  0  0  0  0  0
  -24.8768  -32.2947   26.4683 H   0  0  0  0  0  0
  -25.7964  -30.9115   27.0305 H   0  0  0  0  0  0
  -26.2867  -29.6779   24.1142 H   0  0  0  0  0  0
  -27.3974  -29.7210   25.4637 H   0  0  0  0  0  0
  -27.8728  -30.4280   23.9367 H   0  0  0  0  0  0
  -27.2649  -33.3716   26.1905 H   0  0  0  0  0  0
  -28.3883  -32.6785   25.0302 H   0  0  0  0  0  0
  -28.0627  -31.8555   26.5496 H   0  0  0  0  0  0
  -28.2539  -38.0096   24.7503 H   0  0  0  0  0  0
  -28.1076  -36.2611   24.6273 H   0  0  0  0  0  0
  -27.2292  -37.1382   25.8879 H   0  0  0  0  0  0
  -20.9432  -29.8788   21.6880 H   0  0  0  0  0  0
  -26.0129  -38.2808   24.1509 H   0  0  0  0  0  0
  -30.1677  -16.1562   23.0409 H   0  0  0  0  0  0
  -29.4605  -18.3690   19.4180 H   0  0  0  0  0  0
  -30.9675  -23.7775   19.6732 H   0  0  0  0  0  0
  -26.8553  -23.1899   19.6793 H   0  0  0  0  0  0
  -27.3864  -23.2543   21.3416 H   0  0  0  0  0  0
  -27.7421  -21.0395   19.2962 H   0  0  0  0  0  0
  -27.2725  -20.8905   20.9664 H   0  0  0  0  0  0
  -29.2080  -20.6323   24.4659 H   0  0  0  0  0  0
  -28.9945  -21.5776   23.0372 H   0  0  0  0  0  0
  -30.6274  -21.2361   23.6165 H   0  0  0  0  0  0
  -28.0639  -26.2690   17.5161 H   0  0  0  0  0  0
  -27.2140  -24.7484   17.8309 H   0  0  0  0  0  0
  -28.8629  -24.7308   17.2637 H   0  0  0  0  0  0
  -29.7437  -25.5658   19.1818 H   0  0  0  0  0  0
  -28.8082  -15.4991   20.2904 H   0  0  0  0  0  0
  1 25  1  0  0  0
  1 30  2  0  0  0
  1 87  1  0  0  0
  2  3  1  0  0  0
  2 25  1  0  0  0
  2 92  1  0  0  0
  2 93  1  0  0  0
  3  4  1  0  0  0
  3 94  1  0  0  0
  3 95  1  0  0  0
  4  5  1  0  0  0
  4 96  1  0  0  0
  4 97  1  0  0  0
  5  6  1  0  0  0
  5 26  1  0  0  0
  5 98  1  0  0  0
  6 25  1  0  0  0
  6 99  1  0  0  0
  6100  1  0  0  0
  7  8  2  0  0  0
  7 26  1  0  0  0
  7 29  1  0  0  0
  8  9  1  0  0  0
  8 22  1  0  0  0
  9 10  1  0  0  0
  9 27  2  0  0  0
 10 11  2  0  0  0
 10 15  1  0  0  0
 11 12  1  0  0  0
 11101  1  0  0  0
 12 13  2  0  0  0
 12102  1  0  0  0
 13 14  1  0  0  0
 13 31  1  0  0  0
 14 15  2  0  0  0
 14103  1  0  0  0
 15104  1  0  0  0
 16 17  2  0  0  0
 16 21  1  0  0  0
 16 31  1  0  0  0
 17 18  1  0  0  0
 17105  1  0  0  0
 18 19  2  0  0  0
 18106  1  0  0  0
 19 20  1  0  0  0
 19 24  1  0  0  0
 20 21  2  0  0  0
 20107  1  0  0  0
 21 23  1  0  0  0
 22 28  1  0  0  0
 22 32  2  0  0  0
 26 27  1  0  0  0
 28108  1  0  0  0
 28109  1  0  0  0
 29110  1  0  0  0
 29111  1  0  0  0
 33 34  1  0  0  0
 33 66  1  0  0  0
 33 70  2  0  0  0
 34 36  1  0  0  0
 34 59  1  0  0  0
 34112  1  0  0  0
 35 44  2  0  0  0
 35 45  1  0  0  0
 35 68  1  0  0  0
 36 56  1  0  0  0
 36113  1  0  0  0
 37 39  1  0  0  0
 37 47  1  0  0  0
 37 66  1  0  0  0
 37114  1  0  0  0
 38 43  2  0  0  0
 38 46  1  0  0  0
 38 47  1  0  0  0
 39 64  1  0  0  0
 39 67  2  0  0  0
 40 52  1  0  0  0
 40 53  2  0  0  0
 40 58  1  0  0  0
 41115  1  0  0  0
 41116  1  0  0  0
 41117  1  0  0  0
 41 48  1  0  0  0
 42 43  1  0  0  0
 42 66  1  0  0  0
 42118  1  0  0  0
 42119  1  0  0  0
 43 44  1  0  0  0
 44120  1  0  0  0
 45 46  2  0  0  0
 45121  1  0  0  0
 46122  1  0  0  0
 47123  1  0  0  0
 47124  1  0  0  0
 48 56  1  0  0  0
 48 65  1  0  0  0
 48125  1  0  0  0
 49 50  1  0  0  0
 49 53  1  0  0  0
 49 64  1  0  0  0
 49126  1  0  0  0
 50 51  1  0  0  0
 50127  1  0  0  0
 50128  1  0  0  0
 51 52  1  0  0  0
 51129  1  0  0  0
 51130  1  0  0  0
 52131  1  0  0  0
 52132  1  0  0  0
 53 54  1  0  0  0
 54 55  2  0  0  0
 54133  1  0  0  0
 55 57  1  0  0  0
 55134  1  0  0  0
 56 69  2  0  0  0
 57 58  2  0  0  0
 57135  1  0  0  0
 58136  1  0  0  0
 59 60  1  0  0  0
 59 61  1  0  0  0
 59 62  1  0  0  0
 60137  1  0  0  0
 60138  1  0  0  0
 60139  1  0  0  0
 61140  1  0  0  0
 61141  1  0  0  0
 61142  1  0  0  0
 62143  1  0  0  0
 62144  1  0  0  0
 62145  1  0  0  0
 63 65  1  0  0  0
 63146  1  0  0  0
 63147  1  0  0  0
 63148  1  0  0  0
 64149  1  0  0  0
 65150  1  0  0  0
 68 84  1  0  0  0
 71 73  2  0  0  0
 71 76  1  0  0  0
 71151  1  0  0  0
 72 75  1  0  0  0
 72 76  2  0  0  0
 72152  1  0  0  0
 73 74  1  0  0  0
 73 85  1  0  0  0
 74 75  2  0  0  0
 74 82  1  0  0  0
 75 86  1  0  0  0
 76 87  1  0  0  0
 77 78  2  0  0  0
 77 79  1  0  0  0
 77153  1  0  0  0
 78 80  1  0  0  0
 78 84  1  0  0  0
 79 86  1  0  0  0
 79 88  2  0  0  0
 80 81  1  0  0  0
 80154  1  0  0  0
 80155  1  0  0  0
 81 86  1  0  0  0
 81156  1  0  0  0
 81157  1  0  0  0
 82158  1  0  0  0
 82159  1  0  0  0
 82160  1  0  0  0
 83161  1  0  0  0
 83162  1  0  0  0
 83163  1  0  0  0
 83 84  1  0  0  0
 84164  1  0  0  0
 85 89  1  0  0  0
 85 90  1  0  0  0
 85 91  1  0  0  0
 87165  1  0  0  0
M  ISO  4   1 100  68 101  84 101  87 100
M  END
> <chiral flag>
0

> <version>
0

> <s_m_source_file>
/data/baiqing/PycharmProjects/Reinvent-master-3.2/result/LINK_invent/BTK/process_docking_weight1_custom_product_contain_oxygen_bond_distance_aromatic_linkinvent_7_9_3/rearranged_h_0053.sdf

> <i_m_source_file_index>
47

> <r_mmod_Potential_Energy-OPLS-2005>
304.651245117188

> <r_mmod_Stretch_Energy-OPLS-2005>
103.3486328125

> <r_mmod_Bend_Energy-OPLS-2005>
199.128982543945

> <r_mmod_Torsional_Energy-OPLS-2005>
321.772247314453

> <r_mmod_Improper_Torsional_Energy-OPLS-2005>
12.1925458908081

> <r_mmod_Van_der_Waal_Energy-OPLS-2005>
155.834045410156

> <r_mmod_Electrostatic_Energy-OPLS-2005>
-333.519653320312

> <r_mmod_Solvation_Energy-OPLS-2005>
-219.42887878418

> <b_mmod_Minimization_Converged-OPLS-2005>
0

> <r_mmod_RMS_Derivative-OPLS-2005>
2.89250874519348

$$$$
47
                    3D
 Structure written by MMmdl.
165173  0  0  1  0            999 V2000
  -30.6730  -14.5572   20.5022 C   0  0  0  0  0  0
  -30.4303  -12.3448   19.4458 C   0  0  0  0  0  0
  -29.5118  -12.4947   18.2179 C   0  0  0  0  0  0
  -28.0308  -12.3467   18.6267 C   0  0  0  0  0  0
  -27.6558  -13.2171   19.8582 C   0  0  2  0  0  0
  -28.6965  -13.0627   20.9864 C   0  0  0  0  0  0
  -25.2612  -13.8197   20.5725 C   0  0  0  0  0  0
  -24.1855  -13.0459   20.9168 C   0  0  0  0  0  0
  -24.6415  -11.6935   20.8696 C   0  0  0  0  0  0
  -23.9063  -10.4342   21.0388 C   0  0  0  0  0  0
  -24.3636   -9.4281   21.9160 C   0  0  0  0  0  0
  -23.6315   -8.2310   22.0734 C   0  0  0  0  0  0
  -22.4291   -8.0323   21.3551 C   0  0  0  0  0  0
  -21.9930   -9.0289   20.4640 C   0  0  0  0  0  0
  -22.7242  -10.2179   20.3026 C   0  0  0  0  0  0
  -21.6883   -6.0747   22.5290 C   0  0  0  0  0  0
  -21.4032   -6.5640   23.8224 C   0  0  0  0  0  0
  -21.3662   -5.6791   24.9183 C   0  0  0  0  0  0
  -21.6043   -4.3052   24.7234 C   0  0  0  0  0  0
  -21.8826   -3.8149   23.4353 C   0  0  0  0  0  0
  -21.9214   -4.6973   22.3411 C   0  0  0  0  0  0
  -22.7901  -13.5282   21.1847 C   0  0  0  0  0  0
  -22.1670   -4.2159   21.0985 F   0  0  0  0  0  0
  -21.5632   -3.4524   25.7741 F   0  0  0  0  0  0
  -30.0161  -13.3684   20.4193 N   0  0  0  0  0  0
  -26.3017  -12.9360   20.3282 N   0  0  0  0  0  0
  -25.9335  -11.6514   20.5672 N   0  0  0  0  0  0
  -22.0511  -12.8227   22.0351 N   0  0  0  0  0  0
  -25.4352  -15.1912   20.4274 N   0  0  0  0  0  0
  -31.8431  -14.6812   20.1301 O   0  0  0  0  0  0
  -21.6666   -6.8907   21.4255 O   0  0  0  0  0  0
  -22.3614  -14.5612   20.6747 O   0  0  0  0  0  0
  -24.6169  -31.8648   23.2084 C   0  0  0  0  0  0
  -25.9047  -32.4829   23.8388 C   0  0  1  0  0  0
  -27.2394  -27.3950   20.0826 C   0  0  0  0  0  0
  -25.5880  -33.8624   24.2321 N   0  0  0  0  0  0
  -23.4084  -30.4873   21.5517 C   0  0  2  0  0  0
  -24.8558  -28.9535   20.1022 C   0  0  0  0  0  0
  -22.7419  -29.4635   22.4982 C   0  0  0  0  0  0
  -18.0256  -28.1383   22.8482 C   0  0  0  0  0  0
  -24.1474  -36.7320   23.2640 C   0  0  0  0  0  0
  -25.9411  -30.8135   21.3689 C   0  0  0  0  0  0
  -26.0157  -29.4465   20.7117 C   0  0  0  0  0  0
  -27.2030  -28.6711   20.7039 C   0  0  0  0  0  0
  -26.0583  -26.9286   19.4615 C   0  0  0  0  0  0
  -24.8752  -27.6964   19.4738 C   0  0  0  0  0  0
  -23.6166  -29.8238   20.1631 C   0  0  0  0  0  0
  -25.4106  -36.3127   24.0332 C   0  0  1  0  0  0
  -20.5858  -28.3669   23.1326 C   0  0  2  0  0  0
  -20.6729  -26.9378   22.5440 C   0  0  0  0  0  0
  -19.5704  -26.6371   21.5242 C   0  0  0  0  0  0
  -18.1868  -26.7941   22.1593 C   0  0  0  0  0  0
  -19.1525  -28.8842   23.2881 C   0  0  0  0  0  0
  -18.9443  -30.1429   23.8931 C   0  0  0  0  0  0
  -17.6456  -30.6586   24.0596 C   0  0  0  0  0  0
  -25.9037  -34.9492   23.5141 C   0  0  0  0  0  0
  -16.5351  -29.9116   23.6330 C   0  0  0  0  0  0
  -16.7260  -28.6519   23.0377 C   0  0  0  0  0  0
  -26.4448  -31.6611   25.0743 C   0  0  0  0  0  0
  -25.3690  -31.3702   26.1477 C   0  0  0  0  0  0
  -27.0289  -30.3056   24.6130 C   0  0  0  0  0  0
  -27.6019  -32.4339   25.7488 C   0  0  0  0  0  0
  -27.5584  -37.1822   24.8467 C   0  0  0  0  0  0
  -21.4149  -29.3019   22.3706 N   0  0  0  0  0  0
  -26.4302  -37.3807   23.9405 N   0  0  0  0  0  0
  -24.6752  -31.0689   22.1019 N   0  0  0  0  0  0
  -23.4189  -28.8185   23.3052 O   0  0  0  0  0  0
  -28.4059  -26.6398   20.1455 O   0  0  0  0  0  0
  -26.5609  -34.8938   22.4707 O   0  0  0  0  0  0
  -23.5351  -32.1419   23.7460 O   0  0  0  0  0  0
  -28.0240  -20.6357   21.3141 C   0  0  0  0  0  0
  -28.6068  -18.3683   21.9863 C   0  0  0  0  0  0
  -28.8432  -20.5390   20.1771 C   0  0  0  0  0  0
  -29.5268  -18.2517   20.9211 C   0  0  0  0  0  0
  -29.6027  -19.3366   19.9769 C   0  0  0  0  0  0
  -27.8419  -19.5411   22.1847 C   0  0  0  0  0  0
  -23.7723  -20.5840   22.1935 C   0  0  0  0  0  0
  -25.0783  -20.7644   22.4584 C   0  0  0  0  0  0
  -25.7285  -19.9961   23.5162 C   0  0  0  0  0  0
  -28.2580  -24.1204   19.7319 C   0  0  0  0  0  0
  -30.4952  -19.2510   18.7466 C   0  0  0  0  0  0
  -28.7650  -21.7064   19.1546 C   0  0  0  0  0  0
  -30.4874  -17.0256   20.9441 C   0  0  0  0  0  0
  -28.6759  -25.5427   19.2340 C   0  0  0  0  0  0
  -27.0065  -19.5993   23.3382 N   0  0  0  0  0  0
  -29.1260  -23.0912   19.5556 N   0  0  0  0  0  0
  -29.9383  -15.6496   20.8368 N   0  0  0  0  0  0
  -25.1453  -19.6694   24.5524 O   0  0  0  0  0  0
  -27.1258  -23.9267   20.1731 O   0  0  0  0  0  0
  -31.4757  -12.4465   19.1515 H   0  0  0  0  0  0
  -30.3435  -11.3518   19.8864 H   0  0  0  0  0  0
  -29.7770  -11.7586   17.4584 H   0  0  0  0  0  0
  -29.6705  -13.4738   17.7633 H   0  0  0  0  0  0
  -27.8528  -11.2940   18.8498 H   0  0  0  0  0  0
  -27.3836  -12.5913   17.7852 H   0  0  0  0  0  0
  -27.6809  -14.2538   19.5200 H   0  0  0  0  0  0
  -28.6916  -12.0430   21.3702 H   0  0  0  0  0  0
  -28.4566  -13.7057   21.8358 H   0  0  0  0  0  0
  -25.2771   -9.5781   22.4748 H   0  0  0  0  0  0
  -24.0046   -7.4710   22.7434 H   0  0  0  0  0  0
  -21.0871   -8.8802   19.8937 H   0  0  0  0  0  0
  -22.3675  -10.9724   19.6147 H   0  0  0  0  0  0
  -21.2010   -7.6145   23.9728 H   0  0  0  0  0  0
  -21.1467   -6.0515   25.9091 H   0  0  0  0  0  0
  -22.0597   -2.7607   23.2848 H   0  0  0  0  0  0
  -22.4093  -11.9870   22.4708 H   0  0  0  0  0  0
  -21.1166  -13.1302   22.2580 H   0  0  0  0  0  0
  -24.6764  -15.8461   20.5787 H   0  0  0  0  0  0
  -26.2972  -15.6387   20.1388 H   0  0  0  0  0  0
  -26.7133  -32.5503   23.1153 H   0  0  0  0  0  0
  -25.0029  -33.9771   25.0472 H   0  0  0  0  0  0
  -22.7002  -31.3072   21.4187 H   0  0  0  0  0  0
  -23.3752  -35.9642   23.3323 H   0  0  0  0  0  0
  -24.3562  -36.8920   22.2054 H   0  0  0  0  0  0
  -23.7207  -37.6521   23.6648 H   0  0  0  0  0  0
  -26.0598  -31.5799   20.6011 H   0  0  0  0  0  0
  -26.8276  -30.8676   21.9889 H   0  0  0  0  0  0
  -28.0954  -29.0446   21.1852 H   0  0  0  0  0  0
  -26.0264  -25.9618   18.9805 H   0  0  0  0  0  0
  -23.9853  -27.3161   18.9917 H   0  0  0  0  0  0
  -23.7193  -30.6075   19.4113 H   0  0  0  0  0  0
  -22.7376  -29.2470   19.8675 H   0  0  0  0  0  0
  -25.1284  -36.2018   25.0825 H   0  0  0  0  0  0
  -20.9943  -28.3252   24.1439 H   0  0  0  0  0  0
  -20.5648  -26.2260   23.3652 H   0  0  0  0  0  0
  -21.6580  -26.7396   22.1217 H   0  0  0  0  0  0
  -19.6789  -25.6279   21.1248 H   0  0  0  0  0  0
  -19.6634  -27.3226   20.6792 H   0  0  0  0  0  0
  -17.4212  -26.6781   21.3883 H   0  0  0  0  0  0
  -18.0115  -26.0036   22.8935 H   0  0  0  0  0  0
  -19.7912  -30.7201   24.2376 H   0  0  0  0  0  0
  -17.5016  -31.6251   24.5242 H   0  0  0  0  0  0
  -15.5367  -30.3068   23.7595 H   0  0  0  0  0  0
  -15.8639  -28.0859   22.7150 H   0  0  0  0  0  0
  -24.5874  -30.7044   25.7792 H   0  0  0  0  0  0
  -24.8853  -32.2846   26.4928 H   0  0  0  0  0  0
  -25.8011  -30.8862   27.0239 H   0  0  0  0  0  0
  -26.2848  -29.6831   24.1152 H   0  0  0  0  0  0
  -27.4034  -29.7282   25.4589 H   0  0  0  0  0  0
  -27.8683  -30.4399   23.9305 H   0  0  0  0  0  0
  -27.2651  -33.3640   26.2068 H   0  0  0  0  0  0
  -28.3796  -32.6896   25.0283 H   0  0  0  0  0  0
  -28.0722  -31.8468   26.5386 H   0  0  0  0  0  0
  -28.2624  -38.0101   24.7519 H   0  0  0  0  0  0
  -28.1055  -36.2637   24.6299 H   0  0  0  0  0  0
  -27.2294  -37.1475   25.8868 H   0  0  0  0  0  0
  -20.9349  -29.8698   21.6847 H   0  0  0  0  0  0
  -26.0206  -38.2887   24.1419 H   0  0  0  0  0  0
  -27.5377  -21.5805   21.4805 H   0  0  0  0  0  0
  -28.5255  -17.5503   22.6904 H   0  0  0  0  0  0
  -23.2752  -21.1623   21.4247 H   0  0  0  0  0  0
  -23.1794  -19.8578   22.7315 H   0  0  0  0  0  0
  -25.5948  -21.5151   21.8869 H   0  0  0  0  0  0
  -29.9162  -19.4296   17.8432 H   0  0  0  0  0  0
  -31.2846  -20.0047   18.7958 H   0  0  0  0  0  0
  -30.9600  -18.2826   18.5988 H   0  0  0  0  0  0
  -27.7449  -21.7054   18.7661 H   0  0  0  0  0  0
  -29.3774  -21.4948   18.2840 H   0  0  0  0  0  0
  -31.3323  -17.1572   20.2727 H   0  0  0  0  0  0
  -30.9613  -17.0616   21.9254 H   0  0  0  0  0  0
  -28.2398  -25.7330   18.2517 H   0  0  0  0  0  0
  -29.7540  -25.5364   19.0763 H   0  0  0  0  0  0
  -27.3540  -19.0706   24.1245 H   0  0  0  0  0  0
  -30.0636  -23.3647   19.2921 H   0  0  0  0  0  0
  -28.9641  -15.5168   21.0539 H   0  0  0  0  0  0
  1 25  1  0  0  0
  1 30  2  0  0  0
  1 87  1  0  0  0
  2  3  1  0  0  0
  2 25  1  0  0  0
  2 90  1  0  0  0
  2 91  1  0  0  0
  3  4  1  0  0  0
  3 92  1  0  0  0
  3 93  1  0  0  0
  4  5  1  0  0  0
  4 94  1  0  0  0
  4 95  1  0  0  0
  5  6  1  0  0  0
  5 26  1  0  0  0
  5 96  1  0  0  0
  6 25  1  0  0  0
  6 97  1  0  0  0
  6 98  1  0  0  0
  7  8  2  0  0  0
  7 26  1  0  0  0
  7 29  1  0  0  0
  8  9  1  0  0  0
  8 22  1  0  0  0
  9 10  1  0  0  0
  9 27  2  0  0  0
 10 11  2  0  0  0
 10 15  1  0  0  0
 11 12  1  0  0  0
 11 99  1  0  0  0
 12 13  2  0  0  0
 12100  1  0  0  0
 13 14  1  0  0  0
 13 31  1  0  0  0
 14 15  2  0  0  0
 14101  1  0  0  0
 15102  1  0  0  0
 16 17  2  0  0  0
 16 21  1  0  0  0
 16 31  1  0  0  0
 17 18  1  0  0  0
 17103  1  0  0  0
 18 19  2  0  0  0
 18104  1  0  0  0
 19 20  1  0  0  0
 19 24  1  0  0  0
 20 21  2  0  0  0
 20105  1  0  0  0
 21 23  1  0  0  0
 22 28  1  0  0  0
 22 32  2  0  0  0
 26 27  1  0  0  0
 28106  1  0  0  0
 28107  1  0  0  0
 29108  1  0  0  0
 29109  1  0  0  0
 33 34  1  0  0  0
 33 66  1  0  0  0
 33 70  2  0  0  0
 34 36  1  0  0  0
 34 59  1  0  0  0
 34110  1  0  0  0
 35 44  2  0  0  0
 35 45  1  0  0  0
 35 68  1  0  0  0
 36 56  1  0  0  0
 36111  1  0  0  0
 37 39  1  0  0  0
 37 47  1  0  0  0
 37 66  1  0  0  0
 37112  1  0  0  0
 38 43  2  0  0  0
 38 46  1  0  0  0
 38 47  1  0  0  0
 39 64  1  0  0  0
 39 67  2  0  0  0
 40 52  1  0  0  0
 40 53  2  0  0  0
 40 58  1  0  0  0
 41113  1  0  0  0
 41114  1  0  0  0
 41115  1  0  0  0
 41 48  1  0  0  0
 42 43  1  0  0  0
 42 66  1  0  0  0
 42116  1  0  0  0
 42117  1  0  0  0
 43 44  1  0  0  0
 44118  1  0  0  0
 45 46  2  0  0  0
 45119  1  0  0  0
 46120  1  0  0  0
 47121  1  0  0  0
 47122  1  0  0  0
 48 56  1  0  0  0
 48 65  1  0  0  0
 48123  1  0  0  0
 49 50  1  0  0  0
 49 53  1  0  0  0
 49 64  1  0  0  0
 49124  1  0  0  0
 50 51  1  0  0  0
 50125  1  0  0  0
 50126  1  0  0  0
 51 52  1  0  0  0
 51127  1  0  0  0
 51128  1  0  0  0
 52129  1  0  0  0
 52130  1  0  0  0
 53 54  1  0  0  0
 54 55  2  0  0  0
 54131  1  0  0  0
 55 57  1  0  0  0
 55132  1  0  0  0
 56 69  2  0  0  0
 57 58  2  0  0  0
 57133  1  0  0  0
 58134  1  0  0  0
 59 60  1  0  0  0
 59 61  1  0  0  0
 59 62  1  0  0  0
 60135  1  0  0  0
 60136  1  0  0  0
 60137  1  0  0  0
 61138  1  0  0  0
 61139  1  0  0  0
 61140  1  0  0  0
 62141  1  0  0  0
 62142  1  0  0  0
 62143  1  0  0  0
 63 65  1  0  0  0
 63144  1  0  0  0
 63145  1  0  0  0
 63146  1  0  0  0
 64147  1  0  0  0
 65148  1  0  0  0
 68 84  1  0  0  0
 71 73  2  0  0  0
 71 76  1  0  0  0
 71149  1  0  0  0
 72 74  1  0  0  0
 72 76  2  0  0  0
 72150  1  0  0  0
 73 75  1  0  0  0
 73 82  1  0  0  0
 74 75  2  0  0  0
 74 83  1  0  0  0
 75 81  1  0  0  0
 76 85  1  0  0  0
 77 78  2  0  0  0
 77151  1  0  0  0
 77152  1  0  0  0
 78 79  1  0  0  0
 78153  1  0  0  0
 79 85  1  0  0  0
 79 88  2  0  0  0
 80 84  1  0  0  0
 80 86  1  0  0  0
 80 89  2  0  0  0
 81154  1  0  0  0
 81155  1  0  0  0
 81156  1  0  0  0
 82 86  1  0  0  0
 82157  1  0  0  0
 82158  1  0  0  0
 83 87  1  0  0  0
 83159  1  0  0  0
 83160  1  0  0  0
 84161  1  0  0  0
 84162  1  0  0  0
 85163  1  0  0  0
 86164  1  0  0  0
 87165  1  0  0  0
M  ISO  4   1 100  68 101  84 101  87 100
M  END
> <chiral flag>
0

> <version>
0

> <s_m_source_file>
/data/baiqing/PycharmProjects/Reinvent-master-3.2/result/LINK_invent/BTK/process_docking_weight1_custom_product_contain_oxygen_bond_distance_aromatic_linkinvent_7_9_3/rearranged_h_0053.sdf

> <i_m_source_file_index>
48

> <r_mmod_Potential_Energy-OPLS-2005>
-120.352035522461

> <r_mmod_Stretch_Energy-OPLS-2005>
56.7079010009766

> <r_mmod_Bend_Energy-OPLS-2005>
155.477325439453

> <r_mmod_Torsional_Energy-OPLS-2005>
260.599639892578

> <r_mmod_Improper_Torsional_Energy-OPLS-2005>
8.37780570983887

> <r_mmod_Van_der_Waal_Energy-OPLS-2005>
155.242691040039

> <r_mmod_Electrostatic_Energy-OPLS-2005>
-522.858520507812

> <r_mmod_Solvation_Energy-OPLS-2005>
-260.546905517578

> <b_mmod_Minimization_Converged-OPLS-2005>
0

> <r_mmod_RMS_Derivative-OPLS-2005>
4.57788228988647

$$$$
48
                    3D
 Structure written by MMmdl.
158166  0  0  1  0            999 V2000
  -30.7073  -14.5013   20.4653 C   0  0  0  0  0  0
  -30.4201  -12.2946   19.4475 C   0  0  0  0  0  0
  -29.5020  -12.4519   18.2172 C   0  0  0  0  0  0
  -28.0207  -12.3364   18.6266 C   0  0  0  0  0  0
  -27.6575  -13.2131   19.8557 C   0  0  2  0  0  0
  -28.6992  -13.0571   20.9880 C   0  0  0  0  0  0
  -25.2567  -13.8181   20.5689 C   0  0  0  0  0  0
  -24.1816  -13.0461   20.9187 C   0  0  0  0  0  0
  -24.6369  -11.6928   20.8732 C   0  0  0  0  0  0
  -23.9034  -10.4306   21.0387 C   0  0  0  0  0  0
  -24.3595   -9.4212   21.9148 C   0  0  0  0  0  0
  -23.6275   -8.2237   22.0734 C   0  0  0  0  0  0
  -22.4244   -8.0259   21.3536 C   0  0  0  0  0  0
  -21.9869   -9.0239   20.4643 C   0  0  0  0  0  0
  -22.7205  -10.2122   20.3043 C   0  0  0  0  0  0
  -21.6831   -6.0714   22.5259 C   0  0  0  0  0  0
  -21.4021   -6.5618   23.8197 C   0  0  0  0  0  0
  -21.3669   -5.6774   24.9165 C   0  0  0  0  0  0
  -21.6032   -4.3042   24.7204 C   0  0  0  0  0  0
  -21.8823   -3.8134   23.4330 C   0  0  0  0  0  0
  -21.9202   -4.6956   22.3391 C   0  0  0  0  0  0
  -22.7835  -13.5258   21.1844 C   0  0  0  0  0  0
  -22.1663   -4.2162   21.0953 F   0  0  0  0  0  0
  -21.5634   -3.4521   25.7729 F   0  0  0  0  0  0
  -30.0313  -13.3239   20.4218 N   0  0  0  0  0  0
  -26.2994  -12.9379   20.3274 N   0  0  0  0  0  0
  -25.9303  -11.6538   20.5765 N   0  0  0  0  0  0
  -22.0462  -12.8268   22.0391 N   0  0  0  0  0  0
  -25.4272  -15.1880   20.4104 N   0  0  0  0  0  0
  -31.9012  -14.5784   20.1664 O   0  0  0  0  0  0
  -21.6632   -6.8843   21.4207 O   0  0  0  0  0  0
  -22.3534  -14.5563   20.6691 O   0  0  0  0  0  0
  -24.6144  -31.8684   23.2085 C   0  0  0  0  0  0
  -25.9046  -32.4826   23.8362 C   0  0  1  0  0  0
  -27.2283  -27.4367   20.0930 C   0  0  0  0  0  0
  -25.5913  -33.8617   24.2324 N   0  0  0  0  0  0
  -23.4006  -30.4915   21.5492 C   0  0  2  0  0  0
  -24.8440  -28.9530   20.1183 C   0  0  0  0  0  0
  -22.7387  -29.4677   22.4996 C   0  0  0  0  0  0
  -18.0265  -28.1380   22.8479 C   0  0  0  0  0  0
  -24.1483  -36.7302   23.2632 C   0  0  0  0  0  0
  -25.9288  -30.8328   21.3601 C   0  0  0  0  0  0
  -26.0050  -29.4659   20.7101 C   0  0  0  0  0  0
  -27.2021  -28.7162   20.6904 C   0  0  0  0  0  0
  -26.0524  -26.9316   19.4990 C   0  0  0  0  0  0
  -24.8631  -27.6849   19.5078 C   0  0  0  0  0  0
  -23.6083  -29.8220   20.1644 C   0  0  0  0  0  0
  -25.4108  -36.3101   24.0334 C   0  0  1  0  0  0
  -20.5850  -28.3676   23.1321 C   0  0  2  0  0  0
  -20.6783  -26.9421   22.5427 C   0  0  0  0  0  0
  -19.5766  -26.6401   21.5212 C   0  0  0  0  0  0
  -18.1928  -26.7935   22.1597 C   0  0  0  0  0  0
  -19.1519  -28.8837   23.2899 C   0  0  0  0  0  0
  -18.9450  -30.1432   23.8939 C   0  0  0  0  0  0
  -17.6461  -30.6584   24.0573 C   0  0  0  0  0  0
  -25.9039  -34.9479   23.5124 C   0  0  0  0  0  0
  -16.5352  -29.9109   23.6325 C   0  0  0  0  0  0
  -16.7250  -28.6520   23.0350 C   0  0  0  0  0  0
  -26.4489  -31.6583   25.0672 C   0  0  0  0  0  0
  -25.3777  -31.3701   26.1440 C   0  0  0  0  0  0
  -27.0303  -30.3018   24.6024 C   0  0  0  0  0  0
  -27.6063  -32.4301   25.7435 C   0  0  0  0  0  0
  -27.5590  -37.1794   24.8466 C   0  0  0  0  0  0
  -21.4121  -29.3031   22.3717 N   0  0  0  0  0  0
  -26.4289  -37.3797   23.9409 N   0  0  0  0  0  0
  -24.6661  -31.0777   22.0988 N   0  0  0  0  0  0
  -23.4158  -28.8223   23.3048 O   0  0  0  0  0  0
  -28.4037  -26.7221   20.0583 O   0  0  0  0  0  0
  -26.5591  -34.8941   22.4679 O   0  0  0  0  0  0
  -23.5338  -32.1441   23.7490 O   0  0  0  0  0  0
  -31.3410  -18.5831   18.7225 C   0  0  0  0  0  0
  -30.3786  -19.5603   19.0320 C   0  0  0  0  0  0
  -31.2237  -17.2817   19.2453 C   0  0  0  0  0  0
  -29.1803  -17.9270   20.3972 C   0  0  0  0  0  0
  -29.2761  -19.2328   19.8467 C   0  0  0  0  0  0
  -30.1492  -16.9303   20.1094 C   0  0  0  0  0  0
  -27.6252  -23.1149   19.6374 C   0  0  0  0  0  0
  -28.2057  -24.3227   19.4665 C   0  0  0  0  0  0
  -27.5274  -22.1745   18.5254 C   0  0  0  0  0  0
  -27.2859  -19.8439   17.8292 C   0  0  0  0  0  0
  -28.1863  -20.2856   20.0903 C   0  0  0  0  0  0
  -28.3609  -25.3778   20.5520 C   0  0  0  0  0  0
  -29.9498  -15.6047   20.6461 N   0  0  0  0  0  0
  -27.6200  -20.8539   18.8436 N   0  0  0  0  0  0
  -27.3098  -22.5449   17.3658 O   0  0  0  0  0  0
  -31.4706  -12.3667   19.1551 H   0  0  0  0  0  0
  -30.3014  -11.3063   19.8896 H   0  0  0  0  0  0
  -29.7384  -11.6805   17.4807 H   0  0  0  0  0  0
  -29.6836  -13.4078   17.7242 H   0  0  0  0  0  0
  -27.8304  -11.2891   18.8564 H   0  0  0  0  0  0
  -27.3783  -12.5838   17.7819 H   0  0  0  0  0  0
  -27.6910  -14.2481   19.5129 H   0  0  0  0  0  0
  -28.6696  -12.0468   21.4006 H   0  0  0  0  0  0
  -28.4803  -13.7335   21.8174 H   0  0  0  0  0  0
  -25.2746   -9.5715   22.4714 H   0  0  0  0  0  0
  -24.0017   -7.4624   22.7445 H   0  0  0  0  0  0
  -21.0808   -8.8758   19.8945 H   0  0  0  0  0  0
  -22.3657  -10.9643   19.6178 H   0  0  0  0  0  0
  -21.2015   -7.6141   23.9696 H   0  0  0  0  0  0
  -21.1486   -6.0504   25.9051 H   0  0  0  0  0  0
  -22.0605   -2.7586   23.2815 H   0  0  0  0  0  0
  -22.4120  -12.0025   22.4915 H   0  0  0  0  0  0
  -21.1059  -13.1254   22.2533 H   0  0  0  0  0  0
  -24.6626  -15.8443   20.5331 H   0  0  0  0  0  0
  -26.2649  -15.6137   20.0380 H   0  0  0  0  0  0
  -26.7113  -32.5554   23.1120 H   0  0  0  0  0  0
  -25.0118  -33.9765   25.0497 H   0  0  0  0  0  0
  -22.6899  -31.3089   21.4103 H   0  0  0  0  0  0
  -23.3769  -35.9618   23.3297 H   0  0  0  0  0  0
  -24.3584  -36.8912   22.2053 H   0  0  0  0  0  0
  -23.7230  -37.6492   23.6654 H   0  0  0  0  0  0
  -26.0402  -31.5970   20.5894 H   0  0  0  0  0  0
  -26.8194  -30.8909   21.9745 H   0  0  0  0  0  0
  -28.1027  -29.1090   21.1398 H   0  0  0  0  0  0
  -26.0588  -25.9658   19.0136 H   0  0  0  0  0  0
  -23.9713  -27.2870   19.0419 H   0  0  0  0  0  0
  -23.7238  -30.5983   19.4076 H   0  0  0  0  0  0
  -22.7305  -29.2456   19.8635 H   0  0  0  0  0  0
  -25.1288  -36.1967   25.0831 H   0  0  0  0  0  0
  -20.9933  -28.3282   24.1436 H   0  0  0  0  0  0
  -20.5698  -26.2289   23.3617 H   0  0  0  0  0  0
  -21.6661  -26.7490   22.1224 H   0  0  0  0  0  0
  -19.6958  -25.6319   21.1227 H   0  0  0  0  0  0
  -19.6716  -27.3227   20.6756 H   0  0  0  0  0  0
  -17.4209  -26.6669   21.3985 H   0  0  0  0  0  0
  -18.0319  -26.0063   22.8977 H   0  0  0  0  0  0
  -19.7941  -30.7216   24.2347 H   0  0  0  0  0  0
  -17.5033  -31.6266   24.5184 H   0  0  0  0  0  0
  -15.5358  -30.3033   23.7623 H   0  0  0  0  0  0
  -15.8639  -28.0842   22.7074 H   0  0  0  0  0  0
  -24.5949  -30.7034   25.7805 H   0  0  0  0  0  0
  -24.8980  -32.2872   26.4866 H   0  0  0  0  0  0
  -25.8158  -30.8898   27.0196 H   0  0  0  0  0  0
  -26.2806  -29.6760   24.1176 H   0  0  0  0  0  0
  -27.4186  -29.7262   25.4432 H   0  0  0  0  0  0
  -27.8596  -30.4314   23.9072 H   0  0  0  0  0  0
  -27.2667  -33.3584   26.2039 H   0  0  0  0  0  0
  -28.3857  -32.6892   25.0257 H   0  0  0  0  0  0
  -28.0757  -31.8423   26.5327 H   0  0  0  0  0  0
  -28.2609  -38.0083   24.7523 H   0  0  0  0  0  0
  -28.1070  -36.2628   24.6269 H   0  0  0  0  0  0
  -27.2311  -37.1435   25.8861 H   0  0  0  0  0  0
  -20.9292  -29.8702   21.6893 H   0  0  0  0  0  0
  -26.0189  -38.2863   24.1435 H   0  0  0  0  0  0
  -32.1612  -18.8283   18.0623 H   0  0  0  0  0  0
  -30.4735  -20.5492   18.6076 H   0  0  0  0  0  0
  -31.9726  -16.5707   18.9349 H   0  0  0  0  0  0
  -28.3337  -17.6864   21.0217 H   0  0  0  0  0  0
  -27.2139  -22.8506   20.6026 H   0  0  0  0  0  0
  -28.6228  -24.5819   18.5040 H   0  0  0  0  0  0
  -28.1553  -19.6403   17.2017 H   0  0  0  0  0  0
  -26.4635  -20.1488   17.1783 H   0  0  0  0  0  0
  -26.9820  -18.9047   18.2909 H   0  0  0  0  0  0
  -28.6323  -21.0516   20.7240 H   0  0  0  0  0  0
  -27.3721  -19.8556   20.6724 H   0  0  0  0  0  0
  -29.3202  -25.1941   21.0362 H   0  0  0  0  0  0
  -27.5972  -25.2542   21.3197 H   0  0  0  0  0  0
  -29.0303  -15.4202   21.0201 H   0  0  0  0  0  0
  1 25  1  0  0  0
  1 30  2  0  0  0
  1 83  1  0  0  0
  2  3  1  0  0  0
  2 25  1  0  0  0
  2 86  1  0  0  0
  2 87  1  0  0  0
  3  4  1  0  0  0
  3 88  1  0  0  0
  3 89  1  0  0  0
  4  5  1  0  0  0
  4 90  1  0  0  0
  4 91  1  0  0  0
  5  6  1  0  0  0
  5 26  1  0  0  0
  5 92  1  0  0  0
  6 25  1  0  0  0
  6 93  1  0  0  0
  6 94  1  0  0  0
  7  8  2  0  0  0
  7 26  1  0  0  0
  7 29  1  0  0  0
  8  9  1  0  0  0
  8 22  1  0  0  0
  9 10  1  0  0  0
  9 27  2  0  0  0
 10 11  2  0  0  0
 10 15  1  0  0  0
 11 12  1  0  0  0
 11 95  1  0  0  0
 12 13  2  0  0  0
 12 96  1  0  0  0
 13 14  1  0  0  0
 13 31  1  0  0  0
 14 15  2  0  0  0
 14 97  1  0  0  0
 15 98  1  0  0  0
 16 17  2  0  0  0
 16 21  1  0  0  0
 16 31  1  0  0  0
 17 18  1  0  0  0
 17 99  1  0  0  0
 18 19  2  0  0  0
 18100  1  0  0  0
 19 20  1  0  0  0
 19 24  1  0  0  0
 20 21  2  0  0  0
 20101  1  0  0  0
 21 23  1  0  0  0
 22 28  1  0  0  0
 22 32  2  0  0  0
 26 27  1  0  0  0
 28102  1  0  0  0
 28103  1  0  0  0
 29104  1  0  0  0
 29105  1  0  0  0
 33 34  1  0  0  0
 33 66  1  0  0  0
 33 70  2  0  0  0
 34 36  1  0  0  0
 34 59  1  0  0  0
 34106  1  0  0  0
 35 44  2  0  0  0
 35 45  1  0  0  0
 35 68  1  0  0  0
 36 56  1  0  0  0
 36107  1  0  0  0
 37 39  1  0  0  0
 37 47  1  0  0  0
 37 66  1  0  0  0
 37108  1  0  0  0
 38 43  2  0  0  0
 38 46  1  0  0  0
 38 47  1  0  0  0
 39 64  1  0  0  0
 39 67  2  0  0  0
 40 52  1  0  0  0
 40 53  2  0  0  0
 40 58  1  0  0  0
 41109  1  0  0  0
 41110  1  0  0  0
 41111  1  0  0  0
 41 48  1  0  0  0
 42 43  1  0  0  0
 42 66  1  0  0  0
 42112  1  0  0  0
 42113  1  0  0  0
 43 44  1  0  0  0
 44114  1  0  0  0
 45 46  2  0  0  0
 45115  1  0  0  0
 46116  1  0  0  0
 47117  1  0  0  0
 47118  1  0  0  0
 48 56  1  0  0  0
 48 65  1  0  0  0
 48119  1  0  0  0
 49 50  1  0  0  0
 49 53  1  0  0  0
 49 64  1  0  0  0
 49120  1  0  0  0
 50 51  1  0  0  0
 50121  1  0  0  0
 50122  1  0  0  0
 51 52  1  0  0  0
 51123  1  0  0  0
 51124  1  0  0  0
 52125  1  0  0  0
 52126  1  0  0  0
 53 54  1  0  0  0
 54 55  2  0  0  0
 54127  1  0  0  0
 55 57  1  0  0  0
 55128  1  0  0  0
 56 69  2  0  0  0
 57 58  2  0  0  0
 57129  1  0  0  0
 58130  1  0  0  0
 59 60  1  0  0  0
 59 61  1  0  0  0
 59 62  1  0  0  0
 60131  1  0  0  0
 60132  1  0  0  0
 60133  1  0  0  0
 61134  1  0  0  0
 61135  1  0  0  0
 61136  1  0  0  0
 62137  1  0  0  0
 62138  1  0  0  0
 62139  1  0  0  0
 63 65  1  0  0  0
 63140  1  0  0  0
 63141  1  0  0  0
 63142  1  0  0  0
 64143  1  0  0  0
 65144  1  0  0  0
 68 82  1  0  0  0
 71 72  2  0  0  0
 71 73  1  0  0  0
 71145  1  0  0  0
 72 75  1  0  0  0
 72146  1  0  0  0
 73 76  2  0  0  0
 73147  1  0  0  0
 74 75  2  0  0  0
 74 76  1  0  0  0
 74148  1  0  0  0
 75 81  1  0  0  0
 76 83  1  0  0  0
 77 78  2  0  0  0
 77 79  1  0  0  0
 77149  1  0  0  0
 78 82  1  0  0  0
 78150  1  0  0  0
 79 84  1  0  0  0
 79 85  2  0  0  0
 80 84  1  0  0  0
 80151  1  0  0  0
 80152  1  0  0  0
 80153  1  0  0  0
 81 84  1  0  0  0
 81154  1  0  0  0
 81155  1  0  0  0
 82156  1  0  0  0
 82157  1  0  0  0
 83158  1  0  0  0
M  ISO  4   1 100  68 101  82 101  83 100
M  END
> <chiral flag>
0

> <version>
0

> <s_m_source_file>
/data/baiqing/PycharmProjects/Reinvent-master-3.2/result/LINK_invent/BTK/process_docking_weight1_custom_product_contain_oxygen_bond_distance_aromatic_linkinvent_7_9_3/rearranged_h_0053.sdf

> <i_m_source_file_index>
49

> <r_mmod_Potential_Energy-OPLS-2005>
-32.5008964538574

> <r_mmod_Stretch_Energy-OPLS-2005>
41.2803497314453

> <r_mmod_Bend_Energy-OPLS-2005>
99.5968780517578

> <r_mmod_Torsional_Energy-OPLS-2005>
258.398803710938

> <r_mmod_Improper_Torsional_Energy-OPLS-2005>
6.22735357284546

> <r_mmod_Van_der_Waal_Energy-OPLS-2005>
165.445709228516

> <r_mmod_Electrostatic_Energy-OPLS-2005>
-394.689819335938

> <r_mmod_Solvation_Energy-OPLS-2005>
-230.393692016602

> <b_mmod_Minimization_Converged-OPLS-2005>
0

> <r_mmod_RMS_Derivative-OPLS-2005>
4.85028028488159

$$$$
49
                    3D
 Structure written by MMmdl.
173182  0  0  1  0            999 V2000
  -30.8001  -14.4085   20.4870 C   0  0  0  0  0  0
  -30.3729  -12.2422   19.4368 C   0  0  0  0  0  0
  -29.4801  -12.4760   18.2058 C   0  0  0  0  0  0
  -28.0054  -12.3334   18.6155 C   0  0  0  0  0  0
  -27.6528  -13.2116   19.8432 C   0  0  2  0  0  0
  -28.6958  -13.0721   20.9762 C   0  0  0  0  0  0
  -25.2584  -13.8174   20.5560 C   0  0  0  0  0  0
  -24.1858  -13.0457   20.9165 C   0  0  0  0  0  0
  -24.6448  -11.6926   20.8753 C   0  0  0  0  0  0
  -23.9127  -10.4296   21.0344 C   0  0  0  0  0  0
  -24.3690   -9.4208   21.9115 C   0  0  0  0  0  0
  -23.6367   -8.2242   22.0706 C   0  0  0  0  0  0
  -22.4340   -8.0299   21.3510 C   0  0  0  0  0  0
  -21.9997   -9.0254   20.4566 C   0  0  0  0  0  0
  -22.7312  -10.2130   20.2974 C   0  0  0  0  0  0
  -21.6828   -6.0751   22.5271 C   0  0  0  0  0  0
  -21.3987   -6.5626   23.8214 C   0  0  0  0  0  0
  -21.3689   -5.6759   24.9154 C   0  0  0  0  0  0
  -21.6077   -4.3038   24.7163 C   0  0  0  0  0  0
  -21.8812   -3.8152   23.4271 C   0  0  0  0  0  0
  -21.9174   -4.6986   22.3347 C   0  0  0  0  0  0
  -22.7849  -13.5206   21.1796 C   0  0  0  0  0  0
  -22.1639   -4.2196   21.0910 F   0  0  0  0  0  0
  -21.5686   -3.4501   25.7650 F   0  0  0  0  0  0
  -30.0397  -13.2858   20.4128 N   0  0  0  0  0  0
  -26.3002  -12.9368   20.3221 N   0  0  0  0  0  0
  -25.9366  -11.6545   20.5766 N   0  0  0  0  0  0
  -22.0497  -12.8208   22.0363 N   0  0  0  0  0  0
  -25.4389  -15.1852   20.3796 N   0  0  0  0  0  0
  -31.9612  -14.4544   20.0770 O   0  0  0  0  0  0
  -21.6643   -6.8933   21.4248 O   0  0  0  0  0  0
  -22.3509  -14.5500   20.6627 O   0  0  0  0  0  0
  -24.6161  -31.8676   23.2278 C   0  0  0  0  0  0
  -25.9077  -32.4842   23.8472 C   0  0  1  0  0  0
  -27.1963  -27.4420   20.0741 C   0  0  0  0  0  0
  -25.5984  -33.8635   24.2459 N   0  0  0  0  0  0
  -23.3975  -30.5050   21.5674 C   0  0  2  0  0  0
  -24.8257  -28.9873   20.1189 C   0  0  0  0  0  0
  -22.7408  -29.4624   22.5024 C   0  0  0  0  0  0
  -18.0232  -28.1391   22.8474 C   0  0  0  0  0  0
  -24.1461  -36.7251   23.2641 C   0  0  0  0  0  0
  -25.9284  -30.8426   21.3692 C   0  0  0  0  0  0
  -25.9930  -29.4777   20.7144 C   0  0  0  0  0  0
  -27.1812  -28.7132   20.6954 C   0  0  0  0  0  0
  -25.9846  -26.9576   19.5163 C   0  0  0  0  0  0
  -24.8127  -27.7246   19.5190 C   0  0  0  0  0  0
  -23.6014  -29.8629   20.1704 C   0  0  0  0  0  0
  -25.4099  -36.3127   24.0389 C   0  0  1  0  0  0
  -20.5831  -28.3670   23.1341 C   0  0  2  0  0  0
  -20.6777  -26.9417   22.5417 C   0  0  0  0  0  0
  -19.5758  -26.6408   21.5194 C   0  0  0  0  0  0
  -18.1922  -26.7945   22.1584 C   0  0  0  0  0  0
  -19.1500  -28.8851   23.2909 C   0  0  0  0  0  0
  -18.9430  -30.1446   23.8906 C   0  0  0  0  0  0
  -17.6434  -30.6587   24.0560 C   0  0  0  0  0  0
  -25.9035  -34.9482   23.5203 C   0  0  0  0  0  0
  -16.5318  -29.9085   23.6320 C   0  0  0  0  0  0
  -16.7229  -28.6509   23.0339 C   0  0  0  0  0  0
  -26.4585  -31.6583   25.0731 C   0  0  0  0  0  0
  -25.3986  -31.3485   26.1571 C   0  0  0  0  0  0
  -27.0418  -30.3083   24.5942 C   0  0  0  0  0  0
  -27.6190  -32.4290   25.7480 C   0  0  0  0  0  0
  -27.5575  -37.1770   24.8502 C   0  0  0  0  0  0
  -21.4150  -29.3017   22.3769 N   0  0  0  0  0  0
  -26.4272  -37.3813   23.9477 N   0  0  0  0  0  0
  -24.6678  -31.0840   22.1116 N   0  0  0  0  0  0
  -23.4227  -28.8090   23.3001 O   0  0  0  0  0  0
  -28.3793  -26.7287   19.9993 O   0  0  0  0  0  0
  -26.5495  -34.8903   22.4702 O   0  0  0  0  0  0
  -23.5375  -32.1356   23.7722 O   0  0  0  0  0  0
  -30.6013  -20.3138   15.3885 C   0  0  0  0  0  0
  -30.5282  -21.6941   15.6476 C   0  0  0  0  0  0
  -31.3765  -19.4852   16.2228 C   0  0  0  0  0  0
  -30.6618  -17.6591   21.9712 C   0  0  0  0  0  0
  -31.9960  -21.4231   17.5776 C   0  0  0  0  0  0
  -31.5591  -17.3006   19.7520 C   0  0  0  0  0  0
  -31.1842  -22.2516   16.7683 C   0  0  0  0  0  0
  -31.2971  -18.9196   22.0369 C   0  0  0  0  0  0
  -32.0871  -19.3852   20.9393 C   0  0  0  0  0  0
  -30.8015  -16.8312   20.8501 C   0  0  0  0  0  0
  -32.0971  -20.0414   17.3006 C   0  0  0  0  0  0
  -32.2111  -18.5571   19.7799 C   0  0  0  0  0  0
  -29.6948  -25.0077   18.7770 C   0  0  0  0  0  0
  -32.7424  -20.7616   21.0623 C   0  0  0  0  0  0
  -28.5195  -23.3705   17.3088 C   0  0  0  0  0  0
  -30.9940  -23.7264   17.1074 C   0  0  0  0  0  0
  -28.3205  -25.5599   19.1695 C   0  0  0  0  0  0
  -31.1184  -19.7437   23.3175 C   0  0  0  0  0  0
  -30.1883  -15.5399   20.8664 N   0  0  0  0  0  0
  -29.7299  -24.0564   17.8097 N   0  0  0  0  0  0
  -30.7069  -25.4892   19.2968 O   0  0  0  0  0  0
  -33.3810  -17.7364   17.5085 O   0  0  0  0  0  0
  -34.3838  -19.7375   18.6340 O   0  0  0  0  0  0
  -30.2814  -19.1642   24.1777 F   0  0  0  0  0  0
  -32.2801  -19.8954   23.9515 F   0  0  0  0  0  0
  -30.6160  -20.9426   23.0307 F   0  0  0  0  0  0
  -33.1716  -18.9767   18.2806 S   0  0  0  0  0  0
  -31.4242  -12.2308   19.1585 H   0  0  0  0  0  0
  -30.1773  -11.2568   19.8690 H   0  0  0  0  0  0
  -29.7349  -11.7648   17.4202 H   0  0  0  0  0  0
  -29.6461  -13.4745   17.7969 H   0  0  0  0  0  0
  -27.8243  -11.2844   18.8503 H   0  0  0  0  0  0
  -27.3523  -12.5663   17.7754 H   0  0  0  0  0  0
  -27.6888  -14.2426   19.4931 H   0  0  0  0  0  0
  -28.6385  -12.0802   21.4278 H   0  0  0  0  0  0
  -28.4728  -13.7786   21.7756 H   0  0  0  0  0  0
  -25.2815   -9.5663   22.4727 H   0  0  0  0  0  0
  -24.0059   -7.4575   22.7404 H   0  0  0  0  0  0
  -21.0947   -8.8715   19.8850 H   0  0  0  0  0  0
  -22.3740  -10.9657   19.6099 H   0  0  0  0  0  0
  -21.1965   -7.6125   23.9759 H   0  0  0  0  0  0
  -21.1546   -6.0437   25.9077 H   0  0  0  0  0  0
  -22.0594   -2.7632   23.2683 H   0  0  0  0  0  0
  -22.4165  -11.9948   22.4850 H   0  0  0  0  0  0
  -21.1055  -13.1122   22.2427 H   0  0  0  0  0  0
  -24.6760  -15.8526   20.4236 H   0  0  0  0  0  0
  -26.2985  -15.5882   20.0276 H   0  0  0  0  0  0
  -26.7125  -32.5549   23.1200 H   0  0  0  0  0  0
  -25.0448  -33.9831   25.0818 H   0  0  0  0  0  0
  -22.6789  -31.3200   21.4513 H   0  0  0  0  0  0
  -23.3758  -35.9534   23.3310 H   0  0  0  0  0  0
  -24.3549  -36.8808   22.2044 H   0  0  0  0  0  0
  -23.7122  -37.6425   23.6618 H   0  0  0  0  0  0
  -26.0407  -31.6111   20.6046 H   0  0  0  0  0  0
  -26.8240  -30.8924   21.9802 H   0  0  0  0  0  0
  -28.0851  -29.0993   21.1452 H   0  0  0  0  0  0
  -25.8909  -25.9897   19.0481 H   0  0  0  0  0  0
  -23.9096  -27.3423   19.0599 H   0  0  0  0  0  0
  -23.7238  -30.6545   19.4295 H   0  0  0  0  0  0
  -22.7204  -29.2989   19.8582 H   0  0  0  0  0  0
  -25.1230  -36.2014   25.0870 H   0  0  0  0  0  0
  -20.9881  -28.3206   24.1476 H   0  0  0  0  0  0
  -20.5701  -26.2245   23.3576 H   0  0  0  0  0  0
  -21.6657  -26.7498   22.1188 H   0  0  0  0  0  0
  -19.6903  -25.6319   21.1207 H   0  0  0  0  0  0
  -19.6722  -27.3248   20.6759 H   0  0  0  0  0  0
  -17.4209  -26.6688   21.3959 H   0  0  0  0  0  0
  -18.0303  -26.0094   22.9000 H   0  0  0  0  0  0
  -19.7922  -30.7271   24.2271 H   0  0  0  0  0  0
  -17.4990  -31.6243   24.5214 H   0  0  0  0  0  0
  -15.5330  -30.2994   23.7647 H   0  0  0  0  0  0
  -15.8636  -28.0833   22.7042 H   0  0  0  0  0  0
  -24.6256  -30.6707   25.7939 H   0  0  0  0  0  0
  -24.9070  -32.2507   26.5185 H   0  0  0  0  0  0
  -25.8523  -30.8615   27.0213 H   0  0  0  0  0  0
  -26.2816  -29.6757   24.1336 H   0  0  0  0  0  0
  -27.4664  -29.7410   25.4218 H   0  0  0  0  0  0
  -27.8463  -30.4479   23.8720 H   0  0  0  0  0  0
  -27.2835  -33.3599   26.2057 H   0  0  0  0  0  0
  -28.3973  -32.6814   25.0265 H   0  0  0  0  0  0
  -28.0895  -31.8407   26.5350 H   0  0  0  0  0  0
  -28.2630  -38.0044   24.7571 H   0  0  0  0  0  0
  -28.1020  -36.2575   24.6301 H   0  0  0  0  0  0
  -27.2288  -37.1391   25.8901 H   0  0  0  0  0  0
  -20.9297  -29.8837   21.7078 H   0  0  0  0  0  0
  -26.0158  -38.2863   24.1579 H   0  0  0  0  0  0
  -30.0640  -19.8935   14.5514 H   0  0  0  0  0  0
  -29.9395  -22.3216   14.9907 H   0  0  0  0  0  0
  -31.4423  -18.4284   16.0147 H   0  0  0  0  0  0
  -30.0792  -17.2953   22.8039 H   0  0  0  0  0  0
  -32.5497  -21.8468   18.4000 H   0  0  0  0  0  0
  -31.6608  -16.6803   18.8733 H   0  0  0  0  0  0
  -33.2303  -20.8693   22.0293 H   0  0  0  0  0  0
  -31.9882  -21.5466   20.9775 H   0  0  0  0  0  0
  -33.5219  -20.9826   20.3457 H   0  0  0  0  0  0
  -28.5757  -22.3052   17.5328 H   0  0  0  0  0  0
  -28.4404  -23.4938   16.2305 H   0  0  0  0  0  0
  -27.5612  -23.6938   17.7119 H   0  0  0  0  0  0
  -31.0190  -24.3013   16.1785 H   0  0  0  0  0  0
  -31.8656  -24.0528   17.6776 H   0  0  0  0  0  0
  -27.7283  -24.7820   19.6583 H   0  0  0  0  0  0
  -27.8666  -25.8326   18.2134 H   0  0  0  0  0  0
  -29.2634  -15.4522   21.2574 H   0  0  0  0  0  0
  1 25  1  0  0  0
  1 30  2  0  0  0
  1 89  1  0  0  0
  2  3  1  0  0  0
  2 25  1  0  0  0
  2 98  1  0  0  0
  2 99  1  0  0  0
  3  4  1  0  0  0
  3100  1  0  0  0
  3101  1  0  0  0
  4  5  1  0  0  0
  4102  1  0  0  0
  4103  1  0  0  0
  5  6  1  0  0  0
  5 26  1  0  0  0
  5104  1  0  0  0
  6 25  1  0  0  0
  6105  1  0  0  0
  6106  1  0  0  0
  7  8  2  0  0  0
  7 26  1  0  0  0
  7 29  1  0  0  0
  8  9  1  0  0  0
  8 22  1  0  0  0
  9 10  1  0  0  0
  9 27  2  0  0  0
 10 11  2  0  0  0
 10 15  1  0  0  0
 11 12  1  0  0  0
 11107  1  0  0  0
 12 13  2  0  0  0
 12108  1  0  0  0
 13 14  1  0  0  0
 13 31  1  0  0  0
 14 15  2  0  0  0
 14109  1  0  0  0
 15110  1  0  0  0
 16 17  2  0  0  0
 16 21  1  0  0  0
 16 31  1  0  0  0
 17 18  1  0  0  0
 17111  1  0  0  0
 18 19  2  0  0  0
 18112  1  0  0  0
 19 20  1  0  0  0
 19 24  1  0  0  0
 20 21  2  0  0  0
 20113  1  0  0  0
 21 23  1  0  0  0
 22 28  1  0  0  0
 22 32  2  0  0  0
 26 27  1  0  0  0
 28114  1  0  0  0
 28115  1  0  0  0
 29116  1  0  0  0
 29117  1  0  0  0
 33 34  1  0  0  0
 33 66  1  0  0  0
 33 70  2  0  0  0
 34 36  1  0  0  0
 34 59  1  0  0  0
 34118  1  0  0  0
 35 44  2  0  0  0
 35 45  1  0  0  0
 35 68  1  0  0  0
 36 56  1  0  0  0
 36119  1  0  0  0
 37 39  1  0  0  0
 37 47  1  0  0  0
 37 66  1  0  0  0
 37120  1  0  0  0
 38 43  2  0  0  0
 38 46  1  0  0  0
 38 47  1  0  0  0
 39 64  1  0  0  0
 39 67  2  0  0  0
 40 52  1  0  0  0
 40 53  2  0  0  0
 40 58  1  0  0  0
 41121  1  0  0  0
 41122  1  0  0  0
 41123  1  0  0  0
 41 48  1  0  0  0
 42 43  1  0  0  0
 42 66  1  0  0  0
 42124  1  0  0  0
 42125  1  0  0  0
 43 44  1  0  0  0
 44126  1  0  0  0
 45 46  2  0  0  0
 45127  1  0  0  0
 46128  1  0  0  0
 47129  1  0  0  0
 47130  1  0  0  0
 48 56  1  0  0  0
 48 65  1  0  0  0
 48131  1  0  0  0
 49 50  1  0  0  0
 49 53  1  0  0  0
 49 64  1  0  0  0
 49132  1  0  0  0
 50 51  1  0  0  0
 50133  1  0  0  0
 50134  1  0  0  0
 51 52  1  0  0  0
 51135  1  0  0  0
 51136  1  0  0  0
 52137  1  0  0  0
 52138  1  0  0  0
 53 54  1  0  0  0
 54 55  2  0  0  0
 54139  1  0  0  0
 55 57  1  0  0  0
 55140  1  0  0  0
 56 69  2  0  0  0
 57 58  2  0  0  0
 57141  1  0  0  0
 58142  1  0  0  0
 59 60  1  0  0  0
 59 61  1  0  0  0
 59 62  1  0  0  0
 60143  1  0  0  0
 60144  1  0  0  0
 60145  1  0  0  0
 61146  1  0  0  0
 61147  1  0  0  0
 61148  1  0  0  0
 62149  1  0  0  0
 62150  1  0  0  0
 62151  1  0  0  0
 63 65  1  0  0  0
 63152  1  0  0  0
 63153  1  0  0  0
 63154  1  0  0  0
 64155  1  0  0  0
 65156  1  0  0  0
 68 87  1  0  0  0
 71 72  2  0  0  0
 71 73  1  0  0  0
 71157  1  0  0  0
 72 77  1  0  0  0
 72158  1  0  0  0
 73 81  2  0  0  0
 73159  1  0  0  0
 74 78  2  0  0  0
 74 80  1  0  0  0
 74160  1  0  0  0
 75 77  2  0  0  0
 75 81  1  0  0  0
 75161  1  0  0  0
 76 80  2  0  0  0
 76 82  1  0  0  0
 76162  1  0  0  0
 77 86  1  0  0  0
 78 79  1  0  0  0
 78 88  1  0  0  0
 79 82  2  0  0  0
 79 84  1  0  0  0
 80 89  1  0  0  0
 81 97  1  0  0  0
 82 97  1  0  0  0
 83 87  1  0  0  0
 83 90  1  0  0  0
 83 91  2  0  0  0
 84163  1  0  0  0
 84164  1  0  0  0
 84165  1  0  0  0
 85 90  1  0  0  0
 85166  1  0  0  0
 85167  1  0  0  0
 85168  1  0  0  0
 86 90  1  0  0  0
 86169  1  0  0  0
 86170  1  0  0  0
 87171  1  0  0  0
 87172  1  0  0  0
 88 94  1  0  0  0
 88 95  1  0  0  0
 88 96  1  0  0  0
 89173  1  0  0  0
 92 97  2  0  0  0
 93 97  2  0  0  0
M  ISO  4   1 100  68 101  87 101  89 100
M  END
> <chiral flag>
0

> <version>
0

> <s_m_source_file>
/data/baiqing/PycharmProjects/Reinvent-master-3.2/result/LINK_invent/BTK/process_docking_weight1_custom_product_contain_oxygen_bond_distance_aromatic_linkinvent_7_9_3/rearranged_h_0053.sdf

> <i_m_source_file_index>
50

> <r_mmod_Potential_Energy-OPLS-2005>
62.1347045898438

> <r_mmod_Stretch_Energy-OPLS-2005>
46.32373046875

> <r_mmod_Bend_Energy-OPLS-2005>
116.189727783203

> <r_mmod_Torsional_Energy-OPLS-2005>
233.864944458008

> <r_mmod_Improper_Torsional_Energy-OPLS-2005>
4.62249231338501

> <r_mmod_Van_der_Waal_Energy-OPLS-2005>
213.071823120117

> <r_mmod_Electrostatic_Energy-OPLS-2005>
-286.854675292969

> <r_mmod_Solvation_Energy-OPLS-2005>
-289.711517333984

> <b_mmod_Minimization_Converged-OPLS-2005>
0

> <r_mmod_RMS_Derivative-OPLS-2005>
7.25867748260498

$$$$
50
                    3D
 Structure written by MMmdl.
154162  0  0  1  0            999 V2000
  -30.6296  -14.7547   20.4755 C   0  0  0  0  0  0
  -30.4285  -12.4649   19.4841 C   0  0  0  0  0  0
  -29.5098  -12.5119   18.2437 C   0  0  0  0  0  0
  -28.0365  -12.3301   18.6552 C   0  0  0  0  0  0
  -27.6407  -13.2358   19.8508 C   0  0  2  0  0  0
  -28.6837  -13.1862   20.9891 C   0  0  0  0  0  0
  -25.2508  -13.8219   20.5698 C   0  0  0  0  0  0
  -24.1797  -13.0456   20.9189 C   0  0  0  0  0  0
  -24.6406  -11.6934   20.8763 C   0  0  0  0  0  0
  -23.9084  -10.4300   21.0423 C   0  0  0  0  0  0
  -24.3631   -9.4207   21.9195 C   0  0  0  0  0  0
  -23.6296   -8.2252   22.0769 C   0  0  0  0  0  0
  -22.4281   -8.0299   21.3557 C   0  0  0  0  0  0
  -21.9922   -9.0269   20.4652 C   0  0  0  0  0  0
  -22.7263  -10.2142   20.3061 C   0  0  0  0  0  0
  -21.6852   -6.0746   22.5282 C   0  0  0  0  0  0
  -21.4016   -6.5648   23.8215 C   0  0  0  0  0  0
  -21.3651   -5.6798   24.9172 C   0  0  0  0  0  0
  -21.6044   -4.3060   24.7224 C   0  0  0  0  0  0
  -21.8816   -3.8153   23.4343 C   0  0  0  0  0  0
  -21.9189   -4.6973   22.3401 C   0  0  0  0  0  0
  -22.7816  -13.5242   21.1844 C   0  0  0  0  0  0
  -22.1657   -4.2161   21.0980 F   0  0  0  0  0  0
  -21.5622   -3.4546   25.7734 F   0  0  0  0  0  0
  -29.9849  -13.5364   20.4072 N   0  0  0  0  0  0
  -26.2937  -12.9429   20.3292 N   0  0  0  0  0  0
  -25.9341  -11.6569   20.5783 N   0  0  0  0  0  0
  -22.0463  -12.8228   22.0398 N   0  0  0  0  0  0
  -25.4183  -15.1951   20.4131 N   0  0  0  0  0  0
  -31.8164  -14.8146   20.1459 O   0  0  0  0  0  0
  -21.6643   -6.8899   21.4253 O   0  0  0  0  0  0
  -22.3492  -14.5540   20.6682 O   0  0  0  0  0  0
  -24.6304  -31.8512   23.1941 C   0  0  0  0  0  0
  -25.9123  -32.4736   23.8291 C   0  0  1  0  0  0
  -27.2312  -27.2539   20.1283 C   0  0  0  0  0  0
  -25.5910  -33.8531   24.2220 N   0  0  0  0  0  0
  -23.4276  -30.4737   21.5351 C   0  0  2  0  0  0
  -24.8786  -28.9146   20.1032 C   0  0  0  0  0  0
  -22.7486  -29.4600   22.4893 C   0  0  0  0  0  0
  -18.0289  -28.1380   22.8461 C   0  0  0  0  0  0
  -24.1489  -36.7268   23.2652 C   0  0  0  0  0  0
  -25.9728  -30.7614   21.3748 C   0  0  0  0  0  0
  -26.0450  -29.3827   20.7189 C   0  0  0  0  0  0
  -27.2162  -28.5609   20.7264 C   0  0  0  0  0  0
  -26.0397  -26.8489   19.4868 C   0  0  0  0  0  0
  -24.8826  -27.6568   19.4779 C   0  0  0  0  0  0
  -23.6453  -29.7969   20.1535 C   0  0  0  0  0  0
  -25.4109  -36.3052   24.0323 C   0  0  1  0  0  0
  -20.5891  -28.3674   23.1263 C   0  0  2  0  0  0
  -20.6772  -26.9395   22.5399 C   0  0  0  0  0  0
  -19.5755  -26.6353   21.5210 C   0  0  0  0  0  0
  -18.1933  -26.7915   22.1608 C   0  0  0  0  0  0
  -19.1545  -28.8839   23.2865 C   0  0  0  0  0  0
  -18.9472  -30.1436   23.8880 C   0  0  0  0  0  0
  -17.6475  -30.6585   24.0551 C   0  0  0  0  0  0
  -25.9047  -34.9427   23.5081 C   0  0  0  0  0  0
  -16.5364  -29.9074   23.6343 C   0  0  0  0  0  0
  -16.7271  -28.6502   23.0340 C   0  0  0  0  0  0
  -26.4497  -31.6575   25.0685 C   0  0  0  0  0  0
  -25.3709  -31.3704   26.1390 C   0  0  0  0  0  0
  -27.0357  -30.3001   24.6163 C   0  0  0  0  0  0
  -27.6058  -32.4318   25.7451 C   0  0  0  0  0  0
  -27.5567  -37.1785   24.8471 C   0  0  0  0  0  0
  -21.4197  -29.3040   22.3651 N   0  0  0  0  0  0
  -26.4289  -37.3744   23.9413 N   0  0  0  0  0  0
  -24.6964  -31.0471   22.0920 N   0  0  0  0  0  0
  -23.4194  -28.8167   23.3017 O   0  0  0  0  0  0
  -28.3530  -26.3966   20.2310 O   0  0  0  0  0  0
  -26.5651  -34.8910   22.4672 O   0  0  0  0  0  0
  -23.5449  -32.1330   23.7227 O   0  0  0  0  0  0
  -30.9954  -20.1580   20.6420 C   0  0  0  0  0  0
  -31.5896  -17.7713   20.7795 C   0  0  0  0  0  0
  -31.9623  -19.1356   20.7643 C   0  0  0  0  0  0
  -29.6200  -19.8603   20.5708 C   0  0  0  0  0  0
  -30.2384  -17.3588   20.6759 C   0  0  0  0  0  0
  -29.2642  -18.4414   20.5934 C   0  0  0  0  0  0
  -28.3561  -23.7094   20.4912 C   0  0  0  0  0  0
  -33.4290  -19.5045   20.9019 C   0  0  0  0  0  0
  -28.5722  -21.0697   20.5763 C   0  0  0  0  0  0
  -28.4790  -25.0379   19.5915 C   0  0  0  0  0  0
  -29.8797  -15.9058   20.7062 N   0  0  0  0  0  0
  -28.8949  -22.4914   20.0860 N   0  0  0  0  0  0
  -27.7128  -23.7768   21.5407 O   0  0  0  0  0  0
  -27.9534  -18.1036   20.5478 F   0  0  0  0  0  0
  -31.4705  -12.5778   19.1831 H   0  0  0  0  0  0
  -30.3651  -11.4930   19.9769 H   0  0  0  0  0  0
  -29.7991  -11.7413   17.5279 H   0  0  0  0  0  0
  -29.6292  -13.4677   17.7308 H   0  0  0  0  0  0
  -27.8960  -11.2819   18.9217 H   0  0  0  0  0  0
  -27.3791  -12.5177   17.8050 H   0  0  0  0  0  0
  -27.6297  -14.2548   19.4615 H   0  0  0  0  0  0
  -28.7214  -12.1940   21.4415 H   0  0  0  0  0  0
  -28.4140  -13.8784   21.7878 H   0  0  0  0  0  0
  -25.2779   -9.5679   22.4767 H   0  0  0  0  0  0
  -23.9993   -7.4650   22.7495 H   0  0  0  0  0  0
  -21.0856   -8.8801   19.8955 H   0  0  0  0  0  0
  -22.3739  -10.9685   19.6163 H   0  0  0  0  0  0
  -21.2017   -7.6157   23.9724 H   0  0  0  0  0  0
  -21.1470   -6.0527   25.9076 H   0  0  0  0  0  0
  -22.0602   -2.7621   23.2841 H   0  0  0  0  0  0
  -22.4074  -11.9879   22.4762 H   0  0  0  0  0  0
  -21.1094  -13.1269   22.2636 H   0  0  0  0  0  0
  -24.6499  -15.8468   20.5257 H   0  0  0  0  0  0
  -26.2704  -15.6440   20.1035 H   0  0  0  0  0  0
  -26.7186  -32.5386   23.1025 H   0  0  0  0  0  0
  -25.0031  -33.9667   25.0351 H   0  0  0  0  0  0
  -22.7260  -31.2964   21.3805 H   0  0  0  0  0  0
  -23.3757  -35.9607   23.3318 H   0  0  0  0  0  0
  -24.3582  -36.8872   22.2071 H   0  0  0  0  0  0
  -23.7237  -37.6462   23.6674 H   0  0  0  0  0  0
  -26.1125  -31.5171   20.6003 H   0  0  0  0  0  0
  -26.8510  -30.8105   22.0050 H   0  0  0  0  0  0
  -28.1034  -28.9104   21.2352 H   0  0  0  0  0  0
  -25.9611  -25.8800   19.0184 H   0  0  0  0  0  0
  -23.9880  -27.2887   18.9949 H   0  0  0  0  0  0
  -23.7622  -30.5638   19.3875 H   0  0  0  0  0  0
  -22.7656  -29.2210   19.8584 H   0  0  0  0  0  0
  -25.1306  -36.1885   25.0816 H   0  0  0  0  0  0
  -20.9995  -28.3231   24.1375 H   0  0  0  0  0  0
  -20.5654  -26.2288   23.3590 H   0  0  0  0  0  0
  -21.6633  -26.7387   22.1212 H   0  0  0  0  0  0
  -19.6933  -25.6269   21.1221 H   0  0  0  0  0  0
  -19.6714  -27.3171   20.6762 H   0  0  0  0  0  0
  -17.4207  -26.6643   21.4014 H   0  0  0  0  0  0
  -18.0343  -26.0059   22.9007 H   0  0  0  0  0  0
  -19.7958  -30.7248   24.2237 H   0  0  0  0  0  0
  -17.5040  -31.6272   24.5137 H   0  0  0  0  0  0
  -15.5368  -30.2977   23.7689 H   0  0  0  0  0  0
  -15.8659  -28.0825   22.7069 H   0  0  0  0  0  0
  -24.5924  -30.7011   25.7694 H   0  0  0  0  0  0
  -24.8862  -32.2860   26.4782 H   0  0  0  0  0  0
  -25.8002  -30.8892   27.0183 H   0  0  0  0  0  0
  -26.2937  -29.6716   24.1211 H   0  0  0  0  0  0
  -27.4103  -29.7273   25.4661 H   0  0  0  0  0  0
  -27.8775  -30.4308   23.9358 H   0  0  0  0  0  0
  -27.2695  -33.3655   26.1970 H   0  0  0  0  0  0
  -28.3884  -32.6796   25.0268 H   0  0  0  0  0  0
  -28.0703  -31.8466   26.5396 H   0  0  0  0  0  0
  -28.2587  -38.0085   24.7499 H   0  0  0  0  0  0
  -28.1060  -36.2600   24.6319 H   0  0  0  0  0  0
  -27.2286  -37.1450   25.8881 H   0  0  0  0  0  0
  -20.9378  -29.8752   21.6839 H   0  0  0  0  0  0
  -26.0155  -38.2818   24.1413 H   0  0  0  0  0  0
  -31.3124  -21.1918   20.6416 H   0  0  0  0  0  0
  -32.3775  -17.0429   20.8921 H   0  0  0  0  0  0
  -33.5504  -20.4951   21.3421 H   0  0  0  0  0  0
  -33.9162  -19.5016   19.9265 H   0  0  0  0  0  0
  -33.9553  -18.7934   21.5402 H   0  0  0  0  0  0
  -28.2165  -21.1497   21.6047 H   0  0  0  0  0  0
  -27.7024  -20.7399   20.0081 H   0  0  0  0  0  0
  -27.8239  -24.9346   18.7293 H   0  0  0  0  0  0
  -29.4831  -25.0134   19.1669 H   0  0  0  0  0  0
  -28.8991  -15.7289   20.8579 H   0  0  0  0  0  0
  -29.4421  -22.5303   19.2373 H   0  0  0  0  0  0
  1 25  1  0  0  0
  1 30  2  0  0  0
  1 81  1  0  0  0
  2  3  1  0  0  0
  2 25  1  0  0  0
  2 85  1  0  0  0
  2 86  1  0  0  0
  3  4  1  0  0  0
  3 87  1  0  0  0
  3 88  1  0  0  0
  4  5  1  0  0  0
  4 89  1  0  0  0
  4 90  1  0  0  0
  5  6  1  0  0  0
  5 26  1  0  0  0
  5 91  1  0  0  0
  6 25  1  0  0  0
  6 92  1  0  0  0
  6 93  1  0  0  0
  7  8  2  0  0  0
  7 26  1  0  0  0
  7 29  1  0  0  0
  8  9  1  0  0  0
  8 22  1  0  0  0
  9 10  1  0  0  0
  9 27  2  0  0  0
 10 11  2  0  0  0
 10 15  1  0  0  0
 11 12  1  0  0  0
 11 94  1  0  0  0
 12 13  2  0  0  0
 12 95  1  0  0  0
 13 14  1  0  0  0
 13 31  1  0  0  0
 14 15  2  0  0  0
 14 96  1  0  0  0
 15 97  1  0  0  0
 16 17  2  0  0  0
 16 21  1  0  0  0
 16 31  1  0  0  0
 17 18  1  0  0  0
 17 98  1  0  0  0
 18 19  2  0  0  0
 18 99  1  0  0  0
 19 20  1  0  0  0
 19 24  1  0  0  0
 20 21  2  0  0  0
 20100  1  0  0  0
 21 23  1  0  0  0
 22 28  1  0  0  0
 22 32  2  0  0  0
 26 27  1  0  0  0
 28101  1  0  0  0
 28102  1  0  0  0
 29103  1  0  0  0
 29104  1  0  0  0
 33 34  1  0  0  0
 33 66  1  0  0  0
 33 70  2  0  0  0
 34 36  1  0  0  0
 34 59  1  0  0  0
 34105  1  0  0  0
 35 44  2  0  0  0
 35 45  1  0  0  0
 35 68  1  0  0  0
 36 56  1  0  0  0
 36106  1  0  0  0
 37 39  1  0  0  0
 37 47  1  0  0  0
 37 66  1  0  0  0
 37107  1  0  0  0
 38 43  2  0  0  0
 38 46  1  0  0  0
 38 47  1  0  0  0
 39 64  1  0  0  0
 39 67  2  0  0  0
 40 52  1  0  0  0
 40 53  2  0  0  0
 40 58  1  0  0  0
 41108  1  0  0  0
 41109  1  0  0  0
 41110  1  0  0  0
 41 48  1  0  0  0
 42 43  1  0  0  0
 42 66  1  0  0  0
 42111  1  0  0  0
 42112  1  0  0  0
 43 44  1  0  0  0
 44113  1  0  0  0
 45 46  2  0  0  0
 45114  1  0  0  0
 46115  1  0  0  0
 47116  1  0  0  0
 47117  1  0  0  0
 48 56  1  0  0  0
 48 65  1  0  0  0
 48118  1  0  0  0
 49 50  1  0  0  0
 49 53  1  0  0  0
 49 64  1  0  0  0
 49119  1  0  0  0
 50 51  1  0  0  0
 50120  1  0  0  0
 50121  1  0  0  0
 51 52  1  0  0  0
 51122  1  0  0  0
 51123  1  0  0  0
 52124  1  0  0  0
 52125  1  0  0  0
 53 54  1  0  0  0
 54 55  2  0  0  0
 54126  1  0  0  0
 55 57  1  0  0  0
 55127  1  0  0  0
 56 69  2  0  0  0
 57 58  2  0  0  0
 57128  1  0  0  0
 58129  1  0  0  0
 59 60  1  0  0  0
 59 61  1  0  0  0
 59 62  1  0  0  0
 60130  1  0  0  0
 60131  1  0  0  0
 60132  1  0  0  0
 61133  1  0  0  0
 61134  1  0  0  0
 61135  1  0  0  0
 62136  1  0  0  0
 62137  1  0  0  0
 62138  1  0  0  0
 63 65  1  0  0  0
 63139  1  0  0  0
 63140  1  0  0  0
 63141  1  0  0  0
 64142  1  0  0  0
 65143  1  0  0  0
 68 80  1  0  0  0
 71 73  2  0  0  0
 71 74  1  0  0  0
 71144  1  0  0  0
 72 73  1  0  0  0
 72 75  2  0  0  0
 72145  1  0  0  0
 73 78  1  0  0  0
 74 76  2  0  0  0
 74 79  1  0  0  0
 75 76  1  0  0  0
 75 81  1  0  0  0
 76 84  1  0  0  0
 77 80  1  0  0  0
 77 82  1  0  0  0
 77 83  2  0  0  0
 78146  1  0  0  0
 78147  1  0  0  0
 78148  1  0  0  0
 79 82  1  0  0  0
 79149  1  0  0  0
 79150  1  0  0  0
 80151  1  0  0  0
 80152  1  0  0  0
 81153  1  0  0  0
 82154  1  0  0  0
M  ISO  4   1 100  68 101  80 101  81 100
M  END
> <chiral flag>
0

> <version>
0

> <s_m_source_file>
/data/baiqing/PycharmProjects/Reinvent-master-3.2/result/LINK_invent/BTK/process_docking_weight1_custom_product_contain_oxygen_bond_distance_aromatic_linkinvent_7_9_3/rearranged_h_0053.sdf

> <i_m_source_file_index>
51

> <r_mmod_Potential_Energy-OPLS-2005>
76.8925323486328

> <r_mmod_Stretch_Energy-OPLS-2005>
131.109573364258

> <r_mmod_Bend_Energy-OPLS-2005>
174.00666809082

> <r_mmod_Torsional_Energy-OPLS-2005>
205.636032104492

> <r_mmod_Improper_Torsional_Energy-OPLS-2005>
5.54306793212891

> <r_mmod_Van_der_Waal_Energy-OPLS-2005>
136.536682128906

> <r_mmod_Electrostatic_Energy-OPLS-2005>
-427.636566162109

> <r_mmod_Solvation_Energy-OPLS-2005>
-236.120880126953

> <b_mmod_Minimization_Converged-OPLS-2005>
0

> <r_mmod_RMS_Derivative-OPLS-2005>
2.64829921722412

$$$$
51
                    3D
 Structure written by MMmdl.
151159  0  0  1  0            999 V2000
  -30.5976  -14.7449   20.4182 C   0  0  0  0  0  0
  -30.4361  -12.4486   19.4713 C   0  0  0  0  0  0
  -29.5135  -12.5141   18.2339 C   0  0  0  0  0  0
  -28.0388  -12.3419   18.6416 C   0  0  0  0  0  0
  -27.6461  -13.2336   19.8509 C   0  0  2  0  0  0
  -28.6911  -13.1502   20.9860 C   0  0  0  0  0  0
  -25.2524  -13.8213   20.5632 C   0  0  0  0  0  0
  -24.1819  -13.0456   20.9173 C   0  0  0  0  0  0
  -24.6404  -11.6931   20.8705 C   0  0  0  0  0  0
  -23.9071  -10.4314   21.0386 C   0  0  0  0  0  0
  -24.3622   -9.4216   21.9160 C   0  0  0  0  0  0
  -23.6292   -8.2259   22.0740 C   0  0  0  0  0  0
  -22.4261   -8.0311   21.3538 C   0  0  0  0  0  0
  -21.9897   -9.0292   20.4651 C   0  0  0  0  0  0
  -22.7236  -10.2153   20.3058 C   0  0  0  0  0  0
  -21.6859   -6.0740   22.5273 C   0  0  0  0  0  0
  -21.4020   -6.5634   23.8207 C   0  0  0  0  0  0
  -21.3654   -5.6770   24.9162 C   0  0  0  0  0  0
  -21.6046   -4.3041   24.7209 C   0  0  0  0  0  0
  -21.8828   -3.8145   23.4327 C   0  0  0  0  0  0
  -21.9197   -4.6959   22.3389 C   0  0  0  0  0  0
  -22.7843  -13.5257   21.1849 C   0  0  0  0  0  0
  -22.1665   -4.2163   21.0959 F   0  0  0  0  0  0
  -21.5614   -3.4525   25.7701 F   0  0  0  0  0  0
  -29.9953  -13.5049   20.4108 N   0  0  0  0  0  0
  -26.2960  -12.9422   20.3234 N   0  0  0  0  0  0
  -25.9339  -11.6567   20.5694 N   0  0  0  0  0  0
  -22.0492  -12.8266   22.0430 N   0  0  0  0  0  0
  -25.4239  -15.1938   20.4023 N   0  0  0  0  0  0
  -31.7770  -14.8475   20.0686 O   0  0  0  0  0  0
  -21.6651   -6.8890   21.4234 O   0  0  0  0  0  0
  -22.3534  -14.5566   20.6694 O   0  0  0  0  0  0
  -24.6317  -31.8560   23.1983 C   0  0  0  0  0  0
  -25.9137  -32.4765   23.8329 C   0  0  1  0  0  0
  -27.2232  -27.2650   20.1180 C   0  0  0  0  0  0
  -25.5929  -33.8552   24.2259 N   0  0  0  0  0  0
  -23.4293  -30.4798   21.5417 C   0  0  2  0  0  0
  -24.8776  -28.9332   20.1065 C   0  0  0  0  0  0
  -22.7503  -29.4604   22.4903 C   0  0  0  0  0  0
  -18.0297  -28.1414   22.8474 C   0  0  0  0  0  0
  -24.1483  -36.7295   23.2634 C   0  0  0  0  0  0
  -25.9749  -30.7695   21.3779 C   0  0  0  0  0  0
  -26.0486  -29.3923   20.7209 C   0  0  0  0  0  0
  -27.2234  -28.5698   20.7196 C   0  0  0  0  0  0
  -26.0303  -26.8887   19.4541 C   0  0  0  0  0  0
  -24.8742  -27.6903   19.4614 C   0  0  0  0  0  0
  -23.6466  -29.8170   20.1570 C   0  0  0  0  0  0
  -25.4103  -36.3073   24.0327 C   0  0  1  0  0  0
  -20.5897  -28.3723   23.1271 C   0  0  2  0  0  0
  -20.6781  -26.9438   22.5418 C   0  0  0  0  0  0
  -19.5759  -26.6389   21.5220 C   0  0  0  0  0  0
  -18.1937  -26.7951   22.1623 C   0  0  0  0  0  0
  -19.1550  -28.8881   23.2863 C   0  0  0  0  0  0
  -18.9467  -30.1483   23.8892 C   0  0  0  0  0  0
  -17.6463  -30.6600   24.0574 C   0  0  0  0  0  0
  -25.9050  -34.9448   23.5105 C   0  0  0  0  0  0
  -16.5357  -29.9104   23.6327 C   0  0  0  0  0  0
  -16.7281  -28.6526   23.0334 C   0  0  0  0  0  0
  -26.4499  -31.6578   25.0709 C   0  0  0  0  0  0
  -25.3733  -31.3768   26.1448 C   0  0  0  0  0  0
  -27.0292  -30.2977   24.6191 C   0  0  0  0  0  0
  -27.6088  -32.4301   25.7443 C   0  0  0  0  0  0
  -27.5598  -37.1773   24.8445 C   0  0  0  0  0  0
  -21.4217  -29.3066   22.3648 N   0  0  0  0  0  0
  -26.4276  -37.3786   23.9440 N   0  0  0  0  0  0
  -24.6974  -31.0531   22.0960 N   0  0  0  0  0  0
  -23.4213  -28.8137   23.2985 O   0  0  0  0  0  0
  -28.3072  -26.3516   20.1970 O   0  0  0  0  0  0
  -26.5624  -34.8926   22.4674 O   0  0  0  0  0  0
  -23.5466  -32.1364   23.7300 O   0  0  0  0  0  0
  -30.2878  -18.6008   18.0480 C   0  0  0  0  0  0
  -29.9636  -19.7976   18.7257 C   0  0  0  0  0  0
  -30.2645  -17.3472   18.6986 C   0  0  0  0  0  0
  -29.5410  -18.4727   20.7240 C   0  0  0  0  0  0
  -29.5791  -19.7814   20.0825 C   0  0  0  0  0  0
  -29.9026  -17.2287   20.0591 C   0  0  0  0  0  0
  -28.9859  -23.7554   20.4921 C   0  0  0  0  0  0
  -29.3224  -21.1633   20.8363 C   0  0  0  0  0  0
  -28.0503  -24.8995   19.8758 C   0  0  0  0  0  0
  -29.8225  -15.8716   20.6626 N   0  0  0  0  0  0
  -28.8143  -22.4231   20.1364 N   0  0  0  0  0  0
  -29.8265  -24.0713   21.3367 O   0  0  0  0  0  0
  -31.4751  -12.5749   19.1640 H   0  0  0  0  0  0
  -30.3821  -11.4688   19.9483 H   0  0  0  0  0  0
  -29.7869  -11.7464   17.5066 H   0  0  0  0  0  0
  -29.6430  -13.4737   17.7315 H   0  0  0  0  0  0
  -27.8819  -11.2907   18.8847 H   0  0  0  0  0  0
  -27.3958  -12.5578   17.7873 H   0  0  0  0  0  0
  -27.6447  -14.2580   19.4752 H   0  0  0  0  0  0
  -28.7210  -12.1420   21.4028 H   0  0  0  0  0  0
  -28.4330  -13.8153   21.8109 H   0  0  0  0  0  0
  -25.2782   -9.5684   22.4727 H   0  0  0  0  0  0
  -24.0008   -7.4637   22.7450 H   0  0  0  0  0  0
  -21.0822   -8.8839   19.8955 H   0  0  0  0  0  0
  -22.3719  -10.9699   19.6186 H   0  0  0  0  0  0
  -21.2029   -7.6141   23.9713 H   0  0  0  0  0  0
  -21.1453   -6.0497   25.9053 H   0  0  0  0  0  0
  -22.0608   -2.7617   23.2829 H   0  0  0  0  0  0
  -22.4110  -11.9964   22.4879 H   0  0  0  0  0  0
  -21.1132  -13.1327   22.2648 H   0  0  0  0  0  0
  -24.6646  -15.8548   20.5226 H   0  0  0  0  0  0
  -26.2679  -15.6215   20.0424 H   0  0  0  0  0  0
  -26.7202  -32.5421   23.1069 H   0  0  0  0  0  0
  -25.0053  -33.9679   25.0396 H   0  0  0  0  0  0
  -22.7255  -31.3015   21.3960 H   0  0  0  0  0  0
  -23.3759  -35.9614   23.3253 H   0  0  0  0  0  0
  -24.3592  -36.8962   22.2061 H   0  0  0  0  0  0
  -23.7207  -37.6469   23.6689 H   0  0  0  0  0  0
  -26.1096  -31.5300   20.6072 H   0  0  0  0  0  0
  -26.8540  -30.8221   22.0074 H   0  0  0  0  0  0
  -28.1162  -28.9163   21.2224 H   0  0  0  0  0  0
  -25.9516  -25.9513   18.9252 H   0  0  0  0  0  0
  -23.9839  -27.3402   18.9582 H   0  0  0  0  0  0
  -23.7690  -30.5922   19.3997 H   0  0  0  0  0  0
  -22.7652  -29.2496   19.8533 H   0  0  0  0  0  0
  -25.1271  -36.1917   25.0812 H   0  0  0  0  0  0
  -20.9985  -28.3318   24.1393 H   0  0  0  0  0  0
  -20.5665  -26.2340   23.3631 H   0  0  0  0  0  0
  -21.6655  -26.7439   22.1236 H   0  0  0  0  0  0
  -19.6917  -25.6287   21.1278 H   0  0  0  0  0  0
  -19.6702  -27.3176   20.6734 H   0  0  0  0  0  0
  -17.4197  -26.6688   21.4038 H   0  0  0  0  0  0
  -18.0340  -26.0112   22.9038 H   0  0  0  0  0  0
  -19.7937  -30.7310   24.2265 H   0  0  0  0  0  0
  -17.5011  -31.6279   24.5186 H   0  0  0  0  0  0
  -15.5362  -30.3006   23.7652 H   0  0  0  0  0  0
  -15.8681  -28.0855   22.7039 H   0  0  0  0  0  0
  -24.5901  -30.7100   25.7820 H   0  0  0  0  0  0
  -24.8922  -32.2943   26.4846 H   0  0  0  0  0  0
  -25.8055  -30.8981   27.0244 H   0  0  0  0  0  0
  -26.2835  -29.6751   24.1227 H   0  0  0  0  0  0
  -27.3952  -29.7226   25.4708 H   0  0  0  0  0  0
  -27.8744  -30.4208   23.9418 H   0  0  0  0  0  0
  -27.2735  -33.3621   26.2012 H   0  0  0  0  0  0
  -28.3883  -32.6825   25.0238 H   0  0  0  0  0  0
  -28.0770  -31.8418   26.5350 H   0  0  0  0  0  0
  -28.2570  -38.0121   24.7581 H   0  0  0  0  0  0
  -28.1142  -36.2662   24.6135 H   0  0  0  0  0  0
  -27.2352  -37.1261   25.8856 H   0  0  0  0  0  0
  -20.9410  -29.8799   21.6858 H   0  0  0  0  0  0
  -26.0156  -38.2846   24.1515 H   0  0  0  0  0  0
  -30.5656  -18.6424   17.0019 H   0  0  0  0  0  0
  -30.0301  -20.7395   18.1979 H   0  0  0  0  0  0
  -30.5060  -16.4665   18.1171 H   0  0  0  0  0  0
  -29.2439  -18.4349   21.7632 H   0  0  0  0  0  0
  -30.2665  -21.4156   21.3210 H   0  0  0  0  0  0
  -28.6338  -20.9604   21.6561 H   0  0  0  0  0  0
  -27.0603  -24.6304   20.2430 H   0  0  0  0  0  0
  -28.0381  -24.7813   18.7930 H   0  0  0  0  0  0
  -28.9644  -15.6855   21.1623 H   0  0  0  0  0  0
  -28.1178  -22.2650   19.4212 H   0  0  0  0  0  0
  1 25  1  0  0  0
  1 30  2  0  0  0
  1 80  1  0  0  0
  2  3  1  0  0  0
  2 25  1  0  0  0
  2 83  1  0  0  0
  2 84  1  0  0  0
  3  4  1  0  0  0
  3 85  1  0  0  0
  3 86  1  0  0  0
  4  5  1  0  0  0
  4 87  1  0  0  0
  4 88  1  0  0  0
  5  6  1  0  0  0
  5 26  1  0  0  0
  5 89  1  0  0  0
  6 25  1  0  0  0
  6 90  1  0  0  0
  6 91  1  0  0  0
  7  8  2  0  0  0
  7 26  1  0  0  0
  7 29  1  0  0  0
  8  9  1  0  0  0
  8 22  1  0  0  0
  9 10  1  0  0  0
  9 27  2  0  0  0
 10 11  2  0  0  0
 10 15  1  0  0  0
 11 12  1  0  0  0
 11 92  1  0  0  0
 12 13  2  0  0  0
 12 93  1  0  0  0
 13 14  1  0  0  0
 13 31  1  0  0  0
 14 15  2  0  0  0
 14 94  1  0  0  0
 15 95  1  0  0  0
 16 17  2  0  0  0
 16 21  1  0  0  0
 16 31  1  0  0  0
 17 18  1  0  0  0
 17 96  1  0  0  0
 18 19  2  0  0  0
 18 97  1  0  0  0
 19 20  1  0  0  0
 19 24  1  0  0  0
 20 21  2  0  0  0
 20 98  1  0  0  0
 21 23  1  0  0  0
 22 28  1  0  0  0
 22 32  2  0  0  0
 26 27  1  0  0  0
 28 99  1  0  0  0
 28100  1  0  0  0
 29101  1  0  0  0
 29102  1  0  0  0
 33 34  1  0  0  0
 33 66  1  0  0  0
 33 70  2  0  0  0
 34 36  1  0  0  0
 34 59  1  0  0  0
 34103  1  0  0  0
 35 44  2  0  0  0
 35 45  1  0  0  0
 35 68  1  0  0  0
 36 56  1  0  0  0
 36104  1  0  0  0
 37 39  1  0  0  0
 37 47  1  0  0  0
 37 66  1  0  0  0
 37105  1  0  0  0
 38 43  2  0  0  0
 38 46  1  0  0  0
 38 47  1  0  0  0
 39 64  1  0  0  0
 39 67  2  0  0  0
 40 52  1  0  0  0
 40 53  2  0  0  0
 40 58  1  0  0  0
 41106  1  0  0  0
 41107  1  0  0  0
 41108  1  0  0  0
 41 48  1  0  0  0
 42 43  1  0  0  0
 42 66  1  0  0  0
 42109  1  0  0  0
 42110  1  0  0  0
 43 44  1  0  0  0
 44111  1  0  0  0
 45 46  2  0  0  0
 45112  1  0  0  0
 46113  1  0  0  0
 47114  1  0  0  0
 47115  1  0  0  0
 48 56  1  0  0  0
 48 65  1  0  0  0
 48116  1  0  0  0
 49 50  1  0  0  0
 49 53  1  0  0  0
 49 64  1  0  0  0
 49117  1  0  0  0
 50 51  1  0  0  0
 50118  1  0  0  0
 50119  1  0  0  0
 51 52  1  0  0  0
 51120  1  0  0  0
 51121  1  0  0  0
 52122  1  0  0  0
 52123  1  0  0  0
 53 54  1  0  0  0
 54 55  2  0  0  0
 54124  1  0  0  0
 55 57  1  0  0  0
 55125  1  0  0  0
 56 69  2  0  0  0
 57 58  2  0  0  0
 57126  1  0  0  0
 58127  1  0  0  0
 59 60  1  0  0  0
 59 61  1  0  0  0
 59 62  1  0  0  0
 60128  1  0  0  0
 60129  1  0  0  0
 60130  1  0  0  0
 61131  1  0  0  0
 61132  1  0  0  0
 61133  1  0  0  0
 62134  1  0  0  0
 62135  1  0  0  0
 62136  1  0  0  0
 63 65  1  0  0  0
 63137  1  0  0  0
 63138  1  0  0  0
 63139  1  0  0  0
 64140  1  0  0  0
 65141  1  0  0  0
 68 79  1  0  0  0
 71 72  2  0  0  0
 71 73  1  0  0  0
 71142  1  0  0  0
 72 75  1  0  0  0
 72143  1  0  0  0
 73 76  2  0  0  0
 73144  1  0  0  0
 74 75  2  0  0  0
 74 76  1  0  0  0
 74145  1  0  0  0
 75 78  1  0  0  0
 76 80  1  0  0  0
 77 79  1  0  0  0
 77 81  1  0  0  0
 77 82  2  0  0  0
 78 81  1  0  0  0
 78146  1  0  0  0
 78147  1  0  0  0
 79148  1  0  0  0
 79149  1  0  0  0
 80150  1  0  0  0
 81151  1  0  0  0
M  ISO  4   1 100  68 101  79 101  80 100
M  END
> <chiral flag>
0

> <version>
0

> <s_m_source_file>
/data/baiqing/PycharmProjects/Reinvent-master-3.2/result/LINK_invent/BTK/process_docking_weight1_custom_product_contain_oxygen_bond_distance_aromatic_linkinvent_7_9_3/rearranged_h_0053.sdf

> <i_m_source_file_index>
52

> <r_mmod_Potential_Energy-OPLS-2005>
85.4810256958008

> <r_mmod_Stretch_Energy-OPLS-2005>
120.807792663574

> <r_mmod_Bend_Energy-OPLS-2005>
152.481475830078

> <r_mmod_Torsional_Energy-OPLS-2005>
231.772384643555

> <r_mmod_Improper_Torsional_Energy-OPLS-2005>
5.49780511856079

> <r_mmod_Van_der_Waal_Energy-OPLS-2005>
140.538269042969

> <r_mmod_Electrostatic_Energy-OPLS-2005>
-398.400085449219

> <r_mmod_Solvation_Energy-OPLS-2005>
-253.995498657227

> <b_mmod_Minimization_Converged-OPLS-2005>
0

> <r_mmod_RMS_Derivative-OPLS-2005>
3.58414220809937

$$$$
52
                    3D
 Structure written by MMmdl.
168177  0  0  1  0            999 V2000
  -30.7536  -14.5178   20.5867 C   0  0  0  0  0  0
  -30.4018  -12.3353   19.4463 C   0  0  0  0  0  0
  -29.4895  -12.5042   18.2140 C   0  0  0  0  0  0
  -28.0118  -12.3584   18.6165 C   0  0  0  0  0  0
  -27.6504  -13.2146   19.8575 C   0  0  2  0  0  0
  -28.6895  -13.0366   20.9824 C   0  0  0  0  0  0
  -25.2531  -13.8127   20.5740 C   0  0  0  0  0  0
  -24.1803  -13.0409   20.9151 C   0  0  0  0  0  0
  -24.6374  -11.6883   20.8707 C   0  0  0  0  0  0
  -23.9062  -10.4281   21.0392 C   0  0  0  0  0  0
  -24.3587   -9.4193   21.9168 C   0  0  0  0  0  0
  -23.6276   -8.2228   22.0727 C   0  0  0  0  0  0
  -22.4267   -8.0275   21.3497 C   0  0  0  0  0  0
  -21.9915   -9.0253   20.4592 C   0  0  0  0  0  0
  -22.7254  -10.2122   20.3026 C   0  0  0  0  0  0
  -21.6814   -6.0735   22.5276 C   0  0  0  0  0  0
  -21.4005   -6.5639   23.8229 C   0  0  0  0  0  0
  -21.3649   -5.6792   24.9195 C   0  0  0  0  0  0
  -21.6050   -4.3056   24.7244 C   0  0  0  0  0  0
  -21.8824   -3.8155   23.4351 C   0  0  0  0  0  0
  -21.9174   -4.6968   22.3399 C   0  0  0  0  0  0
  -22.7808  -13.5176   21.1837 C   0  0  0  0  0  0
  -22.1659   -4.2186   21.0960 F   0  0  0  0  0  0
  -21.5619   -3.4510   25.7737 F   0  0  0  0  0  0
  -30.0210  -13.3601   20.4449 N   0  0  0  0  0  0
  -26.2952  -12.9322   20.3272 N   0  0  0  0  0  0
  -25.9287  -11.6472   20.5700 N   0  0  0  0  0  0
  -22.0461  -12.8155   22.0366 N   0  0  0  0  0  0
  -25.4345  -15.1856   20.4411 N   0  0  0  0  0  0
  -31.8429  -14.6255   20.0196 O   0  0  0  0  0  0
  -21.6587   -6.8897   21.4240 O   0  0  0  0  0  0
  -22.3507  -14.5530   20.6769 O   0  0  0  0  0  0
  -24.6219  -31.8627   23.2069 C   0  0  0  0  0  0
  -25.9104  -32.4776   23.8368 C   0  0  1  0  0  0
  -27.2276  -27.3769   20.0432 C   0  0  0  0  0  0
  -25.5945  -33.8570   24.2295 N   0  0  0  0  0  0
  -23.4057  -30.4874   21.5608 C   0  0  2  0  0  0
  -24.8445  -28.9526   20.1204 C   0  0  0  0  0  0
  -22.7438  -29.4629   22.5105 C   0  0  0  0  0  0
  -18.0221  -28.1361   22.8483 C   0  0  0  0  0  0
  -24.1465  -36.7270   23.2652 C   0  0  0  0  0  0
  -25.9467  -30.8005   21.3710 C   0  0  0  0  0  0
  -26.0186  -29.4346   20.7095 C   0  0  0  0  0  0
  -27.2082  -28.6531   20.6757 C   0  0  0  0  0  0
  -26.0149  -26.9383   19.4511 C   0  0  0  0  0  0
  -24.8397  -27.7028   19.4957 C   0  0  0  0  0  0
  -23.6057  -29.8199   20.1785 C   0  0  0  0  0  0
  -25.4086  -36.3052   24.0330 C   0  0  1  0  0  0
  -20.5807  -28.3633   23.1325 C   0  0  2  0  0  0
  -20.6684  -26.9367   22.5418 C   0  0  0  0  0  0
  -19.5672  -26.6345   21.5199 C   0  0  0  0  0  0
  -18.1838  -26.7923   22.1587 C   0  0  0  0  0  0
  -19.1474  -28.8829   23.2861 C   0  0  0  0  0  0
  -18.9415  -30.1446   23.8839 C   0  0  0  0  0  0
  -17.6422  -30.6580   24.0529 C   0  0  0  0  0  0
  -25.9030  -34.9429   23.5086 C   0  0  0  0  0  0
  -16.5303  -29.9040   23.6382 C   0  0  0  0  0  0
  -16.7224  -28.6473   23.0382 C   0  0  0  0  0  0
  -26.4483  -31.6607   25.0775 C   0  0  0  0  0  0
  -25.3716  -31.3795   26.1547 C   0  0  0  0  0  0
  -27.0344  -30.3035   24.6242 C   0  0  0  0  0  0
  -27.6024  -32.4382   25.7522 C   0  0  0  0  0  0
  -27.5557  -37.1772   24.8460 C   0  0  0  0  0  0
  -21.4170  -29.3013   22.3841 N   0  0  0  0  0  0
  -26.4246  -37.3758   23.9441 N   0  0  0  0  0  0
  -24.6770  -31.0660   22.1023 N   0  0  0  0  0  0
  -23.4208  -28.8110   23.3092 O   0  0  0  0  0  0
  -28.3896  -26.5933   20.0409 O   0  0  0  0  0  0
  -26.5582  -34.8886   22.4644 O   0  0  0  0  0  0
  -23.5413  -32.1466   23.7424 O   0  0  0  0  0  0
  -32.4630  -18.6098   21.0763 C   0  0  0  0  0  0
  -31.5982  -19.6112   20.6144 C   0  0  0  0  0  0
  -31.9944  -17.2987   21.2264 C   0  0  0  0  0  0
  -30.2657  -19.3287   20.2373 C   0  0  0  0  0  0
  -29.7650  -17.9930   20.4795 C   0  0  0  0  0  0
  -30.6524  -16.9555   20.9395 C   0  0  0  0  0  0
  -30.8094  -24.5369   19.3187 C   0  0  0  0  0  0
  -29.4850  -24.3204   19.4559 C   0  0  0  0  0  0
  -28.9953  -22.9295   19.6997 C   0  0  0  0  0  0
  -31.8264  -23.4173   19.3364 C   0  0  0  0  0  0
  -31.1379  -22.1621   18.7520 C   0  0  0  0  0  0
  -27.4299  -18.0200   21.5595 C   0  0  0  0  0  0
  -29.8841  -15.4360   22.6760 C   0  0  0  0  0  0
  -28.2737  -17.6670   20.3133 C   0  0  0  0  0  0
  -29.3872  -20.4453   19.5853 C   0  0  0  0  0  0
  -28.4628  -25.4431   19.1412 C   0  0  0  0  0  0
  -29.8603  -21.8807   19.4563 N   0  0  0  0  0  0
  -30.2328  -15.5981   21.2591 N   0  0  0  0  0  0
  -27.8471  -22.7134   20.0947 O   0  0  0  0  0  0
  -31.4499  -12.3935   19.1465 H   0  0  0  0  0  0
  -30.2858  -11.3371   19.8729 H   0  0  0  0  0  0
  -29.7407  -11.7673   17.4497 H   0  0  0  0  0  0
  -29.6581  -13.4827   17.7642 H   0  0  0  0  0  0
  -27.8266  -11.3039   18.8233 H   0  0  0  0  0  0
  -27.3655  -12.6209   17.7779 H   0  0  0  0  0  0
  -27.6787  -14.2566   19.5389 H   0  0  0  0  0  0
  -28.6790  -12.0104   21.3462 H   0  0  0  0  0  0
  -28.3992  -13.6257   21.8416 H   0  0  0  0  0  0
  -25.2728   -9.5647   22.4724 H   0  0  0  0  0  0
  -23.9960   -7.4602   22.7450 H   0  0  0  0  0  0
  -21.0839   -8.8779   19.8877 H   0  0  0  0  0  0
  -22.3746  -10.9640   19.6106 H   0  0  0  0  0  0
  -21.2005   -7.6142   23.9777 H   0  0  0  0  0  0
  -21.1454   -6.0494   25.9117 H   0  0  0  0  0  0
  -22.0606   -2.7621   23.2845 H   0  0  0  0  0  0
  -22.4055  -11.9784   22.4717 H   0  0  0  0  0  0
  -21.1111  -13.1236   22.2637 H   0  0  0  0  0  0
  -24.7011  -15.8482   20.6636 H   0  0  0  0  0  0
  -26.3385  -15.6178   20.3134 H   0  0  0  0  0  0
  -26.7192  -32.5463   23.1125 H   0  0  0  0  0  0
  -25.0216  -33.9757   25.0524 H   0  0  0  0  0  0
  -22.6923  -31.3031   21.4239 H   0  0  0  0  0  0
  -23.3768  -35.9546   23.3173 H   0  0  0  0  0  0
  -24.3552  -36.9064   22.2095 H   0  0  0  0  0  0
  -23.7149  -37.6368   23.6823 H   0  0  0  0  0  0
  -26.0722  -31.5586   20.5967 H   0  0  0  0  0  0
  -26.8280  -30.8481   21.9991 H   0  0  0  0  0  0
  -28.1131  -29.0270   21.1284 H   0  0  0  0  0  0
  -25.8931  -25.9994   18.9407 H   0  0  0  0  0  0
  -23.9341  -27.3243   19.0417 H   0  0  0  0  0  0
  -23.6847  -30.5896   19.4090 H   0  0  0  0  0  0
  -22.7269  -29.2311   19.9077 H   0  0  0  0  0  0
  -25.1221  -36.1884   25.0806 H   0  0  0  0  0  0
  -20.9801  -28.3149   24.1474 H   0  0  0  0  0  0
  -20.5529  -26.2228   23.3597 H   0  0  0  0  0  0
  -21.6556  -26.7344   22.1268 H   0  0  0  0  0  0
  -19.6805  -25.6238   21.1249 H   0  0  0  0  0  0
  -19.6603  -27.3110   20.6694 H   0  0  0  0  0  0
  -17.4104  -26.6693   21.3977 H   0  0  0  0  0  0
  -18.0180  -26.0040   22.8949 H   0  0  0  0  0  0
  -19.7881  -30.7277   24.2176 H   0  0  0  0  0  0
  -17.4961  -31.6256   24.5136 H   0  0  0  0  0  0
  -15.5297  -30.2883   23.7814 H   0  0  0  0  0  0
  -15.8629  -28.0785   22.7129 H   0  0  0  0  0  0
  -24.5741  -30.7312   25.7889 H   0  0  0  0  0  0
  -24.9088  -32.3016   26.5078 H   0  0  0  0  0  0
  -25.8029  -30.8862   27.0280 H   0  0  0  0  0  0
  -26.2937  -29.6766   24.1284 H   0  0  0  0  0  0
  -27.4062  -29.7325   25.4761 H   0  0  0  0  0  0
  -27.8771  -30.4298   23.9437 H   0  0  0  0  0  0
  -27.2653  -33.3811   26.1840 H   0  0  0  0  0  0
  -28.3948  -32.6750   25.0401 H   0  0  0  0  0  0
  -28.0540  -31.8655   26.5648 H   0  0  0  0  0  0
  -28.2526  -38.0113   24.7552 H   0  0  0  0  0  0
  -28.1091  -36.2630   24.6221 H   0  0  0  0  0  0
  -27.2293  -37.1384   25.8866 H   0  0  0  0  0  0
  -20.9366  -29.8888   21.7183 H   0  0  0  0  0  0
  -26.0112  -38.2818   24.1442 H   0  0  0  0  0  0
  -33.4883  -18.8497   21.3266 H   0  0  0  0  0  0
  -32.0041  -20.6061   20.5730 H   0  0  0  0  0  0
  -32.6810  -16.5512   21.6021 H   0  0  0  0  0  0
  -31.1693  -25.5319   19.1032 H   0  0  0  0  0  0
  -32.1664  -23.2650   20.3645 H   0  0  0  0  0  0
  -32.7113  -23.6930   18.7556 H   0  0  0  0  0  0
  -31.8270  -21.3216   18.6877 H   0  0  0  0  0  0
  -30.9006  -22.3605   17.7033 H   0  0  0  0  0  0
  -26.4316  -17.5814   21.4993 H   0  0  0  0  0  0
  -27.2891  -19.0957   21.6689 H   0  0  0  0  0  0
  -27.8866  -17.6506   22.4798 H   0  0  0  0  0  0
  -30.3461  -16.2182   23.2812 H   0  0  0  0  0  0
  -30.2181  -14.4831   23.0920 H   0  0  0  0  0  0
  -28.8101  -15.5224   22.8251 H   0  0  0  0  0  0
  -28.1504  -16.6061   20.1063 H   0  0  0  0  0  0
  -27.8639  -18.1656   19.4344 H   0  0  0  0  0  0
  -28.4454  -20.4055   20.1357 H   0  0  0  0  0  0
  -29.1350  -20.1059   18.5762 H   0  0  0  0  0  0
  -27.5192  -24.9275   19.0270 H   0  0  0  0  0  0
  -28.6924  -25.8339   18.1486 H   0  0  0  0  0  0
  1 25  1  0  0  0
  1 30  2  0  0  0
  1 88  1  0  0  0
  2  3  1  0  0  0
  2 25  1  0  0  0
  2 90  1  0  0  0
  2 91  1  0  0  0
  3  4  1  0  0  0
  3 92  1  0  0  0
  3 93  1  0  0  0
  4  5  1  0  0  0
  4 94  1  0  0  0
  4 95  1  0  0  0
  5  6  1  0  0  0
  5 26  1  0  0  0
  5 96  1  0  0  0
  6 25  1  0  0  0
  6 97  1  0  0  0
  6 98  1  0  0  0
  7  8  2  0  0  0
  7 26  1  0  0  0
  7 29  1  0  0  0
  8  9  1  0  0  0
  8 22  1  0  0  0
  9 10  1  0  0  0
  9 27  2  0  0  0
 10 11  2  0  0  0
 10 15  1  0  0  0
 11 12  1  0  0  0
 11 99  1  0  0  0
 12 13  2  0  0  0
 12100  1  0  0  0
 13 14  1  0  0  0
 13 31  1  0  0  0
 14 15  2  0  0  0
 14101  1  0  0  0
 15102  1  0  0  0
 16 17  2  0  0  0
 16 21  1  0  0  0
 16 31  1  0  0  0
 17 18  1  0  0  0
 17103  1  0  0  0
 18 19  2  0  0  0
 18104  1  0  0  0
 19 20  1  0  0  0
 19 24  1  0  0  0
 20 21  2  0  0  0
 20105  1  0  0  0
 21 23  1  0  0  0
 22 28  1  0  0  0
 22 32  2  0  0  0
 26 27  1  0  0  0
 28106  1  0  0  0
 28107  1  0  0  0
 29108  1  0  0  0
 29109  1  0  0  0
 33 34  1  0  0  0
 33 66  1  0  0  0
 33 70  2  0  0  0
 34 36  1  0  0  0
 34 59  1  0  0  0
 34110  1  0  0  0
 35 44  2  0  0  0
 35 45  1  0  0  0
 35 68  1  0  0  0
 36 56  1  0  0  0
 36111  1  0  0  0
 37 39  1  0  0  0
 37 47  1  0  0  0
 37 66  1  0  0  0
 37112  1  0  0  0
 38 43  2  0  0  0
 38 46  1  0  0  0
 38 47  1  0  0  0
 39 64  1  0  0  0
 39 67  2  0  0  0
 40 52  1  0  0  0
 40 53  2  0  0  0
 40 58  1  0  0  0
 41113  1  0  0  0
 41114  1  0  0  0
 41115  1  0  0  0
 41 48  1  0  0  0
 42 43  1  0  0  0
 42 66  1  0  0  0
 42116  1  0  0  0
 42117  1  0  0  0
 43 44  1  0  0  0
 44118  1  0  0  0
 45 46  2  0  0  0
 45119  1  0  0  0
 46120  1  0  0  0
 47121  1  0  0  0
 47122  1  0  0  0
 48 56  1  0  0  0
 48 65  1  0  0  0
 48123  1  0  0  0
 49 50  1  0  0  0
 49 53  1  0  0  0
 49 64  1  0  0  0
 49124  1  0  0  0
 50 51  1  0  0  0
 50125  1  0  0  0
 50126  1  0  0  0
 51 52  1  0  0  0
 51127  1  0  0  0
 51128  1  0  0  0
 52129  1  0  0  0
 52130  1  0  0  0
 53 54  1  0  0  0
 54 55  2  0  0  0
 54131  1  0  0  0
 55 57  1  0  0  0
 55132  1  0  0  0
 56 69  2  0  0  0
 57 58  2  0  0  0
 57133  1  0  0  0
 58134  1  0  0  0
 59 60  1  0  0  0
 59 61  1  0  0  0
 59 62  1  0  0  0
 60135  1  0  0  0
 60136  1  0  0  0
 60137  1  0  0  0
 61138  1  0  0  0
 61139  1  0  0  0
 61140  1  0  0  0
 62141  1  0  0  0
 62142  1  0  0  0
 62143  1  0  0  0
 63 65  1  0  0  0
 63144  1  0  0  0
 63145  1  0  0  0
 63146  1  0  0  0
 64147  1  0  0  0
 65148  1  0  0  0
 68 86  1  0  0  0
 71 72  2  0  0  0
 71 73  1  0  0  0
 71149  1  0  0  0
 72 74  1  0  0  0
 72150  1  0  0  0
 73 76  2  0  0  0
 73151  1  0  0  0
 74 75  2  0  0  0
 74 85  1  0  0  0
 75 76  1  0  0  0
 75 84  1  0  0  0
 76 88  1  0  0  0
 77 78  2  0  0  0
 77 80  1  0  0  0
 77152  1  0  0  0
 78 79  1  0  0  0
 78 86  1  0  0  0
 79 87  1  0  0  0
 79 89  2  0  0  0
 80 81  1  0  0  0
 80153  1  0  0  0
 80154  1  0  0  0
 81 87  1  0  0  0
 81155  1  0  0  0
 81156  1  0  0  0
 82 84  1  0  0  0
 82157  1  0  0  0
 82158  1  0  0  0
 82159  1  0  0  0
 83 88  1  0  0  0
 83160  1  0  0  0
 83161  1  0  0  0
 83162  1  0  0  0
 84163  1  0  0  0
 84164  1  0  0  0
 85 87  1  0  0  0
 85165  1  0  0  0
 85166  1  0  0  0
 86167  1  0  0  0
 86168  1  0  0  0
M  ISO  4   1 100  68 101  86 101  88 100
M  END
> <chiral flag>
0

> <version>
0

> <s_m_source_file>
/data/baiqing/PycharmProjects/Reinvent-master-3.2/result/LINK_invent/BTK/process_docking_weight1_custom_product_contain_oxygen_bond_distance_aromatic_linkinvent_7_9_3/rearranged_h_0053.sdf

> <i_m_source_file_index>
53

> <r_mmod_Potential_Energy-OPLS-2005>
277.858795166016

> <r_mmod_Stretch_Energy-OPLS-2005>
81.8267822265625

> <r_mmod_Bend_Energy-OPLS-2005>
151.806121826172

> <r_mmod_Torsional_Energy-OPLS-2005>
319.237701416016

> <r_mmod_Improper_Torsional_Energy-OPLS-2005>
6.7604284286499

> <r_mmod_Van_der_Waal_Energy-OPLS-2005>
192.319107055664

> <r_mmod_Electrostatic_Energy-OPLS-2005>
-288.797790527344

> <r_mmod_Solvation_Energy-OPLS-2005>
-208.77033996582

> <b_mmod_Minimization_Converged-OPLS-2005>
0

> <r_mmod_RMS_Derivative-OPLS-2005>
6.03072214126587

$$$$
53
                    3D
 Structure written by MMmdl.
163171  0  0  1  0            999 V2000
  -30.7959  -14.3507   20.7244 C   0  0  0  0  0  0
  -30.4144  -12.3085   19.3961 C   0  0  0  0  0  0
  -29.4750  -12.5426   18.2009 C   0  0  0  0  0  0
  -28.0033  -12.3808   18.6246 C   0  0  0  0  0  0
  -27.6639  -13.2078   19.8909 C   0  0  2  0  0  0
  -28.7046  -12.9414   21.0000 C   0  0  0  0  0  0
  -25.2570  -13.8182   20.5785 C   0  0  0  0  0  0
  -24.1799  -13.0463   20.9206 C   0  0  0  0  0  0
  -24.6350  -11.6923   20.8753 C   0  0  0  0  0  0
  -23.9017  -10.4316   21.0401 C   0  0  0  0  0  0
  -24.3573   -9.4232   21.9180 C   0  0  0  0  0  0
  -23.6269   -8.2256   22.0739 C   0  0  0  0  0  0
  -22.4251   -8.0278   21.3524 C   0  0  0  0  0  0
  -21.9872   -9.0261   20.4630 C   0  0  0  0  0  0
  -22.7187  -10.2157   20.3054 C   0  0  0  0  0  0
  -21.6844   -6.0743   22.5267 C   0  0  0  0  0  0
  -21.4006   -6.5636   23.8210 C   0  0  0  0  0  0
  -21.3661   -5.6783   24.9165 C   0  0  0  0  0  0
  -21.6046   -4.3050   24.7208 C   0  0  0  0  0  0
  -21.8809   -3.8149   23.4321 C   0  0  0  0  0  0
  -21.9191   -4.6974   22.3387 C   0  0  0  0  0  0
  -22.7810  -13.5261   21.1845 C   0  0  0  0  0  0
  -22.1652   -4.2160   21.0965 F   0  0  0  0  0  0
  -21.5636   -3.4530   25.7720 F   0  0  0  0  0  0
  -30.0425  -13.2480   20.4644 N   0  0  0  0  0  0
  -26.3025  -12.9364   20.3486 N   0  0  0  0  0  0
  -25.9282  -11.6513   20.5810 N   0  0  0  0  0  0
  -22.0419  -12.8292   22.0415 N   0  0  0  0  0  0
  -25.4310  -15.1911   20.4250 N   0  0  0  0  0  0
  -31.7924  -14.6565   20.0637 O   0  0  0  0  0  0
  -21.6610   -6.8882   21.4223 O   0  0  0  0  0  0
  -22.3499  -14.5563   20.6679 O   0  0  0  0  0  0
  -24.6146  -31.8711   23.2114 C   0  0  0  0  0  0
  -25.9064  -32.4837   23.8408 C   0  0  1  0  0  0
  -27.2355  -27.4501   20.0770 C   0  0  0  0  0  0
  -25.5930  -33.8626   24.2362 N   0  0  0  0  0  0
  -23.4021  -30.4944   21.5521 C   0  0  2  0  0  0
  -24.8461  -28.9656   20.1170 C   0  0  0  0  0  0
  -22.7445  -29.4653   22.5006 C   0  0  0  0  0  0
  -18.0274  -28.1333   22.8539 C   0  0  0  0  0  0
  -24.1452  -36.7268   23.2640 C   0  0  0  0  0  0
  -25.9297  -30.8371   21.3665 C   0  0  0  0  0  0
  -26.0026  -29.4695   20.7207 C   0  0  0  0  0  0
  -27.1952  -28.7120   20.7110 C   0  0  0  0  0  0
  -26.0560  -26.9656   19.4620 C   0  0  0  0  0  0
  -24.8648  -27.7090   19.4921 C   0  0  0  0  0  0
  -23.6093  -29.8302   20.1663 C   0  0  0  0  0  0
  -25.4084  -36.3111   24.0362 C   0  0  1  0  0  0
  -20.5878  -28.3635   23.1320 C   0  0  2  0  0  0
  -20.6744  -26.9355   22.5434 C   0  0  0  0  0  0
  -19.5693  -26.6341   21.5247 C   0  0  0  0  0  0
  -18.1890  -26.7888   22.1668 C   0  0  0  0  0  0
  -19.1535  -28.8802   23.2929 C   0  0  0  0  0  0
  -18.9458  -30.1416   23.8927 C   0  0  0  0  0  0
  -17.6456  -30.6565   24.0554 C   0  0  0  0  0  0
  -25.9038  -34.9481   23.5153 C   0  0  0  0  0  0
  -16.5346  -29.9072   23.6309 C   0  0  0  0  0  0
  -16.7266  -28.6466   23.0388 C   0  0  0  0  0  0
  -26.4478  -31.6578   25.0711 C   0  0  0  0  0  0
  -25.3779  -31.3656   26.1478 C   0  0  0  0  0  0
  -27.0272  -30.3021   24.6049 C   0  0  0  0  0  0
  -27.6058  -32.4288   25.7490 C   0  0  0  0  0  0
  -27.5557  -37.1792   24.8495 C   0  0  0  0  0  0
  -21.4175  -29.3009   22.3752 N   0  0  0  0  0  0
  -26.4257  -37.3819   23.9455 N   0  0  0  0  0  0
  -24.6674  -31.0827   22.1013 N   0  0  0  0  0  0
  -23.4234  -28.8212   23.3040 O   0  0  0  0  0  0
  -28.4289  -26.7521   20.0766 O   0  0  0  0  0  0
  -26.5584  -34.8948   22.4705 O   0  0  0  0  0  0
  -23.5334  -32.1440   23.7512 O   0  0  0  0  0  0
  -27.6711  -16.7644   23.4649 C   0  0  0  0  0  0
  -28.6623  -15.8080   23.1905 C   0  0  0  0  0  0
  -29.2692  -17.0280   21.1735 C   0  0  0  0  0  0
  -28.2845  -18.0079   21.4439 C   0  0  0  0  0  0
  -27.4849  -17.8774   22.6187 C   0  0  0  0  0  0
  -29.4626  -15.9301   22.0408 C   0  0  0  0  0  0
  -28.1947  -19.1922   20.5155 C   0  0  0  0  0  0
  -26.4593  -18.9181   23.0526 C   0  0  0  0  0  0
  -27.7408  -23.0330   19.4155 C   0  0  0  0  0  0
  -26.7325  -22.0491   20.0386 C   0  0  0  0  0  0
  -27.8470  -24.3473   20.2065 C   0  0  0  0  0  0
  -26.6471  -20.7025   19.2854 C   0  0  0  0  0  0
  -28.5074  -25.4908   19.4013 C   0  0  0  0  0  0
  -30.5286  -15.0164   21.8569 N   0  0  0  0  0  0
  -26.9644  -19.5673   20.1461 N   0  0  0  0  0  0
  -29.2159  -19.7380   20.0954 O   0  0  0  0  0  0
  -31.4541  -12.4212   19.0827 H   0  0  0  0  0  0
  -30.3322  -11.2838   19.7629 H   0  0  0  0  0  0
  -29.7141  -11.8541   17.3891 H   0  0  0  0  0  0
  -29.6331  -13.5529   17.8171 H   0  0  0  0  0  0
  -27.8260  -11.3216   18.8179 H   0  0  0  0  0  0
  -27.3377  -12.6526   17.8052 H   0  0  0  0  0  0
  -27.7261  -14.2625   19.6208 H   0  0  0  0  0  0
  -28.6705  -11.8944   21.3005 H   0  0  0  0  0  0
  -28.4552  -13.4942   21.9013 H   0  0  0  0  0  0
  -25.2703   -9.5719   22.4771 H   0  0  0  0  0  0
  -23.9982   -7.4636   22.7446 H   0  0  0  0  0  0
  -21.0810   -8.8760   19.8933 H   0  0  0  0  0  0
  -22.3611  -10.9698   19.6176 H   0  0  0  0  0  0
  -21.1981   -7.6139   23.9718 H   0  0  0  0  0  0
  -21.1496   -6.0505   25.9075 H   0  0  0  0  0  0
  -22.0590   -2.7609   23.2806 H   0  0  0  0  0  0
  -22.3988  -11.9989   22.4890 H   0  0  0  0  0  0
  -21.1020  -13.1326   22.2562 H   0  0  0  0  0  0
  -24.6825  -15.8533   20.5936 H   0  0  0  0  0  0
  -26.3208  -15.6325   20.2283 H   0  0  0  0  0  0
  -26.7155  -32.5577   23.1195 H   0  0  0  0  0  0
  -25.0146  -33.9775   25.0558 H   0  0  0  0  0  0
  -22.6884  -31.3088   21.4131 H   0  0  0  0  0  0
  -23.3743  -35.9579   23.3349 H   0  0  0  0  0  0
  -24.3521  -36.8826   22.2047 H   0  0  0  0  0  0
  -23.7172  -37.6481   23.6605 H   0  0  0  0  0  0
  -26.0343  -31.5964   20.5899 H   0  0  0  0  0  0
  -26.8227  -30.8963   21.9778 H   0  0  0  0  0  0
  -28.0877  -29.0975   21.1814 H   0  0  0  0  0  0
  -26.0280  -26.0208   18.9444 H   0  0  0  0  0  0
  -23.9767  -27.3161   19.0163 H   0  0  0  0  0  0
  -23.7169  -30.6019   19.4022 H   0  0  0  0  0  0
  -22.7374  -29.2441   19.8722 H   0  0  0  0  0  0
  -25.1242  -36.1964   25.0854 H   0  0  0  0  0  0
  -20.9981  -28.3171   24.1434 H   0  0  0  0  0  0
  -20.5612  -26.2250   23.3645 H   0  0  0  0  0  0
  -21.6613  -26.7342   22.1231 H   0  0  0  0  0  0
  -19.6833  -25.6263   21.1234 H   0  0  0  0  0  0
  -19.6590  -27.3207   20.6825 H   0  0  0  0  0  0
  -17.4161  -26.6704   21.4064 H   0  0  0  0  0  0
  -18.0224  -25.9993   22.9009 H   0  0  0  0  0  0
  -19.7932  -30.7227   24.2310 H   0  0  0  0  0  0
  -17.5004  -31.6251   24.5138 H   0  0  0  0  0  0
  -15.5345  -30.2984   23.7577 H   0  0  0  0  0  0
  -15.8675  -28.0770   22.7113 H   0  0  0  0  0  0
  -24.5971  -30.6967   25.7841 H   0  0  0  0  0  0
  -24.8929  -32.2780   26.4957 H   0  0  0  0  0  0
  -25.8151  -30.8827   27.0224 H   0  0  0  0  0  0
  -26.2775  -29.6851   24.1072 H   0  0  0  0  0  0
  -27.4024  -29.7181   25.4457 H   0  0  0  0  0  0
  -27.8634  -30.4334   23.9178 H   0  0  0  0  0  0
  -27.2677  -33.3580   26.2095 H   0  0  0  0  0  0
  -28.3856  -32.6875   25.0319 H   0  0  0  0  0  0
  -28.0750  -31.8401   26.5381 H   0  0  0  0  0  0
  -28.2624  -38.0045   24.7532 H   0  0  0  0  0  0
  -28.0982  -36.2574   24.6313 H   0  0  0  0  0  0
  -27.2265  -37.1478   25.8897 H   0  0  0  0  0  0
  -20.9330  -29.8775   21.7012 H   0  0  0  0  0  0
  -26.0132  -38.2892   24.1484 H   0  0  0  0  0  0
  -27.0735  -16.6493   24.3596 H   0  0  0  0  0  0
  -28.8132  -14.9863   23.8770 H   0  0  0  0  0  0
  -29.9069  -17.1508   20.3078 H   0  0  0  0  0  0
  -26.1515  -18.7586   24.0861 H   0  0  0  0  0  0
  -25.5631  -18.8667   22.4352 H   0  0  0  0  0  0
  -26.8675  -19.9284   22.9985 H   0  0  0  0  0  0
  -28.7290  -22.5705   19.3530 H   0  0  0  0  0  0
  -27.4342  -23.2469   18.3899 H   0  0  0  0  0  0
  -25.7435  -22.5133   20.0397 H   0  0  0  0  0  0
  -26.9708  -21.8920   21.0923 H   0  0  0  0  0  0
  -26.8486  -24.6407   20.5305 H   0  0  0  0  0  0
  -28.4113  -24.1706   21.1226 H   0  0  0  0  0  0
  -27.2915  -20.6940   18.4066 H   0  0  0  0  0  0
  -25.6344  -20.5673   18.9059 H   0  0  0  0  0  0
  -29.5614  -25.2597   19.2487 H   0  0  0  0  0  0
  -28.0923  -25.5652   18.3962 H   0  0  0  0  0  0
  -31.3844  -15.3846   22.2458 H   0  0  0  0  0  0
  -26.1929  -19.0231   20.5056 H   0  0  0  0  0  0
  1 25  1  0  0  0
  1 30  2  0  0  0
  1 84  1  0  0  0
  2  3  1  0  0  0
  2 25  1  0  0  0
  2 87  1  0  0  0
  2 88  1  0  0  0
  3  4  1  0  0  0
  3 89  1  0  0  0
  3 90  1  0  0  0
  4  5  1  0  0  0
  4 91  1  0  0  0
  4 92  1  0  0  0
  5  6  1  0  0  0
  5 26  1  0  0  0
  5 93  1  0  0  0
  6 25  1  0  0  0
  6 94  1  0  0  0
  6 95  1  0  0  0
  7  8  2  0  0  0
  7 26  1  0  0  0
  7 29  1  0  0  0
  8  9  1  0  0  0
  8 22  1  0  0  0
  9 10  1  0  0  0
  9 27  2  0  0  0
 10 11  2  0  0  0
 10 15  1  0  0  0
 11 12  1  0  0  0
 11 96  1  0  0  0
 12 13  2  0  0  0
 12 97  1  0  0  0
 13 14  1  0  0  0
 13 31  1  0  0  0
 14 15  2  0  0  0
 14 98  1  0  0  0
 15 99  1  0  0  0
 16 17  2  0  0  0
 16 21  1  0  0  0
 16 31  1  0  0  0
 17 18  1  0  0  0
 17100  1  0  0  0
 18 19  2  0  0  0
 18101  1  0  0  0
 19 20  1  0  0  0
 19 24  1  0  0  0
 20 21  2  0  0  0
 20102  1  0  0  0
 21 23  1  0  0  0
 22 28  1  0  0  0
 22 32  2  0  0  0
 26 27  1  0  0  0
 28103  1  0  0  0
 28104  1  0  0  0
 29105  1  0  0  0
 29106  1  0  0  0
 33 34  1  0  0  0
 33 66  1  0  0  0
 33 70  2  0  0  0
 34 36  1  0  0  0
 34 59  1  0  0  0
 34107  1  0  0  0
 35 44  2  0  0  0
 35 45  1  0  0  0
 35 68  1  0  0  0
 36 56  1  0  0  0
 36108  1  0  0  0
 37 39  1  0  0  0
 37 47  1  0  0  0
 37 66  1  0  0  0
 37109  1  0  0  0
 38 43  2  0  0  0
 38 46  1  0  0  0
 38 47  1  0  0  0
 39 64  1  0  0  0
 39 67  2  0  0  0
 40 52  1  0  0  0
 40 53  2  0  0  0
 40 58  1  0  0  0
 41110  1  0  0  0
 41111  1  0  0  0
 41112  1  0  0  0
 41 48  1  0  0  0
 42 43  1  0  0  0
 42 66  1  0  0  0
 42113  1  0  0  0
 42114  1  0  0  0
 43 44  1  0  0  0
 44115  1  0  0  0
 45 46  2  0  0  0
 45116  1  0  0  0
 46117  1  0  0  0
 47118  1  0  0  0
 47119  1  0  0  0
 48 56  1  0  0  0
 48 65  1  0  0  0
 48120  1  0  0  0
 49 50  1  0  0  0
 49 53  1  0  0  0
 49 64  1  0  0  0
 49121  1  0  0  0
 50 51  1  0  0  0
 50122  1  0  0  0
 50123  1  0  0  0
 51 52  1  0  0  0
 51124  1  0  0  0
 51125  1  0  0  0
 52126  1  0  0  0
 52127  1  0  0  0
 53 54  1  0  0  0
 54 55  2  0  0  0
 54128  1  0  0  0
 55 57  1  0  0  0
 55129  1  0  0  0
 56 69  2  0  0  0
 57 58  2  0  0  0
 57130  1  0  0  0
 58131  1  0  0  0
 59 60  1  0  0  0
 59 61  1  0  0  0
 59 62  1  0  0  0
 60132  1  0  0  0
 60133  1  0  0  0
 60134  1  0  0  0
 61135  1  0  0  0
 61136  1  0  0  0
 61137  1  0  0  0
 62138  1  0  0  0
 62139  1  0  0  0
 62140  1  0  0  0
 63 65  1  0  0  0
 63141  1  0  0  0
 63142  1  0  0  0
 63143  1  0  0  0
 64144  1  0  0  0
 65145  1  0  0  0
 68 83  1  0  0  0
 71 72  2  0  0  0
 71 75  1  0  0  0
 71146  1  0  0  0
 72 76  1  0  0  0
 72147  1  0  0  0
 73 74  1  0  0  0
 73 76  2  0  0  0
 73148  1  0  0  0
 74 75  2  0  0  0
 74 77  1  0  0  0
 75 78  1  0  0  0
 76 84  1  0  0  0
 77 85  1  0  0  0
 77 86  2  0  0  0
 78149  1  0  0  0
 78150  1  0  0  0
 78151  1  0  0  0
 79 80  1  0  0  0
 79 81  1  0  0  0
 79152  1  0  0  0
 79153  1  0  0  0
 80 82  1  0  0  0
 80154  1  0  0  0
 80155  1  0  0  0
 81 83  1  0  0  0
 81156  1  0  0  0
 81157  1  0  0  0
 82 85  1  0  0  0
 82158  1  0  0  0
 82159  1  0  0  0
 83160  1  0  0  0
 83161  1  0  0  0
 84162  1  0  0  0
 85163  1  0  0  0
M  ISO  4   1 100  68 101  83 101  84 100
M  END
> <chiral flag>
0

> <version>
0

> <s_m_source_file>
/data/baiqing/PycharmProjects/Reinvent-master-3.2/result/LINK_invent/BTK/process_docking_weight1_custom_product_contain_oxygen_bond_distance_aromatic_linkinvent_7_9_3/rearranged_h_0053.sdf

> <i_m_source_file_index>
54

> <r_mmod_Potential_Energy-OPLS-2005>
-51.6076240539551

> <r_mmod_Stretch_Energy-OPLS-2005>
34.9334831237793

> <r_mmod_Bend_Energy-OPLS-2005>
107.242500305176

> <r_mmod_Torsional_Energy-OPLS-2005>
273.323394775391

> <r_mmod_Improper_Torsional_Energy-OPLS-2005>
8.36741161346436

> <r_mmod_Van_der_Waal_Energy-OPLS-2005>
152.838485717773

> <r_mmod_Electrostatic_Energy-OPLS-2005>
-421.365844726562

> <r_mmod_Solvation_Energy-OPLS-2005>
-215.741973876953

> <b_mmod_Minimization_Converged-OPLS-2005>
0

> <r_mmod_RMS_Derivative-OPLS-2005>
3.0249707698822

$$$$
54
                    3D
 Structure written by MMmdl.
163171  0  0  1  0            999 V2000
  -30.7097  -14.5201   20.5220 C   0  0  0  0  0  0
  -30.4159  -12.3247   19.4361 C   0  0  0  0  0  0
  -29.4900  -12.4913   18.2145 C   0  0  0  0  0  0
  -28.0133  -12.3576   18.6297 C   0  0  0  0  0  0
  -27.6550  -13.2178   19.8713 C   0  0  2  0  0  0
  -28.7027  -13.0495   20.9960 C   0  0  0  0  0  0
  -25.2529  -13.8174   20.5676 C   0  0  0  0  0  0
  -24.1816  -13.0438   20.9218 C   0  0  0  0  0  0
  -24.6396  -11.6912   20.8777 C   0  0  0  0  0  0
  -23.9066  -10.4289   21.0424 C   0  0  0  0  0  0
  -24.3617   -9.4199   21.9199 C   0  0  0  0  0  0
  -23.6294   -8.2232   22.0755 C   0  0  0  0  0  0
  -22.4279   -8.0277   21.3537 C   0  0  0  0  0  0
  -21.9916   -9.0255   20.4642 C   0  0  0  0  0  0
  -22.7241  -10.2137   20.3064 C   0  0  0  0  0  0
  -21.6854   -6.0736   22.5275 C   0  0  0  0  0  0
  -21.4011   -6.5638   23.8213 C   0  0  0  0  0  0
  -21.3660   -5.6788   24.9175 C   0  0  0  0  0  0
  -21.6044   -4.3050   24.7220 C   0  0  0  0  0  0
  -21.8823   -3.8144   23.4344 C   0  0  0  0  0  0
  -21.9192   -4.6964   22.3399 C   0  0  0  0  0  0
  -22.7829  -13.5214   21.1867 C   0  0  0  0  0  0
  -22.1663   -4.2143   21.0977 F   0  0  0  0  0  0
  -21.5631   -3.4538   25.7739 F   0  0  0  0  0  0
  -30.0258  -13.3440   20.4258 N   0  0  0  0  0  0
  -26.2996  -12.9376   20.3383 N   0  0  0  0  0  0
  -25.9330  -11.6529   20.5820 N   0  0  0  0  0  0
  -22.0477  -12.8204   22.0424 N   0  0  0  0  0  0
  -25.4189  -15.1879   20.3993 N   0  0  0  0  0  0
  -31.8649  -14.6263   20.1047 O   0  0  0  0  0  0
  -21.6639   -6.8877   21.4236 O   0  0  0  0  0  0
  -22.3518  -14.5523   20.6708 O   0  0  0  0  0  0
  -24.6173  -31.8662   23.2096 C   0  0  0  0  0  0
  -25.9061  -32.4817   23.8397 C   0  0  1  0  0  0
  -27.2276  -27.4063   20.1092 C   0  0  0  0  0  0
  -25.5910  -33.8618   24.2323 N   0  0  0  0  0  0
  -23.4064  -30.4892   21.5507 C   0  0  2  0  0  0
  -24.8553  -28.9554   20.1089 C   0  0  0  0  0  0
  -22.7438  -29.4642   22.5006 C   0  0  0  0  0  0
  -18.0278  -28.1356   22.8487 C   0  0  0  0  0  0
  -24.1491  -36.7308   23.2640 C   0  0  0  0  0  0
  -25.9386  -30.8254   21.3661 C   0  0  0  0  0  0
  -26.0187  -29.4594   20.7081 C   0  0  0  0  0  0
  -27.2123  -28.6928   20.7048 C   0  0  0  0  0  0
  -26.0534  -26.9290   19.4905 C   0  0  0  0  0  0
  -24.8697  -27.6914   19.4927 C   0  0  0  0  0  0
  -23.6155  -29.8235   20.1640 C   0  0  0  0  0  0
  -25.4106  -36.3111   24.0335 C   0  0  1  0  0  0
  -20.5866  -28.3642   23.1320 C   0  0  2  0  0  0
  -20.6766  -26.9380   22.5419 C   0  0  0  0  0  0
  -19.5753  -26.6361   21.5211 C   0  0  0  0  0  0
  -18.1924  -26.7902   22.1614 C   0  0  0  0  0  0
  -19.1524  -28.8822   23.2889 C   0  0  0  0  0  0
  -18.9456  -30.1428   23.8896 C   0  0  0  0  0  0
  -17.6466  -30.6572   24.0555 C   0  0  0  0  0  0
  -25.9030  -34.9477   23.5125 C   0  0  0  0  0  0
  -16.5359  -29.9056   23.6330 C   0  0  0  0  0  0
  -16.7270  -28.6471   23.0350 C   0  0  0  0  0  0
  -26.4470  -31.6602   25.0730 C   0  0  0  0  0  0
  -25.3718  -31.3718   26.1468 C   0  0  0  0  0  0
  -27.0311  -30.3051   24.6110 C   0  0  0  0  0  0
  -27.6051  -32.4327   25.7489 C   0  0  0  0  0  0
  -27.5581  -37.1807   24.8461 C   0  0  0  0  0  0
  -21.4166  -29.3005   22.3740 N   0  0  0  0  0  0
  -26.4294  -37.3788   23.9404 N   0  0  0  0  0  0
  -24.6721  -31.0739   22.1001 N   0  0  0  0  0  0
  -23.4208  -28.8193   23.3063 O   0  0  0  0  0  0
  -28.3372  -26.5829   20.1556 O   0  0  0  0  0  0
  -26.5614  -34.8935   22.4701 O   0  0  0  0  0  0
  -23.5354  -32.1446   23.7456 O   0  0  0  0  0  0
  -32.2012  -18.6518   21.1955 C   0  0  0  0  0  0
  -31.3336  -19.6825   20.8034 C   0  0  0  0  0  0
  -31.7470  -17.3250   21.2456 C   0  0  0  0  0  0
  -29.9807  -19.4223   20.4858 C   0  0  0  0  0  0
  -29.5160  -18.0577   20.5525 C   0  0  0  0  0  0
  -30.4179  -16.9928   20.8946 C   0  0  0  0  0  0
  -29.1235  -20.5979   20.0196 C   0  0  0  0  0  0
  -28.0594  -17.7169   20.2475 C   0  0  0  0  0  0
  -30.5201  -24.7354   20.4779 C   0  0  0  0  0  0
  -29.4597  -23.9011   22.5807 C   0  0  0  0  0  0
  -28.6067  -23.0524   20.3579 C   0  0  0  0  0  0
  -28.1826  -25.5221   21.1306 C   0  0  0  0  0  0
  -29.1849  -24.3053   21.1101 C   0  0  0  0  0  0
  -29.9967  -15.6079   20.9154 N   0  0  0  0  0  0
  -29.3553  -21.7963   20.5971 N   0  0  0  0  0  0
  -28.2535  -20.4547   19.1580 O   0  0  0  0  0  0
  -31.4595  -12.4098   19.1285 H   0  0  0  0  0  0
  -30.3164  -11.3268   19.8659 H   0  0  0  0  0  0
  -29.7309  -11.7474   17.4547 H   0  0  0  0  0  0
  -29.6556  -13.4659   17.7531 H   0  0  0  0  0  0
  -27.8246  -11.3048   18.8424 H   0  0  0  0  0  0
  -27.3620  -12.6182   17.7950 H   0  0  0  0  0  0
  -27.6837  -14.2577   19.5465 H   0  0  0  0  0  0
  -28.6874  -12.0290   21.3836 H   0  0  0  0  0  0
  -28.4722  -13.6947   21.8458 H   0  0  0  0  0  0
  -25.2765   -9.5671   22.4774 H   0  0  0  0  0  0
  -24.0000   -7.4622   22.7475 H   0  0  0  0  0  0
  -21.0849   -8.8776   19.8948 H   0  0  0  0  0  0
  -22.3705  -10.9681   19.6174 H   0  0  0  0  0  0
  -21.2007   -7.6148   23.9709 H   0  0  0  0  0  0
  -21.1480   -6.0524   25.9076 H   0  0  0  0  0  0
  -22.0605   -2.7603   23.2846 H   0  0  0  0  0  0
  -22.4101  -11.9858   22.4794 H   0  0  0  0  0  0
  -21.1101  -13.1215   22.2650 H   0  0  0  0  0  0
  -24.6405  -15.8325   20.4823 H   0  0  0  0  0  0
  -26.2411  -15.6106   19.9917 H   0  0  0  0  0  0
  -26.7135  -32.5525   23.1161 H   0  0  0  0  0  0
  -25.0068  -33.9776   25.0472 H   0  0  0  0  0  0
  -22.6946  -31.3064   21.4124 H   0  0  0  0  0  0
  -23.3763  -35.9630   23.3304 H   0  0  0  0  0  0
  -24.3594  -36.8917   22.2058 H   0  0  0  0  0  0
  -23.7237  -37.6503   23.6662 H   0  0  0  0  0  0
  -26.0553  -31.5947   20.6008 H   0  0  0  0  0  0
  -26.8234  -30.8758   21.9886 H   0  0  0  0  0  0
  -28.1068  -29.0669   21.1848 H   0  0  0  0  0  0
  -26.0455  -25.9508   19.0303 H   0  0  0  0  0  0
  -23.9749  -27.2980   19.0283 H   0  0  0  0  0  0
  -23.7250  -30.6027   19.4069 H   0  0  0  0  0  0
  -22.7386  -29.2438   19.8674 H   0  0  0  0  0  0
  -25.1290  -36.1988   25.0826 H   0  0  0  0  0  0
  -20.9945  -28.3206   24.1447 H   0  0  0  0  0  0
  -20.5669  -26.2254   23.3604 H   0  0  0  0  0  0
  -21.6635  -26.7430   22.1215 H   0  0  0  0  0  0
  -19.6920  -25.6273   21.1238 H   0  0  0  0  0  0
  -19.6690  -27.3178   20.6744 H   0  0  0  0  0  0
  -17.4197  -26.6661   21.4009 H   0  0  0  0  0  0
  -18.0308  -26.0028   22.8998 H   0  0  0  0  0  0
  -19.7937  -30.7223   24.2274 H   0  0  0  0  0  0
  -17.5025  -31.6259   24.5148 H   0  0  0  0  0  0
  -15.5353  -30.2967   23.7646 H   0  0  0  0  0  0
  -15.8663  -28.0796   22.7068 H   0  0  0  0  0  0
  -24.5887  -30.7072   25.7804 H   0  0  0  0  0  0
  -24.8904  -32.2876   26.4926 H   0  0  0  0  0  0
  -25.8043  -30.8889   27.0237 H   0  0  0  0  0  0
  -26.2860  -29.6807   24.1156 H   0  0  0  0  0  0
  -27.4092  -29.7302   25.4569 H   0  0  0  0  0  0
  -27.8696  -30.4383   23.9257 H   0  0  0  0  0  0
  -27.2676  -33.3632   26.2080 H   0  0  0  0  0  0
  -28.3850  -32.6877   25.0295 H   0  0  0  0  0  0
  -28.0727  -31.8434   26.5390 H   0  0  0  0  0  0
  -28.2602  -38.0107   24.7530 H   0  0  0  0  0  0
  -28.1085  -36.2645   24.6270 H   0  0  0  0  0  0
  -27.2314  -37.1428   25.8869 H   0  0  0  0  0  0
  -20.9350  -29.8733   21.6952 H   0  0  0  0  0  0
  -26.0203  -38.2869   24.1408 H   0  0  0  0  0  0
  -33.2293  -18.8775   21.4451 H   0  0  0  0  0  0
  -31.7303  -20.6864   20.7369 H   0  0  0  0  0  0
  -32.4516  -16.5635   21.5488 H   0  0  0  0  0  0
  -27.3833  -18.4780   20.6368 H   0  0  0  0  0  0
  -27.7470  -16.7812   20.7060 H   0  0  0  0  0  0
  -27.9059  -17.6367   19.1708 H   0  0  0  0  0  0
  -31.2546  -23.9307   20.4953 H   0  0  0  0  0  0
  -30.9509  -25.5831   21.0111 H   0  0  0  0  0  0
  -30.3863  -25.0361   19.4384 H   0  0  0  0  0  0
  -30.2257  -23.1303   22.6661 H   0  0  0  0  0  0
  -28.5571  -23.5217   23.0625 H   0  0  0  0  0  0
  -29.8122  -24.7485   23.1712 H   0  0  0  0  0  0
  -28.5588  -23.2532   19.2867 H   0  0  0  0  0  0
  -27.5771  -22.8759   20.6747 H   0  0  0  0  0  0
  -28.2690  -26.0298   22.0923 H   0  0  0  0  0  0
  -27.1645  -25.1292   21.1281 H   0  0  0  0  0  0
  -29.0229  -15.4332   21.1059 H   0  0  0  0  0  0
  -30.0704  -21.8239   21.3098 H   0  0  0  0  0  0
  1 25  1  0  0  0
  1 30  2  0  0  0
  1 84  1  0  0  0
  2  3  1  0  0  0
  2 25  1  0  0  0
  2 87  1  0  0  0
  2 88  1  0  0  0
  3  4  1  0  0  0
  3 89  1  0  0  0
  3 90  1  0  0  0
  4  5  1  0  0  0
  4 91  1  0  0  0
  4 92  1  0  0  0
  5  6  1  0  0  0
  5 26  1  0  0  0
  5 93  1  0  0  0
  6 25  1  0  0  0
  6 94  1  0  0  0
  6 95  1  0  0  0
  7  8  2  0  0  0
  7 26  1  0  0  0
  7 29  1  0  0  0
  8  9  1  0  0  0
  8 22  1  0  0  0
  9 10  1  0  0  0
  9 27  2  0  0  0
 10 11  2  0  0  0
 10 15  1  0  0  0
 11 12  1  0  0  0
 11 96  1  0  0  0
 12 13  2  0  0  0
 12 97  1  0  0  0
 13 14  1  0  0  0
 13 31  1  0  0  0
 14 15  2  0  0  0
 14 98  1  0  0  0
 15 99  1  0  0  0
 16 17  2  0  0  0
 16 21  1  0  0  0
 16 31  1  0  0  0
 17 18  1  0  0  0
 17100  1  0  0  0
 18 19  2  0  0  0
 18101  1  0  0  0
 19 20  1  0  0  0
 19 24  1  0  0  0
 20 21  2  0  0  0
 20102  1  0  0  0
 21 23  1  0  0  0
 22 28  1  0  0  0
 22 32  2  0  0  0
 26 27  1  0  0  0
 28103  1  0  0  0
 28104  1  0  0  0
 29105  1  0  0  0
 29106  1  0  0  0
 33 34  1  0  0  0
 33 66  1  0  0  0
 33 70  2  0  0  0
 34 36  1  0  0  0
 34 59  1  0  0  0
 34107  1  0  0  0
 35 44  2  0  0  0
 35 45  1  0  0  0
 35 68  1  0  0  0
 36 56  1  0  0  0
 36108  1  0  0  0
 37 39  1  0  0  0
 37 47  1  0  0  0
 37 66  1  0  0  0
 37109  1  0  0  0
 38 43  2  0  0  0
 38 46  1  0  0  0
 38 47  1  0  0  0
 39 64  1  0  0  0
 39 67  2  0  0  0
 40 52  1  0  0  0
 40 53  2  0  0  0
 40 58  1  0  0  0
 41110  1  0  0  0
 41111  1  0  0  0
 41112  1  0  0  0
 41 48  1  0  0  0
 42 43  1  0  0  0
 42 66  1  0  0  0
 42113  1  0  0  0
 42114  1  0  0  0
 43 44  1  0  0  0
 44115  1  0  0  0
 45 46  2  0  0  0
 45116  1  0  0  0
 46117  1  0  0  0
 47118  1  0  0  0
 47119  1  0  0  0
 48 56  1  0  0  0
 48 65  1  0  0  0
 48120  1  0  0  0
 49 50  1  0  0  0
 49 53  1  0  0  0
 49 64  1  0  0  0
 49121  1  0  0  0
 50 51  1  0  0  0
 50122  1  0  0  0
 50123  1  0  0  0
 51 52  1  0  0  0
 51124  1  0  0  0
 51125  1  0  0  0
 52126  1  0  0  0
 52127  1  0  0  0
 53 54  1  0  0  0
 54 55  2  0  0  0
 54128  1  0  0  0
 55 57  1  0  0  0
 55129  1  0  0  0
 56 69  2  0  0  0
 57 58  2  0  0  0
 57130  1  0  0  0
 58131  1  0  0  0
 59 60  1  0  0  0
 59 61  1  0  0  0
 59 62  1  0  0  0
 60132  1  0  0  0
 60133  1  0  0  0
 60134  1  0  0  0
 61135  1  0  0  0
 61136  1  0  0  0
 61137  1  0  0  0
 62138  1  0  0  0
 62139  1  0  0  0
 62140  1  0  0  0
 63 65  1  0  0  0
 63141  1  0  0  0
 63142  1  0  0  0
 63143  1  0  0  0
 64144  1  0  0  0
 65145  1  0  0  0
 68 82  1  0  0  0
 71 72  2  0  0  0
 71 73  1  0  0  0
 71146  1  0  0  0
 72 74  1  0  0  0
 72147  1  0  0  0
 73 76  2  0  0  0
 73148  1  0  0  0
 74 75  2  0  0  0
 74 77  1  0  0  0
 75 76  1  0  0  0
 75 78  1  0  0  0
 76 84  1  0  0  0
 77 85  1  0  0  0
 77 86  2  0  0  0
 78149  1  0  0  0
 78150  1  0  0  0
 78151  1  0  0  0
 79152  1  0  0  0
 79153  1  0  0  0
 79154  1  0  0  0
 79 83  1  0  0  0
 80 83  1  0  0  0
 80155  1  0  0  0
 80156  1  0  0  0
 80157  1  0  0  0
 81 83  1  0  0  0
 81 85  1  0  0  0
 81158  1  0  0  0
 81159  1  0  0  0
 82 83  1  0  0  0
 82160  1  0  0  0
 82161  1  0  0  0
 84162  1  0  0  0
 85163  1  0  0  0
M  ISO  4   1 100  68 101  82 101  84 100
M  END
> <chiral flag>
0

> <version>
0

> <s_m_source_file>
/data/baiqing/PycharmProjects/Reinvent-master-3.2/result/LINK_invent/BTK/process_docking_weight1_custom_product_contain_oxygen_bond_distance_aromatic_linkinvent_7_9_3/rearranged_h_0053.sdf

> <i_m_source_file_index>
55

> <r_mmod_Potential_Energy-OPLS-2005>
-44.6789360046387

> <r_mmod_Stretch_Energy-OPLS-2005>
54.0990409851074

> <r_mmod_Bend_Energy-OPLS-2005>
107.111877441406

> <r_mmod_Torsional_Energy-OPLS-2005>
276.693328857422

> <r_mmod_Improper_Torsional_Energy-OPLS-2005>
5.09297895431519

> <r_mmod_Van_der_Waal_Energy-OPLS-2005>
162.135803222656

> <r_mmod_Electrostatic_Energy-OPLS-2005>
-457.528411865234

> <r_mmod_Solvation_Energy-OPLS-2005>
-215.537307739258

> <b_mmod_Minimization_Converged-OPLS-2005>
0

> <r_mmod_RMS_Derivative-OPLS-2005>
2.16113972663879

$$$$
55
                    3D
 Structure written by MMmdl.
170179  0  0  1  0            999 V2000
  -30.6504  -14.4936   20.6264 C   0  0  0  0  0  0
  -30.4447  -12.3403   19.4031 C   0  0  0  0  0  0
  -29.4997  -12.5327   18.1965 C   0  0  0  0  0  0
  -28.0201  -12.3792   18.6063 C   0  0  0  0  0  0
  -27.6677  -13.1959   19.8770 C   0  0  2  0  0  0
  -28.7072  -12.9252   20.9859 C   0  0  0  0  0  0
  -25.2628  -13.8129   20.5650 C   0  0  0  0  0  0
  -24.1853  -13.0443   20.9143 C   0  0  0  0  0  0
  -24.6380  -11.6899   20.8701 C   0  0  0  0  0  0
  -23.9022  -10.4304   21.0389 C   0  0  0  0  0  0
  -24.3582   -9.4226   21.9180 C   0  0  0  0  0  0
  -23.6260   -8.2262   22.0756 C   0  0  0  0  0  0
  -22.4248   -8.0293   21.3543 C   0  0  0  0  0  0
  -21.9866   -9.0256   20.4652 C   0  0  0  0  0  0
  -22.7190  -10.2139   20.3050 C   0  0  0  0  0  0
  -21.6859   -6.0724   22.5269 C   0  0  0  0  0  0
  -21.4025   -6.5633   23.8205 C   0  0  0  0  0  0
  -21.3658   -5.6780   24.9161 C   0  0  0  0  0  0
  -21.6037   -4.3042   24.7223 C   0  0  0  0  0  0
  -21.8823   -3.8139   23.4347 C   0  0  0  0  0  0
  -21.9196   -4.6950   22.3391 C   0  0  0  0  0  0
  -22.7887  -13.5281   21.1808 C   0  0  0  0  0  0
  -22.1670   -4.2136   21.0973 F   0  0  0  0  0  0
  -21.5615   -3.4525   25.7734 F   0  0  0  0  0  0
  -30.0412  -13.2843   20.4577 N   0  0  0  0  0  0
  -26.3051  -12.9280   20.3333 N   0  0  0  0  0  0
  -25.9303  -11.6451   20.5706 N   0  0  0  0  0  0
  -22.0482  -12.8313   22.0366 N   0  0  0  0  0  0
  -25.4396  -15.1841   20.4095 N   0  0  0  0  0  0
  -31.7112  -14.8019   20.0696 O   0  0  0  0  0  0
  -21.6641   -6.8874   21.4234 O   0  0  0  0  0  0
  -22.3599  -14.5586   20.6645 O   0  0  0  0  0  0
  -24.6187  -31.8653   23.2069 C   0  0  0  0  0  0
  -25.9070  -32.4803   23.8377 C   0  0  1  0  0  0
  -27.2406  -27.3995   20.0804 C   0  0  0  0  0  0
  -25.5914  -33.8601   24.2309 N   0  0  0  0  0  0
  -23.4083  -30.4891   21.5480 C   0  0  2  0  0  0
  -24.8550  -28.9493   20.1144 C   0  0  0  0  0  0
  -22.7424  -29.4654   22.4963 C   0  0  0  0  0  0
  -18.0276  -28.1386   22.8486 C   0  0  0  0  0  0
  -24.1489  -36.7303   23.2635 C   0  0  0  0  0  0
  -25.9423  -30.8164   21.3680 C   0  0  0  0  0  0
  -26.0184  -29.4486   20.7125 C   0  0  0  0  0  0
  -27.2093  -28.6772   20.7007 C   0  0  0  0  0  0
  -26.0450  -26.9158   19.5004 C   0  0  0  0  0  0
  -24.8636  -27.6813   19.5111 C   0  0  0  0  0  0
  -23.6192  -29.8212   20.1636 C   0  0  0  0  0  0
  -25.4108  -36.3092   24.0330 C   0  0  1  0  0  0
  -20.5867  -28.3683   23.1295 C   0  0  2  0  0  0
  -20.6770  -26.9413   22.5410 C   0  0  0  0  0  0
  -19.5747  -26.6386   21.5209 C   0  0  0  0  0  0
  -18.1922  -26.7936   22.1616 C   0  0  0  0  0  0
  -19.1529  -28.8846   23.2889 C   0  0  0  0  0  0
  -18.9460  -30.1448   23.8911 C   0  0  0  0  0  0
  -17.6464  -30.6590   24.0559 C   0  0  0  0  0  0
  -25.9039  -34.9461   23.5116 C   0  0  0  0  0  0
  -16.5355  -29.9093   23.6326 C   0  0  0  0  0  0
  -16.7264  -28.6506   23.0355 C   0  0  0  0  0  0
  -26.4484  -31.6596   25.0722 C   0  0  0  0  0  0
  -25.3744  -31.3742   26.1474 C   0  0  0  0  0  0
  -27.0311  -30.3023   24.6142 C   0  0  0  0  0  0
  -27.6059  -32.4320   25.7482 C   0  0  0  0  0  0
  -27.5576  -37.1804   24.8458 C   0  0  0  0  0  0
  -21.4146  -29.3050   22.3700 N   0  0  0  0  0  0
  -26.4290  -37.3781   23.9403 N   0  0  0  0  0  0
  -24.6743  -31.0720   22.0991 N   0  0  0  0  0  0
  -23.4174  -28.8197   23.3019 O   0  0  0  0  0  0
  -28.4008  -26.6342   20.1059 O   0  0  0  0  0  0
  -26.5597  -34.8919   22.4677 O   0  0  0  0  0  0
  -23.5370  -32.1423   23.7442 O   0  0  0  0  0  0
  -30.2762  -17.7525   20.7952 C   0  0  0  0  0  0
  -29.2841  -17.0704   22.8965 C   0  0  0  0  0  0
  -30.0721  -19.1310   21.1251 C   0  0  0  0  0  0
  -29.0778  -18.4125   23.2691 C   0  0  0  0  0  0
  -29.5436  -19.4543   22.4151 C   0  0  0  0  0  0
  -29.9089  -16.7145   21.6928 C   0  0  0  0  0  0
  -30.8554  -22.6410   20.2870 C   0  0  0  0  0  0
  -30.3549  -24.1023   20.2018 C   0  0  0  0  0  0
  -28.0654  -23.2849   19.7355 C   0  0  0  0  0  0
  -28.5951  -21.8202   19.6393 C   0  0  0  0  0  0
  -29.1423  -24.2788   19.2735 C   0  0  1  0  0  0
  -29.5201  -20.8932   22.9141 C   0  0  0  0  0  0
  -29.3339  -18.7821   25.7837 C   0  0  0  0  0  0
  -30.4752  -20.1826   20.0475 C   0  0  0  0  0  0
  -28.7046  -25.7605   18.9932 C   0  0  0  0  0  0
  -28.3585  -18.6615   24.6047 C   0  0  0  0  0  0
  -29.9917  -21.6027   20.0858 N   0  0  0  0  0  0
  -29.9849  -15.3005   21.4762 N   0  0  0  0  0  0
  -32.0468  -22.4677   20.5601 O   0  0  0  0  0  0
  -27.5517  -17.6335   24.8771 F   0  0  0  0  0  0
  -27.5709  -19.7352   24.5512 F   0  0  0  0  0  0
  -31.4832  -12.4834   19.0989 H   0  0  0  0  0  0
  -30.3854  -11.3173   19.7773 H   0  0  0  0  0  0
  -29.7420  -11.8200   17.4074 H   0  0  0  0  0  0
  -29.6563  -13.5242   17.7686 H   0  0  0  0  0  0
  -27.8293  -11.3200   18.7823 H   0  0  0  0  0  0
  -27.3715  -12.6709   17.7793 H   0  0  0  0  0  0
  -27.7247  -14.2507   19.6073 H   0  0  0  0  0  0
  -28.6997  -11.8676   21.2529 H   0  0  0  0  0  0
  -28.4327  -13.4425   21.9061 H   0  0  0  0  0  0
  -25.2718   -9.5712   22.4764 H   0  0  0  0  0  0
  -23.9962   -7.4650   22.7476 H   0  0  0  0  0  0
  -21.0790   -8.8774   19.8958 H   0  0  0  0  0  0
  -22.3634  -10.9675   19.6163 H   0  0  0  0  0  0
  -21.2042   -7.6141   23.9714 H   0  0  0  0  0  0
  -21.1464   -6.0508   25.9062 H   0  0  0  0  0  0
  -22.0604   -2.7598   23.2863 H   0  0  0  0  0  0
  -22.4050  -11.9973   22.4793 H   0  0  0  0  0  0
  -21.1114  -13.1404   22.2537 H   0  0  0  0  0  0
  -24.6822  -15.8488   20.5233 H   0  0  0  0  0  0
  -26.3083  -15.6161   20.1211 H   0  0  0  0  0  0
  -26.7146  -32.5503   23.1140 H   0  0  0  0  0  0
  -25.0083  -33.9759   25.0469 H   0  0  0  0  0  0
  -22.6994  -31.3079   21.4067 H   0  0  0  0  0  0
  -23.3738  -35.9650   23.3319 H   0  0  0  0  0  0
  -24.3584  -36.8900   22.2047 H   0  0  0  0  0  0
  -23.7265  -37.6521   23.6647 H   0  0  0  0  0  0
  -26.0656  -31.5818   20.6004 H   0  0  0  0  0  0
  -26.8254  -30.8656   21.9933 H   0  0  0  0  0  0
  -28.1057  -29.0580   21.1699 H   0  0  0  0  0  0
  -25.9976  -25.9297   19.0627 H   0  0  0  0  0  0
  -23.9629  -27.2821   19.0658 H   0  0  0  0  0  0
  -23.7325  -30.5966   19.4049 H   0  0  0  0  0  0
  -22.7407  -29.2459   19.8648 H   0  0  0  0  0  0
  -25.1288  -36.1948   25.0820 H   0  0  0  0  0  0
  -20.9958  -28.3263   24.1414 H   0  0  0  0  0  0
  -20.5670  -26.2293   23.3603 H   0  0  0  0  0  0
  -21.6643  -26.7452   22.1206 H   0  0  0  0  0  0
  -19.6910  -25.6295   21.1243 H   0  0  0  0  0  0
  -19.6685  -27.3192   20.6736 H   0  0  0  0  0  0
  -17.4188  -26.6678   21.4020 H   0  0  0  0  0  0
  -18.0322  -26.0075   22.9007 H   0  0  0  0  0  0
  -19.7932  -30.7256   24.2294 H   0  0  0  0  0  0
  -17.5023  -31.6273   24.5151 H   0  0  0  0  0  0
  -15.5361  -30.3009   23.7642 H   0  0  0  0  0  0
  -15.8657  -28.0826   22.7087 H   0  0  0  0  0  0
  -24.5892  -30.7114   25.7825 H   0  0  0  0  0  0
  -24.8972  -32.2920   26.4920 H   0  0  0  0  0  0
  -25.8088  -30.8910   27.0233 H   0  0  0  0  0  0
  -26.2863  -29.6785   24.1184 H   0  0  0  0  0  0
  -27.4042  -29.7270   25.4626 H   0  0  0  0  0  0
  -27.8721  -30.4316   23.9326 H   0  0  0  0  0  0
  -27.2676  -33.3614   26.2073 H   0  0  0  0  0  0
  -28.3857  -32.6886   25.0300 H   0  0  0  0  0  0
  -28.0737  -31.8438   26.5386 H   0  0  0  0  0  0
  -28.2602  -38.0092   24.7491 H   0  0  0  0  0  0
  -28.1067  -36.2626   24.6297 H   0  0  0  0  0  0
  -27.2297  -37.1458   25.8862 H   0  0  0  0  0  0
  -20.9310  -29.8782   21.6931 H   0  0  0  0  0  0
  -26.0173  -38.2857   24.1405 H   0  0  0  0  0  0
  -30.7018  -17.4928   19.8352 H   0  0  0  0  0  0
  -28.9564  -16.2850   23.5635 H   0  0  0  0  0  0
  -31.1733  -24.7372   19.8606 H   0  0  0  0  0  0
  -30.1041  -24.4348   21.2091 H   0  0  0  0  0  0
  -27.7694  -23.5110   20.7610 H   0  0  0  0  0  0
  -27.1642  -23.3898   19.1296 H   0  0  0  0  0  0
  -28.5410  -21.5065   18.5959 H   0  0  0  0  0  0
  -27.9298  -21.1492   20.1841 H   0  0  0  0  0  0
  -29.4588  -23.9227   18.2905 H   0  0  0  0  0  0
  -30.4620  -21.3852   22.6829 H   0  0  0  0  0  0
  -29.4425  -20.9770   23.9933 H   0  0  0  0  0  0
  -28.6923  -21.4513   22.4791 H   0  0  0  0  0  0
  -29.9045  -17.8628   25.9117 H   0  0  0  0  0  0
  -28.7988  -18.9699   26.7146 H   0  0  0  0  0  0
  -30.0501  -19.5907   25.6469 H   0  0  0  0  0  0
  -30.1546  -19.7802   19.0860 H   0  0  0  0  0  0
  -31.5630  -20.1468   19.9868 H   0  0  0  0  0  0
  -27.9328  -25.7557   18.2254 H   0  0  0  0  0  0
  -29.5447  -26.2442   18.4936 H   0  0  0  0  0  0
  -29.2988  -14.7795   22.0012 H   0  0  0  0  0  0
  1 25  1  0  0  0
  1 30  2  0  0  0
  1 88  1  0  0  0
  2  3  1  0  0  0
  2 25  1  0  0  0
  2 92  1  0  0  0
  2 93  1  0  0  0
  3  4  1  0  0  0
  3 94  1  0  0  0
  3 95  1  0  0  0
  4  5  1  0  0  0
  4 96  1  0  0  0
  4 97  1  0  0  0
  5  6  1  0  0  0
  5 26  1  0  0  0
  5 98  1  0  0  0
  6 25  1  0  0  0
  6 99  1  0  0  0
  6100  1  0  0  0
  7  8  2  0  0  0
  7 26  1  0  0  0
  7 29  1  0  0  0
  8  9  1  0  0  0
  8 22  1  0  0  0
  9 10  1  0  0  0
  9 27  2  0  0  0
 10 11  2  0  0  0
 10 15  1  0  0  0
 11 12  1  0  0  0
 11101  1  0  0  0
 12 13  2  0  0  0
 12102  1  0  0  0
 13 14  1  0  0  0
 13 31  1  0  0  0
 14 15  2  0  0  0
 14103  1  0  0  0
 15104  1  0  0  0
 16 17  2  0  0  0
 16 21  1  0  0  0
 16 31  1  0  0  0
 17 18  1  0  0  0
 17105  1  0  0  0
 18 19  2  0  0  0
 18106  1  0  0  0
 19 20  1  0  0  0
 19 24  1  0  0  0
 20 21  2  0  0  0
 20107  1  0  0  0
 21 23  1  0  0  0
 22 28  1  0  0  0
 22 32  2  0  0  0
 26 27  1  0  0  0
 28108  1  0  0  0
 28109  1  0  0  0
 29110  1  0  0  0
 29111  1  0  0  0
 33 34  1  0  0  0
 33 66  1  0  0  0
 33 70  2  0  0  0
 34 36  1  0  0  0
 34 59  1  0  0  0
 34112  1  0  0  0
 35 44  2  0  0  0
 35 45  1  0  0  0
 35 68  1  0  0  0
 36 56  1  0  0  0
 36113  1  0  0  0
 37 39  1  0  0  0
 37 47  1  0  0  0
 37 66  1  0  0  0
 37114  1  0  0  0
 38 43  2  0  0  0
 38 46  1  0  0  0
 38 47  1  0  0  0
 39 64  1  0  0  0
 39 67  2  0  0  0
 40 52  1  0  0  0
 40 53  2  0  0  0
 40 58  1  0  0  0
 41115  1  0  0  0
 41116  1  0  0  0
 41117  1  0  0  0
 41 48  1  0  0  0
 42 43  1  0  0  0
 42 66  1  0  0  0
 42118  1  0  0  0
 42119  1  0  0  0
 43 44  1  0  0  0
 44120  1  0  0  0
 45 46  2  0  0  0
 45121  1  0  0  0
 46122  1  0  0  0
 47123  1  0  0  0
 47124  1  0  0  0
 48 56  1  0  0  0
 48 65  1  0  0  0
 48125  1  0  0  0
 49 50  1  0  0  0
 49 53  1  0  0  0
 49 64  1  0  0  0
 49126  1  0  0  0
 50 51  1  0  0  0
 50127  1  0  0  0
 50128  1  0  0  0
 51 52  1  0  0  0
 51129  1  0  0  0
 51130  1  0  0  0
 52131  1  0  0  0
 52132  1  0  0  0
 53 54  1  0  0  0
 54 55  2  0  0  0
 54133  1  0  0  0
 55 57  1  0  0  0
 55134  1  0  0  0
 56 69  2  0  0  0
 57 58  2  0  0  0
 57135  1  0  0  0
 58136  1  0  0  0
 59 60  1  0  0  0
 59 61  1  0  0  0
 59 62  1  0  0  0
 60137  1  0  0  0
 60138  1  0  0  0
 60139  1  0  0  0
 61140  1  0  0  0
 61141  1  0  0  0
 61142  1  0  0  0
 62143  1  0  0  0
 62144  1  0  0  0
 62145  1  0  0  0
 63 65  1  0  0  0
 63146  1  0  0  0
 63147  1  0  0  0
 63148  1  0  0  0
 64149  1  0  0  0
 65150  1  0  0  0
 68 85  1  0  0  0
 71 73  2  0  0  0
 71 76  1  0  0  0
 71151  1  0  0  0
 72 74  1  0  0  0
 72 76  2  0  0  0
 72152  1  0  0  0
 73 75  1  0  0  0
 73 84  1  0  0  0
 74 75  2  0  0  0
 74 86  1  0  0  0
 75 82  1  0  0  0
 76 88  1  0  0  0
 77 78  1  0  0  0
 77 87  1  0  0  0
 77 89  2  0  0  0
 78 81  1  0  0  0
 78153  1  0  0  0
 78154  1  0  0  0
 79 80  1  0  0  0
 79 81  1  0  0  0
 79155  1  0  0  0
 79156  1  0  0  0
 80 87  1  0  0  0
 80157  1  0  0  0
 80158  1  0  0  0
 81 85  1  0  0  0
 81159  1  0  0  0
 82160  1  0  0  0
 82161  1  0  0  0
 82162  1  0  0  0
 83163  1  0  0  0
 83164  1  0  0  0
 83165  1  0  0  0
 83 86  1  0  0  0
 84 87  1  0  0  0
 84166  1  0  0  0
 84167  1  0  0  0
 85168  1  0  0  0
 85169  1  0  0  0
 86 90  1  0  0  0
 86 91  1  0  0  0
 88170  1  0  0  0
M  ISO  4   1 100  68 101  85 101  88 100
M  END
> <chiral flag>
0

> <version>
0

> <s_m_source_file>
/data/baiqing/PycharmProjects/Reinvent-master-3.2/result/LINK_invent/BTK/process_docking_weight1_custom_product_contain_oxygen_bond_distance_aromatic_linkinvent_7_9_3/rearranged_h_0053.sdf

> <i_m_source_file_index>
56

> <r_mmod_Potential_Energy-OPLS-2005>
8.37057304382324

> <r_mmod_Stretch_Energy-OPLS-2005>
57.9064521789551

> <r_mmod_Bend_Energy-OPLS-2005>
162.906280517578

> <r_mmod_Torsional_Energy-OPLS-2005>
244.129898071289

> <r_mmod_Improper_Torsional_Energy-OPLS-2005>
3.14966201782227

> <r_mmod_Van_der_Waal_Energy-OPLS-2005>
171.295516967773

> <r_mmod_Electrostatic_Energy-OPLS-2005>
-425.285614013672

> <r_mmod_Solvation_Energy-OPLS-2005>
-224.279098510742

> <b_mmod_Minimization_Converged-OPLS-2005>
0

> <r_mmod_RMS_Derivative-OPLS-2005>
1.89558804035187

$$$$
56
                    3D
 Structure written by MMmdl.
175184  0  0  1  0            999 V2000
  -30.7296  -14.4922   20.5733 C   0  0  0  0  0  0
  -30.4321  -12.3212   19.4408 C   0  0  0  0  0  0
  -29.5054  -12.5060   18.2208 C   0  0  0  0  0  0
  -28.0285  -12.3566   18.6323 C   0  0  0  0  0  0
  -27.6683  -13.2088   19.8784 C   0  0  2  0  0  0
  -28.7112  -13.0186   21.0056 C   0  0  0  0  0  0
  -25.2622  -13.8173   20.5683 C   0  0  0  0  0  0
  -24.1857  -13.0462   20.9181 C   0  0  0  0  0  0
  -24.6400  -11.6924   20.8742 C   0  0  0  0  0  0
  -23.9050  -10.4313   21.0407 C   0  0  0  0  0  0
  -24.3599   -9.4234   21.9188 C   0  0  0  0  0  0
  -23.6277   -8.2262   22.0747 C   0  0  0  0  0  0
  -22.4268   -8.0289   21.3524 C   0  0  0  0  0  0
  -21.9901   -9.0271   20.4636 C   0  0  0  0  0  0
  -22.7224  -10.2154   20.3055 C   0  0  0  0  0  0
  -21.6861   -6.0736   22.5270 C   0  0  0  0  0  0
  -21.4016   -6.5639   23.8207 C   0  0  0  0  0  0
  -21.3648   -5.6784   24.9168 C   0  0  0  0  0  0
  -21.6049   -4.3047   24.7223 C   0  0  0  0  0  0
  -21.8821   -3.8139   23.4342 C   0  0  0  0  0  0
  -21.9203   -4.6959   22.3397 C   0  0  0  0  0  0
  -22.7882  -13.5275   21.1825 C   0  0  0  0  0  0
  -22.1671   -4.2145   21.0970 F   0  0  0  0  0  0
  -21.5624   -3.4530   25.7738 F   0  0  0  0  0  0
  -30.0470  -13.3160   20.4557 N   0  0  0  0  0  0
  -26.3066  -12.9335   20.3375 N   0  0  0  0  0  0
  -25.9336  -11.6500   20.5774 N   0  0  0  0  0  0
  -22.0488  -12.8292   22.0365 N   0  0  0  0  0  0
  -25.4375  -15.1879   20.4036 N   0  0  0  0  0  0
  -31.8527  -14.6431   20.0865 O   0  0  0  0  0  0
  -21.6637   -6.8879   21.4227 O   0  0  0  0  0  0
  -22.3592  -14.5600   20.6683 O   0  0  0  0  0  0
  -24.6137  -31.8766   23.2205 C   0  0  0  0  0  0
  -25.9072  -32.4866   23.8436 C   0  0  1  0  0  0
  -27.2396  -27.4312   20.1095 C   0  0  0  0  0  0
  -25.5924  -33.8648   24.2389 N   0  0  0  0  0  0
  -23.4039  -30.5093   21.5532 C   0  0  2  0  0  0
  -24.8543  -28.9667   20.1371 C   0  0  0  0  0  0
  -22.7370  -29.4806   22.4956 C   0  0  0  0  0  0
  -18.0295  -28.1469   22.8553 C   0  0  0  0  0  0
  -24.1449  -36.7298   23.2620 C   0  0  0  0  0  0
  -25.9370  -30.8329   21.3819 C   0  0  0  0  0  0
  -26.0175  -29.4567   20.7524 C   0  0  0  0  0  0
  -27.2151  -28.6910   20.7544 C   0  0  0  0  0  0
  -26.0539  -26.9551   19.5125 C   0  0  0  0  0  0
  -24.8678  -27.7079   19.5195 C   0  0  0  0  0  0
  -23.6237  -29.8472   20.1703 C   0  0  0  0  0  0
  -25.4085  -36.3166   24.0348 C   0  0  1  0  0  0
  -20.5875  -28.3778   23.1284 C   0  0  2  0  0  0
  -20.6765  -26.9506   22.5407 C   0  0  0  0  0  0
  -19.5736  -26.6505   21.5211 C   0  0  0  0  0  0
  -18.1925  -26.8033   22.1648 C   0  0  0  0  0  0
  -19.1546  -28.8931   23.2942 C   0  0  0  0  0  0
  -18.9484  -30.1505   23.8993 C   0  0  0  0  0  0
  -17.6489  -30.6664   24.0635 C   0  0  0  0  0  0
  -25.9010  -34.9502   23.5168 C   0  0  0  0  0  0
  -16.5382  -29.9210   23.6337 C   0  0  0  0  0  0
  -16.7274  -28.6620   23.0387 C   0  0  0  0  0  0
  -26.4520  -31.6610   25.0720 C   0  0  0  0  0  0
  -25.3813  -31.3644   26.1492 C   0  0  0  0  0  0
  -27.0341  -30.3061   24.6050 C   0  0  0  0  0  0
  -27.6134  -32.4271   25.7467 C   0  0  0  0  0  0
  -27.5568  -37.1807   24.8475 C   0  0  0  0  0  0
  -21.4108  -29.3151   22.3646 N   0  0  0  0  0  0
  -26.4281  -37.3851   23.9417 N   0  0  0  0  0  0
  -24.6688  -31.0861   22.1095 N   0  0  0  0  0  0
  -23.4130  -28.8315   23.3008 O   0  0  0  0  0  0
  -28.3250  -26.6170   19.8444 O   0  0  0  0  0  0
  -26.5556  -34.8968   22.4711 O   0  0  0  0  0  0
  -23.5371  -32.1505   23.7599 O   0  0  0  0  0  0
  -31.2244  -18.9393   20.0180 C   0  0  0  0  0  0
  -31.1727  -17.5398   20.1828 C   0  0  0  0  0  0
  -29.3071  -19.1851   21.4736 C   0  0  0  0  0  0
  -30.2902  -19.7893   20.6485 C   0  0  0  0  0  0
  -29.2924  -17.7841   21.6986 C   0  0  0  0  0  0
  -30.2058  -16.9297   21.0244 C   0  0  0  0  0  0
  -29.7961  -25.0953   20.8122 C   0  0  0  0  0  0
  -29.0349  -22.9377   21.8119 C   0  0  0  0  0  0
  -28.9248  -21.9909   25.3275 C   0  0  0  0  0  0
  -28.9698  -21.8503   23.9916 C   0  0  0  0  0  0
  -29.4690  -26.3968   20.5690 C   0  0  0  0  0  0
  -28.4576  -22.8273   23.0349 C   0  0  0  0  0  0
  -28.7489  -23.9869   20.7335 C   0  0  0  0  0  0
  -31.2417  -24.5818   20.9596 C   0  0  0  0  0  0
  -31.4440  -23.1788   21.6358 C   0  0  0  0  0  0
  -28.2826  -17.2022   22.6767 C   0  0  0  0  0  0
  -30.4597  -27.5432   20.5048 C   0  0  0  0  0  0
  -27.2894  -23.7266   23.4126 C   0  0  0  0  0  0
  -30.3056  -21.3032   20.3281 C   0  0  0  0  0  0
  -30.0689  -15.5019   21.1824 N   0  0  0  0  0  0
  -30.3054  -22.2246   21.5106 N   0  3  2  0  0  0
  -31.4745  -12.4196   19.1351 H   0  0  0  0  0  0
  -30.3410  -11.3150   19.8537 H   0  0  0  0  0  0
  -29.7565  -11.7791   17.4490 H   0  0  0  0  0  0
  -29.6668  -13.4891   17.7757 H   0  0  0  0  0  0
  -27.8578  -11.3009   18.8473 H   0  0  0  0  0  0
  -27.3754  -12.6075   17.7953 H   0  0  0  0  0  0
  -27.7087  -14.2526   19.5678 H   0  0  0  0  0  0
  -28.6886  -11.9929   21.3753 H   0  0  0  0  0  0
  -28.4611  -13.6384   21.8665 H   0  0  0  0  0  0
  -25.2741   -9.5726   22.4772 H   0  0  0  0  0  0
  -23.9993   -7.4664   22.7478 H   0  0  0  0  0  0
  -21.0829   -8.8784   19.8952 H   0  0  0  0  0  0
  -22.3670  -10.9689   19.6167 H   0  0  0  0  0  0
  -21.1998   -7.6146   23.9706 H   0  0  0  0  0  0
  -21.1464   -6.0512   25.9066 H   0  0  0  0  0  0
  -22.0609   -2.7602   23.2845 H   0  0  0  0  0  0
  -22.4049  -11.9952   22.4788 H   0  0  0  0  0  0
  -21.1100  -13.1346   22.2508 H   0  0  0  0  0  0
  -24.6696  -15.8446   20.4874 H   0  0  0  0  0  0
  -26.2846  -15.6129   20.0497 H   0  0  0  0  0  0
  -26.7089  -32.5658   23.1165 H   0  0  0  0  0  0
  -25.0108  -33.9770   25.0584 H   0  0  0  0  0  0
  -22.6964  -31.3310   21.4144 H   0  0  0  0  0  0
  -23.3746  -35.9595   23.3334 H   0  0  0  0  0  0
  -24.3501  -36.8885   22.2016 H   0  0  0  0  0  0
  -23.7165  -37.6494   23.6605 H   0  0  0  0  0  0
  -26.0392  -31.5821   20.5948 H   0  0  0  0  0  0
  -26.8304  -30.9137   21.9884 H   0  0  0  0  0  0
  -28.1064  -29.0857   21.2194 H   0  0  0  0  0  0
  -26.0633  -25.9950   19.0165 H   0  0  0  0  0  0
  -23.9819  -27.3237   19.0312 H   0  0  0  0  0  0
  -23.7576  -30.6288   19.4220 H   0  0  0  0  0  0
  -22.7436  -29.2856   19.8496 H   0  0  0  0  0  0
  -25.1261  -36.2023   25.0844 H   0  0  0  0  0  0
  -21.0021  -28.3408   24.1387 H   0  0  0  0  0  0
  -20.5671  -26.2404   23.3616 H   0  0  0  0  0  0
  -21.6628  -26.7541   22.1191 H   0  0  0  0  0  0
  -19.6847  -25.6438   21.1200 H   0  0  0  0  0  0
  -19.6655  -27.3344   20.6748 H   0  0  0  0  0  0
  -17.4167  -26.6827   21.4067 H   0  0  0  0  0  0
  -18.0318  -26.0157   22.9013 H   0  0  0  0  0  0
  -19.7960  -30.7292   24.2414 H   0  0  0  0  0  0
  -17.5075  -31.6339   24.5252 H   0  0  0  0  0  0
  -15.5393  -30.3167   23.7647 H   0  0  0  0  0  0
  -15.8656  -28.0954   22.7125 H   0  0  0  0  0  0
  -24.6021  -30.6931   25.7872 H   0  0  0  0  0  0
  -24.8921  -32.2754   26.4941 H   0  0  0  0  0  0
  -25.8238  -30.8841   27.0239 H   0  0  0  0  0  0
  -26.2854  -29.6754   24.1233 H   0  0  0  0  0  0
  -27.4275  -29.7357   25.4474 H   0  0  0  0  0  0
  -27.8636  -30.4376   23.9094 H   0  0  0  0  0  0
  -27.2818  -33.3588   26.2066 H   0  0  0  0  0  0
  -28.3955  -32.6809   25.0291 H   0  0  0  0  0  0
  -28.0776  -31.8324   26.5354 H   0  0  0  0  0  0
  -28.2680  -38.0038   24.7603 H   0  0  0  0  0  0
  -28.1024  -36.2614   24.6270 H   0  0  0  0  0  0
  -27.2281  -37.1408   25.8881 H   0  0  0  0  0  0
  -20.9195  -29.8895   21.6936 H   0  0  0  0  0  0
  -26.0187  -38.2920   24.1518 H   0  0  0  0  0  0
  -31.9652  -19.3532   19.3460 H   0  0  0  0  0  0
  -31.8796  -16.9546   19.6155 H   0  0  0  0  0  0
  -28.5411  -19.7950   21.9290 H   0  0  0  0  0  0
  -29.3141  -21.2149   25.9734 H   0  0  0  0  0  0
  -28.5167  -22.8694   25.8097 H   0  0  0  0  0  0
  -29.4016  -20.9279   23.6359 H   0  0  0  0  0  0
  -28.7824  -23.5529   19.7359 H   0  0  0  0  0  0
  -27.7403  -24.3828   20.8399 H   0  0  0  0  0  0
  -31.8507  -25.3201   21.4837 H   0  0  0  0  0  0
  -31.6571  -24.5354   19.9512 H   0  0  0  0  0  0
  -31.5715  -23.3525   22.7042 H   0  0  0  0  0  0
  -32.3750  -22.7084   21.3129 H   0  0  0  0  0  0
  -27.7626  -17.9787   23.2378 H   0  0  0  0  0  0
  -28.7943  -16.5674   23.4027 H   0  0  0  0  0  0
  -27.5365  -16.5944   22.1663 H   0  0  0  0  0  0
  -30.9722  -27.6530   21.4602 H   0  0  0  0  0  0
  -29.9820  -28.4930   20.2696 H   0  0  0  0  0  0
  -31.1995  -27.3612   19.7276 H   0  0  0  0  0  0
  -27.6349  -24.7561   23.5064 H   0  0  0  0  0  0
  -26.8252  -23.4277   24.3538 H   0  0  0  0  0  0
  -26.5073  -23.7050   22.6560 H   0  0  0  0  0  0
  -29.4465  -21.4941   19.6867 H   0  0  0  0  0  0
  -31.1789  -21.5160   19.7114 H   0  0  0  0  0  0
  -29.2371  -15.2063   21.6660 H   0  0  0  0  0  0
  -30.4649  -21.5794   22.2685 H   0  0  0  0  0  0
  1 25  1  0  0  0
  1 30  2  0  0  0
  1 90  1  0  0  0
  2  3  1  0  0  0
  2 25  1  0  0  0
  2 92  1  0  0  0
  2 93  1  0  0  0
  3  4  1  0  0  0
  3 94  1  0  0  0
  3 95  1  0  0  0
  4  5  1  0  0  0
  4 96  1  0  0  0
  4 97  1  0  0  0
  5  6  1  0  0  0
  5 26  1  0  0  0
  5 98  1  0  0  0
  6 25  1  0  0  0
  6 99  1  0  0  0
  6100  1  0  0  0
  7  8  2  0  0  0
  7 26  1  0  0  0
  7 29  1  0  0  0
  8  9  1  0  0  0
  8 22  1  0  0  0
  9 10  1  0  0  0
  9 27  2  0  0  0
 10 11  2  0  0  0
 10 15  1  0  0  0
 11 12  1  0  0  0
 11101  1  0  0  0
 12 13  2  0  0  0
 12102  1  0  0  0
 13 14  1  0  0  0
 13 31  1  0  0  0
 14 15  2  0  0  0
 14103  1  0  0  0
 15104  1  0  0  0
 16 17  2  0  0  0
 16 21  1  0  0  0
 16 31  1  0  0  0
 17 18  1  0  0  0
 17105  1  0  0  0
 18 19  2  0  0  0
 18106  1  0  0  0
 19 20  1  0  0  0
 19 24  1  0  0  0
 20 21  2  0  0  0
 20107  1  0  0  0
 21 23  1  0  0  0
 22 28  1  0  0  0
 22 32  2  0  0  0
 26 27  1  0  0  0
 28108  1  0  0  0
 28109  1  0  0  0
 29110  1  0  0  0
 29111  1  0  0  0
 33 34  1  0  0  0
 33 66  1  0  0  0
 33 70  2  0  0  0
 34 36  1  0  0  0
 34 59  1  0  0  0
 34112  1  0  0  0
 35 44  2  0  0  0
 35 45  1  0  0  0
 35 68  1  0  0  0
 36 56  1  0  0  0
 36113  1  0  0  0
 37 39  1  0  0  0
 37 47  1  0  0  0
 37 66  1  0  0  0
 37114  1  0  0  0
 38 43  2  0  0  0
 38 46  1  0  0  0
 38 47  1  0  0  0
 39 64  1  0  0  0
 39 67  2  0  0  0
 40 52  1  0  0  0
 40 53  2  0  0  0
 40 58  1  0  0  0
 41115  1  0  0  0
 41116  1  0  0  0
 41117  1  0  0  0
 41 48  1  0  0  0
 42 43  1  0  0  0
 42 66  1  0  0  0
 42118  1  0  0  0
 42119  1  0  0  0
 43 44  1  0  0  0
 44120  1  0  0  0
 45 46  2  0  0  0
 45121  1  0  0  0
 46122  1  0  0  0
 47123  1  0  0  0
 47124  1  0  0  0
 48 56  1  0  0  0
 48 65  1  0  0  0
 48125  1  0  0  0
 49 50  1  0  0  0
 49 53  1  0  0  0
 49 64  1  0  0  0
 49126  1  0  0  0
 50 51  1  0  0  0
 50127  1  0  0  0
 50128  1  0  0  0
 51 52  1  0  0  0
 51129  1  0  0  0
 51130  1  0  0  0
 52131  1  0  0  0
 52132  1  0  0  0
 53 54  1  0  0  0
 54 55  2  0  0  0
 54133  1  0  0  0
 55 57  1  0  0  0
 55134  1  0  0  0
 56 69  2  0  0  0
 57 58  2  0  0  0
 57135  1  0  0  0
 58136  1  0  0  0
 59 60  1  0  0  0
 59 61  1  0  0  0
 59 62  1  0  0  0
 60137  1  0  0  0
 60138  1  0  0  0
 60139  1  0  0  0
 61140  1  0  0  0
 61141  1  0  0  0
 61142  1  0  0  0
 62143  1  0  0  0
 62144  1  0  0  0
 62145  1  0  0  0
 63 65  1  0  0  0
 63146  1  0  0  0
 63147  1  0  0  0
 63148  1  0  0  0
 64149  1  0  0  0
 65150  1  0  0  0
 68 81  1  0  0  0
 71 72  2  0  0  0
 71 74  1  0  0  0
 71151  1  0  0  0
 72 76  1  0  0  0
 72152  1  0  0  0
 73 74  2  0  0  0
 73 75  1  0  0  0
 73153  1  0  0  0
 74 89  1  0  0  0
 75 76  2  0  0  0
 75 86  1  0  0  0
 76 90  1  0  0  0
 77 81  2  0  0  0
 77 83  1  0  0  0
 77 84  1  0  0  0
 78 82  2  0  0  0
 78 83  1  0  0  0
 78 91  1  0  0  0
 79 80  2  0  0  0
 79154  1  0  0  0
 79155  1  0  0  0
 80 82  1  0  0  0
 80156  1  0  0  0
 81 87  1  0  0  0
 82 88  1  0  0  0
 83157  1  0  0  0
 83158  1  0  0  0
 84 85  1  0  0  0
 84159  1  0  0  0
 84160  1  0  0  0
 85 91  1  0  0  0
 85161  1  0  0  0
 85162  1  0  0  0
 86163  1  0  0  0
 86164  1  0  0  0
 86165  1  0  0  0
 87166  1  0  0  0
 87167  1  0  0  0
 87168  1  0  0  0
 88169  1  0  0  0
 88170  1  0  0  0
 88171  1  0  0  0
 89172  1  0  0  0
 89173  1  0  0  0
 89 91  1  0  0  0
 90174  1  0  0  0
 91175  1  0  0  0
M  CHG  1  91   1
M  ISO  4   1 100  68 101  81 101  90 100
M  END
> <chiral flag>
0

> <version>
0

> <s_m_source_file>
/data/baiqing/PycharmProjects/Reinvent-master-3.2/result/LINK_invent/BTK/process_docking_weight1_custom_product_contain_oxygen_bond_distance_aromatic_linkinvent_7_9_3/rearranged_h_0053.sdf

> <i_m_source_file_index>
57

> <r_mmod_Potential_Energy-OPLS-2005>
-73.5201187133789

> <r_mmod_Stretch_Energy-OPLS-2005>
48.6034507751465

> <r_mmod_Bend_Energy-OPLS-2005>
166.045455932617

> <r_mmod_Torsional_Energy-OPLS-2005>
275.915954589844

> <r_mmod_Improper_Torsional_Energy-OPLS-2005>
6.52931880950928

> <r_mmod_Van_der_Waal_Energy-OPLS-2005>
157.439819335938

> <r_mmod_Electrostatic_Energy-OPLS-2005>
-336.430725097656

> <r_mmod_Solvation_Energy-OPLS-2005>
-410.419494628906

> <b_mmod_Minimization_Converged-OPLS-2005>
0

> <r_mmod_RMS_Derivative-OPLS-2005>
5.68581771850586

$$$$
57
                    3D
 Structure written by MMmdl.
164172  0  0  1  0            999 V2000
  -30.8040  -14.3149   20.7628 C   0  0  0  0  0  0
  -30.4152  -12.3009   19.3831 C   0  0  0  0  0  0
  -29.4834  -12.5373   18.1805 C   0  0  0  0  0  0
  -28.0093  -12.3729   18.5908 C   0  0  0  0  0  0
  -27.6638  -13.1923   19.8581 C   0  0  2  0  0  0
  -28.6968  -12.9197   20.9685 C   0  0  0  0  0  0
  -25.2640  -13.8123   20.5717 C   0  0  0  0  0  0
  -24.1863  -13.0403   20.9186 C   0  0  0  0  0  0
  -24.6383  -11.6880   20.8701 C   0  0  0  0  0  0
  -23.9037  -10.4275   21.0364 C   0  0  0  0  0  0
  -24.3614   -9.4210   21.9142 C   0  0  0  0  0  0
  -23.6292   -8.2237   22.0718 C   0  0  0  0  0  0
  -22.4272   -8.0273   21.3526 C   0  0  0  0  0  0
  -21.9860   -9.0242   20.4633 C   0  0  0  0  0  0
  -22.7191  -10.2108   20.3050 C   0  0  0  0  0  0
  -21.6841   -6.0753   22.5287 C   0  0  0  0  0  0
  -21.4019   -6.5660   23.8226 C   0  0  0  0  0  0
  -21.3647   -5.6807   24.9193 C   0  0  0  0  0  0
  -21.6055   -4.3072   24.7248 C   0  0  0  0  0  0
  -21.8819   -3.8155   23.4360 C   0  0  0  0  0  0
  -21.9169   -4.6973   22.3425 C   0  0  0  0  0  0
  -22.7891  -13.5211   21.1838 C   0  0  0  0  0  0
  -22.1634   -4.2159   21.1006 F   0  0  0  0  0  0
  -21.5606   -3.4560   25.7762 F   0  0  0  0  0  0
  -30.0461  -13.2227   20.4713 N   0  0  0  0  0  0
  -26.3031  -12.9258   20.3233 N   0  0  0  0  0  0
  -25.9286  -11.6442   20.5662 N   0  0  0  0  0  0
  -22.0522  -12.8218   22.0396 N   0  0  0  0  0  0
  -25.4370  -15.1837   20.4270 N   0  0  0  0  0  0
  -31.7297  -14.6995   20.0421 O   0  0  0  0  0  0
  -21.6629   -6.8892   21.4251 O   0  0  0  0  0  0
  -22.3559  -14.5476   20.6629 O   0  0  0  0  0  0
  -24.6120  -31.8688   23.2148 C   0  0  0  0  0  0
  -25.9031  -32.4822   23.8449 C   0  0  1  0  0  0
  -27.2436  -27.4690   20.0754 C   0  0  0  0  0  0
  -25.5918  -33.8630   24.2373 N   0  0  0  0  0  0
  -23.3979  -30.4913   21.5543 C   0  0  2  0  0  0
  -24.8427  -28.9592   20.1200 C   0  0  0  0  0  0
  -22.7399  -29.4653   22.5042 C   0  0  0  0  0  0
  -18.0262  -28.1359   22.8492 C   0  0  0  0  0  0
  -24.1474  -36.7319   23.2652 C   0  0  0  0  0  0
  -25.9234  -30.8450   21.3608 C   0  0  0  0  0  0
  -25.9988  -29.4814   20.7080 C   0  0  0  0  0  0
  -27.1994  -28.7442   20.6797 C   0  0  0  0  0  0
  -26.0621  -26.9406   19.5062 C   0  0  0  0  0  0
  -24.8664  -27.6872   19.5251 C   0  0  0  0  0  0
  -23.6017  -29.8226   20.1700 C   0  0  0  0  0  0
  -25.4093  -36.3129   24.0361 C   0  0  1  0  0  0
  -20.5860  -28.3607   23.1359 C   0  0  2  0  0  0
  -20.6747  -26.9347   22.5442 C   0  0  0  0  0  0
  -19.5730  -26.6370   21.5226 C   0  0  0  0  0  0
  -18.1899  -26.7920   22.1621 C   0  0  0  0  0  0
  -19.1515  -28.8801   23.2912 C   0  0  0  0  0  0
  -18.9441  -30.1418   23.8892 C   0  0  0  0  0  0
  -17.6445  -30.6565   24.0548 C   0  0  0  0  0  0
  -25.9031  -34.9474   23.5156 C   0  0  0  0  0  0
  -16.5336  -29.9051   23.6331 C   0  0  0  0  0  0
  -16.7255  -28.6475   23.0351 C   0  0  0  0  0  0
  -26.4475  -31.6619   25.0775 C   0  0  0  0  0  0
  -25.3781  -31.3704   26.1560 C   0  0  0  0  0  0
  -27.0325  -30.3086   24.6140 C   0  0  0  0  0  0
  -27.6052  -32.4365   25.7512 C   0  0  0  0  0  0
  -27.5579  -37.1809   24.8474 C   0  0  0  0  0  0
  -21.4121  -29.3015   22.3799 N   0  0  0  0  0  0
  -26.4275  -37.3817   23.9442 N   0  0  0  0  0  0
  -24.6632  -31.0823   22.1030 N   0  0  0  0  0  0
  -23.4208  -28.8215   23.3068 O   0  0  0  0  0  0
  -28.4605  -26.8222   20.0470 O   0  0  0  0  0  0
  -26.5564  -34.8913   22.4696 O   0  0  0  0  0  0
  -23.5313  -32.1427   23.7563 O   0  0  0  0  0  0
  -27.8744  -16.0956   24.0576 C   0  0  0  0  0  0
  -28.8237  -15.2194   23.5081 C   0  0  0  0  0  0
  -29.7401  -17.0411   22.1819 C   0  0  0  0  0  0
  -28.8290  -17.9508   22.7713 C   0  0  0  0  0  0
  -27.8635  -17.4578   23.7013 C   0  0  0  0  0  0
  -29.7226  -15.6705   22.5201 C   0  0  0  0  0  0
  -28.9945  -19.4223   22.4954 C   0  0  0  0  0  0
  -28.2550  -24.7636   21.3447 C   0  0  0  0  0  0
  -26.8464  -18.3514   24.4051 C   0  0  0  0  0  0
  -29.4679  -22.6075   23.4896 C   0  0  0  0  0  0
  -28.5116  -25.3943   19.9686 C   0  0  0  0  0  0
  -27.3105  -21.3802   22.4496 C   0  0  0  0  0  0
  -28.1724  -22.6590   22.6645 C   0  0  2  0  0  0
  -30.7220  -14.7966   22.0159 N   0  0  0  0  0  0
  -27.8709  -20.0556   22.1302 N   0  0  0  0  0  0
  -28.3436  -23.4265   21.4314 N   0  0  0  0  0  0
  -30.0996  -19.9458   22.6230 O   0  0  0  0  0  0
  -28.0022  -25.4726   22.3240 O   0  0  0  0  0  0
  -31.4577  -12.4176   19.0826 H   0  0  0  0  0  0
  -30.3209  -11.2678   19.7246 H   0  0  0  0  0  0
  -29.7238  -11.8411   17.3776 H   0  0  0  0  0  0
  -29.6436  -13.5379   17.7768 H   0  0  0  0  0  0
  -27.8264  -11.3136   18.7738 H   0  0  0  0  0  0
  -27.3568  -12.6572   17.7656 H   0  0  0  0  0  0
  -27.7222  -14.2473   19.5888 H   0  0  0  0  0  0
  -28.6558  -11.8742   21.2745 H   0  0  0  0  0  0
  -28.4036  -13.4836   21.8367 H   0  0  0  0  0  0
  -25.2782   -9.5694   22.4707 H   0  0  0  0  0  0
  -24.0018   -7.4602   22.7427 H   0  0  0  0  0  0
  -21.0762   -8.8729   19.8973 H   0  0  0  0  0  0
  -22.3599  -10.9631   19.6168 H   0  0  0  0  0  0
  -21.2061   -7.6165   23.9769 H   0  0  0  0  0  0
  -21.1445   -6.0523   25.9094 H   0  0  0  0  0  0
  -22.0605   -2.7610   23.2856 H   0  0  0  0  0  0
  -22.4058  -11.9834   22.4746 H   0  0  0  0  0  0
  -21.1165  -13.1304   22.2578 H   0  0  0  0  0  0
  -24.6795  -15.8398   20.5912 H   0  0  0  0  0  0
  -26.3135  -15.6322   20.1857 H   0  0  0  0  0  0
  -26.7091  -32.5518   23.1203 H   0  0  0  0  0  0
  -25.0152  -33.9828   25.0575 H   0  0  0  0  0  0
  -22.6826  -31.3064   21.4192 H   0  0  0  0  0  0
  -23.3748  -35.9642   23.3313 H   0  0  0  0  0  0
  -24.3577  -36.8944   22.2077 H   0  0  0  0  0  0
  -23.7206  -37.6522   23.6627 H   0  0  0  0  0  0
  -26.0374  -31.6136   20.5943 H   0  0  0  0  0  0
  -26.8103  -30.8931   21.9793 H   0  0  0  0  0  0
  -28.0964  -29.1562   21.1208 H   0  0  0  0  0  0
  -26.0394  -25.9777   19.0213 H   0  0  0  0  0  0
  -23.9753  -27.2776   19.0711 H   0  0  0  0  0  0
  -23.6940  -30.5959   19.4067 H   0  0  0  0  0  0
  -22.7274  -29.2361   19.8859 H   0  0  0  0  0  0
  -25.1248  -36.1993   25.0852 H   0  0  0  0  0  0
  -20.9903  -28.3116   24.1499 H   0  0  0  0  0  0
  -20.5630  -26.2194   23.3606 H   0  0  0  0  0  0
  -21.6598  -26.7392   22.1210 H   0  0  0  0  0  0
  -19.6854  -25.6281   21.1234 H   0  0  0  0  0  0
  -19.6670  -27.3193   20.6760 H   0  0  0  0  0  0
  -17.4179  -26.6708   21.4008 H   0  0  0  0  0  0
  -18.0221  -26.0056   22.8988 H   0  0  0  0  0  0
  -19.7915  -30.7248   24.2251 H   0  0  0  0  0  0
  -17.4991  -31.6250   24.5150 H   0  0  0  0  0  0
  -15.5324  -30.2943   23.7680 H   0  0  0  0  0  0
  -15.8661  -28.0803   22.7068 H   0  0  0  0  0  0
  -24.5907  -30.7088   25.7943 H   0  0  0  0  0  0
  -24.9008  -32.2847   26.5089 H   0  0  0  0  0  0
  -25.8186  -30.8836   27.0275 H   0  0  0  0  0  0
  -26.2862  -29.6830   24.1238 H   0  0  0  0  0  0
  -27.4203  -29.7336   25.4563 H   0  0  0  0  0  0
  -27.8624  -30.4492   23.9218 H   0  0  0  0  0  0
  -27.2664  -33.3653   26.2119 H   0  0  0  0  0  0
  -28.3808  -32.6996   25.0302 H   0  0  0  0  0  0
  -28.0760  -31.8497   26.5408 H   0  0  0  0  0  0
  -28.2598  -38.0110   24.7529 H   0  0  0  0  0  0
  -28.1073  -36.2646   24.6236 H   0  0  0  0  0  0
  -27.2315  -37.1406   25.8887 H   0  0  0  0  0  0
  -20.9249  -29.8794   21.7081 H   0  0  0  0  0  0
  -26.0173  -38.2900   24.1438 H   0  0  0  0  0  0
  -27.1816  -15.7192   24.7995 H   0  0  0  0  0  0
  -28.8481  -14.1933   23.8493 H   0  0  0  0  0  0
  -30.4916  -17.4135   21.4990 H   0  0  0  0  0  0
  -26.3083  -17.8108   25.1846 H   0  0  0  0  0  0
  -26.1051  -18.7297   23.7001 H   0  0  0  0  0  0
  -27.3421  -19.1964   24.8838 H   0  0  0  0  0  0
  -29.4011  -21.8830   24.3011 H   0  0  0  0  0  0
  -29.6673  -23.5809   23.9413 H   0  0  0  0  0  0
  -30.3396  -22.3781   22.8784 H   0  0  0  0  0  0
  -27.8594  -24.9721   19.2081 H   0  0  0  0  0  0
  -29.5256  -25.1294   19.6709 H   0  0  0  0  0  0
  -26.5285  -21.5876   21.7202 H   0  0  0  0  0  0
  -26.7621  -21.2280   23.3784 H   0  0  0  0  0  0
  -27.5013  -23.2542   23.2868 H   0  0  0  0  0  0
  -31.6381  -15.1571   22.2396 H   0  0  0  0  0  0
  -27.1477  -19.3914   21.8865 H   0  0  0  0  0  0
  -28.5693  -22.9117   20.5887 H   0  0  0  0  0  0
  1 25  1  0  0  0
  1 30  2  0  0  0
  1 84  1  0  0  0
  2  3  1  0  0  0
  2 25  1  0  0  0
  2 89  1  0  0  0
  2 90  1  0  0  0
  3  4  1  0  0  0
  3 91  1  0  0  0
  3 92  1  0  0  0
  4  5  1  0  0  0
  4 93  1  0  0  0
  4 94  1  0  0  0
  5  6  1  0  0  0
  5 26  1  0  0  0
  5 95  1  0  0  0
  6 25  1  0  0  0
  6 96  1  0  0  0
  6 97  1  0  0  0
  7  8  2  0  0  0
  7 26  1  0  0  0
  7 29  1  0  0  0
  8  9  1  0  0  0
  8 22  1  0  0  0
  9 10  1  0  0  0
  9 27  2  0  0  0
 10 11  2  0  0  0
 10 15  1  0  0  0
 11 12  1  0  0  0
 11 98  1  0  0  0
 12 13  2  0  0  0
 12 99  1  0  0  0
 13 14  1  0  0  0
 13 31  1  0  0  0
 14 15  2  0  0  0
 14100  1  0  0  0
 15101  1  0  0  0
 16 17  2  0  0  0
 16 21  1  0  0  0
 16 31  1  0  0  0
 17 18  1  0  0  0
 17102  1  0  0  0
 18 19  2  0  0  0
 18103  1  0  0  0
 19 20  1  0  0  0
 19 24  1  0  0  0
 20 21  2  0  0  0
 20104  1  0  0  0
 21 23  1  0  0  0
 22 28  1  0  0  0
 22 32  2  0  0  0
 26 27  1  0  0  0
 28105  1  0  0  0
 28106  1  0  0  0
 29107  1  0  0  0
 29108  1  0  0  0
 33 34  1  0  0  0
 33 66  1  0  0  0
 33 70  2  0  0  0
 34 36  1  0  0  0
 34 59  1  0  0  0
 34109  1  0  0  0
 35 44  2  0  0  0
 35 45  1  0  0  0
 35 68  1  0  0  0
 36 56  1  0  0  0
 36110  1  0  0  0
 37 39  1  0  0  0
 37 47  1  0  0  0
 37 66  1  0  0  0
 37111  1  0  0  0
 38 43  2  0  0  0
 38 46  1  0  0  0
 38 47  1  0  0  0
 39 64  1  0  0  0
 39 67  2  0  0  0
 40 52  1  0  0  0
 40 53  2  0  0  0
 40 58  1  0  0  0
 41112  1  0  0  0
 41113  1  0  0  0
 41114  1  0  0  0
 41 48  1  0  0  0
 42 43  1  0  0  0
 42 66  1  0  0  0
 42115  1  0  0  0
 42116  1  0  0  0
 43 44  1  0  0  0
 44117  1  0  0  0
 45 46  2  0  0  0
 45118  1  0  0  0
 46119  1  0  0  0
 47120  1  0  0  0
 47121  1  0  0  0
 48 56  1  0  0  0
 48 65  1  0  0  0
 48122  1  0  0  0
 49 50  1  0  0  0
 49 53  1  0  0  0
 49 64  1  0  0  0
 49123  1  0  0  0
 50 51  1  0  0  0
 50124  1  0  0  0
 50125  1  0  0  0
 51 52  1  0  0  0
 51126  1  0  0  0
 51127  1  0  0  0
 52128  1  0  0  0
 52129  1  0  0  0
 53 54  1  0  0  0
 54 55  2  0  0  0
 54130  1  0  0  0
 55 57  1  0  0  0
 55131  1  0  0  0
 56 69  2  0  0  0
 57 58  2  0  0  0
 57132  1  0  0  0
 58133  1  0  0  0
 59 60  1  0  0  0
 59 61  1  0  0  0
 59 62  1  0  0  0
 60134  1  0  0  0
 60135  1  0  0  0
 60136  1  0  0  0
 61137  1  0  0  0
 61138  1  0  0  0
 61139  1  0  0  0
 62140  1  0  0  0
 62141  1  0  0  0
 62142  1  0  0  0
 63 65  1  0  0  0
 63143  1  0  0  0
 63144  1  0  0  0
 63145  1  0  0  0
 64146  1  0  0  0
 65147  1  0  0  0
 68 81  1  0  0  0
 71 72  2  0  0  0
 71 75  1  0  0  0
 71148  1  0  0  0
 72 76  1  0  0  0
 72149  1  0  0  0
 73 74  1  0  0  0
 73 76  2  0  0  0
 73150  1  0  0  0
 74 75  2  0  0  0
 74 77  1  0  0  0
 75 79  1  0  0  0
 76 84  1  0  0  0
 77 85  1  0  0  0
 77 87  2  0  0  0
 78 81  1  0  0  0
 78 86  1  0  0  0
 78 88  2  0  0  0
 79151  1  0  0  0
 79152  1  0  0  0
 79153  1  0  0  0
 80154  1  0  0  0
 80155  1  0  0  0
 80156  1  0  0  0
 80 83  1  0  0  0
 81157  1  0  0  0
 81158  1  0  0  0
 82 83  1  0  0  0
 82 85  1  0  0  0
 82159  1  0  0  0
 82160  1  0  0  0
 83 86  1  0  0  0
 83161  1  0  0  0
 84162  1  0  0  0
 85163  1  0  0  0
 86164  1  0  0  0
M  ISO  4   1 100  68 101  81 101  84 100
M  END
> <chiral flag>
0

> <version>
0

> <s_m_source_file>
/data/baiqing/PycharmProjects/Reinvent-master-3.2/result/LINK_invent/BTK/process_docking_weight1_custom_product_contain_oxygen_bond_distance_aromatic_linkinvent_7_9_3/rearranged_h_0053.sdf

> <i_m_source_file_index>
58

> <r_mmod_Potential_Energy-OPLS-2005>
-72.3467102050781

> <r_mmod_Stretch_Energy-OPLS-2005>
36.4719276428223

> <r_mmod_Bend_Energy-OPLS-2005>
158.092437744141

> <r_mmod_Torsional_Energy-OPLS-2005>
303.0966796875

> <r_mmod_Improper_Torsional_Energy-OPLS-2005>
14.4999465942383

> <r_mmod_Van_der_Waal_Energy-OPLS-2005>
159.883575439453

> <r_mmod_Electrostatic_Energy-OPLS-2005>
-497.763885498047

> <r_mmod_Solvation_Energy-OPLS-2005>
-256.859100341797

> <b_mmod_Minimization_Converged-OPLS-2005>
0

> <r_mmod_RMS_Derivative-OPLS-2005>
4.6074595451355

$$$$
58
                    3D
 Structure written by MMmdl.
155163  0  0  1  0            999 V2000
  -30.7605  -14.3730   20.6868 C   0  0  0  0  0  0
  -30.4274  -12.2915   19.3956 C   0  0  0  0  0  0
  -29.4913  -12.5368   18.1967 C   0  0  0  0  0  0
  -28.0161  -12.3864   18.6124 C   0  0  0  0  0  0
  -27.6745  -13.2028   19.8841 C   0  0  2  0  0  0
  -28.7129  -12.9374   20.9980 C   0  0  0  0  0  0
  -25.2662  -13.8168   20.5702 C   0  0  0  0  0  0
  -24.1881  -13.0461   20.9162 C   0  0  0  0  0  0
  -24.6413  -11.6921   20.8722 C   0  0  0  0  0  0
  -23.9074  -10.4304   21.0420 C   0  0  0  0  0  0
  -24.3614   -9.4220   21.9202 C   0  0  0  0  0  0
  -23.6279   -8.2265   22.0775 C   0  0  0  0  0  0
  -22.4262   -8.0304   21.3561 C   0  0  0  0  0  0
  -21.9896   -9.0287   20.4675 C   0  0  0  0  0  0
  -22.7237  -10.2158   20.3076 C   0  0  0  0  0  0
  -21.6857   -6.0731   22.5274 C   0  0  0  0  0  0
  -21.4016   -6.5634   23.8202 C   0  0  0  0  0  0
  -21.3659   -5.6787   24.9176 C   0  0  0  0  0  0
  -21.6051   -4.3055   24.7224 C   0  0  0  0  0  0
  -21.8821   -3.8141   23.4346 C   0  0  0  0  0  0
  -21.9196   -4.6955   22.3394 C   0  0  0  0  0  0
  -22.7911  -13.5285   21.1831 C   0  0  0  0  0  0
  -22.1670   -4.2144   21.0973 F   0  0  0  0  0  0
  -21.5624   -3.4534   25.7735 F   0  0  0  0  0  0
  -30.0657  -13.2245   20.4722 N   0  0  0  0  0  0
  -26.3106  -12.9331   20.3404 N   0  0  0  0  0  0
  -25.9344  -11.6500   20.5768 N   0  0  0  0  0  0
  -22.0510  -12.8309   22.0379 N   0  0  0  0  0  0
  -25.4443  -15.1882   20.4154 N   0  0  0  0  0  0
  -31.7411  -14.7188   20.0194 O   0  0  0  0  0  0
  -21.6646   -6.8887   21.4239 O   0  0  0  0  0  0
  -22.3621  -14.5604   20.6685 O   0  0  0  0  0  0
  -24.6129  -31.8691   23.2103 C   0  0  0  0  0  0
  -25.9032  -32.4828   23.8394 C   0  0  1  0  0  0
  -27.2431  -27.4537   20.0905 C   0  0  0  0  0  0
  -25.5895  -33.8628   24.2330 N   0  0  0  0  0  0
  -23.4005  -30.4887   21.5530 C   0  0  2  0  0  0
  -24.8494  -28.9538   20.1183 C   0  0  0  0  0  0
  -22.7402  -29.4644   22.5030 C   0  0  0  0  0  0
  -18.0262  -28.1364   22.8494 C   0  0  0  0  0  0
  -24.1479  -36.7312   23.2632 C   0  0  0  0  0  0
  -25.9277  -30.8374   21.3629 C   0  0  0  0  0  0
  -26.0086  -29.4733   20.7102 C   0  0  0  0  0  0
  -27.2109  -28.7302   20.6917 C   0  0  0  0  0  0
  -26.0693  -26.9390   19.5017 C   0  0  0  0  0  0
  -24.8732  -27.6844   19.5129 C   0  0  0  0  0  0
  -23.6075  -29.8166   20.1692 C   0  0  0  0  0  0
  -25.4097  -36.3114   24.0340 C   0  0  1  0  0  0
  -20.5850  -28.3641   23.1335 C   0  0  2  0  0  0
  -20.6751  -26.9385   22.5418 C   0  0  0  0  0  0
  -19.5731  -26.6373   21.5210 C   0  0  0  0  0  0
  -18.1906  -26.7910   22.1623 C   0  0  0  0  0  0
  -19.1511  -28.8821   23.2905 C   0  0  0  0  0  0
  -18.9449  -30.1428   23.8910 C   0  0  0  0  0  0
  -17.6453  -30.6578   24.0558 C   0  0  0  0  0  0
  -25.9031  -34.9481   23.5128 C   0  0  0  0  0  0
  -16.5342  -29.9077   23.6328 C   0  0  0  0  0  0
  -16.7254  -28.6488   23.0361 C   0  0  0  0  0  0
  -26.4464  -31.6607   25.0721 C   0  0  0  0  0  0
  -25.3741  -31.3742   26.1491 C   0  0  0  0  0  0
  -27.0277  -30.3038   24.6097 C   0  0  0  0  0  0
  -27.6057  -32.4314   25.7477 C   0  0  0  0  0  0
  -27.5592  -37.1786   24.8448 C   0  0  0  0  0  0
  -21.4132  -29.3010   22.3755 N   0  0  0  0  0  0
  -26.4278  -37.3805   23.9434 N   0  0  0  0  0  0
  -24.6651  -31.0785   22.1011 N   0  0  0  0  0  0
  -23.4170  -28.8194   23.3079 O   0  0  0  0  0  0
  -28.4039  -26.7148   20.0688 O   0  0  0  0  0  0
  -26.5593  -34.8933   22.4690 O   0  0  0  0  0  0
  -23.5323  -32.1454   23.7492 O   0  0  0  0  0  0
  -28.6617  -16.6126   22.3673 C   0  0  0  0  0  0
  -28.1449  -17.9110   22.4370 C   0  0  0  0  0  0
  -30.6688  -17.4883   21.3020 C   0  0  0  0  0  0
  -30.1689  -18.8201   21.3791 C   0  0  0  0  0  0
  -29.9218  -16.3884   21.7905 C   0  0  0  0  0  0
  -28.8775  -19.0138   21.9624 C   0  0  0  0  0  0
  -29.7051  -23.4066   20.8002 C   0  0  0  0  0  0
  -28.8743  -24.2996   20.2217 C   0  0  0  0  0  0
  -30.0912  -22.1658   20.1409 C   0  0  0  0  0  0
  -28.3748  -25.5600   20.9129 C   0  0  0  0  0  0
  -31.0963  -19.9315   20.8316 C   0  0  0  0  0  0
  -30.3711  -15.0452   21.7754 N   0  0  0  0  0  0
  -30.6958  -21.3301   21.0024 N   0  0  0  0  0  0
  -29.8513  -21.8829   18.9648 O   0  0  0  0  0  0
  -32.2600  -19.7988   21.4695 F   0  0  0  0  0  0
  -31.3358  -19.6734   19.5430 F   0  0  0  0  0  0
  -28.0944  -20.5410   22.1715 Cl  0  0  0  0  0  0
  -31.4705  -12.3952   19.0906 H   0  0  0  0  0  0
  -30.3267  -11.2665   19.7551 H   0  0  0  0  0  0
  -29.7232  -11.8419   17.3887 H   0  0  0  0  0  0
  -29.6613  -13.5387   17.7989 H   0  0  0  0  0  0
  -27.8209  -11.3278   18.7863 H   0  0  0  0  0  0
  -27.3636  -12.6841   17.7908 H   0  0  0  0  0  0
  -27.7336  -14.2574   19.6147 H   0  0  0  0  0  0
  -28.6706  -11.8951   21.3154 H   0  0  0  0  0  0
  -28.4477  -13.5140   21.8835 H   0  0  0  0  0  0
  -25.2752   -9.5690   22.4787 H   0  0  0  0  0  0
  -23.9992   -7.4658   22.7489 H   0  0  0  0  0  0
  -21.0829   -8.8827   19.8966 H   0  0  0  0  0  0
  -22.3718  -10.9714   19.6193 H   0  0  0  0  0  0
  -21.2007   -7.6133   23.9705 H   0  0  0  0  0  0
  -21.1480   -6.0523   25.9076 H   0  0  0  0  0  0
  -22.0594   -2.7599   23.2864 H   0  0  0  0  0  0
  -22.4063  -11.9942   22.4763 H   0  0  0  0  0  0
  -21.1144  -13.1412   22.2560 H   0  0  0  0  0  0
  -24.6930  -15.8562   20.5462 H   0  0  0  0  0  0
  -26.3132  -15.6189   20.1236 H   0  0  0  0  0  0
  -26.7113  -32.5539   23.1171 H   0  0  0  0  0  0
  -25.0062  -33.9797   25.0488 H   0  0  0  0  0  0
  -22.6872  -31.3031   21.4123 H   0  0  0  0  0  0
  -23.3751  -35.9630   23.3269 H   0  0  0  0  0  0
  -24.3591  -36.8945   22.2052 H   0  0  0  0  0  0
  -23.7203  -37.6502   23.6656 H   0  0  0  0  0  0
  -26.0385  -31.6049   20.5958 H   0  0  0  0  0  0
  -26.8152  -30.8898   21.9814 H   0  0  0  0  0  0
  -28.1088  -29.1266   21.1455 H   0  0  0  0  0  0
  -26.0837  -25.9636   19.0357 H   0  0  0  0  0  0
  -23.9822  -27.2764   19.0556 H   0  0  0  0  0  0
  -23.7092  -30.5886   19.4060 H   0  0  0  0  0  0
  -22.7325  -29.2317   19.8786 H   0  0  0  0  0  0
  -25.1252  -36.1981   25.0828 H   0  0  0  0  0  0
  -20.9920  -28.3196   24.1468 H   0  0  0  0  0  0
  -20.5642  -26.2245   23.3593 H   0  0  0  0  0  0
  -21.6628  -26.7431   22.1218 H   0  0  0  0  0  0
  -19.6890  -25.6288   21.1229 H   0  0  0  0  0  0
  -19.6663  -27.3188   20.6743 H   0  0  0  0  0  0
  -17.4170  -26.6648   21.4032 H   0  0  0  0  0  0
  -18.0312  -26.0046   22.9014 H   0  0  0  0  0  0
  -19.7935  -30.7230   24.2283 H   0  0  0  0  0  0
  -17.5023  -31.6268   24.5139 H   0  0  0  0  0  0
  -15.5347  -30.2990   23.7650 H   0  0  0  0  0  0
  -15.8648  -28.0801   22.7102 H   0  0  0  0  0  0
  -24.5866  -30.7138   25.7842 H   0  0  0  0  0  0
  -24.8997  -32.2922   26.4972 H   0  0  0  0  0  0
  -25.8094  -30.8879   27.0230 H   0  0  0  0  0  0
  -26.2815  -29.6816   24.1142 H   0  0  0  0  0  0
  -27.4031  -29.7255   25.4551 H   0  0  0  0  0  0
  -27.8658  -30.4340   23.9245 H   0  0  0  0  0  0
  -27.2689  -33.3602   26.2094 H   0  0  0  0  0  0
  -28.3852  -32.6896   25.0295 H   0  0  0  0  0  0
  -28.0745  -31.8413   26.5365 H   0  0  0  0  0  0
  -28.2561  -38.0137   24.7601 H   0  0  0  0  0  0
  -28.1142  -36.2683   24.6130 H   0  0  0  0  0  0
  -27.2333  -37.1260   25.8850 H   0  0  0  0  0  0
  -20.9288  -29.8756   21.7002 H   0  0  0  0  0  0
  -26.0167  -38.2866   24.1508 H   0  0  0  0  0  0
  -28.0708  -15.7935   22.7526 H   0  0  0  0  0  0
  -27.1683  -18.0648   22.8716 H   0  0  0  0  0  0
  -31.6489  -17.3215   20.8758 H   0  0  0  0  0  0
  -30.0711  -23.6132   21.7963 H   0  0  0  0  0  0
  -28.4912  -24.1234   19.2255 H   0  0  0  0  0  0
  -28.9867  -25.7643   21.7925 H   0  0  0  0  0  0
  -27.3723  -25.3471   21.2888 H   0  0  0  0  0  0
  -29.8250  -14.4429   22.3736 H   0  0  0  0  0  0
  -30.8509  -21.6936   21.9295 H   0  0  0  0  0  0
  1 25  1  0  0  0
  1 30  2  0  0  0
  1 82  1  0  0  0
  2  3  1  0  0  0
  2 25  1  0  0  0
  2 88  1  0  0  0
  2 89  1  0  0  0
  3  4  1  0  0  0
  3 90  1  0  0  0
  3 91  1  0  0  0
  4  5  1  0  0  0
  4 92  1  0  0  0
  4 93  1  0  0  0
  5  6  1  0  0  0
  5 26  1  0  0  0
  5 94  1  0  0  0
  6 25  1  0  0  0
  6 95  1  0  0  0
  6 96  1  0  0  0
  7  8  2  0  0  0
  7 26  1  0  0  0
  7 29  1  0  0  0
  8  9  1  0  0  0
  8 22  1  0  0  0
  9 10  1  0  0  0
  9 27  2  0  0  0
 10 11  2  0  0  0
 10 15  1  0  0  0
 11 12  1  0  0  0
 11 97  1  0  0  0
 12 13  2  0  0  0
 12 98  1  0  0  0
 13 14  1  0  0  0
 13 31  1  0  0  0
 14 15  2  0  0  0
 14 99  1  0  0  0
 15100  1  0  0  0
 16 17  2  0  0  0
 16 21  1  0  0  0
 16 31  1  0  0  0
 17 18  1  0  0  0
 17101  1  0  0  0
 18 19  2  0  0  0
 18102  1  0  0  0
 19 20  1  0  0  0
 19 24  1  0  0  0
 20 21  2  0  0  0
 20103  1  0  0  0
 21 23  1  0  0  0
 22 28  1  0  0  0
 22 32  2  0  0  0
 26 27  1  0  0  0
 28104  1  0  0  0
 28105  1  0  0  0
 29106  1  0  0  0
 29107  1  0  0  0
 33 34  1  0  0  0
 33 66  1  0  0  0
 33 70  2  0  0  0
 34 36  1  0  0  0
 34 59  1  0  0  0
 34108  1  0  0  0
 35 44  2  0  0  0
 35 45  1  0  0  0
 35 68  1  0  0  0
 36 56  1  0  0  0
 36109  1  0  0  0
 37 39  1  0  0  0
 37 47  1  0  0  0
 37 66  1  0  0  0
 37110  1  0  0  0
 38 43  2  0  0  0
 38 46  1  0  0  0
 38 47  1  0  0  0
 39 64  1  0  0  0
 39 67  2  0  0  0
 40 52  1  0  0  0
 40 53  2  0  0  0
 40 58  1  0  0  0
 41111  1  0  0  0
 41112  1  0  0  0
 41113  1  0  0  0
 41 48  1  0  0  0
 42 43  1  0  0  0
 42 66  1  0  0  0
 42114  1  0  0  0
 42115  1  0  0  0
 43 44  1  0  0  0
 44116  1  0  0  0
 45 46  2  0  0  0
 45117  1  0  0  0
 46118  1  0  0  0
 47119  1  0  0  0
 47120  1  0  0  0
 48 56  1  0  0  0
 48 65  1  0  0  0
 48121  1  0  0  0
 49 50  1  0  0  0
 49 53  1  0  0  0
 49 64  1  0  0  0
 49122  1  0  0  0
 50 51  1  0  0  0
 50123  1  0  0  0
 50124  1  0  0  0
 51 52  1  0  0  0
 51125  1  0  0  0
 51126  1  0  0  0
 52127  1  0  0  0
 52128  1  0  0  0
 53 54  1  0  0  0
 54 55  2  0  0  0
 54129  1  0  0  0
 55 57  1  0  0  0
 55130  1  0  0  0
 56 69  2  0  0  0
 57 58  2  0  0  0
 57131  1  0  0  0
 58132  1  0  0  0
 59 60  1  0  0  0
 59 61  1  0  0  0
 59 62  1  0  0  0
 60133  1  0  0  0
 60134  1  0  0  0
 60135  1  0  0  0
 61136  1  0  0  0
 61137  1  0  0  0
 61138  1  0  0  0
 62139  1  0  0  0
 62140  1  0  0  0
 62141  1  0  0  0
 63 65  1  0  0  0
 63142  1  0  0  0
 63143  1  0  0  0
 63144  1  0  0  0
 64145  1  0  0  0
 65146  1  0  0  0
 68 80  1  0  0  0
 71 72  2  0  0  0
 71 75  1  0  0  0
 71147  1  0  0  0
 72 76  1  0  0  0
 72148  1  0  0  0
 73 74  1  0  0  0
 73 75  2  0  0  0
 73149  1  0  0  0
 74 76  2  0  0  0
 74 81  1  0  0  0
 75 82  1  0  0  0
 76 87  1  0  0  0
 77 78  2  0  0  0
 77 79  1  0  0  0
 77150  1  0  0  0
 78 80  1  0  0  0
 78151  1  0  0  0
 79 83  1  0  0  0
 79 84  2  0  0  0
 80152  1  0  0  0
 80153  1  0  0  0
 81 83  1  0  0  0
 81 85  1  0  0  0
 81 86  1  0  0  0
 82154  1  0  0  0
 83155  1  0  0  0
M  ISO  4   1 100  68 101  80 101  82 100
M  END
> <chiral flag>
0

> <version>
0

> <s_m_source_file>
/data/baiqing/PycharmProjects/Reinvent-master-3.2/result/LINK_invent/BTK/process_docking_weight1_custom_product_contain_oxygen_bond_distance_aromatic_linkinvent_7_9_3/rearranged_h_0053.sdf

> <i_m_source_file_index>
59

> <r_mmod_Potential_Energy-OPLS-2005>
-166.860733032227

> <r_mmod_Stretch_Energy-OPLS-2005>
37.1737670898438

> <r_mmod_Bend_Energy-OPLS-2005>
111.865310668945

> <r_mmod_Torsional_Energy-OPLS-2005>
238.479858398438

> <r_mmod_Improper_Torsional_Energy-OPLS-2005>
6.88913869857788

> <r_mmod_Van_der_Waal_Energy-OPLS-2005>
155.000930786133

> <r_mmod_Electrostatic_Energy-OPLS-2005>
-494.001159667969

> <r_mmod_Solvation_Energy-OPLS-2005>
-230.160079956055

> <b_mmod_Minimization_Converged-OPLS-2005>
0

> <r_mmod_RMS_Derivative-OPLS-2005>
2.07768201828003

$$$$
59
                    3D
 Structure written by MMmdl.
158166  0  0  1  0            999 V2000
  -29.0406  -16.1295   20.4263 C   0  0  0  0  0  0
  -30.1227  -13.6050   19.6073 C   0  0  0  0  0  0
  -29.4791  -12.8232   18.4032 C   0  0  0  0  0  0
  -28.1000  -12.2653   18.7894 C   0  0  0  0  0  0
  -27.4303  -13.2472   19.7663 C   0  0  2  0  0  0
  -28.2817  -13.6432   20.9600 C   0  0  0  0  0  0
  -25.1608  -13.8001   20.5653 C   0  0  0  0  0  0
  -24.1135  -13.0203   20.9308 C   0  0  0  0  0  0
  -24.5835  -11.6697   20.8776 C   0  0  0  0  0  0
  -23.8713  -10.4117   21.0482 C   0  0  0  0  0  0
  -24.3414   -9.4096   21.9232 C   0  0  0  0  0  0
  -23.6178   -8.2100   22.0763 C   0  0  0  0  0  0
  -22.4167   -8.0130   21.3536 C   0  0  0  0  0  0
  -21.9722   -9.0054   20.4633 C   0  0  0  0  0  0
  -22.6957  -10.1958   20.3072 C   0  0  0  0  0  0
  -21.6800   -6.0648   22.5293 C   0  0  0  0  0  0
  -21.3983   -6.5590   23.8216 C   0  0  0  0  0  0
  -21.3659   -5.6764   24.9191 C   0  0  0  0  0  0
  -21.6046   -4.3026   24.7253 C   0  0  0  0  0  0
  -21.8823   -3.8095   23.4382 C   0  0  0  0  0  0
  -21.9176   -4.6891   22.3427 C   0  0  0  0  0  0
  -22.7284  -13.5054   21.2078 C   0  0  0  0  0  0
  -22.1651   -4.2083   21.1002 F   0  0  0  0  0  0
  -21.5638   -3.4522   25.7773 F   0  0  0  0  0  0
  -29.1224  -14.6162   20.3137 N   0  0  0  0  0  0
  -26.1574  -12.9034   20.2584 N   0  0  0  0  0  0
  -25.8592  -11.6209   20.5378 N   0  0  0  0  0  0
  -22.0005  -12.8049   22.0670 N   0  0  0  0  0  0
  -25.3378  -15.1776   20.4396 N   0  0  0  0  0  0
  -30.3144  -16.2846   20.3250 O   0  0  0  0  0  0
  -21.6566   -6.8731   21.4232 O   0  0  0  0  0  0
  -22.3038  -14.5406   20.6954 O   0  0  0  0  0  0
  -24.7020  -31.9764   23.1542 C   0  0  0  0  0  0
  -25.9699  -32.5297   23.8495 C   0  0  1  0  0  0
  -26.7978  -27.3488   20.7119 C   0  0  0  0  0  0
  -25.6414  -33.8958   24.2621 N   0  0  0  0  0  0
  -23.5728  -30.7907   21.3333 C   0  0  2  0  0  0
  -24.9231  -29.1371   19.9670 C   0  0  0  0  0  0
  -23.0165  -29.7247   22.1951 C   0  0  0  0  0  0
  -18.4269  -27.3387   22.8389 C   0  0  0  0  0  0
  -24.1509  -36.7395   23.2595 C   0  0  0  0  0  0
  -26.0608  -30.9669   21.2843 C   0  0  0  0  0  0
  -26.0630  -29.5827   20.6510 C   0  0  0  0  0  0
  -27.1202  -28.7015   20.8701 C   0  0  0  0  0  0
  -25.9079  -26.9416   19.7046 C   0  0  0  0  0  0
  -24.8613  -27.8363   19.4154 C   0  0  0  0  0  0
  -23.8052  -30.1381   19.9262 C   0  0  0  0  0  0
  -25.4138  -36.3313   24.0350 C   0  0  1  0  0  0
  -21.3843  -28.1013   22.0988 C   0  0  2  0  0  0
  -22.4398  -25.8816   22.0714 C   0  0  0  0  0  0
  -20.5463  -24.2957   22.9094 C   0  0  0  0  0  0
  -18.6048  -25.4265   22.9930 C   0  0  0  0  0  0
  -19.5772  -28.4152   22.6117 C   0  0  0  0  0  0
  -19.2522  -29.7345   23.1901 C   0  0  0  0  0  0
  -17.9758  -30.1933   23.6413 C   0  0  0  0  0  0
  -25.9163  -34.9731   23.5208 C   0  0  0  0  0  0
  -16.8828  -29.3298   23.5131 C   0  0  0  0  0  0
  -17.1285  -27.9636   23.1431 C   0  0  0  0  0  0
  -26.4549  -31.6688   25.0731 C   0  0  0  0  0  0
  -25.3524  -31.3808   26.1169 C   0  0  0  0  0  0
  -27.0191  -30.3119   24.5940 C   0  0  0  0  0  0
  -27.6124  -32.4109   25.7791 C   0  0  0  0  0  0
  -27.5613  -37.1940   24.8468 C   0  0  0  0  0  0
  -21.9249  -29.2570   21.6637 N   0  0  0  0  0  0
  -26.4320  -37.3979   23.9435 N   0  0  0  0  0  0
  -24.8000  -31.2834   21.9802 N   0  0  0  0  0  0
  -23.5495  -29.3165   23.2250 O   0  0  0  0  0  0
  -26.6388  -26.7645   21.9649 O   0  0  0  0  0  0
  -26.5474  -34.9123   22.4628 O   0  0  0  0  0  0
  -23.6018  -32.2087   23.6868 O   0  0  0  0  0  0
  -24.7808  -22.4634   18.8196 C   0  0  0  0  0  0
  -23.6852  -23.2454   19.3591 C   0  0  0  0  0  0
  -25.4375  -21.2571   19.2998 C   0  0  0  0  0  0
  -23.7993  -21.5431   21.0062 C   0  0  0  0  0  0
  -22.8970  -22.9926   20.5191 C   0  0  0  0  0  0
  -25.1561  -20.5140   20.4875 C   0  0  0  0  0  0
  -22.4780  -26.8413   24.2874 C   0  0  0  0  0  0
  -23.9802  -26.8493   23.9023 C   0  0  0  0  0  0
  -20.8625  -26.4639   23.7093 C   0  0  0  0  0  0
  -21.2598  -24.4000   20.6030 C   0  0  0  0  0  0
  -26.4986  -18.8638   20.8888 C   0  0  0  0  0  0
  -25.1903  -26.3256   22.6495 C   0  0  0  0  0  0
  -20.3498  -26.0699   21.6676 N   0  0  0  0  0  0
  -27.7639  -17.3336   20.3227 N   0  0  0  0  0  0
  -20.1218  -26.5408   24.7038 O   0  0  0  0  0  0
  -30.9910  -14.1471   19.2356 H   0  0  0  0  0  0
  -30.5560  -12.8980   20.3164 H   0  0  0  0  0  0
  -30.1338  -12.0277   18.0416 H   0  0  0  0  0  0
  -29.3532  -13.5181   17.5696 H   0  0  0  0  0  0
  -28.2246  -11.2913   19.2633 H   0  0  0  0  0  0
  -27.4837  -12.1040   17.9037 H   0  0  0  0  0  0
  -27.2304  -14.1145   19.1280 H   0  0  0  0  0  0
  -28.7704  -12.7945   21.4446 H   0  0  0  0  0  0
  -27.7080  -14.1542   21.7350 H   0  0  0  0  0  0
  -25.2546   -9.5648   22.4800 H   0  0  0  0  0  0
  -23.9919   -7.4491   22.7458 H   0  0  0  0  0  0
  -21.0670   -8.8507   19.8936 H   0  0  0  0  0  0
  -22.3393  -10.9495   19.6195 H   0  0  0  0  0  0
  -21.1968   -7.6100   23.9697 H   0  0  0  0  0  0
  -21.1493   -6.0505   25.9090 H   0  0  0  0  0  0
  -22.0611   -2.7556   23.2901 H   0  0  0  0  0  0
  -22.3636  -11.9688   22.5001 H   0  0  0  0  0  0
  -21.0659  -13.1096   22.2982 H   0  0  0  0  0  0
  -24.5764  -15.8185   20.6282 H   0  0  0  0  0  0
  -26.1963  -15.6536   20.1894 H   0  0  0  0  0  0
  -26.8040  -32.6044   23.1548 H   0  0  0  0  0  0
  -25.0886  -34.0078   25.0990 H   0  0  0  0  0  0
  -22.8475  -31.6053   21.2487 H   0  0  0  0  0  0
  -23.3824  -35.9670   23.3278 H   0  0  0  0  0  0
  -24.3610  -36.8964   22.2001 H   0  0  0  0  0  0
  -23.7192  -37.6592   23.6559 H   0  0  0  0  0  0
  -26.2244  -31.7199   20.5115 H   0  0  0  0  0  0
  -26.9364  -31.0070   21.9212 H   0  0  0  0  0  0
  -27.8729  -28.9949   21.5859 H   0  0  0  0  0  0
  -25.7776  -25.8953   19.4744 H   0  0  0  0  0  0
  -24.0005  -27.5052   18.8561 H   0  0  0  0  0  0
  -24.1178  -30.9310   19.2490 H   0  0  0  0  0  0
  -22.9211  -29.7203   19.4463 H   0  0  0  0  0  0
  -25.1279  -36.2196   25.0829 H   0  0  0  0  0  0
  -21.4072  -28.5631   23.0976 H   0  0  0  0  0  0
  -23.0999  -25.2517   22.6510 H   0  0  0  0  0  0
  -22.9032  -25.8522   21.0792 H   0  0  0  0  0  0
  -20.7797  -23.9767   23.9336 H   0  0  0  0  0  0
  -20.4279  -23.2886   22.4904 H   0  0  0  0  0  0
  -17.9426  -25.0011   22.2413 H   0  0  0  0  0  0
  -18.1071  -25.1502   23.9186 H   0  0  0  0  0  0
  -20.0520  -30.4591   23.2255 H   0  0  0  0  0  0
  -17.8466  -31.2034   23.9925 H   0  0  0  0  0  0
  -15.8868  -29.6578   23.7893 H   0  0  0  0  0  0
  -16.2704  -27.3035   23.2204 H   0  0  0  0  0  0
  -24.5611  -30.7526   25.7066 H   0  0  0  0  0  0
  -24.8843  -32.2994   26.4714 H   0  0  0  0  0  0
  -25.7434  -30.8582   26.9914 H   0  0  0  0  0  0
  -26.2723  -29.7204   24.0640 H   0  0  0  0  0  0
  -27.3589  -29.7051   25.4345 H   0  0  0  0  0  0
  -27.8741  -30.4371   23.9302 H   0  0  0  0  0  0
  -27.2869  -33.3396   26.2490 H   0  0  0  0  0  0
  -28.4090  -32.6683   25.0805 H   0  0  0  0  0  0
  -28.0622  -31.8053   26.5661 H   0  0  0  0  0  0
  -28.2624  -38.0247   24.7604 H   0  0  0  0  0  0
  -28.1131  -36.2809   24.6211 H   0  0  0  0  0  0
  -27.2344  -37.1490   25.8867 H   0  0  0  0  0  0
  -21.5306  -29.6980   20.8448 H   0  0  0  0  0  0
  -26.0218  -38.3048   24.1485 H   0  0  0  0  0  0
  -25.1666  -22.8490   17.8887 H   0  0  0  0  0  0
  -23.4056  -24.1234   18.7929 H   0  0  0  0  0  0
  -26.2396  -20.8943   18.6791 H   0  0  0  0  0  0
  -23.3689  -21.1510   21.9142 H   0  0  0  0  0  0
  -22.3797  -27.2944   25.2639 H   0  0  0  0  0  0
  -24.5490  -27.3293   24.6816 H   0  0  0  0  0  0
  -20.4082  -23.7462   20.4051 H   0  0  0  0  0  0
  -21.3614  -24.8652   19.6237 H   0  0  0  0  0  0
  -25.9891  -18.3922   21.7339 H   0  0  0  0  0  0
  -27.2598  -19.4712   21.3954 H   0  0  0  0  0  0
  -24.8028  -25.8024   21.7877 H   0  0  0  0  0  0
  -25.5954  -25.4991   23.2410 H   0  0  0  0  0  0
  -19.3587  -26.1633   21.4832 H   0  0  0  0  0  0
  -28.1357  -17.7907   19.4955 H   0  0  0  0  0  0
  1 25  1  0  0  0
  1 30  2  0  0  0
  1 84  1  0  0  0
  2  3  1  0  0  0
  2 25  1  0  0  0
  2 86  1  0  0  0
  2 87  1  0  0  0
  3  4  1  0  0  0
  3 88  1  0  0  0
  3 89  1  0  0  0
  4  5  1  0  0  0
  4 90  1  0  0  0
  4 91  1  0  0  0
  5  6  1  0  0  0
  5 26  1  0  0  0
  5 92  1  0  0  0
  6 25  1  0  0  0
  6 93  1  0  0  0
  6 94  1  0  0  0
  7  8  2  0  0  0
  7 26  1  0  0  0
  7 29  1  0  0  0
  8  9  1  0  0  0
  8 22  1  0  0  0
  9 10  1  0  0  0
  9 27  2  0  0  0
 10 11  2  0  0  0
 10 15  1  0  0  0
 11 12  1  0  0  0
 11 95  1  0  0  0
 12 13  2  0  0  0
 12 96  1  0  0  0
 13 14  1  0  0  0
 13 31  1  0  0  0
 14 15  2  0  0  0
 14 97  1  0  0  0
 15 98  1  0  0  0
 16 17  2  0  0  0
 16 21  1  0  0  0
 16 31  1  0  0  0
 17 18  1  0  0  0
 17 99  1  0  0  0
 18 19  2  0  0  0
 18100  1  0  0  0
 19 20  1  0  0  0
 19 24  1  0  0  0
 20 21  2  0  0  0
 20101  1  0  0  0
 21 23  1  0  0  0
 22 28  1  0  0  0
 22 32  2  0  0  0
 26 27  1  0  0  0
 28102  1  0  0  0
 28103  1  0  0  0
 29104  1  0  0  0
 29105  1  0  0  0
 33 34  1  0  0  0
 33 66  1  0  0  0
 33 70  2  0  0  0
 34 36  1  0  0  0
 34 59  1  0  0  0
 34106  1  0  0  0
 35 44  2  0  0  0
 35 45  1  0  0  0
 35 68  1  0  0  0
 36 56  1  0  0  0
 36107  1  0  0  0
 37 39  1  0  0  0
 37 47  1  0  0  0
 37 66  1  0  0  0
 37108  1  0  0  0
 38 43  2  0  0  0
 38 46  1  0  0  0
 38 47  1  0  0  0
 39 64  1  0  0  0
 39 67  2  0  0  0
 40 52  1  0  0  0
 40 53  2  0  0  0
 40 58  1  0  0  0
 41109  1  0  0  0
 41110  1  0  0  0
 41111  1  0  0  0
 41 48  1  0  0  0
 42 43  1  0  0  0
 42 66  1  0  0  0
 42112  1  0  0  0
 42113  1  0  0  0
 43 44  1  0  0  0
 44114  1  0  0  0
 45 46  2  0  0  0
 45115  1  0  0  0
 46116  1  0  0  0
 47117  1  0  0  0
 47118  1  0  0  0
 48 56  1  0  0  0
 48 65  1  0  0  0
 48119  1  0  0  0
 49 50  1  0  0  0
 49 53  1  0  0  0
 49 64  1  0  0  0
 49120  1  0  0  0
 50 51  1  0  0  0
 50121  1  0  0  0
 50122  1  0  0  0
 51 52  1  0  0  0
 51123  1  0  0  0
 51124  1  0  0  0
 52125  1  0  0  0
 52126  1  0  0  0
 53 54  1  0  0  0
 54 55  2  0  0  0
 54127  1  0  0  0
 55 57  1  0  0  0
 55128  1  0  0  0
 56 69  2  0  0  0
 57 58  2  0  0  0
 57129  1  0  0  0
 58130  1  0  0  0
 59 60  1  0  0  0
 59 61  1  0  0  0
 59 62  1  0  0  0
 60131  1  0  0  0
 60132  1  0  0  0
 60133  1  0  0  0
 61134  1  0  0  0
 61135  1  0  0  0
 61136  1  0  0  0
 62137  1  0  0  0
 62138  1  0  0  0
 62139  1  0  0  0
 63 65  1  0  0  0
 63140  1  0  0  0
 63141  1  0  0  0
 63142  1  0  0  0
 64143  1  0  0  0
 65144  1  0  0  0
 68 82  1  0  0  0
 71 72  2  0  0  0
 71 73  1  0  0  0
 71145  1  0  0  0
 72 75  1  0  0  0
 72146  1  0  0  0
 73 76  2  0  0  0
 73147  1  0  0  0
 74 75  2  0  0  0
 74 76  1  0  0  0
 74148  1  0  0  0
 75 80  1  0  0  0
 76 81  1  0  0  0
 77 78  2  0  0  0
 77 79  1  0  0  0
 77149  1  0  0  0
 78 82  1  0  0  0
 78150  1  0  0  0
 79 83  1  0  0  0
 79 85  2  0  0  0
 80 83  1  0  0  0
 80151  1  0  0  0
 80152  1  0  0  0
 81 84  1  0  0  0
 81153  1  0  0  0
 81154  1  0  0  0
 82155  1  0  0  0
 82156  1  0  0  0
 83157  1  0  0  0
 84158  1  0  0  0
M  ISO  4   1 100  68 101  82 101  84 100
M  END
> <chiral flag>
0

> <version>
0

> <s_m_source_file>
/data/baiqing/PycharmProjects/Reinvent-master-3.2/result/LINK_invent/BTK/process_docking_weight1_custom_product_contain_oxygen_bond_distance_aromatic_linkinvent_7_9_3/rearranged_h_0053.sdf

> <i_m_source_file_index>
60

> <r_mmod_Potential_Energy-OPLS-2005>
17865.810546875

> <r_mmod_Stretch_Energy-OPLS-2005>
8709.26171875

> <r_mmod_Bend_Energy-OPLS-2005>
1769.72143554688

> <r_mmod_Torsional_Energy-OPLS-2005>
507.048431396484

> <r_mmod_Improper_Torsional_Energy-OPLS-2005>
43.2901458740234

> <r_mmod_Van_der_Waal_Energy-OPLS-2005>
2748.1416015625

> <r_mmod_Electrostatic_Energy-OPLS-2005>
-454.506896972656

> <r_mmod_Solvation_Energy-OPLS-2005>
-237.804534912109

> <b_mmod_Minimization_Converged-OPLS-2005>
0

> <r_mmod_RMS_Derivative-OPLS-2005>
12.4983930587769

$$$$
60
                    3D
 Structure written by MMmdl.
163172  0  0  1  0            999 V2000
  -30.6839  -14.5091   20.5439 C   0  0  0  0  0  0
  -30.4253  -12.3172   19.4442 C   0  0  0  0  0  0
  -29.5069  -12.5055   18.2175 C   0  0  0  0  0  0
  -28.0226  -12.3746   18.6150 C   0  0  0  0  0  0
  -27.6620  -13.2118   19.8727 C   0  0  2  0  0  0
  -28.7018  -13.0106   21.0002 C   0  0  0  0  0  0
  -25.2604  -13.8164   20.5668 C   0  0  0  0  0  0
  -24.1858  -13.0439   20.9163 C   0  0  0  0  0  0
  -24.6410  -11.6904   20.8713 C   0  0  0  0  0  0
  -23.9059  -10.4298   21.0375 C   0  0  0  0  0  0
  -24.3616   -9.4219   21.9165 C   0  0  0  0  0  0
  -23.6308   -8.2251   22.0739 C   0  0  0  0  0  0
  -22.4282   -8.0276   21.3547 C   0  0  0  0  0  0
  -21.9917   -9.0243   20.4640 C   0  0  0  0  0  0
  -22.7230  -10.2133   20.3042 C   0  0  0  0  0  0
  -21.6865   -6.0734   22.5281 C   0  0  0  0  0  0
  -21.4009   -6.5638   23.8215 C   0  0  0  0  0  0
  -21.3673   -5.6793   24.9184 C   0  0  0  0  0  0
  -21.6052   -4.3054   24.7227 C   0  0  0  0  0  0
  -21.8824   -3.8149   23.4349 C   0  0  0  0  0  0
  -21.9198   -4.6966   22.3409 C   0  0  0  0  0  0
  -22.7889  -13.5243   21.1843 C   0  0  0  0  0  0
  -22.1653   -4.2147   21.0989 F   0  0  0  0  0  0
  -21.5652   -3.4541   25.7742 F   0  0  0  0  0  0
  -30.0349  -13.3129   20.4562 N   0  0  0  0  0  0
  -26.3033  -12.9336   20.3326 N   0  0  0  0  0  0
  -25.9332  -11.6492   20.5736 N   0  0  0  0  0  0
  -22.0524  -12.8232   22.0401 N   0  0  0  0  0  0
  -25.4381  -15.1879   20.4114 N   0  0  0  0  0  0
  -31.8116  -14.6911   20.0766 O   0  0  0  0  0  0
  -21.6653   -6.8871   21.4237 O   0  0  0  0  0  0
  -22.3586  -14.5556   20.6713 O   0  0  0  0  0  0
  -24.6209  -31.8687   23.2174 C   0  0  0  0  0  0
  -25.9087  -32.4823   23.8467 C   0  0  1  0  0  0
  -27.1978  -27.3759   20.0788 C   0  0  0  0  0  0
  -25.5934  -33.8634   24.2364 N   0  0  0  0  0  0
  -23.4073  -30.5032   21.5617 C   0  0  2  0  0  0
  -24.8414  -28.9811   20.1103 C   0  0  0  0  0  0
  -22.7437  -29.4674   22.4998 C   0  0  0  0  0  0
  -18.0283  -28.1377   22.8501 C   0  0  0  0  0  0
  -24.1470  -36.7324   23.2634 C   0  0  0  0  0  0
  -25.9477  -30.8117   21.3836 C   0  0  0  0  0  0
  -26.0123  -29.4472   20.7214 C   0  0  0  0  0  0
  -27.1907  -28.6511   20.7116 C   0  0  0  0  0  0
  -26.0015  -26.9728   19.4272 C   0  0  0  0  0  0
  -24.8348  -27.7443   19.4600 C   0  0  0  0  0  0
  -23.6131  -29.8589   20.1691 C   0  0  0  0  0  0
  -25.4087  -36.3123   24.0343 C   0  0  1  0  0  0
  -20.5870  -28.3673   23.1303 C   0  0  2  0  0  0
  -20.6770  -26.9408   22.5399 C   0  0  0  0  0  0
  -19.5738  -26.6383   21.5210 C   0  0  0  0  0  0
  -18.1926  -26.7926   22.1633 C   0  0  0  0  0  0
  -19.1531  -28.8841   23.2903 C   0  0  0  0  0  0
  -18.9452  -30.1448   23.8912 C   0  0  0  0  0  0
  -17.6451  -30.6582   24.0562 C   0  0  0  0  0  0
  -25.9030  -34.9484   23.5150 C   0  0  0  0  0  0
  -16.5344  -29.9083   23.6327 C   0  0  0  0  0  0
  -16.7268  -28.6498   23.0355 C   0  0  0  0  0  0
  -26.4485  -31.6621   25.0816 C   0  0  0  0  0  0
  -25.3762  -31.3755   26.1583 C   0  0  0  0  0  0
  -27.0294  -30.3041   24.6231 C   0  0  0  0  0  0
  -27.6044  -32.4360   25.7587 C   0  0  0  0  0  0
  -27.5573  -37.1816   24.8465 C   0  0  0  0  0  0
  -21.4156  -29.3053   22.3727 N   0  0  0  0  0  0
  -26.4274  -37.3802   23.9428 N   0  0  0  0  0  0
  -24.6786  -31.0748   22.1112 N   0  0  0  0  0  0
  -23.4204  -28.8187   23.3025 O   0  0  0  0  0  0
  -28.3215  -26.5436   20.1179 O   0  0  0  0  0  0
  -26.5576  -34.8931   22.4696 O   0  0  0  0  0  0
  -23.5388  -32.1467   23.7538 O   0  0  0  0  0  0
  -29.5777  -18.0221   21.0090 C   0  0  0  0  0  0
  -29.5078  -16.7550   18.9343 C   0  0  0  0  0  0
  -29.1954  -19.2210   20.3269 C   0  0  0  0  0  0
  -28.8829  -19.1251   18.9353 C   0  0  0  0  0  0
  -29.7246  -16.7797   20.3291 C   0  0  0  0  0  0
  -29.0847  -17.9060   18.2535 C   0  0  0  0  0  0
  -28.6978  -22.8737   20.7201 C   0  0  0  0  0  0
  -28.9724  -20.5057   21.1249 C   0  0  0  0  0  0
  -31.4750  -23.1040   20.2782 C   0  0  0  0  0  0
  -30.6384  -24.3732   19.9726 C   0  0  0  0  0  0
  -30.7301  -21.7791   19.9460 C   0  0  0  0  0  0
  -29.1513  -24.0336   19.7818 C   0  0  2  0  0  0
  -28.2533  -20.2551   18.1247 C   0  0  0  0  0  0
  -28.1570  -25.2179   19.5304 C   0  0  0  0  0  0
  -29.4055  -21.7027   20.6119 N   0  0  0  0  0  0
  -29.9644  -15.5462   21.0314 N   0  0  0  0  0  0
  -27.7037  -23.0339   21.4385 O   0  0  0  0  0  0
  -28.3697  -20.4011   22.2009 O   0  0  0  0  0  0
  -28.8255  -17.8232   16.9262 F   0  0  0  0  0  0
  -31.4729  -12.4099   19.1509 H   0  0  0  0  0  0
  -30.3175  -11.3090   19.8487 H   0  0  0  0  0  0
  -29.7523  -11.7710   17.4487 H   0  0  0  0  0  0
  -29.6869  -13.4832   17.7704 H   0  0  0  0  0  0
  -27.8217  -11.3186   18.7984 H   0  0  0  0  0  0
  -27.3831  -12.6594   17.7774 H   0  0  0  0  0  0
  -27.6998  -14.2576   19.5707 H   0  0  0  0  0  0
  -28.6785  -11.9807   21.3581 H   0  0  0  0  0  0
  -28.4595  -13.6298   21.8653 H   0  0  0  0  0  0
  -25.2747   -9.5730   22.4750 H   0  0  0  0  0  0
  -24.0037   -7.4652   22.7456 H   0  0  0  0  0  0
  -21.0849   -8.8734   19.8957 H   0  0  0  0  0  0
  -22.3642  -10.9666   19.6167 H   0  0  0  0  0  0
  -21.1968   -7.6142   23.9721 H   0  0  0  0  0  0
  -21.1502   -6.0516   25.9089 H   0  0  0  0  0  0
  -22.0592   -2.7605   23.2848 H   0  0  0  0  0  0
  -22.4095  -11.9870   22.4781 H   0  0  0  0  0  0
  -21.1154  -13.1287   22.2607 H   0  0  0  0  0  0
  -24.6800  -15.8512   20.5247 H   0  0  0  0  0  0
  -26.3029  -15.6224   20.1155 H   0  0  0  0  0  0
  -26.7160  -32.5500   23.1231 H   0  0  0  0  0  0
  -25.0137  -33.9810   25.0547 H   0  0  0  0  0  0
  -22.6983  -31.3250   21.4364 H   0  0  0  0  0  0
  -23.3728  -35.9656   23.3282 H   0  0  0  0  0  0
  -24.3572  -36.8953   22.2053 H   0  0  0  0  0  0
  -23.7216  -37.6526   23.6646 H   0  0  0  0  0  0
  -26.0718  -31.5766   20.6158 H   0  0  0  0  0  0
  -26.8330  -30.8557   22.0068 H   0  0  0  0  0  0
  -28.0865  -29.0005   21.2067 H   0  0  0  0  0  0
  -25.9064  -26.0574   18.8662 H   0  0  0  0  0  0
  -23.9431  -27.3886   18.9625 H   0  0  0  0  0  0
  -23.7294  -30.6479   19.4247 H   0  0  0  0  0  0
  -22.7288  -29.2965   19.8641 H   0  0  0  0  0  0
  -25.1243  -36.1995   25.0831 H   0  0  0  0  0  0
  -20.9969  -28.3224   24.1419 H   0  0  0  0  0  0
  -20.5673  -26.2283   23.3593 H   0  0  0  0  0  0
  -21.6636  -26.7456   22.1184 H   0  0  0  0  0  0
  -19.6894  -25.6295   21.1241 H   0  0  0  0  0  0
  -19.6666  -27.3192   20.6741 H   0  0  0  0  0  0
  -17.4189  -26.6680   21.4040 H   0  0  0  0  0  0
  -18.0328  -26.0060   22.9025 H   0  0  0  0  0  0
  -19.7924  -30.7265   24.2284 H   0  0  0  0  0  0
  -17.5003  -31.6267   24.5165 H   0  0  0  0  0  0
  -15.5341  -30.2991   23.7633 H   0  0  0  0  0  0
  -15.8670  -28.0816   22.7064 H   0  0  0  0  0  0
  -24.5916  -30.7090   25.7981 H   0  0  0  0  0  0
  -24.8970  -32.2918   26.5046 H   0  0  0  0  0  0
  -25.8142  -30.8956   27.0347 H   0  0  0  0  0  0
  -26.2852  -29.6853   24.1192 H   0  0  0  0  0  0
  -27.3922  -29.7233   25.4726 H   0  0  0  0  0  0
  -27.8766  -30.4324   23.9485 H   0  0  0  0  0  0
  -27.2623  -33.3644   26.2178 H   0  0  0  0  0  0
  -28.3851  -32.6956   25.0424 H   0  0  0  0  0  0
  -28.0711  -31.8492   26.5513 H   0  0  0  0  0  0
  -28.2578  -38.0125   24.7515 H   0  0  0  0  0  0
  -28.1077  -36.2658   24.6253 H   0  0  0  0  0  0
  -27.2314  -37.1436   25.8876 H   0  0  0  0  0  0
  -20.9309  -29.8823   21.6991 H   0  0  0  0  0  0
  -26.0162  -38.2877   24.1432 H   0  0  0  0  0  0
  -29.7314  -18.0575   22.0799 H   0  0  0  0  0  0
  -29.5996  -15.8382   18.3698 H   0  0  0  0  0  0
  -31.7233  -23.1041   21.3412 H   0  0  0  0  0  0
  -32.4293  -23.1462   19.7493 H   0  0  0  0  0  0
  -31.0108  -24.8477   19.0635 H   0  0  0  0  0  0
  -30.7613  -25.1089   20.7683 H   0  0  0  0  0  0
  -31.3668  -20.9434   20.2411 H   0  0  0  0  0  0
  -30.6086  -21.6897   18.8657 H   0  0  0  0  0  0
  -29.1126  -23.5253   18.8160 H   0  0  0  0  0  0
  -29.0074  -20.7991   17.5574 H   0  0  0  0  0  0
  -27.6824  -20.9555   18.7315 H   0  0  0  0  0  0
  -27.5409  -19.8491   17.4060 H   0  0  0  0  0  0
  -27.1889  -24.8094   19.8155 H   0  0  0  0  0  0
  -28.1077  -25.3736   18.4511 H   0  0  0  0  0  0
  -29.2248  -15.2731   21.6622 H   0  0  0  0  0  0
  1 25  1  0  0  0
  1 30  2  0  0  0
  1 86  1  0  0  0
  2  3  1  0  0  0
  2 25  1  0  0  0
  2 90  1  0  0  0
  2 91  1  0  0  0
  3  4  1  0  0  0
  3 92  1  0  0  0
  3 93  1  0  0  0
  4  5  1  0  0  0
  4 94  1  0  0  0
  4 95  1  0  0  0
  5  6  1  0  0  0
  5 26  1  0  0  0
  5 96  1  0  0  0
  6 25  1  0  0  0
  6 97  1  0  0  0
  6 98  1  0  0  0
  7  8  2  0  0  0
  7 26  1  0  0  0
  7 29  1  0  0  0
  8  9  1  0  0  0
  8 22  1  0  0  0
  9 10  1  0  0  0
  9 27  2  0  0  0
 10 11  2  0  0  0
 10 15  1  0  0  0
 11 12  1  0  0  0
 11 99  1  0  0  0
 12 13  2  0  0  0
 12100  1  0  0  0
 13 14  1  0  0  0
 13 31  1  0  0  0
 14 15  2  0  0  0
 14101  1  0  0  0
 15102  1  0  0  0
 16 17  2  0  0  0
 16 21  1  0  0  0
 16 31  1  0  0  0
 17 18  1  0  0  0
 17103  1  0  0  0
 18 19  2  0  0  0
 18104  1  0  0  0
 19 20  1  0  0  0
 19 24  1  0  0  0
 20 21  2  0  0  0
 20105  1  0  0  0
 21 23  1  0  0  0
 22 28  1  0  0  0
 22 32  2  0  0  0
 26 27  1  0  0  0
 28106  1  0  0  0
 28107  1  0  0  0
 29108  1  0  0  0
 29109  1  0  0  0
 33 34  1  0  0  0
 33 66  1  0  0  0
 33 70  2  0  0  0
 34 36  1  0  0  0
 34 59  1  0  0  0
 34110  1  0  0  0
 35 44  2  0  0  0
 35 45  1  0  0  0
 35 68  1  0  0  0
 36 56  1  0  0  0
 36111  1  0  0  0
 37 39  1  0  0  0
 37 47  1  0  0  0
 37 66  1  0  0  0
 37112  1  0  0  0
 38 43  2  0  0  0
 38 46  1  0  0  0
 38 47  1  0  0  0
 39 64  1  0  0  0
 39 67  2  0  0  0
 40 52  1  0  0  0
 40 53  2  0  0  0
 40 58  1  0  0  0
 41113  1  0  0  0
 41114  1  0  0  0
 41115  1  0  0  0
 41 48  1  0  0  0
 42 43  1  0  0  0
 42 66  1  0  0  0
 42116  1  0  0  0
 42117  1  0  0  0
 43 44  1  0  0  0
 44118  1  0  0  0
 45 46  2  0  0  0
 45119  1  0  0  0
 46120  1  0  0  0
 47121  1  0  0  0
 47122  1  0  0  0
 48 56  1  0  0  0
 48 65  1  0  0  0
 48123  1  0  0  0
 49 50  1  0  0  0
 49 53  1  0  0  0
 49 64  1  0  0  0
 49124  1  0  0  0
 50 51  1  0  0  0
 50125  1  0  0  0
 50126  1  0  0  0
 51 52  1  0  0  0
 51127  1  0  0  0
 51128  1  0  0  0
 52129  1  0  0  0
 52130  1  0  0  0
 53 54  1  0  0  0
 54 55  2  0  0  0
 54131  1  0  0  0
 55 57  1  0  0  0
 55132  1  0  0  0
 56 69  2  0  0  0
 57 58  2  0  0  0
 57133  1  0  0  0
 58134  1  0  0  0
 59 60  1  0  0  0
 59 61  1  0  0  0
 59 62  1  0  0  0
 60135  1  0  0  0
 60136  1  0  0  0
 60137  1  0  0  0
 61138  1  0  0  0
 61139  1  0  0  0
 61140  1  0  0  0
 62141  1  0  0  0
 62142  1  0  0  0
 62143  1  0  0  0
 63 65  1  0  0  0
 63144  1  0  0  0
 63145  1  0  0  0
 63146  1  0  0  0
 64147  1  0  0  0
 65148  1  0  0  0
 68 84  1  0  0  0
 71 73  2  0  0  0
 71 75  1  0  0  0
 71149  1  0  0  0
 72 75  2  0  0  0
 72 76  1  0  0  0
 72150  1  0  0  0
 73 74  1  0  0  0
 73 78  1  0  0  0
 74 76  2  0  0  0
 74 83  1  0  0  0
 75 86  1  0  0  0
 76 89  1  0  0  0
 77 82  1  0  0  0
 77 85  1  0  0  0
 77 87  2  0  0  0
 78 85  1  0  0  0
 78 88  2  0  0  0
 79 80  1  0  0  0
 79 81  1  0  0  0
 79151  1  0  0  0
 79152  1  0  0  0
 80 82  1  0  0  0
 80153  1  0  0  0
 80154  1  0  0  0
 81 85  1  0  0  0
 81155  1  0  0  0
 81156  1  0  0  0
 82 84  1  0  0  0
 82157  1  0  0  0
 83158  1  0  0  0
 83159  1  0  0  0
 83160  1  0  0  0
 84161  1  0  0  0
 84162  1  0  0  0
 86163  1  0  0  0
M  ISO  4   1 100  68 101  84 101  86 100
M  END
> <chiral flag>
0

> <version>
0

> <s_m_source_file>
/data/baiqing/PycharmProjects/Reinvent-master-3.2/result/LINK_invent/BTK/process_docking_weight1_custom_product_contain_oxygen_bond_distance_aromatic_linkinvent_7_9_3/rearranged_h_0053.sdf

> <i_m_source_file_index>
61

> <r_mmod_Potential_Energy-OPLS-2005>
151.608352661133

> <r_mmod_Stretch_Energy-OPLS-2005>
60.2778854370117

> <r_mmod_Bend_Energy-OPLS-2005>
134.557998657227

> <r_mmod_Torsional_Energy-OPLS-2005>
333.317687988281

> <r_mmod_Improper_Torsional_Energy-OPLS-2005>
7.49018430709839

> <r_mmod_Van_der_Waal_Energy-OPLS-2005>
192.16130065918

> <r_mmod_Electrostatic_Energy-OPLS-2005>
-365.027862548828

> <r_mmod_Solvation_Energy-OPLS-2005>
-236.748245239258

> <b_mmod_Minimization_Converged-OPLS-2005>
0

> <r_mmod_RMS_Derivative-OPLS-2005>
2.46552538871765

$$$$
61
                    3D
 Structure written by MMmdl.
162170  0  0  1  0            999 V2000
  -30.7157  -14.4137   20.5557 C   0  0  0  0  0  0
  -30.4161  -12.2679   19.4107 C   0  0  0  0  0  0
  -29.4899  -12.5033   18.1998 C   0  0  0  0  0  0
  -28.0096  -12.3720   18.6106 C   0  0  0  0  0  0
  -27.6634  -13.2016   19.8760 C   0  0  2  0  0  0
  -28.7047  -12.9589   20.9932 C   0  0  0  0  0  0
  -25.2579  -13.8141   20.5658 C   0  0  0  0  0  0
  -24.1837  -13.0428   20.9190 C   0  0  0  0  0  0
  -24.6385  -11.6899   20.8736 C   0  0  0  0  0  0
  -23.9052  -10.4287   21.0403 C   0  0  0  0  0  0
  -24.3610   -9.4206   21.9181 C   0  0  0  0  0  0
  -23.6294   -8.2235   22.0750 C   0  0  0  0  0  0
  -22.4277   -8.0269   21.3540 C   0  0  0  0  0  0
  -21.9899   -9.0248   20.4648 C   0  0  0  0  0  0
  -22.7224  -10.2129   20.3057 C   0  0  0  0  0  0
  -21.6844   -6.0731   22.5280 C   0  0  0  0  0  0
  -21.4005   -6.5638   23.8214 C   0  0  0  0  0  0
  -21.3664   -5.6790   24.9176 C   0  0  0  0  0  0
  -21.6053   -4.3053   24.7223 C   0  0  0  0  0  0
  -21.8823   -3.8142   23.4340 C   0  0  0  0  0  0
  -21.9189   -4.6961   22.3400 C   0  0  0  0  0  0
  -22.7855  -13.5233   21.1845 C   0  0  0  0  0  0
  -22.1662   -4.2145   21.0979 F   0  0  0  0  0  0
  -21.5639   -3.4541   25.7741 F   0  0  0  0  0  0
  -30.0430  -13.2408   20.4463 N   0  0  0  0  0  0
  -26.3022  -12.9314   20.3351 N   0  0  0  0  0  0
  -25.9305  -11.6484   20.5756 N   0  0  0  0  0  0
  -22.0475  -12.8247   22.0402 N   0  0  0  0  0  0
  -25.4260  -15.1848   20.4017 N   0  0  0  0  0  0
  -31.8595  -14.5754   20.1184 O   0  0  0  0  0  0
  -21.6634   -6.8872   21.4240 O   0  0  0  0  0  0
  -22.3554  -14.5545   20.6695 O   0  0  0  0  0  0
  -24.6099  -31.8705   23.2139 C   0  0  0  0  0  0
  -25.9004  -32.4841   23.8429 C   0  0  1  0  0  0
  -27.2399  -27.4805   20.0930 C   0  0  0  0  0  0
  -25.5873  -33.8644   24.2353 N   0  0  0  0  0  0
  -23.3975  -30.4932   21.5516 C   0  0  2  0  0  0
  -24.8467  -28.9613   20.1184 C   0  0  0  0  0  0
  -22.7379  -29.4678   22.5013 C   0  0  0  0  0  0
  -18.0250  -28.1385   22.8490 C   0  0  0  0  0  0
  -24.1478  -36.7336   23.2638 C   0  0  0  0  0  0
  -25.9206  -30.8507   21.3587 C   0  0  0  0  0  0
  -26.0028  -29.4874   20.7093 C   0  0  0  0  0  0
  -27.2061  -28.7535   20.6940 C   0  0  0  0  0  0
  -26.0737  -26.9542   19.5008 C   0  0  0  0  0  0
  -24.8734  -27.6905   19.5142 C   0  0  0  0  0  0
  -23.6050  -29.8210   20.1677 C   0  0  0  0  0  0
  -25.4098  -36.3134   24.0341 C   0  0  1  0  0  0
  -20.5835  -28.3671   23.1335 C   0  0  2  0  0  0
  -20.6743  -26.9413   22.5431 C   0  0  0  0  0  0
  -19.5732  -26.6396   21.5213 C   0  0  0  0  0  0
  -18.1905  -26.7938   22.1614 C   0  0  0  0  0  0
  -19.1498  -28.8840   23.2907 C   0  0  0  0  0  0
  -18.9435  -30.1439   23.8927 C   0  0  0  0  0  0
  -17.6443  -30.6592   24.0571 C   0  0  0  0  0  0
  -25.9028  -34.9493   23.5150 C   0  0  0  0  0  0
  -16.5329  -29.9101   23.6325 C   0  0  0  0  0  0
  -16.7241  -28.6512   23.0354 C   0  0  0  0  0  0
  -26.4459  -31.6605   25.0741 C   0  0  0  0  0  0
  -25.3763  -31.3691   26.1519 C   0  0  0  0  0  0
  -27.0263  -30.3047   24.6091 C   0  0  0  0  0  0
  -27.6055  -32.4318   25.7484 C   0  0  0  0  0  0
  -27.5580  -37.1814   24.8458 C   0  0  0  0  0  0
  -21.4110  -29.3038   22.3742 N   0  0  0  0  0  0
  -26.4286  -37.3815   23.9412 N   0  0  0  0  0  0
  -24.6608  -31.0844   22.1010 N   0  0  0  0  0  0
  -23.4160  -28.8225   23.3052 O   0  0  0  0  0  0
  -28.4036  -26.7599   20.0779 O   0  0  0  0  0  0
  -26.5599  -34.8934   22.4718 O   0  0  0  0  0  0
  -23.5303  -32.1440   23.7557 O   0  0  0  0  0  0
  -31.1011  -18.6209   19.3638 C   0  0  0  0  0  0
  -28.6747  -18.4439   19.2668 C   0  0  0  0  0  0
  -31.1561  -17.4346   20.1192 C   0  0  0  0  0  0
  -28.7288  -17.2559   20.0203 C   0  0  0  0  0  0
  -29.8633  -19.1146   18.9055 C   0  0  0  0  0  0
  -29.9719  -16.7149   20.4060 C   0  0  0  0  0  0
  -27.1338  -22.4246   15.7081 C   0  0  0  0  0  0
  -28.7041  -23.3733   19.9142 C   0  0  0  0  0  0
  -27.4564  -22.6151   16.9964 C   0  0  0  0  0  0
  -29.2181  -24.5210   20.3964 C   0  0  0  0  0  0
  -29.5837  -22.3319   19.4019 C   0  0  0  0  0  0
  -29.8230  -20.3402   18.0025 C   0  0  0  0  0  0
  -27.6371  -21.4971   18.0084 C   0  0  0  0  0  0
  -28.3866  -25.6458   20.9611 C   0  0  0  0  0  0
  -29.9885  -15.4383   21.0273 N   0  0  0  0  0  0
  -29.0138  -21.4437   18.5413 N   0  0  0  0  0  0
  -30.7735  -22.2519   19.7313 O   0  0  0  0  0  0
  -31.4607  -12.3554   19.1070 H   0  0  0  0  0  0
  -30.3023  -11.2517   19.7912 H   0  0  0  0  0  0
  -29.7200  -11.7919   17.4053 H   0  0  0  0  0  0
  -29.6672  -13.4964   17.7837 H   0  0  0  0  0  0
  -27.8093  -11.3163   18.7931 H   0  0  0  0  0  0
  -27.3616  -12.6636   17.7826 H   0  0  0  0  0  0
  -27.7136  -14.2512   19.5879 H   0  0  0  0  0  0
  -28.6655  -11.9209   21.3275 H   0  0  0  0  0  0
  -28.4790  -13.5575   21.8767 H   0  0  0  0  0  0
  -25.2750   -9.5692   22.4760 H   0  0  0  0  0  0
  -24.0006   -7.4628   22.7476 H   0  0  0  0  0  0
  -21.0816   -8.8773   19.8964 H   0  0  0  0  0  0
  -22.3675  -10.9675   19.6174 H   0  0  0  0  0  0
  -21.1988   -7.6146   23.9720 H   0  0  0  0  0  0
  -21.1488   -6.0515   25.9087 H   0  0  0  0  0  0
  -22.0597   -2.7603   23.2838 H   0  0  0  0  0  0
  -22.4064  -11.9904   22.4814 H   0  0  0  0  0  0
  -21.1104  -13.1320   22.2620 H   0  0  0  0  0  0
  -24.6521  -15.8329   20.5009 H   0  0  0  0  0  0
  -26.2560  -15.6126   20.0151 H   0  0  0  0  0  0
  -26.7087  -32.5569   23.1211 H   0  0  0  0  0  0
  -24.9989  -33.9821   25.0475 H   0  0  0  0  0  0
  -22.6845  -31.3087   21.4119 H   0  0  0  0  0  0
  -23.3741  -35.9667   23.3306 H   0  0  0  0  0  0
  -24.3576  -36.8956   22.2054 H   0  0  0  0  0  0
  -23.7228  -37.6543   23.6650 H   0  0  0  0  0  0
  -26.0234  -31.6167   20.5891 H   0  0  0  0  0  0
  -26.8116  -30.9093   21.9718 H   0  0  0  0  0  0
  -28.1020  -29.1565   21.1452 H   0  0  0  0  0  0
  -26.0983  -25.9799   19.0325 H   0  0  0  0  0  0
  -23.9831  -27.2779   19.0596 H   0  0  0  0  0  0
  -23.7064  -30.5929   19.4042 H   0  0  0  0  0  0
  -22.7333  -29.2326   19.8760 H   0  0  0  0  0  0
  -25.1269  -36.2011   25.0834 H   0  0  0  0  0  0
  -20.9915  -28.3241   24.1461 H   0  0  0  0  0  0
  -20.5638  -26.2286   23.3618 H   0  0  0  0  0  0
  -21.6621  -26.7461   22.1233 H   0  0  0  0  0  0
  -19.6897  -25.6308   21.1241 H   0  0  0  0  0  0
  -19.6686  -27.3211   20.6752 H   0  0  0  0  0  0
  -17.4185  -26.6688   21.4009 H   0  0  0  0  0  0
  -18.0300  -26.0065   22.8997 H   0  0  0  0  0  0
  -19.7915  -30.7227   24.2333 H   0  0  0  0  0  0
  -17.5011  -31.6281   24.5159 H   0  0  0  0  0  0
  -15.5338  -30.3023   23.7638 H   0  0  0  0  0  0
  -15.8633  -28.0840   22.7079 H   0  0  0  0  0  0
  -24.5923  -30.7046   25.7868 H   0  0  0  0  0  0
  -24.8972  -32.2833   26.5031 H   0  0  0  0  0  0
  -25.8159  -30.8823   27.0236 H   0  0  0  0  0  0
  -26.2772  -29.6834   24.1166 H   0  0  0  0  0  0
  -27.4041  -29.7266   25.4534 H   0  0  0  0  0  0
  -27.8615  -30.4353   23.9210 H   0  0  0  0  0  0
  -27.2676  -33.3584   26.2139 H   0  0  0  0  0  0
  -28.3815  -32.6943   25.0278 H   0  0  0  0  0  0
  -28.0786  -31.8404   26.5336 H   0  0  0  0  0  0
  -28.2603  -38.0107   24.7513 H   0  0  0  0  0  0
  -28.1065  -36.2646   24.6255 H   0  0  0  0  0  0
  -27.2308  -37.1438   25.8863 H   0  0  0  0  0  0
  -20.9271  -29.8757   21.6962 H   0  0  0  0  0  0
  -26.0185  -38.2892   24.1441 H   0  0  0  0  0  0
  -32.0200  -19.1341   19.1155 H   0  0  0  0  0  0
  -27.7137  -18.8137   18.9412 H   0  0  0  0  0  0
  -32.1206  -17.0624   20.4335 H   0  0  0  0  0  0
  -27.8079  -16.7414   20.2528 H   0  0  0  0  0  0
  -27.0124  -23.2621   15.0358 H   0  0  0  0  0  0
  -26.9859  -21.4331   15.3036 H   0  0  0  0  0  0
  -27.6332  -23.2468   19.9284 H   0  0  0  0  0  0
  -27.5938  -23.6258   17.3560 H   0  0  0  0  0  0
  -30.2860  -24.6902   20.3915 H   0  0  0  0  0  0
  -29.4450  -20.0263   17.0286 H   0  0  0  0  0  0
  -30.8386  -20.6799   17.7891 H   0  0  0  0  0  0
  -27.3751  -20.5563   17.5233 H   0  0  0  0  0  0
  -26.9052  -21.5953   18.8098 H   0  0  0  0  0  0
  -28.8055  -25.9472   21.9223 H   0  0  0  0  0  0
  -27.3766  -25.2822   21.1610 H   0  0  0  0  0  0
  -29.1086  -15.1416   21.4203 H   0  0  0  0  0  0
  1 25  1  0  0  0
  1 30  2  0  0  0
  1 85  1  0  0  0
  2  3  1  0  0  0
  2 25  1  0  0  0
  2 88  1  0  0  0
  2 89  1  0  0  0
  3  4  1  0  0  0
  3 90  1  0  0  0
  3 91  1  0  0  0
  4  5  1  0  0  0
  4 92  1  0  0  0
  4 93  1  0  0  0
  5  6  1  0  0  0
  5 26  1  0  0  0
  5 94  1  0  0  0
  6 25  1  0  0  0
  6 95  1  0  0  0
  6 96  1  0  0  0
  7  8  2  0  0  0
  7 26  1  0  0  0
  7 29  1  0  0  0
  8  9  1  0  0  0
  8 22  1  0  0  0
  9 10  1  0  0  0
  9 27  2  0  0  0
 10 11  2  0  0  0
 10 15  1  0  0  0
 11 12  1  0  0  0
 11 97  1  0  0  0
 12 13  2  0  0  0
 12 98  1  0  0  0
 13 14  1  0  0  0
 13 31  1  0  0  0
 14 15  2  0  0  0
 14 99  1  0  0  0
 15100  1  0  0  0
 16 17  2  0  0  0
 16 21  1  0  0  0
 16 31  1  0  0  0
 17 18  1  0  0  0
 17101  1  0  0  0
 18 19  2  0  0  0
 18102  1  0  0  0
 19 20  1  0  0  0
 19 24  1  0  0  0
 20 21  2  0  0  0
 20103  1  0  0  0
 21 23  1  0  0  0
 22 28  1  0  0  0
 22 32  2  0  0  0
 26 27  1  0  0  0
 28104  1  0  0  0
 28105  1  0  0  0
 29106  1  0  0  0
 29107  1  0  0  0
 33 34  1  0  0  0
 33 66  1  0  0  0
 33 70  2  0  0  0
 34 36  1  0  0  0
 34 59  1  0  0  0
 34108  1  0  0  0
 35 44  2  0  0  0
 35 45  1  0  0  0
 35 68  1  0  0  0
 36 56  1  0  0  0
 36109  1  0  0  0
 37 39  1  0  0  0
 37 47  1  0  0  0
 37 66  1  0  0  0
 37110  1  0  0  0
 38 43  2  0  0  0
 38 46  1  0  0  0
 38 47  1  0  0  0
 39 64  1  0  0  0
 39 67  2  0  0  0
 40 52  1  0  0  0
 40 53  2  0  0  0
 40 58  1  0  0  0
 41111  1  0  0  0
 41112  1  0  0  0
 41113  1  0  0  0
 41 48  1  0  0  0
 42 43  1  0  0  0
 42 66  1  0  0  0
 42114  1  0  0  0
 42115  1  0  0  0
 43 44  1  0  0  0
 44116  1  0  0  0
 45 46  2  0  0  0
 45117  1  0  0  0
 46118  1  0  0  0
 47119  1  0  0  0
 47120  1  0  0  0
 48 56  1  0  0  0
 48 65  1  0  0  0
 48121  1  0  0  0
 49 50  1  0  0  0
 49 53  1  0  0  0
 49 64  1  0  0  0
 49122  1  0  0  0
 50 51  1  0  0  0
 50123  1  0  0  0
 50124  1  0  0  0
 51 52  1  0  0  0
 51125  1  0  0  0
 51126  1  0  0  0
 52127  1  0  0  0
 52128  1  0  0  0
 53 54  1  0  0  0
 54 55  2  0  0  0
 54129  1  0  0  0
 55 57  1  0  0  0
 55130  1  0  0  0
 56 69  2  0  0  0
 57 58  2  0  0  0
 57131  1  0  0  0
 58132  1  0  0  0
 59 60  1  0  0  0
 59 61  1  0  0  0
 59 62  1  0  0  0
 60133  1  0  0  0
 60134  1  0  0  0
 60135  1  0  0  0
 61136  1  0  0  0
 61137  1  0  0  0
 61138  1  0  0  0
 62139  1  0  0  0
 62140  1  0  0  0
 62141  1  0  0  0
 63 65  1  0  0  0
 63142  1  0  0  0
 63143  1  0  0  0
 63144  1  0  0  0
 64145  1  0  0  0
 65146  1  0  0  0
 68 84  1  0  0  0
 71 73  2  0  0  0
 71 75  1  0  0  0
 71147  1  0  0  0
 72 74  1  0  0  0
 72 75  2  0  0  0
 72148  1  0  0  0
 73 76  1  0  0  0
 73149  1  0  0  0
 74 76  2  0  0  0
 74150  1  0  0  0
 75 82  1  0  0  0
 76 85  1  0  0  0
 77 79  2  0  0  0
 77151  1  0  0  0
 77152  1  0  0  0
 78 80  2  0  0  0
 78 81  1  0  0  0
 78153  1  0  0  0
 79 83  1  0  0  0
 79154  1  0  0  0
 80 84  1  0  0  0
 80155  1  0  0  0
 81 86  1  0  0  0
 81 87  2  0  0  0
 82 86  1  0  0  0
 82156  1  0  0  0
 82157  1  0  0  0
 83 86  1  0  0  0
 83158  1  0  0  0
 83159  1  0  0  0
 84160  1  0  0  0
 84161  1  0  0  0
 85162  1  0  0  0
M  ISO  4   1 100  68 101  84 101  85 100
M  END
> <chiral flag>
0

> <version>
0

> <s_m_source_file>
/data/baiqing/PycharmProjects/Reinvent-master-3.2/result/LINK_invent/BTK/process_docking_weight1_custom_product_contain_oxygen_bond_distance_aromatic_linkinvent_7_9_3/rearranged_h_0053.sdf

> <i_m_source_file_index>
62

> <r_mmod_Potential_Energy-OPLS-2005>
-30.9603424072266

> <r_mmod_Stretch_Energy-OPLS-2005>
34.0637855529785

> <r_mmod_Bend_Energy-OPLS-2005>
89.26220703125

> <r_mmod_Torsional_Energy-OPLS-2005>
264.373748779297

> <r_mmod_Improper_Torsional_Energy-OPLS-2005>
7.02412080764771

> <r_mmod_Van_der_Waal_Energy-OPLS-2005>
167.0908203125

> <r_mmod_Electrostatic_Energy-OPLS-2005>
-379.882537841797

> <r_mmod_Solvation_Energy-OPLS-2005>
-222.937927246094

> <b_mmod_Minimization_Converged-OPLS-2005>
0

> <r_mmod_RMS_Derivative-OPLS-2005>
1.60002887248993

$$$$
62
                    3D
 Structure written by MMmdl.
160168  0  0  1  0            999 V2000
  -30.6837  -14.4984   20.5050 C   0  0  0  0  0  0
  -30.4194  -12.3002   19.4399 C   0  0  0  0  0  0
  -29.5006  -12.4919   18.2148 C   0  0  0  0  0  0
  -28.0200  -12.3539   18.6221 C   0  0  0  0  0  0
  -27.6583  -13.2081   19.8672 C   0  0  2  0  0  0
  -28.6987  -13.0200   20.9959 C   0  0  0  0  0  0
  -25.2590  -13.8164   20.5665 C   0  0  0  0  0  0
  -24.1844  -13.0440   20.9165 C   0  0  0  0  0  0
  -24.6392  -11.6906   20.8712 C   0  0  0  0  0  0
  -23.9058  -10.4298   21.0395 C   0  0  0  0  0  0
  -24.3616   -9.4214   21.9170 C   0  0  0  0  0  0
  -23.6295   -8.2252   22.0750 C   0  0  0  0  0  0
  -22.4276   -8.0280   21.3545 C   0  0  0  0  0  0
  -21.9904   -9.0253   20.4651 C   0  0  0  0  0  0
  -22.7229  -10.2136   20.3057 C   0  0  0  0  0  0
  -21.6857   -6.0731   22.5276 C   0  0  0  0  0  0
  -21.4019   -6.5637   23.8212 C   0  0  0  0  0  0
  -21.3668   -5.6789   24.9170 C   0  0  0  0  0  0
  -21.6051   -4.3048   24.7222 C   0  0  0  0  0  0
  -21.8824   -3.8143   23.4347 C   0  0  0  0  0  0
  -21.9201   -4.6961   22.3400 C   0  0  0  0  0  0
  -22.7869  -13.5234   21.1835 C   0  0  0  0  0  0
  -22.1666   -4.2146   21.0976 F   0  0  0  0  0  0
  -21.5633   -3.4529   25.7738 F   0  0  0  0  0  0
  -30.0303  -13.3065   20.4415 N   0  0  0  0  0  0
  -26.3012  -12.9327   20.3328 N   0  0  0  0  0  0
  -25.9321  -11.6487   20.5746 N   0  0  0  0  0  0
  -22.0522  -12.8230   22.0397 N   0  0  0  0  0  0
  -25.4324  -15.1882   20.4082 N   0  0  0  0  0  0
  -31.8536  -14.6319   20.1332 O   0  0  0  0  0  0
  -21.6644   -6.8875   21.4242 O   0  0  0  0  0  0
  -22.3555  -14.5536   20.6679 O   0  0  0  0  0  0
  -24.6149  -31.8680   23.2101 C   0  0  0  0  0  0
  -25.9037  -32.4829   23.8405 C   0  0  1  0  0  0
  -27.2250  -27.4323   20.1013 C   0  0  0  0  0  0
  -25.5892  -33.8628   24.2329 N   0  0  0  0  0  0
  -23.4041  -30.4912   21.5512 C   0  0  2  0  0  0
  -24.8500  -28.9602   20.1113 C   0  0  0  0  0  0
  -22.7422  -29.4655   22.4996 C   0  0  0  0  0  0
  -18.0272  -28.1381   22.8488 C   0  0  0  0  0  0
  -24.1485  -36.7323   23.2635 C   0  0  0  0  0  0
  -25.9337  -30.8334   21.3645 C   0  0  0  0  0  0
  -26.0113  -29.4694   20.7083 C   0  0  0  0  0  0
  -27.2062  -28.7131   20.6982 C   0  0  0  0  0  0
  -26.0542  -26.9419   19.4874 C   0  0  0  0  0  0
  -24.8670  -27.6967   19.4953 C   0  0  0  0  0  0
  -23.6122  -29.8261   20.1645 C   0  0  0  0  0  0
  -25.4105  -36.3122   24.0339 C   0  0  1  0  0  0
  -20.5863  -28.3665   23.1323 C   0  0  2  0  0  0
  -20.6763  -26.9398   22.5421 C   0  0  0  0  0  0
  -19.5742  -26.6387   21.5219 C   0  0  0  0  0  0
  -18.1918  -26.7924   22.1628 C   0  0  0  0  0  0
  -19.1521  -28.8841   23.2900 C   0  0  0  0  0  0
  -18.9449  -30.1448   23.8909 C   0  0  0  0  0  0
  -17.6451  -30.6585   24.0567 C   0  0  0  0  0  0
  -25.9036  -34.9483   23.5136 C   0  0  0  0  0  0
  -16.5342  -29.9090   23.6322 C   0  0  0  0  0  0
  -16.7263  -28.6511   23.0338 C   0  0  0  0  0  0
  -26.4443  -31.6608   25.0738 C   0  0  0  0  0  0
  -25.3698  -31.3734   26.1485 C   0  0  0  0  0  0
  -27.0254  -30.3042   24.6124 C   0  0  0  0  0  0
  -27.6031  -32.4318   25.7491 C   0  0  0  0  0  0
  -27.5586  -37.1813   24.8458 C   0  0  0  0  0  0
  -21.4149  -29.3032   22.3735 N   0  0  0  0  0  0
  -26.4292  -37.3807   23.9414 N   0  0  0  0  0  0
  -24.6693  -31.0784   22.1001 N   0  0  0  0  0  0
  -23.4190  -28.8195   23.3038 O   0  0  0  0  0  0
  -28.3556  -26.6476   20.1279 O   0  0  0  0  0  0
  -26.5600  -34.8930   22.4700 O   0  0  0  0  0  0
  -23.5338  -32.1433   23.7489 O   0  0  0  0  0  0
  -30.4907  -18.2616   18.2317 C   0  0  0  0  0  0
  -30.5365  -17.0237   18.8894 C   0  0  0  0  0  0
  -29.3637  -17.9968   20.7778 C   0  0  0  0  0  0
  -29.3197  -19.2698   20.1342 C   0  0  0  0  0  0
  -29.8724  -19.3821   18.8219 C   0  0  0  0  0  0
  -29.9676  -16.8624   20.1734 C   0  0  0  0  0  0
  -28.6121  -20.4217   20.8309 C   0  0  0  0  0  0
  -29.8085  -20.6494   17.9764 C   0  0  0  0  0  0
  -30.3416  -24.3520   20.0745 C   0  0  0  0  0  0
  -28.4909  -22.9145   21.1317 C   0  0  0  0  0  0
  -28.2097  -25.4537   20.9243 C   0  0  0  0  0  0
  -28.8267  -24.1801   20.2845 C   0  0  1  0  0  0
  -29.9223  -15.5734   20.8139 N   0  0  0  0  0  0
  -29.0740  -21.6674   20.6127 N   0  0  0  0  0  0
  -27.6730  -20.1997   21.5975 O   0  0  0  0  0  0
  -31.4667  -12.3836   19.1431 H   0  0  0  0  0  0
  -30.3043  -11.2962   19.8520 H   0  0  0  0  0  0
  -29.7442  -11.7622   17.4412 H   0  0  0  0  0  0
  -29.6740  -13.4744   17.7722 H   0  0  0  0  0  0
  -27.8353  -11.2998   18.8297 H   0  0  0  0  0  0
  -27.3719  -12.6136   17.7839 H   0  0  0  0  0  0
  -27.6927  -14.2499   19.5483 H   0  0  0  0  0  0
  -28.6733  -11.9959   21.3712 H   0  0  0  0  0  0
  -28.4659  -13.6558   21.8515 H   0  0  0  0  0  0
  -25.2773   -9.5681   22.4722 H   0  0  0  0  0  0
  -24.0005   -7.4647   22.7469 H   0  0  0  0  0  0
  -21.0839   -8.8775   19.8957 H   0  0  0  0  0  0
  -22.3695  -10.9666   19.6154 H   0  0  0  0  0  0
  -21.2011   -7.6145   23.9709 H   0  0  0  0  0  0
  -21.1480   -6.0515   25.9070 H   0  0  0  0  0  0
  -22.0599   -2.7605   23.2842 H   0  0  0  0  0  0
  -22.4157  -11.9897   22.4778 H   0  0  0  0  0  0
  -21.1148  -13.1263   22.2624 H   0  0  0  0  0  0
  -24.6665  -15.8434   20.5163 H   0  0  0  0  0  0
  -26.2869  -15.6280   20.0888 H   0  0  0  0  0  0
  -26.7117  -32.5533   23.1179 H   0  0  0  0  0  0
  -25.0034  -33.9792   25.0468 H   0  0  0  0  0  0
  -22.6933  -31.3078   21.4136 H   0  0  0  0  0  0
  -23.3754  -35.9650   23.3292 H   0  0  0  0  0  0
  -24.3583  -36.8941   22.2050 H   0  0  0  0  0  0
  -23.7224  -37.6524   23.6645 H   0  0  0  0  0  0
  -26.0480  -31.6009   20.5979 H   0  0  0  0  0  0
  -26.8204  -30.8840   21.9851 H   0  0  0  0  0  0
  -28.1015  -29.0953   21.1681 H   0  0  0  0  0  0
  -26.0599  -25.9687   19.0160 H   0  0  0  0  0  0
  -23.9757  -27.3005   19.0287 H   0  0  0  0  0  0
  -23.7196  -30.6026   19.4062 H   0  0  0  0  0  0
  -22.7364  -29.2457   19.8680 H   0  0  0  0  0  0
  -25.1280  -36.1994   25.0833 H   0  0  0  0  0  0
  -20.9946  -28.3225   24.1448 H   0  0  0  0  0  0
  -20.5682  -26.2271   23.3612 H   0  0  0  0  0  0
  -21.6636  -26.7455   22.1205 H   0  0  0  0  0  0
  -19.6905  -25.6301   21.1240 H   0  0  0  0  0  0
  -19.6679  -27.3209   20.6756 H   0  0  0  0  0  0
  -17.4191  -26.6676   21.4022 H   0  0  0  0  0  0
  -18.0311  -26.0064   22.9025 H   0  0  0  0  0  0
  -19.7925  -30.7259   24.2286 H   0  0  0  0  0  0
  -17.5007  -31.6264   24.5171 H   0  0  0  0  0  0
  -15.5343  -30.3001   23.7637 H   0  0  0  0  0  0
  -15.8663  -28.0845   22.7034 H   0  0  0  0  0  0
  -24.5888  -30.7054   25.7834 H   0  0  0  0  0  0
  -24.8861  -32.2891   26.4896 H   0  0  0  0  0  0
  -25.8040  -30.8944   27.0269 H   0  0  0  0  0  0
  -26.2807  -29.6853   24.1108 H   0  0  0  0  0  0
  -27.3927  -29.7235   25.4597 H   0  0  0  0  0  0
  -27.8685  -30.4352   23.9337 H   0  0  0  0  0  0
  -27.2658  -33.3602   26.2113 H   0  0  0  0  0  0
  -28.3802  -32.6907   25.0287 H   0  0  0  0  0  0
  -28.0737  -31.8415   26.5363 H   0  0  0  0  0  0
  -28.2602  -38.0112   24.7526 H   0  0  0  0  0  0
  -28.1080  -36.2650   24.6251 H   0  0  0  0  0  0
  -27.2311  -37.1430   25.8861 H   0  0  0  0  0  0
  -20.9317  -29.8759   21.6954 H   0  0  0  0  0  0
  -26.0187  -38.2888   24.1424 H   0  0  0  0  0  0
  -30.9160  -18.3342   17.2406 H   0  0  0  0  0  0
  -30.9889  -16.1955   18.3639 H   0  0  0  0  0  0
  -28.9115  -17.8934   21.7547 H   0  0  0  0  0  0
  -30.0178  -20.4383   16.9278 H   0  0  0  0  0  0
  -30.5465  -21.3784   18.3104 H   0  0  0  0  0  0
  -28.8187  -21.1057   18.0073 H   0  0  0  0  0  0
  -30.7708  -23.5201   19.5188 H   0  0  0  0  0  0
  -30.8683  -24.4281   21.0266 H   0  0  0  0  0  0
  -30.5560  -25.2567   19.5050 H   0  0  0  0  0  0
  -27.4055  -22.8067   21.1924 H   0  0  0  0  0  0
  -28.8398  -23.0496   22.1567 H   0  0  0  0  0  0
  -28.6794  -25.6425   21.8900 H   0  0  0  0  0  0
  -27.1621  -25.2464   21.1551 H   0  0  0  0  0  0
  -28.3659  -24.0539   19.3035 H   0  0  0  0  0  0
  -29.0770  -15.3693   21.3262 H   0  0  0  0  0  0
  -29.8786  -21.7463   20.0084 H   0  0  0  0  0  0
  1 25  1  0  0  0
  1 30  2  0  0  0
  1 83  1  0  0  0
  2  3  1  0  0  0
  2 25  1  0  0  0
  2 86  1  0  0  0
  2 87  1  0  0  0
  3  4  1  0  0  0
  3 88  1  0  0  0
  3 89  1  0  0  0
  4  5  1  0  0  0
  4 90  1  0  0  0
  4 91  1  0  0  0
  5  6  1  0  0  0
  5 26  1  0  0  0
  5 92  1  0  0  0
  6 25  1  0  0  0
  6 93  1  0  0  0
  6 94  1  0  0  0
  7  8  2  0  0  0
  7 26  1  0  0  0
  7 29  1  0  0  0
  8  9  1  0  0  0
  8 22  1  0  0  0
  9 10  1  0  0  0
  9 27  2  0  0  0
 10 11  2  0  0  0
 10 15  1  0  0  0
 11 12  1  0  0  0
 11 95  1  0  0  0
 12 13  2  0  0  0
 12 96  1  0  0  0
 13 14  1  0  0  0
 13 31  1  0  0  0
 14 15  2  0  0  0
 14 97  1  0  0  0
 15 98  1  0  0  0
 16 17  2  0  0  0
 16 21  1  0  0  0
 16 31  1  0  0  0
 17 18  1  0  0  0
 17 99  1  0  0  0
 18 19  2  0  0  0
 18100  1  0  0  0
 19 20  1  0  0  0
 19 24  1  0  0  0
 20 21  2  0  0  0
 20101  1  0  0  0
 21 23  1  0  0  0
 22 28  1  0  0  0
 22 32  2  0  0  0
 26 27  1  0  0  0
 28102  1  0  0  0
 28103  1  0  0  0
 29104  1  0  0  0
 29105  1  0  0  0
 33 34  1  0  0  0
 33 66  1  0  0  0
 33 70  2  0  0  0
 34 36  1  0  0  0
 34 59  1  0  0  0
 34106  1  0  0  0
 35 44  2  0  0  0
 35 45  1  0  0  0
 35 68  1  0  0  0
 36 56  1  0  0  0
 36107  1  0  0  0
 37 39  1  0  0  0
 37 47  1  0  0  0
 37 66  1  0  0  0
 37108  1  0  0  0
 38 43  2  0  0  0
 38 46  1  0  0  0
 38 47  1  0  0  0
 39 64  1  0  0  0
 39 67  2  0  0  0
 40 52  1  0  0  0
 40 53  2  0  0  0
 40 58  1  0  0  0
 41109  1  0  0  0
 41110  1  0  0  0
 41111  1  0  0  0
 41 48  1  0  0  0
 42 43  1  0  0  0
 42 66  1  0  0  0
 42112  1  0  0  0
 42113  1  0  0  0
 43 44  1  0  0  0
 44114  1  0  0  0
 45 46  2  0  0  0
 45115  1  0  0  0
 46116  1  0  0  0
 47117  1  0  0  0
 47118  1  0  0  0
 48 56  1  0  0  0
 48 65  1  0  0  0
 48119  1  0  0  0
 49 50  1  0  0  0
 49 53  1  0  0  0
 49 64  1  0  0  0
 49120  1  0  0  0
 50 51  1  0  0  0
 50121  1  0  0  0
 50122  1  0  0  0
 51 52  1  0  0  0
 51123  1  0  0  0
 51124  1  0  0  0
 52125  1  0  0  0
 52126  1  0  0  0
 53 54  1  0  0  0
 54 55  2  0  0  0
 54127  1  0  0  0
 55 57  1  0  0  0
 55128  1  0  0  0
 56 69  2  0  0  0
 57 58  2  0  0  0
 57129  1  0  0  0
 58130  1  0  0  0
 59 60  1  0  0  0
 59 61  1  0  0  0
 59 62  1  0  0  0
 60131  1  0  0  0
 60132  1  0  0  0
 60133  1  0  0  0
 61134  1  0  0  0
 61135  1  0  0  0
 61136  1  0  0  0
 62137  1  0  0  0
 62138  1  0  0  0
 62139  1  0  0  0
 63 65  1  0  0  0
 63140  1  0  0  0
 63141  1  0  0  0
 63142  1  0  0  0
 64143  1  0  0  0
 65144  1  0  0  0
 68 81  1  0  0  0
 71 72  2  0  0  0
 71 75  1  0  0  0
 71145  1  0  0  0
 72 76  1  0  0  0
 72146  1  0  0  0
 73 74  1  0  0  0
 73 76  2  0  0  0
 73147  1  0  0  0
 74 75  2  0  0  0
 74 77  1  0  0  0
 75 78  1  0  0  0
 76 83  1  0  0  0
 77 84  1  0  0  0
 77 85  2  0  0  0
 78148  1  0  0  0
 78149  1  0  0  0
 78150  1  0  0  0
 79151  1  0  0  0
 79152  1  0  0  0
 79153  1  0  0  0
 79 82  1  0  0  0
 80 82  1  0  0  0
 80 84  1  0  0  0
 80154  1  0  0  0
 80155  1  0  0  0
 81 82  1  0  0  0
 81156  1  0  0  0
 81157  1  0  0  0
 82158  1  0  0  0
 83159  1  0  0  0
 84160  1  0  0  0
M  ISO  4   1 100  68 101  81 101  83 100
M  END
> <chiral flag>
0

> <version>
0

> <s_m_source_file>
/data/baiqing/PycharmProjects/Reinvent-master-3.2/result/LINK_invent/BTK/process_docking_weight1_custom_product_contain_oxygen_bond_distance_aromatic_linkinvent_7_9_3/rearranged_h_0053.sdf

> <i_m_source_file_index>
63

> <r_mmod_Potential_Energy-OPLS-2005>
-59.443042755127

> <r_mmod_Stretch_Energy-OPLS-2005>
42.3403968811035

> <r_mmod_Bend_Energy-OPLS-2005>
95.9944076538086

> <r_mmod_Torsional_Energy-OPLS-2005>
268.244140625

> <r_mmod_Improper_Torsional_Energy-OPLS-2005>
5.88033246994019

> <r_mmod_Van_der_Waal_Energy-OPLS-2005>
160.294235229492

> <r_mmod_Electrostatic_Energy-OPLS-2005>
-430.162384033203

> <r_mmod_Solvation_Energy-OPLS-2005>
-220.495880126953

> <b_mmod_Minimization_Converged-OPLS-2005>
0

> <r_mmod_RMS_Derivative-OPLS-2005>
1.38446605205536

$$$$
63
                    3D
 Structure written by MMmdl.
161170  0  0  1  0            999 V2000
  -30.5405  -14.7705   20.4656 C   0  0  0  0  0  0
  -30.4518  -12.4708   19.4648 C   0  0  0  0  0  0
  -29.5182  -12.5222   18.2317 C   0  0  0  0  0  0
  -28.0420  -12.3397   18.6415 C   0  0  0  0  0  0
  -27.6471  -13.2207   19.8556 C   0  0  2  0  0  0
  -28.6933  -13.1158   20.9879 C   0  0  0  0  0  0
  -25.2532  -13.8159   20.5660 C   0  0  0  0  0  0
  -24.1819  -13.0427   20.9215 C   0  0  0  0  0  0
  -24.6397  -11.6903   20.8752 C   0  0  0  0  0  0
  -23.9065  -10.4287   21.0409 C   0  0  0  0  0  0
  -24.3617   -9.4203   21.9185 C   0  0  0  0  0  0
  -23.6288   -8.2239   22.0764 C   0  0  0  0  0  0
  -22.4267   -8.0283   21.3552 C   0  0  0  0  0  0
  -21.9900   -9.0259   20.4655 C   0  0  0  0  0  0
  -22.7235  -10.2134   20.3059 C   0  0  0  0  0  0
  -21.6855   -6.0729   22.5276 C   0  0  0  0  0  0
  -21.4016   -6.5633   23.8209 C   0  0  0  0  0  0
  -21.3656   -5.6789   24.9171 C   0  0  0  0  0  0
  -21.6045   -4.3051   24.7222 C   0  0  0  0  0  0
  -21.8819   -3.8142   23.4344 C   0  0  0  0  0  0
  -21.9194   -4.6957   22.3399 C   0  0  0  0  0  0
  -22.7840  -13.5226   21.1862 C   0  0  0  0  0  0
  -22.1664   -4.2143   21.0976 F   0  0  0  0  0  0
  -21.5624   -3.4537   25.7735 F   0  0  0  0  0  0
  -29.9930  -13.5051   20.4201 N   0  0  0  0  0  0
  -26.2960  -12.9344   20.3266 N   0  0  0  0  0  0
  -25.9324  -11.6505   20.5736 N   0  0  0  0  0  0
  -22.0472  -12.8238   22.0419 N   0  0  0  0  0  0
  -25.4220  -15.1871   20.4000 N   0  0  0  0  0  0
  -31.7154  -14.9508   20.1251 O   0  0  0  0  0  0
  -21.6639   -6.8877   21.4240 O   0  0  0  0  0  0
  -22.3532  -14.5527   20.6696 O   0  0  0  0  0  0
  -24.6319  -31.8511   23.1943 C   0  0  0  0  0  0
  -25.9136  -32.4726   23.8301 C   0  0  1  0  0  0
  -27.2329  -27.2482   20.1332 C   0  0  0  0  0  0
  -25.5918  -33.8526   24.2223 N   0  0  0  0  0  0
  -23.4294  -30.4684   21.5395 C   0  0  2  0  0  0
  -24.8752  -28.8990   20.1191 C   0  0  0  0  0  0
  -22.7495  -29.4565   22.4933 C   0  0  0  0  0  0
  -18.0283  -28.1385   22.8483 C   0  0  0  0  0  0
  -24.1485  -36.7273   23.2643 C   0  0  0  0  0  0
  -25.9735  -30.7595   21.3730 C   0  0  0  0  0  0
  -26.0449  -29.3774   20.7202 C   0  0  0  0  0  0
  -27.2226  -28.5662   20.7078 C   0  0  0  0  0  0
  -26.0354  -26.8236   19.5228 C   0  0  0  0  0  0
  -24.8748  -27.6302   19.5122 C   0  0  0  0  0  0
  -23.6481  -29.7910   20.1592 C   0  0  0  0  0  0
  -25.4109  -36.3043   24.0322 C   0  0  1  0  0  0
  -20.5883  -28.3680   23.1284 C   0  0  2  0  0  0
  -20.6766  -26.9397   22.5416 C   0  0  0  0  0  0
  -19.5744  -26.6377   21.5214 C   0  0  0  0  0  0
  -18.1925  -26.7930   22.1623 C   0  0  0  0  0  0
  -19.1537  -28.8853   23.2874 C   0  0  0  0  0  0
  -18.9460  -30.1461   23.8883 C   0  0  0  0  0  0
  -17.6457  -30.6581   24.0565 C   0  0  0  0  0  0
  -25.9056  -34.9420   23.5077 C   0  0  0  0  0  0
  -16.5349  -29.9077   23.6329 C   0  0  0  0  0  0
  -16.7272  -28.6500   23.0342 C   0  0  0  0  0  0
  -26.4496  -31.6573   25.0712 C   0  0  0  0  0  0
  -25.3718  -31.3743   26.1440 C   0  0  0  0  0  0
  -27.0354  -30.2988   24.6221 C   0  0  0  0  0  0
  -27.6035  -32.4336   25.7487 C   0  0  0  0  0  0
  -27.5572  -37.1783   24.8457 C   0  0  0  0  0  0
  -21.4206  -29.3025   22.3679 N   0  0  0  0  0  0
  -26.4275  -37.3750   23.9412 N   0  0  0  0  0  0
  -24.6975  -31.0454   22.0920 N   0  0  0  0  0  0
  -23.4191  -28.8117   23.3045 O   0  0  0  0  0  0
  -28.4015  -26.4536   20.1233 O   0  0  0  0  0  0
  -26.5642  -34.8904   22.4658 O   0  0  0  0  0  0
  -23.5468  -32.1344   23.7228 O   0  0  0  0  0  0
  -30.4245  -19.6466   20.3681 C   0  0  0  0  0  0
  -30.6445  -18.2194   20.4540 C   0  0  0  0  0  0
  -28.2852  -17.9012   20.5611 C   0  0  0  0  0  0
  -29.1267  -20.2564   20.3536 C   0  0  0  0  0  0
  -28.0572  -19.3141   20.4311 C   0  0  0  0  0  0
  -29.5719  -17.2829   20.5636 C   0  0  0  0  0  0
  -28.4613  -22.4655   19.1735 C   0  0  0  0  0  0
  -28.8720  -21.8038   20.2994 C   0  0  0  0  0  0
  -28.9289  -22.7069   21.5035 C   0  0  0  0  0  0
  -26.6735  -19.7975   20.4631 C   0  0  0  0  0  0
  -25.9311  -19.9654   19.3565 C   0  0  0  0  0  0
  -28.1006  -23.9845   18.9873 C   0  0  0  0  0  0
  -28.3394  -24.1691   21.4746 C   0  0  0  0  0  0
  -28.5554  -24.9429   20.1423 C   0  0  2  0  0  0
  -24.5101  -20.4845   19.3478 C   0  0  0  0  0  0
  -29.6478  -15.8003   20.7360 N   0  0  0  0  0  0
  -29.4071  -22.3143   22.5713 O   0  0  0  0  0  0
  -31.4874  -12.6315   19.1597 H   0  0  0  0  0  0
  -30.4246  -11.4837   19.9291 H   0  0  0  0  0  0
  -29.8033  -11.7577   17.5080 H   0  0  0  0  0  0
  -29.6391  -13.4803   17.7222 H   0  0  0  0  0  0
  -27.8927  -11.2865   18.8855 H   0  0  0  0  0  0
  -27.3884  -12.5510   17.7941 H   0  0  0  0  0  0
  -27.6474  -14.2478   19.4915 H   0  0  0  0  0  0
  -28.7375  -12.0977   21.3769 H   0  0  0  0  0  0
  -28.4208  -13.7475   21.8348 H   0  0  0  0  0  0
  -25.2764   -9.5674   22.4758 H   0  0  0  0  0  0
  -23.9998   -7.4625   22.7482 H   0  0  0  0  0  0
  -21.0827   -8.8777   19.8964 H   0  0  0  0  0  0
  -22.3694  -10.9674   19.6167 H   0  0  0  0  0  0
  -21.2015   -7.6143   23.9710 H   0  0  0  0  0  0
  -21.1476   -6.0519   25.9072 H   0  0  0  0  0  0
  -22.0603   -2.7604   23.2848 H   0  0  0  0  0  0
  -22.4085  -11.9901   22.4818 H   0  0  0  0  0  0
  -21.1091  -13.1282   22.2613 H   0  0  0  0  0  0
  -24.6400  -15.8282   20.4784 H   0  0  0  0  0  0
  -26.2286  -15.6027   19.9560 H   0  0  0  0  0  0
  -26.7206  -32.5367   23.1045 H   0  0  0  0  0  0
  -25.0035  -33.9654   25.0348 H   0  0  0  0  0  0
  -22.7265  -31.2896   21.3882 H   0  0  0  0  0  0
  -23.3739  -35.9612   23.3287 H   0  0  0  0  0  0
  -24.3578  -36.8918   22.2061 H   0  0  0  0  0  0
  -23.7251  -37.6468   23.6694 H   0  0  0  0  0  0
  -26.1120  -31.5165   20.6001 H   0  0  0  0  0  0
  -26.8513  -30.8110   22.0057 H   0  0  0  0  0  0
  -28.1270  -28.9385   21.1686 H   0  0  0  0  0  0
  -25.9813  -25.8617   19.0409 H   0  0  0  0  0  0
  -23.9763  -27.2572   19.0393 H   0  0  0  0  0  0
  -23.7772  -30.5633   19.3999 H   0  0  0  0  0  0
  -22.7655  -29.2255   19.8555 H   0  0  0  0  0  0
  -25.1293  -36.1875   25.0814 H   0  0  0  0  0  0
  -20.9966  -28.3256   24.1408 H   0  0  0  0  0  0
  -20.5644  -26.2285   23.3614 H   0  0  0  0  0  0
  -21.6639  -26.7406   22.1222 H   0  0  0  0  0  0
  -19.6896  -25.6288   21.1239 H   0  0  0  0  0  0
  -19.6686  -27.3187   20.6745 H   0  0  0  0  0  0
  -17.4191  -26.6674   21.4031 H   0  0  0  0  0  0
  -18.0319  -26.0078   22.9023 H   0  0  0  0  0  0
  -19.7936  -30.7288   24.2235 H   0  0  0  0  0  0
  -17.5005  -31.6254   24.5174 H   0  0  0  0  0  0
  -15.5348  -30.2967   23.7657 H   0  0  0  0  0  0
  -15.8677  -28.0817   22.7047 H   0  0  0  0  0  0
  -24.5868  -30.7117   25.7781 H   0  0  0  0  0  0
  -24.8944  -32.2927   26.4871 H   0  0  0  0  0  0
  -25.8030  -30.8914   27.0218 H   0  0  0  0  0  0
  -26.2954  -29.6726   24.1226 H   0  0  0  0  0  0
  -27.4007  -29.7261   25.4756 H   0  0  0  0  0  0
  -27.8835  -30.4258   23.9489 H   0  0  0  0  0  0
  -27.2620  -33.3632   26.2056 H   0  0  0  0  0  0
  -28.3845  -32.6910   25.0322 H   0  0  0  0  0  0
  -28.0710  -31.8483   26.5416 H   0  0  0  0  0  0
  -28.2565  -38.0101   24.7509 H   0  0  0  0  0  0
  -28.1087  -36.2628   24.6262 H   0  0  0  0  0  0
  -27.2299  -37.1409   25.8861 H   0  0  0  0  0  0
  -20.9389  -29.8757   21.6894 H   0  0  0  0  0  0
  -26.0139  -38.2813   24.1427 H   0  0  0  0  0  0
  -31.2896  -20.2919   20.3126 H   0  0  0  0  0  0
  -31.6615  -17.8528   20.4618 H   0  0  0  0  0  0
  -27.4147  -17.2689   20.6591 H   0  0  0  0  0  0
  -28.3302  -21.8732   18.2797 H   0  0  0  0  0  0
  -26.2623  -20.0305   21.4356 H   0  0  0  0  0  0
  -26.3562  -19.7278   18.3903 H   0  0  0  0  0  0
  -27.0208  -24.0230   18.8568 H   0  0  0  0  0  0
  -28.5331  -24.3255   18.0459 H   0  0  0  0  0  0
  -28.7943  -24.7307   22.2901 H   0  0  0  0  0  0
  -27.2746  -24.1119   21.6982 H   0  0  0  0  0  0
  -29.6406  -24.9107   20.0324 H   0  0  0  0  0  0
  -24.1481  -20.6783   20.3581 H   0  0  0  0  0  0
  -23.8458  -19.7582   18.8790 H   0  0  0  0  0  0
  -24.4564  -21.4139   18.7795 H   0  0  0  0  0  0
  -28.7615  -15.4006   21.0023 H   0  0  0  0  0  0
  1 25  1  0  0  0
  1 30  2  0  0  0
  1 86  1  0  0  0
  2  3  1  0  0  0
  2 25  1  0  0  0
  2 88  1  0  0  0
  2 89  1  0  0  0
  3  4  1  0  0  0
  3 90  1  0  0  0
  3 91  1  0  0  0
  4  5  1  0  0  0
  4 92  1  0  0  0
  4 93  1  0  0  0
  5  6  1  0  0  0
  5 26  1  0  0  0
  5 94  1  0  0  0
  6 25  1  0  0  0
  6 95  1  0  0  0
  6 96  1  0  0  0
  7  8  2  0  0  0
  7 26  1  0  0  0
  7 29  1  0  0  0
  8  9  1  0  0  0
  8 22  1  0  0  0
  9 10  1  0  0  0
  9 27  2  0  0  0
 10 11  2  0  0  0
 10 15  1  0  0  0
 11 12  1  0  0  0
 11 97  1  0  0  0
 12 13  2  0  0  0
 12 98  1  0  0  0
 13 14  1  0  0  0
 13 31  1  0  0  0
 14 15  2  0  0  0
 14 99  1  0  0  0
 15100  1  0  0  0
 16 17  2  0  0  0
 16 21  1  0  0  0
 16 31  1  0  0  0
 17 18  1  0  0  0
 17101  1  0  0  0
 18 19  2  0  0  0
 18102  1  0  0  0
 19 20  1  0  0  0
 19 24  1  0  0  0
 20 21  2  0  0  0
 20103  1  0  0  0
 21 23  1  0  0  0
 22 28  1  0  0  0
 22 32  2  0  0  0
 26 27  1  0  0  0
 28104  1  0  0  0
 28105  1  0  0  0
 29106  1  0  0  0
 29107  1  0  0  0
 33 34  1  0  0  0
 33 66  1  0  0  0
 33 70  2  0  0  0
 34 36  1  0  0  0
 34 59  1  0  0  0
 34108  1  0  0  0
 35 44  2  0  0  0
 35 45  1  0  0  0
 35 68  1  0  0  0
 36 56  1  0  0  0
 36109  1  0  0  0
 37 39  1  0  0  0
 37 47  1  0  0  0
 37 66  1  0  0  0
 37110  1  0  0  0
 38 43  2  0  0  0
 38 46  1  0  0  0
 38 47  1  0  0  0
 39 64  1  0  0  0
 39 67  2  0  0  0
 40 52  1  0  0  0
 40 53  2  0  0  0
 40 58  1  0  0  0
 41111  1  0  0  0
 41112  1  0  0  0
 41113  1  0  0  0
 41 48  1  0  0  0
 42 43  1  0  0  0
 42 66  1  0  0  0
 42114  1  0  0  0
 42115  1  0  0  0
 43 44  1  0  0  0
 44116  1  0  0  0
 45 46  2  0  0  0
 45117  1  0  0  0
 46118  1  0  0  0
 47119  1  0  0  0
 47120  1  0  0  0
 48 56  1  0  0  0
 48 65  1  0  0  0
 48121  1  0  0  0
 49 50  1  0  0  0
 49 53  1  0  0  0
 49 64  1  0  0  0
 49122  1  0  0  0
 50 51  1  0  0  0
 50123  1  0  0  0
 50124  1  0  0  0
 51 52  1  0  0  0
 51125  1  0  0  0
 51126  1  0  0  0
 52127  1  0  0  0
 52128  1  0  0  0
 53 54  1  0  0  0
 54 55  2  0  0  0
 54129  1  0  0  0
 55 57  1  0  0  0
 55130  1  0  0  0
 56 69  2  0  0  0
 57 58  2  0  0  0
 57131  1  0  0  0
 58132  1  0  0  0
 59 60  1  0  0  0
 59 61  1  0  0  0
 59 62  1  0  0  0
 60133  1  0  0  0
 60134  1  0  0  0
 60135  1  0  0  0
 61136  1  0  0  0
 61137  1  0  0  0
 61138  1  0  0  0
 62139  1  0  0  0
 62140  1  0  0  0
 62141  1  0  0  0
 63 65  1  0  0  0
 63142  1  0  0  0
 63143  1  0  0  0
 63144  1  0  0  0
 64145  1  0  0  0
 65146  1  0  0  0
 68 84  1  0  0  0
 71 72  2  0  0  0
 71 74  1  0  0  0
 71147  1  0  0  0
 72 76  1  0  0  0
 72148  1  0  0  0
 73 75  1  0  0  0
 73 76  2  0  0  0
 73149  1  0  0  0
 74 75  2  0  0  0
 74 78  1  0  0  0
 75 80  1  0  0  0
 76 86  1  0  0  0
 77 78  2  0  0  0
 77 82  1  0  0  0
 77150  1  0  0  0
 78 79  1  0  0  0
 79 83  1  0  0  0
 79 87  2  0  0  0
 80 81  2  0  0  0
 80151  1  0  0  0
 81 85  1  0  0  0
 81152  1  0  0  0
 82 84  1  0  0  0
 82153  1  0  0  0
 82154  1  0  0  0
 83 84  1  0  0  0
 83155  1  0  0  0
 83156  1  0  0  0
 84157  1  0  0  0
 85158  1  0  0  0
 85159  1  0  0  0
 85160  1  0  0  0
 86161  1  0  0  0
M  ISO  4   1 100  68 101  84 101  86 100
M  END
> <chiral flag>
0

> <version>
0

> <s_m_source_file>
/data/baiqing/PycharmProjects/Reinvent-master-3.2/result/LINK_invent/BTK/process_docking_weight1_custom_product_contain_oxygen_bond_distance_aromatic_linkinvent_7_9_3/rearranged_h_0053.sdf

> <i_m_source_file_index>
64

> <r_mmod_Potential_Energy-OPLS-2005>
254.475067138672

> <r_mmod_Stretch_Energy-OPLS-2005>
123.853118896484

> <r_mmod_Bend_Energy-OPLS-2005>
220.689102172852

> <r_mmod_Torsional_Energy-OPLS-2005>
254.65348815918

> <r_mmod_Improper_Torsional_Energy-OPLS-2005>
5.55978107452393

> <r_mmod_Van_der_Waal_Energy-OPLS-2005>
129.376342773438

> <r_mmod_Electrostatic_Energy-OPLS-2005>
-352.103424072266

> <r_mmod_Solvation_Energy-OPLS-2005>
-214.863845825195

> <b_mmod_Minimization_Converged-OPLS-2005>
0

> <r_mmod_RMS_Derivative-OPLS-2005>
1.31573462486267

$$$$
64
                    3D
 Structure written by MMmdl.
159167  0  0  1  0            999 V2000
  -30.6619  -14.5259   20.5749 C   0  0  0  0  0  0
  -30.4368  -12.3420   19.4250 C   0  0  0  0  0  0
  -29.5009  -12.5203   18.2091 C   0  0  0  0  0  0
  -28.0203  -12.3746   18.6178 C   0  0  0  0  0  0
  -27.6620  -13.2090   19.8758 C   0  0  2  0  0  0
  -28.7058  -12.9810   20.9932 C   0  0  0  0  0  0
  -25.2590  -13.8172   20.5696 C   0  0  0  0  0  0
  -24.1837  -13.0452   20.9190 C   0  0  0  0  0  0
  -24.6386  -11.6916   20.8736 C   0  0  0  0  0  0
  -23.9058  -10.4303   21.0407 C   0  0  0  0  0  0
  -24.3610   -9.4217   21.9190 C   0  0  0  0  0  0
  -23.6279   -8.2248   22.0749 C   0  0  0  0  0  0
  -22.4265   -8.0283   21.3537 C   0  0  0  0  0  0
  -21.9911   -9.0267   20.4644 C   0  0  0  0  0  0
  -22.7237  -10.2143   20.3054 C   0  0  0  0  0  0
  -21.6851   -6.0730   22.5277 C   0  0  0  0  0  0
  -21.4017   -6.5635   23.8214 C   0  0  0  0  0  0
  -21.3664   -5.6785   24.9175 C   0  0  0  0  0  0
  -21.6042   -4.3050   24.7227 C   0  0  0  0  0  0
  -21.8820   -3.8143   23.4352 C   0  0  0  0  0  0
  -21.9192   -4.6954   22.3404 C   0  0  0  0  0  0
  -22.7852  -13.5245   21.1859 C   0  0  0  0  0  0
  -22.1656   -4.2144   21.0978 F   0  0  0  0  0  0
  -21.5634   -3.4533   25.7743 F   0  0  0  0  0  0
  -30.0345  -13.3195   20.4500 N   0  0  0  0  0  0
  -26.3024  -12.9339   20.3357 N   0  0  0  0  0  0
  -25.9314  -11.6502   20.5763 N   0  0  0  0  0  0
  -22.0462  -12.8254   22.0394 N   0  0  0  0  0  0
  -25.4331  -15.1898   20.4114 N   0  0  0  0  0  0
  -31.7770  -14.7441   20.0908 O   0  0  0  0  0  0
  -21.6630   -6.8880   21.4236 O   0  0  0  0  0  0
  -22.3550  -14.5557   20.6696 O   0  0  0  0  0  0
  -24.6202  -31.8636   23.2088 C   0  0  0  0  0  0
  -25.9063  -32.4808   23.8403 C   0  0  1  0  0  0
  -27.2309  -27.3892   20.1097 C   0  0  0  0  0  0
  -25.5882  -33.8603   24.2327 N   0  0  0  0  0  0
  -23.4136  -30.4869   21.5498 C   0  0  2  0  0  0
  -24.8597  -28.9514   20.1132 C   0  0  0  0  0  0
  -22.7485  -29.4625   22.4969 C   0  0  0  0  0  0
  -18.0295  -28.1368   22.8473 C   0  0  0  0  0  0
  -24.1487  -36.7323   23.2647 C   0  0  0  0  0  0
  -25.9475  -30.8176   21.3692 C   0  0  0  0  0  0
  -26.0244  -29.4505   20.7118 C   0  0  0  0  0  0
  -27.2152  -28.6791   20.7024 C   0  0  0  0  0  0
  -26.0497  -26.9236   19.4911 C   0  0  0  0  0  0
  -24.8686  -27.6880   19.4992 C   0  0  0  0  0  0
  -23.6250  -29.8225   20.1638 C   0  0  0  0  0  0
  -25.4103  -36.3116   24.0350 C   0  0  1  0  0  0
  -20.5902  -28.3655   23.1295 C   0  0  2  0  0  0
  -20.6787  -26.9383   22.5396 C   0  0  0  0  0  0
  -19.5763  -26.6356   21.5208 C   0  0  0  0  0  0
  -18.1939  -26.7908   22.1618 C   0  0  0  0  0  0
  -19.1553  -28.8831   23.2871 C   0  0  0  0  0  0
  -18.9469  -30.1438   23.8872 C   0  0  0  0  0  0
  -17.6469  -30.6560   24.0554 C   0  0  0  0  0  0
  -25.9024  -34.9476   23.5150 C   0  0  0  0  0  0
  -16.5362  -29.9058   23.6321 C   0  0  0  0  0  0
  -16.7288  -28.6488   23.0331 C   0  0  0  0  0  0
  -26.4471  -31.6604   25.0747 C   0  0  0  0  0  0
  -25.3713  -31.3711   26.1485 C   0  0  0  0  0  0
  -27.0336  -30.3060   24.6141 C   0  0  0  0  0  0
  -27.6055  -32.4342   25.7482 C   0  0  0  0  0  0
  -27.5591  -37.1821   24.8470 C   0  0  0  0  0  0
  -21.4204  -29.3021   22.3714 N   0  0  0  0  0  0
  -26.4301  -37.3793   23.9416 N   0  0  0  0  0  0
  -24.6792  -31.0717   22.1001 N   0  0  0  0  0  0
  -23.4228  -28.8154   23.3014 O   0  0  0  0  0  0
  -28.3676  -26.5883   20.1078 O   0  0  0  0  0  0
  -26.5596  -34.8922   22.4717 O   0  0  0  0  0  0
  -23.5369  -32.1397   23.7430 O   0  0  0  0  0  0
  -30.9054  -19.1190   20.5284 C   0  0  0  0  0  0
  -30.8410  -17.7060   20.3756 C   0  0  0  0  0  0
  -29.2742  -17.5950   22.2149 C   0  0  0  0  0  0
  -30.1845  -19.7880   21.5487 C   0  0  0  0  0  0
  -29.3383  -19.0033   22.3843 C   0  0  0  0  0  0
  -30.0444  -16.9148   21.2425 C   0  0  0  0  0  0
  -30.5747  -21.1738   21.9298 C   0  0  0  0  0  0
  -28.3178  -25.3023   20.6545 C   0  0  0  0  0  0
  -28.5240  -19.6297   23.5106 C   0  0  0  0  0  0
  -29.2757  -24.2916   19.9761 C   0  0  0  0  0  0
  -29.1851  -22.7660   20.3847 C   0  0  0  0  0  0
  -27.5675  -25.0040   21.6331 N   0  0  0  0  0  0
  -31.4290  -21.2514   22.9455 N   0  0  0  0  0  0
  -29.9262  -15.4796   21.1939 N   0  0  0  0  0  0
  -30.1898  -22.3661   21.4072 N   0  3  0  0  0  0
  -31.4784  -12.4652   19.1210 H   0  0  0  0  0  0
  -30.3560  -11.3289   19.8224 H   0  0  0  0  0  0
  -29.7486  -11.7939   17.4347 H   0  0  0  0  0  0
  -29.6591  -13.5059   17.7671 H   0  0  0  0  0  0
  -27.8302  -11.3189   18.8088 H   0  0  0  0  0  0
  -27.3705  -12.6529   17.7874 H   0  0  0  0  0  0
  -27.7060  -14.2585   19.5832 H   0  0  0  0  0  0
  -28.6938  -11.9363   21.3047 H   0  0  0  0  0  0
  -28.4557  -13.5496   21.8896 H   0  0  0  0  0  0
  -25.2758   -9.5690   22.4770 H   0  0  0  0  0  0
  -23.9991   -7.4641   22.7473 H   0  0  0  0  0  0
  -21.0844   -8.8798   19.8956 H   0  0  0  0  0  0
  -22.3707  -10.9685   19.6163 H   0  0  0  0  0  0
  -21.2000   -7.6141   23.9720 H   0  0  0  0  0  0
  -21.1487   -6.0509   25.9078 H   0  0  0  0  0  0
  -22.0593   -2.7603   23.2853 H   0  0  0  0  0  0
  -22.4039  -11.9907   22.4815 H   0  0  0  0  0  0
  -21.1075  -13.1307   22.2561 H   0  0  0  0  0  0
  -24.6692  -15.8490   20.5177 H   0  0  0  0  0  0
  -26.2863  -15.6270   20.0893 H   0  0  0  0  0  0
  -26.7155  -32.5485   23.1184 H   0  0  0  0  0  0
  -25.0036  -33.9749   25.0477 H   0  0  0  0  0  0
  -22.7021  -31.3038   21.4107 H   0  0  0  0  0  0
  -23.3731  -35.9671   23.3311 H   0  0  0  0  0  0
  -24.3602  -36.8936   22.2061 H   0  0  0  0  0  0
  -23.7237  -37.6536   23.6655 H   0  0  0  0  0  0
  -26.0704  -31.5835   20.6019 H   0  0  0  0  0  0
  -26.8326  -30.8662   21.9925 H   0  0  0  0  0  0
  -28.1145  -29.0560   21.1699 H   0  0  0  0  0  0
  -26.0355  -25.9516   19.0196 H   0  0  0  0  0  0
  -23.9734  -27.2954   19.0337 H   0  0  0  0  0  0
  -23.7412  -30.6014   19.4109 H   0  0  0  0  0  0
  -22.7468  -29.2496   19.8633 H   0  0  0  0  0  0
  -25.1267  -36.2001   25.0839 H   0  0  0  0  0  0
  -20.9988  -28.3201   24.1426 H   0  0  0  0  0  0
  -20.5736  -26.2248   23.3590 H   0  0  0  0  0  0
  -21.6638  -26.7427   22.1172 H   0  0  0  0  0  0
  -19.6920  -25.6268   21.1235 H   0  0  0  0  0  0
  -19.6704  -27.3166   20.6746 H   0  0  0  0  0  0
  -17.4223  -26.6676   21.4003 H   0  0  0  0  0  0
  -18.0315  -26.0031   22.8992 H   0  0  0  0  0  0
  -19.7945  -30.7254   24.2228 H   0  0  0  0  0  0
  -17.5020  -31.6237   24.5151 H   0  0  0  0  0  0
  -15.5361  -30.2948   23.7652 H   0  0  0  0  0  0
  -15.8696  -28.0809   22.7041 H   0  0  0  0  0  0
  -24.5875  -30.7084   25.7799 H   0  0  0  0  0  0
  -24.8903  -32.2872   26.4933 H   0  0  0  0  0  0
  -25.8028  -30.8868   27.0253 H   0  0  0  0  0  0
  -26.2912  -29.6774   24.1220 H   0  0  0  0  0  0
  -27.4154  -29.7334   25.4601 H   0  0  0  0  0  0
  -27.8713  -30.4410   23.9293 H   0  0  0  0  0  0
  -27.2714  -33.3648   26.2074 H   0  0  0  0  0  0
  -28.3837  -32.6888   25.0276 H   0  0  0  0  0  0
  -28.0757  -31.8455   26.5366 H   0  0  0  0  0  0
  -28.2602  -38.0124   24.7512 H   0  0  0  0  0  0
  -28.1103  -36.2658   24.6302 H   0  0  0  0  0  0
  -27.2328  -37.1470   25.8879 H   0  0  0  0  0  0
  -20.9384  -29.8772   21.6943 H   0  0  0  0  0  0
  -26.0196  -38.2873   24.1412 H   0  0  0  0  0  0
  -31.5849  -19.6811   19.9017 H   0  0  0  0  0  0
  -31.4388  -17.2460   19.6025 H   0  0  0  0  0  0
  -28.6471  -17.0196   22.8832 H   0  0  0  0  0  0
  -27.7546  -18.9444   23.8655 H   0  0  0  0  0  0
  -28.0144  -20.5354   23.1780 H   0  0  0  0  0  0
  -29.1534  -19.8803   24.3635 H   0  0  0  0  0  0
  -30.2960  -24.6530   20.1065 H   0  0  0  0  0  0
  -29.0927  -24.3595   18.9041 H   0  0  0  0  0  0
  -29.3680  -22.1627   19.4945 H   0  0  0  0  0  0
  -28.1810  -22.5061   20.7212 H   0  0  0  0  0  0
  -27.6676  -24.0361   21.9140 H   0  0  0  0  0  0
  -31.7374  -20.3845   23.3627 H   0  0  0  0  0  0
  -31.7654  -22.1099   23.3511 H   0  0  0  0  0  0
  -29.1077  -15.1084   21.6485 H   0  0  0  0  0  0
  -30.6656  -23.1670   21.7953 H   0  0  0  0  0  0
  1 25  1  0  0  0
  1 30  2  0  0  0
  1 84  1  0  0  0
  2  3  1  0  0  0
  2 25  1  0  0  0
  2 86  1  0  0  0
  2 87  1  0  0  0
  3  4  1  0  0  0
  3 88  1  0  0  0
  3 89  1  0  0  0
  4  5  1  0  0  0
  4 90  1  0  0  0
  4 91  1  0  0  0
  5  6  1  0  0  0
  5 26  1  0  0  0
  5 92  1  0  0  0
  6 25  1  0  0  0
  6 93  1  0  0  0
  6 94  1  0  0  0
  7  8  2  0  0  0
  7 26  1  0  0  0
  7 29  1  0  0  0
  8  9  1  0  0  0
  8 22  1  0  0  0
  9 10  1  0  0  0
  9 27  2  0  0  0
 10 11  2  0  0  0
 10 15  1  0  0  0
 11 12  1  0  0  0
 11 95  1  0  0  0
 12 13  2  0  0  0
 12 96  1  0  0  0
 13 14  1  0  0  0
 13 31  1  0  0  0
 14 15  2  0  0  0
 14 97  1  0  0  0
 15 98  1  0  0  0
 16 17  2  0  0  0
 16 21  1  0  0  0
 16 31  1  0  0  0
 17 18  1  0  0  0
 17 99  1  0  0  0
 18 19  2  0  0  0
 18100  1  0  0  0
 19 20  1  0  0  0
 19 24  1  0  0  0
 20 21  2  0  0  0
 20101  1  0  0  0
 21 23  1  0  0  0
 22 28  1  0  0  0
 22 32  2  0  0  0
 26 27  1  0  0  0
 28102  1  0  0  0
 28103  1  0  0  0
 29104  1  0  0  0
 29105  1  0  0  0
 33 34  1  0  0  0
 33 66  1  0  0  0
 33 70  2  0  0  0
 34 36  1  0  0  0
 34 59  1  0  0  0
 34106  1  0  0  0
 35 44  2  0  0  0
 35 45  1  0  0  0
 35 68  1  0  0  0
 36 56  1  0  0  0
 36107  1  0  0  0
 37 39  1  0  0  0
 37 47  1  0  0  0
 37 66  1  0  0  0
 37108  1  0  0  0
 38 43  2  0  0  0
 38 46  1  0  0  0
 38 47  1  0  0  0
 39 64  1  0  0  0
 39 67  2  0  0  0
 40 52  1  0  0  0
 40 53  2  0  0  0
 40 58  1  0  0  0
 41109  1  0  0  0
 41110  1  0  0  0
 41111  1  0  0  0
 41 48  1  0  0  0
 42 43  1  0  0  0
 42 66  1  0  0  0
 42112  1  0  0  0
 42113  1  0  0  0
 43 44  1  0  0  0
 44114  1  0  0  0
 45 46  2  0  0  0
 45115  1  0  0  0
 46116  1  0  0  0
 47117  1  0  0  0
 47118  1  0  0  0
 48 56  1  0  0  0
 48 65  1  0  0  0
 48119  1  0  0  0
 49 50  1  0  0  0
 49 53  1  0  0  0
 49 64  1  0  0  0
 49120  1  0  0  0
 50 51  1  0  0  0
 50121  1  0  0  0
 50122  1  0  0  0
 51 52  1  0  0  0
 51123  1  0  0  0
 51124  1  0  0  0
 52125  1  0  0  0
 52126  1  0  0  0
 53 54  1  0  0  0
 54 55  2  0  0  0
 54127  1  0  0  0
 55 57  1  0  0  0
 55128  1  0  0  0
 56 69  2  0  0  0
 57 58  2  0  0  0
 57129  1  0  0  0
 58130  1  0  0  0
 59 60  1  0  0  0
 59 61  1  0  0  0
 59 62  1  0  0  0
 60131  1  0  0  0
 60132  1  0  0  0
 60133  1  0  0  0
 61134  1  0  0  0
 61135  1  0  0  0
 61136  1  0  0  0
 62137  1  0  0  0
 62138  1  0  0  0
 62139  1  0  0  0
 63 65  1  0  0  0
 63140  1  0  0  0
 63141  1  0  0  0
 63142  1  0  0  0
 64143  1  0  0  0
 65144  1  0  0  0
 68 78  1  0  0  0
 71 72  2  0  0  0
 71 74  1  0  0  0
 71145  1  0  0  0
 72 76  1  0  0  0
 72146  1  0  0  0
 73 75  1  0  0  0
 73 76  2  0  0  0
 73147  1  0  0  0
 74 75  2  0  0  0
 74 77  1  0  0  0
 75 79  1  0  0  0
 76 84  1  0  0  0
 77 83  1  0  0  0
 77 85  2  0  0  0
 78 80  1  0  0  0
 78 82  2  0  0  0
 79148  1  0  0  0
 79149  1  0  0  0
 79150  1  0  0  0
 80 81  1  0  0  0
 80151  1  0  0  0
 80152  1  0  0  0
 81 85  1  0  0  0
 81153  1  0  0  0
 81154  1  0  0  0
 82155  1  0  0  0
 83156  1  0  0  0
 83157  1  0  0  0
 84158  1  0  0  0
 85159  1  0  0  0
M  CHG  1  85   1
M  ISO  4   1 100  68 101  78 101  84 100
M  END
> <chiral flag>
0

> <version>
0

> <s_m_source_file>
/data/baiqing/PycharmProjects/Reinvent-master-3.2/result/LINK_invent/BTK/process_docking_weight1_custom_product_contain_oxygen_bond_distance_aromatic_linkinvent_7_9_3/rearranged_h_0053.sdf

> <i_m_source_file_index>
65

> <r_mmod_Potential_Energy-OPLS-2005>
-105.862602233887

> <r_mmod_Stretch_Energy-OPLS-2005>
51.7151679992676

> <r_mmod_Bend_Energy-OPLS-2005>
132.034362792969

> <r_mmod_Torsional_Energy-OPLS-2005>
243.931304931641

> <r_mmod_Improper_Torsional_Energy-OPLS-2005>
5.16374063491821

> <r_mmod_Van_der_Waal_Energy-OPLS-2005>
148.967010498047

> <r_mmod_Electrostatic_Energy-OPLS-2005>
-283.795837402344

> <r_mmod_Solvation_Energy-OPLS-2005>
-424.34814453125

> <b_mmod_Minimization_Converged-OPLS-2005>
0

> <r_mmod_RMS_Derivative-OPLS-2005>
2.50930047035217

$$$$
65
                    3D
 Structure written by MMmdl.
151159  0  0  1  0            999 V2000
  -30.6115  -14.7458   20.4605 C   0  0  0  0  0  0
  -30.4333  -12.4556   19.4693 C   0  0  0  0  0  0
  -29.5078  -12.4953   18.2340 C   0  0  0  0  0  0
  -28.0357  -12.3148   18.6528 C   0  0  0  0  0  0
  -27.6389  -13.2260   19.8449 C   0  0  2  0  0  0
  -28.6842  -13.1711   20.9792 C   0  0  0  0  0  0
  -25.2505  -13.8182   20.5680 C   0  0  0  0  0  0
  -24.1792  -13.0434   20.9206 C   0  0  0  0  0  0
  -24.6376  -11.6914   20.8749 C   0  0  0  0  0  0
  -23.9054  -10.4289   21.0409 C   0  0  0  0  0  0
  -24.3611   -9.4207   21.9185 C   0  0  0  0  0  0
  -23.6287   -8.2243   22.0753 C   0  0  0  0  0  0
  -22.4268   -8.0280   21.3545 C   0  0  0  0  0  0
  -21.9903   -9.0248   20.4643 C   0  0  0  0  0  0
  -22.7230  -10.2129   20.3054 C   0  0  0  0  0  0
  -21.6851   -6.0730   22.5276 C   0  0  0  0  0  0
  -21.4013   -6.5633   23.8209 C   0  0  0  0  0  0
  -21.3659   -5.6790   24.9174 C   0  0  0  0  0  0
  -21.6047   -4.3052   24.7226 C   0  0  0  0  0  0
  -21.8821   -3.8142   23.4347 C   0  0  0  0  0  0
  -21.9191   -4.6957   22.3403 C   0  0  0  0  0  0
  -22.7817  -13.5229   21.1862 C   0  0  0  0  0  0
  -22.1661   -4.2141   21.0980 F   0  0  0  0  0  0
  -21.5629   -3.4537   25.7739 F   0  0  0  0  0  0
  -29.9825  -13.5227   20.3911 N   0  0  0  0  0  0
  -26.2919  -12.9374   20.3259 N   0  0  0  0  0  0
  -25.9302  -11.6524   20.5748 N   0  0  0  0  0  0
  -22.0467  -12.8216   22.0421 N   0  0  0  0  0  0
  -25.4186  -15.1907   20.4078 N   0  0  0  0  0  0
  -31.8102  -14.8267   20.1765 O   0  0  0  0  0  0
  -21.6639   -6.8874   21.4238 O   0  0  0  0  0  0
  -22.3503  -14.5532   20.6705 O   0  0  0  0  0  0
  -24.6303  -31.8538   23.1961 C   0  0  0  0  0  0
  -25.9128  -32.4744   23.8315 C   0  0  1  0  0  0
  -27.2245  -27.2647   20.1399 C   0  0  0  0  0  0
  -25.5928  -33.8546   24.2242 N   0  0  0  0  0  0
  -23.4277  -30.4737   21.5394 C   0  0  2  0  0  0
  -24.8774  -28.9138   20.1151 C   0  0  0  0  0  0
  -22.7502  -29.4582   22.4905 C   0  0  0  0  0  0
  -18.0293  -28.1373   22.8473 C   0  0  0  0  0  0
  -24.1489  -36.7281   23.2644 C   0  0  0  0  0  0
  -25.9717  -30.7695   21.3734 C   0  0  0  0  0  0
  -26.0484  -29.3899   20.7199 C   0  0  0  0  0  0
  -27.2286  -28.5802   20.7139 C   0  0  0  0  0  0
  -26.0319  -26.8460   19.5169 C   0  0  0  0  0  0
  -24.8741  -27.6501   19.5016 C   0  0  0  0  0  0
  -23.6480  -29.8017   20.1578 C   0  0  0  0  0  0
  -25.4119  -36.3061   24.0325 C   0  0  1  0  0  0
  -20.5898  -28.3682   23.1258 C   0  0  2  0  0  0
  -20.6776  -26.9394   22.5405 C   0  0  0  0  0  0
  -19.5758  -26.6372   21.5197 C   0  0  0  0  0  0
  -18.1938  -26.7916   22.1614 C   0  0  0  0  0  0
  -19.1548  -28.8847   23.2856 C   0  0  0  0  0  0
  -18.9475  -30.1451   23.8873 C   0  0  0  0  0  0
  -17.6474  -30.6575   24.0557 C   0  0  0  0  0  0
  -25.9053  -34.9434   23.5084 C   0  0  0  0  0  0
  -16.5363  -29.9072   23.6331 C   0  0  0  0  0  0
  -16.7284  -28.6493   23.0346 C   0  0  0  0  0  0
  -26.4502  -31.6580   25.0712 C   0  0  0  0  0  0
  -25.3721  -31.3739   26.1430 C   0  0  0  0  0  0
  -27.0364  -30.3005   24.6202 C   0  0  0  0  0  0
  -27.6050  -32.4333   25.7488 C   0  0  0  0  0  0
  -27.5577  -37.1794   24.8469 C   0  0  0  0  0  0
  -21.4211  -29.3031   22.3649 N   0  0  0  0  0  0
  -26.4292  -37.3760   23.9406 N   0  0  0  0  0  0
  -24.6955  -31.0508   22.0930 N   0  0  0  0  0  0
  -23.4201  -28.8120   23.3001 O   0  0  0  0  0  0
  -28.3256  -26.3842   20.1301 O   0  0  0  0  0  0
  -26.5627  -34.8913   22.4653 O   0  0  0  0  0  0
  -23.5454  -32.1358   23.7264 O   0  0  0  0  0  0
  -31.4200  -17.6650   21.3260 C   0  0  0  0  0  0
  -31.7987  -19.0092   21.5169 C   0  0  0  0  0  0
  -29.3468  -18.4572   20.3473 C   0  0  0  0  0  0
  -29.7172  -19.8628   20.5160 C   0  0  0  0  0  0
  -30.1869  -17.3258   20.7291 C   0  0  0  0  0  0
  -30.9844  -20.0894   21.1157 C   0  0  0  0  0  0
  -28.5048  -23.7066   19.9350 C   0  0  0  0  0  0
  -28.8368  -21.0791   19.9474 C   0  0  0  0  0  0
  -28.1876  -25.0350   20.7812 C   0  0  0  0  0  0
  -29.8230  -15.8875   20.5881 N   0  0  0  0  0  0
  -28.7735  -22.4886   20.5507 N   0  0  0  0  0  0
  -28.4531  -23.7747   18.7049 O   0  0  0  0  0  0
  -31.6228  -21.6785   21.3514 Cl  0  0  0  0  0  0
  -31.4723  -12.5843   19.1634 H   0  0  0  0  0  0
  -30.3846  -11.4834   19.9622 H   0  0  0  0  0  0
  -29.7926  -11.7169   17.5252 H   0  0  0  0  0  0
  -29.6275  -13.4464   17.7126 H   0  0  0  0  0  0
  -27.9012  -11.2686   18.9314 H   0  0  0  0  0  0
  -27.3742  -12.4899   17.8031 H   0  0  0  0  0  0
  -27.6300  -14.2424   19.4517 H   0  0  0  0  0  0
  -28.7212  -12.1771   21.4274 H   0  0  0  0  0  0
  -28.4188  -13.8592   21.7836 H   0  0  0  0  0  0
  -25.2756   -9.5684   22.4758 H   0  0  0  0  0  0
  -23.9994   -7.4635   22.7473 H   0  0  0  0  0  0
  -21.0836   -8.8768   19.8948 H   0  0  0  0  0  0
  -22.3690  -10.9667   19.6162 H   0  0  0  0  0  0
  -21.2009   -7.6142   23.9711 H   0  0  0  0  0  0
  -21.1478   -6.0520   25.9076 H   0  0  0  0  0  0
  -22.0599   -2.7603   23.2851 H   0  0  0  0  0  0
  -22.4086  -11.9877   22.4807 H   0  0  0  0  0  0
  -21.1082  -13.1230   22.2625 H   0  0  0  0  0  0
  -24.6484  -15.8410   20.5178 H   0  0  0  0  0  0
  -26.2567  -15.6305   20.0509 H   0  0  0  0  0  0
  -26.7193  -32.5401   23.1055 H   0  0  0  0  0  0
  -25.0081  -33.9668   25.0395 H   0  0  0  0  0  0
  -22.7254  -31.2963   21.3893 H   0  0  0  0  0  0
  -23.3745  -35.9616   23.3312 H   0  0  0  0  0  0
  -24.3583  -36.8904   22.2058 H   0  0  0  0  0  0
  -23.7249  -37.6490   23.6665 H   0  0  0  0  0  0
  -26.1083  -31.5289   20.6030 H   0  0  0  0  0  0
  -26.8494  -30.8216   22.0058 H   0  0  0  0  0  0
  -28.1320  -28.9451   21.1830 H   0  0  0  0  0  0
  -25.9946  -25.8732   19.0466 H   0  0  0  0  0  0
  -23.9767  -27.2824   19.0232 H   0  0  0  0  0  0
  -23.7740  -30.5750   19.3991 H   0  0  0  0  0  0
  -22.7676  -29.2326   19.8533 H   0  0  0  0  0  0
  -25.1297  -36.1911   25.0815 H   0  0  0  0  0  0
  -20.9988  -28.3265   24.1380 H   0  0  0  0  0  0
  -20.5664  -26.2285   23.3606 H   0  0  0  0  0  0
  -21.6640  -26.7402   22.1204 H   0  0  0  0  0  0
  -19.6915  -25.6278   21.1234 H   0  0  0  0  0  0
  -19.6706  -27.3175   20.6714 H   0  0  0  0  0  0
  -17.4199  -26.6658   21.4023 H   0  0  0  0  0  0
  -18.0351  -26.0050   22.9003 H   0  0  0  0  0  0
  -19.7955  -30.7269   24.2229 H   0  0  0  0  0  0
  -17.5032  -31.6255   24.5161 H   0  0  0  0  0  0
  -15.5366  -30.2967   23.7665 H   0  0  0  0  0  0
  -15.8681  -28.0812   22.7059 H   0  0  0  0  0  0
  -24.5884  -30.7096   25.7770 H   0  0  0  0  0  0
  -24.8917  -32.2911   26.4847 H   0  0  0  0  0  0
  -25.8022  -30.8929   27.0219 H   0  0  0  0  0  0
  -26.2958  -29.6737   24.1219 H   0  0  0  0  0  0
  -27.4058  -29.7283   25.4724 H   0  0  0  0  0  0
  -27.8822  -30.4308   23.9442 H   0  0  0  0  0  0
  -27.2654  -33.3641   26.2045 H   0  0  0  0  0  0
  -28.3864  -32.6886   25.0315 H   0  0  0  0  0  0
  -28.0705  -31.8472   26.5421 H   0  0  0  0  0  0
  -28.2589  -38.0091   24.7492 H   0  0  0  0  0  0
  -28.1068  -36.2616   24.6315 H   0  0  0  0  0  0
  -27.2287  -37.1474   25.8869 H   0  0  0  0  0  0
  -20.9388  -29.8771   21.6874 H   0  0  0  0  0  0
  -26.0170  -38.2833   24.1406 H   0  0  0  0  0  0
  -32.1006  -16.8948   21.6606 H   0  0  0  0  0  0
  -32.7548  -19.2184   21.9751 H   0  0  0  0  0  0
  -28.3951  -18.2463   19.8797 H   0  0  0  0  0  0
  -27.8066  -20.7238   19.8992 H   0  0  0  0  0  0
  -29.1454  -21.1919   18.9069 H   0  0  0  0  0  0
  -27.1869  -24.9287   21.2029 H   0  0  0  0  0  0
  -28.8610  -25.0336   21.6384 H   0  0  0  0  0  0
  -28.8333  -15.6939   20.5865 H   0  0  0  0  0  0
  -28.8455  -22.5218   21.5585 H   0  0  0  0  0  0
  1 25  1  0  0  0
  1 30  2  0  0  0
  1 80  1  0  0  0
  2  3  1  0  0  0
  2 25  1  0  0  0
  2 84  1  0  0  0
  2 85  1  0  0  0
  3  4  1  0  0  0
  3 86  1  0  0  0
  3 87  1  0  0  0
  4  5  1  0  0  0
  4 88  1  0  0  0
  4 89  1  0  0  0
  5  6  1  0  0  0
  5 26  1  0  0  0
  5 90  1  0  0  0
  6 25  1  0  0  0
  6 91  1  0  0  0
  6 92  1  0  0  0
  7  8  2  0  0  0
  7 26  1  0  0  0
  7 29  1  0  0  0
  8  9  1  0  0  0
  8 22  1  0  0  0
  9 10  1  0  0  0
  9 27  2  0  0  0
 10 11  2  0  0  0
 10 15  1  0  0  0
 11 12  1  0  0  0
 11 93  1  0  0  0
 12 13  2  0  0  0
 12 94  1  0  0  0
 13 14  1  0  0  0
 13 31  1  0  0  0
 14 15  2  0  0  0
 14 95  1  0  0  0
 15 96  1  0  0  0
 16 17  2  0  0  0
 16 21  1  0  0  0
 16 31  1  0  0  0
 17 18  1  0  0  0
 17 97  1  0  0  0
 18 19  2  0  0  0
 18 98  1  0  0  0
 19 20  1  0  0  0
 19 24  1  0  0  0
 20 21  2  0  0  0
 20 99  1  0  0  0
 21 23  1  0  0  0
 22 28  1  0  0  0
 22 32  2  0  0  0
 26 27  1  0  0  0
 28100  1  0  0  0
 28101  1  0  0  0
 29102  1  0  0  0
 29103  1  0  0  0
 33 34  1  0  0  0
 33 66  1  0  0  0
 33 70  2  0  0  0
 34 36  1  0  0  0
 34 59  1  0  0  0
 34104  1  0  0  0
 35 44  2  0  0  0
 35 45  1  0  0  0
 35 68  1  0  0  0
 36 56  1  0  0  0
 36105  1  0  0  0
 37 39  1  0  0  0
 37 47  1  0  0  0
 37 66  1  0  0  0
 37106  1  0  0  0
 38 43  2  0  0  0
 38 46  1  0  0  0
 38 47  1  0  0  0
 39 64  1  0  0  0
 39 67  2  0  0  0
 40 52  1  0  0  0
 40 53  2  0  0  0
 40 58  1  0  0  0
 41107  1  0  0  0
 41108  1  0  0  0
 41109  1  0  0  0
 41 48  1  0  0  0
 42 43  1  0  0  0
 42 66  1  0  0  0
 42110  1  0  0  0
 42111  1  0  0  0
 43 44  1  0  0  0
 44112  1  0  0  0
 45 46  2  0  0  0
 45113  1  0  0  0
 46114  1  0  0  0
 47115  1  0  0  0
 47116  1  0  0  0
 48 56  1  0  0  0
 48 65  1  0  0  0
 48117  1  0  0  0
 49 50  1  0  0  0
 49 53  1  0  0  0
 49 64  1  0  0  0
 49118  1  0  0  0
 50 51  1  0  0  0
 50119  1  0  0  0
 50120  1  0  0  0
 51 52  1  0  0  0
 51121  1  0  0  0
 51122  1  0  0  0
 52123  1  0  0  0
 52124  1  0  0  0
 53 54  1  0  0  0
 54 55  2  0  0  0
 54125  1  0  0  0
 55 57  1  0  0  0
 55126  1  0  0  0
 56 69  2  0  0  0
 57 58  2  0  0  0
 57127  1  0  0  0
 58128  1  0  0  0
 59 60  1  0  0  0
 59 61  1  0  0  0
 59 62  1  0  0  0
 60129  1  0  0  0
 60130  1  0  0  0
 60131  1  0  0  0
 61132  1  0  0  0
 61133  1  0  0  0
 61134  1  0  0  0
 62135  1  0  0  0
 62136  1  0  0  0
 62137  1  0  0  0
 63 65  1  0  0  0
 63138  1  0  0  0
 63139  1  0  0  0
 63140  1  0  0  0
 64141  1  0  0  0
 65142  1  0  0  0
 68 79  1  0  0  0
 71 72  2  0  0  0
 71 75  1  0  0  0
 71143  1  0  0  0
 72 76  1  0  0  0
 72144  1  0  0  0
 73 74  1  0  0  0
 73 75  2  0  0  0
 73145  1  0  0  0
 74 76  2  0  0  0
 74 78  1  0  0  0
 75 80  1  0  0  0
 76 83  1  0  0  0
 77 79  1  0  0  0
 77 81  1  0  0  0
 77 82  2  0  0  0
 78 81  1  0  0  0
 78146  1  0  0  0
 78147  1  0  0  0
 79148  1  0  0  0
 79149  1  0  0  0
 80150  1  0  0  0
 81151  1  0  0  0
M  ISO  4   1 100  68 101  79 101  80 100
M  END
> <chiral flag>
0

> <version>
0

> <s_m_source_file>
/data/baiqing/PycharmProjects/Reinvent-master-3.2/result/LINK_invent/BTK/process_docking_weight1_custom_product_contain_oxygen_bond_distance_aromatic_linkinvent_7_9_3/rearranged_h_0053.sdf

> <i_m_source_file_index>
66

> <r_mmod_Potential_Energy-OPLS-2005>
103.504547119141

> <r_mmod_Stretch_Energy-OPLS-2005>
126.255424499512

> <r_mmod_Bend_Energy-OPLS-2005>
159.896499633789

> <r_mmod_Torsional_Energy-OPLS-2005>
236.708679199219

> <r_mmod_Improper_Torsional_Energy-OPLS-2005>
6.86995077133179

> <r_mmod_Van_der_Waal_Energy-OPLS-2005>
135.048873901367

> <r_mmod_Electrostatic_Energy-OPLS-2005>
-401.132080078125

> <r_mmod_Solvation_Energy-OPLS-2005>
-243.87939453125

> <b_mmod_Minimization_Converged-OPLS-2005>
0

> <r_mmod_RMS_Derivative-OPLS-2005>
1.31540417671204

$$$$
66
                    3D
 Structure written by MMmdl.
160168  0  0  1  0            999 V2000
  -30.7113  -14.4042   20.6323 C   0  0  0  0  0  0
  -30.4235  -12.2879   19.3926 C   0  0  0  0  0  0
  -29.4851  -12.5188   18.1902 C   0  0  0  0  0  0
  -28.0057  -12.3843   18.6044 C   0  0  0  0  0  0
  -27.6655  -13.1980   19.8806 C   0  0  2  0  0  0
  -28.7056  -12.9185   20.9877 C   0  0  0  0  0  0
  -25.2607  -13.8151   20.5671 C   0  0  0  0  0  0
  -24.1841  -13.0444   20.9170 C   0  0  0  0  0  0
  -24.6384  -11.6903   20.8736 C   0  0  0  0  0  0
  -23.9052  -10.4297   21.0411 C   0  0  0  0  0  0
  -24.3607   -9.4215   21.9190 C   0  0  0  0  0  0
  -23.6286   -8.2250   22.0758 C   0  0  0  0  0  0
  -22.4267   -8.0290   21.3549 C   0  0  0  0  0  0
  -21.9902   -9.0262   20.4648 C   0  0  0  0  0  0
  -22.7232  -10.2138   20.3053 C   0  0  0  0  0  0
  -21.6849   -6.0746   22.5288 C   0  0  0  0  0  0
  -21.4013   -6.5653   23.8223 C   0  0  0  0  0  0
  -21.3653   -5.6798   24.9183 C   0  0  0  0  0  0
  -21.6039   -4.3062   24.7227 C   0  0  0  0  0  0
  -21.8819   -3.8155   23.4349 C   0  0  0  0  0  0
  -21.9188   -4.6976   22.3406 C   0  0  0  0  0  0
  -22.7870  -13.5253   21.1844 C   0  0  0  0  0  0
  -22.1657   -4.2165   21.0984 F   0  0  0  0  0  0
  -21.5621   -3.4542   25.7735 F   0  0  0  0  0  0
  -30.0425  -13.2353   20.4486 N   0  0  0  0  0  0
  -26.3036  -12.9298   20.3385 N   0  0  0  0  0  0
  -25.9306  -11.6468   20.5769 N   0  0  0  0  0  0
  -22.0490  -12.8244   22.0387 N   0  0  0  0  0  0
  -25.4363  -15.1863   20.4074 N   0  0  0  0  0  0
  -31.7949  -14.6519   20.0928 O   0  0  0  0  0  0
  -21.6634   -6.8887   21.4249 O   0  0  0  0  0  0
  -22.3566  -14.5570   20.6704 O   0  0  0  0  0  0
  -24.6123  -31.8694   23.2106 C   0  0  0  0  0  0
  -25.9031  -32.4819   23.8399 C   0  0  1  0  0  0
  -27.2422  -27.4469   20.0796 C   0  0  0  0  0  0
  -25.5906  -33.8615   24.2355 N   0  0  0  0  0  0
  -23.3987  -30.4924   21.5514 C   0  0  2  0  0  0
  -24.8440  -28.9556   20.1203 C   0  0  0  0  0  0
  -22.7398  -29.4665   22.5005 C   0  0  0  0  0  0
  -18.0265  -28.1368   22.8487 C   0  0  0  0  0  0
  -24.1492  -36.7310   23.2635 C   0  0  0  0  0  0
  -25.9265  -30.8355   21.3619 C   0  0  0  0  0  0
  -26.0030  -29.4680   20.7151 C   0  0  0  0  0  0
  -27.1992  -28.7167   20.6996 C   0  0  0  0  0  0
  -26.0512  -26.9324   19.5117 C   0  0  0  0  0  0
  -24.8611  -27.6842   19.5242 C   0  0  0  0  0  0
  -23.6055  -29.8214   20.1669 C   0  0  0  0  0  0
  -25.4105  -36.3110   24.0351 C   0  0  1  0  0  0
  -20.5855  -28.3652   23.1325 C   0  0  2  0  0  0
  -20.6758  -26.9391   22.5418 C   0  0  0  0  0  0
  -19.5747  -26.6378   21.5201 C   0  0  0  0  0  0
  -18.1917  -26.7921   22.1599 C   0  0  0  0  0  0
  -19.1512  -28.8825   23.2905 C   0  0  0  0  0  0
  -18.9445  -30.1431   23.8918 C   0  0  0  0  0  0
  -17.6450  -30.6585   24.0550 C   0  0  0  0  0  0
  -25.9033  -34.9472   23.5151 C   0  0  0  0  0  0
  -16.5339  -29.9085   23.6322 C   0  0  0  0  0  0
  -16.7251  -28.6492   23.0355 C   0  0  0  0  0  0
  -26.4471  -31.6562   25.0702 C   0  0  0  0  0  0
  -25.3750  -31.3645   26.1460 C   0  0  0  0  0  0
  -27.0266  -30.3002   24.6028 C   0  0  0  0  0  0
  -27.6083  -32.4228   25.7455 C   0  0  0  0  0  0
  -27.5587  -37.1811   24.8469 C   0  0  0  0  0  0
  -21.4129  -29.3027   22.3745 N   0  0  0  0  0  0
  -26.4293  -37.3792   23.9415 N   0  0  0  0  0  0
  -24.6639  -31.0807   22.0997 N   0  0  0  0  0  0
  -23.4183  -28.8206   23.3031 O   0  0  0  0  0  0
  -28.4500  -26.7753   20.0571 O   0  0  0  0  0  0
  -26.5586  -34.8924   22.4706 O   0  0  0  0  0  0
  -23.5319  -32.1446   23.7512 O   0  0  0  0  0  0
  -29.3808  -18.8506   22.2433 C   0  0  0  0  0  0
  -31.7872  -18.5818   21.9951 C   0  0  0  0  0  0
  -29.1977  -17.4910   21.9234 C   0  0  0  0  0  0
  -31.6054  -17.2221   21.6678 C   0  0  0  0  0  0
  -30.6774  -19.4003   22.2974 C   0  0  0  0  0  0
  -30.3052  -16.6652   21.6353 C   0  0  0  0  0  0
  -29.7030  -22.5651   21.4101 C   0  0  0  0  0  0
  -32.0973  -22.0787   20.9854 C   0  0  0  0  0  0
  -30.8759  -20.8422   22.7505 C   0  0  0  0  0  0
  -29.8093  -23.8101   20.5048 C   0  0  0  0  0  0
  -28.4709  -24.3177   19.9209 C   0  0  0  0  0  0
  -28.6266  -25.6599   19.1779 C   0  0  0  0  0  0
  -30.0445  -15.2914   21.3890 N   0  0  0  0  0  0
  -30.8240  -21.8464   21.6752 N   0  0  0  0  0  0
  -28.6115  -22.2911   21.9190 O   0  0  0  0  0  0
  -31.4658  -12.3988   19.0871 H   0  0  0  0  0  0
  -30.3308  -11.2646   19.7600 H   0  0  0  0  0  0
  -29.7128  -11.8094   17.3937 H   0  0  0  0  0  0
  -29.6585  -13.5125   17.7736 H   0  0  0  0  0  0
  -27.8008  -11.3270   18.7738 H   0  0  0  0  0  0
  -27.3561  -12.6878   17.7822 H   0  0  0  0  0  0
  -27.7277  -14.2544   19.6171 H   0  0  0  0  0  0
  -28.6743  -11.8655   21.2717 H   0  0  0  0  0  0
  -28.4587  -13.4588   21.9021 H   0  0  0  0  0  0
  -25.2753   -9.5689   22.4768 H   0  0  0  0  0  0
  -23.9993   -7.4641   22.7478 H   0  0  0  0  0  0
  -21.0832   -8.8786   19.8954 H   0  0  0  0  0  0
  -22.3706  -10.9678   19.6155 H   0  0  0  0  0  0
  -21.2014   -7.6159   23.9733 H   0  0  0  0  0  0
  -21.1468   -6.0528   25.9083 H   0  0  0  0  0  0
  -22.0599   -2.7620   23.2847 H   0  0  0  0  0  0
  -22.4067  -11.9871   22.4740 H   0  0  0  0  0  0
  -21.1123  -13.1305   22.2607 H   0  0  0  0  0  0
  -24.6732  -15.8464   20.5117 H   0  0  0  0  0  0
  -26.2919  -15.6206   20.0834 H   0  0  0  0  0  0
  -26.7098  -32.5542   23.1156 H   0  0  0  0  0  0
  -25.0082  -33.9772   25.0520 H   0  0  0  0  0  0
  -22.6865  -31.3086   21.4114 H   0  0  0  0  0  0
  -23.3766  -35.9630   23.3278 H   0  0  0  0  0  0
  -24.3606  -36.8930   22.2054 H   0  0  0  0  0  0
  -23.7228  -37.6506   23.6650 H   0  0  0  0  0  0
  -26.0347  -31.5969   20.5879 H   0  0  0  0  0  0
  -26.8160  -30.8934   21.9769 H   0  0  0  0  0  0
  -28.0984  -29.1146   21.1496 H   0  0  0  0  0  0
  -26.0141  -25.9516   19.0616 H   0  0  0  0  0  0
  -23.9639  -27.2765   19.0786 H   0  0  0  0  0  0
  -23.7111  -30.5941   19.4047 H   0  0  0  0  0  0
  -22.7299  -29.2391   19.8732 H   0  0  0  0  0  0
  -25.1271  -36.1979   25.0846 H   0  0  0  0  0  0
  -20.9933  -28.3203   24.1448 H   0  0  0  0  0  0
  -20.5647  -26.2253   23.3598 H   0  0  0  0  0  0
  -21.6629  -26.7436   22.1208 H   0  0  0  0  0  0
  -19.6914  -25.6289   21.1224 H   0  0  0  0  0  0
  -19.6702  -27.3193   20.6740 H   0  0  0  0  0  0
  -17.4194  -26.6682   21.3992 H   0  0  0  0  0  0
  -18.0312  -26.0044   22.8972 H   0  0  0  0  0  0
  -19.7926  -30.7230   24.2307 H   0  0  0  0  0  0
  -17.5013  -31.6282   24.5119 H   0  0  0  0  0  0
  -15.5342  -30.2995   23.7646 H   0  0  0  0  0  0
  -15.8643  -28.0815   22.7083 H   0  0  0  0  0  0
  -24.5960  -30.6946   25.7803 H   0  0  0  0  0  0
  -24.8901  -32.2779   26.4909 H   0  0  0  0  0  0
  -25.8121  -30.8828   27.0214 H   0  0  0  0  0  0
  -26.2781  -29.6790   24.1096 H   0  0  0  0  0  0
  -27.4065  -29.7193   25.4441 H   0  0  0  0  0  0
  -27.8613  -30.4317   23.9139 H   0  0  0  0  0  0
  -27.2776  -33.3555   26.2032 H   0  0  0  0  0  0
  -28.3914  -32.6710   25.0278 H   0  0  0  0  0  0
  -28.0723  -31.8320   26.5362 H   0  0  0  0  0  0
  -28.2596  -38.0115   24.7504 H   0  0  0  0  0  0
  -28.1088  -36.2642   24.6290 H   0  0  0  0  0  0
  -27.2311  -37.1451   25.8875 H   0  0  0  0  0  0
  -20.9293  -29.8761   21.6978 H   0  0  0  0  0  0
  -26.0189  -38.2873   24.1402 H   0  0  0  0  0  0
  -28.5216  -19.4647   22.4754 H   0  0  0  0  0  0
  -32.7892  -18.9848   22.0413 H   0  0  0  0  0  0
  -28.1948  -17.0857   21.9112 H   0  0  0  0  0  0
  -32.4781  -16.6149   21.4732 H   0  0  0  0  0  0
  -32.4405  -23.1029   21.1361 H   0  0  0  0  0  0
  -31.9938  -21.9005   19.9147 H   0  0  0  0  0  0
  -32.8897  -21.4179   21.3382 H   0  0  0  0  0  0
  -31.8329  -20.9167   23.2699 H   0  0  0  0  0  0
  -30.1411  -21.0682   23.5251 H   0  0  0  0  0  0
  -30.4824  -23.6153   19.6710 H   0  0  0  0  0  0
  -30.2674  -24.6007   21.0998 H   0  0  0  0  0  0
  -27.7048  -24.4101   20.6916 H   0  0  0  0  0  0
  -28.1012  -23.5683   19.2193 H   0  0  0  0  0  0
  -27.9800  -25.7063   18.3022 H   0  0  0  0  0  0
  -29.6332  -25.7290   18.7638 H   0  0  0  0  0  0
  -29.1473  -14.9550   21.7018 H   0  0  0  0  0  0
  1 25  1  0  0  0
  1 30  2  0  0  0
  1 83  1  0  0  0
  2  3  1  0  0  0
  2 25  1  0  0  0
  2 86  1  0  0  0
  2 87  1  0  0  0
  3  4  1  0  0  0
  3 88  1  0  0  0
  3 89  1  0  0  0
  4  5  1  0  0  0
  4 90  1  0  0  0
  4 91  1  0  0  0
  5  6  1  0  0  0
  5 26  1  0  0  0
  5 92  1  0  0  0
  6 25  1  0  0  0
  6 93  1  0  0  0
  6 94  1  0  0  0
  7  8  2  0  0  0
  7 26  1  0  0  0
  7 29  1  0  0  0
  8  9  1  0  0  0
  8 22  1  0  0  0
  9 10  1  0  0  0
  9 27  2  0  0  0
 10 11  2  0  0  0
 10 15  1  0  0  0
 11 12  1  0  0  0
 11 95  1  0  0  0
 12 13  2  0  0  0
 12 96  1  0  0  0
 13 14  1  0  0  0
 13 31  1  0  0  0
 14 15  2  0  0  0
 14 97  1  0  0  0
 15 98  1  0  0  0
 16 17  2  0  0  0
 16 21  1  0  0  0
 16 31  1  0  0  0
 17 18  1  0  0  0
 17 99  1  0  0  0
 18 19  2  0  0  0
 18100  1  0  0  0
 19 20  1  0  0  0
 19 24  1  0  0  0
 20 21  2  0  0  0
 20101  1  0  0  0
 21 23  1  0  0  0
 22 28  1  0  0  0
 22 32  2  0  0  0
 26 27  1  0  0  0
 28102  1  0  0  0
 28103  1  0  0  0
 29104  1  0  0  0
 29105  1  0  0  0
 33 34  1  0  0  0
 33 66  1  0  0  0
 33 70  2  0  0  0
 34 36  1  0  0  0
 34 59  1  0  0  0
 34106  1  0  0  0
 35 44  2  0  0  0
 35 45  1  0  0  0
 35 68  1  0  0  0
 36 56  1  0  0  0
 36107  1  0  0  0
 37 39  1  0  0  0
 37 47  1  0  0  0
 37 66  1  0  0  0
 37108  1  0  0  0
 38 43  2  0  0  0
 38 46  1  0  0  0
 38 47  1  0  0  0
 39 64  1  0  0  0
 39 67  2  0  0  0
 40 52  1  0  0  0
 40 53  2  0  0  0
 40 58  1  0  0  0
 41109  1  0  0  0
 41110  1  0  0  0
 41111  1  0  0  0
 41 48  1  0  0  0
 42 43  1  0  0  0
 42 66  1  0  0  0
 42112  1  0  0  0
 42113  1  0  0  0
 43 44  1  0  0  0
 44114  1  0  0  0
 45 46  2  0  0  0
 45115  1  0  0  0
 46116  1  0  0  0
 47117  1  0  0  0
 47118  1  0  0  0
 48 56  1  0  0  0
 48 65  1  0  0  0
 48119  1  0  0  0
 49 50  1  0  0  0
 49 53  1  0  0  0
 49 64  1  0  0  0
 49120  1  0  0  0
 50 51  1  0  0  0
 50121  1  0  0  0
 50122  1  0  0  0
 51 52  1  0  0  0
 51123  1  0  0  0
 51124  1  0  0  0
 52125  1  0  0  0
 52126  1  0  0  0
 53 54  1  0  0  0
 54 55  2  0  0  0
 54127  1  0  0  0
 55 57  1  0  0  0
 55128  1  0  0  0
 56 69  2  0  0  0
 57 58  2  0  0  0
 57129  1  0  0  0
 58130  1  0  0  0
 59 60  1  0  0  0
 59 61  1  0  0  0
 59 62  1  0  0  0
 60131  1  0  0  0
 60132  1  0  0  0
 60133  1  0  0  0
 61134  1  0  0  0
 61135  1  0  0  0
 61136  1  0  0  0
 62137  1  0  0  0
 62138  1  0  0  0
 62139  1  0  0  0
 63 65  1  0  0  0
 63140  1  0  0  0
 63141  1  0  0  0
 63142  1  0  0  0
 64143  1  0  0  0
 65144  1  0  0  0
 68 82  1  0  0  0
 71 73  2  0  0  0
 71 75  1  0  0  0
 71145  1  0  0  0
 72 74  1  0  0  0
 72 75  2  0  0  0
 72146  1  0  0  0
 73 76  1  0  0  0
 73147  1  0  0  0
 74 76  2  0  0  0
 74148  1  0  0  0
 75 79  1  0  0  0
 76 83  1  0  0  0
 77 80  1  0  0  0
 77 84  1  0  0  0
 77 85  2  0  0  0
 78 84  1  0  0  0
 78149  1  0  0  0
 78150  1  0  0  0
 78151  1  0  0  0
 79 84  1  0  0  0
 79152  1  0  0  0
 79153  1  0  0  0
 80 81  1  0  0  0
 80154  1  0  0  0
 80155  1  0  0  0
 81 82  1  0  0  0
 81156  1  0  0  0
 81157  1  0  0  0
 82158  1  0  0  0
 82159  1  0  0  0
 83160  1  0  0  0
M  ISO  4   1 100  68 101  82 101  83 100
M  END
> <chiral flag>
0

> <version>
0

> <s_m_source_file>
/data/baiqing/PycharmProjects/Reinvent-master-3.2/result/LINK_invent/BTK/process_docking_weight1_custom_product_contain_oxygen_bond_distance_aromatic_linkinvent_7_9_3/rearranged_h_0053.sdf

> <i_m_source_file_index>
67

> <r_mmod_Potential_Energy-OPLS-2005>
-92.3433074951172

> <r_mmod_Stretch_Energy-OPLS-2005>
36.1849327087402

> <r_mmod_Bend_Energy-OPLS-2005>
103.276878356934

> <r_mmod_Torsional_Energy-OPLS-2005>
224.941680908203

> <r_mmod_Improper_Torsional_Energy-OPLS-2005>
3.16070175170898

> <r_mmod_Van_der_Waal_Energy-OPLS-2005>
167.030029296875

> <r_mmod_Electrostatic_Energy-OPLS-2005>
-406.796966552734

> <r_mmod_Solvation_Energy-OPLS-2005>
-228.643310546875

> <b_mmod_Minimization_Converged-OPLS-2005>
0

> <r_mmod_RMS_Derivative-OPLS-2005>
1.23357546329498

$$$$
67
                    3D
 Structure written by MMmdl.
158166  0  0  1  0            999 V2000
  -30.6575  -14.5264   20.5569 C   0  0  0  0  0  0
  -30.4394  -12.3398   19.4144 C   0  0  0  0  0  0
  -29.4996  -12.4979   18.1997 C   0  0  0  0  0  0
  -28.0208  -12.3485   18.6157 C   0  0  0  0  0  0
  -27.6575  -13.1993   19.8616 C   0  0  2  0  0  0
  -28.7042  -13.0020   20.9810 C   0  0  0  0  0  0
  -25.2601  -13.8139   20.5666 C   0  0  0  0  0  0
  -24.1852  -13.0422   20.9184 C   0  0  0  0  0  0
  -24.6390  -11.6892   20.8722 C   0  0  0  0  0  0
  -23.9050  -10.4283   21.0396 C   0  0  0  0  0  0
  -24.3603   -9.4205   21.9180 C   0  0  0  0  0  0
  -23.6283   -8.2240   22.0753 C   0  0  0  0  0  0
  -22.4269   -8.0274   21.3543 C   0  0  0  0  0  0
  -21.9897   -9.0243   20.4646 C   0  0  0  0  0  0
  -22.7215  -10.2124   20.3050 C   0  0  0  0  0  0
  -21.6854   -6.0726   22.5273 C   0  0  0  0  0  0
  -21.4015   -6.5633   23.8204 C   0  0  0  0  0  0
  -21.3655   -5.6789   24.9168 C   0  0  0  0  0  0
  -21.6047   -4.3050   24.7222 C   0  0  0  0  0  0
  -21.8821   -3.8138   23.4343 C   0  0  0  0  0  0
  -21.9196   -4.6956   22.3401 C   0  0  0  0  0  0
  -22.7874  -13.5234   21.1838 C   0  0  0  0  0  0
  -22.1668   -4.2138   21.0980 F   0  0  0  0  0  0
  -21.5626   -3.4540   25.7738 F   0  0  0  0  0  0
  -30.0245  -13.3292   20.4179 N   0  0  0  0  0  0
  -26.3008  -12.9283   20.3296 N   0  0  0  0  0  0
  -25.9308  -11.6455   20.5732 N   0  0  0  0  0  0
  -22.0506  -12.8237   22.0394 N   0  0  0  0  0  0
  -25.4326  -15.1856   20.4068 N   0  0  0  0  0  0
  -31.8257  -14.7155   20.2066 O   0  0  0  0  0  0
  -21.6637   -6.8866   21.4235 O   0  0  0  0  0  0
  -22.3560  -14.5531   20.6668 O   0  0  0  0  0  0
  -24.6206  -31.8649   23.2088 C   0  0  0  0  0  0
  -25.9084  -32.4797   23.8389 C   0  0  1  0  0  0
  -27.2257  -27.3935   20.0830 C   0  0  0  0  0  0
  -25.5918  -33.8596   24.2321 N   0  0  0  0  0  0
  -23.4083  -30.4936   21.5507 C   0  0  2  0  0  0
  -24.8508  -28.9610   20.1143 C   0  0  0  0  0  0
  -22.7439  -29.4650   22.4963 C   0  0  0  0  0  0
  -18.0267  -28.1374   22.8482 C   0  0  0  0  0  0
  -24.1480  -36.7318   23.2632 C   0  0  0  0  0  0
  -25.9437  -30.8208   21.3639 C   0  0  0  0  0  0
  -26.0191  -29.4532   20.7091 C   0  0  0  0  0  0
  -27.2083  -28.6775   20.6907 C   0  0  0  0  0  0
  -26.0223  -26.9323   19.4890 C   0  0  0  0  0  0
  -24.8494  -27.7009   19.5041 C   0  0  0  0  0  0
  -23.6170  -29.8331   20.1645 C   0  0  0  0  0  0
  -25.4099  -36.3104   24.0332 C   0  0  1  0  0  0
  -20.5875  -28.3666   23.1309 C   0  0  2  0  0  0
  -20.6758  -26.9394   22.5413 C   0  0  0  0  0  0
  -19.5730  -26.6378   21.5215 C   0  0  0  0  0  0
  -18.1911  -26.7920   22.1628 C   0  0  0  0  0  0
  -19.1523  -28.8829   23.2892 C   0  0  0  0  0  0
  -18.9456  -30.1436   23.8899 C   0  0  0  0  0  0
  -17.6460  -30.6581   24.0555 C   0  0  0  0  0  0
  -25.9036  -34.9465   23.5124 C   0  0  0  0  0  0
  -16.5349  -29.9077   23.6327 C   0  0  0  0  0  0
  -16.7261  -28.6498   23.0337 C   0  0  0  0  0  0
  -26.4480  -31.6584   25.0734 C   0  0  0  0  0  0
  -25.3746  -31.3702   26.1488 C   0  0  0  0  0  0
  -27.0285  -30.3022   24.6112 C   0  0  0  0  0  0
  -27.6051  -32.4294   25.7502 C   0  0  0  0  0  0
  -27.5567  -37.1808   24.8463 C   0  0  0  0  0  0
  -21.4156  -29.3042   22.3714 N   0  0  0  0  0  0
  -26.4282  -37.3798   23.9407 N   0  0  0  0  0  0
  -24.6767  -31.0731   22.0998 N   0  0  0  0  0  0
  -23.4206  -28.8184   23.3001 O   0  0  0  0  0  0
  -28.3818  -26.6161   20.0953 O   0  0  0  0  0  0
  -26.5596  -34.8920   22.4682 O   0  0  0  0  0  0
  -23.5390  -32.1410   23.7476 O   0  0  0  0  0  0
  -30.7168  -18.3260   23.1562 C   0  0  0  0  0  0
  -30.7138  -17.0544   22.5535 C   0  0  0  0  0  0
  -29.5283  -18.0014   20.6524 C   0  0  0  0  0  0
  -30.1001  -19.4373   22.5369 C   0  0  0  0  0  0
  -29.5454  -19.3032   21.2326 C   0  0  0  0  0  0
  -30.0822  -16.8699   21.3092 C   0  0  0  0  0  0
  -28.7686  -24.2348   20.5155 C   0  0  0  0  0  0
  -28.2820  -25.2665   19.7827 C   0  0  0  0  0  0
  -28.4191  -22.8546   20.1415 C   0  0  0  0  0  0
  -29.9995  -20.7152   23.3536 C   0  0  0  0  0  0
  -30.7299  -22.1178   20.5581 C   0  0  0  0  0  0
  -28.8248  -20.4436   20.4620 C   0  0  0  0  0  0
  -29.8176  -15.5501   20.8280 N   0  0  0  0  0  0
  -29.2864  -21.8638   20.5043 N   0  0  0  0  0  0
  -27.3393  -22.5852   19.6025 O   0  0  0  0  0  0
  -31.4790  -12.4730   19.1088 H   0  0  0  0  0  0
  -30.3717  -11.3325   19.8287 H   0  0  0  0  0  0
  -29.7464  -11.7574   17.4385 H   0  0  0  0  0  0
  -29.6540  -13.4739   17.7357 H   0  0  0  0  0  0
  -27.8423  -11.2931   18.8257 H   0  0  0  0  0  0
  -27.3658  -12.6053   17.7815 H   0  0  0  0  0  0
  -27.6890  -14.2411   19.5427 H   0  0  0  0  0  0
  -28.6984  -11.9695   21.3332 H   0  0  0  0  0  0
  -28.4641  -13.6117   21.8536 H   0  0  0  0  0  0
  -25.2749   -9.5682   22.4743 H   0  0  0  0  0  0
  -23.9994   -7.4632   22.7469 H   0  0  0  0  0  0
  -21.0827   -8.8752   19.8948 H   0  0  0  0  0  0
  -22.3673  -10.9660   19.6151 H   0  0  0  0  0  0
  -21.2006   -7.6143   23.9700 H   0  0  0  0  0  0
  -21.1476   -6.0526   25.9071 H   0  0  0  0  0  0
  -22.0603   -2.7603   23.2850 H   0  0  0  0  0  0
  -22.4133  -11.9925   22.4821 H   0  0  0  0  0  0
  -21.1108  -13.1244   22.2544 H   0  0  0  0  0  0
  -24.6614  -15.8367   20.5136 H   0  0  0  0  0  0
  -26.2731  -15.6268   20.0560 H   0  0  0  0  0  0
  -26.7132  -32.5488   23.1121 H   0  0  0  0  0  0
  -25.0069  -33.9725   25.0468 H   0  0  0  0  0  0
  -22.7004  -31.3130   21.4122 H   0  0  0  0  0  0
  -23.3736  -35.9665   23.3323 H   0  0  0  0  0  0
  -24.3572  -36.8922   22.2044 H   0  0  0  0  0  0
  -23.7244  -37.6528   23.6641 H   0  0  0  0  0  0
  -26.0583  -31.5849   20.5948 H   0  0  0  0  0  0
  -26.8316  -30.8755   21.9816 H   0  0  0  0  0  0
  -28.1116  -29.0535   21.1501 H   0  0  0  0  0  0
  -25.9357  -25.9700   19.0120 H   0  0  0  0  0  0
  -23.9487  -27.3120   19.0499 H   0  0  0  0  0  0
  -23.7327  -30.6099   19.4080 H   0  0  0  0  0  0
  -22.7382  -29.2609   19.8621 H   0  0  0  0  0  0
  -25.1270  -36.1966   25.0827 H   0  0  0  0  0  0
  -20.9961  -28.3222   24.1433 H   0  0  0  0  0  0
  -20.5671  -26.2255   23.3598 H   0  0  0  0  0  0
  -21.6621  -26.7409   22.1198 H   0  0  0  0  0  0
  -19.6899  -25.6295   21.1216 H   0  0  0  0  0  0
  -19.6680  -27.3204   20.6765 H   0  0  0  0  0  0
  -17.4179  -26.6654   21.4034 H   0  0  0  0  0  0
  -18.0308  -26.0066   22.9028 H   0  0  0  0  0  0
  -19.7936  -30.7232   24.2278 H   0  0  0  0  0  0
  -17.5021  -31.6265   24.5142 H   0  0  0  0  0  0
  -15.5350  -30.2975   23.7652 H   0  0  0  0  0  0
  -15.8659  -28.0817   22.7043 H   0  0  0  0  0  0
  -24.5916  -30.7028   25.7858 H   0  0  0  0  0  0
  -24.8940  -32.2856   26.4966 H   0  0  0  0  0  0
  -25.8114  -30.8866   27.0238 H   0  0  0  0  0  0
  -26.2806  -29.6822   24.1154 H   0  0  0  0  0  0
  -27.4018  -29.7224   25.4565 H   0  0  0  0  0  0
  -27.8667  -30.4329   23.9264 H   0  0  0  0  0  0
  -27.2658  -33.3581   26.2100 H   0  0  0  0  0  0
  -28.3848  -32.6889   25.0328 H   0  0  0  0  0  0
  -28.0719  -31.8405   26.5411 H   0  0  0  0  0  0
  -28.2586  -38.0105   24.7505 H   0  0  0  0  0  0
  -28.1050  -36.2628   24.6285 H   0  0  0  0  0  0
  -27.2282  -37.1472   25.8869 H   0  0  0  0  0  0
  -20.9310  -29.8804   21.6968 H   0  0  0  0  0  0
  -26.0173  -38.2872   24.1443 H   0  0  0  0  0  0
  -31.1536  -18.4312   24.1408 H   0  0  0  0  0  0
  -31.1266  -16.2137   23.0931 H   0  0  0  0  0  0
  -29.0263  -17.8604   19.7043 H   0  0  0  0  0  0
  -29.3560  -24.4235   21.4001 H   0  0  0  0  0  0
  -27.7487  -25.0938   18.8587 H   0  0  0  0  0  0
  -30.8933  -21.3232   23.2265 H   0  0  0  0  0  0
  -29.9147  -20.4821   24.4159 H   0  0  0  0  0  0
  -29.1201  -21.3025   23.0923 H   0  0  0  0  0  0
  -31.0553  -22.6681   19.6741 H   0  0  0  0  0  0
  -31.3113  -21.1972   20.5813 H   0  0  0  0  0  0
  -30.9926  -22.7083   21.4346 H   0  0  0  0  0  0
  -27.7932  -20.4058   20.8169 H   0  0  0  0  0  0
  -28.7749  -20.1664   19.4081 H   0  0  0  0  0  0
  -28.8443  -15.2889   20.8144 H   0  0  0  0  0  0
  1 25  1  0  0  0
  1 30  2  0  0  0
  1 83  1  0  0  0
  2  3  1  0  0  0
  2 25  1  0  0  0
  2 86  1  0  0  0
  2 87  1  0  0  0
  3  4  1  0  0  0
  3 88  1  0  0  0
  3 89  1  0  0  0
  4  5  1  0  0  0
  4 90  1  0  0  0
  4 91  1  0  0  0
  5  6  1  0  0  0
  5 26  1  0  0  0
  5 92  1  0  0  0
  6 25  1  0  0  0
  6 93  1  0  0  0
  6 94  1  0  0  0
  7  8  2  0  0  0
  7 26  1  0  0  0
  7 29  1  0  0  0
  8  9  1  0  0  0
  8 22  1  0  0  0
  9 10  1  0  0  0
  9 27  2  0  0  0
 10 11  2  0  0  0
 10 15  1  0  0  0
 11 12  1  0  0  0
 11 95  1  0  0  0
 12 13  2  0  0  0
 12 96  1  0  0  0
 13 14  1  0  0  0
 13 31  1  0  0  0
 14 15  2  0  0  0
 14 97  1  0  0  0
 15 98  1  0  0  0
 16 17  2  0  0  0
 16 21  1  0  0  0
 16 31  1  0  0  0
 17 18  1  0  0  0
 17 99  1  0  0  0
 18 19  2  0  0  0
 18100  1  0  0  0
 19 20  1  0  0  0
 19 24  1  0  0  0
 20 21  2  0  0  0
 20101  1  0  0  0
 21 23  1  0  0  0
 22 28  1  0  0  0
 22 32  2  0  0  0
 26 27  1  0  0  0
 28102  1  0  0  0
 28103  1  0  0  0
 29104  1  0  0  0
 29105  1  0  0  0
 33 34  1  0  0  0
 33 66  1  0  0  0
 33 70  2  0  0  0
 34 36  1  0  0  0
 34 59  1  0  0  0
 34106  1  0  0  0
 35 44  2  0  0  0
 35 45  1  0  0  0
 35 68  1  0  0  0
 36 56  1  0  0  0
 36107  1  0  0  0
 37 39  1  0  0  0
 37 47  1  0  0  0
 37 66  1  0  0  0
 37108  1  0  0  0
 38 43  2  0  0  0
 38 46  1  0  0  0
 38 47  1  0  0  0
 39 64  1  0  0  0
 39 67  2  0  0  0
 40 52  1  0  0  0
 40 53  2  0  0  0
 40 58  1  0  0  0
 41109  1  0  0  0
 41110  1  0  0  0
 41111  1  0  0  0
 41 48  1  0  0  0
 42 43  1  0  0  0
 42 66  1  0  0  0
 42112  1  0  0  0
 42113  1  0  0  0
 43 44  1  0  0  0
 44114  1  0  0  0
 45 46  2  0  0  0
 45115  1  0  0  0
 46116  1  0  0  0
 47117  1  0  0  0
 47118  1  0  0  0
 48 56  1  0  0  0
 48 65  1  0  0  0
 48119  1  0  0  0
 49 50  1  0  0  0
 49 53  1  0  0  0
 49 64  1  0  0  0
 49120  1  0  0  0
 50 51  1  0  0  0
 50121  1  0  0  0
 50122  1  0  0  0
 51 52  1  0  0  0
 51123  1  0  0  0
 51124  1  0  0  0
 52125  1  0  0  0
 52126  1  0  0  0
 53 54  1  0  0  0
 54 55  2  0  0  0
 54127  1  0  0  0
 55 57  1  0  0  0
 55128  1  0  0  0
 56 69  2  0  0  0
 57 58  2  0  0  0
 57129  1  0  0  0
 58130  1  0  0  0
 59 60  1  0  0  0
 59 61  1  0  0  0
 59 62  1  0  0  0
 60131  1  0  0  0
 60132  1  0  0  0
 60133  1  0  0  0
 61134  1  0  0  0
 61135  1  0  0  0
 61136  1  0  0  0
 62137  1  0  0  0
 62138  1  0  0  0
 62139  1  0  0  0
 63 65  1  0  0  0
 63140  1  0  0  0
 63141  1  0  0  0
 63142  1  0  0  0
 64143  1  0  0  0
 65144  1  0  0  0
 68 78  1  0  0  0
 71 72  2  0  0  0
 71 74  1  0  0  0
 71145  1  0  0  0
 72 76  1  0  0  0
 72146  1  0  0  0
 73 75  1  0  0  0
 73 76  2  0  0  0
 73147  1  0  0  0
 74 75  2  0  0  0
 74 80  1  0  0  0
 75 82  1  0  0  0
 76 83  1  0  0  0
 77 78  2  0  0  0
 77 79  1  0  0  0
 77148  1  0  0  0
 78149  1  0  0  0
 79 84  1  0  0  0
 79 85  2  0  0  0
 80150  1  0  0  0
 80151  1  0  0  0
 80152  1  0  0  0
 81 84  1  0  0  0
 81153  1  0  0  0
 81154  1  0  0  0
 81155  1  0  0  0
 82 84  1  0  0  0
 82156  1  0  0  0
 82157  1  0  0  0
 83158  1  0  0  0
M  ISO  4   1 100  68 101  78 101  83 100
M  END
> <chiral flag>
0

> <version>
0

> <s_m_source_file>
/data/baiqing/PycharmProjects/Reinvent-master-3.2/result/LINK_invent/BTK/process_docking_weight1_custom_product_contain_oxygen_bond_distance_aromatic_linkinvent_7_9_3/rearranged_h_0053.sdf

> <i_m_source_file_index>
68

> <r_mmod_Potential_Energy-OPLS-2005>
24.3209495544434

> <r_mmod_Stretch_Energy-OPLS-2005>
49.1172676086426

> <r_mmod_Bend_Energy-OPLS-2005>
117.888702392578

> <r_mmod_Torsional_Energy-OPLS-2005>
270.833557128906

> <r_mmod_Improper_Torsional_Energy-OPLS-2005>
10.8310499191284

> <r_mmod_Van_der_Waal_Energy-OPLS-2005>
168.820114135742

> <r_mmod_Electrostatic_Energy-OPLS-2005>
-394.073211669922

> <r_mmod_Solvation_Energy-OPLS-2005>
-222.039566040039

> <b_mmod_Minimization_Converged-OPLS-2005>
0

> <r_mmod_RMS_Derivative-OPLS-2005>
2.03314733505249

$$$$
68
                    3D
 Structure written by MMmdl.
161169  0  0  1  0            999 V2000
  -30.6891  -14.3617   20.7187 C   0  0  0  0  0  0
  -30.4452  -12.2919   19.3784 C   0  0  0  0  0  0
  -29.5029  -12.5593   18.1872 C   0  0  0  0  0  0
  -28.0237  -12.4042   18.5955 C   0  0  0  0  0  0
  -27.6794  -13.1885   19.8870 C   0  0  2  0  0  0
  -28.7094  -12.8414   20.9827 C   0  0  0  0  0  0
  -25.2696  -13.8132   20.5639 C   0  0  0  0  0  0
  -24.1875  -13.0438   20.9132 C   0  0  0  0  0  0
  -24.6405  -11.6924   20.8702 C   0  0  0  0  0  0
  -23.9068  -10.4306   21.0373 C   0  0  0  0  0  0
  -24.3606   -9.4225   21.9171 C   0  0  0  0  0  0
  -23.6292   -8.2237   22.0714 C   0  0  0  0  0  0
  -22.4274   -8.0264   21.3513 C   0  0  0  0  0  0
  -21.9937   -9.0211   20.4598 C   0  0  0  0  0  0
  -22.7242  -10.2125   20.3018 C   0  0  0  0  0  0
  -21.6846   -6.0738   22.5260 C   0  0  0  0  0  0
  -21.4015   -6.5626   23.8208 C   0  0  0  0  0  0
  -21.3689   -5.6774   24.9169 C   0  0  0  0  0  0
  -21.6050   -4.3030   24.7195 C   0  0  0  0  0  0
  -21.8821   -3.8138   23.4308 C   0  0  0  0  0  0
  -21.9178   -4.6967   22.3392 C   0  0  0  0  0  0
  -22.7914  -13.5265   21.1814 C   0  0  0  0  0  0
  -22.1628   -4.2150   21.0968 F   0  0  0  0  0  0
  -21.5657   -3.4531   25.7712 F   0  0  0  0  0  0
  -30.0592  -13.1817   20.4844 N   0  0  0  0  0  0
  -26.3109  -12.9283   20.3392 N   0  0  0  0  0  0
  -25.9341  -11.6471   20.5712 N   0  0  0  0  0  0
  -22.0525  -12.8258   22.0378 N   0  0  0  0  0  0
  -25.4552  -15.1810   20.4073 N   0  0  0  0  0  0
  -31.6715  -14.7576   20.0787 O   0  0  0  0  0  0
  -21.6624   -6.8857   21.4208 O   0  0  0  0  0  0
  -22.3632  -14.5565   20.6659 O   0  0  0  0  0  0
  -24.6044  -31.8723   23.2204 C   0  0  0  0  0  0
  -25.8939  -32.4895   23.8469 C   0  0  1  0  0  0
  -27.2341  -27.5109   20.0386 C   0  0  0  0  0  0
  -25.5827  -33.8704   24.2400 N   0  0  0  0  0  0
  -23.3887  -30.4981   21.5611 C   0  0  2  0  0  0
  -24.8371  -28.9809   20.1128 C   0  0  0  0  0  0
  -22.7353  -29.4647   22.5046 C   0  0  0  0  0  0
  -18.0219  -28.1352   22.8534 C   0  0  0  0  0  0
  -24.1483  -36.7321   23.2655 C   0  0  0  0  0  0
  -25.9127  -30.8685   21.3561 C   0  0  0  0  0  0
  -25.9996  -29.5133   20.6832 C   0  0  0  0  0  0
  -27.2082  -28.7867   20.6410 C   0  0  0  0  0  0
  -26.0604  -26.9800   19.4718 C   0  0  0  0  0  0
  -24.8589  -27.7105   19.5110 C   0  0  0  0  0  0
  -23.5932  -29.8383   20.1745 C   0  0  0  0  0  0
  -25.4092  -36.3171   24.0384 C   0  0  1  0  0  0
  -20.5822  -28.3594   23.1367 C   0  0  2  0  0  0
  -20.6705  -26.9336   22.5451 C   0  0  0  0  0  0
  -19.5705  -26.6344   21.5236 C   0  0  0  0  0  0
  -18.1865  -26.7910   22.1623 C   0  0  0  0  0  0
  -19.1486  -28.8790   23.2944 C   0  0  0  0  0  0
  -18.9431  -30.1407   23.8933 C   0  0  0  0  0  0
  -17.6442  -30.6585   24.0555 C   0  0  0  0  0  0
  -25.8999  -34.9527   23.5195 C   0  0  0  0  0  0
  -16.5319  -29.9087   23.6335 C   0  0  0  0  0  0
  -16.7204  -28.6488   23.0370 C   0  0  0  0  0  0
  -26.4416  -31.6636   25.0751 C   0  0  0  0  0  0
  -25.3701  -31.3704   26.1518 C   0  0  0  0  0  0
  -27.0207  -30.3099   24.6032 C   0  0  0  0  0  0
  -27.6021  -32.4317   25.7456 C   0  0  0  0  0  0
  -27.5581  -37.1816   24.8465 C   0  0  0  0  0  0
  -21.4077  -29.2990   22.3806 N   0  0  0  0  0  0
  -26.4295  -37.3817   23.9438 N   0  0  0  0  0  0
  -24.6533  -31.0883   22.1055 N   0  0  0  0  0  0
  -23.4178  -28.8152   23.3008 O   0  0  0  0  0  0
  -28.3741  -26.7536   20.0502 O   0  0  0  0  0  0
  -26.5581  -34.8947   22.4781 O   0  0  0  0  0  0
  -23.5247  -32.1435   23.7668 O   0  0  0  0  0  0
  -28.1962  -18.7343   22.0085 C   0  0  0  0  0  0
  -27.8470  -17.6781   22.8633 C   0  0  0  0  0  0
  -29.9591  -17.3630   21.0337 C   0  0  0  0  0  0
  -29.2632  -18.5988   21.1004 C   0  0  0  0  0  0
  -28.5289  -16.4461   22.7995 C   0  0  0  0  0  0
  -29.5904  -16.2746   21.8689 C   0  0  0  0  0  0
  -28.8817  -23.3620   21.0775 C   0  0  0  0  0  0
  -28.1300  -24.3899   20.6463 C   0  0  0  0  0  0
  -28.5959  -21.9891   20.6612 C   0  0  0  0  0  0
  -28.0357  -15.3146   23.6961 C   0  0  0  0  0  0
  -30.8783  -21.4472   21.4675 C   0  0  0  0  0  0
  -29.6200  -19.7671   20.1789 C   0  0  0  0  0  0
  -28.3631  -25.8110   21.1144 C   0  0  0  0  0  0
  -30.2180  -14.9951   21.8066 N   0  0  0  0  0  0
  -29.6152  -21.1032   20.8140 N   0  0  0  0  0  0
  -27.5101  -21.6535   20.1763 O   0  0  0  0  0  0
  -31.4846  -12.4388   19.0722 H   0  0  0  0  0  0
  -30.3804  -11.2468   19.6895 H   0  0  0  0  0  0
  -29.7395  -11.8907   17.3579 H   0  0  0  0  0  0
  -29.6814  -13.5700   17.8194 H   0  0  0  0  0  0
  -27.8281  -11.3418   18.7462 H   0  0  0  0  0  0
  -27.3802  -12.7156   17.7720 H   0  0  0  0  0  0
  -27.7651  -14.2518   19.6647 H   0  0  0  0  0  0
  -28.6679  -11.7733   21.2009 H   0  0  0  0  0  0
  -28.4372  -13.3184   21.9179 H   0  0  0  0  0  0
  -25.2699   -9.5725   22.4799 H   0  0  0  0  0  0
  -23.9977   -7.4645   22.7470 H   0  0  0  0  0  0
  -21.0857   -8.8739   19.8906 H   0  0  0  0  0  0
  -22.3658  -10.9668   19.6126 H   0  0  0  0  0  0
  -21.1987   -7.6141   23.9705 H   0  0  0  0  0  0
  -21.1531   -6.0514   25.9083 H   0  0  0  0  0  0
  -22.0573   -2.7596   23.2824 H   0  0  0  0  0  0
  -22.4081  -11.9888   22.4770 H   0  0  0  0  0  0
  -21.1115  -13.1269   22.2468 H   0  0  0  0  0  0
  -24.7214  -15.8690   20.5309 H   0  0  0  0  0  0
  -26.3419  -15.5986   20.1514 H   0  0  0  0  0  0
  -26.7006  -32.5627   23.1220 H   0  0  0  0  0  0
  -24.9881  -33.9860   25.0508 H   0  0  0  0  0  0
  -22.6698  -31.3094   21.4330 H   0  0  0  0  0  0
  -23.3762  -35.9630   23.3351 H   0  0  0  0  0  0
  -24.3554  -36.8888   22.2044 H   0  0  0  0  0  0
  -23.7198  -37.6549   23.6612 H   0  0  0  0  0  0
  -26.0024  -31.6605   20.6099 H   0  0  0  0  0  0
  -26.8052  -30.9229   21.9683 H   0  0  0  0  0  0
  -28.1116  -29.2062   21.0612 H   0  0  0  0  0  0
  -26.0783  -26.0058   19.0056 H   0  0  0  0  0  0
  -23.9581  -27.2873   19.0861 H   0  0  0  0  0  0
  -23.6987  -30.6226   19.4250 H   0  0  0  0  0  0
  -22.7201  -29.2582   19.8721 H   0  0  0  0  0  0
  -25.1270  -36.2049   25.0873 H   0  0  0  0  0  0
  -20.9867  -28.3133   24.1513 H   0  0  0  0  0  0
  -20.5554  -26.2207   23.3621 H   0  0  0  0  0  0
  -21.6569  -26.7357   22.1280 H   0  0  0  0  0  0
  -19.6850  -25.6258   21.1237 H   0  0  0  0  0  0
  -19.6673  -27.3170   20.6786 H   0  0  0  0  0  0
  -17.4145  -26.6681   21.3995 H   0  0  0  0  0  0
  -18.0229  -26.0019   22.8975 H   0  0  0  0  0  0
  -19.7917  -30.7184   24.2325 H   0  0  0  0  0  0
  -17.5018  -31.6272   24.5126 H   0  0  0  0  0  0
  -15.5339  -30.2998   23.7679 H   0  0  0  0  0  0
  -15.8580  -28.0806   22.7122 H   0  0  0  0  0  0
  -24.5852  -30.7075   25.7852 H   0  0  0  0  0  0
  -24.8906  -32.2847   26.5016 H   0  0  0  0  0  0
  -25.8070  -30.8818   27.0237 H   0  0  0  0  0  0
  -26.2715  -29.6879   24.1105 H   0  0  0  0  0  0
  -27.4050  -29.7287   25.4425 H   0  0  0  0  0  0
  -27.8513  -30.4474   23.9101 H   0  0  0  0  0  0
  -27.2681  -33.3580   26.2115 H   0  0  0  0  0  0
  -28.3739  -32.6927   25.0213 H   0  0  0  0  0  0
  -28.0771  -31.8393   26.5270 H   0  0  0  0  0  0
  -28.2644  -38.0073   24.7506 H   0  0  0  0  0  0
  -28.1054  -36.2624   24.6314 H   0  0  0  0  0  0
  -27.2318  -37.1473   25.8875 H   0  0  0  0  0  0
  -20.9187  -29.8765   21.7109 H   0  0  0  0  0  0
  -26.0224  -38.2933   24.1429 H   0  0  0  0  0  0
  -27.6208  -19.6471   22.0493 H   0  0  0  0  0  0
  -27.0296  -17.8284   23.5553 H   0  0  0  0  0  0
  -30.7631  -17.2359   20.3203 H   0  0  0  0  0  0
  -29.6832  -23.6174   21.7555 H   0  0  0  0  0  0
  -27.3093  -24.2178   19.9620 H   0  0  0  0  0  0
  -27.1095  -14.9187   23.2760 H   0  0  0  0  0  0
  -27.8034  -15.6693   24.6988 H   0  0  0  0  0  0
  -28.7459  -14.4938   23.8176 H   0  0  0  0  0  0
  -31.3870  -22.1908   20.8530 H   0  0  0  0  0  0
  -31.5436  -20.5938   21.5780 H   0  0  0  0  0  0
  -30.7231  -21.8546   22.4687 H   0  0  0  0  0  0
  -28.9533  -19.7443   19.3122 H   0  0  0  0  0  0
  -30.6112  -19.6030   19.7594 H   0  0  0  0  0  0
  -29.3070  -25.8882   21.6553 H   0  0  0  0  0  0
  -27.5800  -26.0302   21.8418 H   0  0  0  0  0  0
  -29.7572  -14.3296   22.4085 H   0  0  0  0  0  0
  1 25  1  0  0  0
  1 30  2  0  0  0
  1 84  1  0  0  0
  2  3  1  0  0  0
  2 25  1  0  0  0
  2 87  1  0  0  0
  2 88  1  0  0  0
  3  4  1  0  0  0
  3 89  1  0  0  0
  3 90  1  0  0  0
  4  5  1  0  0  0
  4 91  1  0  0  0
  4 92  1  0  0  0
  5  6  1  0  0  0
  5 26  1  0  0  0
  5 93  1  0  0  0
  6 25  1  0  0  0
  6 94  1  0  0  0
  6 95  1  0  0  0
  7  8  2  0  0  0
  7 26  1  0  0  0
  7 29  1  0  0  0
  8  9  1  0  0  0
  8 22  1  0  0  0
  9 10  1  0  0  0
  9 27  2  0  0  0
 10 11  2  0  0  0
 10 15  1  0  0  0
 11 12  1  0  0  0
 11 96  1  0  0  0
 12 13  2  0  0  0
 12 97  1  0  0  0
 13 14  1  0  0  0
 13 31  1  0  0  0
 14 15  2  0  0  0
 14 98  1  0  0  0
 15 99  1  0  0  0
 16 17  2  0  0  0
 16 21  1  0  0  0
 16 31  1  0  0  0
 17 18  1  0  0  0
 17100  1  0  0  0
 18 19  2  0  0  0
 18101  1  0  0  0
 19 20  1  0  0  0
 19 24  1  0  0  0
 20 21  2  0  0  0
 20102  1  0  0  0
 21 23  1  0  0  0
 22 28  1  0  0  0
 22 32  2  0  0  0
 26 27  1  0  0  0
 28103  1  0  0  0
 28104  1  0  0  0
 29105  1  0  0  0
 29106  1  0  0  0
 33 34  1  0  0  0
 33 66  1  0  0  0
 33 70  2  0  0  0
 34 36  1  0  0  0
 34 59  1  0  0  0
 34107  1  0  0  0
 35 44  2  0  0  0
 35 45  1  0  0  0
 35 68  1  0  0  0
 36 56  1  0  0  0
 36108  1  0  0  0
 37 39  1  0  0  0
 37 47  1  0  0  0
 37 66  1  0  0  0
 37109  1  0  0  0
 38 43  2  0  0  0
 38 46  1  0  0  0
 38 47  1  0  0  0
 39 64  1  0  0  0
 39 67  2  0  0  0
 40 52  1  0  0  0
 40 53  2  0  0  0
 40 58  1  0  0  0
 41110  1  0  0  0
 41111  1  0  0  0
 41112  1  0  0  0
 41 48  1  0  0  0
 42 43  1  0  0  0
 42 66  1  0  0  0
 42113  1  0  0  0
 42114  1  0  0  0
 43 44  1  0  0  0
 44115  1  0  0  0
 45 46  2  0  0  0
 45116  1  0  0  0
 46117  1  0  0  0
 47118  1  0  0  0
 47119  1  0  0  0
 48 56  1  0  0  0
 48 65  1  0  0  0
 48120  1  0  0  0
 49 50  1  0  0  0
 49 53  1  0  0  0
 49 64  1  0  0  0
 49121  1  0  0  0
 50 51  1  0  0  0
 50122  1  0  0  0
 50123  1  0  0  0
 51 52  1  0  0  0
 51124  1  0  0  0
 51125  1  0  0  0
 52126  1  0  0  0
 52127  1  0  0  0
 53 54  1  0  0  0
 54 55  2  0  0  0
 54128  1  0  0  0
 55 57  1  0  0  0
 55129  1  0  0  0
 56 69  2  0  0  0
 57 58  2  0  0  0
 57130  1  0  0  0
 58131  1  0  0  0
 59 60  1  0  0  0
 59 61  1  0  0  0
 59 62  1  0  0  0
 60132  1  0  0  0
 60133  1  0  0  0
 60134  1  0  0  0
 61135  1  0  0  0
 61136  1  0  0  0
 61137  1  0  0  0
 62138  1  0  0  0
 62139  1  0  0  0
 62140  1  0  0  0
 63 65  1  0  0  0
 63141  1  0  0  0
 63142  1  0  0  0
 63143  1  0  0  0
 64144  1  0  0  0
 65145  1  0  0  0
 68 83  1  0  0  0
 71 72  2  0  0  0
 71 74  1  0  0  0
 71146  1  0  0  0
 72 75  1  0  0  0
 72147  1  0  0  0
 73 74  2  0  0  0
 73 76  1  0  0  0
 73148  1  0  0  0
 74 82  1  0  0  0
 75 76  2  0  0  0
 75 80  1  0  0  0
 76 84  1  0  0  0
 77 78  2  0  0  0
 77 79  1  0  0  0
 77149  1  0  0  0
 78 83  1  0  0  0
 78150  1  0  0  0
 79 85  1  0  0  0
 79 86  2  0  0  0
 80151  1  0  0  0
 80152  1  0  0  0
 80153  1  0  0  0
 81 85  1  0  0  0
 81154  1  0  0  0
 81155  1  0  0  0
 81156  1  0  0  0
 82 85  1  0  0  0
 82157  1  0  0  0
 82158  1  0  0  0
 83159  1  0  0  0
 83160  1  0  0  0
 84161  1  0  0  0
M  ISO  4   1 100  68 101  83 101  84 100
M  END
> <chiral flag>
0

> <version>
0

> <s_m_source_file>
/data/baiqing/PycharmProjects/Reinvent-master-3.2/result/LINK_invent/BTK/process_docking_weight1_custom_product_contain_oxygen_bond_distance_aromatic_linkinvent_7_9_3/rearranged_h_0053.sdf

> <i_m_source_file_index>
69

> <r_mmod_Potential_Energy-OPLS-2005>
-55.6798858642578

> <r_mmod_Stretch_Energy-OPLS-2005>
36.9546012878418

> <r_mmod_Bend_Energy-OPLS-2005>
101.442123413086

> <r_mmod_Torsional_Energy-OPLS-2005>
262.642669677734

> <r_mmod_Improper_Torsional_Energy-OPLS-2005>
7.2831130027771

> <r_mmod_Van_der_Waal_Energy-OPLS-2005>
167.193984985352

> <r_mmod_Electrostatic_Energy-OPLS-2005>
-424.628875732422

> <r_mmod_Solvation_Energy-OPLS-2005>
-219.31672668457

> <b_mmod_Minimization_Converged-OPLS-2005>
0

> <r_mmod_RMS_Derivative-OPLS-2005>
8.16842269897461

$$$$
69
                    3D
 Structure written by MMmdl.
166174  0  0  1  0            999 V2000
  -30.7224  -14.4014   20.6548 C   0  0  0  0  0  0
  -30.4290  -12.2946   19.3960 C   0  0  0  0  0  0
  -29.4906  -12.5244   18.1939 C   0  0  0  0  0  0
  -28.0122  -12.3830   18.6072 C   0  0  0  0  0  0
  -27.6695  -13.1975   19.8823 C   0  0  2  0  0  0
  -28.7076  -12.9189   20.9913 C   0  0  0  0  0  0
  -25.2630  -13.8146   20.5677 C   0  0  0  0  0  0
  -24.1861  -13.0436   20.9159 C   0  0  0  0  0  0
  -24.6394  -11.6898   20.8718 C   0  0  0  0  0  0
  -23.9052  -10.4290   21.0394 C   0  0  0  0  0  0
  -24.3607   -9.4211   21.9176 C   0  0  0  0  0  0
  -23.6288   -8.2246   22.0753 C   0  0  0  0  0  0
  -22.4271   -8.0279   21.3542 C   0  0  0  0  0  0
  -21.9899   -9.0250   20.4646 C   0  0  0  0  0  0
  -22.7221  -10.2131   20.3050 C   0  0  0  0  0  0
  -21.6852   -6.0735   22.5278 C   0  0  0  0  0  0
  -21.4011   -6.5640   23.8210 C   0  0  0  0  0  0
  -21.3661   -5.6793   24.9174 C   0  0  0  0  0  0
  -21.6045   -4.3055   24.7223 C   0  0  0  0  0  0
  -21.8820   -3.8147   23.4343 C   0  0  0  0  0  0
  -21.9194   -4.6964   22.3401 C   0  0  0  0  0  0
  -22.7886  -13.5247   21.1831 C   0  0  0  0  0  0
  -22.1663   -4.2150   21.0978 F   0  0  0  0  0  0
  -21.5630   -3.4538   25.7735 F   0  0  0  0  0  0
  -30.0493  -13.2356   20.4596 N   0  0  0  0  0  0
  -26.3063  -12.9297   20.3384 N   0  0  0  0  0  0
  -25.9320  -11.6462   20.5749 N   0  0  0  0  0  0
  -22.0524  -12.8245   22.0388 N   0  0  0  0  0  0
  -25.4380  -15.1861   20.4101 N   0  0  0  0  0  0
  -31.7793  -14.6719   20.0749 O   0  0  0  0  0  0
  -21.6638   -6.8875   21.4239 O   0  0  0  0  0  0
  -22.3574  -14.5558   20.6686 O   0  0  0  0  0  0
  -24.6130  -31.8691   23.2107 C   0  0  0  0  0  0
  -25.9030  -32.4828   23.8399 C   0  0  1  0  0  0
  -27.2405  -27.4560   20.0885 C   0  0  0  0  0  0
  -25.5890  -33.8626   24.2333 N   0  0  0  0  0  0
  -23.3993  -30.4922   21.5516 C   0  0  2  0  0  0
  -24.8448  -28.9582   20.1177 C   0  0  0  0  0  0
  -22.7405  -29.4660   22.5007 C   0  0  0  0  0  0
  -18.0270  -28.1384   22.8491 C   0  0  0  0  0  0
  -24.1487  -36.7311   23.2641 C   0  0  0  0  0  0
  -25.9254  -30.8421   21.3583 C   0  0  0  0  0  0
  -26.0042  -29.4776   20.7064 C   0  0  0  0  0  0
  -27.2046  -28.7359   20.6838 C   0  0  0  0  0  0
  -26.0598  -26.9407   19.5051 C   0  0  0  0  0  0
  -24.8666  -27.6880   19.5156 C   0  0  0  0  0  0
  -23.6057  -29.8221   20.1670 C   0  0  0  0  0  0
  -25.4104  -36.3112   24.0342 C   0  0  1  0  0  0
  -20.5860  -28.3657   23.1333 C   0  0  2  0  0  0
  -20.6765  -26.9398   22.5420 C   0  0  0  0  0  0
  -19.5743  -26.6386   21.5219 C   0  0  0  0  0  0
  -18.1919  -26.7930   22.1626 C   0  0  0  0  0  0
  -19.1519  -28.8839   23.2910 C   0  0  0  0  0  0
  -18.9448  -30.1450   23.8913 C   0  0  0  0  0  0
  -17.6450  -30.6588   24.0567 C   0  0  0  0  0  0
  -25.9028  -34.9478   23.5133 C   0  0  0  0  0  0
  -16.5343  -29.9089   23.6330 C   0  0  0  0  0  0
  -16.7261  -28.6512   23.0340 C   0  0  0  0  0  0
  -26.4464  -31.6608   25.0722 C   0  0  0  0  0  0
  -25.3732  -31.3704   26.1473 C   0  0  0  0  0  0
  -27.0295  -30.3063   24.6072 C   0  0  0  0  0  0
  -27.6051  -32.4319   25.7477 C   0  0  0  0  0  0
  -27.5580  -37.1808   24.8468 C   0  0  0  0  0  0
  -21.4135  -29.3027   22.3748 N   0  0  0  0  0  0
  -26.4296  -37.3790   23.9410 N   0  0  0  0  0  0
  -24.6644  -31.0813   22.0994 N   0  0  0  0  0  0
  -23.4190  -28.8203   23.3037 O   0  0  0  0  0  0
  -28.4318  -26.7646   20.0748 O   0  0  0  0  0  0
  -26.5590  -34.8928   22.4695 O   0  0  0  0  0  0
  -23.5329  -32.1427   23.7520 O   0  0  0  0  0  0
  -31.2291  -18.8362   21.4126 C   0  0  0  0  0  0
  -31.2076  -17.4560   21.1313 C   0  0  0  0  0  0
  -29.3362  -17.1998   22.6490 C   0  0  0  0  0  0
  -30.3258  -19.4199   22.3358 C   0  0  0  0  0  0
  -29.3503  -18.5811   22.9518 C   0  0  0  0  0  0
  -30.2581  -16.6205   21.7576 C   0  0  0  0  0  0
  -31.2285  -22.7913   21.1919 C   0  0  0  0  0  0
  -27.0372  -19.6217   23.1379 C   0  0  0  0  0  0
  -32.8134  -21.4154   22.4309 C   0  0  0  0  0  0
  -30.3931  -20.9219   22.6679 C   0  0  0  0  0  0
  -29.8057  -23.3462   20.9748 C   0  0  0  0  0  0
  -29.7819  -24.7997   20.4448 C   0  0  0  0  0  0
  -28.3630  -25.3467   20.2195 C   0  0  0  0  0  0
  -28.2630  -19.1056   23.9025 C   0  0  0  0  0  0
  -30.1329  -15.2194   21.5420 N   0  0  0  0  0  0
  -31.4403  -21.7291   22.0118 N   0  0  0  0  0  0
  -32.1709  -23.3657   20.6354 O   0  0  0  0  0  0
  -28.7070  -20.0669   24.7091 F   0  0  0  0  0  0
  -27.8428  -18.1203   24.6977 F   0  0  0  0  0  0
  -31.4705  -12.4097   19.0904 H   0  0  0  0  0  0
  -30.3411  -11.2695   19.7591 H   0  0  0  0  0  0
  -29.7234  -11.8189   17.3952 H   0  0  0  0  0  0
  -29.6602  -13.5200   17.7808 H   0  0  0  0  0  0
  -27.8133  -11.3244   18.7788 H   0  0  0  0  0  0
  -27.3622  -12.6835   17.7845 H   0  0  0  0  0  0
  -27.7327  -14.2540   19.6207 H   0  0  0  0  0  0
  -28.6772  -11.8657   21.2747 H   0  0  0  0  0  0
  -28.4491  -13.4580   21.9028 H   0  0  0  0  0  0
  -25.2755   -9.5695   22.4743 H   0  0  0  0  0  0
  -24.0004   -7.4641   22.7470 H   0  0  0  0  0  0
  -21.0832   -8.8761   19.8950 H   0  0  0  0  0  0
  -22.3677  -10.9668   19.6157 H   0  0  0  0  0  0
  -21.1998   -7.6146   23.9714 H   0  0  0  0  0  0
  -21.1484   -6.0522   25.9077 H   0  0  0  0  0  0
  -22.0598   -2.7609   23.2842 H   0  0  0  0  0  0
  -22.4131  -11.9899   22.4774 H   0  0  0  0  0  0
  -21.1143  -13.1278   22.2589 H   0  0  0  0  0  0
  -24.6754  -15.8456   20.5189 H   0  0  0  0  0  0
  -26.2994  -15.6227   20.1056 H   0  0  0  0  0  0
  -26.7107  -32.5541   23.1173 H   0  0  0  0  0  0
  -25.0058  -33.9795   25.0491 H   0  0  0  0  0  0
  -22.6867  -31.3079   21.4122 H   0  0  0  0  0  0
  -23.3745  -35.9651   23.3315 H   0  0  0  0  0  0
  -24.3586  -36.8907   22.2055 H   0  0  0  0  0  0
  -23.7248  -37.6523   23.6643 H   0  0  0  0  0  0
  -26.0325  -31.6087   20.5897 H   0  0  0  0  0  0
  -26.8154  -30.8966   21.9735 H   0  0  0  0  0  0
  -28.1035  -29.1391   21.1302 H   0  0  0  0  0  0
  -26.0493  -25.9733   19.0252 H   0  0  0  0  0  0
  -23.9748  -27.2823   19.0579 H   0  0  0  0  0  0
  -23.7099  -30.5950   19.4046 H   0  0  0  0  0  0
  -22.7309  -29.2383   19.8747 H   0  0  0  0  0  0
  -25.1284  -36.1978   25.0836 H   0  0  0  0  0  0
  -20.9945  -28.3211   24.1454 H   0  0  0  0  0  0
  -20.5677  -26.2259   23.3598 H   0  0  0  0  0  0
  -21.6633  -26.7450   22.1199 H   0  0  0  0  0  0
  -19.6904  -25.6299   21.1237 H   0  0  0  0  0  0
  -19.6692  -27.3209   20.6761 H   0  0  0  0  0  0
  -17.4191  -26.6686   21.4026 H   0  0  0  0  0  0
  -18.0313  -26.0074   22.9025 H   0  0  0  0  0  0
  -19.7927  -30.7266   24.2280 H   0  0  0  0  0  0
  -17.5009  -31.6268   24.5166 H   0  0  0  0  0  0
  -15.5346  -30.2997   23.7653 H   0  0  0  0  0  0
  -15.8661  -28.0847   22.7031 H   0  0  0  0  0  0
  -24.5903  -30.7057   25.7798 H   0  0  0  0  0  0
  -24.8921  -32.2859   26.4932 H   0  0  0  0  0  0
  -25.8081  -30.8858   27.0225 H   0  0  0  0  0  0
  -26.2833  -29.6826   24.1136 H   0  0  0  0  0  0
  -27.4102  -29.7293   25.4510 H   0  0  0  0  0  0
  -27.8647  -30.4401   23.9192 H   0  0  0  0  0  0
  -27.2684  -33.3609   26.2088 H   0  0  0  0  0  0
  -28.3838  -32.6892   25.0284 H   0  0  0  0  0  0
  -28.0746  -31.8422   26.5361 H   0  0  0  0  0  0
  -28.2602  -38.0100   24.7502 H   0  0  0  0  0  0
  -28.1071  -36.2630   24.6305 H   0  0  0  0  0  0
  -27.2299  -37.1464   25.8873 H   0  0  0  0  0  0
  -20.9299  -29.8742   21.6963 H   0  0  0  0  0  0
  -26.0186  -38.2871   24.1405 H   0  0  0  0  0  0
  -31.9658  -19.4359   20.9003 H   0  0  0  0  0  0
  -31.9289  -17.0686   20.4280 H   0  0  0  0  0  0
  -28.5882  -16.5675   23.1064 H   0  0  0  0  0  0
  -27.2885  -20.4483   22.4749 H   0  0  0  0  0  0
  -26.2683  -19.9734   23.8254 H   0  0  0  0  0  0
  -26.5978  -18.8332   22.5269 H   0  0  0  0  0  0
  -33.4415  -21.1813   21.5703 H   0  0  0  0  0  0
  -32.8552  -20.5628   23.1100 H   0  0  0  0  0  0
  -33.2585  -22.2649   22.9506 H   0  0  0  0  0  0
  -30.5816  -21.0264   23.7361 H   0  0  0  0  0  0
  -29.3979  -21.3233   22.5048 H   0  0  0  0  0  0
  -29.2684  -23.3486   21.9221 H   0  0  0  0  0  0
  -29.2716  -22.6820   20.2950 H   0  0  0  0  0  0
  -30.3415  -24.8753   19.5113 H   0  0  0  0  0  0
  -30.2978  -25.4396   21.1623 H   0  0  0  0  0  0
  -27.7254  -25.1005   21.0710 H   0  0  0  0  0  0
  -27.9342  -24.8778   19.3333 H   0  0  0  0  0  0
  -29.3508  -14.7868   22.0083 H   0  0  0  0  0  0
  1 25  1  0  0  0
  1 30  2  0  0  0
  1 85  1  0  0  0
  2  3  1  0  0  0
  2 25  1  0  0  0
  2 90  1  0  0  0
  2 91  1  0  0  0
  3  4  1  0  0  0
  3 92  1  0  0  0
  3 93  1  0  0  0
  4  5  1  0  0  0
  4 94  1  0  0  0
  4 95  1  0  0  0
  5  6  1  0  0  0
  5 26  1  0  0  0
  5 96  1  0  0  0
  6 25  1  0  0  0
  6 97  1  0  0  0
  6 98  1  0  0  0
  7  8  2  0  0  0
  7 26  1  0  0  0
  7 29  1  0  0  0
  8  9  1  0  0  0
  8 22  1  0  0  0
  9 10  1  0  0  0
  9 27  2  0  0  0
 10 11  2  0  0  0
 10 15  1  0  0  0
 11 12  1  0  0  0
 11 99  1  0  0  0
 12 13  2  0  0  0
 12100  1  0  0  0
 13 14  1  0  0  0
 13 31  1  0  0  0
 14 15  2  0  0  0
 14101  1  0  0  0
 15102  1  0  0  0
 16 17  2  0  0  0
 16 21  1  0  0  0
 16 31  1  0  0  0
 17 18  1  0  0  0
 17103  1  0  0  0
 18 19  2  0  0  0
 18104  1  0  0  0
 19 20  1  0  0  0
 19 24  1  0  0  0
 20 21  2  0  0  0
 20105  1  0  0  0
 21 23  1  0  0  0
 22 28  1  0  0  0
 22 32  2  0  0  0
 26 27  1  0  0  0
 28106  1  0  0  0
 28107  1  0  0  0
 29108  1  0  0  0
 29109  1  0  0  0
 33 34  1  0  0  0
 33 66  1  0  0  0
 33 70  2  0  0  0
 34 36  1  0  0  0
 34 59  1  0  0  0
 34110  1  0  0  0
 35 44  2  0  0  0
 35 45  1  0  0  0
 35 68  1  0  0  0
 36 56  1  0  0  0
 36111  1  0  0  0
 37 39  1  0  0  0
 37 47  1  0  0  0
 37 66  1  0  0  0
 37112  1  0  0  0
 38 43  2  0  0  0
 38 46  1  0  0  0
 38 47  1  0  0  0
 39 64  1  0  0  0
 39 67  2  0  0  0
 40 52  1  0  0  0
 40 53  2  0  0  0
 40 58  1  0  0  0
 41113  1  0  0  0
 41114  1  0  0  0
 41115  1  0  0  0
 41 48  1  0  0  0
 42 43  1  0  0  0
 42 66  1  0  0  0
 42116  1  0  0  0
 42117  1  0  0  0
 43 44  1  0  0  0
 44118  1  0  0  0
 45 46  2  0  0  0
 45119  1  0  0  0
 46120  1  0  0  0
 47121  1  0  0  0
 47122  1  0  0  0
 48 56  1  0  0  0
 48 65  1  0  0  0
 48123  1  0  0  0
 49 50  1  0  0  0
 49 53  1  0  0  0
 49 64  1  0  0  0
 49124  1  0  0  0
 50 51  1  0  0  0
 50125  1  0  0  0
 50126  1  0  0  0
 51 52  1  0  0  0
 51127  1  0  0  0
 51128  1  0  0  0
 52129  1  0  0  0
 52130  1  0  0  0
 53 54  1  0  0  0
 54 55  2  0  0  0
 54131  1  0  0  0
 55 57  1  0  0  0
 55132  1  0  0  0
 56 69  2  0  0  0
 57 58  2  0  0  0
 57133  1  0  0  0
 58134  1  0  0  0
 59 60  1  0  0  0
 59 61  1  0  0  0
 59 62  1  0  0  0
 60135  1  0  0  0
 60136  1  0  0  0
 60137  1  0  0  0
 61138  1  0  0  0
 61139  1  0  0  0
 61140  1  0  0  0
 62141  1  0  0  0
 62142  1  0  0  0
 62143  1  0  0  0
 63 65  1  0  0  0
 63144  1  0  0  0
 63145  1  0  0  0
 63146  1  0  0  0
 64147  1  0  0  0
 65148  1  0  0  0
 68 83  1  0  0  0
 71 72  2  0  0  0
 71 74  1  0  0  0
 71149  1  0  0  0
 72 76  1  0  0  0
 72150  1  0  0  0
 73 75  1  0  0  0
 73 76  2  0  0  0
 73151  1  0  0  0
 74 75  2  0  0  0
 74 80  1  0  0  0
 75 84  1  0  0  0
 76 85  1  0  0  0
 77 81  1  0  0  0
 77 86  1  0  0  0
 77 87  2  0  0  0
 78152  1  0  0  0
 78153  1  0  0  0
 78154  1  0  0  0
 78 84  1  0  0  0
 79 86  1  0  0  0
 79155  1  0  0  0
 79156  1  0  0  0
 79157  1  0  0  0
 80 86  1  0  0  0
 80158  1  0  0  0
 80159  1  0  0  0
 81 82  1  0  0  0
 81160  1  0  0  0
 81161  1  0  0  0
 82 83  1  0  0  0
 82162  1  0  0  0
 82163  1  0  0  0
 83164  1  0  0  0
 83165  1  0  0  0
 84 88  1  0  0  0
 84 89  1  0  0  0
 85166  1  0  0  0
M  ISO  4   1 100  68 101  83 101  85 100
M  END
> <chiral flag>
0

> <version>
0

> <s_m_source_file>
/data/baiqing/PycharmProjects/Reinvent-master-3.2/result/LINK_invent/BTK/process_docking_weight1_custom_product_contain_oxygen_bond_distance_aromatic_linkinvent_7_9_3/rearranged_h_0053.sdf

> <i_m_source_file_index>
70

> <r_mmod_Potential_Energy-OPLS-2005>
-101.111747741699

> <r_mmod_Stretch_Energy-OPLS-2005>
39.3741035461426

> <r_mmod_Bend_Energy-OPLS-2005>
111.504165649414

> <r_mmod_Torsional_Energy-OPLS-2005>
218.843566894531

> <r_mmod_Improper_Torsional_Energy-OPLS-2005>
2.63380694389343

> <r_mmod_Van_der_Waal_Energy-OPLS-2005>
179.671813964844

> <r_mmod_Electrostatic_Energy-OPLS-2005>
-433.312530517578

> <r_mmod_Solvation_Energy-OPLS-2005>
-227.663391113281

> <b_mmod_Minimization_Converged-OPLS-2005>
0

> <r_mmod_RMS_Derivative-OPLS-2005>
0.632219433784485

$$$$
70
                    3D
 Structure written by MMmdl.
167176  0  0  1  0            999 V2000
  -30.6663  -14.5158   20.5484 C   0  0  0  0  0  0
  -30.4357  -12.3261   19.4257 C   0  0  0  0  0  0
  -29.4992  -12.5018   18.2105 C   0  0  0  0  0  0
  -28.0205  -12.3553   18.6246 C   0  0  0  0  0  0
  -27.6618  -13.1962   19.8786 C   0  0  2  0  0  0
  -28.7083  -12.9871   20.9972 C   0  0  0  0  0  0
  -25.2594  -13.8119   20.5707 C   0  0  0  0  0  0
  -24.1831  -13.0411   20.9174 C   0  0  0  0  0  0
  -24.6377  -11.6877   20.8734 C   0  0  0  0  0  0
  -23.9041  -10.4275   21.0403 C   0  0  0  0  0  0
  -24.3597   -9.4197   21.9184 C   0  0  0  0  0  0
  -23.6277   -8.2233   22.0757 C   0  0  0  0  0  0
  -22.4262   -8.0270   21.3544 C   0  0  0  0  0  0
  -21.9890   -9.0242   20.4646 C   0  0  0  0  0  0
  -22.7215  -10.2121   20.3054 C   0  0  0  0  0  0
  -21.6846   -6.0729   22.5279 C   0  0  0  0  0  0
  -21.4009   -6.5635   23.8212 C   0  0  0  0  0  0
  -21.3659   -5.6791   24.9176 C   0  0  0  0  0  0
  -21.6044   -4.3054   24.7229 C   0  0  0  0  0  0
  -21.8819   -3.8143   23.4351 C   0  0  0  0  0  0
  -21.9190   -4.6958   22.3405 C   0  0  0  0  0  0
  -22.7858  -13.5229   21.1841 C   0  0  0  0  0  0
  -22.1659   -4.2143   21.0982 F   0  0  0  0  0  0
  -21.5631   -3.4541   25.7743 F   0  0  0  0  0  0
  -30.0358  -13.3112   20.4428 N   0  0  0  0  0  0
  -26.3026  -12.9269   20.3399 N   0  0  0  0  0  0
  -25.9303  -11.6441   20.5779 N   0  0  0  0  0  0
  -22.0491  -12.8229   22.0396 N   0  0  0  0  0  0
  -25.4310  -15.1840   20.4172 N   0  0  0  0  0  0
  -31.8008  -14.7207   20.1052 O   0  0  0  0  0  0
  -21.6628   -6.8867   21.4240 O   0  0  0  0  0  0
  -22.3554  -14.5545   20.6698 O   0  0  0  0  0  0
  -24.6174  -31.8661   23.2092 C   0  0  0  0  0  0
  -25.9056  -32.4813   23.8394 C   0  0  1  0  0  0
  -27.2336  -27.4186   20.0976 C   0  0  0  0  0  0
  -25.5905  -33.8611   24.2333 N   0  0  0  0  0  0
  -23.4071  -30.4897   21.5491 C   0  0  2  0  0  0
  -24.8555  -28.9579   20.1108 C   0  0  0  0  0  0
  -22.7430  -29.4650   22.4973 C   0  0  0  0  0  0
  -18.0274  -28.1386   22.8493 C   0  0  0  0  0  0
  -24.1485  -36.7310   23.2640 C   0  0  0  0  0  0
  -25.9381  -30.8282   21.3645 C   0  0  0  0  0  0
  -26.0179  -29.4626   20.7088 C   0  0  0  0  0  0
  -27.2137  -28.7017   20.6972 C   0  0  0  0  0  0
  -26.0565  -26.9398   19.4855 C   0  0  0  0  0  0
  -24.8709  -27.6966   19.4933 C   0  0  0  0  0  0
  -23.6167  -29.8239   20.1633 C   0  0  0  0  0  0
  -25.4104  -36.3107   24.0344 C   0  0  1  0  0  0
  -20.5867  -28.3675   23.1308 C   0  0  2  0  0  0
  -20.6766  -26.9408   22.5413 C   0  0  0  0  0  0
  -19.5739  -26.6391   21.5215 C   0  0  0  0  0  0
  -18.1918  -26.7933   22.1625 C   0  0  0  0  0  0
  -19.1525  -28.8846   23.2898 C   0  0  0  0  0  0
  -18.9449  -30.1452   23.8911 C   0  0  0  0  0  0
  -17.6450  -30.6588   24.0566 C   0  0  0  0  0  0
  -25.9031  -34.9471   23.5134 C   0  0  0  0  0  0
  -16.5344  -29.9089   23.6333 C   0  0  0  0  0  0
  -16.7262  -28.6508   23.0353 C   0  0  0  0  0  0
  -26.4483  -31.6590   25.0719 C   0  0  0  0  0  0
  -25.3751  -31.3677   26.1465 C   0  0  0  0  0  0
  -27.0327  -30.3039   24.6093 C   0  0  0  0  0  0
  -27.6056  -32.4312   25.7478 C   0  0  0  0  0  0
  -27.5578  -37.1807   24.8469 C   0  0  0  0  0  0
  -21.4152  -29.3042   22.3716 N   0  0  0  0  0  0
  -26.4293  -37.3792   23.9414 N   0  0  0  0  0  0
  -24.6726  -31.0750   22.0998 N   0  0  0  0  0  0
  -23.4189  -28.8194   23.3028 O   0  0  0  0  0  0
  -28.3584  -26.6135   20.1266 O   0  0  0  0  0  0
  -26.5584  -34.8923   22.4691 O   0  0  0  0  0  0
  -23.5361  -32.1417   23.7475 O   0  0  0  0  0  0
  -29.1814  -18.9488   19.7098 C   0  0  0  0  0  0
  -30.6068  -17.7445   21.7988 C   0  0  0  0  0  0
  -29.2928  -17.5395   19.7620 C   0  0  0  0  0  0
  -30.4969  -19.1591   21.7435 C   0  0  0  0  0  0
  -29.7553  -19.7774   20.7001 C   0  0  0  0  0  0
  -29.9894  -16.9172   20.8315 C   0  0  0  0  0  0
  -30.3689  -22.1377   20.3314 C   0  0  0  0  0  0
  -30.0133  -23.6492   20.4443 C   0  0  0  0  0  0
  -27.7853  -22.9992   21.3052 C   0  0  0  0  0  0
  -28.0409  -21.5371   20.8892 C   0  0  0  0  0  0
  -28.5040  -24.0265   20.4013 C   0  0  2  0  0  0
  -28.6081  -16.7327   18.6731 C   0  0  0  0  0  0
  -31.1241  -19.9885   22.8520 C   0  0  0  0  0  0
  -27.9600  -23.9240   18.9583 C   0  0  0  0  0  0
  -28.2218  -25.4597   20.9927 C   0  0  0  0  0  0
  -29.4561  -21.1891   20.6868 N   0  0  0  0  0  0
  -29.8995  -15.5043   21.0552 N   0  0  0  0  0  0
  -31.5099  -21.8470   19.9566 O   0  0  0  0  0  0
  -31.4774  -12.4433   19.1215 H   0  0  0  0  0  0
  -30.3560  -11.3160   19.8302 H   0  0  0  0  0  0
  -29.7436  -11.7699   17.4395 H   0  0  0  0  0  0
  -29.6595  -13.4822   17.7599 H   0  0  0  0  0  0
  -27.8373  -11.2991   18.8262 H   0  0  0  0  0  0
  -27.3678  -12.6223   17.7929 H   0  0  0  0  0  0
  -27.6984  -14.2394   19.5766 H   0  0  0  0  0  0
  -28.6973  -11.9506   21.3379 H   0  0  0  0  0  0
  -28.4641  -13.5814   21.8789 H   0  0  0  0  0  0
  -25.2743   -9.5677   22.4756 H   0  0  0  0  0  0
  -23.9987   -7.4627   22.7478 H   0  0  0  0  0  0
  -21.0822   -8.8757   19.8954 H   0  0  0  0  0  0
  -22.3674  -10.9660   19.6161 H   0  0  0  0  0  0
  -21.1997   -7.6143   23.9714 H   0  0  0  0  0  0
  -21.1481   -6.0522   25.9077 H   0  0  0  0  0  0
  -22.0598   -2.7605   23.2854 H   0  0  0  0  0  0
  -22.4093  -11.9875   22.4769 H   0  0  0  0  0  0
  -21.1117  -13.1272   22.2611 H   0  0  0  0  0  0
  -24.6652  -15.8379   20.5384 H   0  0  0  0  0  0
  -26.2938  -15.6326   20.1416 H   0  0  0  0  0  0
  -26.7126  -32.5520   23.1154 H   0  0  0  0  0  0
  -25.0088  -33.9776   25.0501 H   0  0  0  0  0  0
  -22.6964  -31.3065   21.4093 H   0  0  0  0  0  0
  -23.3745  -35.9645   23.3311 H   0  0  0  0  0  0
  -24.3577  -36.8917   22.2053 H   0  0  0  0  0  0
  -23.7239  -37.6518   23.6647 H   0  0  0  0  0  0
  -26.0520  -31.5953   20.5972 H   0  0  0  0  0  0
  -26.8252  -30.8806   21.9840 H   0  0  0  0  0  0
  -28.1093  -29.0824   21.1677 H   0  0  0  0  0  0
  -26.0454  -25.9740   19.0073 H   0  0  0  0  0  0
  -23.9794  -27.3029   19.0248 H   0  0  0  0  0  0
  -23.7232  -30.5995   19.4039 H   0  0  0  0  0  0
  -22.7413  -29.2424   19.8686 H   0  0  0  0  0  0
  -25.1283  -36.1973   25.0837 H   0  0  0  0  0  0
  -20.9958  -28.3241   24.1427 H   0  0  0  0  0  0
  -20.5682  -26.2281   23.3602 H   0  0  0  0  0  0
  -21.6634  -26.7456   22.1193 H   0  0  0  0  0  0
  -19.6903  -25.6306   21.1234 H   0  0  0  0  0  0
  -19.6685  -27.3209   20.6751 H   0  0  0  0  0  0
  -17.4194  -26.6692   21.4021 H   0  0  0  0  0  0
  -18.0312  -26.0068   22.9013 H   0  0  0  0  0  0
  -19.7921  -30.7269   24.2285 H   0  0  0  0  0  0
  -17.5000  -31.6268   24.5166 H   0  0  0  0  0  0
  -15.5344  -30.2993   23.7649 H   0  0  0  0  0  0
  -15.8659  -28.0829   22.7064 H   0  0  0  0  0  0
  -24.5941  -30.7007   25.7796 H   0  0  0  0  0  0
  -24.8921  -32.2820   26.4922 H   0  0  0  0  0  0
  -25.8112  -30.8844   27.0217 H   0  0  0  0  0  0
  -26.2877  -29.6780   24.1168 H   0  0  0  0  0  0
  -27.4136  -29.7293   25.4545 H   0  0  0  0  0  0
  -27.8692  -30.4374   23.9228 H   0  0  0  0  0  0
  -27.2686  -33.3617   26.2059 H   0  0  0  0  0  0
  -28.3860  -32.6863   25.0295 H   0  0  0  0  0  0
  -28.0730  -31.8431   26.5387 H   0  0  0  0  0  0
  -28.2599  -38.0101   24.7512 H   0  0  0  0  0  0
  -28.1073  -36.2631   24.6303 H   0  0  0  0  0  0
  -27.2291  -37.1464   25.8871 H   0  0  0  0  0  0
  -20.9315  -29.8766   21.6937 H   0  0  0  0  0  0
  -26.0184  -38.2873   24.1405 H   0  0  0  0  0  0
  -28.6091  -19.4022   18.9119 H   0  0  0  0  0  0
  -31.1240  -17.2848   22.6297 H   0  0  0  0  0  0
  -30.5484  -24.1976   19.6680 H   0  0  0  0  0  0
  -30.4433  -23.9821   21.3894 H   0  0  0  0  0  0
  -28.1145  -23.1311   22.3375 H   0  0  0  0  0  0
  -26.7092  -23.1813   21.3149 H   0  0  0  0  0  0
  -27.4983  -21.3183   19.9693 H   0  0  0  0  0  0
  -27.6180  -20.8764   21.6475 H   0  0  0  0  0  0
  -28.5466  -17.3080   17.7488 H   0  0  0  0  0  0
  -27.5922  -16.4806   18.9721 H   0  0  0  0  0  0
  -29.1498  -15.8166   18.4427 H   0  0  0  0  0  0
  -31.5113  -19.3595   23.6541 H   0  0  0  0  0  0
  -30.3925  -20.6683   23.2897 H   0  0  0  0  0  0
  -31.9541  -20.5790   22.4634 H   0  0  0  0  0  0
  -28.2454  -22.9901   18.4740 H   0  0  0  0  0  0
  -28.3414  -24.7308   18.3316 H   0  0  0  0  0  0
  -26.8720  -23.9692   18.9366 H   0  0  0  0  0  0
  -28.8753  -25.6300   21.8488 H   0  0  0  0  0  0
  -27.2219  -25.4531   21.4333 H   0  0  0  0  0  0
  -29.0041  -15.1817   21.3883 H   0  0  0  0  0  0
  1 25  1  0  0  0
  1 30  2  0  0  0
  1 87  1  0  0  0
  2  3  1  0  0  0
  2 25  1  0  0  0
  2 89  1  0  0  0
  2 90  1  0  0  0
  3  4  1  0  0  0
  3 91  1  0  0  0
  3 92  1  0  0  0
  4  5  1  0  0  0
  4 93  1  0  0  0
  4 94  1  0  0  0
  5  6  1  0  0  0
  5 26  1  0  0  0
  5 95  1  0  0  0
  6 25  1  0  0  0
  6 96  1  0  0  0
  6 97  1  0  0  0
  7  8  2  0  0  0
  7 26  1  0  0  0
  7 29  1  0  0  0
  8  9  1  0  0  0
  8 22  1  0  0  0
  9 10  1  0  0  0
  9 27  2  0  0  0
 10 11  2  0  0  0
 10 15  1  0  0  0
 11 12  1  0  0  0
 11 98  1  0  0  0
 12 13  2  0  0  0
 12 99  1  0  0  0
 13 14  1  0  0  0
 13 31  1  0  0  0
 14 15  2  0  0  0
 14100  1  0  0  0
 15101  1  0  0  0
 16 17  2  0  0  0
 16 21  1  0  0  0
 16 31  1  0  0  0
 17 18  1  0  0  0
 17102  1  0  0  0
 18 19  2  0  0  0
 18103  1  0  0  0
 19 20  1  0  0  0
 19 24  1  0  0  0
 20 21  2  0  0  0
 20104  1  0  0  0
 21 23  1  0  0  0
 22 28  1  0  0  0
 22 32  2  0  0  0
 26 27  1  0  0  0
 28105  1  0  0  0
 28106  1  0  0  0
 29107  1  0  0  0
 29108  1  0  0  0
 33 34  1  0  0  0
 33 66  1  0  0  0
 33 70  2  0  0  0
 34 36  1  0  0  0
 34 59  1  0  0  0
 34109  1  0  0  0
 35 44  2  0  0  0
 35 45  1  0  0  0
 35 68  1  0  0  0
 36 56  1  0  0  0
 36110  1  0  0  0
 37 39  1  0  0  0
 37 47  1  0  0  0
 37 66  1  0  0  0
 37111  1  0  0  0
 38 43  2  0  0  0
 38 46  1  0  0  0
 38 47  1  0  0  0
 39 64  1  0  0  0
 39 67  2  0  0  0
 40 52  1  0  0  0
 40 53  2  0  0  0
 40 58  1  0  0  0
 41112  1  0  0  0
 41113  1  0  0  0
 41114  1  0  0  0
 41 48  1  0  0  0
 42 43  1  0  0  0
 42 66  1  0  0  0
 42115  1  0  0  0
 42116  1  0  0  0
 43 44  1  0  0  0
 44117  1  0  0  0
 45 46  2  0  0  0
 45118  1  0  0  0
 46119  1  0  0  0
 47120  1  0  0  0
 47121  1  0  0  0
 48 56  1  0  0  0
 48 65  1  0  0  0
 48122  1  0  0  0
 49 50  1  0  0  0
 49 53  1  0  0  0
 49 64  1  0  0  0
 49123  1  0  0  0
 50 51  1  0  0  0
 50124  1  0  0  0
 50125  1  0  0  0
 51 52  1  0  0  0
 51126  1  0  0  0
 51127  1  0  0  0
 52128  1  0  0  0
 52129  1  0  0  0
 53 54  1  0  0  0
 54 55  2  0  0  0
 54130  1  0  0  0
 55 57  1  0  0  0
 55131  1  0  0  0
 56 69  2  0  0  0
 57 58  2  0  0  0
 57132  1  0  0  0
 58133  1  0  0  0
 59 60  1  0  0  0
 59 61  1  0  0  0
 59 62  1  0  0  0
 60134  1  0  0  0
 60135  1  0  0  0
 60136  1  0  0  0
 61137  1  0  0  0
 61138  1  0  0  0
 61139  1  0  0  0
 62140  1  0  0  0
 62141  1  0  0  0
 62142  1  0  0  0
 63 65  1  0  0  0
 63143  1  0  0  0
 63144  1  0  0  0
 63145  1  0  0  0
 64146  1  0  0  0
 65147  1  0  0  0
 68 85  1  0  0  0
 71 73  2  0  0  0
 71 75  1  0  0  0
 71148  1  0  0  0
 72 74  1  0  0  0
 72 76  2  0  0  0
 72149  1  0  0  0
 73 76  1  0  0  0
 73 82  1  0  0  0
 74 75  2  0  0  0
 74 83  1  0  0  0
 75 86  1  0  0  0
 76 87  1  0  0  0
 77 78  1  0  0  0
 77 86  1  0  0  0
 77 88  2  0  0  0
 78 81  1  0  0  0
 78150  1  0  0  0
 78151  1  0  0  0
 79 80  1  0  0  0
 79 81  1  0  0  0
 79152  1  0  0  0
 79153  1  0  0  0
 80 86  1  0  0  0
 80154  1  0  0  0
 80155  1  0  0  0
 81 84  1  0  0  0
 81 85  1  0  0  0
 82156  1  0  0  0
 82157  1  0  0  0
 82158  1  0  0  0
 83159  1  0  0  0
 83160  1  0  0  0
 83161  1  0  0  0
 84162  1  0  0  0
 84163  1  0  0  0
 84164  1  0  0  0
 85165  1  0  0  0
 85166  1  0  0  0
 87167  1  0  0  0
M  ISO  4   1 100  68 101  85 101  87 100
M  END
> <chiral flag>
0

> <version>
0

> <s_m_source_file>
/data/baiqing/PycharmProjects/Reinvent-master-3.2/result/LINK_invent/BTK/process_docking_weight1_custom_product_contain_oxygen_bond_distance_aromatic_linkinvent_7_9_3/rearranged_h_0053.sdf

> <i_m_source_file_index>
71

> <r_mmod_Potential_Energy-OPLS-2005>
94.8952484130859

> <r_mmod_Stretch_Energy-OPLS-2005>
48.9224433898926

> <r_mmod_Bend_Energy-OPLS-2005>
113.223838806152

> <r_mmod_Torsional_Energy-OPLS-2005>
344.94921875

> <r_mmod_Improper_Torsional_Energy-OPLS-2005>
6.02062463760376

> <r_mmod_Van_der_Waal_Energy-OPLS-2005>
153.293701171875

> <r_mmod_Electrostatic_Energy-OPLS-2005>
-366.094421386719

> <r_mmod_Solvation_Energy-OPLS-2005>
-223.799942016602

> <b_mmod_Minimization_Converged-OPLS-2005>
0

> <r_mmod_RMS_Derivative-OPLS-2005>
0.67300546169281

$$$$
71
                    3D
 Structure written by MMmdl.
159167  0  0  1  0            999 V2000
  -30.5936  -14.7496   20.4698 C   0  0  0  0  0  0
  -30.4337  -12.4508   19.4946 C   0  0  0  0  0  0
  -29.5183  -12.5208   18.2494 C   0  0  0  0  0  0
  -28.0409  -12.3480   18.6511 C   0  0  0  0  0  0
  -27.6463  -13.2324   19.8637 C   0  0  2  0  0  0
  -28.6861  -13.1469   21.0044 C   0  0  0  0  0  0
  -25.2509  -13.8200   20.5697 C   0  0  0  0  0  0
  -24.1798  -13.0448   20.9180 C   0  0  0  0  0  0
  -24.6389  -11.6919   20.8735 C   0  0  0  0  0  0
  -23.9072  -10.4289   21.0398 C   0  0  0  0  0  0
  -24.3616   -9.4209   21.9180 C   0  0  0  0  0  0
  -23.6291   -8.2243   22.0747 C   0  0  0  0  0  0
  -22.4272   -8.0288   21.3541 C   0  0  0  0  0  0
  -21.9909   -9.0261   20.4636 C   0  0  0  0  0  0
  -22.7244  -10.2137   20.3051 C   0  0  0  0  0  0
  -21.6851   -6.0747   22.5273 C   0  0  0  0  0  0
  -21.4016   -6.5636   23.8202 C   0  0  0  0  0  0
  -21.3662   -5.6780   24.9161 C   0  0  0  0  0  0
  -21.6041   -4.3045   24.7203 C   0  0  0  0  0  0
  -21.8822   -3.8150   23.4327 C   0  0  0  0  0  0
  -21.9190   -4.6972   22.3384 C   0  0  0  0  0  0
  -22.7809  -13.5231   21.1843 C   0  0  0  0  0  0
  -22.1662   -4.2167   21.0965 F   0  0  0  0  0  0
  -21.5631   -3.4525   25.7718 F   0  0  0  0  0  0
  -29.9968  -13.5050   20.4436 N   0  0  0  0  0  0
  -26.2946  -12.9409   20.3319 N   0  0  0  0  0  0
  -25.9316  -11.6548   20.5747 N   0  0  0  0  0  0
  -22.0462  -12.8214   22.0404 N   0  0  0  0  0  0
  -25.4241  -15.1923   20.4136 N   0  0  0  0  0  0
  -31.7413  -14.8839   20.0331 O   0  0  0  0  0  0
  -21.6644   -6.8887   21.4230 O   0  0  0  0  0  0
  -22.3493  -14.5553   20.6720 O   0  0  0  0  0  0
  -24.6334  -31.8546   23.1948 C   0  0  0  0  0  0
  -25.9159  -32.4744   23.8308 C   0  0  1  0  0  0
  -27.2231  -27.2481   20.1289 C   0  0  0  0  0  0
  -25.5954  -33.8542   24.2252 N   0  0  0  0  0  0
  -23.4291  -30.4755   21.5395 C   0  0  2  0  0  0
  -24.8741  -28.9172   20.1069 C   0  0  0  0  0  0
  -22.7503  -29.4596   22.4912 C   0  0  0  0  0  0
  -18.0288  -28.1404   22.8471 C   0  0  0  0  0  0
  -24.1485  -36.7265   23.2641 C   0  0  0  0  0  0
  -25.9739  -30.7628   21.3733 C   0  0  0  0  0  0
  -26.0446  -29.3828   20.7187 C   0  0  0  0  0  0
  -27.2150  -28.5576   20.7221 C   0  0  0  0  0  0
  -26.0245  -26.8472   19.4957 C   0  0  0  0  0  0
  -24.8704  -27.6587   19.4863 C   0  0  0  0  0  0
  -23.6460  -29.8073   20.1554 C   0  0  0  0  0  0
  -25.4112  -36.3056   24.0330 C   0  0  1  0  0  0
  -20.5889  -28.3698   23.1273 C   0  0  2  0  0  0
  -20.6782  -26.9419   22.5409 C   0  0  0  0  0  0
  -19.5763  -26.6388   21.5214 C   0  0  0  0  0  0
  -18.1937  -26.7947   22.1616 C   0  0  0  0  0  0
  -19.1542  -28.8874   23.2862 C   0  0  0  0  0  0
  -18.9465  -30.1473   23.8880 C   0  0  0  0  0  0
  -17.6463  -30.6603   24.0558 C   0  0  0  0  0  0
  -25.9052  -34.9430   23.5088 C   0  0  0  0  0  0
  -16.5354  -29.9095   23.6332 C   0  0  0  0  0  0
  -16.7271  -28.6516   23.0344 C   0  0  0  0  0  0
  -26.4524  -31.6567   25.0696 C   0  0  0  0  0  0
  -25.3745  -31.3728   26.1413 C   0  0  0  0  0  0
  -27.0364  -30.2983   24.6178 C   0  0  0  0  0  0
  -27.6074  -32.4308   25.7478 C   0  0  0  0  0  0
  -27.5573  -37.1790   24.8470 C   0  0  0  0  0  0
  -21.4209  -29.3042   22.3661 N   0  0  0  0  0  0
  -26.4286  -37.3755   23.9413 N   0  0  0  0  0  0
  -24.6983  -31.0506   22.0924 N   0  0  0  0  0  0
  -23.4200  -28.8153   23.3022 O   0  0  0  0  0  0
  -28.3399  -26.3805   20.2268 O   0  0  0  0  0  0
  -26.5614  -34.8917   22.4650 O   0  0  0  0  0  0
  -23.5487  -32.1373   23.7244 O   0  0  0  0  0  0
  -28.2248  -18.1204   18.4164 C   0  0  0  0  0  0
  -28.8568  -17.0110   19.0083 C   0  0  0  0  0  0
  -29.5945  -18.4715   20.8002 C   0  0  0  0  0  0
  -28.2395  -19.4126   18.9987 C   0  0  0  0  0  0
  -28.9936  -19.6597   20.1863 C   0  0  0  0  0  0
  -29.5220  -17.1212   20.2437 C   0  0  0  0  0  0
  -27.3277  -20.4234   18.3889 C   0  0  0  0  0  0
  -28.4951  -23.6907   20.5026 C   0  0  0  0  0  0
  -27.3767  -20.5719   16.8743 C   0  0  0  0  0  0
  -29.8508  -22.4598   18.8438 C   0  0  0  0  0  0
  -29.0667  -21.1334   20.8486 C   0  0  0  0  0  0
  -28.4485  -25.0190   19.5829 C   0  0  0  0  0  0
  -29.8683  -15.8439   20.9234 N   0  0  0  0  0  0
  -29.0452  -22.4715   20.0687 N   0  0  0  0  0  0
  -26.5564  -21.1349   19.0385 O   0  0  0  0  0  0
  -27.9876  -23.7698   21.6260 O   0  0  0  0  0  0
  -31.4807  -12.5605   19.2065 H   0  0  0  0  0  0
  -30.3617  -11.4680   19.9642 H   0  0  0  0  0  0
  -29.8002  -11.7538   17.5263 H   0  0  0  0  0  0
  -29.6526  -13.4797   17.7459 H   0  0  0  0  0  0
  -27.8822  -11.2955   18.8907 H   0  0  0  0  0  0
  -27.3959  -12.5706   17.8011 H   0  0  0  0  0  0
  -27.6482  -14.2581   19.5002 H   0  0  0  0  0  0
  -28.7123  -12.1411   21.4266 H   0  0  0  0  0  0
  -28.4123  -13.8086   21.8271 H   0  0  0  0  0  0
  -25.2755   -9.5684   22.4754 H   0  0  0  0  0  0
  -24.0002   -7.4629   22.7459 H   0  0  0  0  0  0
  -21.0847   -8.8793   19.8926 H   0  0  0  0  0  0
  -22.3716  -10.9685   19.6163 H   0  0  0  0  0  0
  -21.2023   -7.6139   23.9713 H   0  0  0  0  0  0
  -21.1477   -6.0507   25.9063 H   0  0  0  0  0  0
  -22.0608   -2.7611   23.2821 H   0  0  0  0  0  0
  -22.4104  -11.9893   22.4786 H   0  0  0  0  0  0
  -21.1079  -13.1242   22.2641 H   0  0  0  0  0  0
  -24.6602  -15.8469   20.5353 H   0  0  0  0  0  0
  -26.2852  -15.6370   20.1243 H   0  0  0  0  0  0
  -26.7223  -32.5405   23.1045 H   0  0  0  0  0  0
  -25.0138  -33.9669   25.0429 H   0  0  0  0  0  0
  -22.7268  -31.2983   21.3932 H   0  0  0  0  0  0
  -23.3750  -35.9593   23.3303 H   0  0  0  0  0  0
  -24.3582  -36.8885   22.2057 H   0  0  0  0  0  0
  -23.7236  -37.6468   23.6655 H   0  0  0  0  0  0
  -26.1114  -31.5188   20.5990 H   0  0  0  0  0  0
  -26.8537  -30.8193   22.0020 H   0  0  0  0  0  0
  -28.1081  -28.9046   21.2234 H   0  0  0  0  0  0
  -25.9283  -25.8780   19.0353 H   0  0  0  0  0  0
  -23.9715  -27.2925   19.0092 H   0  0  0  0  0  0
  -23.7706  -30.5832   19.3994 H   0  0  0  0  0  0
  -22.7627  -29.2422   19.8523 H   0  0  0  0  0  0
  -25.1294  -36.1897   25.0823 H   0  0  0  0  0  0
  -20.9972  -28.3288   24.1395 H   0  0  0  0  0  0
  -20.5693  -26.2305   23.3605 H   0  0  0  0  0  0
  -21.6654  -26.7460   22.1206 H   0  0  0  0  0  0
  -19.6923  -25.6293   21.1259 H   0  0  0  0  0  0
  -19.6721  -27.3183   20.6735 H   0  0  0  0  0  0
  -17.4204  -26.6670   21.4019 H   0  0  0  0  0  0
  -18.0336  -26.0113   22.9036 H   0  0  0  0  0  0
  -19.7941  -30.7292   24.2246 H   0  0  0  0  0  0
  -17.5018  -31.6283   24.5162 H   0  0  0  0  0  0
  -15.5353  -30.2992   23.7682 H   0  0  0  0  0  0
  -15.8663  -28.0839   22.7066 H   0  0  0  0  0  0
  -24.5930  -30.7058   25.7756 H   0  0  0  0  0  0
  -24.8917  -32.2895   26.4806 H   0  0  0  0  0  0
  -25.8066  -30.8941   27.0206 H   0  0  0  0  0  0
  -26.2945  -29.6729   24.1191 H   0  0  0  0  0  0
  -27.4043  -29.7251   25.4700 H   0  0  0  0  0  0
  -27.8824  -30.4266   23.9419 H   0  0  0  0  0  0
  -27.2689  -33.3625   26.2026 H   0  0  0  0  0  0
  -28.3903  -32.6843   25.0315 H   0  0  0  0  0  0
  -28.0709  -31.8439   26.5419 H   0  0  0  0  0  0
  -28.2587  -38.0084   24.7502 H   0  0  0  0  0  0
  -28.1067  -36.2615   24.6306 H   0  0  0  0  0  0
  -27.2287  -37.1460   25.8872 H   0  0  0  0  0  0
  -20.9398  -29.8735   21.6839 H   0  0  0  0  0  0
  -26.0160  -38.2828   24.1405 H   0  0  0  0  0  0
  -27.6524  -17.9433   17.5153 H   0  0  0  0  0  0
  -28.7450  -16.0472   18.5325 H   0  0  0  0  0  0
  -30.0914  -18.5988   21.7525 H   0  0  0  0  0  0
  -28.2542  -20.0756   16.4623 H   0  0  0  0  0  0
  -27.4212  -21.6265   16.6020 H   0  0  0  0  0  0
  -26.4862  -20.1350   16.4244 H   0  0  0  0  0  0
  -30.6984  -23.1413   18.9268 H   0  0  0  0  0  0
  -29.2589  -22.7614   17.9792 H   0  0  0  0  0  0
  -30.2623  -21.4743   18.6262 H   0  0  0  0  0  0
  -29.9760  -21.1579   21.4497 H   0  0  0  0  0  0
  -28.2555  -21.1671   21.5768 H   0  0  0  0  0  0
  -27.7116  -24.8654   18.7976 H   0  0  0  0  0  0
  -29.3953  -25.0647   19.0476 H   0  0  0  0  0  0
  -29.1417  -15.5513   21.5607 H   0  0  0  0  0  0
  1 25  1  0  0  0
  1 30  2  0  0  0
  1 83  1  0  0  0
  2  3  1  0  0  0
  2 25  1  0  0  0
  2 87  1  0  0  0
  2 88  1  0  0  0
  3  4  1  0  0  0
  3 89  1  0  0  0
  3 90  1  0  0  0
  4  5  1  0  0  0
  4 91  1  0  0  0
  4 92  1  0  0  0
  5  6  1  0  0  0
  5 26  1  0  0  0
  5 93  1  0  0  0
  6 25  1  0  0  0
  6 94  1  0  0  0
  6 95  1  0  0  0
  7  8  2  0  0  0
  7 26  1  0  0  0
  7 29  1  0  0  0
  8  9  1  0  0  0
  8 22  1  0  0  0
  9 10  1  0  0  0
  9 27  2  0  0  0
 10 11  2  0  0  0
 10 15  1  0  0  0
 11 12  1  0  0  0
 11 96  1  0  0  0
 12 13  2  0  0  0
 12 97  1  0  0  0
 13 14  1  0  0  0
 13 31  1  0  0  0
 14 15  2  0  0  0
 14 98  1  0  0  0
 15 99  1  0  0  0
 16 17  2  0  0  0
 16 21  1  0  0  0
 16 31  1  0  0  0
 17 18  1  0  0  0
 17100  1  0  0  0
 18 19  2  0  0  0
 18101  1  0  0  0
 19 20  1  0  0  0
 19 24  1  0  0  0
 20 21  2  0  0  0
 20102  1  0  0  0
 21 23  1  0  0  0
 22 28  1  0  0  0
 22 32  2  0  0  0
 26 27  1  0  0  0
 28103  1  0  0  0
 28104  1  0  0  0
 29105  1  0  0  0
 29106  1  0  0  0
 33 34  1  0  0  0
 33 66  1  0  0  0
 33 70  2  0  0  0
 34 36  1  0  0  0
 34 59  1  0  0  0
 34107  1  0  0  0
 35 44  2  0  0  0
 35 45  1  0  0  0
 35 68  1  0  0  0
 36 56  1  0  0  0
 36108  1  0  0  0
 37 39  1  0  0  0
 37 47  1  0  0  0
 37 66  1  0  0  0
 37109  1  0  0  0
 38 43  2  0  0  0
 38 46  1  0  0  0
 38 47  1  0  0  0
 39 64  1  0  0  0
 39 67  2  0  0  0
 40 52  1  0  0  0
 40 53  2  0  0  0
 40 58  1  0  0  0
 41110  1  0  0  0
 41111  1  0  0  0
 41112  1  0  0  0
 41 48  1  0  0  0
 42 43  1  0  0  0
 42 66  1  0  0  0
 42113  1  0  0  0
 42114  1  0  0  0
 43 44  1  0  0  0
 44115  1  0  0  0
 45 46  2  0  0  0
 45116  1  0  0  0
 46117  1  0  0  0
 47118  1  0  0  0
 47119  1  0  0  0
 48 56  1  0  0  0
 48 65  1  0  0  0
 48120  1  0  0  0
 49 50  1  0  0  0
 49 53  1  0  0  0
 49 64  1  0  0  0
 49121  1  0  0  0
 50 51  1  0  0  0
 50122  1  0  0  0
 50123  1  0  0  0
 51 52  1  0  0  0
 51124  1  0  0  0
 51125  1  0  0  0
 52126  1  0  0  0
 52127  1  0  0  0
 53 54  1  0  0  0
 54 55  2  0  0  0
 54128  1  0  0  0
 55 57  1  0  0  0
 55129  1  0  0  0
 56 69  2  0  0  0
 57 58  2  0  0  0
 57130  1  0  0  0
 58131  1  0  0  0
 59 60  1  0  0  0
 59 61  1  0  0  0
 59 62  1  0  0  0
 60132  1  0  0  0
 60133  1  0  0  0
 60134  1  0  0  0
 61135  1  0  0  0
 61136  1  0  0  0
 61137  1  0  0  0
 62138  1  0  0  0
 62139  1  0  0  0
 62140  1  0  0  0
 63 65  1  0  0  0
 63141  1  0  0  0
 63142  1  0  0  0
 63143  1  0  0  0
 64144  1  0  0  0
 65145  1  0  0  0
 68 82  1  0  0  0
 71 72  2  0  0  0
 71 74  1  0  0  0
 71146  1  0  0  0
 72 76  1  0  0  0
 72147  1  0  0  0
 73 75  1  0  0  0
 73 76  2  0  0  0
 73148  1  0  0  0
 74 75  2  0  0  0
 74 77  1  0  0  0
 75 81  1  0  0  0
 76 83  1  0  0  0
 77 79  1  0  0  0
 77 85  2  0  0  0
 78 82  1  0  0  0
 78 84  1  0  0  0
 78 86  2  0  0  0
 79149  1  0  0  0
 79150  1  0  0  0
 79151  1  0  0  0
 80 84  1  0  0  0
 80152  1  0  0  0
 80153  1  0  0  0
 80154  1  0  0  0
 81 84  1  0  0  0
 81155  1  0  0  0
 81156  1  0  0  0
 82157  1  0  0  0
 82158  1  0  0  0
 83159  1  0  0  0
M  ISO  4   1 100  68 101  82 101  83 100
M  END
> <chiral flag>
0

> <version>
0

> <s_m_source_file>
/data/baiqing/PycharmProjects/Reinvent-master-3.2/result/LINK_invent/BTK/process_docking_weight1_custom_product_contain_oxygen_bond_distance_aromatic_linkinvent_7_9_3/rearranged_h_0053.sdf

> <i_m_source_file_index>
72

> <r_mmod_Potential_Energy-OPLS-2005>
269.307891845703

> <r_mmod_Stretch_Energy-OPLS-2005>
146.174987792969

> <r_mmod_Bend_Energy-OPLS-2005>
185.75260925293

> <r_mmod_Torsional_Energy-OPLS-2005>
300.242034912109

> <r_mmod_Improper_Torsional_Energy-OPLS-2005>
7.09384250640869

> <r_mmod_Van_der_Waal_Energy-OPLS-2005>
137.556411743164

> <r_mmod_Electrostatic_Energy-OPLS-2005>
-341.916137695312

> <r_mmod_Solvation_Energy-OPLS-2005>
-253.239700317383

> <b_mmod_Minimization_Converged-OPLS-2005>
0

> <r_mmod_RMS_Derivative-OPLS-2005>
2.2080180644989

$$$$
72
                    3D
 Structure written by MMmdl.
155163  0  0  1  0            999 V2000
  -30.6743  -14.4894   20.5828 C   0  0  0  0  0  0
  -30.4352  -12.3213   19.4176 C   0  0  0  0  0  0
  -29.4984  -12.5091   18.2050 C   0  0  0  0  0  0
  -28.0188  -12.3645   18.6170 C   0  0  0  0  0  0
  -27.6634  -13.2003   19.8750 C   0  0  2  0  0  0
  -28.7052  -12.9672   20.9927 C   0  0  0  0  0  0
  -25.2606  -13.8147   20.5675 C   0  0  0  0  0  0
  -24.1851  -13.0437   20.9181 C   0  0  0  0  0  0
  -24.6385  -11.6899   20.8733 C   0  0  0  0  0  0
  -23.9044  -10.4293   21.0404 C   0  0  0  0  0  0
  -24.3603   -9.4210   21.9177 C   0  0  0  0  0  0
  -23.6285   -8.2244   22.0749 C   0  0  0  0  0  0
  -22.4265   -8.0280   21.3544 C   0  0  0  0  0  0
  -21.9893   -9.0253   20.4649 C   0  0  0  0  0  0
  -22.7215  -10.2136   20.3059 C   0  0  0  0  0  0
  -21.6853   -6.0731   22.5273 C   0  0  0  0  0  0
  -21.4014   -6.5633   23.8207 C   0  0  0  0  0  0
  -21.3657   -5.6787   24.9170 C   0  0  0  0  0  0
  -21.6042   -4.3051   24.7223 C   0  0  0  0  0  0
  -21.8822   -3.8143   23.4345 C   0  0  0  0  0  0
  -21.9198   -4.6960   22.3400 C   0  0  0  0  0  0
  -22.7879  -13.5252   21.1850 C   0  0  0  0  0  0
  -22.1670   -4.2150   21.0978 F   0  0  0  0  0  0
  -21.5626   -3.4536   25.7737 F   0  0  0  0  0  0
  -30.0361  -13.2938   20.4467 N   0  0  0  0  0  0
  -26.3028  -12.9298   20.3346 N   0  0  0  0  0  0
  -25.9304  -11.6466   20.5742 N   0  0  0  0  0  0
  -22.0516  -12.8261   22.0417 N   0  0  0  0  0  0
  -25.4358  -15.1858   20.4073 N   0  0  0  0  0  0
  -31.7983  -14.7002   20.1163 O   0  0  0  0  0  0
  -21.6639   -6.8873   21.4235 O   0  0  0  0  0  0
  -22.3575  -14.5558   20.6693 O   0  0  0  0  0  0
  -24.6154  -31.8667   23.2078 C   0  0  0  0  0  0
  -25.9043  -32.4818   23.8380 C   0  0  1  0  0  0
  -27.2410  -27.4277   20.1041 C   0  0  0  0  0  0
  -25.5900  -33.8615   24.2319 N   0  0  0  0  0  0
  -23.4050  -30.4873   21.5487 C   0  0  2  0  0  0
  -24.8549  -28.9467   20.1209 C   0  0  0  0  0  0
  -22.7411  -29.4649   22.4990 C   0  0  0  0  0  0
  -18.0270  -28.1376   22.8493 C   0  0  0  0  0  0
  -24.1485  -36.7310   23.2626 C   0  0  0  0  0  0
  -25.9334  -30.8297   21.3630 C   0  0  0  0  0  0
  -26.0146  -29.4602   20.7171 C   0  0  0  0  0  0
  -27.2131  -28.7075   20.7070 C   0  0  0  0  0  0
  -26.0660  -26.9245   19.5106 C   0  0  0  0  0  0
  -24.8744  -27.6766   19.5165 C   0  0  0  0  0  0
  -23.6163  -29.8140   20.1661 C   0  0  0  0  0  0
  -25.4096  -36.3106   24.0340 C   0  0  1  0  0  0
  -20.5860  -28.3667   23.1315 C   0  0  2  0  0  0
  -20.6763  -26.9401   22.5416 C   0  0  0  0  0  0
  -19.5742  -26.6386   21.5210 C   0  0  0  0  0  0
  -18.1922  -26.7921   22.1627 C   0  0  0  0  0  0
  -19.1520  -28.8836   23.2901 C   0  0  0  0  0  0
  -18.9454  -30.1444   23.8910 C   0  0  0  0  0  0
  -17.6456  -30.6584   24.0561 C   0  0  0  0  0  0
  -25.9034  -34.9476   23.5129 C   0  0  0  0  0  0
  -16.5347  -29.9088   23.6321 C   0  0  0  0  0  0
  -16.7259  -28.6502   23.0348 C   0  0  0  0  0  0
  -26.4476  -31.6595   25.0706 C   0  0  0  0  0  0
  -25.3752  -31.3747   26.1474 C   0  0  0  0  0  0
  -27.0267  -30.3016   24.6087 C   0  0  0  0  0  0
  -27.6076  -32.4293   25.7450 C   0  0  0  0  0  0
  -27.5603  -37.1763   24.8436 C   0  0  0  0  0  0
  -21.4136  -29.3033   22.3721 N   0  0  0  0  0  0
  -26.4268  -37.3811   23.9456 N   0  0  0  0  0  0
  -24.6693  -31.0759   22.0985 N   0  0  0  0  0  0
  -23.4173  -28.8191   23.3039 O   0  0  0  0  0  0
  -28.3963  -26.6788   20.0457 O   0  0  0  0  0  0
  -26.5597  -34.8934   22.4693 O   0  0  0  0  0  0
  -23.5344  -32.1430   23.7465 O   0  0  0  0  0  0
  -31.3697  -18.9573   21.2791 C   0  0  0  0  0  0
  -31.3043  -17.5567   21.0993 C   0  0  0  0  0  0
  -28.9133  -17.6475   21.4735 C   0  0  0  0  0  0
  -30.2172  -19.7231   21.5851 C   0  0  0  0  0  0
  -28.9619  -19.0555   21.6510 C   0  0  0  0  0  0
  -30.0705  -16.8772   21.2196 C   0  0  0  0  0  0
  -29.1517  -24.4554   20.5959 C   0  0  0  0  0  0
  -28.4983  -25.6036   20.9002 C   0  0  0  0  0  0
  -29.2976  -23.3979   21.5959 C   0  0  0  0  0  0
  -30.4029  -21.1972   22.0005 C   0  0  0  0  0  0
  -27.6652  -19.8097   21.9548 C   0  0  0  0  0  0
  -29.9164  -15.4525   21.1524 N   0  0  0  0  0  0
  -29.8638  -22.2621   21.1322 N   0  0  0  0  0  0
  -29.0006  -23.5349   22.7848 O   0  0  0  0  0  0
  -26.6094  -18.9949   21.9782 F   0  0  0  0  0  0
  -27.7357  -20.4049   23.1443 F   0  0  0  0  0  0
  -27.4329  -20.7274   21.0181 F   0  0  0  0  0  0
  -31.4757  -12.4441   19.1116 H   0  0  0  0  0  0
  -30.3583  -11.3070   19.8116 H   0  0  0  0  0  0
  -29.7404  -11.7828   17.4280 H   0  0  0  0  0  0
  -29.6614  -13.4938   17.7639 H   0  0  0  0  0  0
  -27.8290  -11.3077   18.8093 H   0  0  0  0  0  0
  -27.3693  -12.6427   17.7859 H   0  0  0  0  0  0
  -27.7106  -14.2492   19.5820 H   0  0  0  0  0  0
  -28.6898  -11.9240   21.3113 H   0  0  0  0  0  0
  -28.4571  -13.5396   21.8873 H   0  0  0  0  0  0
  -25.2753   -9.5689   22.4745 H   0  0  0  0  0  0
  -24.0001   -7.4635   22.7458 H   0  0  0  0  0  0
  -21.0826   -8.8770   19.8955 H   0  0  0  0  0  0
  -22.3668  -10.9676   19.6174 H   0  0  0  0  0  0
  -21.2002   -7.6140   23.9706 H   0  0  0  0  0  0
  -21.1474   -6.0519   25.9070 H   0  0  0  0  0  0
  -22.0605   -2.7605   23.2848 H   0  0  0  0  0  0
  -22.4125  -11.9928   22.4820 H   0  0  0  0  0  0
  -21.1141  -13.1306   22.2626 H   0  0  0  0  0  0
  -24.6685  -15.8418   20.5032 H   0  0  0  0  0  0
  -26.2782  -15.6133   20.0450 H   0  0  0  0  0  0
  -26.7113  -32.5536   23.1142 H   0  0  0  0  0  0
  -25.0054  -33.9771   25.0466 H   0  0  0  0  0  0
  -22.6937  -31.3030   21.4057 H   0  0  0  0  0  0
  -23.3772  -35.9610   23.3218 H   0  0  0  0  0  0
  -24.3609  -36.8995   22.2055 H   0  0  0  0  0  0
  -23.7189  -37.6474   23.6682 H   0  0  0  0  0  0
  -26.0417  -31.5912   20.5896 H   0  0  0  0  0  0
  -26.8224  -30.8900   21.9791 H   0  0  0  0  0  0
  -28.1130  -29.0999   21.1601 H   0  0  0  0  0  0
  -26.0789  -25.9513   19.0399 H   0  0  0  0  0  0
  -23.9828  -27.2737   19.0564 H   0  0  0  0  0  0
  -23.7245  -30.5851   19.4025 H   0  0  0  0  0  0
  -22.7410  -29.2317   19.8723 H   0  0  0  0  0  0
  -25.1250  -36.1954   25.0827 H   0  0  0  0  0  0
  -20.9948  -28.3236   24.1436 H   0  0  0  0  0  0
  -20.5671  -26.2266   23.3601 H   0  0  0  0  0  0
  -21.6637  -26.7449   22.1208 H   0  0  0  0  0  0
  -19.6905  -25.6302   21.1229 H   0  0  0  0  0  0
  -19.6673  -27.3201   20.6744 H   0  0  0  0  0  0
  -17.4184  -26.6650   21.4041 H   0  0  0  0  0  0
  -18.0337  -26.0069   22.9031 H   0  0  0  0  0  0
  -19.7933  -30.7255   24.2286 H   0  0  0  0  0  0
  -17.5016  -31.6266   24.5163 H   0  0  0  0  0  0
  -15.5350  -30.2998   23.7642 H   0  0  0  0  0  0
  -15.8655  -28.0824   22.7066 H   0  0  0  0  0  0
  -24.5841  -30.7194   25.7816 H   0  0  0  0  0  0
  -24.9057  -32.2938   26.4988 H   0  0  0  0  0  0
  -25.8091  -30.8832   27.0189 H   0  0  0  0  0  0
  -26.2785  -29.6791   24.1162 H   0  0  0  0  0  0
  -27.4035  -29.7245   25.4543 H   0  0  0  0  0  0
  -27.8637  -30.4297   23.9217 H   0  0  0  0  0  0
  -27.2724  -33.3595   26.2049 H   0  0  0  0  0  0
  -28.3870  -32.6843   25.0256 H   0  0  0  0  0  0
  -28.0756  -31.8397   26.5341 H   0  0  0  0  0  0
  -28.2514  -38.0168   24.7675 H   0  0  0  0  0  0
  -28.1208  -36.2724   24.6004 H   0  0  0  0  0  0
  -27.2367  -37.1107   25.8837 H   0  0  0  0  0  0
  -20.9295  -29.8746   21.6935 H   0  0  0  0  0  0
  -26.0151  -38.2858   24.1581 H   0  0  0  0  0  0
  -32.3379  -19.4364   21.2318 H   0  0  0  0  0  0
  -32.2221  -17.0171   20.9139 H   0  0  0  0  0  0
  -27.9619  -17.1436   21.5600 H   0  0  0  0  0  0
  -29.5877  -24.3378   19.6143 H   0  0  0  0  0  0
  -28.0204  -25.7874   21.8544 H   0  0  0  0  0  0
  -31.4710  -21.3940   22.0995 H   0  0  0  0  0  0
  -30.0246  -21.2901   23.0193 H   0  0  0  0  0  0
  -29.0206  -15.1040   21.4583 H   0  0  0  0  0  0
  -30.0807  -22.2083   20.1466 H   0  0  0  0  0  0
  1 25  1  0  0  0
  1 30  2  0  0  0
  1 82  1  0  0  0
  2  3  1  0  0  0
  2 25  1  0  0  0
  2 88  1  0  0  0
  2 89  1  0  0  0
  3  4  1  0  0  0
  3 90  1  0  0  0
  3 91  1  0  0  0
  4  5  1  0  0  0
  4 92  1  0  0  0
  4 93  1  0  0  0
  5  6  1  0  0  0
  5 26  1  0  0  0
  5 94  1  0  0  0
  6 25  1  0  0  0
  6 95  1  0  0  0
  6 96  1  0  0  0
  7  8  2  0  0  0
  7 26  1  0  0  0
  7 29  1  0  0  0
  8  9  1  0  0  0
  8 22  1  0  0  0
  9 10  1  0  0  0
  9 27  2  0  0  0
 10 11  2  0  0  0
 10 15  1  0  0  0
 11 12  1  0  0  0
 11 97  1  0  0  0
 12 13  2  0  0  0
 12 98  1  0  0  0
 13 14  1  0  0  0
 13 31  1  0  0  0
 14 15  2  0  0  0
 14 99  1  0  0  0
 15100  1  0  0  0
 16 17  2  0  0  0
 16 21  1  0  0  0
 16 31  1  0  0  0
 17 18  1  0  0  0
 17101  1  0  0  0
 18 19  2  0  0  0
 18102  1  0  0  0
 19 20  1  0  0  0
 19 24  1  0  0  0
 20 21  2  0  0  0
 20103  1  0  0  0
 21 23  1  0  0  0
 22 28  1  0  0  0
 22 32  2  0  0  0
 26 27  1  0  0  0
 28104  1  0  0  0
 28105  1  0  0  0
 29106  1  0  0  0
 29107  1  0  0  0
 33 34  1  0  0  0
 33 66  1  0  0  0
 33 70  2  0  0  0
 34 36  1  0  0  0
 34 59  1  0  0  0
 34108  1  0  0  0
 35 44  2  0  0  0
 35 45  1  0  0  0
 35 68  1  0  0  0
 36 56  1  0  0  0
 36109  1  0  0  0
 37 39  1  0  0  0
 37 47  1  0  0  0
 37 66  1  0  0  0
 37110  1  0  0  0
 38 43  2  0  0  0
 38 46  1  0  0  0
 38 47  1  0  0  0
 39 64  1  0  0  0
 39 67  2  0  0  0
 40 52  1  0  0  0
 40 53  2  0  0  0
 40 58  1  0  0  0
 41111  1  0  0  0
 41112  1  0  0  0
 41113  1  0  0  0
 41 48  1  0  0  0
 42 43  1  0  0  0
 42 66  1  0  0  0
 42114  1  0  0  0
 42115  1  0  0  0
 43 44  1  0  0  0
 44116  1  0  0  0
 45 46  2  0  0  0
 45117  1  0  0  0
 46118  1  0  0  0
 47119  1  0  0  0
 47120  1  0  0  0
 48 56  1  0  0  0
 48 65  1  0  0  0
 48121  1  0  0  0
 49 50  1  0  0  0
 49 53  1  0  0  0
 49 64  1  0  0  0
 49122  1  0  0  0
 50 51  1  0  0  0
 50123  1  0  0  0
 50124  1  0  0  0
 51 52  1  0  0  0
 51125  1  0  0  0
 51126  1  0  0  0
 52127  1  0  0  0
 52128  1  0  0  0
 53 54  1  0  0  0
 54 55  2  0  0  0
 54129  1  0  0  0
 55 57  1  0  0  0
 55130  1  0  0  0
 56 69  2  0  0  0
 57 58  2  0  0  0
 57131  1  0  0  0
 58132  1  0  0  0
 59 60  1  0  0  0
 59 61  1  0  0  0
 59 62  1  0  0  0
 60133  1  0  0  0
 60134  1  0  0  0
 60135  1  0  0  0
 61136  1  0  0  0
 61137  1  0  0  0
 61138  1  0  0  0
 62139  1  0  0  0
 62140  1  0  0  0
 62141  1  0  0  0
 63 65  1  0  0  0
 63142  1  0  0  0
 63143  1  0  0  0
 63144  1  0  0  0
 64145  1  0  0  0
 65146  1  0  0  0
 68 78  1  0  0  0
 71 72  2  0  0  0
 71 74  1  0  0  0
 71147  1  0  0  0
 72 76  1  0  0  0
 72148  1  0  0  0
 73 75  1  0  0  0
 73 76  2  0  0  0
 73149  1  0  0  0
 74 75  2  0  0  0
 74 80  1  0  0  0
 75 81  1  0  0  0
 76 82  1  0  0  0
 77 78  2  0  0  0
 77 79  1  0  0  0
 77150  1  0  0  0
 78151  1  0  0  0
 79 83  1  0  0  0
 79 84  2  0  0  0
 80 83  1  0  0  0
 80152  1  0  0  0
 80153  1  0  0  0
 81 85  1  0  0  0
 81 86  1  0  0  0
 81 87  1  0  0  0
 82154  1  0  0  0
 83155  1  0  0  0
M  ISO  4   1 100  68 101  78 101  82 100
M  END
> <chiral flag>
0

> <version>
0

> <s_m_source_file>
/data/baiqing/PycharmProjects/Reinvent-master-3.2/result/LINK_invent/BTK/process_docking_weight1_custom_product_contain_oxygen_bond_distance_aromatic_linkinvent_7_9_3/rearranged_h_0053.sdf

> <i_m_source_file_index>
73

> <r_mmod_Potential_Energy-OPLS-2005>
-106.434638977051

> <r_mmod_Stretch_Energy-OPLS-2005>
40.7420806884766

> <r_mmod_Bend_Energy-OPLS-2005>
105.510688781738

> <r_mmod_Torsional_Energy-OPLS-2005>
225.634994506836

> <r_mmod_Improper_Torsional_Energy-OPLS-2005>
5.14789390563965

> <r_mmod_Van_der_Waal_Energy-OPLS-2005>
154.811538696289

> <r_mmod_Electrostatic_Energy-OPLS-2005>
-424.678497314453

> <r_mmod_Solvation_Energy-OPLS-2005>
-226.737350463867

> <b_mmod_Minimization_Converged-OPLS-2005>
0

> <r_mmod_RMS_Derivative-OPLS-2005>
1.05081129074097

$$$$
73
                    3D
 Structure written by MMmdl.
177186  0  0  1  0            999 V2000
  -30.7799  -14.3912   20.5253 C   0  0  0  0  0  0
  -30.3822  -12.2524   19.4224 C   0  0  0  0  0  0
  -29.4736  -12.4886   18.2027 C   0  0  0  0  0  0
  -27.9908  -12.3908   18.6085 C   0  0  0  0  0  0
  -27.6519  -13.2226   19.8745 C   0  0  2  0  0  0
  -28.6956  -13.0275   20.9970 C   0  0  0  0  0  0
  -25.2524  -13.8218   20.5736 C   0  0  0  0  0  0
  -24.1790  -13.0467   20.9224 C   0  0  0  0  0  0
  -24.6365  -11.6934   20.8765 C   0  0  0  0  0  0
  -23.9049  -10.4304   21.0412 C   0  0  0  0  0  0
  -24.3620   -9.4211   21.9169 C   0  0  0  0  0  0
  -23.6322   -8.2233   22.0714 C   0  0  0  0  0  0
  -22.4294   -8.0278   21.3528 C   0  0  0  0  0  0
  -21.9934   -9.0237   20.4620 C   0  0  0  0  0  0
  -22.7234  -10.2129   20.3043 C   0  0  0  0  0  0
  -21.6833   -6.0757   22.5292 C   0  0  0  0  0  0
  -21.3987   -6.5657   23.8216 C   0  0  0  0  0  0
  -21.3665   -5.6813   24.9184 C   0  0  0  0  0  0
  -21.6057   -4.3079   24.7223 C   0  0  0  0  0  0
  -21.8812   -3.8177   23.4341 C   0  0  0  0  0  0
  -21.9189   -4.7000   22.3408 C   0  0  0  0  0  0
  -22.7804  -13.5242   21.1923 C   0  0  0  0  0  0
  -22.1657   -4.2186   21.0978 F   0  0  0  0  0  0
  -21.5645   -3.4552   25.7729 F   0  0  0  0  0  0
  -30.0285  -13.2656   20.4281 N   0  0  0  0  0  0
  -26.2967  -12.9417   20.3412 N   0  0  0  0  0  0
  -25.9295  -11.6544   20.5801 N   0  0  0  0  0  0
  -22.0488  -12.8137   22.0456 N   0  0  0  0  0  0
  -25.4251  -15.1927   20.4096 N   0  0  0  0  0  0
  -31.9570  -14.4225   20.1627 O   0  0  0  0  0  0
  -21.6644   -6.8887   21.4245 O   0  0  0  0  0  0
  -22.3459  -14.5565   20.6831 O   0  0  0  0  0  0
  -24.6154  -31.8711   23.2145 C   0  0  0  0  0  0
  -25.9066  -32.4838   23.8417 C   0  0  1  0  0  0
  -27.2246  -27.4592   20.0577 C   0  0  0  0  0  0
  -25.5928  -33.8629   24.2352 N   0  0  0  0  0  0
  -23.3962  -30.5027   21.5576 C   0  0  2  0  0  0
  -24.8338  -28.9721   20.1222 C   0  0  0  0  0  0
  -22.7387  -29.4693   22.5011 C   0  0  0  0  0  0
  -18.0268  -28.1371   22.8479 C   0  0  0  0  0  0
  -24.1490  -36.7317   23.2627 C   0  0  0  0  0  0
  -25.9265  -30.8433   21.3630 C   0  0  0  0  0  0
  -25.9988  -29.4794   20.7091 C   0  0  0  0  0  0
  -27.1952  -28.7276   20.6803 C   0  0  0  0  0  0
  -26.0203  -26.9512   19.5045 C   0  0  0  0  0  0
  -24.8352  -27.7027   19.5282 C   0  0  0  0  0  0
  -23.5984  -29.8399   20.1713 C   0  0  0  0  0  0
  -25.4097  -36.3109   24.0342 C   0  0  1  0  0  0
  -20.5851  -28.3660   23.1316 C   0  0  2  0  0  0
  -20.6757  -26.9402   22.5408 C   0  0  0  0  0  0
  -19.5746  -26.6388   21.5183 C   0  0  0  0  0  0
  -18.1916  -26.7926   22.1595 C   0  0  0  0  0  0
  -19.1516  -28.8825   23.2894 C   0  0  0  0  0  0
  -18.9445  -30.1426   23.8913 C   0  0  0  0  0  0
  -17.6452  -30.6584   24.0552 C   0  0  0  0  0  0
  -25.9031  -34.9483   23.5135 C   0  0  0  0  0  0
  -16.5341  -29.9084   23.6324 C   0  0  0  0  0  0
  -16.7255  -28.6496   23.0349 C   0  0  0  0  0  0
  -26.4485  -31.6596   25.0734 C   0  0  0  0  0  0
  -25.3748  -31.3719   26.1488 C   0  0  0  0  0  0
  -27.0279  -30.3026   24.6095 C   0  0  0  0  0  0
  -27.6084  -32.4283   25.7499 C   0  0  0  0  0  0
  -27.5588  -37.1795   24.8438 C   0  0  0  0  0  0
  -21.4121  -29.3057   22.3747 N   0  0  0  0  0  0
  -26.4273  -37.3804   23.9429 N   0  0  0  0  0  0
  -24.6646  -31.0852   22.1032 N   0  0  0  0  0  0
  -23.4178  -28.8217   23.3019 O   0  0  0  0  0  0
  -28.4208  -26.7692   19.9910 O   0  0  0  0  0  0
  -26.5572  -34.8928   22.4683 O   0  0  0  0  0  0
  -23.5355  -32.1451   23.7564 O   0  0  0  0  0  0
  -32.2834  -18.6088   20.6993 C   0  0  0  0  0  0
  -31.3982  -17.6310   21.2068 C   0  0  0  0  0  0
  -30.5655  -22.3674   16.5610 C   0  0  0  0  0  0
  -32.3226  -23.5941   17.7065 C   0  0  0  0  0  0
  -30.8804  -16.9525   18.9250 C   0  0  0  0  0  0
  -32.8263  -21.4394   16.6419 C   0  0  0  0  0  0
  -32.5444  -18.7077   19.3113 C   0  0  0  0  0  0
  -31.4774  -21.3604   16.1964 C   0  0  0  0  0  0
  -33.2597  -22.6065   17.3351 C   0  0  0  0  0  0
  -30.7410  -16.7567   20.3180 C   0  0  0  0  0  0
  -30.9635  -23.4520   17.3623 C   0  0  0  0  0  0
  -31.8079  -17.8847   18.4272 C   0  0  0  0  0  0
  -33.7804  -20.2987   16.3955 C   0  0  0  0  0  0
  -29.8455  -25.0950   18.8730 C   0  0  0  0  0  0
  -30.9420  -20.2102   15.3493 C   0  0  0  0  0  0
  -34.7230  -22.8385   17.7026 C   0  0  0  0  0  0
  -36.5993  -19.0207   17.1627 C   0  0  0  0  0  0
  -33.6249  -19.6929   18.8424 C   0  0  0  0  0  0
  -28.4340  -25.6292   19.1234 C   0  0  0  0  0  0
  -35.1617  -18.4795   17.2982 C   0  0  0  0  0  0
  -29.9470  -24.3527   17.7582 N   0  0  0  0  0  0
  -30.1505  -15.5490   20.7928 N   0  0  0  0  0  0
  -34.1622  -19.5486   17.4656 N   0  0  0  0  0  0
  -34.1941  -20.1090   15.2460 O   0  0  0  0  0  0
  -30.7743  -25.3505   19.6451 O   0  0  0  0  0  0
  -32.0227  -17.9169   17.0936 F   0  0  0  0  0  0
  -31.4302  -12.2874   19.1182 H   0  0  0  0  0  0
  -30.2207  -11.2517   19.8272 H   0  0  0  0  0  0
  -29.6883  -11.7541   17.4247 H   0  0  0  0  0  0
  -29.6781  -13.4684   17.7672 H   0  0  0  0  0  0
  -27.7601  -11.3388   18.7790 H   0  0  0  0  0  0
  -27.3560  -12.7108   17.7807 H   0  0  0  0  0  0
  -27.6964  -14.2692   19.5750 H   0  0  0  0  0  0
  -28.6420  -12.0148   21.3968 H   0  0  0  0  0  0
  -28.4937  -13.6943   21.8362 H   0  0  0  0  0  0
  -25.2746   -9.5714   22.4744 H   0  0  0  0  0  0
  -24.0071   -7.4608   22.7383 H   0  0  0  0  0  0
  -21.0884   -8.8727   19.8897 H   0  0  0  0  0  0
  -22.3676  -10.9664   19.6170 H   0  0  0  0  0  0
  -21.1934   -7.6157   23.9725 H   0  0  0  0  0  0
  -21.1509   -6.0538   25.9085 H   0  0  0  0  0  0
  -22.0582   -2.7642   23.2827 H   0  0  0  0  0  0
  -22.4140  -11.9777   22.4780 H   0  0  0  0  0  0
  -21.1105  -13.1074   22.2741 H   0  0  0  0  0  0
  -24.6642  -15.8561   20.5005 H   0  0  0  0  0  0
  -26.2818  -15.6213   20.0857 H   0  0  0  0  0  0
  -26.7140  -32.5546   23.1188 H   0  0  0  0  0  0
  -25.0106  -33.9790   25.0519 H   0  0  0  0  0  0
  -22.6834  -31.3193   21.4249 H   0  0  0  0  0  0
  -23.3761  -35.9635   23.3243 H   0  0  0  0  0  0
  -24.3607  -36.8972   22.2051 H   0  0  0  0  0  0
  -23.7227  -37.6507   23.6662 H   0  0  0  0  0  0
  -26.0359  -31.6125   20.5976 H   0  0  0  0  0  0
  -26.8169  -30.8929   21.9778 H   0  0  0  0  0  0
  -28.1014  -29.1254   21.1136 H   0  0  0  0  0  0
  -25.9566  -25.9785   19.0418 H   0  0  0  0  0  0
  -23.9319  -27.3001   19.0919 H   0  0  0  0  0  0
  -23.7047  -30.6152   19.4109 H   0  0  0  0  0  0
  -22.7197  -29.2624   19.8770 H   0  0  0  0  0  0
  -25.1259  -36.1967   25.0833 H   0  0  0  0  0  0
  -20.9933  -28.3227   24.1441 H   0  0  0  0  0  0
  -20.5640  -26.2270   23.3586 H   0  0  0  0  0  0
  -21.6638  -26.7452   22.1223 H   0  0  0  0  0  0
  -19.6914  -25.6297   21.1213 H   0  0  0  0  0  0
  -19.6697  -27.3198   20.6711 H   0  0  0  0  0  0
  -17.4193  -26.6680   21.3982 H   0  0  0  0  0  0
  -18.0317  -26.0052   22.8983 H   0  0  0  0  0  0
  -19.7922  -30.7219   24.2319 H   0  0  0  0  0  0
  -17.5016  -31.6274   24.5143 H   0  0  0  0  0  0
  -15.5340  -30.2991   23.7639 H   0  0  0  0  0  0
  -15.8653  -28.0808   22.7078 H   0  0  0  0  0  0
  -24.5936  -30.7043   25.7838 H   0  0  0  0  0  0
  -24.8930  -32.2880   26.4907 H   0  0  0  0  0  0
  -25.8113  -30.8919   27.0258 H   0  0  0  0  0  0
  -26.2802  -29.6825   24.1140 H   0  0  0  0  0  0
  -27.4019  -29.7235   25.4553 H   0  0  0  0  0  0
  -27.8664  -30.4323   23.9249 H   0  0  0  0  0  0
  -27.2747  -33.3601   26.2077 H   0  0  0  0  0  0
  -28.3914  -32.6793   25.0331 H   0  0  0  0  0  0
  -28.0723  -31.8382   26.5419 H   0  0  0  0  0  0
  -28.2547  -38.0150   24.7571 H   0  0  0  0  0  0
  -28.1138  -36.2690   24.6130 H   0  0  0  0  0  0
  -27.2333  -37.1298   25.8842 H   0  0  0  0  0  0
  -20.9260  -29.8792   21.7000 H   0  0  0  0  0  0
  -26.0156  -38.2870   24.1470 H   0  0  0  0  0  0
  -32.8250  -19.2379   21.3921 H   0  0  0  0  0  0
  -31.3062  -17.4952   22.2760 H   0  0  0  0  0  0
  -29.5345  -22.2802   16.2484 H   0  0  0  0  0  0
  -32.6589  -24.4547   18.2653 H   0  0  0  0  0  0
  -30.3865  -16.2949   18.2263 H   0  0  0  0  0  0
  -30.0537  -20.5172   14.7961 H   0  0  0  0  0  0
  -30.6445  -19.3685   15.9708 H   0  0  0  0  0  0
  -31.6637  -19.8650   14.6083 H   0  0  0  0  0  0
  -34.8190  -23.6177   18.4591 H   0  0  0  0  0  0
  -35.2796  -23.1553   16.8189 H   0  0  0  0  0  0
  -35.2070  -21.9500   18.1056 H   0  0  0  0  0  0
  -37.3088  -18.2024   17.0291 H   0  0  0  0  0  0
  -36.9073  -19.5838   18.0422 H   0  0  0  0  0  0
  -36.7075  -19.6749   16.2962 H   0  0  0  0  0  0
  -34.4719  -19.6177   19.5260 H   0  0  0  0  0  0
  -33.2307  -20.6853   19.0373 H   0  0  0  0  0  0
  -27.8432  -24.8206   19.5587 H   0  0  0  0  0  0
  -28.0073  -25.8850   18.1513 H   0  0  0  0  0  0
  -35.1138  -17.7854   18.1375 H   0  0  0  0  0  0
  -34.9130  -17.8829   16.4188 H   0  0  0  0  0  0
  -29.0806  -24.2746   17.2427 H   0  0  0  0  0  0
  -29.1918  -15.5505   21.1089 H   0  0  0  0  0  0
  1 25  1  0  0  0
  1 30  2  0  0  0
  1 92  1  0  0  0
  2  3  1  0  0  0
  2 25  1  0  0  0
  2 97  1  0  0  0
  2 98  1  0  0  0
  3  4  1  0  0  0
  3 99  1  0  0  0
  3100  1  0  0  0
  4  5  1  0  0  0
  4101  1  0  0  0
  4102  1  0  0  0
  5  6  1  0  0  0
  5 26  1  0  0  0
  5103  1  0  0  0
  6 25  1  0  0  0
  6104  1  0  0  0
  6105  1  0  0  0
  7  8  2  0  0  0
  7 26  1  0  0  0
  7 29  1  0  0  0
  8  9  1  0  0  0
  8 22  1  0  0  0
  9 10  1  0  0  0
  9 27  2  0  0  0
 10 11  2  0  0  0
 10 15  1  0  0  0
 11 12  1  0  0  0
 11106  1  0  0  0
 12 13  2  0  0  0
 12107  1  0  0  0
 13 14  1  0  0  0
 13 31  1  0  0  0
 14 15  2  0  0  0
 14108  1  0  0  0
 15109  1  0  0  0
 16 17  2  0  0  0
 16 21  1  0  0  0
 16 31  1  0  0  0
 17 18  1  0  0  0
 17110  1  0  0  0
 18 19  2  0  0  0
 18111  1  0  0  0
 19 20  1  0  0  0
 19 24  1  0  0  0
 20 21  2  0  0  0
 20112  1  0  0  0
 21 23  1  0  0  0
 22 28  1  0  0  0
 22 32  2  0  0  0
 26 27  1  0  0  0
 28113  1  0  0  0
 28114  1  0  0  0
 29115  1  0  0  0
 29116  1  0  0  0
 33 34  1  0  0  0
 33 66  1  0  0  0
 33 70  2  0  0  0
 34 36  1  0  0  0
 34 59  1  0  0  0
 34117  1  0  0  0
 35 44  2  0  0  0
 35 45  1  0  0  0
 35 68  1  0  0  0
 36 56  1  0  0  0
 36118  1  0  0  0
 37 39  1  0  0  0
 37 47  1  0  0  0
 37 66  1  0  0  0
 37119  1  0  0  0
 38 43  2  0  0  0
 38 46  1  0  0  0
 38 47  1  0  0  0
 39 64  1  0  0  0
 39 67  2  0  0  0
 40 52  1  0  0  0
 40 53  2  0  0  0
 40 58  1  0  0  0
 41120  1  0  0  0
 41121  1  0  0  0
 41122  1  0  0  0
 41 48  1  0  0  0
 42 43  1  0  0  0
 42 66  1  0  0  0
 42123  1  0  0  0
 42124  1  0  0  0
 43 44  1  0  0  0
 44125  1  0  0  0
 45 46  2  0  0  0
 45126  1  0  0  0
 46127  1  0  0  0
 47128  1  0  0  0
 47129  1  0  0  0
 48 56  1  0  0  0
 48 65  1  0  0  0
 48130  1  0  0  0
 49 50  1  0  0  0
 49 53  1  0  0  0
 49 64  1  0  0  0
 49131  1  0  0  0
 50 51  1  0  0  0
 50132  1  0  0  0
 50133  1  0  0  0
 51 52  1  0  0  0
 51134  1  0  0  0
 51135  1  0  0  0
 52136  1  0  0  0
 52137  1  0  0  0
 53 54  1  0  0  0
 54 55  2  0  0  0
 54138  1  0  0  0
 55 57  1  0  0  0
 55139  1  0  0  0
 56 69  2  0  0  0
 57 58  2  0  0  0
 57140  1  0  0  0
 58141  1  0  0  0
 59 60  1  0  0  0
 59 61  1  0  0  0
 59 62  1  0  0  0
 60142  1  0  0  0
 60143  1  0  0  0
 60144  1  0  0  0
 61145  1  0  0  0
 61146  1  0  0  0
 61147  1  0  0  0
 62148  1  0  0  0
 62149  1  0  0  0
 62150  1  0  0  0
 63 65  1  0  0  0
 63151  1  0  0  0
 63152  1  0  0  0
 63153  1  0  0  0
 64154  1  0  0  0
 65155  1  0  0  0
 68 89  1  0  0  0
 71 72  2  0  0  0
 71 77  1  0  0  0
 71156  1  0  0  0
 72 80  1  0  0  0
 72157  1  0  0  0
 73 78  2  0  0  0
 73 81  1  0  0  0
 73158  1  0  0  0
 74 79  1  0  0  0
 74 81  2  0  0  0
 74159  1  0  0  0
 75 80  2  0  0  0
 75 82  1  0  0  0
 75160  1  0  0  0
 76 78  1  0  0  0
 76 79  2  0  0  0
 76 83  1  0  0  0
 77 82  2  0  0  0
 77 88  1  0  0  0
 78 85  1  0  0  0
 79 86  1  0  0  0
 80 92  1  0  0  0
 81 91  1  0  0  0
 82 96  1  0  0  0
 83 93  1  0  0  0
 83 94  2  0  0  0
 84 89  1  0  0  0
 84 91  1  0  0  0
 84 95  2  0  0  0
 85161  1  0  0  0
 85162  1  0  0  0
 85163  1  0  0  0
 86164  1  0  0  0
 86165  1  0  0  0
 86166  1  0  0  0
 87 90  1  0  0  0
 87167  1  0  0  0
 87168  1  0  0  0
 87169  1  0  0  0
 88 93  1  0  0  0
 88170  1  0  0  0
 88171  1  0  0  0
 89172  1  0  0  0
 89173  1  0  0  0
 90 93  1  0  0  0
 90174  1  0  0  0
 90175  1  0  0  0
 91176  1  0  0  0
 92177  1  0  0  0
M  ISO  4   1 100  68 101  89 101  92 100
M  END
> <chiral flag>
0

> <version>
0

> <s_m_source_file>
/data/baiqing/PycharmProjects/Reinvent-master-3.2/result/LINK_invent/BTK/process_docking_weight1_custom_product_contain_oxygen_bond_distance_aromatic_linkinvent_7_9_3/rearranged_h_0053.sdf

> <i_m_source_file_index>
74

> <r_mmod_Potential_Energy-OPLS-2005>
160.527130126953

> <r_mmod_Stretch_Energy-OPLS-2005>
41.7896118164062

> <r_mmod_Bend_Energy-OPLS-2005>
117.824073791504

> <r_mmod_Torsional_Energy-OPLS-2005>
311.149627685547

> <r_mmod_Improper_Torsional_Energy-OPLS-2005>
8.63105201721191

> <r_mmod_Van_der_Waal_Energy-OPLS-2005>
203.966903686523

> <r_mmod_Electrostatic_Energy-OPLS-2005>
-287.745178222656

> <r_mmod_Solvation_Energy-OPLS-2005>
-256.803924560547

> <b_mmod_Minimization_Converged-OPLS-2005>
0

> <r_mmod_RMS_Derivative-OPLS-2005>
3.68820810317993

$$$$
74
                    3D
 Structure written by MMmdl.
160168  0  0  1  0            999 V2000
  -30.7235  -14.4134   20.5557 C   0  0  0  0  0  0
  -30.4136  -12.2633   19.4187 C   0  0  0  0  0  0
  -29.4916  -12.4919   18.2040 C   0  0  0  0  0  0
  -28.0117  -12.3650   18.6140 C   0  0  0  0  0  0
  -27.6632  -13.2009   19.8749 C   0  0  2  0  0  0
  -28.7033  -12.9708   20.9967 C   0  0  0  0  0  0
  -25.2590  -13.8140   20.5656 C   0  0  0  0  0  0
  -24.1844  -13.0432   20.9180 C   0  0  0  0  0  0
  -24.6392  -11.6897   20.8745 C   0  0  0  0  0  0
  -23.9055  -10.4291   21.0425 C   0  0  0  0  0  0
  -24.3608   -9.4204   21.9196 C   0  0  0  0  0  0
  -23.6282   -8.2241   22.0759 C   0  0  0  0  0  0
  -22.4268   -8.0280   21.3545 C   0  0  0  0  0  0
  -21.9904   -9.0258   20.4653 C   0  0  0  0  0  0
  -22.7232  -10.2137   20.3072 C   0  0  0  0  0  0
  -21.6856   -6.0732   22.5278 C   0  0  0  0  0  0
  -21.4019   -6.5641   23.8209 C   0  0  0  0  0  0
  -21.3654   -5.6791   24.9169 C   0  0  0  0  0  0
  -21.6044   -4.3053   24.7224 C   0  0  0  0  0  0
  -21.8821   -3.8144   23.4346 C   0  0  0  0  0  0
  -21.9196   -4.6961   22.3402 C   0  0  0  0  0  0
  -22.7868  -13.5244   21.1836 C   0  0  0  0  0  0
  -22.1663   -4.2145   21.0980 F   0  0  0  0  0  0
  -21.5625   -3.4536   25.7734 F   0  0  0  0  0  0
  -30.0418  -13.2449   20.4471 N   0  0  0  0  0  0
  -26.3028  -12.9306   20.3357 N   0  0  0  0  0  0
  -25.9322  -11.6474   20.5781 N   0  0  0  0  0  0
  -22.0497  -12.8249   22.0392 N   0  0  0  0  0  0
  -25.4288  -15.1845   20.3989 N   0  0  0  0  0  0
  -31.8681  -14.5652   20.1209 O   0  0  0  0  0  0
  -21.6641   -6.8872   21.4235 O   0  0  0  0  0  0
  -22.3561  -14.5548   20.6676 O   0  0  0  0  0  0
  -24.6101  -31.8700   23.2125 C   0  0  0  0  0  0
  -25.9012  -32.4834   23.8410 C   0  0  1  0  0  0
  -27.2454  -27.4791   20.0725 C   0  0  0  0  0  0
  -25.5887  -33.8635   24.2343 N   0  0  0  0  0  0
  -23.3966  -30.4926   21.5521 C   0  0  2  0  0  0
  -24.8429  -28.9594   20.1156 C   0  0  0  0  0  0
  -22.7383  -29.4669   22.5011 C   0  0  0  0  0  0
  -18.0266  -28.1374   22.8496 C   0  0  0  0  0  0
  -24.1488  -36.7327   23.2638 C   0  0  0  0  0  0
  -25.9203  -30.8443   21.3607 C   0  0  0  0  0  0
  -25.9972  -29.4790   20.7136 C   0  0  0  0  0  0
  -27.1956  -28.7381   20.7033 C   0  0  0  0  0  0
  -26.0705  -26.9520   19.4901 C   0  0  0  0  0  0
  -24.8705  -27.6898   19.5095 C   0  0  0  0  0  0
  -23.6023  -29.8215   20.1669 C   0  0  0  0  0  0
  -25.4107  -36.3124   24.0341 C   0  0  1  0  0  0
  -20.5852  -28.3656   23.1326 C   0  0  2  0  0  0
  -20.6757  -26.9396   22.5422 C   0  0  0  0  0  0
  -19.5741  -26.6384   21.5214 C   0  0  0  0  0  0
  -18.1916  -26.7924   22.1621 C   0  0  0  0  0  0
  -19.1515  -28.8831   23.2911 C   0  0  0  0  0  0
  -18.9443  -30.1438   23.8922 C   0  0  0  0  0  0
  -17.6447  -30.6583   24.0564 C   0  0  0  0  0  0
  -25.9030  -34.9483   23.5139 C   0  0  0  0  0  0
  -16.5339  -29.9090   23.6325 C   0  0  0  0  0  0
  -16.7255  -28.6504   23.0351 C   0  0  0  0  0  0
  -26.4454  -31.6607   25.0724 C   0  0  0  0  0  0
  -25.3734  -31.3715   26.1486 C   0  0  0  0  0  0
  -27.0275  -30.3056   24.6070 C   0  0  0  0  0  0
  -27.6044  -32.4317   25.7468 C   0  0  0  0  0  0
  -27.5585  -37.1814   24.8462 C   0  0  0  0  0  0
  -21.4117  -29.3030   22.3738 N   0  0  0  0  0  0
  -26.4300  -37.3798   23.9405 N   0  0  0  0  0  0
  -24.6604  -31.0833   22.1005 N   0  0  0  0  0  0
  -23.4168  -28.8219   23.3047 O   0  0  0  0  0  0
  -28.4412  -26.8039   20.0764 O   0  0  0  0  0  0
  -26.5590  -34.8923   22.4698 O   0  0  0  0  0  0
  -23.5302  -32.1438   23.7539 O   0  0  0  0  0  0
  -31.1218  -18.5785   19.2747 C   0  0  0  0  0  0
  -28.6990  -18.3840   19.1406 C   0  0  0  0  0  0
  -31.1708  -17.4237   20.0770 C   0  0  0  0  0  0
  -28.7476  -17.2288   19.9448 C   0  0  0  0  0  0
  -29.8907  -19.0463   18.7704 C   0  0  0  0  0  0
  -29.9867  -16.7072   20.3668 C   0  0  0  0  0  0
  -28.8285  -23.6127   18.4809 C   0  0  0  0  0  0
  -29.1668  -24.6723   19.2361 C   0  0  0  0  0  0
  -29.2331  -22.2628   18.8718 C   0  0  0  0  0  0
  -27.6540  -21.1487   17.3979 C   0  0  0  0  0  0
  -26.4112  -21.8947   17.9039 C   0  0  0  0  0  0
  -29.8857  -20.2162   17.7879 C   0  0  0  0  0  0
  -28.8278  -26.1048   18.8999 C   0  0  0  0  0  0
  -30.0027  -15.4463   21.0200 N   0  0  0  0  0  0
  -28.8610  -21.2580   18.0294 N   0  0  0  0  0  0
  -29.9994  -22.0534   19.8204 O   0  0  0  0  0  0
  -27.4814  -20.3902   16.4375 O   0  0  0  0  0  0
  -31.4601  -12.3409   19.1181 H   0  0  0  0  0  0
  -30.2917  -11.2508   19.8067 H   0  0  0  0  0  0
  -29.7221  -11.7748   17.4149 H   0  0  0  0  0  0
  -29.6751  -13.4813   17.7811 H   0  0  0  0  0  0
  -27.8110  -11.3088   18.8019 H   0  0  0  0  0  0
  -27.3656  -12.6514   17.7837 H   0  0  0  0  0  0
  -27.7114  -14.2494   19.5812 H   0  0  0  0  0  0
  -28.6633  -11.9384   21.3471 H   0  0  0  0  0  0
  -28.4772  -13.5827   21.8711 H   0  0  0  0  0  0
  -25.2761   -9.5670   22.4764 H   0  0  0  0  0  0
  -23.9991   -7.4632   22.7478 H   0  0  0  0  0  0
  -21.0837   -8.8778   19.8961 H   0  0  0  0  0  0
  -22.3695  -10.9677   19.6181 H   0  0  0  0  0  0
  -21.2018   -7.6151   23.9712 H   0  0  0  0  0  0
  -21.1472   -6.0521   25.9067 H   0  0  0  0  0  0
  -22.0606   -2.7608   23.2850 H   0  0  0  0  0  0
  -22.4093  -11.9912   22.4801 H   0  0  0  0  0  0
  -21.1120  -13.1294   22.2589 H   0  0  0  0  0  0
  -24.6552  -15.8346   20.4859 H   0  0  0  0  0  0
  -26.2554  -15.6053   19.9979 H   0  0  0  0  0  0
  -26.7092  -32.5562   23.1191 H   0  0  0  0  0  0
  -25.0058  -33.9804   25.0501 H   0  0  0  0  0  0
  -22.6845  -31.3085   21.4138 H   0  0  0  0  0  0
  -23.3738  -35.9673   23.3315 H   0  0  0  0  0  0
  -24.3583  -36.8920   22.2050 H   0  0  0  0  0  0
  -23.7247  -37.6542   23.6632 H   0  0  0  0  0  0
  -26.0259  -31.6077   20.5885 H   0  0  0  0  0  0
  -26.8114  -30.9018   21.9741 H   0  0  0  0  0  0
  -28.0899  -29.1387   21.1605 H   0  0  0  0  0  0
  -26.0724  -25.9744   19.0294 H   0  0  0  0  0  0
  -23.9794  -27.2777   19.0565 H   0  0  0  0  0  0
  -23.7044  -30.5951   19.4052 H   0  0  0  0  0  0
  -22.7277  -29.2369   19.8756 H   0  0  0  0  0  0
  -25.1281  -36.2004   25.0836 H   0  0  0  0  0  0
  -20.9948  -28.3224   24.1445 H   0  0  0  0  0  0
  -20.5667  -26.2264   23.3606 H   0  0  0  0  0  0
  -21.6627  -26.7446   22.1208 H   0  0  0  0  0  0
  -19.6905  -25.6300   21.1233 H   0  0  0  0  0  0
  -19.6693  -27.3208   20.6757 H   0  0  0  0  0  0
  -17.4191  -26.6679   21.4015 H   0  0  0  0  0  0
  -18.0314  -26.0059   22.9009 H   0  0  0  0  0  0
  -19.7918  -30.7243   24.2313 H   0  0  0  0  0  0
  -17.5002  -31.6267   24.5159 H   0  0  0  0  0  0
  -15.5339  -30.3003   23.7633 H   0  0  0  0  0  0
  -15.8653  -28.0833   22.7057 H   0  0  0  0  0  0
  -24.5888  -30.7081   25.7830 H   0  0  0  0  0  0
  -24.8949  -32.2878   26.4959 H   0  0  0  0  0  0
  -25.8092  -30.8863   27.0228 H   0  0  0  0  0  0
  -26.2807  -29.6827   24.1131 H   0  0  0  0  0  0
  -27.4070  -29.7280   25.4508 H   0  0  0  0  0  0
  -27.8630  -30.4393   23.9195 H   0  0  0  0  0  0
  -27.2674  -33.3601   26.2092 H   0  0  0  0  0  0
  -28.3818  -32.6899   25.0267 H   0  0  0  0  0  0
  -28.0748  -31.8414   26.5340 H   0  0  0  0  0  0
  -28.2612  -38.0102   24.7495 H   0  0  0  0  0  0
  -28.1070  -36.2631   24.6300 H   0  0  0  0  0  0
  -27.2300  -37.1480   25.8864 H   0  0  0  0  0  0
  -20.9274  -29.8751   21.6962 H   0  0  0  0  0  0
  -26.0197  -38.2884   24.1391 H   0  0  0  0  0  0
  -32.0449  -19.0811   19.0199 H   0  0  0  0  0  0
  -27.7400  -18.7208   18.7772 H   0  0  0  0  0  0
  -32.1326  -17.0676   20.4187 H   0  0  0  0  0  0
  -27.8278  -16.7174   20.1831 H   0  0  0  0  0  0
  -28.2829  -23.7907   17.5671 H   0  0  0  0  0  0
  -29.7343  -24.5353   20.1466 H   0  0  0  0  0  0
  -26.4567  -22.1079   18.9715 H   0  0  0  0  0  0
  -25.5259  -21.2803   17.7403 H   0  0  0  0  0  0
  -26.2637  -22.8249   17.3567 H   0  0  0  0  0  0
  -29.8050  -19.7966   16.7835 H   0  0  0  0  0  0
  -30.8779  -20.6751   17.7810 H   0  0  0  0  0  0
  -28.1070  -26.1543   18.0827 H   0  0  0  0  0  0
  -29.7345  -26.5801   18.5249 H   0  0  0  0  0  0
  -29.1226  -15.1578   21.4185 H   0  0  0  0  0  0
  1 25  1  0  0  0
  1 30  2  0  0  0
  1 84  1  0  0  0
  2  3  1  0  0  0
  2 25  1  0  0  0
  2 88  1  0  0  0
  2 89  1  0  0  0
  3  4  1  0  0  0
  3 90  1  0  0  0
  3 91  1  0  0  0
  4  5  1  0  0  0
  4 92  1  0  0  0
  4 93  1  0  0  0
  5  6  1  0  0  0
  5 26  1  0  0  0
  5 94  1  0  0  0
  6 25  1  0  0  0
  6 95  1  0  0  0
  6 96  1  0  0  0
  7  8  2  0  0  0
  7 26  1  0  0  0
  7 29  1  0  0  0
  8  9  1  0  0  0
  8 22  1  0  0  0
  9 10  1  0  0  0
  9 27  2  0  0  0
 10 11  2  0  0  0
 10 15  1  0  0  0
 11 12  1  0  0  0
 11 97  1  0  0  0
 12 13  2  0  0  0
 12 98  1  0  0  0
 13 14  1  0  0  0
 13 31  1  0  0  0
 14 15  2  0  0  0
 14 99  1  0  0  0
 15100  1  0  0  0
 16 17  2  0  0  0
 16 21  1  0  0  0
 16 31  1  0  0  0
 17 18  1  0  0  0
 17101  1  0  0  0
 18 19  2  0  0  0
 18102  1  0  0  0
 19 20  1  0  0  0
 19 24  1  0  0  0
 20 21  2  0  0  0
 20103  1  0  0  0
 21 23  1  0  0  0
 22 28  1  0  0  0
 22 32  2  0  0  0
 26 27  1  0  0  0
 28104  1  0  0  0
 28105  1  0  0  0
 29106  1  0  0  0
 29107  1  0  0  0
 33 34  1  0  0  0
 33 66  1  0  0  0
 33 70  2  0  0  0
 34 36  1  0  0  0
 34 59  1  0  0  0
 34108  1  0  0  0
 35 44  2  0  0  0
 35 45  1  0  0  0
 35 68  1  0  0  0
 36 56  1  0  0  0
 36109  1  0  0  0
 37 39  1  0  0  0
 37 47  1  0  0  0
 37 66  1  0  0  0
 37110  1  0  0  0
 38 43  2  0  0  0
 38 46  1  0  0  0
 38 47  1  0  0  0
 39 64  1  0  0  0
 39 67  2  0  0  0
 40 52  1  0  0  0
 40 53  2  0  0  0
 40 58  1  0  0  0
 41111  1  0  0  0
 41112  1  0  0  0
 41113  1  0  0  0
 41 48  1  0  0  0
 42 43  1  0  0  0
 42 66  1  0  0  0
 42114  1  0  0  0
 42115  1  0  0  0
 43 44  1  0  0  0
 44116  1  0  0  0
 45 46  2  0  0  0
 45117  1  0  0  0
 46118  1  0  0  0
 47119  1  0  0  0
 47120  1  0  0  0
 48 56  1  0  0  0
 48 65  1  0  0  0
 48121  1  0  0  0
 49 50  1  0  0  0
 49 53  1  0  0  0
 49 64  1  0  0  0
 49122  1  0  0  0
 50 51  1  0  0  0
 50123  1  0  0  0
 50124  1  0  0  0
 51 52  1  0  0  0
 51125  1  0  0  0
 51126  1  0  0  0
 52127  1  0  0  0
 52128  1  0  0  0
 53 54  1  0  0  0
 54 55  2  0  0  0
 54129  1  0  0  0
 55 57  1  0  0  0
 55130  1  0  0  0
 56 69  2  0  0  0
 57 58  2  0  0  0
 57131  1  0  0  0
 58132  1  0  0  0
 59 60  1  0  0  0
 59 61  1  0  0  0
 59 62  1  0  0  0
 60133  1  0  0  0
 60134  1  0  0  0
 60135  1  0  0  0
 61136  1  0  0  0
 61137  1  0  0  0
 61138  1  0  0  0
 62139  1  0  0  0
 62140  1  0  0  0
 62141  1  0  0  0
 63 65  1  0  0  0
 63142  1  0  0  0
 63143  1  0  0  0
 63144  1  0  0  0
 64145  1  0  0  0
 65146  1  0  0  0
 68 83  1  0  0  0
 71 73  2  0  0  0
 71 75  1  0  0  0
 71147  1  0  0  0
 72 74  1  0  0  0
 72 75  2  0  0  0
 72148  1  0  0  0
 73 76  1  0  0  0
 73149  1  0  0  0
 74 76  2  0  0  0
 74150  1  0  0  0
 75 82  1  0  0  0
 76 84  1  0  0  0
 77 78  2  0  0  0
 77 79  1  0  0  0
 77151  1  0  0  0
 78 83  1  0  0  0
 78152  1  0  0  0
 79 85  1  0  0  0
 79 86  2  0  0  0
 80 81  1  0  0  0
 80 85  1  0  0  0
 80 87  2  0  0  0
 81153  1  0  0  0
 81154  1  0  0  0
 81155  1  0  0  0
 82 85  1  0  0  0
 82156  1  0  0  0
 82157  1  0  0  0
 83158  1  0  0  0
 83159  1  0  0  0
 84160  1  0  0  0
M  ISO  4   1 100  68 101  83 101  84 100
M  END
> <chiral flag>
0

> <version>
0

> <s_m_source_file>
/data/baiqing/PycharmProjects/Reinvent-master-3.2/result/LINK_invent/BTK/process_docking_weight1_custom_product_contain_oxygen_bond_distance_aromatic_linkinvent_7_9_3/rearranged_h_0053.sdf

> <i_m_source_file_index>
75

> <r_mmod_Potential_Energy-OPLS-2005>
-85.8513946533203

> <r_mmod_Stretch_Energy-OPLS-2005>
36.7703704833984

> <r_mmod_Bend_Energy-OPLS-2005>
104.406036376953

> <r_mmod_Torsional_Energy-OPLS-2005>
265.166748046875

> <r_mmod_Improper_Torsional_Energy-OPLS-2005>
9.73155879974365

> <r_mmod_Van_der_Waal_Energy-OPLS-2005>
184.199081420898

> <r_mmod_Electrostatic_Energy-OPLS-2005>
-459.735076904297

> <r_mmod_Solvation_Energy-OPLS-2005>
-237.815643310547

> <b_mmod_Minimization_Converged-OPLS-2005>
0

> <r_mmod_RMS_Derivative-OPLS-2005>
1.21829807758331

$$$$
75
                    3D
 Structure written by MMmdl.
178187  0  0  1  0            999 V2000
  -30.7958  -14.3224   20.7381 C   0  0  0  0  0  0
  -30.4181  -12.2983   19.3740 C   0  0  0  0  0  0
  -29.4780  -12.5384   18.1804 C   0  0  0  0  0  0
  -28.0050  -12.3851   18.6027 C   0  0  0  0  0  0
  -27.6665  -13.1998   19.8777 C   0  0  2  0  0  0
  -28.7046  -12.9275   20.9863 C   0  0  0  0  0  0
  -25.2618  -13.8156   20.5672 C   0  0  0  0  0  0
  -24.1852  -13.0442   20.9162 C   0  0  0  0  0  0
  -24.6392  -11.6905   20.8718 C   0  0  0  0  0  0
  -23.9053  -10.4296   21.0395 C   0  0  0  0  0  0
  -24.3606   -9.4215   21.9177 C   0  0  0  0  0  0
  -23.6285   -8.2249   22.0753 C   0  0  0  0  0  0
  -22.4269   -8.0283   21.3545 C   0  0  0  0  0  0
  -21.9902   -9.0251   20.4640 C   0  0  0  0  0  0
  -22.7227  -10.2131   20.3046 C   0  0  0  0  0  0
  -21.6853   -6.0736   22.5280 C   0  0  0  0  0  0
  -21.4009   -6.5639   23.8212 C   0  0  0  0  0  0
  -21.3657   -5.6790   24.9173 C   0  0  0  0  0  0
  -21.6047   -4.3055   24.7223 C   0  0  0  0  0  0
  -21.8820   -3.8147   23.4344 C   0  0  0  0  0  0
  -21.9192   -4.6964   22.3401 C   0  0  0  0  0  0
  -22.7876  -13.5249   21.1828 C   0  0  0  0  0  0
  -22.1662   -4.2152   21.0979 F   0  0  0  0  0  0
  -21.5629   -3.4538   25.7735 F   0  0  0  0  0  0
  -30.0482  -13.2265   20.4508 N   0  0  0  0  0  0
  -26.3048  -12.9309   20.3368 N   0  0  0  0  0  0
  -25.9315  -11.6472   20.5742 N   0  0  0  0  0  0
  -22.0504  -12.8243   22.0376 N   0  0  0  0  0  0
  -25.4372  -15.1870   20.4092 N   0  0  0  0  0  0
  -31.7816  -14.6618   20.0739 O   0  0  0  0  0  0
  -21.6638   -6.8878   21.4243 O   0  0  0  0  0  0
  -22.3568  -14.5562   20.6688 O   0  0  0  0  0  0
  -24.6085  -31.8713   23.2138 C   0  0  0  0  0  0
  -25.9001  -32.4851   23.8416 C   0  0  1  0  0  0
  -27.2428  -27.4809   20.0941 C   0  0  0  0  0  0
  -25.5883  -33.8646   24.2361 N   0  0  0  0  0  0
  -23.3947  -30.4921   21.5535 C   0  0  2  0  0  0
  -24.8430  -28.9604   20.1196 C   0  0  0  0  0  0
  -22.7384  -29.4658   22.5032 C   0  0  0  0  0  0
  -18.0268  -28.1372   22.8499 C   0  0  0  0  0  0
  -24.1474  -36.7308   23.2634 C   0  0  0  0  0  0
  -25.9160  -30.8515   21.3597 C   0  0  0  0  0  0
  -25.9966  -29.4870   20.7132 C   0  0  0  0  0  0
  -27.2003  -28.7563   20.7000 C   0  0  0  0  0  0
  -26.0800  -26.9640   19.4901 C   0  0  0  0  0  0
  -24.8764  -27.6950   19.5063 C   0  0  0  0  0  0
  -23.5999  -29.8184   20.1695 C   0  0  0  0  0  0
  -25.4102  -36.3137   24.0347 C   0  0  1  0  0  0
  -20.5852  -28.3642   23.1348 C   0  0  2  0  0  0
  -20.6762  -26.9390   22.5422 C   0  0  0  0  0  0
  -19.5743  -26.6381   21.5216 C   0  0  0  0  0  0
  -18.1920  -26.7926   22.1622 C   0  0  0  0  0  0
  -19.1514  -28.8824   23.2924 C   0  0  0  0  0  0
  -18.9448  -30.1433   23.8934 C   0  0  0  0  0  0
  -17.6453  -30.6584   24.0562 C   0  0  0  0  0  0
  -25.9023  -34.9496   23.5151 C   0  0  0  0  0  0
  -16.5343  -29.9091   23.6317 C   0  0  0  0  0  0
  -16.7260  -28.6500   23.0350 C   0  0  0  0  0  0
  -26.4457  -31.6628   25.0726 C   0  0  0  0  0  0
  -25.3744  -31.3712   26.1483 C   0  0  0  0  0  0
  -27.0270  -30.3090   24.6059 C   0  0  0  0  0  0
  -27.6048  -32.4339   25.7466 C   0  0  0  0  0  0
  -27.5585  -37.1815   24.8464 C   0  0  0  0  0  0
  -21.4117  -29.3016   22.3770 N   0  0  0  0  0  0
  -26.4295  -37.3817   23.9409 N   0  0  0  0  0  0
  -24.6575  -31.0846   22.1018 N   0  0  0  0  0  0
  -23.4178  -28.8208   23.3057 O   0  0  0  0  0  0
  -28.3894  -26.7282   20.0369 O   0  0  0  0  0  0
  -26.5568  -34.8934   22.4703 O   0  0  0  0  0  0
  -23.5292  -32.1439   23.7569 O   0  0  0  0  0  0
  -33.2132  -16.5411   23.7525 C   0  0  0  0  0  0
  -32.5275  -15.8017   22.7776 C   0  0  0  0  0  0
  -30.4537  -22.4035   26.1648 C   0  0  0  0  0  0
  -29.4614  -24.4542   25.3369 C   0  0  0  0  0  0
  -29.3448  -21.6618   25.7041 C   0  0  0  0  0  0
  -31.0858  -17.3248   24.6731 C   0  0  0  0  0  0
  -32.5065  -17.2907   24.7113 C   0  0  0  0  0  0
  -28.3519  -23.7370   24.8338 C   0  0  0  0  0  0
  -28.2656  -22.3339   25.0592 C   0  0  0  0  0  0
  -30.3884  -16.5959   23.6647 C   0  0  0  0  0  0
  -31.1153  -15.8123   22.7300 C   0  0  0  0  0  0
  -30.5052  -23.7940   25.9995 C   0  0  0  0  0  0
  -29.3912  -20.1949   25.8802 C   0  0  0  0  0  0
  -30.3250  -18.1317   25.6904 C   0  0  0  0  0  0
  -28.4487  -25.3831   22.0605 C   0  0  0  0  0  0
  -33.3045  -18.0392   25.7715 C   0  0  0  0  0  0
  -27.0408  -21.5629   24.5616 C   0  0  0  0  0  0
  -28.8575  -16.6307   23.5870 C   0  0  0  0  0  0
  -27.5983  -26.9479   23.8078 C   0  0  0  0  0  0
  -27.2821  -24.4923   24.0355 C   0  0  0  0  0  0
  -29.0887  -26.5416   21.2697 C   0  0  0  0  0  0
  -30.3613  -19.4924   25.4485 N   0  0  0  0  0  0
  -30.3886  -14.9814   21.8325 N   0  0  0  0  0  0
  -27.8143  -25.6122   23.2394 N   0  0  0  0  0  0
  -29.6991  -17.5361   26.5725 O   0  0  0  0  0  0
  -28.5439  -24.2477   21.5807 O   0  0  0  0  0  0
  -31.5668  -24.4969   26.4602 F   0  0  0  0  0  0
  -31.4584  -12.4129   19.0637 H   0  0  0  0  0  0
  -30.3296  -11.2706   19.7290 H   0  0  0  0  0  0
  -29.7096  -11.8438   17.3720 H   0  0  0  0  0  0
  -29.6422  -13.5402   17.7803 H   0  0  0  0  0  0
  -27.8145  -11.3254   18.7771 H   0  0  0  0  0  0
  -27.3481  -12.6806   17.7840 H   0  0  0  0  0  0
  -27.7285  -14.2558   19.6135 H   0  0  0  0  0  0
  -28.6698  -11.8787   21.2842 H   0  0  0  0  0  0
  -28.4407  -13.4853   21.8843 H   0  0  0  0  0  0
  -25.2751   -9.5698   22.4749 H   0  0  0  0  0  0
  -23.9998   -7.4645   22.7476 H   0  0  0  0  0  0
  -21.0836   -8.8762   19.8944 H   0  0  0  0  0  0
  -22.3686  -10.9664   19.6149 H   0  0  0  0  0  0
  -21.1998   -7.6146   23.9717 H   0  0  0  0  0  0
  -21.1477   -6.0518   25.9075 H   0  0  0  0  0  0
  -22.0602   -2.7611   23.2842 H   0  0  0  0  0  0
  -22.4097  -11.9889   22.4753 H   0  0  0  0  0  0
  -21.1121  -13.1277   22.2566 H   0  0  0  0  0  0
  -24.6756  -15.8482   20.5154 H   0  0  0  0  0  0
  -26.2980  -15.6221   20.1006 H   0  0  0  0  0  0
  -26.7081  -32.5586   23.1194 H   0  0  0  0  0  0
  -25.0082  -33.9811   25.0542 H   0  0  0  0  0  0
  -22.6805  -31.3064   21.4149 H   0  0  0  0  0  0
  -23.3758  -35.9619   23.3306 H   0  0  0  0  0  0
  -24.3575  -36.8899   22.2044 H   0  0  0  0  0  0
  -23.7186  -37.6506   23.6620 H   0  0  0  0  0  0
  -26.0183  -31.6188   20.5909 H   0  0  0  0  0  0
  -26.8064  -30.9098   21.9735 H   0  0  0  0  0  0
  -28.0891  -29.1865   21.1393 H   0  0  0  0  0  0
  -26.1071  -25.9942   19.0132 H   0  0  0  0  0  0
  -23.9899  -27.2846   19.0422 H   0  0  0  0  0  0
  -23.6969  -30.5879   19.4030 H   0  0  0  0  0  0
  -22.7278  -29.2283   19.8830 H   0  0  0  0  0  0
  -25.1282  -36.2019   25.0845 H   0  0  0  0  0  0
  -20.9943  -28.3194   24.1466 H   0  0  0  0  0  0
  -20.5674  -26.2247   23.3596 H   0  0  0  0  0  0
  -21.6636  -26.7450   22.1207 H   0  0  0  0  0  0
  -19.6894  -25.6292   21.1239 H   0  0  0  0  0  0
  -19.6689  -27.3202   20.6755 H   0  0  0  0  0  0
  -17.4189  -26.6685   21.4018 H   0  0  0  0  0  0
  -18.0317  -26.0063   22.9011 H   0  0  0  0  0  0
  -19.7921  -30.7237   24.2334 H   0  0  0  0  0  0
  -17.5003  -31.6275   24.5144 H   0  0  0  0  0  0
  -15.5343  -30.3001   23.7616 H   0  0  0  0  0  0
  -15.8660  -28.0821   22.7059 H   0  0  0  0  0  0
  -24.5908  -30.7066   25.7821 H   0  0  0  0  0  0
  -24.8942  -32.2862   26.4961 H   0  0  0  0  0  0
  -25.8118  -30.8854   27.0212 H   0  0  0  0  0  0
  -26.2754  -29.6889   24.1169 H   0  0  0  0  0  0
  -27.4103  -29.7310   25.4480 H   0  0  0  0  0  0
  -27.8588  -30.4424   23.9140 H   0  0  0  0  0  0
  -27.2688  -33.3621   26.2103 H   0  0  0  0  0  0
  -28.3811  -32.6940   25.0261 H   0  0  0  0  0  0
  -28.0766  -31.8438   26.5332 H   0  0  0  0  0  0
  -28.2610  -38.0108   24.7540 H   0  0  0  0  0  0
  -28.1075  -36.2644   24.6267 H   0  0  0  0  0  0
  -27.2303  -37.1438   25.8866 H   0  0  0  0  0  0
  -20.9270  -29.8735   21.6996 H   0  0  0  0  0  0
  -26.0195  -38.2901   24.1417 H   0  0  0  0  0  0
  -34.2937  -16.5089   23.7700 H   0  0  0  0  0  0
  -33.1124  -15.2076   22.0910 H   0  0  0  0  0  0
  -31.2767  -21.9043   26.6569 H   0  0  0  0  0  0
  -29.5379  -25.5233   25.2068 H   0  0  0  0  0  0
  -28.5286  -19.7516   26.3904 H   0  0  0  0  0  0
  -34.3695  -17.8156   25.7042 H   0  0  0  0  0  0
  -32.9767  -17.7622   26.7741 H   0  0  0  0  0  0
  -33.1868  -19.1167   25.6541 H   0  0  0  0  0  0
  -27.1205  -21.3806   23.4896 H   0  0  0  0  0  0
  -26.1247  -22.1245   24.7453 H   0  0  0  0  0  0
  -26.8965  -20.6013   25.0509 H   0  0  0  0  0  0
  -28.4490  -17.5973   23.8803 H   0  0  0  0  0  0
  -28.4305  -15.8681   24.2385 H   0  0  0  0  0  0
  -28.4856  -16.4624   22.5765 H   0  0  0  0  0  0
  -26.9237  -27.5232   23.1743 H   0  0  0  0  0  0
  -28.5332  -27.4975   23.9203 H   0  0  0  0  0  0
  -27.1517  -26.9107   24.8014 H   0  0  0  0  0  0
  -26.5125  -24.8291   24.7306 H   0  0  0  0  0  0
  -26.7599  -23.8214   23.3524 H   0  0  0  0  0  0
  -30.1056  -26.2376   21.0211 H   0  0  0  0  0  0
  -29.2079  -27.4572   21.8425 H   0  0  0  0  0  0
  -29.4750  -14.7047   22.1559 H   0  0  0  0  0  0
  1 25  1  0  0  0
  1 30  2  0  0  0
  1 93  1  0  0  0
  2  3  1  0  0  0
  2 25  1  0  0  0
  2 98  1  0  0  0
  2 99  1  0  0  0
  3  4  1  0  0  0
  3100  1  0  0  0
  3101  1  0  0  0
  4  5  1  0  0  0
  4102  1  0  0  0
  4103  1  0  0  0
  5  6  1  0  0  0
  5 26  1  0  0  0
  5104  1  0  0  0
  6 25  1  0  0  0
  6105  1  0  0  0
  6106  1  0  0  0
  7  8  2  0  0  0
  7 26  1  0  0  0
  7 29  1  0  0  0
  8  9  1  0  0  0
  8 22  1  0  0  0
  9 10  1  0  0  0
  9 27  2  0  0  0
 10 11  2  0  0  0
 10 15  1  0  0  0
 11 12  1  0  0  0
 11107  1  0  0  0
 12 13  2  0  0  0
 12108  1  0  0  0
 13 14  1  0  0  0
 13 31  1  0  0  0
 14 15  2  0  0  0
 14109  1  0  0  0
 15110  1  0  0  0
 16 17  2  0  0  0
 16 21  1  0  0  0
 16 31  1  0  0  0
 17 18  1  0  0  0
 17111  1  0  0  0
 18 19  2  0  0  0
 18112  1  0  0  0
 19 20  1  0  0  0
 19 24  1  0  0  0
 20 21  2  0  0  0
 20113  1  0  0  0
 21 23  1  0  0  0
 22 28  1  0  0  0
 22 32  2  0  0  0
 26 27  1  0  0  0
 28114  1  0  0  0
 28115  1  0  0  0
 29116  1  0  0  0
 29117  1  0  0  0
 33 34  1  0  0  0
 33 66  1  0  0  0
 33 70  2  0  0  0
 34 36  1  0  0  0
 34 59  1  0  0  0
 34118  1  0  0  0
 35 44  2  0  0  0
 35 45  1  0  0  0
 35 68  1  0  0  0
 36 56  1  0  0  0
 36119  1  0  0  0
 37 39  1  0  0  0
 37 47  1  0  0  0
 37 66  1  0  0  0
 37120  1  0  0  0
 38 43  2  0  0  0
 38 46  1  0  0  0
 38 47  1  0  0  0
 39 64  1  0  0  0
 39 67  2  0  0  0
 40 52  1  0  0  0
 40 53  2  0  0  0
 40 58  1  0  0  0
 41121  1  0  0  0
 41122  1  0  0  0
 41123  1  0  0  0
 41 48  1  0  0  0
 42 43  1  0  0  0
 42 66  1  0  0  0
 42124  1  0  0  0
 42125  1  0  0  0
 43 44  1  0  0  0
 44126  1  0  0  0
 45 46  2  0  0  0
 45127  1  0  0  0
 46128  1  0  0  0
 47129  1  0  0  0
 47130  1  0  0  0
 48 56  1  0  0  0
 48 65  1  0  0  0
 48131  1  0  0  0
 49 50  1  0  0  0
 49 53  1  0  0  0
 49 64  1  0  0  0
 49132  1  0  0  0
 50 51  1  0  0  0
 50133  1  0  0  0
 50134  1  0  0  0
 51 52  1  0  0  0
 51135  1  0  0  0
 51136  1  0  0  0
 52137  1  0  0  0
 52138  1  0  0  0
 53 54  1  0  0  0
 54 55  2  0  0  0
 54139  1  0  0  0
 55 57  1  0  0  0
 55140  1  0  0  0
 56 69  2  0  0  0
 57 58  2  0  0  0
 57141  1  0  0  0
 58142  1  0  0  0
 59 60  1  0  0  0
 59 61  1  0  0  0
 59 62  1  0  0  0
 60143  1  0  0  0
 60144  1  0  0  0
 60145  1  0  0  0
 61146  1  0  0  0
 61147  1  0  0  0
 61148  1  0  0  0
 62149  1  0  0  0
 62150  1  0  0  0
 62151  1  0  0  0
 63 65  1  0  0  0
 63152  1  0  0  0
 63153  1  0  0  0
 63154  1  0  0  0
 64155  1  0  0  0
 65156  1  0  0  0
 68 91  1  0  0  0
 71 72  2  0  0  0
 71 77  1  0  0  0
 71157  1  0  0  0
 72 81  1  0  0  0
 72158  1  0  0  0
 73 75  2  0  0  0
 73 82  1  0  0  0
 73159  1  0  0  0
 74 78  1  0  0  0
 74 82  2  0  0  0
 74160  1  0  0  0
 75 79  1  0  0  0
 75 83  1  0  0  0
 76 77  2  0  0  0
 76 80  1  0  0  0
 76 84  1  0  0  0
 77 86  1  0  0  0
 78 79  2  0  0  0
 78 90  1  0  0  0
 79 87  1  0  0  0
 80 81  2  0  0  0
 80 88  1  0  0  0
 81 93  1  0  0  0
 82 97  1  0  0  0
 83 92  2  0  0  0
 83161  1  0  0  0
 84 92  1  0  0  0
 84 95  2  0  0  0
 85 91  1  0  0  0
 85 94  1  0  0  0
 85 96  2  0  0  0
 86162  1  0  0  0
 86163  1  0  0  0
 86164  1  0  0  0
 87165  1  0  0  0
 87166  1  0  0  0
 87167  1  0  0  0
 88168  1  0  0  0
 88169  1  0  0  0
 88170  1  0  0  0
 89 94  1  0  0  0
 89171  1  0  0  0
 89172  1  0  0  0
 89173  1  0  0  0
 90 94  1  0  0  0
 90174  1  0  0  0
 90175  1  0  0  0
 91176  1  0  0  0
 91177  1  0  0  0
 93178  1  0  0  0
M  ISO  4   1 100  68 101  91 101  93 100
M  END
> <chiral flag>
0

> <version>
0

> <s_m_source_file>
/data/baiqing/PycharmProjects/Reinvent-master-3.2/result/LINK_invent/BTK/process_docking_weight1_custom_product_contain_oxygen_bond_distance_aromatic_linkinvent_7_9_3/rearranged_h_0053.sdf

> <i_m_source_file_index>
76

> <r_mmod_Potential_Energy-OPLS-2005>
-3.89764356613159

> <r_mmod_Stretch_Energy-OPLS-2005>
42.2198829650879

> <r_mmod_Bend_Energy-OPLS-2005>
108.181983947754

> <r_mmod_Torsional_Energy-OPLS-2005>
259.951232910156

> <r_mmod_Improper_Torsional_Energy-OPLS-2005>
2.82560729980469

> <r_mmod_Van_der_Waal_Energy-OPLS-2005>
203.910797119141

> <r_mmod_Electrostatic_Energy-OPLS-2005>
-395.859222412109

> <r_mmod_Solvation_Energy-OPLS-2005>
-231.849914550781

> <b_mmod_Minimization_Converged-OPLS-2005>
0

> <r_mmod_RMS_Derivative-OPLS-2005>
0.956537485122681

$$$$
76
                    3D
 Structure written by MMmdl.
162171  0  0  1  0            999 V2000
  -30.6136  -14.5270   20.4608 C   0  0  0  0  0  0
  -30.4366  -12.2911   19.4403 C   0  0  0  0  0  0
  -29.5132  -12.4767   18.2165 C   0  0  0  0  0  0
  -28.0375  -12.2982   18.6381 C   0  0  0  0  0  0
  -27.6605  -13.1726   19.8636 C   0  0  2  0  0  0
  -28.7104  -12.9946   20.9959 C   0  0  0  0  0  0
  -25.2587  -13.8088   20.5497 C   0  0  0  0  0  0
  -24.1851  -13.0393   20.9147 C   0  0  0  0  0  0
  -24.6404  -11.6888   20.8813 C   0  0  0  0  0  0
  -23.9102  -10.4307   21.0450 C   0  0  0  0  0  0
  -24.3685   -9.4232   21.9197 C   0  0  0  0  0  0
  -23.6350   -8.2289   22.0808 C   0  0  0  0  0  0
  -22.4314   -8.0339   21.3593 C   0  0  0  0  0  0
  -21.9925   -9.0318   20.4675 C   0  0  0  0  0  0
  -22.7286  -10.2176   20.3070 C   0  0  0  0  0  0
  -21.6883   -6.0767   22.5268 C   0  0  0  0  0  0
  -21.4055   -6.5676   23.8197 C   0  0  0  0  0  0
  -21.3634   -5.6824   24.9147 C   0  0  0  0  0  0
  -21.6036   -4.3088   24.7193 C   0  0  0  0  0  0
  -21.8823   -3.8184   23.4311 C   0  0  0  0  0  0
  -21.9223   -4.7002   22.3388 C   0  0  0  0  0  0
  -22.7895  -13.5268   21.1841 C   0  0  0  0  0  0
  -22.1687   -4.2199   21.0971 F   0  0  0  0  0  0
  -21.5580   -3.4566   25.7704 F   0  0  0  0  0  0
  -30.0417  -13.2956   20.4359 N   0  0  0  0  0  0
  -26.3042  -12.9193   20.3287 N   0  0  0  0  0  0
  -25.9345  -11.6407   20.5840 N   0  0  0  0  0  0
  -22.0603  -12.8229   22.0386 N   0  0  0  0  0  0
  -25.4171  -15.1785   20.3776 N   0  0  0  0  0  0
  -31.7979  -14.7585   20.1952 O   0  0  0  0  0  0
  -21.6688   -6.8923   21.4238 O   0  0  0  0  0  0
  -22.3592  -14.5602   20.6705 O   0  0  0  0  0  0
  -24.6158  -31.8700   23.2075 C   0  0  0  0  0  0
  -25.9012  -32.4871   23.8369 C   0  0  1  0  0  0
  -27.2257  -27.4014   20.0898 C   0  0  0  0  0  0
  -25.5877  -33.8631   24.2329 N   0  0  0  0  0  0
  -23.4036  -30.4890   21.5494 C   0  0  2  0  0  0
  -24.8475  -28.9492   20.1153 C   0  0  0  0  0  0
  -22.7400  -29.4650   22.4947 C   0  0  0  0  0  0
  -18.0254  -28.1398   22.8523 C   0  0  0  0  0  0
  -24.1452  -36.7320   23.2618 C   0  0  0  0  0  0
  -25.9359  -30.8243   21.3610 C   0  0  0  0  0  0
  -26.0130  -29.4557   20.7050 C   0  0  0  0  0  0
  -27.2078  -28.6939   20.6732 C   0  0  0  0  0  0
  -26.0296  -26.9085   19.5182 C   0  0  0  0  0  0
  -24.8521  -27.6773   19.5198 C   0  0  0  0  0  0
  -23.6138  -29.8177   20.1640 C   0  0  0  0  0  0
  -25.4115  -36.3168   24.0325 C   0  0  1  0  0  0
  -20.5850  -28.3655   23.1230 C   0  0  2  0  0  0
  -20.6710  -26.9345   22.5366 C   0  0  0  0  0  0
  -19.5632  -26.6238   21.5255 C   0  0  0  0  0  0
  -18.1877  -26.7870   22.1763 C   0  0  0  0  0  0
  -19.1504  -28.8883   23.2832 C   0  0  0  0  0  0
  -18.9433  -30.1533   23.8751 C   0  0  0  0  0  0
  -17.6437  -30.6629   24.0545 C   0  0  0  0  0  0
  -25.9057  -34.9534   23.5140 C   0  0  0  0  0  0
  -16.5336  -29.9054   23.6452 C   0  0  0  0  0  0
  -16.7230  -28.6510   23.0408 C   0  0  0  0  0  0
  -26.4430  -31.6654   25.0712 C   0  0  0  0  0  0
  -25.3716  -31.3733   26.1476 C   0  0  0  0  0  0
  -27.0277  -30.3091   24.6170 C   0  0  0  0  0  0
  -27.6055  -32.4349   25.7461 C   0  0  0  0  0  0
  -27.5601  -37.1815   24.8474 C   0  0  0  0  0  0
  -21.4136  -29.2980   22.3649 N   0  0  0  0  0  0
  -26.4343  -37.3860   23.9410 N   0  0  0  0  0  0
  -24.6708  -31.0784   22.0984 N   0  0  0  0  0  0
  -23.4173  -28.8277   23.3042 O   0  0  0  0  0  0
  -28.4052  -26.6711   20.0655 O   0  0  0  0  0  0
  -26.5620  -34.8986   22.4688 O   0  0  0  0  0  0
  -23.5385  -32.1467   23.7450 O   0  0  0  0  0  0
  -30.1318  -19.1836   20.9352 C   0  0  0  0  0  0
  -30.4723  -17.8459   20.5945 C   0  0  0  0  0  0
  -28.2125  -17.1660   21.1738 C   0  0  0  0  0  0
  -27.8572  -18.4829   21.5021 C   0  0  0  0  0  0
  -28.8422  -19.5156   21.4363 C   0  0  0  0  0  0
  -29.5057  -16.8244   20.7480 C   0  0  0  0  0  0
  -28.3031  -23.4134   21.9732 C   0  0  0  0  0  0
  -28.2730  -20.8286   23.3337 C   0  0  0  0  0  0
  -28.1413  -24.6599   21.4513 C   0  0  0  0  0  0
  -28.1005  -23.2854   23.4706 C   0  0  0  0  0  0
  -28.7168  -22.1008   21.2361 C   0  0  0  0  0  0
  -27.4285  -21.9799   23.8465 C   0  0  0  0  0  0
  -26.4220  -18.6997   21.9886 C   0  0  0  0  0  0
  -28.3765  -25.2173   20.0590 C   0  0  0  0  0  0
  -28.5677  -20.8161   22.0089 N   0  0  0  0  0  0
  -29.6428  -15.4573   20.4011 N   0  0  0  0  0  0
  -28.6327  -19.9510   24.1303 O   0  0  0  0  0  0
  -31.4897  -12.3630   19.1663 H   0  0  0  0  0  0
  -30.3086  -11.2854   19.8497 H   0  0  0  0  0  0
  -29.7718  -11.7579   17.4356 H   0  0  0  0  0  0
  -29.6704  -13.4691   17.7892 H   0  0  0  0  0  0
  -27.9154  -11.2421   18.9100 H   0  0  0  0  0  0
  -27.3622  -12.4842   17.8045 H   0  0  0  0  0  0
  -27.6666  -14.1989   19.4970 H   0  0  0  0  0  0
  -28.6984  -11.9802   21.3956 H   0  0  0  0  0  0
  -28.4881  -13.6458   21.8423 H   0  0  0  0  0  0
  -25.2809   -9.5745   22.4743 H   0  0  0  0  0  0
  -24.0069   -7.4716   22.7534 H   0  0  0  0  0  0
  -21.0849   -8.8844   19.9000 H   0  0  0  0  0  0
  -22.3735  -10.9746   19.6211 H   0  0  0  0  0  0
  -21.2086   -7.6196   23.9687 H   0  0  0  0  0  0
  -21.1413   -6.0574   25.9042 H   0  0  0  0  0  0
  -22.0619   -2.7655   23.2803 H   0  0  0  0  0  0
  -22.4268  -11.9890   22.4741 H   0  0  0  0  0  0
  -21.1290  -13.1271   22.2735 H   0  0  0  0  0  0
  -24.6328  -15.8080   20.4765 H   0  0  0  0  0  0
  -26.2273  -15.6346   19.9768 H   0  0  0  0  0  0
  -26.7077  -32.5538   23.1120 H   0  0  0  0  0  0
  -25.0025  -33.9829   25.0471 H   0  0  0  0  0  0
  -22.6932  -31.3061   21.4101 H   0  0  0  0  0  0
  -23.3795  -35.9585   23.3335 H   0  0  0  0  0  0
  -24.3526  -36.8872   22.2029 H   0  0  0  0  0  0
  -23.7139  -37.6500   23.6606 H   0  0  0  0  0  0
  -26.0619  -31.5952   20.5988 H   0  0  0  0  0  0
  -26.8204  -30.8664   21.9869 H   0  0  0  0  0  0
  -28.1203  -29.0937   21.0959 H   0  0  0  0  0  0
  -25.9714  -25.9352   19.0542 H   0  0  0  0  0  0
  -23.9534  -27.2860   19.0667 H   0  0  0  0  0  0
  -23.7124  -30.5947   19.4041 H   0  0  0  0  0  0
  -22.7341  -29.2421   19.8710 H   0  0  0  0  0  0
  -25.1291  -36.2056   25.0845 H   0  0  0  0  0  0
  -21.0001  -28.3224   24.1297 H   0  0  0  0  0  0
  -20.5669  -26.2274   23.3618 H   0  0  0  0  0  0
  -21.6567  -26.7286   22.1193 H   0  0  0  0  0  0
  -19.6711  -25.6070   21.1497 H   0  0  0  0  0  0
  -19.6583  -27.2867   20.6652 H   0  0  0  0  0  0
  -17.4062  -26.6444   21.4282 H   0  0  0  0  0  0
  -18.0380  -26.0136   22.9317 H   0  0  0  0  0  0
  -19.7923  -30.7432   24.1884 H   0  0  0  0  0  0
  -17.4969  -31.6301   24.5135 H   0  0  0  0  0  0
  -15.5326  -30.2854   23.7901 H   0  0  0  0  0  0
  -15.8632  -28.0834   22.7077 H   0  0  0  0  0  0
  -24.5906  -30.7084   25.7769 H   0  0  0  0  0  0
  -24.8898  -32.2879   26.4955 H   0  0  0  0  0  0
  -25.8089  -30.8863   27.0203 H   0  0  0  0  0  0
  -26.2852  -29.6828   24.1244 H   0  0  0  0  0  0
  -27.3994  -29.7388   25.4676 H   0  0  0  0  0  0
  -27.8709  -30.4359   23.9398 H   0  0  0  0  0  0
  -27.2739  -33.3638   26.2114 H   0  0  0  0  0  0
  -28.3849  -32.6893   25.0267 H   0  0  0  0  0  0
  -28.0768  -31.8406   26.5311 H   0  0  0  0  0  0
  -28.2672  -38.0053   24.7573 H   0  0  0  0  0  0
  -28.1049  -36.2616   24.6298 H   0  0  0  0  0  0
  -27.2318  -37.1485   25.8868 H   0  0  0  0  0  0
  -20.9347  -29.8630   21.6791 H   0  0  0  0  0  0
  -26.0243  -38.2939   24.1448 H   0  0  0  0  0  0
  -30.8714  -19.9612   20.8388 H   0  0  0  0  0  0
  -31.4540  -17.6155   20.2031 H   0  0  0  0  0  0
  -27.4570  -16.4013   21.2902 H   0  0  0  0  0  0
  -27.8334  -25.4366   22.1309 H   0  0  0  0  0  0
  -27.5120  -24.1159   23.8659 H   0  0  0  0  0  0
  -29.0753  -23.3464   23.9554 H   0  0  0  0  0  0
  -29.7655  -22.1882   20.9484 H   0  0  0  0  0  0
  -28.1380  -22.0393   20.3140 H   0  0  0  0  0  0
  -27.3001  -21.8954   24.9244 H   0  0  0  0  0  0
  -26.4375  -21.9017   23.3937 H   0  0  0  0  0  0
  -25.7364  -17.9844   21.5327 H   0  0  0  0  0  0
  -26.0358  -19.6921   21.7557 H   0  0  0  0  0  0
  -26.3829  -18.5424   23.0681 H   0  0  0  0  0  0
  -27.6703  -24.7927   19.3488 H   0  0  0  0  0  0
  -29.3572  -24.8767   19.7211 H   0  0  0  0  0  0
  -28.7539  -14.9864   20.3489 H   0  0  0  0  0  0
  1 25  1  0  0  0
  1 30  2  0  0  0
  1 86  1  0  0  0
  2  3  1  0  0  0
  2 25  1  0  0  0
  2 88  1  0  0  0
  2 89  1  0  0  0
  3  4  1  0  0  0
  3 90  1  0  0  0
  3 91  1  0  0  0
  4  5  1  0  0  0
  4 92  1  0  0  0
  4 93  1  0  0  0
  5  6  1  0  0  0
  5 26  1  0  0  0
  5 94  1  0  0  0
  6 25  1  0  0  0
  6 95  1  0  0  0
  6 96  1  0  0  0
  7  8  2  0  0  0
  7 26  1  0  0  0
  7 29  1  0  0  0
  8  9  1  0  0  0
  8 22  1  0  0  0
  9 10  1  0  0  0
  9 27  2  0  0  0
 10 11  2  0  0  0
 10 15  1  0  0  0
 11 12  1  0  0  0
 11 97  1  0  0  0
 12 13  2  0  0  0
 12 98  1  0  0  0
 13 14  1  0  0  0
 13 31  1  0  0  0
 14 15  2  0  0  0
 14 99  1  0  0  0
 15100  1  0  0  0
 16 17  2  0  0  0
 16 21  1  0  0  0
 16 31  1  0  0  0
 17 18  1  0  0  0
 17101  1  0  0  0
 18 19  2  0  0  0
 18102  1  0  0  0
 19 20  1  0  0  0
 19 24  1  0  0  0
 20 21  2  0  0  0
 20103  1  0  0  0
 21 23  1  0  0  0
 22 28  1  0  0  0
 22 32  2  0  0  0
 26 27  1  0  0  0
 28104  1  0  0  0
 28105  1  0  0  0
 29106  1  0  0  0
 29107  1  0  0  0
 33 34  1  0  0  0
 33 66  1  0  0  0
 33 70  2  0  0  0
 34 36  1  0  0  0
 34 59  1  0  0  0
 34108  1  0  0  0
 35 44  2  0  0  0
 35 45  1  0  0  0
 35 68  1  0  0  0
 36 56  1  0  0  0
 36109  1  0  0  0
 37 39  1  0  0  0
 37 47  1  0  0  0
 37 66  1  0  0  0
 37110  1  0  0  0
 38 43  2  0  0  0
 38 46  1  0  0  0
 38 47  1  0  0  0
 39 64  1  0  0  0
 39 67  2  0  0  0
 40 52  1  0  0  0
 40 53  2  0  0  0
 40 58  1  0  0  0
 41111  1  0  0  0
 41112  1  0  0  0
 41113  1  0  0  0
 41 48  1  0  0  0
 42 43  1  0  0  0
 42 66  1  0  0  0
 42114  1  0  0  0
 42115  1  0  0  0
 43 44  1  0  0  0
 44116  1  0  0  0
 45 46  2  0  0  0
 45117  1  0  0  0
 46118  1  0  0  0
 47119  1  0  0  0
 47120  1  0  0  0
 48 56  1  0  0  0
 48 65  1  0  0  0
 48121  1  0  0  0
 49 50  1  0  0  0
 49 53  1  0  0  0
 49 64  1  0  0  0
 49122  1  0  0  0
 50 51  1  0  0  0
 50123  1  0  0  0
 50124  1  0  0  0
 51 52  1  0  0  0
 51125  1  0  0  0
 51126  1  0  0  0
 52127  1  0  0  0
 52128  1  0  0  0
 53 54  1  0  0  0
 54 55  2  0  0  0
 54129  1  0  0  0
 55 57  1  0  0  0
 55130  1  0  0  0
 56 69  2  0  0  0
 57 58  2  0  0  0
 57131  1  0  0  0
 58132  1  0  0  0
 59 60  1  0  0  0
 59 61  1  0  0  0
 59 62  1  0  0  0
 60133  1  0  0  0
 60134  1  0  0  0
 60135  1  0  0  0
 61136  1  0  0  0
 61137  1  0  0  0
 61138  1  0  0  0
 62139  1  0  0  0
 62140  1  0  0  0
 62141  1  0  0  0
 63 65  1  0  0  0
 63142  1  0  0  0
 63143  1  0  0  0
 63144  1  0  0  0
 64145  1  0  0  0
 65146  1  0  0  0
 68 84  1  0  0  0
 71 72  2  0  0  0
 71 75  1  0  0  0
 71147  1  0  0  0
 72 76  1  0  0  0
 72148  1  0  0  0
 73 74  1  0  0  0
 73 76  2  0  0  0
 73149  1  0  0  0
 74 75  2  0  0  0
 74 83  1  0  0  0
 75 85  1  0  0  0
 76 86  1  0  0  0
 77 79  2  0  0  0
 77 80  1  0  0  0
 77 81  1  0  0  0
 78 82  1  0  0  0
 78 85  1  0  0  0
 78 87  2  0  0  0
 79 84  1  0  0  0
 79150  1  0  0  0
 80 82  1  0  0  0
 80151  1  0  0  0
 80152  1  0  0  0
 81 85  1  0  0  0
 81153  1  0  0  0
 81154  1  0  0  0
 82155  1  0  0  0
 82156  1  0  0  0
 83157  1  0  0  0
 83158  1  0  0  0
 83159  1  0  0  0
 84160  1  0  0  0
 84161  1  0  0  0
 86162  1  0  0  0
M  ISO  4   1 100  68 101  84 101  86 100
M  END
> <chiral flag>
0

> <version>
0

> <s_m_source_file>
/data/baiqing/PycharmProjects/Reinvent-master-3.2/result/LINK_invent/BTK/process_docking_weight1_custom_product_contain_oxygen_bond_distance_aromatic_linkinvent_7_9_3/rearranged_h_0053.sdf

> <i_m_source_file_index>
77

> <r_mmod_Potential_Energy-OPLS-2005>
153.376861572266

> <r_mmod_Stretch_Energy-OPLS-2005>
53.0401077270508

> <r_mmod_Bend_Energy-OPLS-2005>
153.033126831055

> <r_mmod_Torsional_Energy-OPLS-2005>
314.295379638672

> <r_mmod_Improper_Torsional_Energy-OPLS-2005>
14.1371612548828

> <r_mmod_Van_der_Waal_Energy-OPLS-2005>
168.920196533203

> <r_mmod_Electrostatic_Energy-OPLS-2005>
-357.941192626953

> <r_mmod_Solvation_Energy-OPLS-2005>
-217.744598388672

> <b_mmod_Minimization_Converged-OPLS-2005>
0

> <r_mmod_RMS_Derivative-OPLS-2005>
9.44479274749756

$$$$
77
                    3D
 Structure written by MMmdl.
157165  0  0  1  0            999 V2000
  -30.7621  -14.4057   20.6270 C   0  0  0  0  0  0
  -30.4065  -12.2932   19.4060 C   0  0  0  0  0  0
  -29.4822  -12.5283   18.1966 C   0  0  0  0  0  0
  -28.0051  -12.3963   18.6100 C   0  0  0  0  0  0
  -27.6646  -13.2139   19.8842 C   0  0  2  0  0  0
  -28.7070  -12.9782   21.0007 C   0  0  0  0  0  0
  -25.2597  -13.8189   20.5705 C   0  0  0  0  0  0
  -24.1841  -13.0452   20.9172 C   0  0  0  0  0  0
  -24.6408  -11.6916   20.8722 C   0  0  0  0  0  0
  -23.9067  -10.4298   21.0399 C   0  0  0  0  0  0
  -24.3623   -9.4211   21.9177 C   0  0  0  0  0  0
  -23.6298   -8.2248   22.0748 C   0  0  0  0  0  0
  -22.4279   -8.0289   21.3543 C   0  0  0  0  0  0
  -21.9912   -9.0259   20.4647 C   0  0  0  0  0  0
  -22.7240  -10.2141   20.3053 C   0  0  0  0  0  0
  -21.6857   -6.0741   22.5275 C   0  0  0  0  0  0
  -21.4020   -6.5647   23.8210 C   0  0  0  0  0  0
  -21.3660   -5.6799   24.9171 C   0  0  0  0  0  0
  -21.6048   -4.3061   24.7222 C   0  0  0  0  0  0
  -21.8815   -3.8153   23.4345 C   0  0  0  0  0  0
  -21.9195   -4.6967   22.3402 C   0  0  0  0  0  0
  -22.7867  -13.5235   21.1825 C   0  0  0  0  0  0
  -22.1662   -4.2157   21.0981 F   0  0  0  0  0  0
  -21.5625   -3.4544   25.7736 F   0  0  0  0  0  0
  -30.0407  -13.2661   20.4501 N   0  0  0  0  0  0
  -26.3045  -12.9366   20.3437 N   0  0  0  0  0  0
  -25.9347  -11.6509   20.5791 N   0  0  0  0  0  0
  -22.0518  -12.8231   22.0403 N   0  0  0  0  0  0
  -25.4318  -15.1908   20.4133 N   0  0  0  0  0  0
  -31.8347  -14.6036   20.0503 O   0  0  0  0  0  0
  -21.6643   -6.8891   21.4242 O   0  0  0  0  0  0
  -22.3550  -14.5542   20.6681 O   0  0  0  0  0  0
  -24.6127  -31.8670   23.2124 C   0  0  0  0  0  0
  -25.9026  -32.4815   23.8391 C   0  0  1  0  0  0
  -27.2301  -27.4425   20.0892 C   0  0  0  0  0  0
  -25.5899  -33.8622   24.2337 N   0  0  0  0  0  0
  -23.4005  -30.4947   21.5508 C   0  0  2  0  0  0
  -24.8463  -28.9730   20.1067 C   0  0  0  0  0  0
  -22.7388  -29.4663   22.4981 C   0  0  0  0  0  0
  -18.0266  -28.1390   22.8485 C   0  0  0  0  0  0
  -24.1474  -36.7277   23.2642 C   0  0  0  0  0  0
  -25.9301  -30.8383   21.3644 C   0  0  0  0  0  0
  -26.0076  -29.4759   20.7078 C   0  0  0  0  0  0
  -27.2025  -28.7205   20.6936 C   0  0  0  0  0  0
  -26.0496  -26.9648   19.4688 C   0  0  0  0  0  0
  -24.8639  -27.7171   19.4839 C   0  0  0  0  0  0
  -23.6053  -29.8324   20.1623 C   0  0  0  0  0  0
  -25.4096  -36.3110   24.0343 C   0  0  1  0  0  0
  -20.5855  -28.3665   23.1322 C   0  0  2  0  0  0
  -20.6756  -26.9399   22.5446 C   0  0  0  0  0  0
  -19.5753  -26.6391   21.5220 C   0  0  0  0  0  0
  -18.1912  -26.7939   22.1612 C   0  0  0  0  0  0
  -19.1510  -28.8838   23.2902 C   0  0  0  0  0  0
  -18.9452  -30.1441   23.8913 C   0  0  0  0  0  0
  -17.6459  -30.6601   24.0559 C   0  0  0  0  0  0
  -25.9035  -34.9479   23.5140 C   0  0  0  0  0  0
  -16.5340  -29.9105   23.6321 C   0  0  0  0  0  0
  -16.7254  -28.6530   23.0337 C   0  0  0  0  0  0
  -26.4482  -31.6570   25.0702 C   0  0  0  0  0  0
  -25.3740  -31.3648   26.1439 C   0  0  0  0  0  0
  -27.0300  -30.3022   24.6068 C   0  0  0  0  0  0
  -27.6065  -32.4275   25.7465 C   0  0  0  0  0  0
  -27.5562  -37.1788   24.8483 C   0  0  0  0  0  0
  -21.4117  -29.3021   22.3709 N   0  0  0  0  0  0
  -26.4276  -37.3793   23.9431 N   0  0  0  0  0  0
  -24.6664  -31.0796   22.1012 N   0  0  0  0  0  0
  -23.4163  -28.8197   23.3011 O   0  0  0  0  0  0
  -28.3927  -26.6923   20.1319 O   0  0  0  0  0  0
  -26.5603  -34.8928   22.4704 O   0  0  0  0  0  0
  -23.5321  -32.1432   23.7535 O   0  0  0  0  0  0
  -30.1336  -17.8982   23.7377 C   0  0  0  0  0  0
  -29.4966  -19.0249   24.2929 C   0  0  0  0  0  0
  -29.5127  -18.6560   21.5042 C   0  0  0  0  0  0
  -30.1603  -17.7154   22.3404 C   0  0  0  0  0  0
  -28.8812  -19.7969   22.0553 C   0  0  0  0  0  0
  -28.8795  -19.9749   23.4575 C   0  0  0  0  0  0
  -29.1118  -22.9242   20.2123 C   0  0  0  0  0  0
  -30.9790  -16.5756   21.7469 C   0  0  0  0  0  0
  -28.1685  -20.7978   21.1482 C   0  0  0  0  0  0
  -29.3909  -24.4136   20.4781 C   0  0  0  0  0  0
  -28.2426  -25.2789   19.9234 C   0  0  0  0  0  0
  -28.6689  -22.1748   21.2347 N   0  0  0  0  0  0
  -30.2485  -15.3419   21.4422 N   0  0  0  0  0  0
  -29.2680  -22.4676   19.0773 O   0  0  0  0  0  0
  -28.2807  -21.0594   24.0083 F   0  0  0  0  0  0
  -31.4523  -12.3698   19.1014 H   0  0  0  0  0  0
  -30.2875  -11.2765   19.7841 H   0  0  0  0  0  0
  -29.7123  -11.8226   17.3980 H   0  0  0  0  0  0
  -29.6614  -13.5237   17.7858 H   0  0  0  0  0  0
  -27.7954  -11.3396   18.7762 H   0  0  0  0  0  0
  -27.3588  -12.7084   17.7895 H   0  0  0  0  0  0
  -27.7158  -14.2674   19.6091 H   0  0  0  0  0  0
  -28.6748  -11.9395   21.3353 H   0  0  0  0  0  0
  -28.4743  -13.5750   21.8828 H   0  0  0  0  0  0
  -25.2771   -9.5689   22.4744 H   0  0  0  0  0  0
  -24.0009   -7.4643   22.7463 H   0  0  0  0  0  0
  -21.0841   -8.8781   19.8961 H   0  0  0  0  0  0
  -22.3694  -10.9680   19.6162 H   0  0  0  0  0  0
  -21.2011   -7.6157   23.9715 H   0  0  0  0  0  0
  -21.1487   -6.0532   25.9076 H   0  0  0  0  0  0
  -22.0597   -2.7617   23.2842 H   0  0  0  0  0  0
  -22.4138  -11.9896   22.4784 H   0  0  0  0  0  0
  -21.1148  -13.1266   22.2619 H   0  0  0  0  0  0
  -24.6667  -15.8485   20.5176 H   0  0  0  0  0  0
  -26.2972  -15.6324   20.1270 H   0  0  0  0  0  0
  -26.7089  -32.5529   23.1148 H   0  0  0  0  0  0
  -25.0042  -33.9792   25.0479 H   0  0  0  0  0  0
  -22.6902  -31.3129   21.4147 H   0  0  0  0  0  0
  -23.3755  -35.9594   23.3327 H   0  0  0  0  0  0
  -24.3562  -36.8857   22.2056 H   0  0  0  0  0  0
  -23.7212  -37.6475   23.6631 H   0  0  0  0  0  0
  -26.0458  -31.6110   20.6022 H   0  0  0  0  0  0
  -26.8177  -30.8873   21.9835 H   0  0  0  0  0  0
  -28.0980  -29.1053   21.1629 H   0  0  0  0  0  0
  -26.0185  -26.0100   18.9627 H   0  0  0  0  0  0
  -23.9748  -27.3280   19.0079 H   0  0  0  0  0  0
  -23.7052  -30.6104   19.4037 H   0  0  0  0  0  0
  -22.7339  -29.2440   19.8696 H   0  0  0  0  0  0
  -25.1277  -36.1964   25.0832 H   0  0  0  0  0  0
  -20.9945  -28.3247   24.1447 H   0  0  0  0  0  0
  -20.5630  -26.2264   23.3625 H   0  0  0  0  0  0
  -21.6622  -26.7436   22.1245 H   0  0  0  0  0  0
  -19.6913  -25.6310   21.1233 H   0  0  0  0  0  0
  -19.6709  -27.3206   20.6762 H   0  0  0  0  0  0
  -17.4184  -26.6667   21.4022 H   0  0  0  0  0  0
  -18.0313  -26.0089   22.9022 H   0  0  0  0  0  0
  -19.7928  -30.7246   24.2281 H   0  0  0  0  0  0
  -17.5028  -31.6277   24.5161 H   0  0  0  0  0  0
  -15.5352  -30.3025   23.7651 H   0  0  0  0  0  0
  -15.8647  -28.0875   22.7034 H   0  0  0  0  0  0
  -24.6011  -30.6875   25.7782 H   0  0  0  0  0  0
  -24.8805  -32.2776   26.4794 H   0  0  0  0  0  0
  -25.8122  -30.8919   27.0235 H   0  0  0  0  0  0
  -26.2838  -29.6787   24.1133 H   0  0  0  0  0  0
  -27.4091  -29.7251   25.4502 H   0  0  0  0  0  0
  -27.8663  -30.4340   23.9201 H   0  0  0  0  0  0
  -27.2730  -33.3639   26.1948 H   0  0  0  0  0  0
  -28.3926  -32.6704   25.0308 H   0  0  0  0  0  0
  -28.0639  -31.8416   26.5438 H   0  0  0  0  0  0
  -28.2595  -38.0067   24.7517 H   0  0  0  0  0  0
  -28.1033  -36.2598   24.6327 H   0  0  0  0  0  0
  -27.2266  -37.1461   25.8879 H   0  0  0  0  0  0
  -20.9267  -29.8747   21.6946 H   0  0  0  0  0  0
  -26.0160  -38.2859   24.1457 H   0  0  0  0  0  0
  -30.6299  -17.1931   24.3900 H   0  0  0  0  0  0
  -29.4927  -19.1718   25.3636 H   0  0  0  0  0  0
  -29.5276  -18.5148   20.4320 H   0  0  0  0  0  0
  -31.7921  -16.3296   22.4320 H   0  0  0  0  0  0
  -31.4601  -16.9619   20.8466 H   0  0  0  0  0  0
  -27.1195  -20.8123   21.4454 H   0  0  0  0  0  0
  -28.1762  -20.4310   20.1207 H   0  0  0  0  0  0
  -29.5229  -24.5904   21.5459 H   0  0  0  0  0  0
  -30.3289  -24.6853   19.9943 H   0  0  0  0  0  0
  -27.3309  -24.9312   20.4156 H   0  0  0  0  0  0
  -28.1353  -25.0959   18.8537 H   0  0  0  0  0  0
  -28.5708  -22.6232   22.1349 H   0  0  0  0  0  0
  -29.3605  -15.1747   21.8889 H   0  0  0  0  0  0
  1 25  1  0  0  0
  1 30  2  0  0  0
  1 83  1  0  0  0
  2  3  1  0  0  0
  2 25  1  0  0  0
  2 86  1  0  0  0
  2 87  1  0  0  0
  3  4  1  0  0  0
  3 88  1  0  0  0
  3 89  1  0  0  0
  4  5  1  0  0  0
  4 90  1  0  0  0
  4 91  1  0  0  0
  5  6  1  0  0  0
  5 26  1  0  0  0
  5 92  1  0  0  0
  6 25  1  0  0  0
  6 93  1  0  0  0
  6 94  1  0  0  0
  7  8  2  0  0  0
  7 26  1  0  0  0
  7 29  1  0  0  0
  8  9  1  0  0  0
  8 22  1  0  0  0
  9 10  1  0  0  0
  9 27  2  0  0  0
 10 11  2  0  0  0
 10 15  1  0  0  0
 11 12  1  0  0  0
 11 95  1  0  0  0
 12 13  2  0  0  0
 12 96  1  0  0  0
 13 14  1  0  0  0
 13 31  1  0  0  0
 14 15  2  0  0  0
 14 97  1  0  0  0
 15 98  1  0  0  0
 16 17  2  0  0  0
 16 21  1  0  0  0
 16 31  1  0  0  0
 17 18  1  0  0  0
 17 99  1  0  0  0
 18 19  2  0  0  0
 18100  1  0  0  0
 19 20  1  0  0  0
 19 24  1  0  0  0
 20 21  2  0  0  0
 20101  1  0  0  0
 21 23  1  0  0  0
 22 28  1  0  0  0
 22 32  2  0  0  0
 26 27  1  0  0  0
 28102  1  0  0  0
 28103  1  0  0  0
 29104  1  0  0  0
 29105  1  0  0  0
 33 34  1  0  0  0
 33 66  1  0  0  0
 33 70  2  0  0  0
 34 36  1  0  0  0
 34 59  1  0  0  0
 34106  1  0  0  0
 35 44  2  0  0  0
 35 45  1  0  0  0
 35 68  1  0  0  0
 36 56  1  0  0  0
 36107  1  0  0  0
 37 39  1  0  0  0
 37 47  1  0  0  0
 37 66  1  0  0  0
 37108  1  0  0  0
 38 43  2  0  0  0
 38 46  1  0  0  0
 38 47  1  0  0  0
 39 64  1  0  0  0
 39 67  2  0  0  0
 40 52  1  0  0  0
 40 53  2  0  0  0
 40 58  1  0  0  0
 41109  1  0  0  0
 41110  1  0  0  0
 41111  1  0  0  0
 41 48  1  0  0  0
 42 43  1  0  0  0
 42 66  1  0  0  0
 42112  1  0  0  0
 42113  1  0  0  0
 43 44  1  0  0  0
 44114  1  0  0  0
 45 46  2  0  0  0
 45115  1  0  0  0
 46116  1  0  0  0
 47117  1  0  0  0
 47118  1  0  0  0
 48 56  1  0  0  0
 48 65  1  0  0  0
 48119  1  0  0  0
 49 50  1  0  0  0
 49 53  1  0  0  0
 49 64  1  0  0  0
 49120  1  0  0  0
 50 51  1  0  0  0
 50121  1  0  0  0
 50122  1  0  0  0
 51 52  1  0  0  0
 51123  1  0  0  0
 51124  1  0  0  0
 52125  1  0  0  0
 52126  1  0  0  0
 53 54  1  0  0  0
 54 55  2  0  0  0
 54127  1  0  0  0
 55 57  1  0  0  0
 55128  1  0  0  0
 56 69  2  0  0  0
 57 58  2  0  0  0
 57129  1  0  0  0
 58130  1  0  0  0
 59 60  1  0  0  0
 59 61  1  0  0  0
 59 62  1  0  0  0
 60131  1  0  0  0
 60132  1  0  0  0
 60133  1  0  0  0
 61134  1  0  0  0
 61135  1  0  0  0
 61136  1  0  0  0
 62137  1  0  0  0
 62138  1  0  0  0
 62139  1  0  0  0
 63 65  1  0  0  0
 63140  1  0  0  0
 63141  1  0  0  0
 63142  1  0  0  0
 64143  1  0  0  0
 65144  1  0  0  0
 68 81  1  0  0  0
 71 72  2  0  0  0
 71 74  1  0  0  0
 71145  1  0  0  0
 72 76  1  0  0  0
 72146  1  0  0  0
 73 74  2  0  0  0
 73 75  1  0  0  0
 73147  1  0  0  0
 74 78  1  0  0  0
 75 76  2  0  0  0
 75 79  1  0  0  0
 76 85  1  0  0  0
 77 80  1  0  0  0
 77 82  1  0  0  0
 77 84  2  0  0  0
 78 83  1  0  0  0
 78148  1  0  0  0
 78149  1  0  0  0
 79 82  1  0  0  0
 79150  1  0  0  0
 79151  1  0  0  0
 80 81  1  0  0  0
 80152  1  0  0  0
 80153  1  0  0  0
 81154  1  0  0  0
 81155  1  0  0  0
 82156  1  0  0  0
 83157  1  0  0  0
M  ISO  4   1 100  68 101  81 101  83 100
M  END
> <chiral flag>
0

> <version>
0

> <s_m_source_file>
/data/baiqing/PycharmProjects/Reinvent-master-3.2/result/LINK_invent/BTK/process_docking_weight1_custom_product_contain_oxygen_bond_distance_aromatic_linkinvent_7_9_3/rearranged_h_0053.sdf

> <i_m_source_file_index>
78

> <r_mmod_Potential_Energy-OPLS-2005>
-194.088912963867

> <r_mmod_Stretch_Energy-OPLS-2005>
34.8977584838867

> <r_mmod_Bend_Energy-OPLS-2005>
91.2675933837891

> <r_mmod_Torsional_Energy-OPLS-2005>
202.853668212891

> <r_mmod_Improper_Torsional_Energy-OPLS-2005>
2.30165910720825

> <r_mmod_Van_der_Waal_Energy-OPLS-2005>
162.294845581055

> <r_mmod_Electrostatic_Energy-OPLS-2005>
-472.297973632812

> <r_mmod_Solvation_Energy-OPLS-2005>
-225.823287963867

> <b_mmod_Minimization_Converged-OPLS-2005>
0

> <r_mmod_RMS_Derivative-OPLS-2005>
3.04466605186462

$$$$
78
                    3D
 Structure written by MMmdl.
160168  0  0  1  0            999 V2000
  -30.7591  -14.4123   20.6357 C   0  0  0  0  0  0
  -30.4166  -12.2941   19.4169 C   0  0  0  0  0  0
  -29.4914  -12.5177   18.2048 C   0  0  0  0  0  0
  -28.0140  -12.3778   18.6180 C   0  0  0  0  0  0
  -27.6677  -13.2074   19.8829 C   0  0  2  0  0  0
  -28.7078  -12.9734   21.0029 C   0  0  0  0  0  0
  -25.2609  -13.8171   20.5693 C   0  0  0  0  0  0
  -24.1852  -13.0447   20.9179 C   0  0  0  0  0  0
  -24.6397  -11.6910   20.8740 C   0  0  0  0  0  0
  -23.9059  -10.4298   21.0402 C   0  0  0  0  0  0
  -24.3609   -9.4215   21.9181 C   0  0  0  0  0  0
  -23.6288   -8.2249   22.0753 C   0  0  0  0  0  0
  -22.4273   -8.0282   21.3542 C   0  0  0  0  0  0
  -21.9905   -9.0259   20.4646 C   0  0  0  0  0  0
  -22.7231  -10.2140   20.3052 C   0  0  0  0  0  0
  -21.6857   -6.0730   22.5274 C   0  0  0  0  0  0
  -21.4010   -6.5634   23.8206 C   0  0  0  0  0  0
  -21.3663   -5.6788   24.9174 C   0  0  0  0  0  0
  -21.6049   -4.3051   24.7226 C   0  0  0  0  0  0
  -21.8820   -3.8143   23.4347 C   0  0  0  0  0  0
  -21.9191   -4.6956   22.3403 C   0  0  0  0  0  0
  -22.7871  -13.5247   21.1839 C   0  0  0  0  0  0
  -22.1663   -4.2140   21.0981 F   0  0  0  0  0  0
  -21.5636   -3.4539   25.7742 F   0  0  0  0  0  0
  -30.0480  -13.2654   20.4602 N   0  0  0  0  0  0
  -26.3059  -12.9341   20.3410 N   0  0  0  0  0  0
  -25.9333  -11.6499   20.5779 N   0  0  0  0  0  0
  -22.0503  -12.8241   22.0386 N   0  0  0  0  0  0
  -25.4334  -15.1888   20.4110 N   0  0  0  0  0  0
  -31.8213  -14.6210   20.0433 O   0  0  0  0  0  0
  -21.6643   -6.8874   21.4234 O   0  0  0  0  0  0
  -22.3566  -14.5561   20.6691 O   0  0  0  0  0  0
  -24.6107  -31.8702   23.2105 C   0  0  0  0  0  0
  -25.9006  -32.4841   23.8405 C   0  0  1  0  0  0
  -27.2516  -27.4585   20.1124 C   0  0  0  0  0  0
  -25.5874  -33.8632   24.2340 N   0  0  0  0  0  0
  -23.4017  -30.4921   21.5464 C   0  0  2  0  0  0
  -24.8557  -28.9567   20.1162 C   0  0  0  0  0  0
  -22.7398  -29.4677   22.4959 C   0  0  0  0  0  0
  -18.0291  -28.1419   22.8508 C   0  0  0  0  0  0
  -24.1479  -36.7325   23.2642 C   0  0  0  0  0  0
  -25.9249  -30.8442   21.3599 C   0  0  0  0  0  0
  -26.0085  -29.4757   20.7201 C   0  0  0  0  0  0
  -27.2071  -28.7318   20.7250 C   0  0  0  0  0  0
  -26.0906  -26.9555   19.4903 C   0  0  0  0  0  0
  -24.8897  -27.6931   19.5000 C   0  0  0  0  0  0
  -23.6160  -29.8216   20.1616 C   0  0  0  0  0  0
  -25.4104  -36.3125   24.0342 C   0  0  1  0  0  0
  -20.5877  -28.3698   23.1331 C   0  0  2  0  0  0
  -20.6774  -26.9437   22.5419 C   0  0  0  0  0  0
  -19.5745  -26.6417   21.5226 C   0  0  0  0  0  0
  -18.1934  -26.7962   22.1654 C   0  0  0  0  0  0
  -19.1534  -28.8875   23.2921 C   0  0  0  0  0  0
  -18.9464  -30.1484   23.8936 C   0  0  0  0  0  0
  -17.6460  -30.6609   24.0603 C   0  0  0  0  0  0
  -25.9026  -34.9486   23.5143 C   0  0  0  0  0  0
  -16.5359  -29.9118   23.6347 C   0  0  0  0  0  0
  -16.7282  -28.6545   23.0356 C   0  0  0  0  0  0
  -26.4461  -31.6609   25.0706 C   0  0  0  0  0  0
  -25.3732  -31.3693   26.1454 C   0  0  0  0  0  0
  -27.0274  -30.3051   24.6044 C   0  0  0  0  0  0
  -27.6049  -32.4315   25.7472 C   0  0  0  0  0  0
  -27.5584  -37.1832   24.8473 C   0  0  0  0  0  0
  -21.4128  -29.3050   22.3701 N   0  0  0  0  0  0
  -26.4299  -37.3801   23.9405 N   0  0  0  0  0  0
  -24.6640  -31.0833   22.0988 N   0  0  0  0  0  0
  -23.4159  -28.8222   23.3006 O   0  0  0  0  0  0
  -28.3906  -26.6865   20.1052 O   0  0  0  0  0  0
  -26.5587  -34.8927   22.4702 O   0  0  0  0  0  0
  -23.5300  -32.1440   23.7503 O   0  0  0  0  0  0
  -32.2332  -18.5052   21.7393 C   0  0  0  0  0  0
  -31.9193  -17.1486   21.5254 C   0  0  0  0  0  0
  -29.6020  -17.6057   22.0768 C   0  0  0  0  0  0
  -31.2438  -19.4366   22.1315 C   0  0  0  0  0  0
  -29.9084  -18.9717   22.3077 C   0  0  0  0  0  0
  -30.5922  -16.6810   21.6737 C   0  0  0  0  0  0
  -30.0980  -24.2112   22.0401 C   0  0  0  0  0  0
  -30.0342  -25.3811   21.3741 C   0  0  0  0  0  0
  -31.6767  -20.8314   22.3713 C   0  0  0  0  0  0
  -28.7782  -19.8877   22.7627 C   0  0  0  0  0  0
  -31.3283  -23.3208   22.0830 C   0  0  0  0  0  0
  -28.8567  -26.3407   21.4107 C   0  0  0  0  0  0
  -32.8109  -21.0431   23.0411 N   0  0  0  0  0  0
  -30.2085  -15.3197   21.4646 N   0  0  0  0  0  0
  -30.9743  -21.8931   21.9312 N   0  3  0  0  0  0
  -31.4621  -12.3736   19.1146 H   0  0  0  0  0  0
  -30.3013  -11.2793   19.8024 H   0  0  0  0  0  0
  -29.7279  -11.8041   17.4142 H   0  0  0  0  0  0
  -29.6635  -13.5093   17.7823 H   0  0  0  0  0  0
  -27.8207  -11.3207   18.8042 H   0  0  0  0  0  0
  -27.3622  -12.6649   17.7917 H   0  0  0  0  0  0
  -27.7181  -14.2589   19.5998 H   0  0  0  0  0  0
  -28.6743  -11.9353   21.3371 H   0  0  0  0  0  0
  -28.4612  -13.5651   21.8847 H   0  0  0  0  0  0
  -25.2757   -9.5695   22.4755 H   0  0  0  0  0  0
  -24.0001   -7.4643   22.7472 H   0  0  0  0  0  0
  -21.0838   -8.8780   19.8955 H   0  0  0  0  0  0
  -22.3691  -10.9677   19.6163 H   0  0  0  0  0  0
  -21.1992   -7.6139   23.9703 H   0  0  0  0  0  0
  -21.1490   -6.0523   25.9074 H   0  0  0  0  0  0
  -22.0592   -2.7601   23.2855 H   0  0  0  0  0  0
  -22.4110  -11.9903   22.4784 H   0  0  0  0  0  0
  -21.1118  -13.1275   22.2579 H   0  0  0  0  0  0
  -24.6665  -15.8441   20.5155 H   0  0  0  0  0  0
  -26.2869  -15.6252   20.0858 H   0  0  0  0  0  0
  -26.7080  -32.5591   23.1189 H   0  0  0  0  0  0
  -25.0002  -33.9790   25.0471 H   0  0  0  0  0  0
  -22.6917  -31.3098   21.4032 H   0  0  0  0  0  0
  -23.3721  -35.9684   23.3340 H   0  0  0  0  0  0
  -24.3568  -36.8884   22.2047 H   0  0  0  0  0  0
  -23.7248  -37.6554   23.6616 H   0  0  0  0  0  0
  -26.0213  -31.6029   20.5822 H   0  0  0  0  0  0
  -26.8181  -30.9122   21.9682 H   0  0  0  0  0  0
  -28.0933  -29.1389   21.1931 H   0  0  0  0  0  0
  -26.1132  -25.9866   19.0117 H   0  0  0  0  0  0
  -24.0044  -27.2917   19.0254 H   0  0  0  0  0  0
  -23.7282  -30.5939   19.4004 H   0  0  0  0  0  0
  -22.7428  -29.2399   19.8634 H   0  0  0  0  0  0
  -25.1283  -36.2003   25.0836 H   0  0  0  0  0  0
  -21.0029  -28.3286   24.1431 H   0  0  0  0  0  0
  -20.5721  -26.2317   23.3605 H   0  0  0  0  0  0
  -21.6644  -26.7501   22.1208 H   0  0  0  0  0  0
  -19.6889  -25.6327   21.1259 H   0  0  0  0  0  0
  -19.6680  -27.3247   20.6764 H   0  0  0  0  0  0
  -17.4211  -26.6762   21.4035 H   0  0  0  0  0  0
  -18.0323  -26.0086   22.9035 H   0  0  0  0  0  0
  -19.7920  -30.7312   24.2311 H   0  0  0  0  0  0
  -17.5005  -31.6287   24.5211 H   0  0  0  0  0  0
  -15.5365  -30.3044   23.7600 H   0  0  0  0  0  0
  -15.8695  -28.0871   22.7038 H   0  0  0  0  0  0
  -24.5912  -30.7032   25.7788 H   0  0  0  0  0  0
  -24.8911  -32.2834   26.4924 H   0  0  0  0  0  0
  -25.8097  -30.8851   27.0196 H   0  0  0  0  0  0
  -26.2797  -29.6829   24.1106 H   0  0  0  0  0  0
  -27.4054  -29.7271   25.4492 H   0  0  0  0  0  0
  -27.8633  -30.4371   23.9164 H   0  0  0  0  0  0
  -27.2683  -33.3591   26.2115 H   0  0  0  0  0  0
  -28.3838  -32.6920   25.0290 H   0  0  0  0  0  0
  -28.0742  -31.8386   26.5330 H   0  0  0  0  0  0
  -28.2651  -38.0090   24.7503 H   0  0  0  0  0  0
  -28.1036  -36.2628   24.6339 H   0  0  0  0  0  0
  -27.2303  -37.1544   25.8878 H   0  0  0  0  0  0
  -20.9281  -29.8746   21.6904 H   0  0  0  0  0  0
  -26.0187  -38.2880   24.1387 H   0  0  0  0  0  0
  -33.2580  -18.8220   21.6007 H   0  0  0  0  0  0
  -32.7260  -16.4852   21.2540 H   0  0  0  0  0  0
  -28.5858  -17.2605   22.2097 H   0  0  0  0  0  0
  -29.2480  -23.8870   22.6252 H   0  0  0  0  0  0
  -30.8857  -25.7058   20.7936 H   0  0  0  0  0  0
  -27.9188  -19.3151   23.1117 H   0  0  0  0  0  0
  -28.4388  -20.5184   21.9413 H   0  0  0  0  0  0
  -29.0914  -20.5276   23.5881 H   0  0  0  0  0  0
  -31.8100  -23.4887   23.0488 H   0  0  0  0  0  0
  -32.0429  -23.6203   21.3147 H   0  0  0  0  0  0
  -29.1830  -27.2333   21.9457 H   0  0  0  0  0  0
  -28.0452  -25.8951   21.9899 H   0  0  0  0  0  0
  -33.3041  -20.2508   23.4260 H   0  0  0  0  0  0
  -33.1867  -21.9617   23.2027 H   0  0  0  0  0  0
  -29.3301  -15.0363   21.8684 H   0  0  0  0  0  0
  -30.1652  -21.6823   21.3607 H   0  0  0  0  0  0
  1 25  1  0  0  0
  1 30  2  0  0  0
  1 84  1  0  0  0
  2  3  1  0  0  0
  2 25  1  0  0  0
  2 86  1  0  0  0
  2 87  1  0  0  0
  3  4  1  0  0  0
  3 88  1  0  0  0
  3 89  1  0  0  0
  4  5  1  0  0  0
  4 90  1  0  0  0
  4 91  1  0  0  0
  5  6  1  0  0  0
  5 26  1  0  0  0
  5 92  1  0  0  0
  6 25  1  0  0  0
  6 93  1  0  0  0
  6 94  1  0  0  0
  7  8  2  0  0  0
  7 26  1  0  0  0
  7 29  1  0  0  0
  8  9  1  0  0  0
  8 22  1  0  0  0
  9 10  1  0  0  0
  9 27  2  0  0  0
 10 11  2  0  0  0
 10 15  1  0  0  0
 11 12  1  0  0  0
 11 95  1  0  0  0
 12 13  2  0  0  0
 12 96  1  0  0  0
 13 14  1  0  0  0
 13 31  1  0  0  0
 14 15  2  0  0  0
 14 97  1  0  0  0
 15 98  1  0  0  0
 16 17  2  0  0  0
 16 21  1  0  0  0
 16 31  1  0  0  0
 17 18  1  0  0  0
 17 99  1  0  0  0
 18 19  2  0  0  0
 18100  1  0  0  0
 19 20  1  0  0  0
 19 24  1  0  0  0
 20 21  2  0  0  0
 20101  1  0  0  0
 21 23  1  0  0  0
 22 28  1  0  0  0
 22 32  2  0  0  0
 26 27  1  0  0  0
 28102  1  0  0  0
 28103  1  0  0  0
 29104  1  0  0  0
 29105  1  0  0  0
 33 34  1  0  0  0
 33 66  1  0  0  0
 33 70  2  0  0  0
 34 36  1  0  0  0
 34 59  1  0  0  0
 34106  1  0  0  0
 35 44  2  0  0  0
 35 45  1  0  0  0
 35 68  1  0  0  0
 36 56  1  0  0  0
 36107  1  0  0  0
 37 39  1  0  0  0
 37 47  1  0  0  0
 37 66  1  0  0  0
 37108  1  0  0  0
 38 43  2  0  0  0
 38 46  1  0  0  0
 38 47  1  0  0  0
 39 64  1  0  0  0
 39 67  2  0  0  0
 40 52  1  0  0  0
 40 53  2  0  0  0
 40 58  1  0  0  0
 41109  1  0  0  0
 41110  1  0  0  0
 41111  1  0  0  0
 41 48  1  0  0  0
 42 43  1  0  0  0
 42 66  1  0  0  0
 42112  1  0  0  0
 42113  1  0  0  0
 43 44  1  0  0  0
 44114  1  0  0  0
 45 46  2  0  0  0
 45115  1  0  0  0
 46116  1  0  0  0
 47117  1  0  0  0
 47118  1  0  0  0
 48 56  1  0  0  0
 48 65  1  0  0  0
 48119  1  0  0  0
 49 50  1  0  0  0
 49 53  1  0  0  0
 49 64  1  0  0  0
 49120  1  0  0  0
 50 51  1  0  0  0
 50121  1  0  0  0
 50122  1  0  0  0
 51 52  1  0  0  0
 51123  1  0  0  0
 51124  1  0  0  0
 52125  1  0  0  0
 52126  1  0  0  0
 53 54  1  0  0  0
 54 55  2  0  0  0
 54127  1  0  0  0
 55 57  1  0  0  0
 55128  1  0  0  0
 56 69  2  0  0  0
 57 58  2  0  0  0
 57129  1  0  0  0
 58130  1  0  0  0
 59 60  1  0  0  0
 59 61  1  0  0  0
 59 62  1  0  0  0
 60131  1  0  0  0
 60132  1  0  0  0
 60133  1  0  0  0
 61134  1  0  0  0
 61135  1  0  0  0
 61136  1  0  0  0
 62137  1  0  0  0
 62138  1  0  0  0
 62139  1  0  0  0
 63 65  1  0  0  0
 63140  1  0  0  0
 63141  1  0  0  0
 63142  1  0  0  0
 64143  1  0  0  0
 65144  1  0  0  0
 68 82  1  0  0  0
 71 72  2  0  0  0
 71 74  1  0  0  0
 71145  1  0  0  0
 72 76  1  0  0  0
 72146  1  0  0  0
 73 75  1  0  0  0
 73 76  2  0  0  0
 73147  1  0  0  0
 74 75  2  0  0  0
 74 79  1  0  0  0
 75 80  1  0  0  0
 76 84  1  0  0  0
 77 78  2  0  0  0
 77 81  1  0  0  0
 77148  1  0  0  0
 78 82  1  0  0  0
 78149  1  0  0  0
 79 83  1  0  0  0
 79 85  2  0  0  0
 80150  1  0  0  0
 80151  1  0  0  0
 80152  1  0  0  0
 81 85  1  0  0  0
 81153  1  0  0  0
 81154  1  0  0  0
 82155  1  0  0  0
 82156  1  0  0  0
 83157  1  0  0  0
 83158  1  0  0  0
 84159  1  0  0  0
 85160  1  0  0  0
M  CHG  1  85   1
M  ISO  4   1 100  68 101  82 101  84 100
M  END
> <chiral flag>
0

> <version>
0

> <s_m_source_file>
/data/baiqing/PycharmProjects/Reinvent-master-3.2/result/LINK_invent/BTK/process_docking_weight1_custom_product_contain_oxygen_bond_distance_aromatic_linkinvent_7_9_3/rearranged_h_0053.sdf

> <i_m_source_file_index>
79

> <r_mmod_Potential_Energy-OPLS-2005>
-249.826522827148

> <r_mmod_Stretch_Energy-OPLS-2005>
36.6176338195801

> <r_mmod_Bend_Energy-OPLS-2005>
95.0873107910156

> <r_mmod_Torsional_Energy-OPLS-2005>
217.6357421875

> <r_mmod_Improper_Torsional_Energy-OPLS-2005>
2.84764099121094

> <r_mmod_Van_der_Waal_Energy-OPLS-2005>
163.733367919922

> <r_mmod_Electrostatic_Energy-OPLS-2005>
-375.868591308594

> <r_mmod_Solvation_Energy-OPLS-2005>
-398.353790283203

> <b_mmod_Minimization_Converged-OPLS-2005>
0

> <r_mmod_RMS_Derivative-OPLS-2005>
2.24377298355103

$$$$
79
                    3D
 Structure written by MMmdl.
164172  0  0  1  0            999 V2000
  -30.7075  -14.3862   20.5998 C   0  0  0  0  0  0
  -30.4292  -12.2598   19.4068 C   0  0  0  0  0  0
  -29.4956  -12.5020   18.2029 C   0  0  0  0  0  0
  -28.0168  -12.3672   18.6164 C   0  0  0  0  0  0
  -27.6735  -13.1901   19.8854 C   0  0  2  0  0  0
  -28.7102  -12.9092   20.9984 C   0  0  0  0  0  0
  -25.2662  -13.8138   20.5682 C   0  0  0  0  0  0
  -24.1880  -13.0446   20.9169 C   0  0  0  0  0  0
  -24.6402  -11.6905   20.8721 C   0  0  0  0  0  0
  -23.9048  -10.4313   21.0408 C   0  0  0  0  0  0
  -24.3609   -9.4234   21.9182 C   0  0  0  0  0  0
  -23.6304   -8.2261   22.0748 C   0  0  0  0  0  0
  -22.4283   -8.0296   21.3538 C   0  0  0  0  0  0
  -21.9911   -9.0267   20.4641 C   0  0  0  0  0  0
  -22.7227  -10.2154   20.3062 C   0  0  0  0  0  0
  -21.6853   -6.0756   22.5286 C   0  0  0  0  0  0
  -21.4001   -6.5654   23.8220 C   0  0  0  0  0  0
  -21.3664   -5.6800   24.9177 C   0  0  0  0  0  0
  -21.6050   -4.3065   24.7232 C   0  0  0  0  0  0
  -21.8815   -3.8162   23.4351 C   0  0  0  0  0  0
  -21.9192   -4.6981   22.3405 C   0  0  0  0  0  0
  -22.7908  -13.5252   21.1857 C   0  0  0  0  0  0
  -22.1661   -4.2168   21.0987 F   0  0  0  0  0  0
  -21.5641   -3.4552   25.7743 F   0  0  0  0  0  0
  -30.0554  -13.2050   20.4658 N   0  0  0  0  0  0
  -26.3081  -12.9270   20.3380 N   0  0  0  0  0  0
  -25.9322  -11.6441   20.5761 N   0  0  0  0  0  0
  -22.0544  -12.8225   22.0406 N   0  0  0  0  0  0
  -25.4453  -15.1861   20.4119 N   0  0  0  0  0  0
  -31.7905  -14.6448   20.0639 O   0  0  0  0  0  0
  -21.6639   -6.8898   21.4249 O   0  0  0  0  0  0
  -22.3584  -14.5574   20.6751 O   0  0  0  0  0  0
  -24.6074  -31.8722   23.2111 C   0  0  0  0  0  0
  -25.8979  -32.4853   23.8408 C   0  0  1  0  0  0
  -27.2382  -27.4732   20.0682 C   0  0  0  0  0  0
  -25.5857  -33.8650   24.2339 N   0  0  0  0  0  0
  -23.3930  -30.4965   21.5533 C   0  0  2  0  0  0
  -24.8373  -28.9635   20.1147 C   0  0  0  0  0  0
  -22.7368  -29.4684   22.5019 C   0  0  0  0  0  0
  -18.0263  -28.1378   22.8498 C   0  0  0  0  0  0
  -24.1483  -36.7350   23.2637 C   0  0  0  0  0  0
  -25.9184  -30.8442   21.3603 C   0  0  0  0  0  0
  -25.9960  -29.4807   20.7082 C   0  0  0  0  0  0
  -27.1950  -28.7380   20.6902 C   0  0  0  0  0  0
  -26.0639  -26.9711   19.4589 C   0  0  0  0  0  0
  -24.8656  -27.7049   19.4912 C   0  0  0  0  0  0
  -23.5965  -29.8255   20.1691 C   0  0  0  0  0  0
  -25.4104  -36.3162   24.0332 C   0  0  1  0  0  0
  -20.5862  -28.3674   23.1354 C   0  0  2  0  0  0
  -20.6741  -26.9369   22.5552 C   0  0  0  0  0  0
  -19.5765  -26.6403   21.5260 C   0  0  0  0  0  0
  -18.1942  -26.7934   22.1644 C   0  0  0  0  0  0
  -19.1510  -28.8848   23.2890 C   0  0  0  0  0  0
  -18.9436  -30.1477   23.8845 C   0  0  0  0  0  0
  -17.6428  -30.6614   24.0489 C   0  0  0  0  0  0
  -25.9031  -34.9505   23.5140 C   0  0  0  0  0  0
  -16.5327  -29.9101   23.6319 C   0  0  0  0  0  0
  -16.7260  -28.6493   23.0382 C   0  0  0  0  0  0
  -26.4434  -31.6623   25.0726 C   0  0  0  0  0  0
  -25.3724  -31.3690   26.1503 C   0  0  0  0  0  0
  -27.0254  -30.3075   24.6072 C   0  0  0  0  0  0
  -27.6044  -32.4320   25.7484 C   0  0  0  0  0  0
  -27.5581  -37.1827   24.8457 C   0  0  0  0  0  0
  -21.4104  -29.3038   22.3748 N   0  0  0  0  0  0
  -26.4296  -37.3836   23.9396 N   0  0  0  0  0  0
  -24.6589  -31.0856   22.0996 N   0  0  0  0  0  0
  -23.4139  -28.8228   23.3042 O   0  0  0  0  0  0
  -28.4440  -26.8074   20.0519 O   0  0  0  0  0  0
  -26.5621  -34.8939   22.4730 O   0  0  0  0  0  0
  -23.5274  -32.1436   23.7534 O   0  0  0  0  0  0
  -28.8919  -17.8975   18.7832 C   0  0  0  0  0  0
  -29.4653  -16.7243   19.2991 C   0  0  0  0  0  0
  -28.9966  -17.4915   21.5599 C   0  0  0  0  0  0
  -28.3843  -18.8887   19.6467 C   0  0  0  0  0  0
  -28.4316  -18.6810   21.0531 C   0  0  0  0  0  0
  -29.5247  -16.5148   20.6967 C   0  0  0  0  0  0
  -26.1564  -21.4285   21.5479 C   0  0  0  0  0  0
  -26.8363  -23.8013   21.1427 C   0  0  0  0  0  0
  -27.8196  -20.1540   19.0197 C   0  0  0  0  0  0
  -24.6842  -21.6245   21.2887 C   0  0  0  0  0  0
  -27.9391  -19.7057   22.0680 C   0  0  0  0  0  0
  -28.0749  -24.6982   21.2495 C   0  0  0  0  0  0
  -28.4639  -25.3871   19.9238 C   0  0  0  0  0  0
  -30.0207  -15.3170   21.2702 N   0  0  0  0  0  0
  -27.0653  -22.4397   21.5175 N   0  0  0  0  0  0
  -26.5613  -20.1690   21.8294 N   0  3  0  0  0  0
  -25.7392  -24.2100   20.7572 O   0  0  0  0  0  0
  -31.4752  -12.3573   19.1081 H   0  0  0  0  0  0
  -30.3203  -11.2390   19.7751 H   0  0  0  0  0  0
  -29.7220  -11.7950   17.4035 H   0  0  0  0  0  0
  -29.6767  -13.4952   17.7887 H   0  0  0  0  0  0
  -27.8226  -11.3093   18.7983 H   0  0  0  0  0  0
  -27.3636  -12.6584   17.7947 H   0  0  0  0  0  0
  -27.7357  -14.2442   19.6134 H   0  0  0  0  0  0
  -28.6689  -11.8600   21.2958 H   0  0  0  0  0  0
  -28.4714  -13.4669   21.9041 H   0  0  0  0  0  0
  -25.2769   -9.5716   22.4733 H   0  0  0  0  0  0
  -24.0030   -7.4650   22.7463 H   0  0  0  0  0  0
  -21.0849   -8.8794   19.8942 H   0  0  0  0  0  0
  -22.3703  -10.9692   19.6174 H   0  0  0  0  0  0
  -21.1974   -7.6157   23.9720 H   0  0  0  0  0  0
  -21.1482   -6.0532   25.9075 H   0  0  0  0  0  0
  -22.0583   -2.7626   23.2849 H   0  0  0  0  0  0
  -22.4149  -11.9870   22.4766 H   0  0  0  0  0  0
  -21.1168  -13.1260   22.2615 H   0  0  0  0  0  0
  -24.6868  -15.8496   20.5208 H   0  0  0  0  0  0
  -26.3096  -15.6177   20.1104 H   0  0  0  0  0  0
  -26.7055  -32.5581   23.1178 H   0  0  0  0  0  0
  -24.9995  -33.9826   25.0478 H   0  0  0  0  0  0
  -22.6854  -31.3163   21.4152 H   0  0  0  0  0  0
  -23.3746  -35.9692   23.3338 H   0  0  0  0  0  0
  -24.3567  -36.8926   22.2047 H   0  0  0  0  0  0
  -23.7224  -37.6558   23.6624 H   0  0  0  0  0  0
  -26.0198  -31.6080   20.5873 H   0  0  0  0  0  0
  -26.8089  -30.9033   21.9758 H   0  0  0  0  0  0
  -28.0914  -29.1340   21.1467 H   0  0  0  0  0  0
  -26.0485  -26.0236   18.9416 H   0  0  0  0  0  0
  -23.9805  -27.3039   19.0166 H   0  0  0  0  0  0
  -23.7030  -30.5997   19.4083 H   0  0  0  0  0  0
  -22.7173  -29.2480   19.8773 H   0  0  0  0  0  0
  -25.1284  -36.2063   25.0821 H   0  0  0  0  0  0
  -20.9922  -28.3327   24.1478 H   0  0  0  0  0  0
  -20.5436  -26.2308   23.3768 H   0  0  0  0  0  0
  -21.6628  -26.7329   22.1454 H   0  0  0  0  0  0
  -19.6896  -25.6317   21.1250 H   0  0  0  0  0  0
  -19.6721  -27.3268   20.6839 H   0  0  0  0  0  0
  -17.4245  -26.6703   21.4005 H   0  0  0  0  0  0
  -18.0361  -26.0065   22.9032 H   0  0  0  0  0  0
  -19.7907  -30.7294   24.2155 H   0  0  0  0  0  0
  -17.4969  -31.6341   24.4993 H   0  0  0  0  0  0
  -15.5325  -30.2971   23.7648 H   0  0  0  0  0  0
  -15.8667  -28.0794   22.7141 H   0  0  0  0  0  0
  -24.5895  -30.7030   25.7852 H   0  0  0  0  0  0
  -24.8898  -32.2815   26.5014 H   0  0  0  0  0  0
  -25.8108  -30.8833   27.0232 H   0  0  0  0  0  0
  -26.2792  -29.6853   24.1115 H   0  0  0  0  0  0
  -27.4023  -29.7292   25.4519 H   0  0  0  0  0  0
  -27.8629  -30.4410   23.9219 H   0  0  0  0  0  0
  -27.2705  -33.3600   26.2149 H   0  0  0  0  0  0
  -28.3826  -32.6909   25.0285 H   0  0  0  0  0  0
  -28.0763  -31.8382   26.5320 H   0  0  0  0  0  0
  -28.2637  -38.0096   24.7503 H   0  0  0  0  0  0
  -28.1047  -36.2628   24.6313 H   0  0  0  0  0  0
  -27.2290  -37.1508   25.8860 H   0  0  0  0  0  0
  -20.9265  -29.8682   21.6929 H   0  0  0  0  0  0
  -26.0216  -38.2933   24.1388 H   0  0  0  0  0  0
  -28.8474  -18.0300   17.7105 H   0  0  0  0  0  0
  -29.8378  -15.9877   18.6009 H   0  0  0  0  0  0
  -29.0349  -17.3296   22.6288 H   0  0  0  0  0  0
  -28.0156  -20.1864   17.9459 H   0  0  0  0  0  0
  -28.2797  -21.0409   19.4529 H   0  0  0  0  0  0
  -26.7388  -20.2097   19.1537 H   0  0  0  0  0  0
  -24.2886  -22.4362   21.8991 H   0  0  0  0  0  0
  -24.1158  -20.7281   21.5443 H   0  0  0  0  0  0
  -24.5034  -21.8479   20.2354 H   0  0  0  0  0  0
  -28.6424  -20.5364   22.0721 H   0  0  0  0  0  0
  -27.9815  -19.2819   23.0717 H   0  0  0  0  0  0
  -28.9249  -24.1141   21.6038 H   0  0  0  0  0  0
  -27.8929  -25.4379   22.0268 H   0  0  0  0  0  0
  -27.8980  -25.0278   19.0638 H   0  0  0  0  0  0
  -29.4949  -25.1202   19.6943 H   0  0  0  0  0  0
  -29.4260  -14.9342   21.9893 H   0  0  0  0  0  0
  -27.9895  -22.1683   21.8062 H   0  0  0  0  0  0
  -25.8616  -19.4388   21.8662 H   0  0  0  0  0  0
  1 25  1  0  0  0
  1 30  2  0  0  0
  1 84  1  0  0  0
  2  3  1  0  0  0
  2 25  1  0  0  0
  2 88  1  0  0  0
  2 89  1  0  0  0
  3  4  1  0  0  0
  3 90  1  0  0  0
  3 91  1  0  0  0
  4  5  1  0  0  0
  4 92  1  0  0  0
  4 93  1  0  0  0
  5  6  1  0  0  0
  5 26  1  0  0  0
  5 94  1  0  0  0
  6 25  1  0  0  0
  6 95  1  0  0  0
  6 96  1  0  0  0
  7  8  2  0  0  0
  7 26  1  0  0  0
  7 29  1  0  0  0
  8  9  1  0  0  0
  8 22  1  0  0  0
  9 10  1  0  0  0
  9 27  2  0  0  0
 10 11  2  0  0  0
 10 15  1  0  0  0
 11 12  1  0  0  0
 11 97  1  0  0  0
 12 13  2  0  0  0
 12 98  1  0  0  0
 13 14  1  0  0  0
 13 31  1  0  0  0
 14 15  2  0  0  0
 14 99  1  0  0  0
 15100  1  0  0  0
 16 17  2  0  0  0
 16 21  1  0  0  0
 16 31  1  0  0  0
 17 18  1  0  0  0
 17101  1  0  0  0
 18 19  2  0  0  0
 18102  1  0  0  0
 19 20  1  0  0  0
 19 24  1  0  0  0
 20 21  2  0  0  0
 20103  1  0  0  0
 21 23  1  0  0  0
 22 28  1  0  0  0
 22 32  2  0  0  0
 26 27  1  0  0  0
 28104  1  0  0  0
 28105  1  0  0  0
 29106  1  0  0  0
 29107  1  0  0  0
 33 34  1  0  0  0
 33 66  1  0  0  0
 33 70  2  0  0  0
 34 36  1  0  0  0
 34 59  1  0  0  0
 34108  1  0  0  0
 35 44  2  0  0  0
 35 45  1  0  0  0
 35 68  1  0  0  0
 36 56  1  0  0  0
 36109  1  0  0  0
 37 39  1  0  0  0
 37 47  1  0  0  0
 37 66  1  0  0  0
 37110  1  0  0  0
 38 43  2  0  0  0
 38 46  1  0  0  0
 38 47  1  0  0  0
 39 64  1  0  0  0
 39 67  2  0  0  0
 40 52  1  0  0  0
 40 53  2  0  0  0
 40 58  1  0  0  0
 41111  1  0  0  0
 41112  1  0  0  0
 41113  1  0  0  0
 41 48  1  0  0  0
 42 43  1  0  0  0
 42 66  1  0  0  0
 42114  1  0  0  0
 42115  1  0  0  0
 43 44  1  0  0  0
 44116  1  0  0  0
 45 46  2  0  0  0
 45117  1  0  0  0
 46118  1  0  0  0
 47119  1  0  0  0
 47120  1  0  0  0
 48 56  1  0  0  0
 48 65  1  0  0  0
 48121  1  0  0  0
 49 50  1  0  0  0
 49 53  1  0  0  0
 49 64  1  0  0  0
 49122  1  0  0  0
 50 51  1  0  0  0
 50123  1  0  0  0
 50124  1  0  0  0
 51 52  1  0  0  0
 51125  1  0  0  0
 51126  1  0  0  0
 52127  1  0  0  0
 52128  1  0  0  0
 53 54  1  0  0  0
 54 55  2  0  0  0
 54129  1  0  0  0
 55 57  1  0  0  0
 55130  1  0  0  0
 56 69  2  0  0  0
 57 58  2  0  0  0
 57131  1  0  0  0
 58132  1  0  0  0
 59 60  1  0  0  0
 59 61  1  0  0  0
 59 62  1  0  0  0
 60133  1  0  0  0
 60134  1  0  0  0
 60135  1  0  0  0
 61136  1  0  0  0
 61137  1  0  0  0
 61138  1  0  0  0
 62139  1  0  0  0
 62140  1  0  0  0
 62141  1  0  0  0
 63 65  1  0  0  0
 63142  1  0  0  0
 63143  1  0  0  0
 63144  1  0  0  0
 64145  1  0  0  0
 65146  1  0  0  0
 68 83  1  0  0  0
 71 72  2  0  0  0
 71 74  1  0  0  0
 71147  1  0  0  0
 72 76  1  0  0  0
 72148  1  0  0  0
 73 75  1  0  0  0
 73 76  2  0  0  0
 73149  1  0  0  0
 74 75  2  0  0  0
 74 79  1  0  0  0
 75 81  1  0  0  0
 76 84  1  0  0  0
 77 80  1  0  0  0
 77 85  1  0  0  0
 77 86  2  0  0  0
 78 82  1  0  0  0
 78 85  1  0  0  0
 78 87  2  0  0  0
 79150  1  0  0  0
 79151  1  0  0  0
 79152  1  0  0  0
 80153  1  0  0  0
 80154  1  0  0  0
 80155  1  0  0  0
 81 86  1  0  0  0
 81156  1  0  0  0
 81157  1  0  0  0
 82 83  1  0  0  0
 82158  1  0  0  0
 82159  1  0  0  0
 83160  1  0  0  0
 83161  1  0  0  0
 84162  1  0  0  0
 85163  1  0  0  0
 86164  1  0  0  0
M  CHG  1  86   1
M  ISO  4   1 100  68 101  83 101  84 100
M  END
> <chiral flag>
0

> <version>
0

> <s_m_source_file>
/data/baiqing/PycharmProjects/Reinvent-master-3.2/result/LINK_invent/BTK/process_docking_weight1_custom_product_contain_oxygen_bond_distance_aromatic_linkinvent_7_9_3/rearranged_h_0053.sdf

> <i_m_source_file_index>
80

> <r_mmod_Potential_Energy-OPLS-2005>
-139.105453491211

> <r_mmod_Stretch_Energy-OPLS-2005>
33.8615570068359

> <r_mmod_Bend_Energy-OPLS-2005>
114.247825622559

> <r_mmod_Torsional_Energy-OPLS-2005>
241.824829101562

> <r_mmod_Improper_Torsional_Energy-OPLS-2005>
5.95975065231323

> <r_mmod_Van_der_Waal_Energy-OPLS-2005>
160.541229248047

> <r_mmod_Electrostatic_Energy-OPLS-2005>
-232.878021240234

> <r_mmod_Solvation_Energy-OPLS-2005>
-471.580139160156

> <b_mmod_Minimization_Converged-OPLS-2005>
0

> <r_mmod_RMS_Derivative-OPLS-2005>
4.01701688766479

$$$$
80
                    3D
 Structure written by MMmdl.
160168  0  0  1  0            999 V2000
  -30.6837  -14.4984   20.5050 C   0  0  0  0  0  0
  -30.4194  -12.3002   19.4399 C   0  0  0  0  0  0
  -29.5006  -12.4919   18.2148 C   0  0  0  0  0  0
  -28.0200  -12.3539   18.6221 C   0  0  0  0  0  0
  -27.6583  -13.2081   19.8672 C   0  0  2  0  0  0
  -28.6987  -13.0200   20.9959 C   0  0  0  0  0  0
  -25.2590  -13.8164   20.5665 C   0  0  0  0  0  0
  -24.1844  -13.0440   20.9165 C   0  0  0  0  0  0
  -24.6392  -11.6906   20.8712 C   0  0  0  0  0  0
  -23.9058  -10.4298   21.0395 C   0  0  0  0  0  0
  -24.3616   -9.4214   21.9170 C   0  0  0  0  0  0
  -23.6295   -8.2252   22.0750 C   0  0  0  0  0  0
  -22.4276   -8.0280   21.3545 C   0  0  0  0  0  0
  -21.9904   -9.0253   20.4651 C   0  0  0  0  0  0
  -22.7229  -10.2136   20.3057 C   0  0  0  0  0  0
  -21.6857   -6.0731   22.5276 C   0  0  0  0  0  0
  -21.4019   -6.5637   23.8212 C   0  0  0  0  0  0
  -21.3668   -5.6789   24.9170 C   0  0  0  0  0  0
  -21.6051   -4.3048   24.7222 C   0  0  0  0  0  0
  -21.8824   -3.8143   23.4347 C   0  0  0  0  0  0
  -21.9201   -4.6961   22.3400 C   0  0  0  0  0  0
  -22.7869  -13.5234   21.1835 C   0  0  0  0  0  0
  -22.1666   -4.2146   21.0976 F   0  0  0  0  0  0
  -21.5633   -3.4529   25.7738 F   0  0  0  0  0  0
  -30.0303  -13.3065   20.4415 N   0  0  0  0  0  0
  -26.3012  -12.9327   20.3328 N   0  0  0  0  0  0
  -25.9321  -11.6487   20.5746 N   0  0  0  0  0  0
  -22.0522  -12.8230   22.0397 N   0  0  0  0  0  0
  -25.4324  -15.1882   20.4082 N   0  0  0  0  0  0
  -31.8536  -14.6319   20.1332 O   0  0  0  0  0  0
  -21.6644   -6.8875   21.4242 O   0  0  0  0  0  0
  -22.3555  -14.5536   20.6679 O   0  0  0  0  0  0
  -24.6149  -31.8680   23.2101 C   0  0  0  0  0  0
  -25.9037  -32.4829   23.8405 C   0  0  1  0  0  0
  -27.2250  -27.4323   20.1013 C   0  0  0  0  0  0
  -25.5892  -33.8628   24.2329 N   0  0  0  0  0  0
  -23.4041  -30.4912   21.5512 C   0  0  2  0  0  0
  -24.8500  -28.9602   20.1113 C   0  0  0  0  0  0
  -22.7422  -29.4655   22.4996 C   0  0  0  0  0  0
  -18.0272  -28.1381   22.8488 C   0  0  0  0  0  0
  -24.1485  -36.7323   23.2635 C   0  0  0  0  0  0
  -25.9337  -30.8334   21.3645 C   0  0  0  0  0  0
  -26.0113  -29.4694   20.7083 C   0  0  0  0  0  0
  -27.2062  -28.7131   20.6982 C   0  0  0  0  0  0
  -26.0542  -26.9419   19.4874 C   0  0  0  0  0  0
  -24.8670  -27.6967   19.4953 C   0  0  0  0  0  0
  -23.6122  -29.8261   20.1645 C   0  0  0  0  0  0
  -25.4105  -36.3122   24.0339 C   0  0  1  0  0  0
  -20.5863  -28.3665   23.1323 C   0  0  2  0  0  0
  -20.6763  -26.9398   22.5421 C   0  0  0  0  0  0
  -19.5742  -26.6387   21.5219 C   0  0  0  0  0  0
  -18.1918  -26.7924   22.1628 C   0  0  0  0  0  0
  -19.1521  -28.8841   23.2900 C   0  0  0  0  0  0
  -18.9449  -30.1448   23.8909 C   0  0  0  0  0  0
  -17.6451  -30.6585   24.0567 C   0  0  0  0  0  0
  -25.9036  -34.9483   23.5136 C   0  0  0  0  0  0
  -16.5342  -29.9090   23.6322 C   0  0  0  0  0  0
  -16.7263  -28.6511   23.0338 C   0  0  0  0  0  0
  -26.4443  -31.6608   25.0738 C   0  0  0  0  0  0
  -25.3698  -31.3734   26.1485 C   0  0  0  0  0  0
  -27.0254  -30.3042   24.6124 C   0  0  0  0  0  0
  -27.6031  -32.4318   25.7491 C   0  0  0  0  0  0
  -27.5586  -37.1813   24.8458 C   0  0  0  0  0  0
  -21.4149  -29.3032   22.3735 N   0  0  0  0  0  0
  -26.4292  -37.3807   23.9414 N   0  0  0  0  0  0
  -24.6693  -31.0784   22.1001 N   0  0  0  0  0  0
  -23.4190  -28.8195   23.3038 O   0  0  0  0  0  0
  -28.3556  -26.6476   20.1279 O   0  0  0  0  0  0
  -26.5600  -34.8930   22.4700 O   0  0  0  0  0  0
  -23.5338  -32.1433   23.7489 O   0  0  0  0  0  0
  -30.4907  -18.2616   18.2317 C   0  0  0  0  0  0
  -30.5365  -17.0237   18.8894 C   0  0  0  0  0  0
  -29.3637  -17.9968   20.7778 C   0  0  0  0  0  0
  -29.3197  -19.2698   20.1342 C   0  0  0  0  0  0
  -29.8724  -19.3821   18.8219 C   0  0  0  0  0  0
  -29.9676  -16.8624   20.1734 C   0  0  0  0  0  0
  -28.6121  -20.4217   20.8309 C   0  0  0  0  0  0
  -29.8085  -20.6494   17.9764 C   0  0  0  0  0  0
  -30.3416  -24.3520   20.0745 C   0  0  0  0  0  0
  -28.4909  -22.9145   21.1317 C   0  0  0  0  0  0
  -28.2097  -25.4537   20.9243 C   0  0  0  0  0  0
  -28.8267  -24.1801   20.2845 C   0  0  1  0  0  0
  -29.9223  -15.5734   20.8139 N   0  0  0  0  0  0
  -29.0740  -21.6674   20.6127 N   0  0  0  0  0  0
  -27.6730  -20.1997   21.5975 O   0  0  0  0  0  0
  -31.4667  -12.3836   19.1431 H   0  0  0  0  0  0
  -30.3043  -11.2962   19.8520 H   0  0  0  0  0  0
  -29.7442  -11.7622   17.4412 H   0  0  0  0  0  0
  -29.6740  -13.4744   17.7722 H   0  0  0  0  0  0
  -27.8353  -11.2998   18.8297 H   0  0  0  0  0  0
  -27.3719  -12.6136   17.7839 H   0  0  0  0  0  0
  -27.6927  -14.2499   19.5483 H   0  0  0  0  0  0
  -28.6733  -11.9959   21.3712 H   0  0  0  0  0  0
  -28.4659  -13.6558   21.8515 H   0  0  0  0  0  0
  -25.2773   -9.5681   22.4722 H   0  0  0  0  0  0
  -24.0005   -7.4647   22.7469 H   0  0  0  0  0  0
  -21.0839   -8.8775   19.8957 H   0  0  0  0  0  0
  -22.3695  -10.9666   19.6154 H   0  0  0  0  0  0
  -21.2011   -7.6145   23.9709 H   0  0  0  0  0  0
  -21.1480   -6.0515   25.9070 H   0  0  0  0  0  0
  -22.0599   -2.7605   23.2842 H   0  0  0  0  0  0
  -22.4157  -11.9897   22.4778 H   0  0  0  0  0  0
  -21.1148  -13.1263   22.2624 H   0  0  0  0  0  0
  -24.6665  -15.8434   20.5163 H   0  0  0  0  0  0
  -26.2869  -15.6280   20.0888 H   0  0  0  0  0  0
  -26.7117  -32.5533   23.1179 H   0  0  0  0  0  0
  -25.0034  -33.9792   25.0468 H   0  0  0  0  0  0
  -22.6933  -31.3078   21.4136 H   0  0  0  0  0  0
  -23.3754  -35.9650   23.3292 H   0  0  0  0  0  0
  -24.3583  -36.8941   22.2050 H   0  0  0  0  0  0
  -23.7224  -37.6524   23.6645 H   0  0  0  0  0  0
  -26.0480  -31.6009   20.5979 H   0  0  0  0  0  0
  -26.8204  -30.8840   21.9851 H   0  0  0  0  0  0
  -28.1015  -29.0953   21.1681 H   0  0  0  0  0  0
  -26.0599  -25.9687   19.0160 H   0  0  0  0  0  0
  -23.9757  -27.3005   19.0287 H   0  0  0  0  0  0
  -23.7196  -30.6026   19.4062 H   0  0  0  0  0  0
  -22.7364  -29.2457   19.8680 H   0  0  0  0  0  0
  -25.1280  -36.1994   25.0833 H   0  0  0  0  0  0
  -20.9946  -28.3225   24.1448 H   0  0  0  0  0  0
  -20.5682  -26.2271   23.3612 H   0  0  0  0  0  0
  -21.6636  -26.7455   22.1205 H   0  0  0  0  0  0
  -19.6905  -25.6301   21.1240 H   0  0  0  0  0  0
  -19.6679  -27.3209   20.6756 H   0  0  0  0  0  0
  -17.4191  -26.6676   21.4022 H   0  0  0  0  0  0
  -18.0311  -26.0064   22.9025 H   0  0  0  0  0  0
  -19.7925  -30.7259   24.2286 H   0  0  0  0  0  0
  -17.5007  -31.6264   24.5171 H   0  0  0  0  0  0
  -15.5343  -30.3001   23.7637 H   0  0  0  0  0  0
  -15.8663  -28.0845   22.7034 H   0  0  0  0  0  0
  -24.5888  -30.7054   25.7834 H   0  0  0  0  0  0
  -24.8861  -32.2891   26.4896 H   0  0  0  0  0  0
  -25.8040  -30.8944   27.0269 H   0  0  0  0  0  0
  -26.2807  -29.6853   24.1108 H   0  0  0  0  0  0
  -27.3927  -29.7235   25.4597 H   0  0  0  0  0  0
  -27.8685  -30.4352   23.9337 H   0  0  0  0  0  0
  -27.2658  -33.3602   26.2113 H   0  0  0  0  0  0
  -28.3802  -32.6907   25.0287 H   0  0  0  0  0  0
  -28.0737  -31.8415   26.5363 H   0  0  0  0  0  0
  -28.2602  -38.0112   24.7526 H   0  0  0  0  0  0
  -28.1080  -36.2650   24.6251 H   0  0  0  0  0  0
  -27.2311  -37.1430   25.8861 H   0  0  0  0  0  0
  -20.9317  -29.8759   21.6954 H   0  0  0  0  0  0
  -26.0187  -38.2888   24.1424 H   0  0  0  0  0  0
  -30.9160  -18.3342   17.2406 H   0  0  0  0  0  0
  -30.9889  -16.1955   18.3639 H   0  0  0  0  0  0
  -28.9115  -17.8934   21.7547 H   0  0  0  0  0  0
  -30.0178  -20.4383   16.9278 H   0  0  0  0  0  0
  -30.5465  -21.3784   18.3104 H   0  0  0  0  0  0
  -28.8187  -21.1057   18.0073 H   0  0  0  0  0  0
  -30.7708  -23.5201   19.5188 H   0  0  0  0  0  0
  -30.8683  -24.4281   21.0266 H   0  0  0  0  0  0
  -30.5560  -25.2567   19.5050 H   0  0  0  0  0  0
  -27.4055  -22.8067   21.1924 H   0  0  0  0  0  0
  -28.8398  -23.0496   22.1567 H   0  0  0  0  0  0
  -28.6794  -25.6425   21.8900 H   0  0  0  0  0  0
  -27.1621  -25.2464   21.1551 H   0  0  0  0  0  0
  -28.3659  -24.0539   19.3035 H   0  0  0  0  0  0
  -29.0770  -15.3693   21.3262 H   0  0  0  0  0  0
  -29.8786  -21.7463   20.0084 H   0  0  0  0  0  0
  1 25  1  0  0  0
  1 30  2  0  0  0
  1 83  1  0  0  0
  2  3  1  0  0  0
  2 25  1  0  0  0
  2 86  1  0  0  0
  2 87  1  0  0  0
  3  4  1  0  0  0
  3 88  1  0  0  0
  3 89  1  0  0  0
  4  5  1  0  0  0
  4 90  1  0  0  0
  4 91  1  0  0  0
  5  6  1  0  0  0
  5 26  1  0  0  0
  5 92  1  0  0  0
  6 25  1  0  0  0
  6 93  1  0  0  0
  6 94  1  0  0  0
  7  8  2  0  0  0
  7 26  1  0  0  0
  7 29  1  0  0  0
  8  9  1  0  0  0
  8 22  1  0  0  0
  9 10  1  0  0  0
  9 27  2  0  0  0
 10 11  2  0  0  0
 10 15  1  0  0  0
 11 12  1  0  0  0
 11 95  1  0  0  0
 12 13  2  0  0  0
 12 96  1  0  0  0
 13 14  1  0  0  0
 13 31  1  0  0  0
 14 15  2  0  0  0
 14 97  1  0  0  0
 15 98  1  0  0  0
 16 17  2  0  0  0
 16 21  1  0  0  0
 16 31  1  0  0  0
 17 18  1  0  0  0
 17 99  1  0  0  0
 18 19  2  0  0  0
 18100  1  0  0  0
 19 20  1  0  0  0
 19 24  1  0  0  0
 20 21  2  0  0  0
 20101  1  0  0  0
 21 23  1  0  0  0
 22 28  1  0  0  0
 22 32  2  0  0  0
 26 27  1  0  0  0
 28102  1  0  0  0
 28103  1  0  0  0
 29104  1  0  0  0
 29105  1  0  0  0
 33 34  1  0  0  0
 33 66  1  0  0  0
 33 70  2  0  0  0
 34 36  1  0  0  0
 34 59  1  0  0  0
 34106  1  0  0  0
 35 44  2  0  0  0
 35 45  1  0  0  0
 35 68  1  0  0  0
 36 56  1  0  0  0
 36107  1  0  0  0
 37 39  1  0  0  0
 37 47  1  0  0  0
 37 66  1  0  0  0
 37108  1  0  0  0
 38 43  2  0  0  0
 38 46  1  0  0  0
 38 47  1  0  0  0
 39 64  1  0  0  0
 39 67  2  0  0  0
 40 52  1  0  0  0
 40 53  2  0  0  0
 40 58  1  0  0  0
 41109  1  0  0  0
 41110  1  0  0  0
 41111  1  0  0  0
 41 48  1  0  0  0
 42 43  1  0  0  0
 42 66  1  0  0  0
 42112  1  0  0  0
 42113  1  0  0  0
 43 44  1  0  0  0
 44114  1  0  0  0
 45 46  2  0  0  0
 45115  1  0  0  0
 46116  1  0  0  0
 47117  1  0  0  0
 47118  1  0  0  0
 48 56  1  0  0  0
 48 65  1  0  0  0
 48119  1  0  0  0
 49 50  1  0  0  0
 49 53  1  0  0  0
 49 64  1  0  0  0
 49120  1  0  0  0
 50 51  1  0  0  0
 50121  1  0  0  0
 50122  1  0  0  0
 51 52  1  0  0  0
 51123  1  0  0  0
 51124  1  0  0  0
 52125  1  0  0  0
 52126  1  0  0  0
 53 54  1  0  0  0
 54 55  2  0  0  0
 54127  1  0  0  0
 55 57  1  0  0  0
 55128  1  0  0  0
 56 69  2  0  0  0
 57 58  2  0  0  0
 57129  1  0  0  0
 58130  1  0  0  0
 59 60  1  0  0  0
 59 61  1  0  0  0
 59 62  1  0  0  0
 60131  1  0  0  0
 60132  1  0  0  0
 60133  1  0  0  0
 61134  1  0  0  0
 61135  1  0  0  0
 61136  1  0  0  0
 62137  1  0  0  0
 62138  1  0  0  0
 62139  1  0  0  0
 63 65  1  0  0  0
 63140  1  0  0  0
 63141  1  0  0  0
 63142  1  0  0  0
 64143  1  0  0  0
 65144  1  0  0  0
 68 81  1  0  0  0
 71 72  2  0  0  0
 71 75  1  0  0  0
 71145  1  0  0  0
 72 76  1  0  0  0
 72146  1  0  0  0
 73 74  1  0  0  0
 73 76  2  0  0  0
 73147  1  0  0  0
 74 75  2  0  0  0
 74 77  1  0  0  0
 75 78  1  0  0  0
 76 83  1  0  0  0
 77 84  1  0  0  0
 77 85  2  0  0  0
 78148  1  0  0  0
 78149  1  0  0  0
 78150  1  0  0  0
 79151  1  0  0  0
 79152  1  0  0  0
 79153  1  0  0  0
 79 82  1  0  0  0
 80 82  1  0  0  0
 80 84  1  0  0  0
 80154  1  0  0  0
 80155  1  0  0  0
 81 82  1  0  0  0
 81156  1  0  0  0
 81157  1  0  0  0
 82158  1  0  0  0
 83159  1  0  0  0
 84160  1  0  0  0
M  ISO  4   1 100  68 101  81 101  83 100
M  END
> <chiral flag>
0

> <version>
0

> <s_m_source_file>
/data/baiqing/PycharmProjects/Reinvent-master-3.2/result/LINK_invent/BTK/process_docking_weight1_custom_product_contain_oxygen_bond_distance_aromatic_linkinvent_7_9_3/rearranged_h_0053.sdf

> <i_m_source_file_index>
81

> <r_mmod_Potential_Energy-OPLS-2005>
-59.443042755127

> <r_mmod_Stretch_Energy-OPLS-2005>
42.3403968811035

> <r_mmod_Bend_Energy-OPLS-2005>
95.9944076538086

> <r_mmod_Torsional_Energy-OPLS-2005>
268.244140625

> <r_mmod_Improper_Torsional_Energy-OPLS-2005>
5.88033246994019

> <r_mmod_Van_der_Waal_Energy-OPLS-2005>
160.294235229492

> <r_mmod_Electrostatic_Energy-OPLS-2005>
-430.162384033203

> <r_mmod_Solvation_Energy-OPLS-2005>
-220.495880126953

> <b_mmod_Minimization_Converged-OPLS-2005>
0

> <r_mmod_RMS_Derivative-OPLS-2005>
1.38446605205536

$$$$
81
                    3D
 Structure written by MMmdl.
167176  0  0  1  0            999 V2000
  -30.7567  -14.4430   20.6420 C   0  0  0  0  0  0
  -30.4067  -12.3214   19.4208 C   0  0  0  0  0  0
  -29.4845  -12.5227   18.2051 C   0  0  0  0  0  0
  -28.0099  -12.3760   18.6208 C   0  0  0  0  0  0
  -27.6586  -13.2150   19.8795 C   0  0  2  0  0  0
  -28.6997  -13.0059   21.0013 C   0  0  0  0  0  0
  -25.2522  -13.8119   20.5577 C   0  0  0  0  0  0
  -24.1805  -13.0407   20.9146 C   0  0  0  0  0  0
  -24.6396  -11.6888   20.8750 C   0  0  0  0  0  0
  -23.9064  -10.4279   21.0417 C   0  0  0  0  0  0
  -24.3615   -9.4195   21.9190 C   0  0  0  0  0  0
  -23.6289   -8.2235   22.0757 C   0  0  0  0  0  0
  -22.4269   -8.0280   21.3548 C   0  0  0  0  0  0
  -21.9906   -9.0255   20.4650 C   0  0  0  0  0  0
  -22.7241  -10.2131   20.3062 C   0  0  0  0  0  0
  -21.6849   -6.0737   22.5284 C   0  0  0  0  0  0
  -21.4014   -6.5639   23.8218 C   0  0  0  0  0  0
  -21.3653   -5.6788   24.9178 C   0  0  0  0  0  0
  -21.6043   -4.3052   24.7226 C   0  0  0  0  0  0
  -21.8819   -3.8147   23.4344 C   0  0  0  0  0  0
  -21.9190   -4.6966   22.3403 C   0  0  0  0  0  0
  -22.7836  -13.5217   21.1825 C   0  0  0  0  0  0
  -22.1660   -4.2156   21.0981 F   0  0  0  0  0  0
  -21.5623   -3.4531   25.7734 F   0  0  0  0  0  0
  -30.0278  -13.3074   20.4493 N   0  0  0  0  0  0
  -26.3015  -12.9342   20.3412 N   0  0  0  0  0  0
  -25.9340  -11.6491   20.5828 N   0  0  0  0  0  0
  -22.0489  -12.8226   22.0406 N   0  0  0  0  0  0
  -25.4139  -15.1787   20.3773 N   0  0  0  0  0  0
  -31.8274  -14.6371   20.0640 O   0  0  0  0  0  0
  -21.6632   -6.8880   21.4246 O   0  0  0  0  0  0
  -22.3518  -14.5528   20.6689 O   0  0  0  0  0  0
  -24.6164  -31.8676   23.2084 C   0  0  0  0  0  0
  -25.9055  -32.4818   23.8385 C   0  0  1  0  0  0
  -27.2339  -27.4162   20.0849 C   0  0  0  0  0  0
  -25.5912  -33.8617   24.2329 N   0  0  0  0  0  0
  -23.4043  -30.4909   21.5509 C   0  0  2  0  0  0
  -24.8468  -28.9538   20.1151 C   0  0  0  0  0  0
  -22.7416  -29.4660   22.4993 C   0  0  0  0  0  0
  -18.0277  -28.1376   22.8496 C   0  0  0  0  0  0
  -24.1491  -36.7308   23.2635 C   0  0  0  0  0  0
  -25.9347  -30.8260   21.3622 C   0  0  0  0  0  0
  -26.0084  -29.4583   20.7101 C   0  0  0  0  0  0
  -27.1995  -28.6954   20.6948 C   0  0  0  0  0  0
  -26.0398  -26.9215   19.5077 C   0  0  0  0  0  0
  -24.8576  -27.6843   19.5153 C   0  0  0  0  0  0
  -23.6109  -29.8233   20.1652 C   0  0  0  0  0  0
  -25.4109  -36.3109   24.0339 C   0  0  1  0  0  0
  -20.5866  -28.3670   23.1321 C   0  0  2  0  0  0
  -20.6775  -26.9405   22.5423 C   0  0  0  0  0  0
  -19.5752  -26.6384   21.5221 C   0  0  0  0  0  0
  -18.1931  -26.7921   22.1633 C   0  0  0  0  0  0
  -19.1523  -28.8840   23.2907 C   0  0  0  0  0  0
  -18.9447  -30.1449   23.8913 C   0  0  0  0  0  0
  -17.6447  -30.6587   24.0563 C   0  0  0  0  0  0
  -25.9041  -34.9475   23.5129 C   0  0  0  0  0  0
  -16.5342  -29.9083   23.6322 C   0  0  0  0  0  0
  -16.7265  -28.6497   23.0351 C   0  0  0  0  0  0
  -26.4476  -31.6589   25.0712 C   0  0  0  0  0  0
  -25.3740  -31.3681   26.1455 C   0  0  0  0  0  0
  -27.0291  -30.3030   24.6072 C   0  0  0  0  0  0
  -27.6068  -32.4285   25.7470 C   0  0  0  0  0  0
  -27.5582  -37.1807   24.8468 C   0  0  0  0  0  0
  -21.4144  -29.3037   22.3728 N   0  0  0  0  0  0
  -26.4300  -37.3789   23.9407 N   0  0  0  0  0  0
  -24.6707  -31.0765   22.0985 N   0  0  0  0  0  0
  -23.4188  -28.8199   23.3037 O   0  0  0  0  0  0
  -28.4268  -26.7105   20.1007 O   0  0  0  0  0  0
  -26.5605  -34.8927   22.4693 O   0  0  0  0  0  0
  -23.5355  -32.1436   23.7468 O   0  0  0  0  0  0
  -29.3675  -18.8505   20.5974 C   0  0  0  0  0  0
  -28.2425  -16.5690   21.7758 C   0  0  0  0  0  0
  -28.0195  -18.9017   21.0156 C   0  0  0  0  0  0
  -30.1487  -17.6796   20.7598 C   0  0  0  0  0  0
  -27.4734  -17.7494   21.6434 C   0  0  0  0  0  0
  -29.5737  -16.5016   21.3143 C   0  0  0  0  0  0
  -27.5929  -22.4257   21.5318 C   0  0  0  0  0  0
  -27.6288  -23.8928   21.0644 C   0  0  0  0  0  0
  -29.1927  -23.0110   19.2288 C   0  0  0  0  0  0
  -28.1414  -21.8729   19.2224 C   0  0  0  0  0  0
  -28.8174  -24.2217   20.1320 C   0  0  1  0  0  0
  -31.6047  -17.7339   20.3310 C   0  0  0  0  0  0
  -26.0600  -17.7551   22.2072 C   0  0  0  0  0  0
  -27.1299  -20.1314   20.7325 C   0  0  0  0  0  0
  -28.6116  -25.5237   19.3046 C   0  0  0  0  0  0
  -27.7406  -21.4721   20.5802 N   0  0  0  0  0  0
  -30.3441  -15.3230   21.5758 N   0  0  0  0  0  0
  -27.3348  -22.1742   22.7122 O   0  0  0  0  0  0
  -31.4523  -12.4026   19.1201 H   0  0  0  0  0  0
  -30.2989  -11.3112   19.8183 H   0  0  0  0  0  0
  -29.7268  -11.8019   17.4232 H   0  0  0  0  0  0
  -29.6497  -13.5124   17.7758 H   0  0  0  0  0  0
  -27.8247  -11.3192   18.8168 H   0  0  0  0  0  0
  -27.3553  -12.6495   17.7928 H   0  0  0  0  0  0
  -27.7005  -14.2640   19.5852 H   0  0  0  0  0  0
  -28.6778  -11.9740   21.3540 H   0  0  0  0  0  0
  -28.4613  -13.6140   21.8723 H   0  0  0  0  0  0
  -25.2764   -9.5666   22.4759 H   0  0  0  0  0  0
  -24.0001   -7.4620   22.7465 H   0  0  0  0  0  0
  -21.0839   -8.8773   19.8950 H   0  0  0  0  0  0
  -22.3705  -10.9669   19.6164 H   0  0  0  0  0  0
  -21.2012   -7.6147   23.9725 H   0  0  0  0  0  0
  -21.1473   -6.0517   25.9081 H   0  0  0  0  0  0
  -22.0605   -2.7610   23.2842 H   0  0  0  0  0  0
  -22.4097  -11.9889   22.4805 H   0  0  0  0  0  0
  -21.1121  -13.1273   22.2639 H   0  0  0  0  0  0
  -24.6441  -15.8284   20.4823 H   0  0  0  0  0  0
  -26.2850  -15.6291   20.1268 H   0  0  0  0  0  0
  -26.7127  -32.5515   23.1149 H   0  0  0  0  0  0
  -25.0074  -33.9781   25.0482 H   0  0  0  0  0  0
  -22.6941  -31.3086   21.4126 H   0  0  0  0  0  0
  -23.3751  -35.9644   23.3306 H   0  0  0  0  0  0
  -24.3595  -36.8909   22.2049 H   0  0  0  0  0  0
  -23.7248  -37.6518   23.6640 H   0  0  0  0  0  0
  -26.0493  -31.5891   20.5909 H   0  0  0  0  0  0
  -26.8234  -30.8808   21.9792 H   0  0  0  0  0  0
  -28.0982  -29.0864   21.1518 H   0  0  0  0  0  0
  -25.9772  -25.9420   19.0614 H   0  0  0  0  0  0
  -23.9594  -27.2833   19.0659 H   0  0  0  0  0  0
  -23.7193  -30.5986   19.4059 H   0  0  0  0  0  0
  -22.7333  -29.2446   19.8703 H   0  0  0  0  0  0
  -25.1283  -36.1978   25.0833 H   0  0  0  0  0  0
  -20.9963  -28.3239   24.1441 H   0  0  0  0  0  0
  -20.5687  -26.2275   23.3611 H   0  0  0  0  0  0
  -21.6645  -26.7459   22.1209 H   0  0  0  0  0  0
  -19.6915  -25.6296   21.1248 H   0  0  0  0  0  0
  -19.6682  -27.3201   20.6756 H   0  0  0  0  0  0
  -17.4199  -26.6665   21.4038 H   0  0  0  0  0  0
  -18.0331  -26.0066   22.9034 H   0  0  0  0  0  0
  -19.7922  -30.7264   24.2285 H   0  0  0  0  0  0
  -17.5001  -31.6268   24.5161 H   0  0  0  0  0  0
  -15.5344  -30.2989   23.7631 H   0  0  0  0  0  0
  -15.8669  -28.0822   22.7056 H   0  0  0  0  0  0
  -24.5938  -30.7005   25.7782 H   0  0  0  0  0  0
  -24.8904  -32.2825   26.4897 H   0  0  0  0  0  0
  -25.8098  -30.8856   27.0215 H   0  0  0  0  0  0
  -26.2825  -29.6812   24.1116 H   0  0  0  0  0  0
  -27.4060  -29.7240   25.4513 H   0  0  0  0  0  0
  -27.8667  -30.4349   23.9214 H   0  0  0  0  0  0
  -27.2714  -33.3577   26.2079 H   0  0  0  0  0  0
  -28.3859  -32.6846   25.0280 H   0  0  0  0  0  0
  -28.0756  -31.8382   26.5350 H   0  0  0  0  0  0
  -28.2606  -38.0097   24.7507 H   0  0  0  0  0  0
  -28.1073  -36.2631   24.6303 H   0  0  0  0  0  0
  -27.2308  -37.1470   25.8874 H   0  0  0  0  0  0
  -20.9306  -29.8753   21.6943 H   0  0  0  0  0  0
  -26.0189  -38.2872   24.1391 H   0  0  0  0  0  0
  -29.8158  -19.7218   20.1417 H   0  0  0  0  0  0
  -27.8062  -15.7113   22.2676 H   0  0  0  0  0  0
  -27.6315  -24.5598   21.9269 H   0  0  0  0  0  0
  -26.6894  -24.0774   20.5432 H   0  0  0  0  0  0
  -29.3908  -23.3325   18.2049 H   0  0  0  0  0  0
  -30.1380  -22.5950   19.5827 H   0  0  0  0  0  0
  -28.5338  -21.0146   18.6760 H   0  0  0  0  0  0
  -27.2516  -22.1977   18.6805 H   0  0  0  0  0  0
  -29.6776  -24.4070   20.7778 H   0  0  0  0  0  0
  -31.9554  -18.7635   20.2516 H   0  0  0  0  0  0
  -31.7319  -17.2625   19.3566 H   0  0  0  0  0  0
  -32.2497  -17.2287   21.0496 H   0  0  0  0  0  0
  -25.8001  -16.7954   22.6547 H   0  0  0  0  0  0
  -25.3282  -17.9673   21.4278 H   0  0  0  0  0  0
  -25.9627  -18.5081   22.9896 H   0  0  0  0  0  0
  -26.3473  -20.1977   21.4874 H   0  0  0  0  0  0
  -26.5876  -19.9113   19.8115 H   0  0  0  0  0  0
  -27.8700  -25.3771   18.5232 H   0  0  0  0  0  0
  -29.5325  -25.7025   18.7484 H   0  0  0  0  0  0
  -31.1786  -15.5943   22.0738 H   0  0  0  0  0  0
  1 25  1  0  0  0
  1 30  2  0  0  0
  1 87  1  0  0  0
  2  3  1  0  0  0
  2 25  1  0  0  0
  2 89  1  0  0  0
  2 90  1  0  0  0
  3  4  1  0  0  0
  3 91  1  0  0  0
  3 92  1  0  0  0
  4  5  1  0  0  0
  4 93  1  0  0  0
  4 94  1  0  0  0
  5  6  1  0  0  0
  5 26  1  0  0  0
  5 95  1  0  0  0
  6 25  1  0  0  0
  6 96  1  0  0  0
  6 97  1  0  0  0
  7  8  2  0  0  0
  7 26  1  0  0  0
  7 29  1  0  0  0
  8  9  1  0  0  0
  8 22  1  0  0  0
  9 10  1  0  0  0
  9 27  2  0  0  0
 10 11  2  0  0  0
 10 15  1  0  0  0
 11 12  1  0  0  0
 11 98  1  0  0  0
 12 13  2  0  0  0
 12 99  1  0  0  0
 13 14  1  0  0  0
 13 31  1  0  0  0
 14 15  2  0  0  0
 14100  1  0  0  0
 15101  1  0  0  0
 16 17  2  0  0  0
 16 21  1  0  0  0
 16 31  1  0  0  0
 17 18  1  0  0  0
 17102  1  0  0  0
 18 19  2  0  0  0
 18103  1  0  0  0
 19 20  1  0  0  0
 19 24  1  0  0  0
 20 21  2  0  0  0
 20104  1  0  0  0
 21 23  1  0  0  0
 22 28  1  0  0  0
 22 32  2  0  0  0
 26 27  1  0  0  0
 28105  1  0  0  0
 28106  1  0  0  0
 29107  1  0  0  0
 29108  1  0  0  0
 33 34  1  0  0  0
 33 66  1  0  0  0
 33 70  2  0  0  0
 34 36  1  0  0  0
 34 59  1  0  0  0
 34109  1  0  0  0
 35 44  2  0  0  0
 35 45  1  0  0  0
 35 68  1  0  0  0
 36 56  1  0  0  0
 36110  1  0  0  0
 37 39  1  0  0  0
 37 47  1  0  0  0
 37 66  1  0  0  0
 37111  1  0  0  0
 38 43  2  0  0  0
 38 46  1  0  0  0
 38 47  1  0  0  0
 39 64  1  0  0  0
 39 67  2  0  0  0
 40 52  1  0  0  0
 40 53  2  0  0  0
 40 58  1  0  0  0
 41112  1  0  0  0
 41113  1  0  0  0
 41114  1  0  0  0
 41 48  1  0  0  0
 42 43  1  0  0  0
 42 66  1  0  0  0
 42115  1  0  0  0
 42116  1  0  0  0
 43 44  1  0  0  0
 44117  1  0  0  0
 45 46  2  0  0  0
 45118  1  0  0  0
 46119  1  0  0  0
 47120  1  0  0  0
 47121  1  0  0  0
 48 56  1  0  0  0
 48 65  1  0  0  0
 48122  1  0  0  0
 49 50  1  0  0  0
 49 53  1  0  0  0
 49 64  1  0  0  0
 49123  1  0  0  0
 50 51  1  0  0  0
 50124  1  0  0  0
 50125  1  0  0  0
 51 52  1  0  0  0
 51126  1  0  0  0
 51127  1  0  0  0
 52128  1  0  0  0
 52129  1  0  0  0
 53 54  1  0  0  0
 54 55  2  0  0  0
 54130  1  0  0  0
 55 57  1  0  0  0
 55131  1  0  0  0
 56 69  2  0  0  0
 57 58  2  0  0  0
 57132  1  0  0  0
 58133  1  0  0  0
 59 60  1  0  0  0
 59 61  1  0  0  0
 59 62  1  0  0  0
 60134  1  0  0  0
 60135  1  0  0  0
 60136  1  0  0  0
 61137  1  0  0  0
 61138  1  0  0  0
 61139  1  0  0  0
 62140  1  0  0  0
 62141  1  0  0  0
 62142  1  0  0  0
 63 65  1  0  0  0
 63143  1  0  0  0
 63144  1  0  0  0
 63145  1  0  0  0
 64146  1  0  0  0
 65147  1  0  0  0
 68 85  1  0  0  0
 71 73  2  0  0  0
 71 74  1  0  0  0
 71148  1  0  0  0
 72 75  2  0  0  0
 72 76  1  0  0  0
 72149  1  0  0  0
 73 75  1  0  0  0
 73 84  1  0  0  0
 74 76  2  0  0  0
 74 82  1  0  0  0
 75 83  1  0  0  0
 76 87  1  0  0  0
 77 78  1  0  0  0
 77 86  1  0  0  0
 77 88  2  0  0  0
 78 81  1  0  0  0
 78150  1  0  0  0
 78151  1  0  0  0
 79 80  1  0  0  0
 79 81  1  0  0  0
 79152  1  0  0  0
 79153  1  0  0  0
 80 86  1  0  0  0
 80154  1  0  0  0
 80155  1  0  0  0
 81 85  1  0  0  0
 81156  1  0  0  0
 82157  1  0  0  0
 82158  1  0  0  0
 82159  1  0  0  0
 83160  1  0  0  0
 83161  1  0  0  0
 83162  1  0  0  0
 84 86  1  0  0  0
 84163  1  0  0  0
 84164  1  0  0  0
 85165  1  0  0  0
 85166  1  0  0  0
 87167  1  0  0  0
M  ISO  4   1 100  68 101  85 101  87 100
M  END
> <chiral flag>
0

> <version>
0

> <s_m_source_file>
/data/baiqing/PycharmProjects/Reinvent-master-3.2/result/LINK_invent/BTK/process_docking_weight1_custom_product_contain_oxygen_bond_distance_aromatic_linkinvent_7_9_3/rearranged_h_0053.sdf

> <i_m_source_file_index>
82

> <r_mmod_Potential_Energy-OPLS-2005>
17.6534996032715

> <r_mmod_Stretch_Energy-OPLS-2005>
44.6394729614258

> <r_mmod_Bend_Energy-OPLS-2005>
133.939117431641

> <r_mmod_Torsional_Energy-OPLS-2005>
298.710235595703

> <r_mmod_Improper_Torsional_Energy-OPLS-2005>
10.3235473632812

> <r_mmod_Van_der_Waal_Energy-OPLS-2005>
158.20930480957

> <r_mmod_Electrostatic_Energy-OPLS-2005>
-432.026184082031

> <r_mmod_Solvation_Energy-OPLS-2005>
-208.385513305664

> <b_mmod_Minimization_Converged-OPLS-2005>
0

> <r_mmod_RMS_Derivative-OPLS-2005>
1.08524596691132

$$$$
82
                    3D
 Structure written by MMmdl.
154162  0  0  1  0            999 V2000
  -30.5172  -14.9216   20.4520 C   0  0  0  0  0  0
  -30.4534  -12.5704   19.5019 C   0  0  0  0  0  0
  -29.5271  -12.5398   18.2611 C   0  0  0  0  0  0
  -28.0589  -12.3219   18.6752 C   0  0  0  0  0  0
  -27.6396  -13.2401   19.8524 C   0  0  2  0  0  0
  -28.6811  -13.2228   20.9937 C   0  0  0  0  0  0
  -25.2478  -13.8189   20.5651 C   0  0  0  0  0  0
  -24.1792  -13.0430   20.9215 C   0  0  0  0  0  0
  -24.6407  -11.6915   20.8762 C   0  0  0  0  0  0
  -23.9085  -10.4287   21.0416 C   0  0  0  0  0  0
  -24.3631   -9.4200   21.9194 C   0  0  0  0  0  0
  -23.6297   -8.2240   22.0756 C   0  0  0  0  0  0
  -22.4276   -8.0286   21.3546 C   0  0  0  0  0  0
  -21.9926   -9.0259   20.4646 C   0  0  0  0  0  0
  -22.7258  -10.2134   20.3059 C   0  0  0  0  0  0
  -21.6848   -6.0740   22.5279 C   0  0  0  0  0  0
  -21.4010   -6.5640   23.8214 C   0  0  0  0  0  0
  -21.3659   -5.6790   24.9171 C   0  0  0  0  0  0
  -21.6041   -4.3054   24.7219 C   0  0  0  0  0  0
  -21.8817   -3.8149   23.4339 C   0  0  0  0  0  0
  -21.9190   -4.6967   22.3396 C   0  0  0  0  0  0
  -22.7811  -13.5210   21.1863 C   0  0  0  0  0  0
  -22.1657   -4.2159   21.0970 F   0  0  0  0  0  0
  -21.5630   -3.4534   25.7730 F   0  0  0  0  0  0
  -29.9673  -13.6421   20.4160 N   0  0  0  0  0  0
  -26.2928  -12.9418   20.3277 N   0  0  0  0  0  0
  -25.9347  -11.6554   20.5775 N   0  0  0  0  0  0
  -22.0452  -12.8213   22.0423 N   0  0  0  0  0  0
  -25.4103  -15.1901   20.3938 N   0  0  0  0  0  0
  -31.6931  -15.0577   20.0932 O   0  0  0  0  0  0
  -21.6632   -6.8887   21.4240 O   0  0  0  0  0  0
  -22.3498  -14.5511   20.6699 O   0  0  0  0  0  0
  -24.6427  -31.8468   23.1906 C   0  0  0  0  0  0
  -25.9216  -32.4710   23.8292 C   0  0  1  0  0  0
  -27.2117  -27.1385   20.1541 C   0  0  0  0  0  0
  -25.5974  -33.8509   24.2219 N   0  0  0  0  0  0
  -23.4448  -30.4686   21.5347 C   0  0  2  0  0  0
  -24.8949  -28.8992   20.1070 C   0  0  0  0  0  0
  -22.7563  -29.4568   22.4855 C   0  0  0  0  0  0
  -18.0310  -28.1397   22.8467 C   0  0  0  0  0  0
  -24.1487  -36.7239   23.2641 C   0  0  0  0  0  0
  -26.0019  -30.7209   21.3893 C   0  0  0  0  0  0
  -26.0721  -29.3336   20.7278 C   0  0  0  0  0  0
  -27.2310  -28.4694   20.7361 C   0  0  0  0  0  0
  -26.0085  -26.8106   19.4873 C   0  0  0  0  0  0
  -24.8755  -27.6503   19.4709 C   0  0  0  0  0  0
  -23.6710  -29.8017   20.1522 C   0  0  0  0  0  0
  -25.4114  -36.3032   24.0333 C   0  0  1  0  0  0
  -20.5915  -28.3727   23.1233 C   0  0  2  0  0  0
  -20.6792  -26.9429   22.5393 C   0  0  0  0  0  0
  -19.5772  -26.6381   21.5203 C   0  0  0  0  0  0
  -18.1949  -26.7934   22.1610 C   0  0  0  0  0  0
  -19.1564  -28.8879   23.2838 C   0  0  0  0  0  0
  -18.9492  -30.1470   23.8865 C   0  0  0  0  0  0
  -17.6497  -30.6596   24.0557 C   0  0  0  0  0  0
  -25.9074  -34.9408   23.5078 C   0  0  0  0  0  0
  -16.5381  -29.9090   23.6342 C   0  0  0  0  0  0
  -16.7296  -28.6510   23.0360 C   0  0  0  0  0  0
  -26.4546  -31.6561   25.0717 C   0  0  0  0  0  0
  -25.3744  -31.3751   26.1429 C   0  0  0  0  0  0
  -27.0416  -30.2959   24.6283 C   0  0  0  0  0  0
  -27.6083  -32.4332   25.7494 C   0  0  0  0  0  0
  -27.5578  -37.1762   24.8468 C   0  0  0  0  0  0
  -21.4260  -29.3064   22.3613 N   0  0  0  0  0  0
  -26.4276  -37.3751   23.9435 N   0  0  0  0  0  0
  -24.7157  -31.0329   22.0933 N   0  0  0  0  0  0
  -23.4213  -28.8104   23.2990 O   0  0  0  0  0  0
  -28.2502  -26.1384   20.2451 O   0  0  0  0  0  0
  -26.5631  -34.8909   22.4640 O   0  0  0  0  0  0
  -23.5552  -32.1349   23.7121 O   0  0  0  0  0  0
  -28.3482  -19.6758   21.3268 C   0  0  0  0  0  0
  -30.3382  -18.4536   19.8539 C   0  0  0  0  0  0
  -28.6095  -18.2542   21.4466 C   0  0  0  0  0  0
  -30.0849  -19.8973   19.7324 C   0  0  0  0  0  0
  -29.6004  -17.5421   20.6872 C   0  0  0  0  0  0
  -29.0422  -20.5910   20.4705 C   0  0  0  0  0  0
  -28.8992  -23.3608   20.4205 C   0  0  0  0  0  0
  -27.7623  -17.4686   22.4337 C   0  0  0  0  0  0
  -27.9097  -24.6340   20.0298 C   0  0  0  0  0  0
  -30.9697  -20.6717   18.7535 C   0  0  0  0  0  0
  -28.4855  -22.0124   20.2673 N   0  0  0  0  0  0
  -29.6730  -16.0095   20.7806 N   0  0  0  0  0  0
  -30.0199  -23.6117   20.8688 O   0  0  0  0  0  0
  -31.4421  -19.8736   17.7942 F   0  0  0  0  0  0
  -30.3185  -21.6645   18.1474 F   0  0  0  0  0  0
  -32.0081  -21.1804   19.4160 F   0  0  0  0  0  0
  -31.4864  -12.7417   19.1921 H   0  0  0  0  0  0
  -30.4514  -11.6059   20.0093 H   0  0  0  0  0  0
  -29.8430  -11.7566   17.5703 H   0  0  0  0  0  0
  -29.6166  -13.4823   17.7170 H   0  0  0  0  0  0
  -27.9516  -11.2768   18.9689 H   0  0  0  0  0  0
  -27.3963  -12.4674   17.8217 H   0  0  0  0  0  0
  -27.6166  -14.2514   19.4457 H   0  0  0  0  0  0
  -28.7576  -12.2299   21.4364 H   0  0  0  0  0  0
  -28.3780  -13.8902   21.8019 H   0  0  0  0  0  0
  -25.2776   -9.5665   22.4773 H   0  0  0  0  0  0
  -23.9995   -7.4626   22.7484 H   0  0  0  0  0  0
  -21.0860   -8.8792   19.8954 H   0  0  0  0  0  0
  -22.3732  -10.9678   19.6172 H   0  0  0  0  0  0
  -21.2000   -7.6148   23.9720 H   0  0  0  0  0  0
  -21.1480   -6.0516   25.9076 H   0  0  0  0  0  0
  -22.0593   -2.7612   23.2829 H   0  0  0  0  0  0
  -22.4055  -11.9887   22.4836 H   0  0  0  0  0  0
  -21.1074  -13.1258   22.2617 H   0  0  0  0  0  0
  -24.6219  -15.8253   20.4527 H   0  0  0  0  0  0
  -26.2326  -15.6205   19.9909 H   0  0  0  0  0  0
  -26.7276  -32.5325   23.1015 H   0  0  0  0  0  0
  -25.0184  -33.9642   25.0409 H   0  0  0  0  0  0
  -22.7456  -31.2937   21.3827 H   0  0  0  0  0  0
  -23.3786  -35.9532   23.3261 H   0  0  0  0  0  0
  -24.3583  -36.8902   22.2063 H   0  0  0  0  0  0
  -23.7202  -37.6407   23.6700 H   0  0  0  0  0  0
  -26.1584  -31.4785   20.6202 H   0  0  0  0  0  0
  -26.8725  -30.7691   22.0321 H   0  0  0  0  0  0
  -28.1244  -28.7928   21.2494 H   0  0  0  0  0  0
  -25.8962  -25.8581   18.9925 H   0  0  0  0  0  0
  -23.9755  -27.3137   18.9754 H   0  0  0  0  0  0
  -23.8042  -30.5796   19.3997 H   0  0  0  0  0  0
  -22.7861  -29.2455   19.8409 H   0  0  0  0  0  0
  -25.1290  -36.1853   25.0825 H   0  0  0  0  0  0
  -21.0009  -28.3313   24.1357 H   0  0  0  0  0  0
  -20.5696  -26.2340   23.3614 H   0  0  0  0  0  0
  -21.6661  -26.7437   22.1183 H   0  0  0  0  0  0
  -19.6927  -25.6285   21.1265 H   0  0  0  0  0  0
  -19.6707  -27.3166   20.6718 H   0  0  0  0  0  0
  -17.4213  -26.6695   21.4016 H   0  0  0  0  0  0
  -18.0326  -26.0081   22.9009 H   0  0  0  0  0  0
  -19.7969  -30.7288   24.2215 H   0  0  0  0  0  0
  -17.5054  -31.6279   24.5152 H   0  0  0  0  0  0
  -15.5377  -30.2986   23.7693 H   0  0  0  0  0  0
  -15.8693  -28.0820   22.7103 H   0  0  0  0  0  0
  -24.5924  -30.7099   25.7762 H   0  0  0  0  0  0
  -24.8946  -32.2935   26.4819 H   0  0  0  0  0  0
  -25.8042  -30.8952   27.0228 H   0  0  0  0  0  0
  -26.3029  -29.6678   24.1299 H   0  0  0  0  0  0
  -27.4063  -29.7269   25.4839 H   0  0  0  0  0  0
  -27.8922  -30.4224   23.9582 H   0  0  0  0  0  0
  -27.2707  -33.3702   26.1940 H   0  0  0  0  0  0
  -28.3958  -32.6769   25.0348 H   0  0  0  0  0  0
  -28.0674  -31.8532   26.5513 H   0  0  0  0  0  0
  -28.2545  -38.0100   24.7561 H   0  0  0  0  0  0
  -28.1119  -36.2634   24.6229 H   0  0  0  0  0  0
  -27.2306  -37.1320   25.8867 H   0  0  0  0  0  0
  -20.9463  -29.8801   21.6814 H   0  0  0  0  0  0
  -26.0139  -38.2812   24.1472 H   0  0  0  0  0  0
  -27.5394  -20.0818   21.9174 H   0  0  0  0  0  0
  -31.1170  -18.0274   19.2401 H   0  0  0  0  0  0
  -27.2002  -18.1257   23.0989 H   0  0  0  0  0  0
  -28.3874  -16.8329   23.0628 H   0  0  0  0  0  0
  -27.0495  -16.8334   21.9102 H   0  0  0  0  0  0
  -26.9704  -24.4371   20.5481 H   0  0  0  0  0  0
  -27.6976  -24.5113   18.9668 H   0  0  0  0  0  0
  -27.5167  -21.9908   19.9820 H   0  0  0  0  0  0
  -28.8222  -15.6318   21.1669 H   0  0  0  0  0  0
  1 25  1  0  0  0
  1 30  2  0  0  0
  1 82  1  0  0  0
  2  3  1  0  0  0
  2 25  1  0  0  0
  2 87  1  0  0  0
  2 88  1  0  0  0
  3  4  1  0  0  0
  3 89  1  0  0  0
  3 90  1  0  0  0
  4  5  1  0  0  0
  4 91  1  0  0  0
  4 92  1  0  0  0
  5  6  1  0  0  0
  5 26  1  0  0  0
  5 93  1  0  0  0
  6 25  1  0  0  0
  6 94  1  0  0  0
  6 95  1  0  0  0
  7  8  2  0  0  0
  7 26  1  0  0  0
  7 29  1  0  0  0
  8  9  1  0  0  0
  8 22  1  0  0  0
  9 10  1  0  0  0
  9 27  2  0  0  0
 10 11  2  0  0  0
 10 15  1  0  0  0
 11 12  1  0  0  0
 11 96  1  0  0  0
 12 13  2  0  0  0
 12 97  1  0  0  0
 13 14  1  0  0  0
 13 31  1  0  0  0
 14 15  2  0  0  0
 14 98  1  0  0  0
 15 99  1  0  0  0
 16 17  2  0  0  0
 16 21  1  0  0  0
 16 31  1  0  0  0
 17 18  1  0  0  0
 17100  1  0  0  0
 18 19  2  0  0  0
 18101  1  0  0  0
 19 20  1  0  0  0
 19 24  1  0  0  0
 20 21  2  0  0  0
 20102  1  0  0  0
 21 23  1  0  0  0
 22 28  1  0  0  0
 22 32  2  0  0  0
 26 27  1  0  0  0
 28103  1  0  0  0
 28104  1  0  0  0
 29105  1  0  0  0
 29106  1  0  0  0
 33 34  1  0  0  0
 33 66  1  0  0  0
 33 70  2  0  0  0
 34 36  1  0  0  0
 34 59  1  0  0  0
 34107  1  0  0  0
 35 44  2  0  0  0
 35 45  1  0  0  0
 35 68  1  0  0  0
 36 56  1  0  0  0
 36108  1  0  0  0
 37 39  1  0  0  0
 37 47  1  0  0  0
 37 66  1  0  0  0
 37109  1  0  0  0
 38 43  2  0  0  0
 38 46  1  0  0  0
 38 47  1  0  0  0
 39 64  1  0  0  0
 39 67  2  0  0  0
 40 52  1  0  0  0
 40 53  2  0  0  0
 40 58  1  0  0  0
 41110  1  0  0  0
 41111  1  0  0  0
 41112  1  0  0  0
 41 48  1  0  0  0
 42 43  1  0  0  0
 42 66  1  0  0  0
 42113  1  0  0  0
 42114  1  0  0  0
 43 44  1  0  0  0
 44115  1  0  0  0
 45 46  2  0  0  0
 45116  1  0  0  0
 46117  1  0  0  0
 47118  1  0  0  0
 47119  1  0  0  0
 48 56  1  0  0  0
 48 65  1  0  0  0
 48120  1  0  0  0
 49 50  1  0  0  0
 49 53  1  0  0  0
 49 64  1  0  0  0
 49121  1  0  0  0
 50 51  1  0  0  0
 50122  1  0  0  0
 50123  1  0  0  0
 51 52  1  0  0  0
 51124  1  0  0  0
 51125  1  0  0  0
 52126  1  0  0  0
 52127  1  0  0  0
 53 54  1  0  0  0
 54 55  2  0  0  0
 54128  1  0  0  0
 55 57  1  0  0  0
 55129  1  0  0  0
 56 69  2  0  0  0
 57 58  2  0  0  0
 57130  1  0  0  0
 58131  1  0  0  0
 59 60  1  0  0  0
 59 61  1  0  0  0
 59 62  1  0  0  0
 60132  1  0  0  0
 60133  1  0  0  0
 60134  1  0  0  0
 61135  1  0  0  0
 61136  1  0  0  0
 61137  1  0  0  0
 62138  1  0  0  0
 62139  1  0  0  0
 62140  1  0  0  0
 63 65  1  0  0  0
 63141  1  0  0  0
 63142  1  0  0  0
 63143  1  0  0  0
 64144  1  0  0  0
 65145  1  0  0  0
 68 79  1  0  0  0
 71 73  2  0  0  0
 71 76  1  0  0  0
 71146  1  0  0  0
 72 74  1  0  0  0
 72 75  2  0  0  0
 72147  1  0  0  0
 73 75  1  0  0  0
 73 78  1  0  0  0
 74 76  2  0  0  0
 74 80  1  0  0  0
 75 82  1  0  0  0
 76 81  1  0  0  0
 77 79  1  0  0  0
 77 81  1  0  0  0
 77 83  2  0  0  0
 78148  1  0  0  0
 78149  1  0  0  0
 78150  1  0  0  0
 79151  1  0  0  0
 79152  1  0  0  0
 80 84  1  0  0  0
 80 85  1  0  0  0
 80 86  1  0  0  0
 81153  1  0  0  0
 82154  1  0  0  0
M  ISO  4   1 100  68 101  79 101  82 100
M  END
> <chiral flag>
0

> <version>
0

> <s_m_source_file>
/data/baiqing/PycharmProjects/Reinvent-master-3.2/result/LINK_invent/BTK/process_docking_weight1_custom_product_contain_oxygen_bond_distance_aromatic_linkinvent_7_9_3/rearranged_h_0053.sdf

> <i_m_source_file_index>
83

> <r_mmod_Potential_Energy-OPLS-2005>
457.784088134766

> <r_mmod_Stretch_Energy-OPLS-2005>
227.27424621582

> <r_mmod_Bend_Energy-OPLS-2005>
263.616760253906

> <r_mmod_Torsional_Energy-OPLS-2005>
247.346893310547

> <r_mmod_Improper_Torsional_Energy-OPLS-2005>
5.21809148788452

> <r_mmod_Van_der_Waal_Energy-OPLS-2005>
132.898910522461

> <r_mmod_Electrostatic_Energy-OPLS-2005>
-353.594665527344

> <r_mmod_Solvation_Energy-OPLS-2005>
-249.980026245117

> <b_mmod_Minimization_Converged-OPLS-2005>
0

> <r_mmod_RMS_Derivative-OPLS-2005>
2.14577674865723

$$$$
83
                    3D
 Structure written by MMmdl.
161169  0  0  1  0            999 V2000
  -30.4901  -15.0674   20.4055 C   0  0  0  0  0  0
  -30.4435  -12.6737   19.4920 C   0  0  0  0  0  0
  -29.5241  -12.5420   18.2547 C   0  0  0  0  0  0
  -28.0631  -12.3033   18.6817 C   0  0  0  0  0  0
  -27.6196  -13.2532   19.8244 C   0  0  2  0  0  0
  -28.6641  -13.3362   20.9557 C   0  0  0  0  0  0
  -25.2432  -13.8209   20.5723 C   0  0  0  0  0  0
  -24.1766  -13.0421   20.9243 C   0  0  0  0  0  0
  -24.6394  -11.6909   20.8760 C   0  0  0  0  0  0
  -23.9083  -10.4283   21.0409 C   0  0  0  0  0  0
  -24.3632   -9.4196   21.9182 C   0  0  0  0  0  0
  -23.6305   -8.2236   22.0752 C   0  0  0  0  0  0
  -22.4285   -8.0280   21.3544 C   0  0  0  0  0  0
  -21.9925   -9.0250   20.4642 C   0  0  0  0  0  0
  -22.7258  -10.2125   20.3053 C   0  0  0  0  0  0
  -21.6857   -6.0738   22.5279 C   0  0  0  0  0  0
  -21.4014   -6.5638   23.8213 C   0  0  0  0  0  0
  -21.3661   -5.6790   24.9177 C   0  0  0  0  0  0
  -21.6048   -4.3054   24.7228 C   0  0  0  0  0  0
  -21.8818   -3.8145   23.4348 C   0  0  0  0  0  0
  -21.9194   -4.6964   22.3404 C   0  0  0  0  0  0
  -22.7783  -13.5185   21.1896 C   0  0  0  0  0  0
  -22.1660   -4.2148   21.0982 F   0  0  0  0  0  0
  -21.5630   -3.4536   25.7742 F   0  0  0  0  0  0
  -29.9150  -13.7896   20.3341 N   0  0  0  0  0  0
  -26.2847  -12.9444   20.3208 N   0  0  0  0  0  0
  -25.9323  -11.6568   20.5714 N   0  0  0  0  0  0
  -22.0436  -12.8177   22.0451 N   0  0  0  0  0  0
  -25.4065  -15.1950   20.4163 N   0  0  0  0  0  0
  -31.7157  -15.1119   20.2420 O   0  0  0  0  0  0
  -21.6643   -6.8882   21.4242 O   0  0  0  0  0  0
  -22.3464  -14.5489   20.6737 O   0  0  0  0  0  0
  -24.6512  -31.8368   23.1802 C   0  0  0  0  0  0
  -25.9250  -32.4654   23.8216 C   0  0  1  0  0  0
  -27.2151  -27.0515   20.1757 C   0  0  0  0  0  0
  -25.5971  -33.8465   24.2135 N   0  0  0  0  0  0
  -23.4577  -30.4527   21.5287 C   0  0  2  0  0  0
  -24.9059  -28.8553   20.1225 C   0  0  0  0  0  0
  -22.7596  -29.4520   22.4842 C   0  0  0  0  0  0
  -18.0307  -28.1401   22.8470 C   0  0  0  0  0  0
  -24.1496  -36.7242   23.2645 C   0  0  0  0  0  0
  -26.0191  -30.6835   21.3899 C   0  0  0  0  0  0
  -26.0883  -29.2834   20.7397 C   0  0  0  0  0  0
  -27.2450  -28.4027   20.7383 C   0  0  0  0  0  0
  -26.0011  -26.7376   19.5328 C   0  0  0  0  0  0
  -24.8790  -27.5969   19.5020 C   0  0  0  0  0  0
  -23.6891  -29.7710   20.1537 C   0  0  0  0  0  0
  -25.4133  -36.3011   24.0306 C   0  0  1  0  0  0
  -20.5923  -28.3741   23.1214 C   0  0  2  0  0  0
  -20.6796  -26.9435   22.5404 C   0  0  0  0  0  0
  -19.5771  -26.6380   21.5213 C   0  0  0  0  0  0
  -18.1946  -26.7937   22.1617 C   0  0  0  0  0  0
  -19.1564  -28.8888   23.2831 C   0  0  0  0  0  0
  -18.9484  -30.1483   23.8860 C   0  0  0  0  0  0
  -17.6483  -30.6598   24.0557 C   0  0  0  0  0  0
  -25.9089  -34.9389   23.5035 C   0  0  0  0  0  0
  -16.5372  -29.9090   23.6343 C   0  0  0  0  0  0
  -16.7291  -28.6509   23.0360 C   0  0  0  0  0  0
  -26.4541  -31.6553   25.0692 C   0  0  0  0  0  0
  -25.3701  -31.3769   26.1370 C   0  0  0  0  0  0
  -27.0426  -30.2935   24.6342 C   0  0  0  0  0  0
  -27.6047  -32.4342   25.7493 C   0  0  0  0  0  0
  -27.5577  -37.1775   24.8460 C   0  0  0  0  0  0
  -21.4282  -29.3059   22.3584 N   0  0  0  0  0  0
  -26.4287  -37.3734   23.9406 N   0  0  0  0  0  0
  -24.7299  -31.0144   22.0876 N   0  0  0  0  0  0
  -23.4202  -28.8080   23.3029 O   0  0  0  0  0  0
  -28.2813  -26.0566   20.1368 O   0  0  0  0  0  0
  -26.5681  -34.8902   22.4620 O   0  0  0  0  0  0
  -23.5614  -32.1278   23.6982 O   0  0  0  0  0  0
  -30.1720  -20.6303   21.4602 C   0  0  0  0  0  0
  -29.1262  -18.9817   20.0348 C   0  0  0  0  0  0
  -30.7607  -18.2028   21.6210 C   0  0  0  0  0  0
  -29.2648  -20.4402   20.4004 C   0  0  0  0  0  0
  -30.9157  -19.5575   22.0369 C   0  0  0  0  0  0
  -29.8573  -17.7997   20.6133 C   0  0  0  0  0  0
  -28.5717  -21.7305   19.6898 C   0  0  0  0  0  0
  -31.8700  -19.8219   23.1420 C   0  0  0  0  0  0
  -28.2121  -23.1504   19.6765 C   0  0  0  0  0  0
  -27.5571  -23.4784   18.4201 C   0  0  0  0  0  0
  -33.0842  -21.5783   22.1012 C   0  0  0  0  0  0
  -28.0496  -24.0355   16.0628 C   0  0  0  0  0  0
  -28.2319  -24.5323   20.6204 C   0  0  0  0  0  0
  -32.7828  -20.7128   23.2282 N   0  0  0  0  0  0
  -29.6779  -16.2649   20.3540 N   0  0  0  0  0  0
  -28.4284  -23.7020   17.4302 N   0  0  0  0  0  0
  -26.3378  -23.4988   18.2459 O   0  0  0  0  0  0
  -31.4686  -12.8641   19.1710 H   0  0  0  0  0  0
  -30.4745  -11.7404   20.0565 H   0  0  0  0  0  0
  -29.8650  -11.7299   17.6109 H   0  0  0  0  0  0
  -29.5860  -13.4526   17.6571 H   0  0  0  0  0  0
  -27.9856  -11.2683   19.0164 H   0  0  0  0  0  0
  -27.3956  -12.3968   17.8243 H   0  0  0  0  0  0
  -27.5603  -14.2410   19.3672 H   0  0  0  0  0  0
  -28.7878  -12.3742   21.4550 H   0  0  0  0  0  0
  -28.3450  -14.0462   21.7205 H   0  0  0  0  0  0
  -25.2772   -9.5672   22.4761 H   0  0  0  0  0  0
  -24.0011   -7.4627   22.7471 H   0  0  0  0  0  0
  -21.0857   -8.8770   19.8942 H   0  0  0  0  0  0
  -22.3718  -10.9668   19.6165 H   0  0  0  0  0  0
  -21.2002   -7.6144   23.9719 H   0  0  0  0  0  0
  -21.1485   -6.0518   25.9081 H   0  0  0  0  0  0
  -22.0597   -2.7607   23.2849 H   0  0  0  0  0  0
  -22.4062  -11.9849   22.4853 H   0  0  0  0  0  0
  -21.1040  -13.1179   22.2633 H   0  0  0  0  0  0
  -24.6347  -15.8420   20.5386 H   0  0  0  0  0  0
  -26.2457  -15.6441   20.0754 H   0  0  0  0  0  0
  -26.7315  -32.5224   23.0938 H   0  0  0  0  0  0
  -25.0091  -33.9563   25.0265 H   0  0  0  0  0  0
  -22.7645  -31.2809   21.3653 H   0  0  0  0  0  0
  -23.3770  -35.9561   23.3278 H   0  0  0  0  0  0
  -24.3580  -36.8910   22.2066 H   0  0  0  0  0  0
  -23.7237  -37.6420   23.6710 H   0  0  0  0  0  0
  -26.1818  -31.4278   20.6097 H   0  0  0  0  0  0
  -26.8875  -30.7388   22.0349 H   0  0  0  0  0  0
  -28.1533  -28.7367   21.2203 H   0  0  0  0  0  0
  -25.9001  -25.7795   19.0515 H   0  0  0  0  0  0
  -23.9784  -27.2600   19.0073 H   0  0  0  0  0  0
  -23.8362  -30.5388   19.3931 H   0  0  0  0  0  0
  -22.8005  -29.2189   19.8422 H   0  0  0  0  0  0
  -25.1327  -36.1827   25.0798 H   0  0  0  0  0  0
  -21.0007  -28.3348   24.1341 H   0  0  0  0  0  0
  -20.5688  -26.2362   23.3637 H   0  0  0  0  0  0
  -21.6662  -26.7436   22.1204 H   0  0  0  0  0  0
  -19.6936  -25.6283   21.1266 H   0  0  0  0  0  0
  -19.6708  -27.3173   20.6730 H   0  0  0  0  0  0
  -17.4220  -26.6681   21.4016 H   0  0  0  0  0  0
  -18.0341  -26.0082   22.9018 H   0  0  0  0  0  0
  -19.7964  -30.7306   24.2204 H   0  0  0  0  0  0
  -17.5041  -31.6269   24.5177 H   0  0  0  0  0  0
  -15.5374  -30.2984   23.7693 H   0  0  0  0  0  0
  -15.8689  -28.0822   22.7097 H   0  0  0  0  0  0
  -24.5893  -30.7106   25.7684 H   0  0  0  0  0  0
  -24.8879  -32.2962   26.4705 H   0  0  0  0  0  0
  -25.7962  -30.8997   27.0204 H   0  0  0  0  0  0
  -26.3071  -29.6626   24.1340 H   0  0  0  0  0  0
  -27.3995  -29.7272   25.4955 H   0  0  0  0  0  0
  -27.8991  -30.4144   23.9706 H   0  0  0  0  0  0
  -27.2623  -33.3672   26.1985 H   0  0  0  0  0  0
  -28.3909  -32.6861   25.0362 H   0  0  0  0  0  0
  -28.0660  -31.8523   26.5483 H   0  0  0  0  0  0
  -28.2573  -38.0094   24.7529 H   0  0  0  0  0  0
  -28.1096  -36.2621   24.6268 H   0  0  0  0  0  0
  -27.2291  -37.1396   25.8861 H   0  0  0  0  0  0
  -20.9516  -29.8769   21.6743 H   0  0  0  0  0  0
  -26.0145  -38.2795   24.1425 H   0  0  0  0  0  0
  -30.3289  -21.6367   21.8216 H   0  0  0  0  0  0
  -28.4192  -18.7590   19.2481 H   0  0  0  0  0  0
  -31.3416  -17.4433   22.1261 H   0  0  0  0  0  0
  -28.2539  -21.2783   18.7571 H   0  0  0  0  0  0
  -31.7530  -19.1407   23.9895 H   0  0  0  0  0  0
  -32.9385  -21.0948   21.1323 H   0  0  0  0  0  0
  -34.1290  -21.8899   22.1366 H   0  0  0  0  0  0
  -32.4810  -22.4868   22.1301 H   0  0  0  0  0  0
  -28.9363  -24.1639   15.4414 H   0  0  0  0  0  0
  -27.4774  -24.9641   16.0350 H   0  0  0  0  0  0
  -27.4393  -23.2446   15.6234 H   0  0  0  0  0  0
  -29.0763  -24.4081   21.2982 H   0  0  0  0  0  0
  -27.3529  -24.4589   21.2615 H   0  0  0  0  0  0
  -28.7203  -16.0224   20.1528 H   0  0  0  0  0  0
  -29.4152  -23.6473   17.6470 H   0  0  0  0  0  0
  1 25  1  0  0  0
  1 30  2  0  0  0
  1 85  1  0  0  0
  2  3  1  0  0  0
  2 25  1  0  0  0
  2 88  1  0  0  0
  2 89  1  0  0  0
  3  4  1  0  0  0
  3 90  1  0  0  0
  3 91  1  0  0  0
  4  5  1  0  0  0
  4 92  1  0  0  0
  4 93  1  0  0  0
  5  6  1  0  0  0
  5 26  1  0  0  0
  5 94  1  0  0  0
  6 25  1  0  0  0
  6 95  1  0  0  0
  6 96  1  0  0  0
  7  8  2  0  0  0
  7 26  1  0  0  0
  7 29  1  0  0  0
  8  9  1  0  0  0
  8 22  1  0  0  0
  9 10  1  0  0  0
  9 27  2  0  0  0
 10 11  2  0  0  0
 10 15  1  0  0  0
 11 12  1  0  0  0
 11 97  1  0  0  0
 12 13  2  0  0  0
 12 98  1  0  0  0
 13 14  1  0  0  0
 13 31  1  0  0  0
 14 15  2  0  0  0
 14 99  1  0  0  0
 15100  1  0  0  0
 16 17  2  0  0  0
 16 21  1  0  0  0
 16 31  1  0  0  0
 17 18  1  0  0  0
 17101  1  0  0  0
 18 19  2  0  0  0
 18102  1  0  0  0
 19 20  1  0  0  0
 19 24  1  0  0  0
 20 21  2  0  0  0
 20103  1  0  0  0
 21 23  1  0  0  0
 22 28  1  0  0  0
 22 32  2  0  0  0
 26 27  1  0  0  0
 28104  1  0  0  0
 28105  1  0  0  0
 29106  1  0  0  0
 29107  1  0  0  0
 33 34  1  0  0  0
 33 66  1  0  0  0
 33 70  2  0  0  0
 34 36  1  0  0  0
 34 59  1  0  0  0
 34108  1  0  0  0
 35 44  2  0  0  0
 35 45  1  0  0  0
 35 68  1  0  0  0
 36 56  1  0  0  0
 36109  1  0  0  0
 37 39  1  0  0  0
 37 47  1  0  0  0
 37 66  1  0  0  0
 37110  1  0  0  0
 38 43  2  0  0  0
 38 46  1  0  0  0
 38 47  1  0  0  0
 39 64  1  0  0  0
 39 67  2  0  0  0
 40 52  1  0  0  0
 40 53  2  0  0  0
 40 58  1  0  0  0
 41111  1  0  0  0
 41112  1  0  0  0
 41113  1  0  0  0
 41 48  1  0  0  0
 42 43  1  0  0  0
 42 66  1  0  0  0
 42114  1  0  0  0
 42115  1  0  0  0
 43 44  1  0  0  0
 44116  1  0  0  0
 45 46  2  0  0  0
 45117  1  0  0  0
 46118  1  0  0  0
 47119  1  0  0  0
 47120  1  0  0  0
 48 56  1  0  0  0
 48 65  1  0  0  0
 48121  1  0  0  0
 49 50  1  0  0  0
 49 53  1  0  0  0
 49 64  1  0  0  0
 49122  1  0  0  0
 50 51  1  0  0  0
 50123  1  0  0  0
 50124  1  0  0  0
 51 52  1  0  0  0
 51125  1  0  0  0
 51126  1  0  0  0
 52127  1  0  0  0
 52128  1  0  0  0
 53 54  1  0  0  0
 54 55  2  0  0  0
 54129  1  0  0  0
 55 57  1  0  0  0
 55130  1  0  0  0
 56 69  2  0  0  0
 57 58  2  0  0  0
 57131  1  0  0  0
 58132  1  0  0  0
 59 60  1  0  0  0
 59 61  1  0  0  0
 59 62  1  0  0  0
 60133  1  0  0  0
 60134  1  0  0  0
 60135  1  0  0  0
 61136  1  0  0  0
 61137  1  0  0  0
 61138  1  0  0  0
 62139  1  0  0  0
 62140  1  0  0  0
 62141  1  0  0  0
 63 65  1  0  0  0
 63142  1  0  0  0
 63143  1  0  0  0
 63144  1  0  0  0
 64145  1  0  0  0
 65146  1  0  0  0
 68 83  1  0  0  0
 71 74  2  0  0  0
 71 75  1  0  0  0
 71147  1  0  0  0
 72 74  1  0  0  0
 72 76  2  0  0  0
 72148  1  0  0  0
 73 75  2  0  0  0
 73 76  1  0  0  0
 73149  1  0  0  0
 74 77  1  0  0  0
 75 78  1  0  0  0
 76 85  1  0  0  0
 77 79  2  0  0  0
 77150  1  0  0  0
 78 84  2  0  0  0
 78151  1  0  0  0
 79 80  1  0  0  0
 79 83  1  0  0  0
 80 86  1  0  0  0
 80 87  2  0  0  0
 81 84  1  0  0  0
 81152  1  0  0  0
 81153  1  0  0  0
 81154  1  0  0  0
 82 86  1  0  0  0
 82155  1  0  0  0
 82156  1  0  0  0
 82157  1  0  0  0
 83158  1  0  0  0
 83159  1  0  0  0
 85160  1  0  0  0
 86161  1  0  0  0
M  ISO  4   1 100  68 101  83 101  85 100
M  END
> <chiral flag>
0

> <version>
0

> <s_m_source_file>
/data/baiqing/PycharmProjects/Reinvent-master-3.2/result/LINK_invent/BTK/process_docking_weight1_custom_product_contain_oxygen_bond_distance_aromatic_linkinvent_7_9_3/rearranged_h_0053.sdf

> <i_m_source_file_index>
84

> <r_mmod_Potential_Energy-OPLS-2005>
782.280517578125

> <r_mmod_Stretch_Energy-OPLS-2005>
348.995391845703

> <r_mmod_Bend_Energy-OPLS-2005>
383.762023925781

> <r_mmod_Torsional_Energy-OPLS-2005>
287.086151123047

> <r_mmod_Improper_Torsional_Energy-OPLS-2005>
8.57881259918213

> <r_mmod_Van_der_Waal_Energy-OPLS-2005>
133.274261474609

> <r_mmod_Electrostatic_Energy-OPLS-2005>
-396.706695556641

> <r_mmod_Solvation_Energy-OPLS-2005>
-258.439849853516

> <b_mmod_Minimization_Converged-OPLS-2005>
0

> <r_mmod_RMS_Derivative-OPLS-2005>
0.8877312541008

$$$$
84
                    3D
 Structure written by MMmdl.
167176  0  0  1  0            999 V2000
  -30.6879  -14.4684   20.6654 C   0  0  0  0  0  0
  -30.4392  -12.3451   19.4010 C   0  0  0  0  0  0
  -29.4981  -12.5521   18.1960 C   0  0  0  0  0  0
  -28.0211  -12.3902   18.6054 C   0  0  0  0  0  0
  -27.6680  -13.2047   19.8763 C   0  0  2  0  0  0
  -28.7049  -12.9424   20.9883 C   0  0  0  0  0  0
  -25.2615  -13.8160   20.5601 C   0  0  0  0  0  0
  -24.1848  -13.0448   20.9097 C   0  0  0  0  0  0
  -24.6392  -11.6908   20.8650 C   0  0  0  0  0  0
  -23.9030  -10.4319   21.0345 C   0  0  0  0  0  0
  -24.3572   -9.4258   21.9137 C   0  0  0  0  0  0
  -23.6253   -8.2295   22.0725 C   0  0  0  0  0  0
  -22.4238   -8.0295   21.3536 C   0  0  0  0  0  0
  -21.9878   -9.0247   20.4626 C   0  0  0  0  0  0
  -22.7185  -10.2141   20.3013 C   0  0  0  0  0  0
  -21.6873   -6.0704   22.5271 C   0  0  0  0  0  0
  -21.4037   -6.5591   23.8204 C   0  0  0  0  0  0
  -21.3672   -5.6739   24.9159 C   0  0  0  0  0  0
  -21.6039   -4.3003   24.7199 C   0  0  0  0  0  0
  -21.8830   -3.8099   23.4323 C   0  0  0  0  0  0
  -21.9218   -4.6930   22.3389 C   0  0  0  0  0  0
  -22.7861  -13.5233   21.1763 C   0  0  0  0  0  0
  -22.1690   -4.2122   21.0965 F   0  0  0  0  0  0
  -21.5631   -3.4480   25.7716 F   0  0  0  0  0  0
  -30.0476  -13.2786   20.4715 N   0  0  0  0  0  0
  -26.3056  -12.9318   20.3309 N   0  0  0  0  0  0
  -25.9326  -11.6483   20.5678 N   0  0  0  0  0  0
  -22.0544  -12.8259   22.0384 N   0  0  0  0  0  0
  -25.4355  -15.1889   20.4032 N   0  0  0  0  0  0
  -31.7060  -14.7886   20.0440 O   0  0  0  0  0  0
  -21.6630   -6.8867   21.4239 O   0  0  0  0  0  0
  -22.3477  -14.5459   20.6525 O   0  0  0  0  0  0
  -24.6187  -31.8627   23.2090 C   0  0  0  0  0  0
  -25.9079  -32.4785   23.8370 C   0  0  1  0  0  0
  -27.2418  -27.3999   20.0920 C   0  0  0  0  0  0
  -25.5930  -33.8587   24.2300 N   0  0  0  0  0  0
  -23.4086  -30.4882   21.5461 C   0  0  2  0  0  0
  -24.8573  -28.9505   20.1182 C   0  0  0  0  0  0
  -22.7418  -29.4644   22.4936 C   0  0  0  0  0  0
  -18.0271  -28.1397   22.8461 C   0  0  0  0  0  0
  -24.1489  -36.7317   23.2632 C   0  0  0  0  0  0
  -25.9414  -30.8157   21.3694 C   0  0  0  0  0  0
  -26.0187  -29.4459   20.7224 C   0  0  0  0  0  0
  -27.2086  -28.6749   20.7160 C   0  0  0  0  0  0
  -26.0512  -26.9343   19.4777 C   0  0  0  0  0  0
  -24.8690  -27.6926   19.4989 C   0  0  0  0  0  0
  -23.6234  -29.8222   20.1618 C   0  0  0  0  0  0
  -25.4110  -36.3079   24.0321 C   0  0  1  0  0  0
  -20.5858  -28.3694   23.1292 C   0  0  2  0  0  0
  -20.6768  -26.9424   22.5414 C   0  0  0  0  0  0
  -19.5770  -26.6392   21.5200 C   0  0  0  0  0  0
  -18.1936  -26.7940   22.1593 C   0  0  0  0  0  0
  -19.1516  -28.8860   23.2875 C   0  0  0  0  0  0
  -18.9454  -30.1457   23.8904 C   0  0  0  0  0  0
  -17.6462  -30.6599   24.0566 C   0  0  0  0  0  0
  -25.9041  -34.9451   23.5104 C   0  0  0  0  0  0
  -16.5351  -29.9104   23.6328 C   0  0  0  0  0  0
  -16.7259  -28.6525   23.0329 C   0  0  0  0  0  0
  -26.4514  -31.6575   25.0702 C   0  0  0  0  0  0
  -25.3801  -31.3685   26.1458 C   0  0  0  0  0  0
  -27.0346  -30.3008   24.6112 C   0  0  0  0  0  0
  -27.6067  -32.4311   25.7485 C   0  0  0  0  0  0
  -27.5578  -37.1809   24.8460 C   0  0  0  0  0  0
  -21.4136  -29.3062   22.3691 N   0  0  0  0  0  0
  -26.4285  -37.3779   23.9406 N   0  0  0  0  0  0
  -24.6741  -31.0703   22.1000 N   0  0  0  0  0  0
  -23.4160  -28.8175   23.2991 O   0  0  0  0  0  0
  -28.4113  -26.6440   20.1104 O   0  0  0  0  0  0
  -26.5587  -34.8914   22.4652 O   0  0  0  0  0  0
  -23.5381  -32.1390   23.7486 O   0  0  0  0  0  0
  -28.7473  -19.2450   21.7111 C   0  0  0  0  0  0
  -30.3403  -17.6098   20.8847 C   0  0  0  0  0  0
  -29.8606  -18.9487   20.9036 C   0  0  0  0  0  0
  -28.1697  -18.2723   22.5463 C   0  0  0  0  0  0
  -28.7094  -16.9537   22.6103 C   0  0  0  0  0  0
  -29.7619  -16.5945   21.7044 C   0  0  0  0  0  0
  -30.2773  -22.2961   21.1420 C   0  0  0  0  0  0
  -29.6181  -23.6993   21.1145 C   0  0  0  0  0  0
  -29.7897  -23.3946   18.5755 C   0  0  0  0  0  0
  -29.2898  -21.9749   18.9457 C   0  0  0  0  0  0
  -29.6255  -24.4220   19.7296 C   0  0  1  0  0  0
  -26.9335  -18.6909   23.3330 C   0  0  0  0  0  0
  -30.5187  -20.0433   20.0361 C   0  0  0  0  0  0
  -28.3761  -25.3312   19.5052 C   0  0  0  0  0  0
  -28.1232  -15.9523   23.6340 C   0  0  0  0  0  0
  -29.9986  -21.4410   20.1231 N   0  0  0  0  0  0
  -30.1814  -15.2154   21.6640 N   0  0  0  0  0  0
  -30.9982  -21.9903   22.0950 O   0  0  0  0  0  0
  -26.9542  -15.4884   23.1990 F   0  0  0  0  0  0
  -28.9016  -14.8974   23.8842 F   0  0  0  0  0  0
  -27.9341  -16.5295   24.8182 F   0  0  0  0  0  0
  -31.4754  -12.4887   19.0881 H   0  0  0  0  0  0
  -30.3703  -11.3194   19.7631 H   0  0  0  0  0  0
  -29.7402  -11.8425   17.4059 H   0  0  0  0  0  0
  -29.6600  -13.5445   17.7706 H   0  0  0  0  0  0
  -27.8389  -11.3289   18.7781 H   0  0  0  0  0  0
  -27.3683  -12.6787   17.7805 H   0  0  0  0  0  0
  -27.7265  -14.2615   19.6138 H   0  0  0  0  0  0
  -28.6837  -11.8903   21.2802 H   0  0  0  0  0  0
  -28.4225  -13.4899   21.8855 H   0  0  0  0  0  0
  -25.2736   -9.5724   22.4665 H   0  0  0  0  0  0
  -23.9977   -7.4680   22.7407 H   0  0  0  0  0  0
  -21.0831   -8.8711   19.8911 H   0  0  0  0  0  0
  -22.3626  -10.9633   19.6068 H   0  0  0  0  0  0
  -21.2018   -7.6099   23.9703 H   0  0  0  0  0  0
  -21.1484   -6.0456   25.9067 H   0  0  0  0  0  0
  -22.0602   -2.7560   23.2812 H   0  0  0  0  0  0
  -22.4180  -11.9946   22.4797 H   0  0  0  0  0  0
  -21.1119  -13.1192   22.2535 H   0  0  0  0  0  0
  -24.6793  -15.8501   20.5405 H   0  0  0  0  0  0
  -26.3131  -15.6365   20.1726 H   0  0  0  0  0  0
  -26.7134  -32.5484   23.1105 H   0  0  0  0  0  0
  -25.0109  -33.9734   25.0467 H   0  0  0  0  0  0
  -22.7004  -31.3067   21.4015 H   0  0  0  0  0  0
  -23.3734  -35.9669   23.3289 H   0  0  0  0  0  0
  -24.3593  -36.8948   22.2053 H   0  0  0  0  0  0
  -23.7268  -37.6529   23.6665 H   0  0  0  0  0  0
  -26.0546  -31.5771   20.5960 H   0  0  0  0  0  0
  -26.8287  -30.8707   21.9885 H   0  0  0  0  0  0
  -28.0984  -29.0526   21.2025 H   0  0  0  0  0  0
  -25.9966  -25.9838   18.9695 H   0  0  0  0  0  0
  -23.9775  -27.3032   19.0276 H   0  0  0  0  0  0
  -23.7460  -30.5948   19.4016 H   0  0  0  0  0  0
  -22.7479  -29.2457   19.8564 H   0  0  0  0  0  0
  -25.1298  -36.1911   25.0815 H   0  0  0  0  0  0
  -20.9941  -28.3277   24.1414 H   0  0  0  0  0  0
  -20.5671  -26.2304   23.3604 H   0  0  0  0  0  0
  -21.6643  -26.7471   22.1211 H   0  0  0  0  0  0
  -19.6942  -25.6299   21.1250 H   0  0  0  0  0  0
  -19.6737  -27.3181   20.6720 H   0  0  0  0  0  0
  -17.4209  -26.6657   21.3994 H   0  0  0  0  0  0
  -18.0356  -26.0085   22.9002 H   0  0  0  0  0  0
  -19.7940  -30.7254   24.2276 H   0  0  0  0  0  0
  -17.5035  -31.6278   24.5170 H   0  0  0  0  0  0
  -15.5356  -30.3023   23.7674 H   0  0  0  0  0  0
  -15.8645  -28.0879   22.7029 H   0  0  0  0  0  0
  -24.5971  -30.7010   25.7836 H   0  0  0  0  0  0
  -24.8989  -32.2831   26.4938 H   0  0  0  0  0  0
  -25.8182  -30.8860   27.0200 H   0  0  0  0  0  0
  -26.2872  -29.6733   24.1223 H   0  0  0  0  0  0
  -27.4153  -29.7287   25.4587 H   0  0  0  0  0  0
  -27.8706  -30.4310   23.9230 H   0  0  0  0  0  0
  -27.2653  -33.3594   26.2092 H   0  0  0  0  0  0
  -28.3880  -32.6901   25.0322 H   0  0  0  0  0  0
  -28.0728  -31.8410   26.5389 H   0  0  0  0  0  0
  -28.2586  -38.0120   24.7498 H   0  0  0  0  0  0
  -28.1077  -36.2637   24.6276 H   0  0  0  0  0  0
  -27.2291  -37.1453   25.8866 H   0  0  0  0  0  0
  -20.9298  -29.8799   21.6923 H   0  0  0  0  0  0
  -26.0154  -38.2845   24.1435 H   0  0  0  0  0  0
  -28.3173  -20.2345   21.6978 H   0  0  0  0  0  0
  -31.1685  -17.3659   20.2314 H   0  0  0  0  0  0
  -30.0630  -24.3400   21.8761 H   0  0  0  0  0  0
  -28.5888  -23.5444   21.4364 H   0  0  0  0  0  0
  -29.3088  -23.7399   17.6578 H   0  0  0  0  0  0
  -30.8505  -23.3338   18.3249 H   0  0  0  0  0  0
  -29.4089  -21.3236   18.0789 H   0  0  0  0  0  0
  -28.2206  -21.9985   19.1616 H   0  0  0  0  0  0
  -30.4989  -25.0750   19.6919 H   0  0  0  0  0  0
  -26.6147  -19.6988   23.0634 H   0  0  0  0  0  0
  -27.1169  -18.7020   24.4067 H   0  0  0  0  0  0
  -26.0970  -18.0213   23.1229 H   0  0  0  0  0  0
  -30.4590  -19.6922   19.0048 H   0  0  0  0  0  0
  -31.5851  -20.0585   20.2686 H   0  0  0  0  0  0
  -27.5070  -24.7690   19.8458 H   0  0  0  0  0  0
  -28.2434  -25.5026   18.4361 H   0  0  0  0  0  0
  -29.6560  -14.6398   22.3095 H   0  0  0  0  0  0
  1 25  1  0  0  0
  1 30  2  0  0  0
  1 87  1  0  0  0
  2  3  1  0  0  0
  2 25  1  0  0  0
  2 92  1  0  0  0
  2 93  1  0  0  0
  3  4  1  0  0  0
  3 94  1  0  0  0
  3 95  1  0  0  0
  4  5  1  0  0  0
  4 96  1  0  0  0
  4 97  1  0  0  0
  5  6  1  0  0  0
  5 26  1  0  0  0
  5 98  1  0  0  0
  6 25  1  0  0  0
  6 99  1  0  0  0
  6100  1  0  0  0
  7  8  2  0  0  0
  7 26  1  0  0  0
  7 29  1  0  0  0
  8  9  1  0  0  0
  8 22  1  0  0  0
  9 10  1  0  0  0
  9 27  2  0  0  0
 10 11  2  0  0  0
 10 15  1  0  0  0
 11 12  1  0  0  0
 11101  1  0  0  0
 12 13  2  0  0  0
 12102  1  0  0  0
 13 14  1  0  0  0
 13 31  1  0  0  0
 14 15  2  0  0  0
 14103  1  0  0  0
 15104  1  0  0  0
 16 17  2  0  0  0
 16 21  1  0  0  0
 16 31  1  0  0  0
 17 18  1  0  0  0
 17105  1  0  0  0
 18 19  2  0  0  0
 18106  1  0  0  0
 19 20  1  0  0  0
 19 24  1  0  0  0
 20 21  2  0  0  0
 20107  1  0  0  0
 21 23  1  0  0  0
 22 28  1  0  0  0
 22 32  2  0  0  0
 26 27  1  0  0  0
 28108  1  0  0  0
 28109  1  0  0  0
 29110  1  0  0  0
 29111  1  0  0  0
 33 34  1  0  0  0
 33 66  1  0  0  0
 33 70  2  0  0  0
 34 36  1  0  0  0
 34 59  1  0  0  0
 34112  1  0  0  0
 35 44  2  0  0  0
 35 45  1  0  0  0
 35 68  1  0  0  0
 36 56  1  0  0  0
 36113  1  0  0  0
 37 39  1  0  0  0
 37 47  1  0  0  0
 37 66  1  0  0  0
 37114  1  0  0  0
 38 43  2  0  0  0
 38 46  1  0  0  0
 38 47  1  0  0  0
 39 64  1  0  0  0
 39 67  2  0  0  0
 40 52  1  0  0  0
 40 53  2  0  0  0
 40 58  1  0  0  0
 41115  1  0  0  0
 41116  1  0  0  0
 41117  1  0  0  0
 41 48  1  0  0  0
 42 43  1  0  0  0
 42 66  1  0  0  0
 42118  1  0  0  0
 42119  1  0  0  0
 43 44  1  0  0  0
 44120  1  0  0  0
 45 46  2  0  0  0
 45121  1  0  0  0
 46122  1  0  0  0
 47123  1  0  0  0
 47124  1  0  0  0
 48 56  1  0  0  0
 48 65  1  0  0  0
 48125  1  0  0  0
 49 50  1  0  0  0
 49 53  1  0  0  0
 49 64  1  0  0  0
 49126  1  0  0  0
 50 51  1  0  0  0
 50127  1  0  0  0
 50128  1  0  0  0
 51 52  1  0  0  0
 51129  1  0  0  0
 51130  1  0  0  0
 52131  1  0  0  0
 52132  1  0  0  0
 53 54  1  0  0  0
 54 55  2  0  0  0
 54133  1  0  0  0
 55 57  1  0  0  0
 55134  1  0  0  0
 56 69  2  0  0  0
 57 58  2  0  0  0
 57135  1  0  0  0
 58136  1  0  0  0
 59 60  1  0  0  0
 59 61  1  0  0  0
 59 62  1  0  0  0
 60137  1  0  0  0
 60138  1  0  0  0
 60139  1  0  0  0
 61140  1  0  0  0
 61141  1  0  0  0
 61142  1  0  0  0
 62143  1  0  0  0
 62144  1  0  0  0
 62145  1  0  0  0
 63 65  1  0  0  0
 63146  1  0  0  0
 63147  1  0  0  0
 63148  1  0  0  0
 64149  1  0  0  0
 65150  1  0  0  0
 68 84  1  0  0  0
 71 73  2  0  0  0
 71 74  1  0  0  0
 71151  1  0  0  0
 72 73  1  0  0  0
 72 76  2  0  0  0
 72152  1  0  0  0
 73 83  1  0  0  0
 74 75  2  0  0  0
 74 82  1  0  0  0
 75 76  1  0  0  0
 75 85  1  0  0  0
 76 87  1  0  0  0
 77 78  1  0  0  0
 77 86  1  0  0  0
 77 88  2  0  0  0
 78 81  1  0  0  0
 78153  1  0  0  0
 78154  1  0  0  0
 79 80  1  0  0  0
 79 81  1  0  0  0
 79155  1  0  0  0
 79156  1  0  0  0
 80 86  1  0  0  0
 80157  1  0  0  0
 80158  1  0  0  0
 81 84  1  0  0  0
 81159  1  0  0  0
 82160  1  0  0  0
 82161  1  0  0  0
 82162  1  0  0  0
 83 86  1  0  0  0
 83163  1  0  0  0
 83164  1  0  0  0
 84165  1  0  0  0
 84166  1  0  0  0
 85 89  1  0  0  0
 85 90  1  0  0  0
 85 91  1  0  0  0
 87167  1  0  0  0
M  ISO  4   1 100  68 101  84 101  87 100
M  END
> <chiral flag>
0

> <version>
0

> <s_m_source_file>
/data/baiqing/PycharmProjects/Reinvent-master-3.2/result/LINK_invent/BTK/process_docking_weight1_custom_product_contain_oxygen_bond_distance_aromatic_linkinvent_7_9_3/rearranged_h_0053.sdf

> <i_m_source_file_index>
85

> <r_mmod_Potential_Energy-OPLS-2005>
98.3475875854492

> <r_mmod_Stretch_Energy-OPLS-2005>
56.4713668823242

> <r_mmod_Bend_Energy-OPLS-2005>
122.314422607422

> <r_mmod_Torsional_Energy-OPLS-2005>
252.29264831543

> <r_mmod_Improper_Torsional_Energy-OPLS-2005>
5.02456855773926

> <r_mmod_Van_der_Waal_Energy-OPLS-2005>
178.598281860352

> <r_mmod_Electrostatic_Energy-OPLS-2005>
-316.967224121094

> <r_mmod_Solvation_Energy-OPLS-2005>
-215.825332641602

> <b_mmod_Minimization_Converged-OPLS-2005>
0

> <r_mmod_RMS_Derivative-OPLS-2005>
3.83885169029236

$$$$
85
                    3D
 Structure written by MMmdl.
163171  0  0  1  0            999 V2000
  -30.7125  -14.4159   20.6816 C   0  0  0  0  0  0
  -30.4323  -12.3101   19.4005 C   0  0  0  0  0  0
  -29.4976  -12.5405   18.1950 C   0  0  0  0  0  0
  -28.0198  -12.3884   18.6039 C   0  0  0  0  0  0
  -27.6699  -13.1986   19.8771 C   0  0  2  0  0  0
  -28.7042  -12.9235   20.9901 C   0  0  0  0  0  0
  -25.2628  -13.8141   20.5602 C   0  0  0  0  0  0
  -24.1850  -13.0461   20.9122 C   0  0  0  0  0  0
  -24.6383  -11.6914   20.8687 C   0  0  0  0  0  0
  -23.9034  -10.4320   21.0378 C   0  0  0  0  0  0
  -24.3564   -9.4248   21.9167 C   0  0  0  0  0  0
  -23.6244   -8.2287   22.0771 C   0  0  0  0  0  0
  -22.4229   -8.0304   21.3565 C   0  0  0  0  0  0
  -21.9861   -9.0281   20.4670 C   0  0  0  0  0  0
  -22.7200  -10.2154   20.3052 C   0  0  0  0  0  0
  -21.6868   -6.0719   22.5257 C   0  0  0  0  0  0
  -21.4038   -6.5617   23.8193 C   0  0  0  0  0  0
  -21.3652   -5.6772   24.9152 C   0  0  0  0  0  0
  -21.6023   -4.3036   24.7214 C   0  0  0  0  0  0
  -21.8818   -3.8137   23.4340 C   0  0  0  0  0  0
  -21.9204   -4.6942   22.3392 C   0  0  0  0  0  0
  -22.7879  -13.5292   21.1763 C   0  0  0  0  0  0
  -22.1669   -4.2122   21.0974 F   0  0  0  0  0  0
  -21.5608   -3.4532   25.7739 F   0  0  0  0  0  0
  -30.0541  -13.2417   20.4737 N   0  0  0  0  0  0
  -26.3044  -12.9297   20.3321 N   0  0  0  0  0  0
  -25.9305  -11.6464   20.5696 N   0  0  0  0  0  0
  -22.0483  -12.8349   22.0328 N   0  0  0  0  0  0
  -25.4381  -15.1847   20.3932 N   0  0  0  0  0  0
  -31.7112  -14.7639   20.0397 O   0  0  0  0  0  0
  -21.6650   -6.8861   21.4222 O   0  0  0  0  0  0
  -22.3578  -14.5585   20.6588 O   0  0  0  0  0  0
  -24.6157  -31.8709   23.2136 C   0  0  0  0  0  0
  -25.9049  -32.4833   23.8422 C   0  0  1  0  0  0
  -27.2365  -27.4359   20.0759 C   0  0  0  0  0  0
  -25.5910  -33.8632   24.2375 N   0  0  0  0  0  0
  -23.4020  -30.4967   21.5549 C   0  0  2  0  0  0
  -24.8466  -28.9579   20.1198 C   0  0  0  0  0  0
  -22.7400  -29.4678   22.5000 C   0  0  0  0  0  0
  -18.0277  -28.1387   22.8503 C   0  0  0  0  0  0
  -24.1470  -36.7275   23.2642 C   0  0  0  0  0  0
  -25.9331  -30.8269   21.3719 C   0  0  0  0  0  0
  -26.0073  -29.4600   20.7223 C   0  0  0  0  0  0
  -27.2047  -28.7037   20.7031 C   0  0  0  0  0  0
  -26.0608  -26.9527   19.4648 C   0  0  0  0  0  0
  -24.8670  -27.6994   19.4946 C   0  0  0  0  0  0
  -23.6133  -29.8341   20.1682 C   0  0  0  0  0  0
  -25.4094  -36.3121   24.0362 C   0  0  1  0  0  0
  -20.5860  -28.3675   23.1332 C   0  0  2  0  0  0
  -20.6765  -26.9410   22.5437 C   0  0  0  0  0  0
  -19.5747  -26.6400   21.5223 C   0  0  0  0  0  0
  -18.1919  -26.7940   22.1620 C   0  0  0  0  0  0
  -19.1530  -28.8845   23.2918 C   0  0  0  0  0  0
  -18.9458  -30.1445   23.8948 C   0  0  0  0  0  0
  -17.6464  -30.6585   24.0583 C   0  0  0  0  0  0
  -25.9034  -34.9483   23.5159 C   0  0  0  0  0  0
  -16.5356  -29.9100   23.6313 C   0  0  0  0  0  0
  -16.7268  -28.6509   23.0348 C   0  0  0  0  0  0
  -26.4500  -31.6590   25.0725 C   0  0  0  0  0  0
  -25.3777  -31.3653   26.1474 C   0  0  0  0  0  0
  -27.0333  -30.3047   24.6053 C   0  0  0  0  0  0
  -27.6110  -32.4279   25.7454 C   0  0  0  0  0  0
  -27.5576  -37.1796   24.8482 C   0  0  0  0  0  0
  -21.4132  -29.3050   22.3737 N   0  0  0  0  0  0
  -26.4289  -37.3803   23.9424 N   0  0  0  0  0  0
  -24.6674  -31.0801   22.1036 N   0  0  0  0  0  0
  -23.4175  -28.8202   23.3030 O   0  0  0  0  0  0
  -28.4092  -26.7148   19.9748 O   0  0  0  0  0  0
  -26.5583  -34.8933   22.4719 O   0  0  0  0  0  0
  -23.5348  -32.1486   23.7524 O   0  0  0  0  0  0
  -30.3820  -17.5771   21.1970 C   0  0  0  0  0  0
  -28.5301  -16.6198   22.4411 C   0  0  0  0  0  0
  -29.8305  -18.8817   21.3552 C   0  0  0  0  0  0
  -27.9490  -17.8912   22.6079 C   0  0  0  0  0  0
  -28.6129  -19.0395   22.0880 C   0  0  0  0  0  0
  -29.7427  -16.4428   21.7527 C   0  0  0  0  0  0
  -29.9345  -22.4624   20.3061 C   0  0  0  0  0  0
  -28.0245  -20.4287   22.3331 C   0  0  0  0  0  0
  -30.6284  -20.0777   20.7853 C   0  0  0  0  0  0
  -26.6125  -17.9628   23.3465 C   0  0  0  0  0  0
  -28.9564  -23.3721   19.5327 C   0  0  0  0  0  0
  -28.0421  -24.2504   20.4338 C   0  0  0  0  0  0
  -28.5846  -25.6307   20.8977 C   0  0  0  0  0  0
  -30.2516  -15.1106   21.7332 N   0  0  0  0  0  0
  -29.8504  -21.1310   20.1049 N   0  0  0  0  0  0
  -30.7416  -22.9657   21.0869 O   0  0  0  0  0  0
  -26.4526  -16.9383   24.1856 F   0  0  0  0  0  0
  -31.4779  -12.4190   19.1057 H   0  0  0  0  0  0
  -30.3326  -11.2843   19.7564 H   0  0  0  0  0  0
  -29.7378  -11.8420   17.3916 H   0  0  0  0  0  0
  -29.6676  -13.5380   17.7866 H   0  0  0  0  0  0
  -27.8251  -11.3296   18.7742 H   0  0  0  0  0  0
  -27.3737  -12.6887   17.7779 H   0  0  0  0  0  0
  -27.7326  -14.2540   19.6110 H   0  0  0  0  0  0
  -28.6705  -11.8725   21.2812 H   0  0  0  0  0  0
  -28.4282  -13.4700   21.8921 H   0  0  0  0  0  0
  -25.2694   -9.5726   22.4770 H   0  0  0  0  0  0
  -23.9943   -7.4677   22.7501 H   0  0  0  0  0  0
  -21.0792   -8.8771   19.8997 H   0  0  0  0  0  0
  -22.3613  -10.9671   19.6170 H   0  0  0  0  0  0
  -21.2063   -7.6132   23.9665 H   0  0  0  0  0  0
  -21.1455   -6.0528   25.9038 H   0  0  0  0  0  0
  -22.0613   -2.7601   23.2856 H   0  0  0  0  0  0
  -22.4048  -12.0043   22.4808 H   0  0  0  0  0  0
  -21.1124  -13.1455   22.2502 H   0  0  0  0  0  0
  -24.6701  -15.8423   20.4640 H   0  0  0  0  0  0
  -26.2833  -15.6027   20.0275 H   0  0  0  0  0  0
  -26.7098  -32.5554   23.1164 H   0  0  0  0  0  0
  -25.0128  -33.9799   25.0561 H   0  0  0  0  0  0
  -22.6896  -31.3134   21.4192 H   0  0  0  0  0  0
  -23.3767  -35.9574   23.3350 H   0  0  0  0  0  0
  -24.3574  -36.8837   22.2048 H   0  0  0  0  0  0
  -23.7185  -37.6475   23.6624 H   0  0  0  0  0  0
  -26.0530  -31.5916   20.6037 H   0  0  0  0  0  0
  -26.8173  -30.8802   21.9935 H   0  0  0  0  0  0
  -28.1038  -29.0973   21.1539 H   0  0  0  0  0  0
  -26.0689  -26.0157   18.9295 H   0  0  0  0  0  0
  -23.9781  -27.3160   19.0111 H   0  0  0  0  0  0
  -23.7347  -30.6154   19.4175 H   0  0  0  0  0  0
  -22.7324  -29.2687   19.8613 H   0  0  0  0  0  0
  -25.1265  -36.2002   25.0859 H   0  0  0  0  0  0
  -20.9967  -28.3258   24.1446 H   0  0  0  0  0  0
  -20.5664  -26.2287   23.3629 H   0  0  0  0  0  0
  -21.6639  -26.7450   22.1242 H   0  0  0  0  0  0
  -19.6899  -25.6317   21.1242 H   0  0  0  0  0  0
  -19.6681  -27.3227   20.6766 H   0  0  0  0  0  0
  -17.4194  -26.6731   21.4004 H   0  0  0  0  0  0
  -18.0276  -26.0065   22.8992 H   0  0  0  0  0  0
  -19.7940  -30.7242   24.2338 H   0  0  0  0  0  0
  -17.5027  -31.6268   24.5185 H   0  0  0  0  0  0
  -15.5365  -30.3027   23.7602 H   0  0  0  0  0  0
  -15.8665  -28.0839   22.7051 H   0  0  0  0  0  0
  -24.5956  -30.6997   25.7796 H   0  0  0  0  0  0
  -24.8953  -32.2785   26.4965 H   0  0  0  0  0  0
  -25.8151  -30.8788   27.0199 H   0  0  0  0  0  0
  -26.2844  -29.6764   24.1207 H   0  0  0  0  0  0
  -27.4257  -29.7316   25.4462 H   0  0  0  0  0  0
  -27.8621  -30.4402   23.9098 H   0  0  0  0  0  0
  -27.2786  -33.3581   26.2061 H   0  0  0  0  0  0
  -28.3885  -32.6815   25.0236 H   0  0  0  0  0  0
  -28.0806  -31.8363   26.5320 H   0  0  0  0  0  0
  -28.2642  -38.0048   24.7530 H   0  0  0  0  0  0
  -28.1034  -36.2602   24.6321 H   0  0  0  0  0  0
  -27.2315  -37.1471   25.8891 H   0  0  0  0  0  0
  -20.9270  -29.8807   21.7004 H   0  0  0  0  0  0
  -26.0196  -38.2888   24.1432 H   0  0  0  0  0  0
  -31.3201  -17.4512   20.6734 H   0  0  0  0  0  0
  -28.0309  -15.7580   22.8606 H   0  0  0  0  0  0
  -28.8140  -21.1553   22.5062 H   0  0  0  0  0  0
  -27.4014  -20.5127   23.2174 H   0  0  0  0  0  0
  -27.4300  -20.7474   21.4771 H   0  0  0  0  0  0
  -31.3559  -19.7082   20.0604 H   0  0  0  0  0  0
  -31.2155  -20.4979   21.6039 H   0  0  0  0  0  0
  -25.7869  -17.9273   22.6327 H   0  0  0  0  0  0
  -26.4979  -18.8473   23.9692 H   0  0  0  0  0  0
  -28.3155  -22.7324   18.9255 H   0  0  0  0  0  0
  -29.5097  -23.9913   18.8253 H   0  0  0  0  0  0
  -27.8105  -23.6729   21.3296 H   0  0  0  0  0  0
  -27.0787  -24.3774   19.9447 H   0  0  0  0  0  0
  -29.6495  -25.5537   21.1171 H   0  0  0  0  0  0
  -28.1161  -25.8987   21.8454 H   0  0  0  0  0  0
  -29.7294  -14.4945   22.3361 H   0  0  0  0  0  0
  -29.1673  -20.8074   19.4366 H   0  0  0  0  0  0
  1 25  1  0  0  0
  1 30  2  0  0  0
  1 84  1  0  0  0
  2  3  1  0  0  0
  2 25  1  0  0  0
  2 88  1  0  0  0
  2 89  1  0  0  0
  3  4  1  0  0  0
  3 90  1  0  0  0
  3 91  1  0  0  0
  4  5  1  0  0  0
  4 92  1  0  0  0
  4 93  1  0  0  0
  5  6  1  0  0  0
  5 26  1  0  0  0
  5 94  1  0  0  0
  6 25  1  0  0  0
  6 95  1  0  0  0
  6 96  1  0  0  0
  7  8  2  0  0  0
  7 26  1  0  0  0
  7 29  1  0  0  0
  8  9  1  0  0  0
  8 22  1  0  0  0
  9 10  1  0  0  0
  9 27  2  0  0  0
 10 11  2  0  0  0
 10 15  1  0  0  0
 11 12  1  0  0  0
 11 97  1  0  0  0
 12 13  2  0  0  0
 12 98  1  0  0  0
 13 14  1  0  0  0
 13 31  1  0  0  0
 14 15  2  0  0  0
 14 99  1  0  0  0
 15100  1  0  0  0
 16 17  2  0  0  0
 16 21  1  0  0  0
 16 31  1  0  0  0
 17 18  1  0  0  0
 17101  1  0  0  0
 18 19  2  0  0  0
 18102  1  0  0  0
 19 20  1  0  0  0
 19 24  1  0  0  0
 20 21  2  0  0  0
 20103  1  0  0  0
 21 23  1  0  0  0
 22 28  1  0  0  0
 22 32  2  0  0  0
 26 27  1  0  0  0
 28104  1  0  0  0
 28105  1  0  0  0
 29106  1  0  0  0
 29107  1  0  0  0
 33 34  1  0  0  0
 33 66  1  0  0  0
 33 70  2  0  0  0
 34 36  1  0  0  0
 34 59  1  0  0  0
 34108  1  0  0  0
 35 44  2  0  0  0
 35 45  1  0  0  0
 35 68  1  0  0  0
 36 56  1  0  0  0
 36109  1  0  0  0
 37 39  1  0  0  0
 37 47  1  0  0  0
 37 66  1  0  0  0
 37110  1  0  0  0
 38 43  2  0  0  0
 38 46  1  0  0  0
 38 47  1  0  0  0
 39 64  1  0  0  0
 39 67  2  0  0  0
 40 52  1  0  0  0
 40 53  2  0  0  0
 40 58  1  0  0  0
 41111  1  0  0  0
 41112  1  0  0  0
 41113  1  0  0  0
 41 48  1  0  0  0
 42 43  1  0  0  0
 42 66  1  0  0  0
 42114  1  0  0  0
 42115  1  0  0  0
 43 44  1  0  0  0
 44116  1  0  0  0
 45 46  2  0  0  0
 45117  1  0  0  0
 46118  1  0  0  0
 47119  1  0  0  0
 47120  1  0  0  0
 48 56  1  0  0  0
 48 65  1  0  0  0
 48121  1  0  0  0
 49 50  1  0  0  0
 49 53  1  0  0  0
 49 64  1  0  0  0
 49122  1  0  0  0
 50 51  1  0  0  0
 50123  1  0  0  0
 50124  1  0  0  0
 51 52  1  0  0  0
 51125  1  0  0  0
 51126  1  0  0  0
 52127  1  0  0  0
 52128  1  0  0  0
 53 54  1  0  0  0
 54 55  2  0  0  0
 54129  1  0  0  0
 55 57  1  0  0  0
 55130  1  0  0  0
 56 69  2  0  0  0
 57 58  2  0  0  0
 57131  1  0  0  0
 58132  1  0  0  0
 59 60  1  0  0  0
 59 61  1  0  0  0
 59 62  1  0  0  0
 60133  1  0  0  0
 60134  1  0  0  0
 60135  1  0  0  0
 61136  1  0  0  0
 61137  1  0  0  0
 61138  1  0  0  0
 62139  1  0  0  0
 62140  1  0  0  0
 62141  1  0  0  0
 63 65  1  0  0  0
 63142  1  0  0  0
 63143  1  0  0  0
 63144  1  0  0  0
 64145  1  0  0  0
 65146  1  0  0  0
 68 83  1  0  0  0
 71 73  2  0  0  0
 71 76  1  0  0  0
 71147  1  0  0  0
 72 74  1  0  0  0
 72 76  2  0  0  0
 72148  1  0  0  0
 73 75  1  0  0  0
 73 79  1  0  0  0
 74 75  2  0  0  0
 74 80  1  0  0  0
 75 78  1  0  0  0
 76 84  1  0  0  0
 77 81  1  0  0  0
 77 85  1  0  0  0
 77 86  2  0  0  0
 78149  1  0  0  0
 78150  1  0  0  0
 78151  1  0  0  0
 79 85  1  0  0  0
 79152  1  0  0  0
 79153  1  0  0  0
 80 87  1  0  0  0
 80154  1  0  0  0
 80155  1  0  0  0
 81 82  1  0  0  0
 81156  1  0  0  0
 81157  1  0  0  0
 82 83  1  0  0  0
 82158  1  0  0  0
 82159  1  0  0  0
 83160  1  0  0  0
 83161  1  0  0  0
 84162  1  0  0  0
 85163  1  0  0  0
M  ISO  4   1 100  68 101  83 101  84 100
M  END
> <chiral flag>
0

> <version>
0

> <s_m_source_file>
/data/baiqing/PycharmProjects/Reinvent-master-3.2/result/LINK_invent/BTK/process_docking_weight1_custom_product_contain_oxygen_bond_distance_aromatic_linkinvent_7_9_3/rearranged_h_0053.sdf

> <i_m_source_file_index>
86

> <r_mmod_Potential_Energy-OPLS-2005>
-131.301498413086

> <r_mmod_Stretch_Energy-OPLS-2005>
42.9933738708496

> <r_mmod_Bend_Energy-OPLS-2005>
114.031959533691

> <r_mmod_Torsional_Energy-OPLS-2005>
252.69987487793

> <r_mmod_Improper_Torsional_Energy-OPLS-2005>
6.86926078796387

> <r_mmod_Van_der_Waal_Energy-OPLS-2005>
152.498931884766

> <r_mmod_Electrostatic_Energy-OPLS-2005>
-481.531097412109

> <r_mmod_Solvation_Energy-OPLS-2005>
-229.573684692383

> <b_mmod_Minimization_Converged-OPLS-2005>
0

> <r_mmod_RMS_Derivative-OPLS-2005>
3.74805164337158

$$$$
86
                    3D
 Structure written by MMmdl.
158166  0  0  1  0            999 V2000
  -30.7953  -14.3248   20.7109 C   0  0  0  0  0  0
  -30.4111  -12.2850   19.3832 C   0  0  0  0  0  0
  -29.4774  -12.5345   18.1865 C   0  0  0  0  0  0
  -28.0044  -12.3839   18.6071 C   0  0  0  0  0  0
  -27.6656  -13.2026   19.8798 C   0  0  2  0  0  0
  -28.7033  -12.9424   20.9935 C   0  0  0  0  0  0
  -25.2596  -13.8155   20.5673 C   0  0  0  0  0  0
  -24.1837  -13.0439   20.9160 C   0  0  0  0  0  0
  -24.6385  -11.6903   20.8721 C   0  0  0  0  0  0
  -23.9051  -10.4291   21.0395 C   0  0  0  0  0  0
  -24.3607   -9.4214   21.9177 C   0  0  0  0  0  0
  -23.6286   -8.2248   22.0750 C   0  0  0  0  0  0
  -22.4268   -8.0281   21.3546 C   0  0  0  0  0  0
  -21.9901   -9.0252   20.4644 C   0  0  0  0  0  0
  -22.7226  -10.2131   20.3045 C   0  0  0  0  0  0
  -21.6855   -6.0731   22.5276 C   0  0  0  0  0  0
  -21.4014   -6.5638   23.8213 C   0  0  0  0  0  0
  -21.3657   -5.6791   24.9174 C   0  0  0  0  0  0
  -21.6042   -4.3052   24.7223 C   0  0  0  0  0  0
  -21.8820   -3.8145   23.4348 C   0  0  0  0  0  0
  -21.9195   -4.6961   22.3401 C   0  0  0  0  0  0
  -22.7864  -13.5249   21.1838 C   0  0  0  0  0  0
  -22.1664   -4.2146   21.0978 F   0  0  0  0  0  0
  -21.5627   -3.4535   25.7735 F   0  0  0  0  0  0
  -30.0504  -13.2197   20.4577 N   0  0  0  0  0  0
  -26.3040  -12.9324   20.3383 N   0  0  0  0  0  0
  -25.9313  -11.6480   20.5756 N   0  0  0  0  0  0
  -22.0503  -12.8231   22.0388 N   0  0  0  0  0  0
  -25.4339  -15.1869   20.4090 N   0  0  0  0  0  0
  -31.7890  -14.6413   20.0494 O   0  0  0  0  0  0
  -21.6641   -6.8873   21.4239 O   0  0  0  0  0  0
  -22.3553  -14.5569   20.6715 O   0  0  0  0  0  0
  -24.6111  -31.8708   23.2121 C   0  0  0  0  0  0
  -25.9030  -32.4826   23.8405 C   0  0  1  0  0  0
  -27.2373  -27.4816   20.0873 C   0  0  0  0  0  0
  -25.5904  -33.8624   24.2346 N   0  0  0  0  0  0
  -23.3960  -30.4933   21.5514 C   0  0  2  0  0  0
  -24.8428  -28.9596   20.1196 C   0  0  0  0  0  0
  -22.7379  -29.4678   22.5013 C   0  0  0  0  0  0
  -18.0267  -28.1358   22.8496 C   0  0  0  0  0  0
  -24.1486  -36.7320   23.2635 C   0  0  0  0  0  0
  -25.9185  -30.8503   21.3564 C   0  0  0  0  0  0
  -25.9991  -29.4856   20.7097 C   0  0  0  0  0  0
  -27.2031  -28.7526   20.6921 C   0  0  0  0  0  0
  -26.0695  -26.9521   19.5021 C   0  0  0  0  0  0
  -24.8691  -27.6883   19.5165 C   0  0  0  0  0  0
  -23.6016  -29.8206   20.1674 C   0  0  0  0  0  0
  -25.4102  -36.3113   24.0343 C   0  0  1  0  0  0
  -20.5855  -28.3648   23.1326 C   0  0  2  0  0  0
  -20.6758  -26.9393   22.5412 C   0  0  0  0  0  0
  -19.5737  -26.6379   21.5204 C   0  0  0  0  0  0
  -18.1918  -26.7911   22.1621 C   0  0  0  0  0  0
  -19.1517  -28.8821   23.2906 C   0  0  0  0  0  0
  -18.9443  -30.1429   23.8906 C   0  0  0  0  0  0
  -17.6447  -30.6569   24.0559 C   0  0  0  0  0  0
  -25.9032  -34.9479   23.5135 C   0  0  0  0  0  0
  -16.5336  -29.9068   23.6319 C   0  0  0  0  0  0
  -16.7262  -28.6482   23.0350 C   0  0  0  0  0  0
  -26.4480  -31.6576   25.0701 C   0  0  0  0  0  0
  -25.3778  -31.3658   26.1470 C   0  0  0  0  0  0
  -27.0286  -30.3024   24.6024 C   0  0  0  0  0  0
  -27.6065  -32.4277   25.7471 C   0  0  0  0  0  0
  -27.5580  -37.1813   24.8459 C   0  0  0  0  0  0
  -21.4116  -29.3021   22.3739 N   0  0  0  0  0  0
  -26.4290  -37.3792   23.9408 N   0  0  0  0  0  0
  -24.6598  -31.0848   22.0995 N   0  0  0  0  0  0
  -23.4167  -28.8239   23.3059 O   0  0  0  0  0  0
  -28.4075  -26.7764   20.0324 O   0  0  0  0  0  0
  -26.5576  -34.8926   22.4685 O   0  0  0  0  0  0
  -23.5318  -32.1443   23.7543 O   0  0  0  0  0  0
  -29.7501  -17.9445   21.3069 C   0  0  0  0  0  0
  -32.1701  -18.0570   21.0712 C   0  0  0  0  0  0
  -29.6206  -19.1379   20.5693 C   0  0  0  0  0  0
  -32.0420  -19.2460   20.3306 C   0  0  0  0  0  0
  -31.0255  -17.4048   21.5695 C   0  0  0  0  0  0
  -30.7714  -19.8061   20.0812 C   0  0  0  0  0  0
  -29.7309  -21.8657   19.0937 C   0  0  0  0  0  0
  -29.4698  -24.6708   20.4897 C   0  0  0  0  0  0
  -31.1717  -16.1240   22.3756 C   0  0  0  0  0  0
  -30.1224  -23.2474   18.5536 C   0  0  0  0  0  0
  -28.4911  -25.7312   20.9941 C   0  0  0  0  0  0
  -30.7511  -21.0389   19.3721 N   0  0  0  0  0  0
  -29.3603  -24.3124   19.2037 N   0  0  0  0  0  0
  -30.4374  -15.0027   21.8054 N   0  0  0  0  0  0
  -28.5360  -21.5831   19.2219 O   0  0  0  0  0  0
  -30.3023  -24.1723   21.2509 O   0  0  0  0  0  0
  -31.4535  -12.3837   19.0743 H   0  0  0  0  0  0
  -30.3061  -11.2599   19.7413 H   0  0  0  0  0  0
  -29.7078  -11.8409   17.3768 H   0  0  0  0  0  0
  -29.6462  -13.5372   17.7898 H   0  0  0  0  0  0
  -27.8145  -11.3249   18.7848 H   0  0  0  0  0  0
  -27.3472  -12.6757   17.7871 H   0  0  0  0  0  0
  -27.7253  -14.2577   19.6115 H   0  0  0  0  0  0
  -28.6576  -11.9016   21.3165 H   0  0  0  0  0  0
  -28.4489  -13.5292   21.8760 H   0  0  0  0  0  0
  -25.2754   -9.5694   22.4748 H   0  0  0  0  0  0
  -24.0002   -7.4639   22.7467 H   0  0  0  0  0  0
  -21.0835   -8.8763   19.8949 H   0  0  0  0  0  0
  -22.3688  -10.9662   19.6144 H   0  0  0  0  0  0
  -21.2007   -7.6148   23.9713 H   0  0  0  0  0  0
  -21.1475   -6.0520   25.9075 H   0  0  0  0  0  0
  -22.0601   -2.7606   23.2847 H   0  0  0  0  0  0
  -22.4124  -11.9880   22.4754 H   0  0  0  0  0  0
  -21.1121  -13.1246   22.2603 H   0  0  0  0  0  0
  -24.6724  -15.8473   20.5179 H   0  0  0  0  0  0
  -26.2979  -15.6228   20.1108 H   0  0  0  0  0  0
  -26.7103  -32.5562   23.1177 H   0  0  0  0  0  0
  -25.0089  -33.9788   25.0515 H   0  0  0  0  0  0
  -22.6828  -31.3085   21.4125 H   0  0  0  0  0  0
  -23.3737  -35.9665   23.3305 H   0  0  0  0  0  0
  -24.3594  -36.8922   22.2050 H   0  0  0  0  0  0
  -23.7247  -37.6533   23.6642 H   0  0  0  0  0  0
  -26.0186  -31.6171   20.5871 H   0  0  0  0  0  0
  -26.8102  -30.9092   21.9683 H   0  0  0  0  0  0
  -28.1014  -29.1600   21.1337 H   0  0  0  0  0  0
  -26.0916  -25.9800   19.0295 H   0  0  0  0  0  0
  -23.9790  -27.2762   19.0604 H   0  0  0  0  0  0
  -23.7031  -30.5908   19.4020 H   0  0  0  0  0  0
  -22.7275  -29.2344   19.8778 H   0  0  0  0  0  0
  -25.1270  -36.1988   25.0836 H   0  0  0  0  0  0
  -20.9941  -28.3207   24.1449 H   0  0  0  0  0  0
  -20.5655  -26.2257   23.3596 H   0  0  0  0  0  0
  -21.6631  -26.7442   22.1204 H   0  0  0  0  0  0
  -19.6897  -25.6294   21.1225 H   0  0  0  0  0  0
  -19.6670  -27.3199   20.6745 H   0  0  0  0  0  0
  -17.4186  -26.6670   21.4022 H   0  0  0  0  0  0
  -18.0310  -26.0039   22.9004 H   0  0  0  0  0  0
  -19.7921  -30.7241   24.2274 H   0  0  0  0  0  0
  -17.5001  -31.6258   24.5148 H   0  0  0  0  0  0
  -15.5332  -30.2972   23.7630 H   0  0  0  0  0  0
  -15.8666  -28.0802   22.7058 H   0  0  0  0  0  0
  -24.5926  -30.7032   25.7810 H   0  0  0  0  0  0
  -24.9007  -32.2804   26.4997 H   0  0  0  0  0  0
  -25.8162  -30.8767   27.0177 H   0  0  0  0  0  0
  -26.2790  -29.6790   24.1127 H   0  0  0  0  0  0
  -27.4116  -29.7250   25.4447 H   0  0  0  0  0  0
  -27.8612  -30.4333   23.9106 H   0  0  0  0  0  0
  -27.2688  -33.3566   26.2081 H   0  0  0  0  0  0
  -28.3877  -32.6843   25.0303 H   0  0  0  0  0  0
  -28.0725  -31.8370   26.5366 H   0  0  0  0  0  0
  -28.2581  -38.0125   24.7518 H   0  0  0  0  0  0
  -28.1092  -36.2655   24.6267 H   0  0  0  0  0  0
  -27.2304  -37.1429   25.8864 H   0  0  0  0  0  0
  -20.9264  -29.8743   21.6969 H   0  0  0  0  0  0
  -26.0183  -38.2871   24.1413 H   0  0  0  0  0  0
  -28.8633  -17.4498   21.6794 H   0  0  0  0  0  0
  -33.1547  -17.6485   21.2529 H   0  0  0  0  0  0
  -28.6246  -19.5197   20.4057 H   0  0  0  0  0  0
  -32.9362  -19.7322   19.9659 H   0  0  0  0  0  0
  -30.8040  -16.3018   23.3870 H   0  0  0  0  0  0
  -32.2256  -15.8565   22.4779 H   0  0  0  0  0  0
  -29.9268  -23.2723   17.4817 H   0  0  0  0  0  0
  -31.1905  -23.4290   18.6844 H   0  0  0  0  0  0
  -28.8375  -26.1382   21.9448 H   0  0  0  0  0  0
  -27.5254  -25.2536   21.1723 H   0  0  0  0  0  0
  -31.6599  -21.4106   19.1319 H   0  0  0  0  0  0
  -28.6514  -24.7794   18.6547 H   0  0  0  0  0  0
  -29.6400  -14.6591   22.3186 H   0  0  0  0  0  0
  1 25  1  0  0  0
  1 30  2  0  0  0
  1 84  1  0  0  0
  2  3  1  0  0  0
  2 25  1  0  0  0
  2 87  1  0  0  0
  2 88  1  0  0  0
  3  4  1  0  0  0
  3 89  1  0  0  0
  3 90  1  0  0  0
  4  5  1  0  0  0
  4 91  1  0  0  0
  4 92  1  0  0  0
  5  6  1  0  0  0
  5 26  1  0  0  0
  5 93  1  0  0  0
  6 25  1  0  0  0
  6 94  1  0  0  0
  6 95  1  0  0  0
  7  8  2  0  0  0
  7 26  1  0  0  0
  7 29  1  0  0  0
  8  9  1  0  0  0
  8 22  1  0  0  0
  9 10  1  0  0  0
  9 27  2  0  0  0
 10 11  2  0  0  0
 10 15  1  0  0  0
 11 12  1  0  0  0
 11 96  1  0  0  0
 12 13  2  0  0  0
 12 97  1  0  0  0
 13 14  1  0  0  0
 13 31  1  0  0  0
 14 15  2  0  0  0
 14 98  1  0  0  0
 15 99  1  0  0  0
 16 17  2  0  0  0
 16 21  1  0  0  0
 16 31  1  0  0  0
 17 18  1  0  0  0
 17100  1  0  0  0
 18 19  2  0  0  0
 18101  1  0  0  0
 19 20  1  0  0  0
 19 24  1  0  0  0
 20 21  2  0  0  0
 20102  1  0  0  0
 21 23  1  0  0  0
 22 28  1  0  0  0
 22 32  2  0  0  0
 26 27  1  0  0  0
 28103  1  0  0  0
 28104  1  0  0  0
 29105  1  0  0  0
 29106  1  0  0  0
 33 34  1  0  0  0
 33 66  1  0  0  0
 33 70  2  0  0  0
 34 36  1  0  0  0
 34 59  1  0  0  0
 34107  1  0  0  0
 35 44  2  0  0  0
 35 45  1  0  0  0
 35 68  1  0  0  0
 36 56  1  0  0  0
 36108  1  0  0  0
 37 39  1  0  0  0
 37 47  1  0  0  0
 37 66  1  0  0  0
 37109  1  0  0  0
 38 43  2  0  0  0
 38 46  1  0  0  0
 38 47  1  0  0  0
 39 64  1  0  0  0
 39 67  2  0  0  0
 40 52  1  0  0  0
 40 53  2  0  0  0
 40 58  1  0  0  0
 41110  1  0  0  0
 41111  1  0  0  0
 41112  1  0  0  0
 41 48  1  0  0  0
 42 43  1  0  0  0
 42 66  1  0  0  0
 42113  1  0  0  0
 42114  1  0  0  0
 43 44  1  0  0  0
 44115  1  0  0  0
 45 46  2  0  0  0
 45116  1  0  0  0
 46117  1  0  0  0
 47118  1  0  0  0
 47119  1  0  0  0
 48 56  1  0  0  0
 48 65  1  0  0  0
 48120  1  0  0  0
 49 50  1  0  0  0
 49 53  1  0  0  0
 49 64  1  0  0  0
 49121  1  0  0  0
 50 51  1  0  0  0
 50122  1  0  0  0
 50123  1  0  0  0
 51 52  1  0  0  0
 51124  1  0  0  0
 51125  1  0  0  0
 52126  1  0  0  0
 52127  1  0  0  0
 53 54  1  0  0  0
 54 55  2  0  0  0
 54128  1  0  0  0
 55 57  1  0  0  0
 55129  1  0  0  0
 56 69  2  0  0  0
 57 58  2  0  0  0
 57130  1  0  0  0
 58131  1  0  0  0
 59 60  1  0  0  0
 59 61  1  0  0  0
 59 62  1  0  0  0
 60132  1  0  0  0
 60133  1  0  0  0
 60134  1  0  0  0
 61135  1  0  0  0
 61136  1  0  0  0
 61137  1  0  0  0
 62138  1  0  0  0
 62139  1  0  0  0
 62140  1  0  0  0
 63 65  1  0  0  0
 63141  1  0  0  0
 63142  1  0  0  0
 63143  1  0  0  0
 64144  1  0  0  0
 65145  1  0  0  0
 68 81  1  0  0  0
 71 73  2  0  0  0
 71 75  1  0  0  0
 71146  1  0  0  0
 72 74  1  0  0  0
 72 75  2  0  0  0
 72147  1  0  0  0
 73 76  1  0  0  0
 73148  1  0  0  0
 74 76  2  0  0  0
 74149  1  0  0  0
 75 79  1  0  0  0
 76 82  1  0  0  0
 77 80  1  0  0  0
 77 82  1  0  0  0
 77 85  2  0  0  0
 78 81  1  0  0  0
 78 83  1  0  0  0
 78 86  2  0  0  0
 79 84  1  0  0  0
 79150  1  0  0  0
 79151  1  0  0  0
 80 83  1  0  0  0
 80152  1  0  0  0
 80153  1  0  0  0
 81154  1  0  0  0
 81155  1  0  0  0
 82156  1  0  0  0
 83157  1  0  0  0
 84158  1  0  0  0
M  ISO  4   1 100  68 101  81 101  84 100
M  END
> <chiral flag>
0

> <version>
0

> <s_m_source_file>
/data/baiqing/PycharmProjects/Reinvent-master-3.2/result/LINK_invent/BTK/process_docking_weight1_custom_product_contain_oxygen_bond_distance_aromatic_linkinvent_7_9_3/rearranged_h_0053.sdf

> <i_m_source_file_index>
87

> <r_mmod_Potential_Energy-OPLS-2005>
-279.595001220703

> <r_mmod_Stretch_Energy-OPLS-2005>
30.8556442260742

> <r_mmod_Bend_Energy-OPLS-2005>
91.3921051025391

> <r_mmod_Torsional_Energy-OPLS-2005>
219.004867553711

> <r_mmod_Improper_Torsional_Energy-OPLS-2005>
2.58150243759155

> <r_mmod_Van_der_Waal_Energy-OPLS-2005>
159.159133911133

> <r_mmod_Electrostatic_Energy-OPLS-2005>
-528.673034667969

> <r_mmod_Solvation_Energy-OPLS-2005>
-260.353485107422

> <b_mmod_Minimization_Converged-OPLS-2005>
0

> <r_mmod_RMS_Derivative-OPLS-2005>
1.05017590522766

$$$$
87
                    3D
 Structure written by MMmdl.
154162  0  0  1  0            999 V2000
  -30.6526  -14.5556   20.4773 C   0  0  0  0  0  0
  -30.4175  -12.3274   19.4550 C   0  0  0  0  0  0
  -29.5092  -12.4980   18.2179 C   0  0  0  0  0  0
  -28.0222  -12.3785   18.6068 C   0  0  0  0  0  0
  -27.6521  -13.2240   19.8593 C   0  0  2  0  0  0
  -28.6917  -13.0490   20.9920 C   0  0  0  0  0  0
  -25.2555  -13.8217   20.5696 C   0  0  0  0  0  0
  -24.1830  -13.0433   20.9193 C   0  0  0  0  0  0
  -24.6394  -11.6918   20.8699 C   0  0  0  0  0  0
  -23.9067  -10.4299   21.0381 C   0  0  0  0  0  0
  -24.3630   -9.4216   21.9145 C   0  0  0  0  0  0
  -23.6313   -8.2248   22.0732 C   0  0  0  0  0  0
  -22.4274   -8.0280   21.3547 C   0  0  0  0  0  0
  -21.9891   -9.0259   20.4655 C   0  0  0  0  0  0
  -22.7230  -10.2136   20.3051 C   0  0  0  0  0  0
  -21.6863   -6.0740   22.5295 C   0  0  0  0  0  0
  -21.4024   -6.5637   23.8230 C   0  0  0  0  0  0
  -21.3653   -5.6786   24.9189 C   0  0  0  0  0  0
  -21.6033   -4.3049   24.7235 C   0  0  0  0  0  0
  -21.8819   -3.8146   23.4352 C   0  0  0  0  0  0
  -21.9198   -4.6967   22.3415 C   0  0  0  0  0  0
  -22.7841  -13.5214   21.1845 C   0  0  0  0  0  0
  -22.1661   -4.2140   21.0995 F   0  0  0  0  0  0
  -21.5603   -3.4536   25.7750 F   0  0  0  0  0  0
  -30.0167  -13.3506   20.4362 N   0  0  0  0  0  0
  -26.2967  -12.9394   20.3269 N   0  0  0  0  0  0
  -25.9315  -11.6531   20.5686 N   0  0  0  0  0  0
  -22.0493  -12.8232   22.0425 N   0  0  0  0  0  0
  -25.4251  -15.1951   20.4145 N   0  0  0  0  0  0
  -31.8249  -14.6859   20.1136 O   0  0  0  0  0  0
  -21.6644   -6.8877   21.4245 O   0  0  0  0  0  0
  -22.3504  -14.5493   20.6679 O   0  0  0  0  0  0
  -24.6159  -31.8722   23.2148 C   0  0  0  0  0  0
  -25.9039  -32.4862   23.8447 C   0  0  1  0  0  0
  -27.2151  -27.4115   20.0923 C   0  0  0  0  0  0
  -25.5908  -33.8653   24.2384 N   0  0  0  0  0  0
  -23.4017  -30.4989   21.5581 C   0  0  2  0  0  0
  -24.8361  -28.9644   20.1144 C   0  0  0  0  0  0
  -22.7436  -29.4685   22.5039 C   0  0  0  0  0  0
  -18.0271  -28.1390   22.8532 C   0  0  0  0  0  0
  -24.1458  -36.7274   23.2652 C   0  0  0  0  0  0
  -25.9356  -30.8249   21.3735 C   0  0  0  0  0  0
  -26.0001  -29.4619   20.7129 C   0  0  0  0  0  0
  -27.1866  -28.6906   20.7016 C   0  0  0  0  0  0
  -26.0230  -26.9223   19.5062 C   0  0  0  0  0  0
  -24.8445  -27.6939   19.5138 C   0  0  0  0  0  0
  -23.6009  -29.8364   20.1708 C   0  0  0  0  0  0
  -25.4096  -36.3147   24.0374 C   0  0  1  0  0  0
  -20.5879  -28.3657   23.1341 C   0  0  2  0  0  0
  -20.6759  -26.9400   22.5424 C   0  0  0  0  0  0
  -19.5719  -26.6406   21.5238 C   0  0  0  0  0  0
  -18.1908  -26.7938   22.1668 C   0  0  0  0  0  0
  -19.1531  -28.8846   23.2939 C   0  0  0  0  0  0
  -18.9444  -30.1463   23.8934 C   0  0  0  0  0  0
  -17.6438  -30.6591   24.0573 C   0  0  0  0  0  0
  -25.9036  -34.9506   23.5180 C   0  0  0  0  0  0
  -16.5338  -29.9098   23.6329 C   0  0  0  0  0  0
  -16.7255  -28.6520   23.0350 C   0  0  0  0  0  0
  -26.4457  -31.6648   25.0781 C   0  0  0  0  0  0
  -25.3702  -31.3707   26.1513 C   0  0  0  0  0  0
  -27.0307  -30.3117   24.6159 C   0  0  0  0  0  0
  -27.6076  -32.4360   25.7484 C   0  0  0  0  0  0
  -27.5587  -37.1798   24.8489 C   0  0  0  0  0  0
  -21.4167  -29.3033   22.3775 N   0  0  0  0  0  0
  -26.4286  -37.3830   23.9451 N   0  0  0  0  0  0
  -24.6695  -31.0795   22.1057 N   0  0  0  0  0  0
  -23.4215  -28.8228   23.3067 O   0  0  0  0  0  0
  -28.3959  -26.6868   20.1214 O   0  0  0  0  0  0
  -26.5596  -34.8952   22.4741 O   0  0  0  0  0  0
  -23.5340  -32.1499   23.7525 O   0  0  0  0  0  0
  -29.3916  -18.4566   21.8909 C   0  0  0  0  0  0
  -29.0494  -19.7352   22.3819 C   0  0  0  0  0  0
  -29.5384  -19.4188   19.6771 C   0  0  0  0  0  0
  -29.6389  -18.2786   20.5187 C   0  0  0  0  0  0
  -29.2049  -20.7243   20.1441 C   0  0  0  0  0  0
  -28.9385  -20.8633   21.5369 C   0  0  0  0  0  0
  -28.9955  -23.0398   18.8582 C   0  0  0  0  0  0
  -30.0928  -16.9294   19.9172 C   0  0  0  0  0  0
  -28.5998  -24.1508   19.8662 C   0  0  0  0  0  0
  -28.6071  -25.5798   19.2237 C   0  0  0  0  0  0
  -29.2058  -21.7180   19.0923 N   0  0  0  0  0  0
  -29.8590  -15.6453   20.6403 N   0  0  0  0  0  0
  -29.1371  -23.3856   17.6847 O   0  0  0  0  0  0
  -28.4637  -22.3250   22.3135 Cl  0  0  0  0  0  0
  -31.4679  -12.4109   19.1675 H   0  0  0  0  0  0
  -30.3043  -11.3277   19.8825 H   0  0  0  0  0  0
  -29.7586  -11.7502   17.4631 H   0  0  0  0  0  0
  -29.6934  -13.4707   17.7587 H   0  0  0  0  0  0
  -27.8106  -11.3254   18.7906 H   0  0  0  0  0  0
  -27.3957  -12.6690   17.7612 H   0  0  0  0  0  0
  -27.6765  -14.2657   19.5385 H   0  0  0  0  0  0
  -28.6692  -12.0249   21.3691 H   0  0  0  0  0  0
  -28.4588  -13.6912   21.8431 H   0  0  0  0  0  0
  -25.2772   -9.5675   22.4709 H   0  0  0  0  0  0
  -24.0031   -7.4621   22.7422 H   0  0  0  0  0  0
  -21.0820   -8.8770   19.8990 H   0  0  0  0  0  0
  -22.3659  -10.9667   19.6174 H   0  0  0  0  0  0
  -21.2036   -7.6147   23.9736 H   0  0  0  0  0  0
  -21.1462   -6.0519   25.9094 H   0  0  0  0  0  0
  -22.0607   -2.7603   23.2869 H   0  0  0  0  0  0
  -22.4112  -11.9904   22.4853 H   0  0  0  0  0  0
  -21.1088  -13.1253   22.2604 H   0  0  0  0  0  0
  -24.6576  -15.8466   20.5411 H   0  0  0  0  0  0
  -26.2718  -15.6424   20.0869 H   0  0  0  0  0  0
  -26.7111  -32.5550   23.1198 H   0  0  0  0  0  0
  -25.0064  -33.9814   25.0539 H   0  0  0  0  0  0
  -22.6937  -31.3208   21.4294 H   0  0  0  0  0  0
  -23.3776  -35.9548   23.3327 H   0  0  0  0  0  0
  -24.3546  -36.8859   22.2064 H   0  0  0  0  0  0
  -23.7117  -37.6453   23.6621 H   0  0  0  0  0  0
  -26.0646  -31.5927   20.6076 H   0  0  0  0  0  0
  -26.8199  -30.8645   21.9972 H   0  0  0  0  0  0
  -28.0853  -29.0714   21.1655 H   0  0  0  0  0  0
  -25.9722  -25.9382   19.0607 H   0  0  0  0  0  0
  -23.9434  -27.3016   19.0623 H   0  0  0  0  0  0
  -23.7015  -30.6169   19.4152 H   0  0  0  0  0  0
  -22.7195  -29.2613   19.8803 H   0  0  0  0  0  0
  -25.1242  -36.2051   25.0864 H   0  0  0  0  0  0
  -20.9977  -28.3193   24.1451 H   0  0  0  0  0  0
  -20.5680  -26.2264   23.3610 H   0  0  0  0  0  0
  -21.6618  -26.7441   22.1194 H   0  0  0  0  0  0
  -19.6865  -25.6331   21.1227 H   0  0  0  0  0  0
  -19.6630  -27.3257   20.6802 H   0  0  0  0  0  0
  -17.4176  -26.6722   21.4062 H   0  0  0  0  0  0
  -18.0275  -26.0068   22.9047 H   0  0  0  0  0  0
  -19.7903  -30.7295   24.2314 H   0  0  0  0  0  0
  -17.4967  -31.6253   24.5184 H   0  0  0  0  0  0
  -15.5337  -30.2988   23.7614 H   0  0  0  0  0  0
  -15.8671  -28.0834   22.7034 H   0  0  0  0  0  0
  -24.5892  -30.7060   25.7792 H   0  0  0  0  0  0
  -24.8841  -32.2820   26.5010 H   0  0  0  0  0  0
  -25.8015  -30.8820   27.0257 H   0  0  0  0  0  0
  -26.2867  -29.6910   24.1162 H   0  0  0  0  0  0
  -27.4043  -29.7334   25.4614 H   0  0  0  0  0  0
  -27.8707  -30.4488   23.9351 H   0  0  0  0  0  0
  -27.2786  -33.3690   26.2064 H   0  0  0  0  0  0
  -28.3830  -32.6894   25.0237 H   0  0  0  0  0  0
  -28.0819  -31.8493   26.5361 H   0  0  0  0  0  0
  -28.2633  -38.0081   24.7574 H   0  0  0  0  0  0
  -28.1058  -36.2615   24.6257 H   0  0  0  0  0  0
  -27.2308  -37.1391   25.8897 H   0  0  0  0  0  0
  -20.9357  -29.8745   21.6976 H   0  0  0  0  0  0
  -26.0202  -38.2918   24.1458 H   0  0  0  0  0  0
  -29.4812  -17.6202   22.5694 H   0  0  0  0  0  0
  -28.8648  -19.8589   23.4390 H   0  0  0  0  0  0
  -29.7419  -19.2787   18.6252 H   0  0  0  0  0  0
  -31.1532  -17.0564   19.6955 H   0  0  0  0  0  0
  -29.5998  -16.8346   18.9476 H   0  0  0  0  0  0
  -29.3162  -24.1602   20.6838 H   0  0  0  0  0  0
  -27.6104  -23.9286   20.2645 H   0  0  0  0  0  0
  -27.9590  -25.6248   18.3481 H   0  0  0  0  0  0
  -29.6032  -25.7512   18.8205 H   0  0  0  0  0  0
  -29.4608  -21.2959   18.2117 H   0  0  0  0  0  0
  -28.9144  -15.4627   20.9477 H   0  0  0  0  0  0
  1 25  1  0  0  0
  1 30  2  0  0  0
  1 82  1  0  0  0
  2  3  1  0  0  0
  2 25  1  0  0  0
  2 85  1  0  0  0
  2 86  1  0  0  0
  3  4  1  0  0  0
  3 87  1  0  0  0
  3 88  1  0  0  0
  4  5  1  0  0  0
  4 89  1  0  0  0
  4 90  1  0  0  0
  5  6  1  0  0  0
  5 26  1  0  0  0
  5 91  1  0  0  0
  6 25  1  0  0  0
  6 92  1  0  0  0
  6 93  1  0  0  0
  7  8  2  0  0  0
  7 26  1  0  0  0
  7 29  1  0  0  0
  8  9  1  0  0  0
  8 22  1  0  0  0
  9 10  1  0  0  0
  9 27  2  0  0  0
 10 11  2  0  0  0
 10 15  1  0  0  0
 11 12  1  0  0  0
 11 94  1  0  0  0
 12 13  2  0  0  0
 12 95  1  0  0  0
 13 14  1  0  0  0
 13 31  1  0  0  0
 14 15  2  0  0  0
 14 96  1  0  0  0
 15 97  1  0  0  0
 16 17  2  0  0  0
 16 21  1  0  0  0
 16 31  1  0  0  0
 17 18  1  0  0  0
 17 98  1  0  0  0
 18 19  2  0  0  0
 18 99  1  0  0  0
 19 20  1  0  0  0
 19 24  1  0  0  0
 20 21  2  0  0  0
 20100  1  0  0  0
 21 23  1  0  0  0
 22 28  1  0  0  0
 22 32  2  0  0  0
 26 27  1  0  0  0
 28101  1  0  0  0
 28102  1  0  0  0
 29103  1  0  0  0
 29104  1  0  0  0
 33 34  1  0  0  0
 33 66  1  0  0  0
 33 70  2  0  0  0
 34 36  1  0  0  0
 34 59  1  0  0  0
 34105  1  0  0  0
 35 44  2  0  0  0
 35 45  1  0  0  0
 35 68  1  0  0  0
 36 56  1  0  0  0
 36106  1  0  0  0
 37 39  1  0  0  0
 37 47  1  0  0  0
 37 66  1  0  0  0
 37107  1  0  0  0
 38 43  2  0  0  0
 38 46  1  0  0  0
 38 47  1  0  0  0
 39 64  1  0  0  0
 39 67  2  0  0  0
 40 52  1  0  0  0
 40 53  2  0  0  0
 40 58  1  0  0  0
 41108  1  0  0  0
 41109  1  0  0  0
 41110  1  0  0  0
 41 48  1  0  0  0
 42 43  1  0  0  0
 42 66  1  0  0  0
 42111  1  0  0  0
 42112  1  0  0  0
 43 44  1  0  0  0
 44113  1  0  0  0
 45 46  2  0  0  0
 45114  1  0  0  0
 46115  1  0  0  0
 47116  1  0  0  0
 47117  1  0  0  0
 48 56  1  0  0  0
 48 65  1  0  0  0
 48118  1  0  0  0
 49 50  1  0  0  0
 49 53  1  0  0  0
 49 64  1  0  0  0
 49119  1  0  0  0
 50 51  1  0  0  0
 50120  1  0  0  0
 50121  1  0  0  0
 51 52  1  0  0  0
 51122  1  0  0  0
 51123  1  0  0  0
 52124  1  0  0  0
 52125  1  0  0  0
 53 54  1  0  0  0
 54 55  2  0  0  0
 54126  1  0  0  0
 55 57  1  0  0  0
 55127  1  0  0  0
 56 69  2  0  0  0
 57 58  2  0  0  0
 57128  1  0  0  0
 58129  1  0  0  0
 59 60  1  0  0  0
 59 61  1  0  0  0
 59 62  1  0  0  0
 60130  1  0  0  0
 60131  1  0  0  0
 60132  1  0  0  0
 61133  1  0  0  0
 61134  1  0  0  0
 61135  1  0  0  0
 62136  1  0  0  0
 62137  1  0  0  0
 62138  1  0  0  0
 63 65  1  0  0  0
 63139  1  0  0  0
 63140  1  0  0  0
 63141  1  0  0  0
 64142  1  0  0  0
 65143  1  0  0  0
 68 80  1  0  0  0
 71 72  2  0  0  0
 71 74  1  0  0  0
 71144  1  0  0  0
 72 76  1  0  0  0
 72145  1  0  0  0
 73 74  2  0  0  0
 73 75  1  0  0  0
 73146  1  0  0  0
 74 78  1  0  0  0
 75 76  2  0  0  0
 75 81  1  0  0  0
 76 84  1  0  0  0
 77 79  1  0  0  0
 77 81  1  0  0  0
 77 83  2  0  0  0
 78 82  1  0  0  0
 78147  1  0  0  0
 78148  1  0  0  0
 79 80  1  0  0  0
 79149  1  0  0  0
 79150  1  0  0  0
 80151  1  0  0  0
 80152  1  0  0  0
 81153  1  0  0  0
 82154  1  0  0  0
M  ISO  4   1 100  68 101  80 101  82 100
M  END
> <chiral flag>
0

> <version>
0

> <s_m_source_file>
/data/baiqing/PycharmProjects/Reinvent-master-3.2/result/LINK_invent/BTK/process_docking_weight1_custom_product_contain_oxygen_bond_distance_aromatic_linkinvent_7_9_3/rearranged_h_0053.sdf

> <i_m_source_file_index>
88

> <r_mmod_Potential_Energy-OPLS-2005>
-47.3294982910156

> <r_mmod_Stretch_Energy-OPLS-2005>
48.6282615661621

> <r_mmod_Bend_Energy-OPLS-2005>
195.31315612793

> <r_mmod_Torsional_Energy-OPLS-2005>
220.227096557617

> <r_mmod_Improper_Torsional_Energy-OPLS-2005>
9.26510429382324

> <r_mmod_Van_der_Waal_Energy-OPLS-2005>
156.387908935547

> <r_mmod_Electrostatic_Energy-OPLS-2005>
-473.555816650391

> <r_mmod_Solvation_Energy-OPLS-2005>
-227.77685546875

> <b_mmod_Minimization_Converged-OPLS-2005>
0

> <r_mmod_RMS_Derivative-OPLS-2005>
3.79429745674133

$$$$
88
                    3D
 Structure written by MMmdl.
170178  0  0  1  0            999 V2000
  -30.6958  -14.4665   20.5048 C   0  0  0  0  0  0
  -30.4110  -12.2860   19.4165 C   0  0  0  0  0  0
  -29.4785  -12.4793   18.2023 C   0  0  0  0  0  0
  -28.0041  -12.3465   18.6354 C   0  0  0  0  0  0
  -27.6559  -13.1969   19.8863 C   0  0  2  0  0  0
  -28.7080  -13.0030   21.0005 C   0  0  0  0  0  0
  -25.2573  -13.8135   20.5768 C   0  0  0  0  0  0
  -24.1794  -13.0424   20.9132 C   0  0  0  0  0  0
  -24.6357  -11.6889   20.8740 C   0  0  0  0  0  0
  -23.9032  -10.4277   21.0387 C   0  0  0  0  0  0
  -24.3599   -9.4207   21.9174 C   0  0  0  0  0  0
  -23.6277   -8.2247   22.0749 C   0  0  0  0  0  0
  -22.4271   -8.0263   21.3531 C   0  0  0  0  0  0
  -21.9889   -9.0230   20.4640 C   0  0  0  0  0  0
  -22.7204  -10.2110   20.3037 C   0  0  0  0  0  0
  -21.6831   -6.0719   22.5277 C   0  0  0  0  0  0
  -21.3986   -6.5625   23.8210 C   0  0  0  0  0  0
  -21.3690   -5.6780   24.9176 C   0  0  0  0  0  0
  -21.6054   -4.3039   24.7228 C   0  0  0  0  0  0
  -21.8826   -3.8139   23.4344 C   0  0  0  0  0  0
  -21.9197   -4.6953   22.3397 C   0  0  0  0  0  0
  -22.7836  -13.5242   21.1835 C   0  0  0  0  0  0
  -22.1661   -4.2149   21.0969 F   0  0  0  0  0  0
  -21.5655   -3.4520   25.7741 F   0  0  0  0  0  0
  -30.0316  -13.2870   20.4234 N   0  0  0  0  0  0
  -26.3015  -12.9286   20.3547 N   0  0  0  0  0  0
  -25.9300  -11.6453   20.5876 N   0  0  0  0  0  0
  -22.0486  -12.8202   22.0369 N   0  0  0  0  0  0
  -25.4341  -15.1867   20.4373 N   0  0  0  0  0  0
  -31.8641  -14.6056   20.1348 O   0  0  0  0  0  0
  -21.6640   -6.8855   21.4234 O   0  0  0  0  0  0
  -22.3566  -14.5590   20.6744 O   0  0  0  0  0  0
  -24.6101  -31.8709   23.2136 C   0  0  0  0  0  0
  -25.9011  -32.4815   23.8424 C   0  0  1  0  0  0
  -27.2291  -27.4617   20.0895 C   0  0  0  0  0  0
  -25.5904  -33.8642   24.2324 N   0  0  0  0  0  0
  -23.3955  -30.4956   21.5559 C   0  0  2  0  0  0
  -24.8358  -28.9566   20.1285 C   0  0  0  0  0  0
  -22.7332  -29.4730   22.5042 C   0  0  0  0  0  0
  -18.0258  -28.1404   22.8523 C   0  0  0  0  0  0
  -24.1492  -36.7277   23.2643 C   0  0  0  0  0  0
  -25.9209  -30.8372   21.3661 C   0  0  0  0  0  0
  -25.9965  -29.4780   20.7096 C   0  0  0  0  0  0
  -27.1954  -28.7378   20.6905 C   0  0  0  0  0  0
  -26.0525  -26.9424   19.5061 C   0  0  0  0  0  0
  -24.8533  -27.6826   19.5328 C   0  0  0  0  0  0
  -23.5998  -29.8193   20.1756 C   0  0  0  0  0  0
  -25.4126  -36.3089   24.0305 C   0  0  1  0  0  0
  -20.5842  -28.3725   23.1323 C   0  0  2  0  0  0
  -20.6775  -26.9476   22.5438 C   0  0  0  0  0  0
  -19.5762  -26.6421   21.5242 C   0  0  0  0  0  0
  -18.1918  -26.7965   22.1630 C   0  0  0  0  0  0
  -19.1497  -28.8877   23.2914 C   0  0  0  0  0  0
  -18.9454  -30.1481   23.8951 C   0  0  0  0  0  0
  -17.6454  -30.6616   24.0619 C   0  0  0  0  0  0
  -25.9072  -34.9466   23.5080 C   0  0  0  0  0  0
  -16.5347  -29.9140   23.6342 C   0  0  0  0  0  0
  -16.7242  -28.6531   23.0392 C   0  0  0  0  0  0
  -26.4487  -31.6622   25.0732 C   0  0  0  0  0  0
  -25.3764  -31.3733   26.1489 C   0  0  0  0  0  0
  -27.0346  -30.3055   24.6127 C   0  0  0  0  0  0
  -27.6042  -32.4454   25.7446 C   0  0  0  0  0  0
  -27.5594  -37.1772   24.8452 C   0  0  0  0  0  0
  -21.4072  -29.3098   22.3728 N   0  0  0  0  0  0
  -26.4293  -37.3795   23.9415 N   0  0  0  0  0  0
  -24.6612  -31.0796   22.1048 N   0  0  0  0  0  0
  -23.4071  -28.8242   23.3094 O   0  0  0  0  0  0
  -28.4173  -26.7729   20.0592 O   0  0  0  0  0  0
  -26.5644  -34.8886   22.4640 O   0  0  0  0  0  0
  -23.5298  -32.1497   23.7479 O   0  0  0  0  0  0
  -31.7975  -18.7191   21.2598 C   0  0  0  0  0  0
  -31.0683  -19.6232   20.4736 C   0  0  0  0  0  0
  -31.4042  -17.3733   21.3323 C   0  0  0  0  0  0
  -29.9203  -19.2128   19.7622 C   0  0  0  0  0  0
  -29.5026  -17.8424   19.8454 C   0  0  0  0  0  0
  -30.2747  -16.9132   20.6193 C   0  0  0  0  0  0
  -29.0448  -23.2936   19.1907 C   0  0  0  0  0  0
  -29.2700  -24.5720   19.5646 C   0  0  0  0  0  0
  -29.9910  -22.6351   18.2928 C   0  0  0  0  0  0
  -30.8503  -20.6444   17.2271 C   0  0  0  0  0  0
  -27.1335  -16.1518   17.3063 C   0  0  0  0  0  0
  -29.2042  -17.3590   16.8553 C   0  0  0  0  0  0
  -29.1479  -20.3161   19.0063 C   0  0  0  0  0  0
  -28.2136  -17.3660   19.1564 C   0  0  0  0  0  0
  -28.3919  -25.4074   20.4721 C   0  0  0  0  0  0
  -29.9091  -15.5351   20.7498 N   0  0  0  0  0  0
  -29.9731  -21.2724   18.2265 N   0  0  0  0  0  0
  -28.4134  -16.6351   17.8738 N   0  3  0  0  0  0
  -30.7750  -23.2865   17.5896 O   0  0  0  0  0  0
  -31.4563  -12.3694   19.1143 H   0  0  0  0  0  0
  -30.2956  -11.2790   19.8247 H   0  0  0  0  0  0
  -29.7020  -11.7366   17.4366 H   0  0  0  0  0  0
  -29.6517  -13.4506   17.7390 H   0  0  0  0  0  0
  -27.8290  -11.2907   18.8521 H   0  0  0  0  0  0
  -27.3344  -12.5987   17.8114 H   0  0  0  0  0  0
  -27.6922  -14.2386   19.5801 H   0  0  0  0  0  0
  -28.6863  -11.9779   21.3744 H   0  0  0  0  0  0
  -28.4939  -13.6335   21.8651 H   0  0  0  0  0  0
  -25.2739   -9.5668   22.4758 H   0  0  0  0  0  0
  -23.9988   -7.4613   22.7420 H   0  0  0  0  0  0
  -21.0850   -8.8712   19.8916 H   0  0  0  0  0  0
  -22.3648  -10.9645   19.6144 H   0  0  0  0  0  0
  -21.1933   -7.6129   23.9717 H   0  0  0  0  0  0
  -21.1513   -6.0495   25.9079 H   0  0  0  0  0  0
  -22.0585   -2.7611   23.2829 H   0  0  0  0  0  0
  -22.4109  -11.9815   22.4659 H   0  0  0  0  0  0
  -21.1115  -13.1186   22.2650 H   0  0  0  0  0  0
  -24.6153  -15.7474   20.6505 H   0  0  0  0  0  0
  -26.2485  -15.5644   20.8994 H   0  0  0  0  0  0
  -26.7064  -32.5532   23.1195 H   0  0  0  0  0  0
  -25.0079  -33.9924   25.0469 H   0  0  0  0  0  0
  -22.6900  -31.3159   21.4105 H   0  0  0  0  0  0
  -23.3768  -35.9598   23.3287 H   0  0  0  0  0  0
  -24.3593  -36.8933   22.2065 H   0  0  0  0  0  0
  -23.7206  -37.6436   23.6716 H   0  0  0  0  0  0
  -26.0430  -31.6030   20.5984 H   0  0  0  0  0  0
  -26.8062  -30.8851   21.9885 H   0  0  0  0  0  0
  -28.0911  -29.1362   21.1457 H   0  0  0  0  0  0
  -26.0563  -25.9742   19.0215 H   0  0  0  0  0  0
  -23.9551  -27.2755   19.0907 H   0  0  0  0  0  0
  -23.7109  -30.5891   19.4138 H   0  0  0  0  0  0
  -22.7226  -29.2388   19.8791 H   0  0  0  0  0  0
  -25.1298  -36.1962   25.0796 H   0  0  0  0  0  0
  -20.9978  -28.3351   24.1417 H   0  0  0  0  0  0
  -20.5764  -26.2345   23.3628 H   0  0  0  0  0  0
  -21.6638  -26.7596   22.1182 H   0  0  0  0  0  0
  -19.6968  -25.6340   21.1259 H   0  0  0  0  0  0
  -19.6679  -27.3240   20.6775 H   0  0  0  0  0  0
  -17.4216  -26.6765   21.3994 H   0  0  0  0  0  0
  -18.0306  -26.0059   22.8971 H   0  0  0  0  0  0
  -19.7919  -30.7288   24.2326 H   0  0  0  0  0  0
  -17.5012  -31.6299   24.5245 H   0  0  0  0  0  0
  -15.5373  -30.3103   23.7596 H   0  0  0  0  0  0
  -15.8611  -28.0849   22.7146 H   0  0  0  0  0  0
  -24.5864  -30.7174   25.7795 H   0  0  0  0  0  0
  -24.9040  -32.2911   26.5046 H   0  0  0  0  0  0
  -25.8094  -30.8786   27.0188 H   0  0  0  0  0  0
  -26.2862  -29.6740   24.1302 H   0  0  0  0  0  0
  -27.4231  -29.7387   25.4616 H   0  0  0  0  0  0
  -27.8662  -30.4342   23.9163 H   0  0  0  0  0  0
  -27.2584  -33.3731   26.2044 H   0  0  0  0  0  0
  -28.3775  -32.7142   25.0217 H   0  0  0  0  0  0
  -28.0816  -31.8622   26.5348 H   0  0  0  0  0  0
  -28.2586  -38.0108   24.7601 H   0  0  0  0  0  0
  -28.1127  -36.2642   24.6175 H   0  0  0  0  0  0
  -27.2318  -37.1268   25.8855 H   0  0  0  0  0  0
  -20.9235  -29.8702   21.6831 H   0  0  0  0  0  0
  -26.0150  -38.2840   24.1519 H   0  0  0  0  0  0
  -32.6594  -19.0637   21.8152 H   0  0  0  0  0  0
  -31.3849  -20.6580   20.4470 H   0  0  0  0  0  0
  -31.9702  -16.6943   21.9552 H   0  0  0  0  0  0
  -28.1571  -22.8001   19.5574 H   0  0  0  0  0  0
  -30.1556  -25.0830   19.2100 H   0  0  0  0  0  0
  -31.8941  -20.8944   17.4260 H   0  0  0  0  0  0
  -30.6042  -20.9943   16.2213 H   0  0  0  0  0  0
  -30.7793  -19.5622   17.2207 H   0  0  0  0  0  0
  -27.3073  -15.4987   16.4511 H   0  0  0  0  0  0
  -26.5161  -16.9876   16.9738 H   0  0  0  0  0  0
  -26.5576  -15.5816   18.0328 H   0  0  0  0  0  0
  -29.2119  -16.8203   15.9077 H   0  0  0  0  0  0
  -30.2418  -17.4521   17.1703 H   0  0  0  0  0  0
  -28.7900  -18.3476   16.6630 H   0  0  0  0  0  0
  -28.5590  -20.8046   19.7776 H   0  0  0  0  0  0
  -28.4213  -19.9239   18.3005 H   0  0  0  0  0  0
  -27.5043  -18.1834   19.0352 H   0  0  0  0  0  0
  -27.7025  -16.6981   19.8496 H   0  0  0  0  0  0
  -28.8125  -25.3707   21.4772 H   0  0  0  0  0  0
  -27.3905  -24.9789   20.5452 H   0  0  0  0  0  0
  -28.9483  -15.3190   20.9570 H   0  0  0  0  0  0
  -28.9582  -15.8162   18.0950 H   0  0  0  0  0  0
  1 25  1  0  0  0
  1 30  2  0  0  0
  1 86  1  0  0  0
  2  3  1  0  0  0
  2 25  1  0  0  0
  2 90  1  0  0  0
  2 91  1  0  0  0
  3  4  1  0  0  0
  3 92  1  0  0  0
  3 93  1  0  0  0
  4  5  1  0  0  0
  4 94  1  0  0  0
  4 95  1  0  0  0
  5  6  1  0  0  0
  5 26  1  0  0  0
  5 96  1  0  0  0
  6 25  1  0  0  0
  6 97  1  0  0  0
  6 98  1  0  0  0
  7  8  2  0  0  0
  7 26  1  0  0  0
  7 29  1  0  0  0
  8  9  1  0  0  0
  8 22  1  0  0  0
  9 10  1  0  0  0
  9 27  2  0  0  0
 10 11  2  0  0  0
 10 15  1  0  0  0
 11 12  1  0  0  0
 11 99  1  0  0  0
 12 13  2  0  0  0
 12100  1  0  0  0
 13 14  1  0  0  0
 13 31  1  0  0  0
 14 15  2  0  0  0
 14101  1  0  0  0
 15102  1  0  0  0
 16 17  2  0  0  0
 16 21  1  0  0  0
 16 31  1  0  0  0
 17 18  1  0  0  0
 17103  1  0  0  0
 18 19  2  0  0  0
 18104  1  0  0  0
 19 20  1  0  0  0
 19 24  1  0  0  0
 20 21  2  0  0  0
 20105  1  0  0  0
 21 23  1  0  0  0
 22 28  1  0  0  0
 22 32  2  0  0  0
 26 27  1  0  0  0
 28106  1  0  0  0
 28107  1  0  0  0
 29108  1  0  0  0
 29109  1  0  0  0
 33 34  1  0  0  0
 33 66  1  0  0  0
 33 70  2  0  0  0
 34 36  1  0  0  0
 34 59  1  0  0  0
 34110  1  0  0  0
 35 44  2  0  0  0
 35 45  1  0  0  0
 35 68  1  0  0  0
 36 56  1  0  0  0
 36111  1  0  0  0
 37 39  1  0  0  0
 37 47  1  0  0  0
 37 66  1  0  0  0
 37112  1  0  0  0
 38 43  2  0  0  0
 38 46  1  0  0  0
 38 47  1  0  0  0
 39 64  1  0  0  0
 39 67  2  0  0  0
 40 52  1  0  0  0
 40 53  2  0  0  0
 40 58  1  0  0  0
 41113  1  0  0  0
 41114  1  0  0  0
 41115  1  0  0  0
 41 48  1  0  0  0
 42 43  1  0  0  0
 42 66  1  0  0  0
 42116  1  0  0  0
 42117  1  0  0  0
 43 44  1  0  0  0
 44118  1  0  0  0
 45 46  2  0  0  0
 45119  1  0  0  0
 46120  1  0  0  0
 47121  1  0  0  0
 47122  1  0  0  0
 48 56  1  0  0  0
 48 65  1  0  0  0
 48123  1  0  0  0
 49 50  1  0  0  0
 49 53  1  0  0  0
 49 64  1  0  0  0
 49124  1  0  0  0
 50 51  1  0  0  0
 50125  1  0  0  0
 50126  1  0  0  0
 51 52  1  0  0  0
 51127  1  0  0  0
 51128  1  0  0  0
 52129  1  0  0  0
 52130  1  0  0  0
 53 54  1  0  0  0
 54 55  2  0  0  0
 54131  1  0  0  0
 55 57  1  0  0  0
 55132  1  0  0  0
 56 69  2  0  0  0
 57 58  2  0  0  0
 57133  1  0  0  0
 58134  1  0  0  0
 59 60  1  0  0  0
 59 61  1  0  0  0
 59 62  1  0  0  0
 60135  1  0  0  0
 60136  1  0  0  0
 60137  1  0  0  0
 61138  1  0  0  0
 61139  1  0  0  0
 61140  1  0  0  0
 62141  1  0  0  0
 62142  1  0  0  0
 62143  1  0  0  0
 63 65  1  0  0  0
 63144  1  0  0  0
 63145  1  0  0  0
 63146  1  0  0  0
 64147  1  0  0  0
 65148  1  0  0  0
 68 85  1  0  0  0
 71 72  2  0  0  0
 71 73  1  0  0  0
 71149  1  0  0  0
 72 74  1  0  0  0
 72150  1  0  0  0
 73 76  2  0  0  0
 73151  1  0  0  0
 74 75  2  0  0  0
 74 83  1  0  0  0
 75 76  1  0  0  0
 75 84  1  0  0  0
 76 86  1  0  0  0
 77 78  2  0  0  0
 77 79  1  0  0  0
 77152  1  0  0  0
 78 85  1  0  0  0
 78153  1  0  0  0
 79 87  1  0  0  0
 79 89  2  0  0  0
 80 87  1  0  0  0
 80154  1  0  0  0
 80155  1  0  0  0
 80156  1  0  0  0
 81157  1  0  0  0
 81158  1  0  0  0
 81159  1  0  0  0
 81 88  1  0  0  0
 82 88  1  0  0  0
 82160  1  0  0  0
 82161  1  0  0  0
 82162  1  0  0  0
 83 87  1  0  0  0
 83163  1  0  0  0
 83164  1  0  0  0
 84 88  1  0  0  0
 84165  1  0  0  0
 84166  1  0  0  0
 85167  1  0  0  0
 85168  1  0  0  0
 86169  1  0  0  0
 88170  1  0  0  0
M  CHG  1  88   1
M  ISO  4   1 100  68 101  85 101  86 100
M  END
> <chiral flag>
0

> <version>
0

> <s_m_source_file>
/data/baiqing/PycharmProjects/Reinvent-master-3.2/result/LINK_invent/BTK/process_docking_weight1_custom_product_contain_oxygen_bond_distance_aromatic_linkinvent_7_9_3/rearranged_h_0053.sdf

> <i_m_source_file_index>
89

> <r_mmod_Potential_Energy-OPLS-2005>
-156.280075073242

> <r_mmod_Stretch_Energy-OPLS-2005>
43.5115699768066

> <r_mmod_Bend_Energy-OPLS-2005>
108.409721374512

> <r_mmod_Torsional_Energy-OPLS-2005>
261.682922363281

> <r_mmod_Improper_Torsional_Energy-OPLS-2005>
11.7958574295044

> <r_mmod_Van_der_Waal_Energy-OPLS-2005>
162.888977050781

> <r_mmod_Electrostatic_Energy-OPLS-2005>
-277.051208496094

> <r_mmod_Solvation_Energy-OPLS-2005>
-482.367614746094

> <b_mmod_Minimization_Converged-OPLS-2005>
0

> <r_mmod_RMS_Derivative-OPLS-2005>
5.67467641830444

$$$$
89
                    3D
 Structure written by MMmdl.
172181  0  0  1  0            999 V2000
  -30.7417  -14.3751   20.5955 C   0  0  0  0  0  0
  -30.4090  -12.2510   19.4162 C   0  0  0  0  0  0
  -29.4932  -12.5136   18.2042 C   0  0  0  0  0  0
  -28.0130  -12.3834   18.6123 C   0  0  0  0  0  0
  -27.6693  -13.2027   19.8853 C   0  0  2  0  0  0
  -28.7057  -12.9491   21.0061 C   0  0  0  0  0  0
  -25.2621  -13.8159   20.5684 C   0  0  0  0  0  0
  -24.1848  -13.0429   20.9146 C   0  0  0  0  0  0
  -24.6395  -11.6900   20.8709 C   0  0  0  0  0  0
  -23.9059  -10.4283   21.0396 C   0  0  0  0  0  0
  -24.3602   -9.4200   21.9182 C   0  0  0  0  0  0
  -23.6278   -8.2238   22.0762 C   0  0  0  0  0  0
  -22.4271   -8.0272   21.3537 C   0  0  0  0  0  0
  -21.9903   -9.0249   20.4650 C   0  0  0  0  0  0
  -22.7224  -10.2133   20.3050 C   0  0  0  0  0  0
  -21.6854   -6.0722   22.5279 C   0  0  0  0  0  0
  -21.4013   -6.5636   23.8213 C   0  0  0  0  0  0
  -21.3658   -5.6792   24.9179 C   0  0  0  0  0  0
  -21.6042   -4.3054   24.7237 C   0  0  0  0  0  0
  -21.8818   -3.8143   23.4355 C   0  0  0  0  0  0
  -21.9196   -4.6955   22.3412 C   0  0  0  0  0  0
  -22.7882  -13.5249   21.1825 C   0  0  0  0  0  0
  -22.1660   -4.2136   21.0984 F   0  0  0  0  0  0
  -21.5633   -3.4542   25.7748 F   0  0  0  0  0  0
  -30.0498  -13.2159   20.4654 N   0  0  0  0  0  0
  -26.3062  -12.9325   20.3394 N   0  0  0  0  0  0
  -25.9328  -11.6490   20.5750 N   0  0  0  0  0  0
  -22.0517  -12.8239   22.0382 N   0  0  0  0  0  0
  -25.4376  -15.1867   20.4129 N   0  0  0  0  0  0
  -31.8631  -14.5542   20.1099 O   0  0  0  0  0  0
  -21.6635   -6.8869   21.4241 O   0  0  0  0  0  0
  -22.3581  -14.5561   20.6689 O   0  0  0  0  0  0
  -24.6092  -31.8698   23.2118 C   0  0  0  0  0  0
  -25.9009  -32.4827   23.8402 C   0  0  1  0  0  0
  -27.2556  -27.4867   20.1056 C   0  0  0  0  0  0
  -25.5912  -33.8621   24.2361 N   0  0  0  0  0  0
  -23.3969  -30.4918   21.5486 C   0  0  2  0  0  0
  -24.8527  -28.9641   20.1181 C   0  0  0  0  0  0
  -22.7376  -29.4658   22.4975 C   0  0  0  0  0  0
  -18.0264  -28.1350   22.8460 C   0  0  0  0  0  0
  -24.1504  -36.7324   23.2626 C   0  0  0  0  0  0
  -25.9189  -30.8525   21.3610 C   0  0  0  0  0  0
  -26.0036  -29.4874   20.7196 C   0  0  0  0  0  0
  -27.2059  -28.7548   20.7223 C   0  0  0  0  0  0
  -26.0974  -26.9753   19.4845 C   0  0  0  0  0  0
  -24.8917  -27.7028   19.4958 C   0  0  0  0  0  0
  -23.6070  -29.8190   20.1648 C   0  0  0  0  0  0
  -25.4110  -36.3111   24.0338 C   0  0  1  0  0  0
  -20.5847  -28.3650   23.1313 C   0  0  2  0  0  0
  -20.6773  -26.9395   22.5408 C   0  0  0  0  0  0
  -19.5777  -26.6370   21.5179 C   0  0  0  0  0  0
  -18.1941  -26.7894   22.1572 C   0  0  0  0  0  0
  -19.1507  -28.8808   23.2892 C   0  0  0  0  0  0
  -18.9437  -30.1407   23.8919 C   0  0  0  0  0  0
  -17.6446  -30.6572   24.0542 C   0  0  0  0  0  0
  -25.9037  -34.9476   23.5142 C   0  0  0  0  0  0
  -16.5336  -29.9077   23.6291 C   0  0  0  0  0  0
  -16.7252  -28.6476   23.0332 C   0  0  0  0  0  0
  -26.4461  -31.6562   25.0674 C   0  0  0  0  0  0
  -25.3765  -31.3652   26.1431 C   0  0  0  0  0  0
  -27.0214  -30.2992   24.6009 C   0  0  0  0  0  0
  -27.6049  -32.4217   25.7465 C   0  0  0  0  0  0
  -27.5597  -37.1808   24.8437 C   0  0  0  0  0  0
  -21.4108  -29.3023   22.3716 N   0  0  0  0  0  0
  -26.4309  -37.3780   23.9407 N   0  0  0  0  0  0
  -24.6582  -31.0843   22.0992 N   0  0  0  0  0  0
  -23.4160  -28.8188   23.2998 O   0  0  0  0  0  0
  -28.3976  -26.7270   20.0479 O   0  0  0  0  0  0
  -26.5572  -34.8915   22.4682 O   0  0  0  0  0  0
  -23.5307  -32.1410   23.7565 O   0  0  0  0  0  0
  -29.6694  -19.2758   19.5392 C   0  0  0  0  0  0
  -29.5896  -17.7678   21.4716 C   0  0  0  0  0  0
  -30.2935  -16.9524   19.2774 C   0  0  0  0  0  0
  -29.3947  -19.0468   20.9028 C   0  0  0  0  0  0
  -30.1475  -18.2347   18.7303 C   0  0  0  0  0  0
  -30.0122  -16.7015   20.6450 C   0  0  0  0  0  0
  -29.7603  -20.7411   22.5619 C   0  0  0  0  0  0
  -28.9044  -20.1994   21.6687 C   0  0  0  0  0  0
  -27.7345  -20.9802   21.2229 C   0  0  0  0  0  0
  -26.6059  -20.4010   20.7260 C   0  0  0  0  0  0
  -29.8505  -25.3278   21.2811 C   0  0  0  0  0  0
  -29.6604  -22.1896   23.0033 C   0  0  0  0  0  0
  -27.7942  -22.5013   21.3653 C   0  0  0  0  0  0
  -29.1818  -22.9948   21.7858 C   0  0  1  0  0  0
  -30.5007  -18.4746   17.2776 C   0  0  0  0  0  0
  -25.3878  -21.2025   20.2842 C   0  0  0  0  0  0
  -26.3602  -18.9010   20.6245 C   0  0  0  0  0  0
  -29.2619  -26.7345   21.1858 C   0  0  0  0  0  0
  -30.0720  -15.3826   21.1725 N   0  0  0  0  0  0
  -29.1501  -24.4365   21.9993 N   0  0  0  0  0  0
  -30.8573  -25.0302   20.6316 O   0  0  0  0  0  0
  -31.4583  -12.3162   19.1230 H   0  0  0  0  0  0
  -30.2687  -11.2332   19.7834 H   0  0  0  0  0  0
  -29.7215  -11.8159   17.3981 H   0  0  0  0  0  0
  -29.6801  -13.5122   17.8055 H   0  0  0  0  0  0
  -27.8122  -11.3258   18.7870 H   0  0  0  0  0  0
  -27.3679  -12.6826   17.7860 H   0  0  0  0  0  0
  -27.7253  -14.2564   19.6131 H   0  0  0  0  0  0
  -28.6516  -11.9129   21.3427 H   0  0  0  0  0  0
  -28.4767  -13.5485   21.8879 H   0  0  0  0  0  0
  -25.2747   -9.5692   22.4757 H   0  0  0  0  0  0
  -23.9990   -7.4646   22.7498 H   0  0  0  0  0  0
  -21.0825   -8.8749   19.8972 H   0  0  0  0  0  0
  -22.3664  -10.9657   19.6165 H   0  0  0  0  0  0
  -21.1995   -7.6143   23.9708 H   0  0  0  0  0  0
  -21.1485   -6.0525   25.9071 H   0  0  0  0  0  0
  -22.0602   -2.7602   23.2864 H   0  0  0  0  0  0
  -22.4119  -11.9884   22.4752 H   0  0  0  0  0  0
  -21.1148  -13.1306   22.2593 H   0  0  0  0  0  0
  -24.6819  -15.8491   20.5405 H   0  0  0  0  0  0
  -26.3029  -15.6256   20.1250 H   0  0  0  0  0  0
  -26.7060  -32.5606   23.1166 H   0  0  0  0  0  0
  -25.0112  -33.9761   25.0542 H   0  0  0  0  0  0
  -22.6861  -31.3070   21.4046 H   0  0  0  0  0  0
  -23.3757  -35.9669   23.3264 H   0  0  0  0  0  0
  -24.3627  -36.8941   22.2046 H   0  0  0  0  0  0
  -23.7257  -37.6532   23.6630 H   0  0  0  0  0  0
  -26.0253  -31.6183   20.5911 H   0  0  0  0  0  0
  -26.8092  -30.9121   21.9739 H   0  0  0  0  0  0
  -28.0925  -29.1727   21.1762 H   0  0  0  0  0  0
  -26.1341  -26.0121   18.9949 H   0  0  0  0  0  0
  -24.0112  -27.2971   19.0197 H   0  0  0  0  0  0
  -23.7065  -30.5881   19.3988 H   0  0  0  0  0  0
  -22.7389  -29.2242   19.8711 H   0  0  0  0  0  0
  -25.1284  -36.1973   25.0834 H   0  0  0  0  0  0
  -20.9932  -28.3229   24.1429 H   0  0  0  0  0  0
  -20.5677  -26.2259   23.3593 H   0  0  0  0  0  0
  -21.6653  -26.7441   22.1218 H   0  0  0  0  0  0
  -19.6965  -25.6283   21.1192 H   0  0  0  0  0  0
  -19.6733  -27.3190   20.6729 H   0  0  0  0  0  0
  -17.4216  -26.6620   21.3960 H   0  0  0  0  0  0
  -18.0352  -26.0020   22.8962 H   0  0  0  0  0  0
  -19.7918  -30.7189   24.2338 H   0  0  0  0  0  0
  -17.5004  -31.6261   24.5120 H   0  0  0  0  0  0
  -15.5343  -30.3005   23.7591 H   0  0  0  0  0  0
  -15.8640  -28.0811   22.7052 H   0  0  0  0  0  0
  -24.6006  -30.6905   25.7810 H   0  0  0  0  0  0
  -24.8905  -32.2796   26.4837 H   0  0  0  0  0  0
  -25.8191  -30.8903   27.0196 H   0  0  0  0  0  0
  -26.2713  -29.6829   24.1056 H   0  0  0  0  0  0
  -27.3918  -29.7151   25.4440 H   0  0  0  0  0  0
  -27.8586  -30.4236   23.9142 H   0  0  0  0  0  0
  -27.2683  -33.3497   26.2082 H   0  0  0  0  0  0
  -28.3905  -32.6776   25.0342 H   0  0  0  0  0  0
  -28.0648  -31.8285   26.5370 H   0  0  0  0  0  0
  -28.2572  -38.0151   24.7550 H   0  0  0  0  0  0
  -28.1151  -36.2682   24.6192 H   0  0  0  0  0  0
  -27.2324  -37.1366   25.8843 H   0  0  0  0  0  0
  -20.9254  -29.8743   21.6942 H   0  0  0  0  0  0
  -26.0192  -38.2856   24.1453 H   0  0  0  0  0  0
  -29.5367  -20.2649   19.1242 H   0  0  0  0  0  0
  -29.3754  -17.6032   22.5187 H   0  0  0  0  0  0
  -30.6161  -16.1629   18.6121 H   0  0  0  0  0  0
  -30.6709  -20.2244   22.8378 H   0  0  0  0  0  0
  -30.6469  -22.5326   23.3164 H   0  0  0  0  0  0
  -28.9836  -22.2841   23.8530 H   0  0  0  0  0  0
  -27.0447  -22.8150   22.0939 H   0  0  0  0  0  0
  -27.5485  -22.9758   20.4179 H   0  0  0  0  0  0
  -29.8579  -22.7697   20.9543 H   0  0  0  0  0  0
  -30.3002  -19.5024   16.9734 H   0  0  0  0  0  0
  -29.9258  -17.8088   16.6335 H   0  0  0  0  0  0
  -31.5609  -18.2731   17.1152 H   0  0  0  0  0  0
  -25.6166  -22.2123   19.9507 H   0  0  0  0  0  0
  -24.6780  -21.2778   21.1079 H   0  0  0  0  0  0
  -24.8874  -20.7076   19.4525 H   0  0  0  0  0  0
  -26.6249  -18.5370   19.6305 H   0  0  0  0  0  0
  -25.3097  -18.6655   20.7996 H   0  0  0  0  0  0
  -26.9181  -18.3371   21.3690 H   0  0  0  0  0  0
  -30.0602  -27.4659   21.0620 H   0  0  0  0  0  0
  -28.7376  -26.9641   22.1157 H   0  0  0  0  0  0
  -29.3054  -15.1098   21.7684 H   0  0  0  0  0  0
  -28.3725  -24.8027   22.5337 H   0  0  0  0  0  0
  1 25  1  0  0  0
  1 30  2  0  0  0
  1 89  1  0  0  0
  2  3  1  0  0  0
  2 25  1  0  0  0
  2 92  1  0  0  0
  2 93  1  0  0  0
  3  4  1  0  0  0
  3 94  1  0  0  0
  3 95  1  0  0  0
  4  5  1  0  0  0
  4 96  1  0  0  0
  4 97  1  0  0  0
  5  6  1  0  0  0
  5 26  1  0  0  0
  5 98  1  0  0  0
  6 25  1  0  0  0
  6 99  1  0  0  0
  6100  1  0  0  0
  7  8  2  0  0  0
  7 26  1  0  0  0
  7 29  1  0  0  0
  8  9  1  0  0  0
  8 22  1  0  0  0
  9 10  1  0  0  0
  9 27  2  0  0  0
 10 11  2  0  0  0
 10 15  1  0  0  0
 11 12  1  0  0  0
 11101  1  0  0  0
 12 13  2  0  0  0
 12102  1  0  0  0
 13 14  1  0  0  0
 13 31  1  0  0  0
 14 15  2  0  0  0
 14103  1  0  0  0
 15104  1  0  0  0
 16 17  2  0  0  0
 16 21  1  0  0  0
 16 31  1  0  0  0
 17 18  1  0  0  0
 17105  1  0  0  0
 18 19  2  0  0  0
 18106  1  0  0  0
 19 20  1  0  0  0
 19 24  1  0  0  0
 20 21  2  0  0  0
 20107  1  0  0  0
 21 23  1  0  0  0
 22 28  1  0  0  0
 22 32  2  0  0  0
 26 27  1  0  0  0
 28108  1  0  0  0
 28109  1  0  0  0
 29110  1  0  0  0
 29111  1  0  0  0
 33 34  1  0  0  0
 33 66  1  0  0  0
 33 70  2  0  0  0
 34 36  1  0  0  0
 34 59  1  0  0  0
 34112  1  0  0  0
 35 44  2  0  0  0
 35 45  1  0  0  0
 35 68  1  0  0  0
 36 56  1  0  0  0
 36113  1  0  0  0
 37 39  1  0  0  0
 37 47  1  0  0  0
 37 66  1  0  0  0
 37114  1  0  0  0
 38 43  2  0  0  0
 38 46  1  0  0  0
 38 47  1  0  0  0
 39 64  1  0  0  0
 39 67  2  0  0  0
 40 52  1  0  0  0
 40 53  2  0  0  0
 40 58  1  0  0  0
 41115  1  0  0  0
 41116  1  0  0  0
 41117  1  0  0  0
 41 48  1  0  0  0
 42 43  1  0  0  0
 42 66  1  0  0  0
 42118  1  0  0  0
 42119  1  0  0  0
 43 44  1  0  0  0
 44120  1  0  0  0
 45 46  2  0  0  0
 45121  1  0  0  0
 46122  1  0  0  0
 47123  1  0  0  0
 47124  1  0  0  0
 48 56  1  0  0  0
 48 65  1  0  0  0
 48125  1  0  0  0
 49 50  1  0  0  0
 49 53  1  0  0  0
 49 64  1  0  0  0
 49126  1  0  0  0
 50 51  1  0  0  0
 50127  1  0  0  0
 50128  1  0  0  0
 51 52  1  0  0  0
 51129  1  0  0  0
 51130  1  0  0  0
 52131  1  0  0  0
 52132  1  0  0  0
 53 54  1  0  0  0
 54 55  2  0  0  0
 54133  1  0  0  0
 55 57  1  0  0  0
 55134  1  0  0  0
 56 69  2  0  0  0
 57 58  2  0  0  0
 57135  1  0  0  0
 58136  1  0  0  0
 59 60  1  0  0  0
 59 61  1  0  0  0
 59 62  1  0  0  0
 60137  1  0  0  0
 60138  1  0  0  0
 60139  1  0  0  0
 61140  1  0  0  0
 61141  1  0  0  0
 61142  1  0  0  0
 62143  1  0  0  0
 62144  1  0  0  0
 62145  1  0  0  0
 63 65  1  0  0  0
 63146  1  0  0  0
 63147  1  0  0  0
 63148  1  0  0  0
 64149  1  0  0  0
 65150  1  0  0  0
 68 88  1  0  0  0
 71 74  2  0  0  0
 71 75  1  0  0  0
 71151  1  0  0  0
 72 74  1  0  0  0
 72 76  2  0  0  0
 72152  1  0  0  0
 73 75  2  0  0  0
 73 76  1  0  0  0
 73153  1  0  0  0
 74 78  1  0  0  0
 75 85  1  0  0  0
 76 89  1  0  0  0
 77 78  2  0  0  0
 77 82  1  0  0  0
 77154  1  0  0  0
 78 79  1  0  0  0
 79 80  2  0  0  0
 79 83  1  0  0  0
 80 86  1  0  0  0
 80 87  1  0  0  0
 81 88  1  0  0  0
 81 90  1  0  0  0
 81 91  2  0  0  0
 82 84  1  0  0  0
 82155  1  0  0  0
 82156  1  0  0  0
 83 84  1  0  0  0
 83157  1  0  0  0
 83158  1  0  0  0
 84 90  1  0  0  0
 84159  1  0  0  0
 85160  1  0  0  0
 85161  1  0  0  0
 85162  1  0  0  0
 86163  1  0  0  0
 86164  1  0  0  0
 86165  1  0  0  0
 87166  1  0  0  0
 87167  1  0  0  0
 87168  1  0  0  0
 88169  1  0  0  0
 88170  1  0  0  0
 89171  1  0  0  0
 90172  1  0  0  0
M  ISO  4   1 100  68 101  88 101  89 100
M  END
> <chiral flag>
0

> <version>
0

> <s_m_source_file>
/data/baiqing/PycharmProjects/Reinvent-master-3.2/result/LINK_invent/BTK/process_docking_weight1_custom_product_contain_oxygen_bond_distance_aromatic_linkinvent_7_9_3/rearranged_h_0053.sdf

> <i_m_source_file_index>
90

> <r_mmod_Potential_Energy-OPLS-2005>
54.7989768981934

> <r_mmod_Stretch_Energy-OPLS-2005>
34.8900299072266

> <r_mmod_Bend_Energy-OPLS-2005>
111.825469970703

> <r_mmod_Torsional_Energy-OPLS-2005>
332.498168945312

> <r_mmod_Improper_Torsional_Energy-OPLS-2005>
7.88630342483521

> <r_mmod_Van_der_Waal_Energy-OPLS-2005>
176.412124633789

> <r_mmod_Electrostatic_Energy-OPLS-2005>
-394.4453125

> <r_mmod_Solvation_Energy-OPLS-2005>
-222.552474975586

> <b_mmod_Minimization_Converged-OPLS-2005>
0

> <r_mmod_RMS_Derivative-OPLS-2005>
3.30164074897766

$$$$
90
                    3D
 Structure written by MMmdl.
167176  0  0  1  0            999 V2000
  -30.0524  -15.1405   20.4074 C   0  0  0  0  0  0
  -30.4155  -12.7253   19.5507 C   0  0  0  0  0  0
  -29.5304  -12.5753   18.2828 C   0  0  0  0  0  0
  -28.0528  -12.3139   18.6591 C   0  0  0  0  0  0
  -27.5880  -13.2150   19.8327 C   0  0  2  0  0  0
  -28.5829  -13.1959   21.0001 C   0  0  0  0  0  0
  -25.2311  -13.8108   20.5701 C   0  0  0  0  0  0
  -24.1618  -13.0381   20.9213 C   0  0  0  0  0  0
  -24.6190  -11.6853   20.8706 C   0  0  0  0  0  0
  -23.8939  -10.4260   21.0437 C   0  0  0  0  0  0
  -24.3557   -9.4200   21.9203 C   0  0  0  0  0  0
  -23.6265   -8.2222   22.0762 C   0  0  0  0  0  0
  -22.4248   -8.0254   21.3551 C   0  0  0  0  0  0
  -21.9851   -9.0214   20.4653 C   0  0  0  0  0  0
  -22.7141  -10.2103   20.3072 C   0  0  0  0  0  0
  -21.6842   -6.0720   22.5291 C   0  0  0  0  0  0
  -21.4006   -6.5634   23.8217 C   0  0  0  0  0  0
  -21.3655   -5.6791   24.9179 C   0  0  0  0  0  0
  -21.6038   -4.3053   24.7232 C   0  0  0  0  0  0
  -21.8823   -3.8142   23.4355 C   0  0  0  0  0  0
  -21.9191   -4.6953   22.3409 C   0  0  0  0  0  0
  -22.7687  -13.5212   21.1892 C   0  0  0  0  0  0
  -22.1665   -4.2142   21.0985 F   0  0  0  0  0  0
  -21.5628   -3.4537   25.7746 F   0  0  0  0  0  0
  -29.7934  -13.7635   20.4397 N   0  0  0  0  0  0
  -26.2558  -12.9213   20.3037 N   0  0  0  0  0  0
  -25.9055  -11.6392   20.5576 N   0  0  0  0  0  0
  -22.0368  -12.8216   22.0469 N   0  0  0  0  0  0
  -25.4115  -15.1849   20.4343 N   0  0  0  0  0  0
  -31.2304  -15.4079   20.0906 O   0  0  0  0  0  0
  -21.6620   -6.8852   21.4253 O   0  0  0  0  0  0
  -22.3399  -14.5524   20.6729 O   0  0  0  0  0  0
  -24.7410  -32.0143   23.1721 C   0  0  0  0  0  0
  -26.0147  -32.5318   23.8550 C   0  0  1  0  0  0
  -26.4850  -27.0468   20.5543 C   0  0  0  0  0  0
  -25.6982  -33.9001   24.2725 N   0  0  0  0  0  0
  -23.5410  -30.7913   21.4436 C   0  0  2  0  0  0
  -24.8300  -29.1089   19.9995 C   0  0  0  0  0  0
  -22.9068  -29.9205   22.4870 C   0  0  0  0  0  0
  -18.3400  -27.6358   22.7363 C   0  0  0  0  0  0
  -24.1545  -36.7346   23.2592 C   0  0  0  0  0  0
  -26.0547  -30.8033   21.3816 C   0  0  0  0  0  0
  -25.9626  -29.4089   20.7657 C   0  0  0  0  0  0
  -26.8448  -28.3384   21.0617 C   0  0  0  0  0  0
  -25.7558  -26.9591   19.3851 C   0  0  0  0  0  0
  -24.7759  -27.9332   19.2321 C   0  0  0  0  0  0
  -23.6706  -30.0632   20.0718 C   0  0  0  0  0  0
  -25.4195  -36.3287   24.0329 C   0  0  1  0  0  0
  -21.1521  -28.6601   22.9595 C   0  0  2  0  0  0
  -22.3070  -27.3449   22.2142 C   0  0  0  0  0  0
  -20.2035  -24.9194   21.6273 C   0  0  0  0  0  0
  -18.4832  -25.9169   22.1086 C   0  0  0  0  0  0
  -19.4322  -28.6870   23.0943 C   0  0  0  0  0  0
  -19.0279  -29.9322   23.6971 C   0  0  0  0  0  0
  -17.6980  -30.3431   23.8900 C   0  0  0  0  0  0
  -25.9330  -34.9748   23.5153 C   0  0  0  0  0  0
  -16.6847  -29.4718   23.4775 C   0  0  0  0  0  0
  -17.0069  -28.1840   22.9418 C   0  0  0  0  0  0
  -26.4704  -31.6646   25.0871 C   0  0  0  0  0  0
  -25.3600  -31.3842   26.1294 C   0  0  0  0  0  0
  -27.0273  -30.2990   24.6232 C   0  0  0  0  0  0
  -27.6244  -32.4034   25.8000 C   0  0  0  0  0  0
  -27.5629  -37.1950   24.8488 C   0  0  0  0  0  0
  -21.6076  -29.7978   22.3487 N   0  0  0  0  0  0
  -26.4324  -37.4008   23.9462 N   0  0  0  0  0  0
  -24.8071  -31.2613   22.0280 N   0  0  0  0  0  0
  -23.5916  -29.3608   23.3669 O   0  0  0  0  0  0
  -26.2440  -25.8680   21.2887 O   0  0  0  0  0  0
  -26.5477  -34.9152   22.4475 O   0  0  0  0  0  0
  -23.6561  -32.3289   23.6977 O   0  0  0  0  0  0
  -20.4273  -27.0377   21.1953 C   0  0  0  0  0  0
  -20.6495  -26.3312   23.2038 C   0  0  0  0  0  0
  -21.5891  -26.2249   20.2049 C   0  0  0  0  0  0
  -21.9925  -25.2925   23.3222 C   0  0  0  0  0  0
  -26.8453  -19.3115   19.1230 C   0  0  0  0  0  0
  -27.6667  -18.0760   19.2540 C   0  0  0  0  0  0
  -27.8339  -18.4803   21.5027 C   0  0  0  0  0  0
  -22.7342  -25.1291   20.7211 C   0  0  0  0  0  0
  -23.1435  -25.0630   22.1523 C   0  0  0  0  0  0
  -26.4162  -20.2685   20.1500 C   0  0  0  0  0  0
  -27.0168  -19.7349   21.3774 C   0  0  0  0  0  0
  -28.2648  -17.5355   20.4618 C   0  0  0  0  0  0
  -23.6545  -23.9876   19.8988 C   0  0  0  0  0  0
  -27.9235  -21.6954   22.6154 C   0  0  0  0  0  0
  -25.5717  -21.7733   19.7713 C   0  0  0  0  0  0
  -24.8956  -25.4961   22.2798 C   0  0  0  0  0  0
  -26.8634  -20.5895   22.6272 C   0  0  0  0  0  0
  -28.9307  -16.0775   20.6888 N   0  0  0  0  0  0
  -24.4750  -22.8582   20.4227 N   0  0  0  0  0  0
  -23.6288  -24.1044   18.6743 O   0  0  0  0  0  0
  -27.0173  -19.8623   23.7372 F   0  0  0  0  0  0
  -25.6491  -21.1374   22.6742 F   0  0  0  0  0  0
  -31.4381  -12.9989   19.2865 H   0  0  0  0  0  0
  -30.4879  -11.7682   20.0695 H   0  0  0  0  0  0
  -29.9093  -11.7709   17.6488 H   0  0  0  0  0  0
  -29.5959  -13.4904   17.6907 H   0  0  0  0  0  0
  -27.9545  -11.2634   18.9353 H   0  0  0  0  0  0
  -27.4111  -12.4641   17.7901 H   0  0  0  0  0  0
  -27.5430  -14.2196   19.4119 H   0  0  0  0  0  0
  -28.7297  -12.1827   21.3789 H   0  0  0  0  0  0
  -28.2236  -13.7847   21.8472 H   0  0  0  0  0  0
  -25.2724   -9.5689   22.4740 H   0  0  0  0  0  0
  -23.9993   -7.4615   22.7474 H   0  0  0  0  0  0
  -21.0781   -8.8710   19.8967 H   0  0  0  0  0  0
  -22.3610  -10.9629   19.6164 H   0  0  0  0  0  0
  -21.2000   -7.6141   23.9713 H   0  0  0  0  0  0
  -21.1472   -6.0523   25.9075 H   0  0  0  0  0  0
  -22.0606   -2.7606   23.2854 H   0  0  0  0  0  0
  -22.4002  -11.9874   22.4824 H   0  0  0  0  0  0
  -21.1010  -13.1254   22.2729 H   0  0  0  0  0  0
  -24.6487  -15.8344   20.5886 H   0  0  0  0  0  0
  -26.2543  -15.6438   20.1167 H   0  0  0  0  0  0
  -26.8464  -32.5823   23.1524 H   0  0  0  0  0  0
  -25.1353  -34.0074   25.1040 H   0  0  0  0  0  0
  -22.8952  -31.6623   21.2961 H   0  0  0  0  0  0
  -23.3893  -35.9590   23.3241 H   0  0  0  0  0  0
  -24.3639  -36.8962   22.2009 H   0  0  0  0  0  0
  -23.7167  -37.6497   23.6580 H   0  0  0  0  0  0
  -26.3122  -31.5048   20.5884 H   0  0  0  0  0  0
  -26.9164  -30.7942   22.0393 H   0  0  0  0  0  0
  -27.5214  -28.4376   21.8964 H   0  0  0  0  0  0
  -25.5815  -25.9999   18.9201 H   0  0  0  0  0  0
  -23.9443  -27.7564   18.5625 H   0  0  0  0  0  0
  -23.8014  -30.8087   19.2848 H   0  0  0  0  0  0
  -22.7507  -29.5297   19.8229 H   0  0  0  0  0  0
  -25.1328  -36.2129   25.0803 H   0  0  0  0  0  0
  -21.3994  -28.7064   24.0279 H   0  0  0  0  0  0
  -23.0617  -27.2541   22.9986 H   0  0  0  0  0  0
  -22.9217  -27.6921   21.3800 H   0  0  0  0  0  0
  -20.2729  -24.0195   22.2460 H   0  0  0  0  0  0
  -20.0839  -24.4905   20.6239 H   0  0  0  0  0  0
  -17.8459  -25.8860   21.2205 H   0  0  0  0  0  0
  -17.9562  -25.2949   22.8334 H   0  0  0  0  0  0
  -19.7935  -30.6365   23.9985 H   0  0  0  0  0  0
  -17.4659  -31.3032   24.3290 H   0  0  0  0  0  0
  -15.6486  -29.7600   23.5969 H   0  0  0  0  0  0
  -16.1698  -27.5491   22.6828 H   0  0  0  0  0  0
  -24.5638  -30.7586   25.7248 H   0  0  0  0  0  0
  -24.9026  -32.3051   26.4922 H   0  0  0  0  0  0
  -25.7580  -30.8582   26.9986 H   0  0  0  0  0  0
  -26.2838  -29.7107   24.0846 H   0  0  0  0  0  0
  -27.3432  -29.6994   25.4772 H   0  0  0  0  0  0
  -27.9043  -30.4118   23.9863 H   0  0  0  0  0  0
  -27.2951  -33.3321   26.2679 H   0  0  0  0  0  0
  -28.4255  -32.6570   25.1044 H   0  0  0  0  0  0
  -28.0640  -31.7938   26.5902 H   0  0  0  0  0  0
  -28.2616  -38.0285   24.7653 H   0  0  0  0  0  0
  -28.1173  -36.2832   24.6193 H   0  0  0  0  0  0
  -27.2365  -37.1456   25.8891 H   0  0  0  0  0  0
  -21.0823  -30.2438   21.6110 H   0  0  0  0  0  0
  -26.0177  -38.3058   24.1518 H   0  0  0  0  0  0
  -19.7166  -27.7207   20.7520 H   0  0  0  0  0  0
  -20.0688  -26.5471   24.0959 H   0  0  0  0  0  0
  -21.4928  -26.3517   19.1350 H   0  0  0  0  0  0
  -22.2923  -25.0884   24.3391 H   0  0  0  0  0  0
  -26.5262  -19.5360   18.1135 H   0  0  0  0  0  0
  -27.8083  -17.4930   18.3528 H   0  0  0  0  0  0
  -28.1706  -18.2369   22.4984 H   0  0  0  0  0  0
  -28.9239  -21.2619   22.5716 H   0  0  0  0  0  0
  -27.8652  -22.3297   23.4973 H   0  0  0  0  0  0
  -27.8090  -22.3392   21.7420 H   0  0  0  0  0  0
  -25.1804  -21.5819   18.7731 H   0  0  0  0  0  0
  -26.4168  -22.4407   19.5800 H   0  0  0  0  0  0
  -25.2819  -24.6578   22.8619 H   0  0  0  0  0  0
  -24.9278  -26.3073   23.0011 H   0  0  0  0  0  0
  -28.2477  -15.4971   21.1510 H   0  0  0  0  0  0
  -24.4397  -22.7867   21.4302 H   0  0  0  0  0  0
  1 25  1  0  0  0
  1 30  2  0  0  0
  1 88  1  0  0  0
  2  3  1  0  0  0
  2 25  1  0  0  0
  2 93  1  0  0  0
  2 94  1  0  0  0
  3  4  1  0  0  0
  3 95  1  0  0  0
  3 96  1  0  0  0
  4  5  1  0  0  0
  4 97  1  0  0  0
  4 98  1  0  0  0
  5  6  1  0  0  0
  5 26  1  0  0  0
  5 99  1  0  0  0
  6 25  1  0  0  0
  6100  1  0  0  0
  6101  1  0  0  0
  7  8  2  0  0  0
  7 26  1  0  0  0
  7 29  1  0  0  0
  8  9  1  0  0  0
  8 22  1  0  0  0
  9 10  1  0  0  0
  9 27  2  0  0  0
 10 11  2  0  0  0
 10 15  1  0  0  0
 11 12  1  0  0  0
 11102  1  0  0  0
 12 13  2  0  0  0
 12103  1  0  0  0
 13 14  1  0  0  0
 13 31  1  0  0  0
 14 15  2  0  0  0
 14104  1  0  0  0
 15105  1  0  0  0
 16 17  2  0  0  0
 16 21  1  0  0  0
 16 31  1  0  0  0
 17 18  1  0  0  0
 17106  1  0  0  0
 18 19  2  0  0  0
 18107  1  0  0  0
 19 20  1  0  0  0
 19 24  1  0  0  0
 20 21  2  0  0  0
 20108  1  0  0  0
 21 23  1  0  0  0
 22 28  1  0  0  0
 22 32  2  0  0  0
 26 27  1  0  0  0
 28109  1  0  0  0
 28110  1  0  0  0
 29111  1  0  0  0
 29112  1  0  0  0
 33 34  1  0  0  0
 33 66  1  0  0  0
 33 70  2  0  0  0
 34 36  1  0  0  0
 34 59  1  0  0  0
 34113  1  0  0  0
 35 44  2  0  0  0
 35 45  1  0  0  0
 35 68  1  0  0  0
 36 56  1  0  0  0
 36114  1  0  0  0
 37 39  1  0  0  0
 37 47  1  0  0  0
 37 66  1  0  0  0
 37115  1  0  0  0
 38 43  2  0  0  0
 38 46  1  0  0  0
 38 47  1  0  0  0
 39 64  1  0  0  0
 39 67  2  0  0  0
 40 52  1  0  0  0
 40 53  2  0  0  0
 40 58  1  0  0  0
 41116  1  0  0  0
 41117  1  0  0  0
 41118  1  0  0  0
 41 48  1  0  0  0
 42 43  1  0  0  0
 42 66  1  0  0  0
 42119  1  0  0  0
 42120  1  0  0  0
 43 44  1  0  0  0
 44121  1  0  0  0
 45 46  2  0  0  0
 45122  1  0  0  0
 46123  1  0  0  0
 47124  1  0  0  0
 47125  1  0  0  0
 48 56  1  0  0  0
 48 65  1  0  0  0
 48126  1  0  0  0
 49 50  1  0  0  0
 49 53  1  0  0  0
 49 64  1  0  0  0
 49127  1  0  0  0
 50 51  1  0  0  0
 50128  1  0  0  0
 50129  1  0  0  0
 51 52  1  0  0  0
 51130  1  0  0  0
 51131  1  0  0  0
 52132  1  0  0  0
 52133  1  0  0  0
 53 54  1  0  0  0
 54 55  2  0  0  0
 54134  1  0  0  0
 55 57  1  0  0  0
 55135  1  0  0  0
 56 69  2  0  0  0
 57 58  2  0  0  0
 57136  1  0  0  0
 58137  1  0  0  0
 59 60  1  0  0  0
 59 61  1  0  0  0
 59 62  1  0  0  0
 60138  1  0  0  0
 60139  1  0  0  0
 60140  1  0  0  0
 61141  1  0  0  0
 61142  1  0  0  0
 61143  1  0  0  0
 62144  1  0  0  0
 62145  1  0  0  0
 62146  1  0  0  0
 63 65  1  0  0  0
 63147  1  0  0  0
 63148  1  0  0  0
 63149  1  0  0  0
 64150  1  0  0  0
 65151  1  0  0  0
 68 86  1  0  0  0
 71 72  2  0  0  0
 71 73  1  0  0  0
 71152  1  0  0  0
 72 74  1  0  0  0
 72153  1  0  0  0
 73 78  2  0  0  0
 73154  1  0  0  0
 74 79  2  0  0  0
 74155  1  0  0  0
 75 76  2  0  0  0
 75 80  1  0  0  0
 75156  1  0  0  0
 76 82  1  0  0  0
 76157  1  0  0  0
 77 81  1  0  0  0
 77 82  2  0  0  0
 77158  1  0  0  0
 78 79  1  0  0  0
 78 83  1  0  0  0
 79 86  1  0  0  0
 80 81  2  0  0  0
 80 85  1  0  0  0
 81 87  1  0  0  0
 82 88  1  0  0  0
 83 89  1  0  0  0
 83 90  2  0  0  0
 84159  1  0  0  0
 84160  1  0  0  0
 84161  1  0  0  0
 84 87  1  0  0  0
 85 89  1  0  0  0
 85162  1  0  0  0
 85163  1  0  0  0
 86164  1  0  0  0
 86165  1  0  0  0
 87 91  1  0  0  0
 87 92  1  0  0  0
 88166  1  0  0  0
 89167  1  0  0  0
M  ISO  4   1 100  68 101  86 101  88 100
M  END
> <chiral flag>
0

> <version>
0

> <s_m_source_file>
/data/baiqing/PycharmProjects/Reinvent-master-3.2/result/LINK_invent/BTK/process_docking_weight1_custom_product_contain_oxygen_bond_distance_aromatic_linkinvent_7_9_3/rearranged_h_0053.sdf

> <i_m_source_file_index>
91

> <r_mmod_Potential_Energy-OPLS-2005>
12279.9013671875

> <r_mmod_Stretch_Energy-OPLS-2005>
6597.365234375

> <r_mmod_Bend_Energy-OPLS-2005>
845.700500488281

> <r_mmod_Torsional_Energy-OPLS-2005>
566.837890625

> <r_mmod_Improper_Torsional_Energy-OPLS-2005>
28.9626636505127

> <r_mmod_Van_der_Waal_Energy-OPLS-2005>
2754.05883789062

> <r_mmod_Electrostatic_Energy-OPLS-2005>
-479.088195800781

> <r_mmod_Solvation_Energy-OPLS-2005>
-212.095458984375

> <b_mmod_Minimization_Converged-OPLS-2005>
0

> <r_mmod_RMS_Derivative-OPLS-2005>
10.3745098114014

$$$$
91
                    3D
 Structure written by MMmdl.
155163  0  0  1  0            999 V2000
  -30.7184  -14.4504   20.5957 C   0  0  0  0  0  0
  -30.4189  -12.2982   19.4291 C   0  0  0  0  0  0
  -29.4985  -12.5200   18.2118 C   0  0  0  0  0  0
  -28.0179  -12.3810   18.6169 C   0  0  0  0  0  0
  -27.6655  -13.2103   19.8815 C   0  0  2  0  0  0
  -28.7029  -12.9824   21.0047 C   0  0  0  0  0  0
  -25.2603  -13.8171   20.5695 C   0  0  0  0  0  0
  -24.1852  -13.0448   20.9179 C   0  0  0  0  0  0
  -24.6409  -11.6916   20.8728 C   0  0  0  0  0  0
  -23.9073  -10.4301   21.0396 C   0  0  0  0  0  0
  -24.3621   -9.4214   21.9178 C   0  0  0  0  0  0
  -23.6294   -8.2251   22.0752 C   0  0  0  0  0  0
  -22.4270   -8.0295   21.3551 C   0  0  0  0  0  0
  -21.9903   -9.0270   20.4651 C   0  0  0  0  0  0
  -22.7241  -10.2143   20.3055 C   0  0  0  0  0  0
  -21.6857   -6.0742   22.5279 C   0  0  0  0  0  0
  -21.4025   -6.5646   23.8217 C   0  0  0  0  0  0
  -21.3658   -5.6792   24.9176 C   0  0  0  0  0  0
  -21.6034   -4.3054   24.7228 C   0  0  0  0  0  0
  -21.8819   -3.8153   23.4348 C   0  0  0  0  0  0
  -21.9197   -4.6969   22.3401 C   0  0  0  0  0  0
  -22.7871  -13.5250   21.1840 C   0  0  0  0  0  0
  -22.1662   -4.2154   21.0977 F   0  0  0  0  0  0
  -21.5618   -3.4535   25.7742 F   0  0  0  0  0  0
  -30.0408  -13.2771   20.4625 N   0  0  0  0  0  0
  -26.3046  -12.9347   20.3385 N   0  0  0  0  0  0
  -25.9333  -11.6498   20.5749 N   0  0  0  0  0  0
  -22.0510  -12.8248   22.0397 N   0  0  0  0  0  0
  -25.4337  -15.1886   20.4102 N   0  0  0  0  0  0
  -31.8284  -14.6292   20.0877 O   0  0  0  0  0  0
  -21.6640   -6.8887   21.4244 O   0  0  0  0  0  0
  -22.3557  -14.5559   20.6690 O   0  0  0  0  0  0
  -24.6173  -31.8679   23.2128 C   0  0  0  0  0  0
  -25.9068  -32.4819   23.8405 C   0  0  1  0  0  0
  -27.2285  -27.4271   20.0896 C   0  0  0  0  0  0
  -25.5912  -33.8615   24.2327 N   0  0  0  0  0  0
  -23.4035  -30.4960   21.5542 C   0  0  2  0  0  0
  -24.8467  -28.9691   20.1132 C   0  0  0  0  0  0
  -22.7417  -29.4664   22.4989 C   0  0  0  0  0  0
  -18.0275  -28.1365   22.8486 C   0  0  0  0  0  0
  -24.1485  -36.7324   23.2627 C   0  0  0  0  0  0
  -25.9363  -30.8303   21.3703 C   0  0  0  0  0  0
  -26.0099  -29.4675   20.7128 C   0  0  0  0  0  0
  -27.2019  -28.7038   20.7004 C   0  0  0  0  0  0
  -26.0435  -26.9604   19.4662 C   0  0  0  0  0  0
  -24.8587  -27.7142   19.4882 C   0  0  0  0  0  0
  -23.6110  -29.8365   20.1664 C   0  0  0  0  0  0
  -25.4097  -36.3109   24.0335 C   0  0  1  0  0  0
  -20.5866  -28.3657   23.1305 C   0  0  2  0  0  0
  -20.6766  -26.9387   22.5410 C   0  0  0  0  0  0
  -19.5743  -26.6374   21.5203 C   0  0  0  0  0  0
  -18.1923  -26.7911   22.1615 C   0  0  0  0  0  0
  -19.1527  -28.8824   23.2893 C   0  0  0  0  0  0
  -18.9452  -30.1437   23.8901 C   0  0  0  0  0  0
  -17.6455  -30.6566   24.0570 C   0  0  0  0  0  0
  -25.9041  -34.9476   23.5127 C   0  0  0  0  0  0
  -16.5345  -29.9073   23.6323 C   0  0  0  0  0  0
  -16.7267  -28.6490   23.0336 C   0  0  0  0  0  0
  -26.4473  -31.6601   25.0745 C   0  0  0  0  0  0
  -25.3736  -31.3716   26.1497 C   0  0  0  0  0  0
  -27.0311  -30.3040   24.6143 C   0  0  0  0  0  0
  -27.6058  -32.4316   25.7493 C   0  0  0  0  0  0
  -27.5595  -37.1784   24.8431 C   0  0  0  0  0  0
  -21.4142  -29.3032   22.3718 N   0  0  0  0  0  0
  -26.4268  -37.3813   23.9437 N   0  0  0  0  0  0
  -24.6703  -31.0787   22.1032 N   0  0  0  0  0  0
  -23.4186  -28.8194   23.3024 O   0  0  0  0  0  0
  -28.3897  -26.6705   20.1311 O   0  0  0  0  0  0
  -26.5602  -34.8929   22.4692 O   0  0  0  0  0  0
  -23.5367  -32.1425   23.7529 O   0  0  0  0  0  0
  -31.4296  -18.8326   20.3207 C   0  0  0  0  0  0
  -31.3964  -17.4869   20.7392 C   0  0  0  0  0  0
  -28.9774  -17.6033   20.9000 C   0  0  0  0  0  0
  -30.2369  -19.5679   20.1359 C   0  0  0  0  0  0
  -29.0031  -18.9565   20.4819 C   0  0  0  0  0  0
  -30.1618  -16.8357   20.9676 C   0  0  0  0  0  0
  -30.1111  -22.2097   20.1880 C   0  0  0  0  0  0
  -29.3790  -24.3920   20.3494 C   0  0  0  0  0  0
  -27.6892  -19.7099   20.3534 C   0  0  0  0  0  0
  -30.3110  -20.9165   19.4040 C   0  0  0  0  0  0
  -28.2598  -25.2795   19.7798 C   0  0  0  0  0  0
  -29.4392  -23.1739   19.6849 N   0  0  0  0  0  0
  -30.0570  -15.4346   21.2405 N   0  0  0  0  0  0
  -30.0653  -24.7804   21.2990 O   0  0  0  0  0  0
  -31.4663  -12.3803   19.1328 H   0  0  0  0  0  0
  -30.3017  -11.2855   19.8169 H   0  0  0  0  0  0
  -29.7364  -11.8073   17.4202 H   0  0  0  0  0  0
  -29.6758  -13.5123   17.7943 H   0  0  0  0  0  0
  -27.8208  -11.3240   18.7986 H   0  0  0  0  0  0
  -27.3744  -12.6713   17.7851 H   0  0  0  0  0  0
  -27.7133  -14.2612   19.5949 H   0  0  0  0  0  0
  -28.6710  -11.9462   21.3438 H   0  0  0  0  0  0
  -28.4600  -13.5789   21.8846 H   0  0  0  0  0  0
  -25.2761   -9.5685   22.4758 H   0  0  0  0  0  0
  -24.0007   -7.4635   22.7460 H   0  0  0  0  0  0
  -21.0836   -8.8788   19.8957 H   0  0  0  0  0  0
  -22.3697  -10.9684   19.6169 H   0  0  0  0  0  0
  -21.2027   -7.6155   23.9724 H   0  0  0  0  0  0
  -21.1470   -6.0522   25.9075 H   0  0  0  0  0  0
  -22.0599   -2.7617   23.2848 H   0  0  0  0  0  0
  -22.4108  -11.9910   22.4793 H   0  0  0  0  0  0
  -21.1134  -13.1290   22.2603 H   0  0  0  0  0  0
  -24.6701  -15.8472   20.5164 H   0  0  0  0  0  0
  -26.2832  -15.6203   20.0702 H   0  0  0  0  0  0
  -26.7147  -32.5517   23.1174 H   0  0  0  0  0  0
  -25.0058  -33.9761   25.0465 H   0  0  0  0  0  0
  -22.6927  -31.3136   21.4194 H   0  0  0  0  0  0
  -23.3762  -35.9638   23.3231 H   0  0  0  0  0  0
  -24.3607  -36.9001   22.2055 H   0  0  0  0  0  0
  -23.7208  -37.6498   23.6684 H   0  0  0  0  0  0
  -26.0584  -31.5985   20.6050 H   0  0  0  0  0  0
  -26.8216  -30.8749   21.9930 H   0  0  0  0  0  0
  -28.0967  -29.0837   21.1731 H   0  0  0  0  0  0
  -25.9987  -26.0134   18.9508 H   0  0  0  0  0  0
  -23.9669  -27.3280   19.0143 H   0  0  0  0  0  0
  -23.7223  -30.6155   19.4112 H   0  0  0  0  0  0
  -22.7331  -29.2606   19.8676 H   0  0  0  0  0  0
  -25.1259  -36.1959   25.0822 H   0  0  0  0  0  0
  -20.9960  -28.3227   24.1424 H   0  0  0  0  0  0
  -20.5658  -26.2258   23.3596 H   0  0  0  0  0  0
  -21.6638  -26.7417   22.1208 H   0  0  0  0  0  0
  -19.6907  -25.6293   21.1212 H   0  0  0  0  0  0
  -19.6680  -27.3198   20.6744 H   0  0  0  0  0  0
  -17.4189  -26.6662   21.4021 H   0  0  0  0  0  0
  -18.0325  -26.0041   22.8998 H   0  0  0  0  0  0
  -19.7931  -30.7256   24.2259 H   0  0  0  0  0  0
  -17.5008  -31.6240   24.5182 H   0  0  0  0  0  0
  -15.5348  -30.2974   23.7637 H   0  0  0  0  0  0
  -15.8669  -28.0821   22.7032 H   0  0  0  0  0  0
  -24.5878  -30.7099   25.7833 H   0  0  0  0  0  0
  -24.8963  -32.2879   26.4980 H   0  0  0  0  0  0
  -25.8078  -30.8845   27.0236 H   0  0  0  0  0  0
  -26.2867  -29.6796   24.1190 H   0  0  0  0  0  0
  -27.4064  -29.7285   25.4614 H   0  0  0  0  0  0
  -27.8708  -30.4354   23.9316 H   0  0  0  0  0  0
  -27.2683  -33.3597   26.2116 H   0  0  0  0  0  0
  -28.3830  -32.6904   25.0293 H   0  0  0  0  0  0
  -28.0769  -31.8414   26.5361 H   0  0  0  0  0  0
  -28.2522  -38.0173   24.7642 H   0  0  0  0  0  0
  -28.1181  -36.2723   24.6038 H   0  0  0  0  0  0
  -27.2355  -37.1178   25.8834 H   0  0  0  0  0  0
  -20.9296  -29.8770   21.6957 H   0  0  0  0  0  0
  -26.0151  -38.2867   24.1530 H   0  0  0  0  0  0
  -32.3847  -19.2778   20.0771 H   0  0  0  0  0  0
  -32.3313  -16.9516   20.8288 H   0  0  0  0  0  0
  -28.0257  -17.1351   21.1107 H   0  0  0  0  0  0
  -30.6012  -22.2411   21.1658 H   0  0  0  0  0  0
  -26.8563  -19.1307   20.7540 H   0  0  0  0  0  0
  -27.4692  -19.9299   19.3088 H   0  0  0  0  0  0
  -27.7242  -20.6490   20.9060 H   0  0  0  0  0  0
  -29.5863  -20.8893   18.5891 H   0  0  0  0  0  0
  -31.2789  -20.9895   18.9071 H   0  0  0  0  0  0
  -27.3426  -24.8521   20.1886 H   0  0  0  0  0  0
  -28.2269  -25.1848   18.6926 H   0  0  0  0  0  0
  -29.1848  -15.1322   21.6475 H   0  0  0  0  0  0
  1 25  1  0  0  0
  1 30  2  0  0  0
  1 83  1  0  0  0
  2  3  1  0  0  0
  2 25  1  0  0  0
  2 85  1  0  0  0
  2 86  1  0  0  0
  3  4  1  0  0  0
  3 87  1  0  0  0
  3 88  1  0  0  0
  4  5  1  0  0  0
  4 89  1  0  0  0
  4 90  1  0  0  0
  5  6  1  0  0  0
  5 26  1  0  0  0
  5 91  1  0  0  0
  6 25  1  0  0  0
  6 92  1  0  0  0
  6 93  1  0  0  0
  7  8  2  0  0  0
  7 26  1  0  0  0
  7 29  1  0  0  0
  8  9  1  0  0  0
  8 22  1  0  0  0
  9 10  1  0  0  0
  9 27  2  0  0  0
 10 11  2  0  0  0
 10 15  1  0  0  0
 11 12  1  0  0  0
 11 94  1  0  0  0
 12 13  2  0  0  0
 12 95  1  0  0  0
 13 14  1  0  0  0
 13 31  1  0  0  0
 14 15  2  0  0  0
 14 96  1  0  0  0
 15 97  1  0  0  0
 16 17  2  0  0  0
 16 21  1  0  0  0
 16 31  1  0  0  0
 17 18  1  0  0  0
 17 98  1  0  0  0
 18 19  2  0  0  0
 18 99  1  0  0  0
 19 20  1  0  0  0
 19 24  1  0  0  0
 20 21  2  0  0  0
 20100  1  0  0  0
 21 23  1  0  0  0
 22 28  1  0  0  0
 22 32  2  0  0  0
 26 27  1  0  0  0
 28101  1  0  0  0
 28102  1  0  0  0
 29103  1  0  0  0
 29104  1  0  0  0
 33 34  1  0  0  0
 33 66  1  0  0  0
 33 70  2  0  0  0
 34 36  1  0  0  0
 34 59  1  0  0  0
 34105  1  0  0  0
 35 44  2  0  0  0
 35 45  1  0  0  0
 35 68  1  0  0  0
 36 56  1  0  0  0
 36106  1  0  0  0
 37 39  1  0  0  0
 37 47  1  0  0  0
 37 66  1  0  0  0
 37107  1  0  0  0
 38 43  2  0  0  0
 38 46  1  0  0  0
 38 47  1  0  0  0
 39 64  1  0  0  0
 39 67  2  0  0  0
 40 52  1  0  0  0
 40 53  2  0  0  0
 40 58  1  0  0  0
 41108  1  0  0  0
 41109  1  0  0  0
 41110  1  0  0  0
 41 48  1  0  0  0
 42 43  1  0  0  0
 42 66  1  0  0  0
 42111  1  0  0  0
 42112  1  0  0  0
 43 44  1  0  0  0
 44113  1  0  0  0
 45 46  2  0  0  0
 45114  1  0  0  0
 46115  1  0  0  0
 47116  1  0  0  0
 47117  1  0  0  0
 48 56  1  0  0  0
 48 65  1  0  0  0
 48118  1  0  0  0
 49 50  1  0  0  0
 49 53  1  0  0  0
 49 64  1  0  0  0
 49119  1  0  0  0
 50 51  1  0  0  0
 50120  1  0  0  0
 50121  1  0  0  0
 51 52  1  0  0  0
 51122  1  0  0  0
 51123  1  0  0  0
 52124  1  0  0  0
 52125  1  0  0  0
 53 54  1  0  0  0
 54 55  2  0  0  0
 54126  1  0  0  0
 55 57  1  0  0  0
 55127  1  0  0  0
 56 69  2  0  0  0
 57 58  2  0  0  0
 57128  1  0  0  0
 58129  1  0  0  0
 59 60  1  0  0  0
 59 61  1  0  0  0
 59 62  1  0  0  0
 60130  1  0  0  0
 60131  1  0  0  0
 60132  1  0  0  0
 61133  1  0  0  0
 61134  1  0  0  0
 61135  1  0  0  0
 62136  1  0  0  0
 62137  1  0  0  0
 62138  1  0  0  0
 63 65  1  0  0  0
 63139  1  0  0  0
 63140  1  0  0  0
 63141  1  0  0  0
 64142  1  0  0  0
 65143  1  0  0  0
 68 81  1  0  0  0
 71 72  2  0  0  0
 71 74  1  0  0  0
 71144  1  0  0  0
 72 76  1  0  0  0
 72145  1  0  0  0
 73 75  1  0  0  0
 73 76  2  0  0  0
 73146  1  0  0  0
 74 75  2  0  0  0
 74 80  1  0  0  0
 75 79  1  0  0  0
 76 83  1  0  0  0
 77 80  1  0  0  0
 77 82  2  0  0  0
 77147  1  0  0  0
 78 81  1  0  0  0
 78 82  1  0  0  0
 78 84  2  0  0  0
 79148  1  0  0  0
 79149  1  0  0  0
 79150  1  0  0  0
 80151  1  0  0  0
 80152  1  0  0  0
 81153  1  0  0  0
 81154  1  0  0  0
 83155  1  0  0  0
M  ISO  4   1 100  68 101  81 101  83 100
M  END
> <chiral flag>
0

> <version>
0

> <s_m_source_file>
/data/baiqing/PycharmProjects/Reinvent-master-3.2/result/LINK_invent/BTK/process_docking_weight1_custom_product_contain_oxygen_bond_distance_aromatic_linkinvent_7_9_3/rearranged_h_0053.sdf

> <i_m_source_file_index>
92

> <r_mmod_Potential_Energy-OPLS-2005>
-13.7636575698853

> <r_mmod_Stretch_Energy-OPLS-2005>
39.2060470581055

> <r_mmod_Bend_Energy-OPLS-2005>
107.891845703125

> <r_mmod_Torsional_Energy-OPLS-2005>
222.328338623047

> <r_mmod_Improper_Torsional_Energy-OPLS-2005>
5.19986772537231

> <r_mmod_Van_der_Waal_Energy-OPLS-2005>
166.728485107422

> <r_mmod_Electrostatic_Energy-OPLS-2005>
-356.794494628906

> <r_mmod_Solvation_Energy-OPLS-2005>
-211.232559204102

> <b_mmod_Minimization_Converged-OPLS-2005>
0

> <r_mmod_RMS_Derivative-OPLS-2005>
1.49320578575134

$$$$
92
                    3D
 Structure written by MMmdl.
161169  0  0  1  0            999 V2000
  -30.7040  -14.4489   20.5134 C   0  0  0  0  0  0
  -30.4178  -12.2712   19.4332 C   0  0  0  0  0  0
  -29.4968  -12.4729   18.2111 C   0  0  0  0  0  0
  -28.0139  -12.3587   18.6183 C   0  0  0  0  0  0
  -27.6619  -13.2052   19.8714 C   0  0  2  0  0  0
  -28.7023  -12.9970   20.9970 C   0  0  0  0  0  0
  -25.2602  -13.8167   20.5675 C   0  0  0  0  0  0
  -24.1846  -13.0444   20.9179 C   0  0  0  0  0  0
  -24.6396  -11.6915   20.8743 C   0  0  0  0  0  0
  -23.9054  -10.4301   21.0412 C   0  0  0  0  0  0
  -24.3617   -9.4216   21.9184 C   0  0  0  0  0  0
  -23.6300   -8.2246   22.0752 C   0  0  0  0  0  0
  -22.4278   -8.0281   21.3546 C   0  0  0  0  0  0
  -21.9908   -9.0253   20.4647 C   0  0  0  0  0  0
  -22.7231  -10.2137   20.3057 C   0  0  0  0  0  0
  -21.6849   -6.0743   22.5286 C   0  0  0  0  0  0
  -21.4013   -6.5647   23.8221 C   0  0  0  0  0  0
  -21.3660   -5.6796   24.9180 C   0  0  0  0  0  0
  -21.6043   -4.3059   24.7225 C   0  0  0  0  0  0
  -21.8820   -3.8153   23.4347 C   0  0  0  0  0  0
  -21.9197   -4.6972   22.3408 C   0  0  0  0  0  0
  -22.7872  -13.5246   21.1848 C   0  0  0  0  0  0
  -22.1664   -4.2162   21.0981 F   0  0  0  0  0  0
  -21.5629   -3.4539   25.7734 F   0  0  0  0  0  0
  -30.0377  -13.2686   20.4437 N   0  0  0  0  0  0
  -26.3030  -12.9332   20.3354 N   0  0  0  0  0  0
  -25.9323  -11.6497   20.5770 N   0  0  0  0  0  0
  -22.0509  -12.8229   22.0399 N   0  0  0  0  0  0
  -25.4320  -15.1883   20.4089 N   0  0  0  0  0  0
  -31.8693  -14.5922   20.1332 O   0  0  0  0  0  0
  -21.6640   -6.8881   21.4245 O   0  0  0  0  0  0
  -22.3557  -14.5554   20.6703 O   0  0  0  0  0  0
  -24.6125  -31.8688   23.2113 C   0  0  0  0  0  0
  -25.9034  -32.4827   23.8399 C   0  0  1  0  0  0
  -27.2357  -27.4510   20.0925 C   0  0  0  0  0  0
  -25.5895  -33.8624   24.2325 N   0  0  0  0  0  0
  -23.3990  -30.4931   21.5510 C   0  0  2  0  0  0
  -24.8431  -28.9594   20.1144 C   0  0  0  0  0  0
  -22.7403  -29.4665   22.4997 C   0  0  0  0  0  0
  -18.0267  -28.1376   22.8494 C   0  0  0  0  0  0
  -24.1484  -36.7319   23.2638 C   0  0  0  0  0  0
  -25.9257  -30.8385   21.3620 C   0  0  0  0  0  0
  -26.0006  -29.4742   20.7090 C   0  0  0  0  0  0
  -27.1971  -28.7269   20.6939 C   0  0  0  0  0  0
  -26.0611  -26.9484   19.4847 C   0  0  0  0  0  0
  -24.8669  -27.6946   19.5008 C   0  0  0  0  0  0
  -23.6059  -29.8251   20.1651 C   0  0  0  0  0  0
  -25.4107  -36.3115   24.0334 C   0  0  1  0  0  0
  -20.5856  -28.3658   23.1323 C   0  0  2  0  0  0
  -20.6759  -26.9397   22.5420 C   0  0  0  0  0  0
  -19.5741  -26.6384   21.5215 C   0  0  0  0  0  0
  -18.1916  -26.7924   22.1624 C   0  0  0  0  0  0
  -19.1519  -28.8832   23.2900 C   0  0  0  0  0  0
  -18.9451  -30.1438   23.8911 C   0  0  0  0  0  0
  -17.6456  -30.6582   24.0573 C   0  0  0  0  0  0
  -25.9037  -34.9479   23.5130 C   0  0  0  0  0  0
  -16.5346  -29.9090   23.6325 C   0  0  0  0  0  0
  -16.7258  -28.6506   23.0344 C   0  0  0  0  0  0
  -26.4469  -31.6610   25.0725 C   0  0  0  0  0  0
  -25.3748  -31.3714   26.1486 C   0  0  0  0  0  0
  -27.0298  -30.3057   24.6086 C   0  0  0  0  0  0
  -27.6041  -32.4339   25.7488 C   0  0  0  0  0  0
  -27.5581  -37.1812   24.8467 C   0  0  0  0  0  0
  -21.4134  -29.3029   22.3738 N   0  0  0  0  0  0
  -26.4295  -37.3797   23.9409 N   0  0  0  0  0  0
  -24.6637  -31.0814   22.1002 N   0  0  0  0  0  0
  -23.4181  -28.8200   23.3030 O   0  0  0  0  0  0
  -28.4297  -26.7633   20.1109 O   0  0  0  0  0  0
  -26.5597  -34.8929   22.4691 O   0  0  0  0  0  0
  -23.5327  -32.1433   23.7527 O   0  0  0  0  0  0
  -29.9345  -17.9931   20.5802 C   0  0  0  0  0  0
  -30.0404  -16.6118   18.5780 C   0  0  0  0  0  0
  -30.0137  -19.1648   19.7845 C   0  0  0  0  0  0
  -30.0836  -19.0418   18.3686 C   0  0  0  0  0  0
  -29.9795  -16.7090   19.9868 C   0  0  0  0  0  0
  -30.0936  -17.7627   17.7788 C   0  0  0  0  0  0
  -30.0450  -20.4860   20.4428 C   0  0  0  0  0  0
  -30.9934  -21.4144   20.1935 C   0  0  0  0  0  0
  -30.9697  -22.7527   20.7533 C   0  0  0  0  0  0
  -30.1272  -20.2529   17.4454 C   0  0  0  0  0  0
  -29.1191  -24.9051   22.4104 C   0  0  0  0  0  0
  -28.4156  -25.3384   20.0020 C   0  0  0  0  0  0
  -29.5094  -24.7683   20.9287 C   0  0  2  0  0  0
  -29.9431  -15.5244   20.7848 N   0  0  0  0  0  0
  -29.7864  -23.3670   20.6042 N   0  0  0  0  0  0
  -31.9471  -23.3060   21.2583 O   0  0  0  0  0  0
  -30.1597  -17.6294   16.4316 F   0  0  0  0  0  0
  -31.4656  -12.3495   19.1360 H   0  0  0  0  0  0
  -30.2998  -11.2659   19.8393 H   0  0  0  0  0  0
  -29.7268  -11.7349   17.4417 H   0  0  0  0  0  0
  -29.6807  -13.4471   17.7590 H   0  0  0  0  0  0
  -27.8101  -11.3058   18.8148 H   0  0  0  0  0  0
  -27.3701  -12.6379   17.7834 H   0  0  0  0  0  0
  -27.7022  -14.2499   19.5632 H   0  0  0  0  0  0
  -28.6639  -11.9719   21.3695 H   0  0  0  0  0  0
  -28.4806  -13.6305   21.8571 H   0  0  0  0  0  0
  -25.2765   -9.5695   22.4748 H   0  0  0  0  0  0
  -24.0018   -7.4636   22.7468 H   0  0  0  0  0  0
  -21.0842   -8.8775   19.8947 H   0  0  0  0  0  0
  -22.3698  -10.9678   19.6165 H   0  0  0  0  0  0
  -21.2002   -7.6153   23.9728 H   0  0  0  0  0  0
  -21.1478   -6.0522   25.9084 H   0  0  0  0  0  0
  -22.0598   -2.7614   23.2842 H   0  0  0  0  0  0
  -22.4120  -11.9888   22.4785 H   0  0  0  0  0  0
  -21.1133  -13.1268   22.2612 H   0  0  0  0  0  0
  -24.6635  -15.8418   20.5126 H   0  0  0  0  0  0
  -26.2830  -15.6284   20.0831 H   0  0  0  0  0  0
  -26.7105  -32.5547   23.1164 H   0  0  0  0  0  0
  -25.0061  -33.9791   25.0479 H   0  0  0  0  0  0
  -22.6858  -31.3085   21.4130 H   0  0  0  0  0  0
  -23.3744  -35.9659   23.3324 H   0  0  0  0  0  0
  -24.3573  -36.8917   22.2050 H   0  0  0  0  0  0
  -23.7245  -37.6531   23.6642 H   0  0  0  0  0  0
  -26.0361  -31.6051   20.5939 H   0  0  0  0  0  0
  -26.8151  -30.8910   21.9784 H   0  0  0  0  0  0
  -28.0932  -29.1225   21.1517 H   0  0  0  0  0  0
  -26.0547  -25.9917   18.9827 H   0  0  0  0  0  0
  -23.9774  -27.2953   19.0322 H   0  0  0  0  0  0
  -23.7128  -30.5997   19.4050 H   0  0  0  0  0  0
  -22.7302  -29.2437   19.8710 H   0  0  0  0  0  0
  -25.1283  -36.1984   25.0827 H   0  0  0  0  0  0
  -20.9937  -28.3227   24.1447 H   0  0  0  0  0  0
  -20.5670  -26.2266   23.3604 H   0  0  0  0  0  0
  -21.6629  -26.7447   22.1212 H   0  0  0  0  0  0
  -19.6907  -25.6299   21.1231 H   0  0  0  0  0  0
  -19.6686  -27.3206   20.6754 H   0  0  0  0  0  0
  -17.4190  -26.6673   21.4018 H   0  0  0  0  0  0
  -18.0315  -26.0053   22.9007 H   0  0  0  0  0  0
  -19.7932  -30.7242   24.2293 H   0  0  0  0  0  0
  -17.5021  -31.6267   24.5167 H   0  0  0  0  0  0
  -15.5350  -30.3006   23.7640 H   0  0  0  0  0  0
  -15.8654  -28.0839   22.7048 H   0  0  0  0  0  0
  -24.5909  -30.7064   25.7840 H   0  0  0  0  0  0
  -24.8952  -32.2870   26.4957 H   0  0  0  0  0  0
  -25.8117  -30.8875   27.0231 H   0  0  0  0  0  0
  -26.2830  -29.6826   24.1148 H   0  0  0  0  0  0
  -27.4088  -29.7281   25.4529 H   0  0  0  0  0  0
  -27.8657  -30.4387   23.9213 H   0  0  0  0  0  0
  -27.2645  -33.3623   26.2092 H   0  0  0  0  0  0
  -28.3834  -32.6935   25.0310 H   0  0  0  0  0  0
  -28.0728  -31.8456   26.5387 H   0  0  0  0  0  0
  -28.2607  -38.0100   24.7508 H   0  0  0  0  0  0
  -28.1062  -36.2632   24.6298 H   0  0  0  0  0  0
  -27.2296  -37.1478   25.8868 H   0  0  0  0  0  0
  -20.9291  -29.8762   21.6972 H   0  0  0  0  0  0
  -26.0189  -38.2877   24.1406 H   0  0  0  0  0  0
  -29.8819  -18.0826   21.6565 H   0  0  0  0  0  0
  -30.0562  -15.6523   18.0859 H   0  0  0  0  0  0
  -29.2369  -20.7031   21.1283 H   0  0  0  0  0  0
  -31.8127  -21.1664   19.5347 H   0  0  0  0  0  0
  -31.1569  -20.5784   17.2960 H   0  0  0  0  0  0
  -29.5479  -21.0870   17.8394 H   0  0  0  0  0  0
  -29.7097  -20.0173   16.4665 H   0  0  0  0  0  0
  -28.9271  -25.9469   22.6674 H   0  0  0  0  0  0
  -29.9167  -24.5531   23.0649 H   0  0  0  0  0  0
  -28.2180  -24.3365   22.6429 H   0  0  0  0  0  0
  -28.6113  -25.0737   18.9618 H   0  0  0  0  0  0
  -27.4594  -24.8939   20.2820 H   0  0  0  0  0  0
  -30.4197  -25.3464   20.7539 H   0  0  0  0  0  0
  -29.0790  -15.3457   21.2745 H   0  0  0  0  0  0
  -29.0538  -22.8449   20.1431 H   0  0  0  0  0  0
  1 25  1  0  0  0
  1 30  2  0  0  0
  1 84  1  0  0  0
  2  3  1  0  0  0
  2 25  1  0  0  0
  2 88  1  0  0  0
  2 89  1  0  0  0
  3  4  1  0  0  0
  3 90  1  0  0  0
  3 91  1  0  0  0
  4  5  1  0  0  0
  4 92  1  0  0  0
  4 93  1  0  0  0
  5  6  1  0  0  0
  5 26  1  0  0  0
  5 94  1  0  0  0
  6 25  1  0  0  0
  6 95  1  0  0  0
  6 96  1  0  0  0
  7  8  2  0  0  0
  7 26  1  0  0  0
  7 29  1  0  0  0
  8  9  1  0  0  0
  8 22  1  0  0  0
  9 10  1  0  0  0
  9 27  2  0  0  0
 10 11  2  0  0  0
 10 15  1  0  0  0
 11 12  1  0  0  0
 11 97  1  0  0  0
 12 13  2  0  0  0
 12 98  1  0  0  0
 13 14  1  0  0  0
 13 31  1  0  0  0
 14 15  2  0  0  0
 14 99  1  0  0  0
 15100  1  0  0  0
 16 17  2  0  0  0
 16 21  1  0  0  0
 16 31  1  0  0  0
 17 18  1  0  0  0
 17101  1  0  0  0
 18 19  2  0  0  0
 18102  1  0  0  0
 19 20  1  0  0  0
 19 24  1  0  0  0
 20 21  2  0  0  0
 20103  1  0  0  0
 21 23  1  0  0  0
 22 28  1  0  0  0
 22 32  2  0  0  0
 26 27  1  0  0  0
 28104  1  0  0  0
 28105  1  0  0  0
 29106  1  0  0  0
 29107  1  0  0  0
 33 34  1  0  0  0
 33 66  1  0  0  0
 33 70  2  0  0  0
 34 36  1  0  0  0
 34 59  1  0  0  0
 34108  1  0  0  0
 35 44  2  0  0  0
 35 45  1  0  0  0
 35 68  1  0  0  0
 36 56  1  0  0  0
 36109  1  0  0  0
 37 39  1  0  0  0
 37 47  1  0  0  0
 37 66  1  0  0  0
 37110  1  0  0  0
 38 43  2  0  0  0
 38 46  1  0  0  0
 38 47  1  0  0  0
 39 64  1  0  0  0
 39 67  2  0  0  0
 40 52  1  0  0  0
 40 53  2  0  0  0
 40 58  1  0  0  0
 41111  1  0  0  0
 41112  1  0  0  0
 41113  1  0  0  0
 41 48  1  0  0  0
 42 43  1  0  0  0
 42 66  1  0  0  0
 42114  1  0  0  0
 42115  1  0  0  0
 43 44  1  0  0  0
 44116  1  0  0  0
 45 46  2  0  0  0
 45117  1  0  0  0
 46118  1  0  0  0
 47119  1  0  0  0
 47120  1  0  0  0
 48 56  1  0  0  0
 48 65  1  0  0  0
 48121  1  0  0  0
 49 50  1  0  0  0
 49 53  1  0  0  0
 49 64  1  0  0  0
 49122  1  0  0  0
 50 51  1  0  0  0
 50123  1  0  0  0
 50124  1  0  0  0
 51 52  1  0  0  0
 51125  1  0  0  0
 51126  1  0  0  0
 52127  1  0  0  0
 52128  1  0  0  0
 53 54  1  0  0  0
 54 55  2  0  0  0
 54129  1  0  0  0
 55 57  1  0  0  0
 55130  1  0  0  0
 56 69  2  0  0  0
 57 58  2  0  0  0
 57131  1  0  0  0
 58132  1  0  0  0
 59 60  1  0  0  0
 59 61  1  0  0  0
 59 62  1  0  0  0
 60133  1  0  0  0
 60134  1  0  0  0
 60135  1  0  0  0
 61136  1  0  0  0
 61137  1  0  0  0
 61138  1  0  0  0
 62139  1  0  0  0
 62140  1  0  0  0
 62141  1  0  0  0
 63 65  1  0  0  0
 63142  1  0  0  0
 63143  1  0  0  0
 63144  1  0  0  0
 64145  1  0  0  0
 65146  1  0  0  0
 68 82  1  0  0  0
 71 73  2  0  0  0
 71 75  1  0  0  0
 71147  1  0  0  0
 72 75  2  0  0  0
 72 76  1  0  0  0
 72148  1  0  0  0
 73 74  1  0  0  0
 73 77  1  0  0  0
 74 76  2  0  0  0
 74 80  1  0  0  0
 75 84  1  0  0  0
 76 87  1  0  0  0
 77 78  2  0  0  0
 77149  1  0  0  0
 78 79  1  0  0  0
 78150  1  0  0  0
 79 85  1  0  0  0
 79 86  2  0  0  0
 80151  1  0  0  0
 80152  1  0  0  0
 80153  1  0  0  0
 81154  1  0  0  0
 81155  1  0  0  0
 81156  1  0  0  0
 81 83  1  0  0  0
 82 83  1  0  0  0
 82157  1  0  0  0
 82158  1  0  0  0
 83 85  1  0  0  0
 83159  1  0  0  0
 84160  1  0  0  0
 85161  1  0  0  0
M  ISO  4   1 100  68 101  82 101  84 100
M  END
> <chiral flag>
0

> <version>
0

> <s_m_source_file>
/data/baiqing/PycharmProjects/Reinvent-master-3.2/result/LINK_invent/BTK/process_docking_weight1_custom_product_contain_oxygen_bond_distance_aromatic_linkinvent_7_9_3/rearranged_h_0053.sdf

> <i_m_source_file_index>
93

> <r_mmod_Potential_Energy-OPLS-2005>
-78.1548538208008

> <r_mmod_Stretch_Energy-OPLS-2005>
34.727954864502

> <r_mmod_Bend_Energy-OPLS-2005>
93.7019348144531

> <r_mmod_Torsional_Energy-OPLS-2005>
280.473297119141

> <r_mmod_Improper_Torsional_Energy-OPLS-2005>
8.20898628234863

> <r_mmod_Van_der_Waal_Energy-OPLS-2005>
160.208236694336

> <r_mmod_Electrostatic_Energy-OPLS-2005>
-436.48779296875

> <r_mmod_Solvation_Energy-OPLS-2005>
-233.422225952148

> <b_mmod_Minimization_Converged-OPLS-2005>
0

> <r_mmod_RMS_Derivative-OPLS-2005>
1.23430228233337

$$$$
93
                    3D
 Structure written by MMmdl.
153161  0  0  1  0            999 V2000
  -30.5825  -14.7611   20.3667 C   0  0  0  0  0  0
  -30.4232  -12.4146   19.4876 C   0  0  0  0  0  0
  -29.4953  -12.3095   18.2582 C   0  0  0  0  0  0
  -28.0118  -12.2558   18.6600 C   0  0  0  0  0  0
  -27.6233  -13.2159   19.8153 C   0  0  2  0  0  0
  -28.6659  -13.2086   20.9527 C   0  0  0  0  0  0
  -25.2443  -13.8146   20.5587 C   0  0  0  0  0  0
  -24.1758  -13.0444   20.9177 C   0  0  0  0  0  0
  -24.6311  -11.6905   20.8761 C   0  0  0  0  0  0
  -23.9004  -10.4279   21.0421 C   0  0  0  0  0  0
  -24.3577   -9.4194   21.9176 C   0  0  0  0  0  0
  -23.6265   -8.2224   22.0743 C   0  0  0  0  0  0
  -22.4257   -8.0239   21.3522 C   0  0  0  0  0  0
  -21.9888   -9.0218   20.4635 C   0  0  0  0  0  0
  -22.7203  -10.2095   20.3061 C   0  0  0  0  0  0
  -21.6850   -6.0714   22.5271 C   0  0  0  0  0  0
  -21.4009   -6.5643   23.8211 C   0  0  0  0  0  0
  -21.3649   -5.6786   24.9176 C   0  0  0  0  0  0
  -21.6028   -4.3056   24.7223 C   0  0  0  0  0  0
  -21.8809   -3.8145   23.4358 C   0  0  0  0  0  0
  -21.9197   -4.6933   22.3411 C   0  0  0  0  0  0
  -22.7794  -13.5201   21.1884 C   0  0  0  0  0  0
  -22.1666   -4.2128   21.0982 F   0  0  0  0  0  0
  -21.5615   -3.4548   25.7753 F   0  0  0  0  0  0
  -29.9605  -13.5311   20.3541 N   0  0  0  0  0  0
  -26.2840  -12.9340   20.3142 N   0  0  0  0  0  0
  -25.9232  -11.6512   20.5781 N   0  0  0  0  0  0
  -22.0484  -12.8186   22.0445 N   0  0  0  0  0  0
  -25.4083  -15.1869   20.3857 N   0  0  0  0  0  0
  -31.7799  -14.8318   20.0741 O   0  0  0  0  0  0
  -21.6623   -6.8844   21.4245 O   0  0  0  0  0  0
  -22.3470  -14.5505   20.6725 O   0  0  0  0  0  0
  -24.6414  -31.8487   23.1958 C   0  0  0  0  0  0
  -25.9220  -32.4695   23.8294 C   0  0  1  0  0  0
  -27.1791  -27.1772   20.1313 C   0  0  0  0  0  0
  -25.6026  -33.8501   24.2238 N   0  0  0  0  0  0
  -23.4367  -30.4775   21.5384 C   0  0  2  0  0  0
  -24.8776  -28.9227   20.1036 C   0  0  0  0  0  0
  -22.7510  -29.4570   22.4824 C   0  0  0  0  0  0
  -18.0262  -28.1370   22.8442 C   0  0  0  0  0  0
  -24.1493  -36.7261   23.2626 C   0  0  0  0  0  0
  -25.9918  -30.7333   21.3890 C   0  0  0  0  0  0
  -26.0553  -29.3532   20.7270 C   0  0  0  0  0  0
  -27.2124  -28.4926   20.7315 C   0  0  0  0  0  0
  -25.9766  -26.8458   19.4648 C   0  0  0  0  0  0
  -24.8482  -27.6828   19.4573 C   0  0  0  0  0  0
  -23.6601  -29.8290   20.1491 C   0  0  0  0  0  0
  -25.4124  -36.3044   24.0303 C   0  0  1  0  0  0
  -20.5877  -28.3704   23.1164 C   0  0  2  0  0  0
  -20.6736  -26.9418   22.5307 C   0  0  0  0  0  0
  -19.5695  -26.6324   21.5135 C   0  0  0  0  0  0
  -18.1885  -26.7874   22.1601 C   0  0  0  0  0  0
  -19.1519  -28.8866   23.2813 C   0  0  0  0  0  0
  -18.9435  -30.1467   23.8815 C   0  0  0  0  0  0
  -17.6414  -30.6559   24.0527 C   0  0  0  0  0  0
  -25.9090  -34.9403   23.5057 C   0  0  0  0  0  0
  -16.5300  -29.9054   23.6340 C   0  0  0  0  0  0
  -16.7255  -28.6494   23.0317 C   0  0  0  0  0  0
  -26.4579  -31.6531   25.0694 C   0  0  0  0  0  0
  -25.3796  -31.3687   26.1397 C   0  0  0  0  0  0
  -27.0464  -30.2949   24.6249 C   0  0  0  0  0  0
  -27.6116  -32.4271   25.7493 C   0  0  0  0  0  0
  -27.5573  -37.1803   24.8476 C   0  0  0  0  0  0
  -21.4217  -29.3026   22.3536 N   0  0  0  0  0  0
  -26.4307  -37.3743   23.9411 N   0  0  0  0  0  0
  -24.7091  -31.0384   22.0987 N   0  0  0  0  0  0
  -23.4191  -28.8113   23.2957 O   0  0  0  0  0  0
  -28.2093  -26.1867   20.2059 O   0  0  0  0  0  0
  -26.5630  -34.8896   22.4611 O   0  0  0  0  0  0
  -23.5540  -32.1337   23.7209 O   0  0  0  0  0  0
  -28.6663  -18.7831   17.9727 C   0  0  0  0  0  0
  -28.5219  -17.9900   16.8274 C   0  0  0  0  0  0
  -29.2014  -16.0790   18.1217 C   0  0  0  0  0  0
  -29.0712  -18.2837   19.2506 C   0  0  0  0  0  0
  -29.4020  -16.8260   19.3218 C   0  0  0  0  0  0
  -28.7712  -16.6248   16.9100 C   0  0  0  0  0  0
  -28.0021  -20.5809   20.0859 C   0  0  0  0  0  0
  -27.8436  -21.9712   20.1163 C   0  0  0  0  0  0
  -29.0839  -19.4823   20.2673 C   0  0  0  0  0  0
  -28.6518  -23.3308   20.3444 C   0  0  0  0  0  0
  -27.7993  -24.7132   20.0770 C   0  0  0  0  0  0
  -29.8167  -15.9300   20.4427 N   0  0  0  0  0  0
  -29.8832  -19.5260   21.2077 O   0  0  0  0  0  0
  -28.5312  -15.6123   15.5325 Cl  0  0  0  0  0  0
  -31.4554  -12.5365   19.1474 H   0  0  0  0  0  0
  -30.3929  -11.4728   20.0417 H   0  0  0  0  0  0
  -29.7237  -11.3803   17.7350 H   0  0  0  0  0  0
  -29.6989  -13.0830   17.5245 H   0  0  0  0  0  0
  -27.8314  -11.2294   18.9785 H   0  0  0  0  0  0
  -27.3652  -12.4000   17.7921 H   0  0  0  0  0  0
  -27.5940  -14.2131   19.3800 H   0  0  0  0  0  0
  -28.7039  -12.2453   21.4640 H   0  0  0  0  0  0
  -28.3973  -13.9493   21.7054 H   0  0  0  0  0  0
  -25.2712   -9.5673   22.4760 H   0  0  0  0  0  0
  -23.9960   -7.4633   22.7479 H   0  0  0  0  0  0
  -21.0810   -8.8729   19.8975 H   0  0  0  0  0  0
  -22.3632  -10.9628   19.6185 H   0  0  0  0  0  0
  -21.2023   -7.6153   23.9693 H   0  0  0  0  0  0
  -21.1473   -6.0538   25.9060 H   0  0  0  0  0  0
  -22.0605   -2.7604   23.2869 H   0  0  0  0  0  0
  -22.4137  -11.9841   22.4803 H   0  0  0  0  0  0
  -21.1119  -13.1206   22.2701 H   0  0  0  0  0  0
  -24.6101  -15.8105   20.4228 H   0  0  0  0  0  0
  -26.2380  -15.6282   20.0143 H   0  0  0  0  0  0
  -26.7264  -32.5307   23.0990 H   0  0  0  0  0  0
  -25.0245  -33.9639   25.0436 H   0  0  0  0  0  0
  -22.7355  -31.3052   21.3989 H   0  0  0  0  0  0
  -23.3752  -35.9604   23.3287 H   0  0  0  0  0  0
  -24.3581  -36.8886   22.2051 H   0  0  0  0  0  0
  -23.7289  -37.6460   23.6670 H   0  0  0  0  0  0
  -26.1402  -31.4894   20.6171 H   0  0  0  0  0  0
  -26.8661  -30.7783   22.0276 H   0  0  0  0  0  0
  -28.1099  -28.8006   21.2475 H   0  0  0  0  0  0
  -25.8517  -25.9065   18.9510 H   0  0  0  0  0  0
  -23.9497  -27.3551   18.9513 H   0  0  0  0  0  0
  -23.8141  -30.6173   19.4101 H   0  0  0  0  0  0
  -22.7723  -29.2883   19.8183 H   0  0  0  0  0  0
  -25.1313  -36.1820   25.0799 H   0  0  0  0  0  0
  -20.9910  -28.3311   24.1304 H   0  0  0  0  0  0
  -20.5652  -26.2322   23.3518 H   0  0  0  0  0  0
  -21.6620  -26.7432   22.1133 H   0  0  0  0  0  0
  -19.6934  -25.6221   21.1217 H   0  0  0  0  0  0
  -19.6566  -27.3088   20.6640 H   0  0  0  0  0  0
  -17.4113  -26.6569   21.4054 H   0  0  0  0  0  0
  -18.0321  -26.0036   22.9034 H   0  0  0  0  0  0
  -19.7894  -30.7334   24.2192 H   0  0  0  0  0  0
  -17.4931  -31.6208   24.5158 H   0  0  0  0  0  0
  -15.5291  -30.2912   23.7696 H   0  0  0  0  0  0
  -15.8652  -28.0869   22.6936 H   0  0  0  0  0  0
  -24.6014  -30.6988   25.7718 H   0  0  0  0  0  0
  -24.8950  -32.2856   26.4775 H   0  0  0  0  0  0
  -25.8107  -30.8901   27.0203 H   0  0  0  0  0  0
  -26.3085  -29.6628   24.1317 H   0  0  0  0  0  0
  -27.4174  -29.7273   25.4795 H   0  0  0  0  0  0
  -27.8934  -30.4190   23.9499 H   0  0  0  0  0  0
  -27.2742  -33.3588   26.2046 H   0  0  0  0  0  0
  -28.3978  -32.6797   25.0362 H   0  0  0  0  0  0
  -28.0745  -31.8402   26.5439 H   0  0  0  0  0  0
  -28.2591  -38.0096   24.7487 H   0  0  0  0  0  0
  -28.1060  -36.2621   24.6328 H   0  0  0  0  0  0
  -27.2286  -37.1480   25.8879 H   0  0  0  0  0  0
  -20.9444  -29.8693   21.6676 H   0  0  0  0  0  0
  -26.0126  -38.2787   24.1436 H   0  0  0  0  0  0
  -28.4730  -19.8337   17.8042 H   0  0  0  0  0  0
  -28.2158  -18.4273   15.8883 H   0  0  0  0  0  0
  -29.3381  -15.0185   18.0884 H   0  0  0  0  0  0
  -27.0677  -20.0888   19.8417 H   0  0  0  0  0  0
  -26.8158  -22.2277   19.8936 H   0  0  0  0  0  0
  -29.5220  -23.2821   19.6922 H   0  0  0  0  0  0
  -29.0263  -23.3238   21.3656 H   0  0  0  0  0  0
  -26.9110  -24.6070   20.7035 H   0  0  0  0  0  0
  -27.4567  -24.5866   19.0492 H   0  0  0  0  0  0
  -29.3286  -16.0560   21.3178 H   0  0  0  0  0  0
  1 25  1  0  0  0
  1 30  2  0  0  0
  1 82  1  0  0  0
  2  3  1  0  0  0
  2 25  1  0  0  0
  2 85  1  0  0  0
  2 86  1  0  0  0
  3  4  1  0  0  0
  3 87  1  0  0  0
  3 88  1  0  0  0
  4  5  1  0  0  0
  4 89  1  0  0  0
  4 90  1  0  0  0
  5  6  1  0  0  0
  5 26  1  0  0  0
  5 91  1  0  0  0
  6 25  1  0  0  0
  6 92  1  0  0  0
  6 93  1  0  0  0
  7  8  2  0  0  0
  7 26  1  0  0  0
  7 29  1  0  0  0
  8  9  1  0  0  0
  8 22  1  0  0  0
  9 10  1  0  0  0
  9 27  2  0  0  0
 10 11  2  0  0  0
 10 15  1  0  0  0
 11 12  1  0  0  0
 11 94  1  0  0  0
 12 13  2  0  0  0
 12 95  1  0  0  0
 13 14  1  0  0  0
 13 31  1  0  0  0
 14 15  2  0  0  0
 14 96  1  0  0  0
 15 97  1  0  0  0
 16 17  2  0  0  0
 16 21  1  0  0  0
 16 31  1  0  0  0
 17 18  1  0  0  0
 17 98  1  0  0  0
 18 19  2  0  0  0
 18 99  1  0  0  0
 19 20  1  0  0  0
 19 24  1  0  0  0
 20 21  2  0  0  0
 20100  1  0  0  0
 21 23  1  0  0  0
 22 28  1  0  0  0
 22 32  2  0  0  0
 26 27  1  0  0  0
 28101  1  0  0  0
 28102  1  0  0  0
 29103  1  0  0  0
 29104  1  0  0  0
 33 34  1  0  0  0
 33 66  1  0  0  0
 33 70  2  0  0  0
 34 36  1  0  0  0
 34 59  1  0  0  0
 34105  1  0  0  0
 35 44  2  0  0  0
 35 45  1  0  0  0
 35 68  1  0  0  0
 36 56  1  0  0  0
 36106  1  0  0  0
 37 39  1  0  0  0
 37 47  1  0  0  0
 37 66  1  0  0  0
 37107  1  0  0  0
 38 43  2  0  0  0
 38 46  1  0  0  0
 38 47  1  0  0  0
 39 64  1  0  0  0
 39 67  2  0  0  0
 40 52  1  0  0  0
 40 53  2  0  0  0
 40 58  1  0  0  0
 41108  1  0  0  0
 41109  1  0  0  0
 41110  1  0  0  0
 41 48  1  0  0  0
 42 43  1  0  0  0
 42 66  1  0  0  0
 42111  1  0  0  0
 42112  1  0  0  0
 43 44  1  0  0  0
 44113  1  0  0  0
 45 46  2  0  0  0
 45114  1  0  0  0
 46115  1  0  0  0
 47116  1  0  0  0
 47117  1  0  0  0
 48 56  1  0  0  0
 48 65  1  0  0  0
 48118  1  0  0  0
 49 50  1  0  0  0
 49 53  1  0  0  0
 49 64  1  0  0  0
 49119  1  0  0  0
 50 51  1  0  0  0
 50120  1  0  0  0
 50121  1  0  0  0
 51 52  1  0  0  0
 51122  1  0  0  0
 51123  1  0  0  0
 52124  1  0  0  0
 52125  1  0  0  0
 53 54  1  0  0  0
 54 55  2  0  0  0
 54126  1  0  0  0
 55 57  1  0  0  0
 55127  1  0  0  0
 56 69  2  0  0  0
 57 58  2  0  0  0
 57128  1  0  0  0
 58129  1  0  0  0
 59 60  1  0  0  0
 59 61  1  0  0  0
 59 62  1  0  0  0
 60130  1  0  0  0
 60131  1  0  0  0
 60132  1  0  0  0
 61133  1  0  0  0
 61134  1  0  0  0
 61135  1  0  0  0
 62136  1  0  0  0
 62137  1  0  0  0
 62138  1  0  0  0
 63 65  1  0  0  0
 63139  1  0  0  0
 63140  1  0  0  0
 63141  1  0  0  0
 64142  1  0  0  0
 65143  1  0  0  0
 68 81  1  0  0  0
 71 72  2  0  0  0
 71 74  1  0  0  0
 71144  1  0  0  0
 72 76  1  0  0  0
 72145  1  0  0  0
 73 75  1  0  0  0
 73 76  2  0  0  0
 73146  1  0  0  0
 74 75  2  0  0  0
 74 79  1  0  0  0
 75 82  1  0  0  0
 76 84  1  0  0  0
 77 78  2  0  0  0
 77 79  1  0  0  0
 77147  1  0  0  0
 78 80  1  0  0  0
 78148  1  0  0  0
 79 83  2  0  0  0
 80 81  1  0  0  0
 80149  1  0  0  0
 80150  1  0  0  0
 81151  1  0  0  0
 81152  1  0  0  0
 82153  1  0  0  0
M  ISO  4   1 100  68 101  81 101  82 100
M  END
> <chiral flag>
0

> <version>
0

> <s_m_source_file>
/data/baiqing/PycharmProjects/Reinvent-master-3.2/result/LINK_invent/BTK/process_docking_weight1_custom_product_contain_oxygen_bond_distance_aromatic_linkinvent_7_9_3/rearranged_h_0053.sdf

> <i_m_source_file_index>
94

> <r_mmod_Potential_Energy-OPLS-2005>
543.728149414062

> <r_mmod_Stretch_Energy-OPLS-2005>
172.494522094727

> <r_mmod_Bend_Energy-OPLS-2005>
292.491271972656

> <r_mmod_Torsional_Energy-OPLS-2005>
296.571655273438

> <r_mmod_Improper_Torsional_Energy-OPLS-2005>
7.6157021522522

> <r_mmod_Van_der_Waal_Energy-OPLS-2005>
150.649688720703

> <r_mmod_Electrostatic_Energy-OPLS-2005>
-280.380279541016

> <r_mmod_Solvation_Energy-OPLS-2005>
-231.595428466797

> <b_mmod_Minimization_Converged-OPLS-2005>
0

> <r_mmod_RMS_Derivative-OPLS-2005>
7.09554719924927

$$$$
94
                    3D
 Structure written by MMmdl.
156164  0  0  1  0            999 V2000
  -30.6140  -14.5684   20.5530 C   0  0  0  0  0  0
  -30.4491  -12.3609   19.4192 C   0  0  0  0  0  0
  -29.5055  -12.5209   18.2055 C   0  0  0  0  0  0
  -28.0261  -12.3617   18.6186 C   0  0  0  0  0  0
  -27.6637  -13.1984   19.8741 C   0  0  2  0  0  0
  -28.7106  -12.9704   20.9886 C   0  0  0  0  0  0
  -25.2608  -13.8133   20.5665 C   0  0  0  0  0  0
  -24.1850  -13.0422   20.9170 C   0  0  0  0  0  0
  -24.6394  -11.6886   20.8723 C   0  0  0  0  0  0
  -23.9049  -10.4280   21.0393 C   0  0  0  0  0  0
  -24.3608   -9.4206   21.9177 C   0  0  0  0  0  0
  -23.6285   -8.2242   22.0751 C   0  0  0  0  0  0
  -22.4266   -8.0274   21.3545 C   0  0  0  0  0  0
  -21.9895   -9.0245   20.4644 C   0  0  0  0  0  0
  -22.7216  -10.2128   20.3047 C   0  0  0  0  0  0
  -21.6849   -6.0729   22.5281 C   0  0  0  0  0  0
  -21.4011   -6.5633   23.8214 C   0  0  0  0  0  0
  -21.3661   -5.6789   24.9176 C   0  0  0  0  0  0
  -21.6047   -4.3053   24.7228 C   0  0  0  0  0  0
  -21.8817   -3.8140   23.4350 C   0  0  0  0  0  0
  -21.9191   -4.6956   22.3406 C   0  0  0  0  0  0
  -22.7874  -13.5235   21.1843 C   0  0  0  0  0  0
  -22.1659   -4.2138   21.0985 F   0  0  0  0  0  0
  -21.5633   -3.4541   25.7746 F   0  0  0  0  0  0
  -30.0323  -13.3359   20.4403 N   0  0  0  0  0  0
  -26.3038  -12.9281   20.3348 N   0  0  0  0  0  0
  -25.9321  -11.6451   20.5742 N   0  0  0  0  0  0
  -22.0516  -12.8229   22.0399 N   0  0  0  0  0  0
  -25.4346  -15.1847   20.4091 N   0  0  0  0  0  0
  -31.7381  -14.8207   20.1061 O   0  0  0  0  0  0
  -21.6633   -6.8869   21.4243 O   0  0  0  0  0  0
  -22.3561  -14.5544   20.6687 O   0  0  0  0  0  0
  -24.6208  -31.8597   23.2054 C   0  0  0  0  0  0
  -25.9068  -32.4785   23.8374 C   0  0  1  0  0  0
  -27.2509  -27.3854   20.1093 C   0  0  0  0  0  0
  -25.5893  -33.8591   24.2309 N   0  0  0  0  0  0
  -23.4146  -30.4788   21.5476 C   0  0  2  0  0  0
  -24.8642  -28.9349   20.1175 C   0  0  0  0  0  0
  -22.7438  -29.4608   22.4979 C   0  0  0  0  0  0
  -18.0267  -28.1380   22.8481 C   0  0  0  0  0  0
  -24.1498  -36.7315   23.2645 C   0  0  0  0  0  0
  -25.9461  -30.8137   21.3633 C   0  0  0  0  0  0
  -26.0259  -29.4429   20.7119 C   0  0  0  0  0  0
  -27.2217  -28.6804   20.6922 C   0  0  0  0  0  0
  -26.0672  -26.8977   19.5150 C   0  0  0  0  0  0
  -24.8825  -27.6629   19.5143 C   0  0  0  0  0  0
  -23.6263  -29.8040   20.1657 C   0  0  0  0  0  0
  -25.4114  -36.3096   24.0335 C   0  0  1  0  0  0
  -20.5858  -28.3671   23.1307 C   0  0  2  0  0  0
  -20.6766  -26.9403   22.5421 C   0  0  0  0  0  0
  -19.5747  -26.6385   21.5215 C   0  0  0  0  0  0
  -18.1919  -26.7921   22.1626 C   0  0  0  0  0  0
  -19.1512  -28.8849   23.2894 C   0  0  0  0  0  0
  -18.9437  -30.1460   23.8901 C   0  0  0  0  0  0
  -17.6432  -30.6582   24.0561 C   0  0  0  0  0  0
  -25.9029  -34.9459   23.5122 C   0  0  0  0  0  0
  -16.5329  -29.9075   23.6331 C   0  0  0  0  0  0
  -16.7250  -28.6497   23.0343 C   0  0  0  0  0  0
  -26.4484  -31.6580   25.0726 C   0  0  0  0  0  0
  -25.3729  -31.3686   26.1447 C   0  0  0  0  0  0
  -27.0329  -30.3026   24.6140 C   0  0  0  0  0  0
  -27.6059  -32.4303   25.7468 C   0  0  0  0  0  0
  -27.5588  -37.1811   24.8460 C   0  0  0  0  0  0
  -21.4155  -29.3029   22.3707 N   0  0  0  0  0  0
  -26.4304  -37.3777   23.9395 N   0  0  0  0  0  0
  -24.6795  -31.0661   22.0967 N   0  0  0  0  0  0
  -23.4169  -28.8149   23.3051 O   0  0  0  0  0  0
  -28.4229  -26.6410   20.0721 O   0  0  0  0  0  0
  -26.5609  -34.8904   22.4692 O   0  0  0  0  0  0
  -23.5385  -32.1346   23.7421 O   0  0  0  0  0  0
  -31.0877  -25.3105   18.7539 C   0  0  0  0  0  0
  -28.9949  -18.6696   22.8393 C   0  0  0  0  0  0
  -29.3803  -19.6699   21.9317 C   0  0  0  0  0  0
  -29.1970  -17.3135   22.5306 C   0  0  0  0  0  0
  -30.2165  -17.9432   20.4085 C   0  0  0  0  0  0
  -29.9815  -19.3323   20.7037 C   0  0  0  0  0  0
  -29.8095  -16.9189   21.3220 C   0  0  0  0  0  0
  -29.6571  -22.8912   20.2274 C   0  0  0  0  0  0
  -30.4066  -20.4778   19.7520 C   0  0  0  0  0  0
  -28.4068  -25.2568   20.5446 C   0  0  0  0  0  0
  -28.9962  -24.1585   19.5673 C   0  0  1  0  0  0
  -29.9983  -24.7622   18.7194 N   0  0  0  0  0  0
  -29.7798  -15.4963   21.0854 N   0  0  0  0  0  0
  -29.5330  -21.6830   19.6174 N   0  0  0  0  0  0
  -32.1578  -25.7751   18.9142 O   0  0  0  0  0  0
  -30.3758  -23.0293   21.2192 O   0  0  0  0  0  0
  -31.4878  -12.5059   19.1156 H   0  0  0  0  0  0
  -30.3914  -11.3472   19.8186 H   0  0  0  0  0  0
  -29.7590  -11.7943   17.4318 H   0  0  0  0  0  0
  -29.6531  -13.5054   17.7567 H   0  0  0  0  0  0
  -27.8500  -11.3034   18.8187 H   0  0  0  0  0  0
  -27.3723  -12.6259   17.7868 H   0  0  0  0  0  0
  -27.7048  -14.2463   19.5777 H   0  0  0  0  0  0
  -28.7137  -11.9229   21.2950 H   0  0  0  0  0  0
  -28.4549  -13.5250   21.8924 H   0  0  0  0  0  0
  -25.2759   -9.5676   22.4737 H   0  0  0  0  0  0
  -23.9994   -7.4629   22.7469 H   0  0  0  0  0  0
  -21.0826   -8.8758   19.8949 H   0  0  0  0  0  0
  -22.3678  -10.9661   19.6148 H   0  0  0  0  0  0
  -21.1999   -7.6140   23.9709 H   0  0  0  0  0  0
  -21.1489   -6.0523   25.9078 H   0  0  0  0  0  0
  -22.0595   -2.7601   23.2858 H   0  0  0  0  0  0
  -22.4138  -11.9898   22.4793 H   0  0  0  0  0  0
  -21.1131  -13.1241   22.2603 H   0  0  0  0  0  0
  -24.6719  -15.8423   20.5273 H   0  0  0  0  0  0
  -26.2903  -15.6256   20.0950 H   0  0  0  0  0  0
  -26.7141  -32.5495   23.1133 H   0  0  0  0  0  0
  -25.0046  -33.9730   25.0461 H   0  0  0  0  0  0
  -22.7087  -31.2994   21.4029 H   0  0  0  0  0  0
  -23.3732  -35.9672   23.3317 H   0  0  0  0  0  0
  -24.3595  -36.8922   22.2057 H   0  0  0  0  0  0
  -23.7254  -37.6533   23.6644 H   0  0  0  0  0  0
  -26.0668  -31.5759   20.5936 H   0  0  0  0  0  0
  -26.8297  -30.8676   21.9884 H   0  0  0  0  0  0
  -28.1235  -29.0771   21.1387 H   0  0  0  0  0  0
  -26.0652  -25.9268   19.0403 H   0  0  0  0  0  0
  -23.9906  -27.2668   19.0491 H   0  0  0  0  0  0
  -23.7347  -30.5746   19.4005 H   0  0  0  0  0  0
  -22.7519  -29.2212   19.8739 H   0  0  0  0  0  0
  -25.1293  -36.1972   25.0827 H   0  0  0  0  0  0
  -20.9955  -28.3233   24.1425 H   0  0  0  0  0  0
  -20.5680  -26.2263   23.3603 H   0  0  0  0  0  0
  -21.6633  -26.7448   22.1210 H   0  0  0  0  0  0
  -19.6917  -25.6294   21.1233 H   0  0  0  0  0  0
  -19.6700  -27.3207   20.6755 H   0  0  0  0  0  0
  -17.4204  -26.6665   21.4018 H   0  0  0  0  0  0
  -18.0326  -26.0064   22.9024 H   0  0  0  0  0  0
  -19.7917  -30.7279   24.2260 H   0  0  0  0  0  0
  -17.4985  -31.6254   24.5164 H   0  0  0  0  0  0
  -15.5329  -30.2971   23.7659 H   0  0  0  0  0  0
  -15.8653  -28.0816   22.7048 H   0  0  0  0  0  0
  -24.5886  -30.7070   25.7749 H   0  0  0  0  0  0
  -24.8923  -32.2842   26.4921 H   0  0  0  0  0  0
  -25.8040  -30.8802   27.0192 H   0  0  0  0  0  0
  -26.2904  -29.6771   24.1170 H   0  0  0  0  0  0
  -27.4071  -29.7280   25.4624 H   0  0  0  0  0  0
  -27.8743  -30.4346   23.9327 H   0  0  0  0  0  0
  -27.2686  -33.3568   26.2117 H   0  0  0  0  0  0
  -28.3811  -32.6911   25.0254 H   0  0  0  0  0  0
  -28.0799  -31.8384   26.5313 H   0  0  0  0  0  0
  -28.2604  -38.0114   24.7500 H   0  0  0  0  0  0
  -28.1084  -36.2631   24.6288 H   0  0  0  0  0  0
  -27.2301  -37.1478   25.8868 H   0  0  0  0  0  0
  -20.9332  -29.8709   21.6870 H   0  0  0  0  0  0
  -26.0198  -38.2863   24.1367 H   0  0  0  0  0  0
  -28.5213  -18.9454   23.7714 H   0  0  0  0  0  0
  -29.2135  -20.7065   22.1899 H   0  0  0  0  0  0
  -28.8518  -16.5687   23.2343 H   0  0  0  0  0  0
  -30.6683  -17.6692   19.4652 H   0  0  0  0  0  0
  -30.5297  -20.0552   18.7544 H   0  0  0  0  0  0
  -31.4067  -20.7994   20.0498 H   0  0  0  0  0  0
  -28.9904  -25.2628   21.4658 H   0  0  0  0  0  0
  -27.4056  -24.9539   20.8557 H   0  0  0  0  0  0
  -28.1841  -23.8232   18.9228 H   0  0  0  0  0  0
  -28.9562  -15.0489   21.4572 H   0  0  0  0  0  0
  -28.9055  -21.6661   18.8239 H   0  0  0  0  0  0
  1 25  1  0  0  0
  1 30  2  0  0  0
  1 83  1  0  0  0
  2  3  1  0  0  0
  2 25  1  0  0  0
  2 87  1  0  0  0
  2 88  1  0  0  0
  3  4  1  0  0  0
  3 89  1  0  0  0
  3 90  1  0  0  0
  4  5  1  0  0  0
  4 91  1  0  0  0
  4 92  1  0  0  0
  5  6  1  0  0  0
  5 26  1  0  0  0
  5 93  1  0  0  0
  6 25  1  0  0  0
  6 94  1  0  0  0
  6 95  1  0  0  0
  7  8  2  0  0  0
  7 26  1  0  0  0
  7 29  1  0  0  0
  8  9  1  0  0  0
  8 22  1  0  0  0
  9 10  1  0  0  0
  9 27  2  0  0  0
 10 11  2  0  0  0
 10 15  1  0  0  0
 11 12  1  0  0  0
 11 96  1  0  0  0
 12 13  2  0  0  0
 12 97  1  0  0  0
 13 14  1  0  0  0
 13 31  1  0  0  0
 14 15  2  0  0  0
 14 98  1  0  0  0
 15 99  1  0  0  0
 16 17  2  0  0  0
 16 21  1  0  0  0
 16 31  1  0  0  0
 17 18  1  0  0  0
 17100  1  0  0  0
 18 19  2  0  0  0
 18101  1  0  0  0
 19 20  1  0  0  0
 19 24  1  0  0  0
 20 21  2  0  0  0
 20102  1  0  0  0
 21 23  1  0  0  0
 22 28  1  0  0  0
 22 32  2  0  0  0
 26 27  1  0  0  0
 28103  1  0  0  0
 28104  1  0  0  0
 29105  1  0  0  0
 29106  1  0  0  0
 33 34  1  0  0  0
 33 66  1  0  0  0
 33 70  2  0  0  0
 34 36  1  0  0  0
 34 59  1  0  0  0
 34107  1  0  0  0
 35 44  2  0  0  0
 35 45  1  0  0  0
 35 68  1  0  0  0
 36 56  1  0  0  0
 36108  1  0  0  0
 37 39  1  0  0  0
 37 47  1  0  0  0
 37 66  1  0  0  0
 37109  1  0  0  0
 38 43  2  0  0  0
 38 46  1  0  0  0
 38 47  1  0  0  0
 39 64  1  0  0  0
 39 67  2  0  0  0
 40 52  1  0  0  0
 40 53  2  0  0  0
 40 58  1  0  0  0
 41110  1  0  0  0
 41111  1  0  0  0
 41112  1  0  0  0
 41 48  1  0  0  0
 42 43  1  0  0  0
 42 66  1  0  0  0
 42113  1  0  0  0
 42114  1  0  0  0
 43 44  1  0  0  0
 44115  1  0  0  0
 45 46  2  0  0  0
 45116  1  0  0  0
 46117  1  0  0  0
 47118  1  0  0  0
 47119  1  0  0  0
 48 56  1  0  0  0
 48 65  1  0  0  0
 48120  1  0  0  0
 49 50  1  0  0  0
 49 53  1  0  0  0
 49 64  1  0  0  0
 49121  1  0  0  0
 50 51  1  0  0  0
 50122  1  0  0  0
 50123  1  0  0  0
 51 52  1  0  0  0
 51124  1  0  0  0
 51125  1  0  0  0
 52126  1  0  0  0
 52127  1  0  0  0
 53 54  1  0  0  0
 54 55  2  0  0  0
 54128  1  0  0  0
 55 57  1  0  0  0
 55129  1  0  0  0
 56 69  2  0  0  0
 57 58  2  0  0  0
 57130  1  0  0  0
 58131  1  0  0  0
 59 60  1  0  0  0
 59 61  1  0  0  0
 59 62  1  0  0  0
 60132  1  0  0  0
 60133  1  0  0  0
 60134  1  0  0  0
 61135  1  0  0  0
 61136  1  0  0  0
 61137  1  0  0  0
 62138  1  0  0  0
 62139  1  0  0  0
 62140  1  0  0  0
 63 65  1  0  0  0
 63141  1  0  0  0
 63142  1  0  0  0
 63143  1  0  0  0
 64144  1  0  0  0
 65145  1  0  0  0
 68 80  1  0  0  0
 71 82  2  0  0  0
 71 85  2  0  0  0
 72 73  2  0  0  0
 72 74  1  0  0  0
 72146  1  0  0  0
 73 76  1  0  0  0
 73147  1  0  0  0
 74 77  2  0  0  0
 74148  1  0  0  0
 75 76  2  0  0  0
 75 77  1  0  0  0
 75149  1  0  0  0
 76 79  1  0  0  0
 77 83  1  0  0  0
 78 81  1  0  0  0
 78 84  1  0  0  0
 78 86  2  0  0  0
 79 84  1  0  0  0
 79150  1  0  0  0
 79151  1  0  0  0
 80152  1  0  0  0
 80153  1  0  0  0
 80 81  1  0  0  0
 81 82  1  0  0  0
 81154  1  0  0  0
 83155  1  0  0  0
 84156  1  0  0  0
M  ISO  4   1 100  68 101  80 101  83 100
M  END
> <chiral flag>
0

> <version>
0

> <s_m_source_file>
/data/baiqing/PycharmProjects/Reinvent-master-3.2/result/LINK_invent/BTK/process_docking_weight1_custom_product_contain_oxygen_bond_distance_aromatic_linkinvent_7_9_3/rearranged_h_0053.sdf

> <i_m_source_file_index>
95

> <r_mmod_Potential_Energy-OPLS-2005>
-79.5561218261719

> <r_mmod_Stretch_Energy-OPLS-2005>
59.0412216186523

> <r_mmod_Bend_Energy-OPLS-2005>
137.484970092773

> <r_mmod_Torsional_Energy-OPLS-2005>
247.314788818359

> <r_mmod_Improper_Torsional_Energy-OPLS-2005>
5.78114032745361

> <r_mmod_Van_der_Waal_Energy-OPLS-2005>
140.89323425293

> <r_mmod_Electrostatic_Energy-OPLS-2005>
-453.417572021484

> <r_mmod_Solvation_Energy-OPLS-2005>
-241.8232421875

> <b_mmod_Minimization_Converged-OPLS-2005>
0

> <r_mmod_RMS_Derivative-OPLS-2005>
2.54379606246948

$$$$
95
                    3D
 Structure written by MMmdl.
153161  0  0  1  0            999 V2000
  -30.6446  -14.7459   20.4033 C   0  0  0  0  0  0
  -30.4203  -12.4402   19.4828 C   0  0  0  0  0  0
  -29.5130  -12.5251   18.2362 C   0  0  0  0  0  0
  -28.0346  -12.3696   18.6396 C   0  0  0  0  0  0
  -27.6460  -13.2504   19.8586 C   0  0  2  0  0  0
  -28.6963  -13.1937   20.9929 C   0  0  0  0  0  0
  -25.2528  -13.8240   20.5692 C   0  0  0  0  0  0
  -24.1814  -13.0470   20.9221 C   0  0  0  0  0  0
  -24.6424  -11.6950   20.8695 C   0  0  0  0  0  0
  -23.9115  -10.4303   21.0330 C   0  0  0  0  0  0
  -24.3663   -9.4236   21.9140 C   0  0  0  0  0  0
  -23.6316   -8.2289   22.0737 C   0  0  0  0  0  0
  -22.4303   -8.0318   21.3550 C   0  0  0  0  0  0
  -21.9920   -9.0267   20.4636 C   0  0  0  0  0  0
  -22.7252  -10.2149   20.3003 C   0  0  0  0  0  0
  -21.6888   -6.0767   22.5281 C   0  0  0  0  0  0
  -21.4028   -6.5650   23.8214 C   0  0  0  0  0  0
  -21.3655   -5.6805   24.9175 C   0  0  0  0  0  0
  -21.6048   -4.3069   24.7233 C   0  0  0  0  0  0
  -21.8810   -3.8175   23.4339 C   0  0  0  0  0  0
  -21.9190   -4.6994   22.3405 C   0  0  0  0  0  0
  -22.7842  -13.5245   21.1865 C   0  0  0  0  0  0
  -22.1657   -4.2195   21.0973 F   0  0  0  0  0  0
  -21.5625   -3.4525   25.7727 F   0  0  0  0  0  0
  -30.0045  -13.5223   20.4087 N   0  0  0  0  0  0
  -26.2978  -12.9471   20.3287 N   0  0  0  0  0  0
  -25.9370  -11.6600   20.5769 N   0  0  0  0  0  0
  -22.0504  -12.8211   22.0397 N   0  0  0  0  0  0
  -25.4126  -15.1984   20.4034 N   0  0  0  0  0  0
  -31.8199  -14.8096   20.0380 O   0  0  0  0  0  0
  -21.6693   -6.8902   21.4240 O   0  0  0  0  0  0
  -22.3483  -14.5555   20.6726 O   0  0  0  0  0  0
  -24.6302  -31.8543   23.2015 C   0  0  0  0  0  0
  -25.9134  -32.4750   23.8326 C   0  0  1  0  0  0
  -27.2277  -27.2642   20.1173 C   0  0  0  0  0  0
  -25.5951  -33.8559   24.2248 N   0  0  0  0  0  0
  -23.4272  -30.4767   21.5461 C   0  0  2  0  0  0
  -24.8784  -28.9252   20.1151 C   0  0  0  0  0  0
  -22.7481  -29.4604   22.4942 C   0  0  0  0  0  0
  -18.0277  -28.1397   22.8466 C   0  0  0  0  0  0
  -24.1501  -36.7272   23.2642 C   0  0  0  0  0  0
  -25.9746  -30.7690   21.3808 C   0  0  0  0  0  0
  -26.0501  -29.3917   20.7209 C   0  0  0  0  0  0
  -27.2266  -28.5740   20.7129 C   0  0  0  0  0  0
  -26.0270  -26.8722   19.4775 C   0  0  0  0  0  0
  -24.8702  -27.6736   19.4854 C   0  0  0  0  0  0
  -23.6456  -29.8072   20.1638 C   0  0  0  0  0  0
  -25.4136  -36.3073   24.0317 C   0  0  1  0  0  0
  -20.5884  -28.3702   23.1260 C   0  0  2  0  0  0
  -20.6776  -26.9421   22.5396 C   0  0  0  0  0  0
  -19.5764  -26.6389   21.5196 C   0  0  0  0  0  0
  -18.1936  -26.7939   22.1596 C   0  0  0  0  0  0
  -19.1538  -28.8857   23.2855 C   0  0  0  0  0  0
  -18.9468  -30.1460   23.8863 C   0  0  0  0  0  0
  -17.6476  -30.6601   24.0540 C   0  0  0  0  0  0
  -25.9072  -34.9444   23.5085 C   0  0  0  0  0  0
  -16.5359  -29.9092   23.6347 C   0  0  0  0  0  0
  -16.7268  -28.6513   23.0356 C   0  0  0  0  0  0
  -26.4525  -31.6597   25.0712 C   0  0  0  0  0  0
  -25.3715  -31.3715   26.1385 C   0  0  0  0  0  0
  -27.0410  -30.3026   24.6216 C   0  0  0  0  0  0
  -27.6080  -32.4347   25.7485 C   0  0  0  0  0  0
  -27.5594  -37.1775   24.8449 C   0  0  0  0  0  0
  -21.4188  -29.3047   22.3671 N   0  0  0  0  0  0
  -26.4295  -37.3785   23.9423 N   0  0  0  0  0  0
  -24.6971  -31.0477   22.1007 N   0  0  0  0  0  0
  -23.4178  -28.8154   23.3056 O   0  0  0  0  0  0
  -28.3199  -26.3609   20.1758 O   0  0  0  0  0  0
  -26.5624  -34.8908   22.4641 O   0  0  0  0  0  0
  -23.5446  -32.1406   23.7281 O   0  0  0  0  0  0
  -30.3942  -18.5717   17.9734 C   0  0  0  0  0  0
  -30.3476  -17.3346   18.6509 C   0  0  0  0  0  0
  -29.7638  -18.5363   20.6761 C   0  0  0  0  0  0
  -30.1657  -19.8060   18.6251 C   0  0  0  0  0  0
  -29.8256  -19.8363   20.0069 C   0  0  0  0  0  0
  -30.0400  -17.2564   20.0283 C   0  0  0  0  0  0
  -30.3357  -21.0443   17.8150 C   0  0  0  0  0  0
  -29.1174  -23.7975   20.3857 C   0  0  0  0  0  0
  -29.6479  -21.2359   20.7711 C   0  0  0  0  0  0
  -28.0583  -24.8998   19.8998 C   0  0  0  0  0  0
  -29.9270  -15.9099   20.6599 N   0  0  0  0  0  0
  -28.9015  -22.4362   20.1824 N   0  0  0  0  0  0
  -30.0518  -21.1277   16.6148 O   0  0  0  0  0  0
  -30.1350  -24.1793   20.9705 O   0  0  0  0  0  0
  -31.4691  -12.5192   19.1910 H   0  0  0  0  0  0
  -30.3197  -11.4659   19.9634 H   0  0  0  0  0  0
  -29.7869  -11.7578   17.5122 H   0  0  0  0  0  0
  -29.6639  -13.4845   17.7369 H   0  0  0  0  0  0
  -27.8664  -11.3160   18.8614 H   0  0  0  0  0  0
  -27.3941  -12.6023   17.7881 H   0  0  0  0  0  0
  -27.6353  -14.2783   19.4935 H   0  0  0  0  0  0
  -28.7196  -12.2036   21.4570 H   0  0  0  0  0  0
  -28.4407  -13.8979   21.7882 H   0  0  0  0  0  0
  -25.2800   -9.5781   22.4725 H   0  0  0  0  0  0
  -24.0033   -7.4692   22.7467 H   0  0  0  0  0  0
  -21.0851   -8.8770   19.8945 H   0  0  0  0  0  0
  -22.3658  -10.9684   19.6128 H   0  0  0  0  0  0
  -21.2019   -7.6161   23.9736 H   0  0  0  0  0  0
  -21.1477   -6.0536   25.9086 H   0  0  0  0  0  0
  -22.0586   -2.7643   23.2825 H   0  0  0  0  0  0
  -22.4116  -11.9860   22.4782 H   0  0  0  0  0  0
  -21.1103  -13.1208   22.2610 H   0  0  0  0  0  0
  -24.6531  -15.8531   20.5505 H   0  0  0  0  0  0
  -26.2472  -15.6437   20.0405 H   0  0  0  0  0  0
  -26.7181  -32.5387   23.1040 H   0  0  0  0  0  0
  -25.0131  -33.9734   25.0406 H   0  0  0  0  0  0
  -22.7231  -31.2986   21.3936 H   0  0  0  0  0  0
  -23.3809  -35.9559   23.3259 H   0  0  0  0  0  0
  -24.3577  -36.8955   22.2066 H   0  0  0  0  0  0
  -23.7213  -37.6432   23.6706 H   0  0  0  0  0  0
  -26.1084  -31.5362   20.6148 H   0  0  0  0  0  0
  -26.8526  -30.8182   22.0105 H   0  0  0  0  0  0
  -28.1242  -28.9264   21.2038 H   0  0  0  0  0  0
  -25.9394  -25.9220   18.9744 H   0  0  0  0  0  0
  -23.9705  -27.3179   19.0041 H   0  0  0  0  0  0
  -23.7569  -30.5797   19.4009 H   0  0  0  0  0  0
  -22.7658  -29.2324   19.8677 H   0  0  0  0  0  0
  -25.1327  -36.1904   25.0807 H   0  0  0  0  0  0
  -20.9936  -28.3268   24.1395 H   0  0  0  0  0  0
  -20.5685  -26.2298   23.3598 H   0  0  0  0  0  0
  -21.6640  -26.7453   22.1173 H   0  0  0  0  0  0
  -19.6939  -25.6299   21.1236 H   0  0  0  0  0  0
  -19.6718  -27.3169   20.6713 H   0  0  0  0  0  0
  -17.4200  -26.6660   21.4005 H   0  0  0  0  0  0
  -18.0344  -26.0093   22.9003 H   0  0  0  0  0  0
  -19.7950  -30.7278   24.2215 H   0  0  0  0  0  0
  -17.5038  -31.6285   24.5152 H   0  0  0  0  0  0
  -15.5369  -30.2981   23.7729 H   0  0  0  0  0  0
  -15.8653  -28.0827   22.7110 H   0  0  0  0  0  0
  -24.5920  -30.7071   25.7650 H   0  0  0  0  0  0
  -24.8876  -32.2865   26.4809 H   0  0  0  0  0  0
  -25.7986  -30.8853   27.0159 H   0  0  0  0  0  0
  -26.3024  -29.6713   24.1262 H   0  0  0  0  0  0
  -27.4140  -29.7343   25.4754 H   0  0  0  0  0  0
  -27.8865  -30.4344   23.9462 H   0  0  0  0  0  0
  -27.2733  -33.3687   26.2019 H   0  0  0  0  0  0
  -28.3921  -32.6846   25.0321 H   0  0  0  0  0  0
  -28.0715  -31.8481   26.5432 H   0  0  0  0  0  0
  -28.2545  -38.0140   24.7598 H   0  0  0  0  0  0
  -28.1162  -36.2664   24.6169 H   0  0  0  0  0  0
  -27.2270  -37.1266   25.8833 H   0  0  0  0  0  0
  -20.9407  -29.8714   21.6798 H   0  0  0  0  0  0
  -26.0164  -38.2839   24.1492 H   0  0  0  0  0  0
  -30.6357  -18.5645   16.9175 H   0  0  0  0  0  0
  -30.5370  -16.4385   18.0748 H   0  0  0  0  0  0
  -29.5243  -18.5257   21.7302 H   0  0  0  0  0  0
  -30.7527  -21.8889   18.3598 H   0  0  0  0  0  0
  -30.6603  -21.5709   21.0038 H   0  0  0  0  0  0
  -29.1987  -21.0245   21.7441 H   0  0  0  0  0  0
  -27.1224  -24.6176   20.3836 H   0  0  0  0  0  0
  -27.9252  -24.7696   18.8243 H   0  0  0  0  0  0
  -29.0937  -15.7651   21.2102 H   0  0  0  0  0  0
  -28.0591  -22.1941   19.6765 H   0  0  0  0  0  0
  1 25  1  0  0  0
  1 30  2  0  0  0
  1 81  1  0  0  0
  2  3  1  0  0  0
  2 25  1  0  0  0
  2 85  1  0  0  0
  2 86  1  0  0  0
  3  4  1  0  0  0
  3 87  1  0  0  0
  3 88  1  0  0  0
  4  5  1  0  0  0
  4 89  1  0  0  0
  4 90  1  0  0  0
  5  6  1  0  0  0
  5 26  1  0  0  0
  5 91  1  0  0  0
  6 25  1  0  0  0
  6 92  1  0  0  0
  6 93  1  0  0  0
  7  8  2  0  0  0
  7 26  1  0  0  0
  7 29  1  0  0  0
  8  9  1  0  0  0
  8 22  1  0  0  0
  9 10  1  0  0  0
  9 27  2  0  0  0
 10 11  2  0  0  0
 10 15  1  0  0  0
 11 12  1  0  0  0
 11 94  1  0  0  0
 12 13  2  0  0  0
 12 95  1  0  0  0
 13 14  1  0  0  0
 13 31  1  0  0  0
 14 15  2  0  0  0
 14 96  1  0  0  0
 15 97  1  0  0  0
 16 17  2  0  0  0
 16 21  1  0  0  0
 16 31  1  0  0  0
 17 18  1  0  0  0
 17 98  1  0  0  0
 18 19  2  0  0  0
 18 99  1  0  0  0
 19 20  1  0  0  0
 19 24  1  0  0  0
 20 21  2  0  0  0
 20100  1  0  0  0
 21 23  1  0  0  0
 22 28  1  0  0  0
 22 32  2  0  0  0
 26 27  1  0  0  0
 28101  1  0  0  0
 28102  1  0  0  0
 29103  1  0  0  0
 29104  1  0  0  0
 33 34  1  0  0  0
 33 66  1  0  0  0
 33 70  2  0  0  0
 34 36  1  0  0  0
 34 59  1  0  0  0
 34105  1  0  0  0
 35 44  2  0  0  0
 35 45  1  0  0  0
 35 68  1  0  0  0
 36 56  1  0  0  0
 36106  1  0  0  0
 37 39  1  0  0  0
 37 47  1  0  0  0
 37 66  1  0  0  0
 37107  1  0  0  0
 38 43  2  0  0  0
 38 46  1  0  0  0
 38 47  1  0  0  0
 39 64  1  0  0  0
 39 67  2  0  0  0
 40 52  1  0  0  0
 40 53  2  0  0  0
 40 58  1  0  0  0
 41108  1  0  0  0
 41109  1  0  0  0
 41110  1  0  0  0
 41 48  1  0  0  0
 42 43  1  0  0  0
 42 66  1  0  0  0
 42111  1  0  0  0
 42112  1  0  0  0
 43 44  1  0  0  0
 44113  1  0  0  0
 45 46  2  0  0  0
 45114  1  0  0  0
 46115  1  0  0  0
 47116  1  0  0  0
 47117  1  0  0  0
 48 56  1  0  0  0
 48 65  1  0  0  0
 48118  1  0  0  0
 49 50  1  0  0  0
 49 53  1  0  0  0
 49 64  1  0  0  0
 49119  1  0  0  0
 50 51  1  0  0  0
 50120  1  0  0  0
 50121  1  0  0  0
 51 52  1  0  0  0
 51122  1  0  0  0
 51123  1  0  0  0
 52124  1  0  0  0
 52125  1  0  0  0
 53 54  1  0  0  0
 54 55  2  0  0  0
 54126  1  0  0  0
 55 57  1  0  0  0
 55127  1  0  0  0
 56 69  2  0  0  0
 57 58  2  0  0  0
 57128  1  0  0  0
 58129  1  0  0  0
 59 60  1  0  0  0
 59 61  1  0  0  0
 59 62  1  0  0  0
 60130  1  0  0  0
 60131  1  0  0  0
 60132  1  0  0  0
 61133  1  0  0  0
 61134  1  0  0  0
 61135  1  0  0  0
 62136  1  0  0  0
 62137  1  0  0  0
 62138  1  0  0  0
 63 65  1  0  0  0
 63139  1  0  0  0
 63140  1  0  0  0
 63141  1  0  0  0
 64142  1  0  0  0
 65143  1  0  0  0
 68 80  1  0  0  0
 71 72  2  0  0  0
 71 74  1  0  0  0
 71144  1  0  0  0
 72 76  1  0  0  0
 72145  1  0  0  0
 73 75  1  0  0  0
 73 76  2  0  0  0
 73146  1  0  0  0
 74 75  2  0  0  0
 74 77  1  0  0  0
 75 79  1  0  0  0
 76 81  1  0  0  0
 77 83  2  0  0  0
 77147  1  0  0  0
 78 80  1  0  0  0
 78 82  1  0  0  0
 78 84  2  0  0  0
 79 82  1  0  0  0
 79148  1  0  0  0
 79149  1  0  0  0
 80150  1  0  0  0
 80151  1  0  0  0
 81152  1  0  0  0
 82153  1  0  0  0
M  ISO  4   1 100  68 101  80 101  81 100
M  END
> <chiral flag>
0

> <version>
0

> <s_m_source_file>
/data/baiqing/PycharmProjects/Reinvent-master-3.2/result/LINK_invent/BTK/process_docking_weight1_custom_product_contain_oxygen_bond_distance_aromatic_linkinvent_7_9_3/rearranged_h_0053.sdf

> <i_m_source_file_index>
96

> <r_mmod_Potential_Energy-OPLS-2005>
115.968132019043

> <r_mmod_Stretch_Energy-OPLS-2005>
131.663269042969

> <r_mmod_Bend_Energy-OPLS-2005>
157.269073486328

> <r_mmod_Torsional_Energy-OPLS-2005>
241.340515136719

> <r_mmod_Improper_Torsional_Energy-OPLS-2005>
4.80813217163086

> <r_mmod_Van_der_Waal_Energy-OPLS-2005>
146.434036254883

> <r_mmod_Electrostatic_Energy-OPLS-2005>
-388.084350585938

> <r_mmod_Solvation_Energy-OPLS-2005>
-263.251922607422

> <b_mmod_Minimization_Converged-OPLS-2005>
0

> <r_mmod_RMS_Derivative-OPLS-2005>
5.31364011764526

$$$$
