0
                    3D
 Structure written by MMmdl.
160169  0  0  1  0            999 V2000
  -30.5852  -14.7966   20.4314 C   0  0  0  0  0  0
  -30.4460  -12.4866   19.4646 C   0  0  0  0  0  0
  -29.5106  -12.5008   18.2349 C   0  0  0  0  0  0
  -28.0412  -12.3071   18.6618 C   0  0  0  0  0  0
  -27.6386  -13.2264   19.8443 C   0  0  2  0  0  0
  -28.6897  -13.1922   20.9750 C   0  0  0  0  0  0
  -25.2497  -13.8189   20.5701 C   0  0  0  0  0  0
  -24.1786  -13.0434   20.9215 C   0  0  0  0  0  0
  -24.6382  -11.6918   20.8770 C   0  0  0  0  0  0
  -23.9063  -10.4298   21.0415 C   0  0  0  0  0  0
  -24.3617   -9.4216   21.9189 C   0  0  0  0  0  0
  -23.6294   -8.2244   22.0763 C   0  0  0  0  0  0
  -22.4271   -8.0281   21.3550 C   0  0  0  0  0  0
  -21.9906   -9.0257   20.4652 C   0  0  0  0  0  0
  -22.7238  -10.2137   20.3059 C   0  0  0  0  0  0
  -21.6846   -6.0730   22.5279 C   0  0  0  0  0  0
  -21.4011   -6.5637   23.8206 C   0  0  0  0  0  0
  -21.3664   -5.6789   24.9170 C   0  0  0  0  0  0
  -21.6044   -4.3053   24.7219 C   0  0  0  0  0  0
  -21.8821   -3.8137   23.4335 C   0  0  0  0  0  0
  -21.9194   -4.6956   22.3395 C   0  0  0  0  0  0
  -22.7813  -13.5221   21.1865 C   0  0  0  0  0  0
  -22.1661   -4.2149   21.0974 F   0  0  0  0  0  0
  -21.5636   -3.4523   25.7732 F   0  0  0  0  0  0
  -29.9821  -13.5566   20.3766 N   0  0  0  0  0  0
  -26.2926  -12.9382   20.3298 N   0  0  0  0  0  0
  -25.9311  -11.6527   20.5789 N   0  0  0  0  0  0
  -22.0451  -12.8229   22.0422 N   0  0  0  0  0  0
  -25.4141  -15.1924   20.4111 N   0  0  0  0  0  0
  -31.7951  -14.8977   20.2070 O   0  0  0  0  0  0
  -21.6638   -6.8870   21.4245 O   0  0  0  0  0  0
  -22.3508  -14.5530   20.6706 O   0  0  0  0  0  0
  -24.6370  -31.8549   23.1973 C   0  0  0  0  0  0
  -25.9174  -32.4773   23.8330 C   0  0  1  0  0  0
  -27.2092  -27.2137   20.1259 C   0  0  0  0  0  0
  -25.5978  -33.8573   24.2256 N   0  0  0  0  0  0
  -23.4362  -30.4818   21.5421 C   0  0  2  0  0  0
  -24.8808  -28.9310   20.1131 C   0  0  0  0  0  0
  -22.7534  -29.4609   22.4867 C   0  0  0  0  0  0
  -18.0303  -28.1408   22.8509 C   0  0  0  0  0  0
  -24.1485  -36.7263   23.2637 C   0  0  0  0  0  0
  -25.9897  -30.7558   21.3820 C   0  0  0  0  0  0
  -26.0605  -29.3751   20.7220 C   0  0  0  0  0  0
  -27.2266  -28.5348   20.7134 C   0  0  0  0  0  0
  -25.9942  -26.8601   19.4878 C   0  0  0  0  0  0
  -24.8552  -27.6816   19.4871 C   0  0  0  0  0  0
  -23.6587  -29.8274   20.1579 C   0  0  0  0  0  0
  -25.4114  -36.3076   24.0343 C   0  0  1  0  0  0
  -20.5920  -28.3725   23.1250 C   0  0  2  0  0  0
  -20.6801  -26.9441   22.5401 C   0  0  0  0  0  0
  -19.5769  -26.6390   21.5214 C   0  0  0  0  0  0
  -18.1943  -26.7960   22.1626 C   0  0  0  0  0  0
  -19.1566  -28.8878   23.2883 C   0  0  0  0  0  0
  -18.9490  -30.1481   23.8913 C   0  0  0  0  0  0
  -17.6497  -30.6618   24.0582 C   0  0  0  0  0  0
  -25.9067  -34.9455   23.5085 C   0  0  0  0  0  0
  -16.5378  -29.9136   23.6348 C   0  0  0  0  0  0
  -16.7290  -28.6538   23.0374 C   0  0  0  0  0  0
  -26.4524  -31.6610   25.0720 C   0  0  0  0  0  0
  -25.3743  -31.3780   26.1435 C   0  0  0  0  0  0
  -27.0382  -30.3047   24.6197 C   0  0  0  0  0  0
  -27.6071  -32.4351   25.7502 C   0  0  0  0  0  0
  -27.5583  -37.1781   24.8472 C   0  0  0  0  0  0
  -21.4233  -29.3081   22.3633 N   0  0  0  0  0  0
  -26.4280  -37.3786   23.9443 N   0  0  0  0  0  0
  -24.7087  -31.0477   22.0975 N   0  0  0  0  0  0
  -23.4230  -28.8130   23.2942 O   0  0  0  0  0  0
  -28.2806  -26.2653   20.1733 O   0  0  0  0  0  0
  -26.5607  -34.8941   22.4640 O   0  0  0  0  0  0
  -23.5496  -32.1368   23.7221 O   0  0  0  0  0  0
  -29.2106  -18.3772   19.8015 C   0  0  0  0  0  0
  -30.8941  -17.9530   21.4612 C   0  0  0  0  0  0
  -29.3778  -19.8176   19.9404 C   0  0  0  0  0  0
  -30.3041  -20.3219   20.8822 C   0  0  0  0  0  0
  -29.9760  -17.3927   20.5380 C   0  0  0  0  0  0
  -31.0453  -19.3624   21.6341 C   0  0  0  0  0  0
  -28.6938  -20.8384   18.9858 C   0  0  0  0  0  0
  -30.6638  -21.8487   20.9573 C   0  0  0  0  0  0
  -28.0231  -22.1681   19.5427 C   0  0  0  0  0  0
  -28.8782  -23.4204   20.0247 C   0  0  1  0  0  0
  -30.1361  -23.9799   22.1127 C   0  0  0  0  0  0
  -27.9338  -24.7759   20.1709 C   0  0  0  0  0  0
  -29.7501  -15.9144   20.4358 N   0  0  0  0  0  0
  -29.5979  -22.8976   21.2485 N   0  3  2  0  0  0
  -31.9665  -19.7970   22.5269 F   0  0  0  0  0  0
  -31.4780  -12.6430   19.1485 H   0  0  0  0  0  0
  -30.4251  -11.5174   19.9661 H   0  0  0  0  0  0
  -29.8022  -11.7209   17.5299 H   0  0  0  0  0  0
  -29.6126  -13.4487   17.7037 H   0  0  0  0  0  0
  -27.9211  -11.2625   18.9529 H   0  0  0  0  0  0
  -27.3726  -12.4642   17.8147 H   0  0  0  0  0  0
  -27.6227  -14.2390   19.4411 H   0  0  0  0  0  0
  -28.7410  -12.2053   21.4371 H   0  0  0  0  0  0
  -28.4205  -13.8915   21.7692 H   0  0  0  0  0  0
  -25.2760   -9.5679   22.4775 H   0  0  0  0  0  0
  -23.9996   -7.4623   22.7477 H   0  0  0  0  0  0
  -21.0841   -8.8774   19.8949 H   0  0  0  0  0  0
  -22.3705  -10.9672   19.6168 H   0  0  0  0  0  0
  -21.1999   -7.6140   23.9720 H   0  0  0  0  0  0
  -21.1485   -6.0510   25.9086 H   0  0  0  0  0  0
  -22.0596   -2.7598   23.2831 H   0  0  0  0  0  0
  -22.4039  -11.9864   22.4783 H   0  0  0  0  0  0
  -21.1083  -13.1277   22.2649 H   0  0  0  0  0  0
  -24.6352  -15.8331   20.5173 H   0  0  0  0  0  0
  -26.2568  -15.6477   20.0884 H   0  0  0  0  0  0
  -26.7234  -32.5403   23.1058 H   0  0  0  0  0  0
  -25.0247  -33.9738   25.0483 H   0  0  0  0  0  0
  -22.7373  -31.3082   21.3953 H   0  0  0  0  0  0
  -23.3798  -35.9548   23.3289 H   0  0  0  0  0  0
  -24.3584  -36.8877   22.2053 H   0  0  0  0  0  0
  -23.7177  -37.6440   23.6659 H   0  0  0  0  0  0
  -26.1297  -31.5149   20.6122 H   0  0  0  0  0  0
  -26.8668  -30.8033   22.0159 H   0  0  0  0  0  0
  -28.1271  -28.8775   21.2045 H   0  0  0  0  0  0
  -25.8542  -25.9239   18.9785 H   0  0  0  0  0  0
  -23.9518  -27.3346   19.0035 H   0  0  0  0  0  0
  -23.8015  -30.6129   19.4125 H   0  0  0  0  0  0
  -22.7749  -29.2735   19.8361 H   0  0  0  0  0  0
  -25.1280  -36.1916   25.0838 H   0  0  0  0  0  0
  -21.0017  -28.3284   24.1367 H   0  0  0  0  0  0
  -20.5701  -26.2331   23.3595 H   0  0  0  0  0  0
  -21.6658  -26.7474   22.1167 H   0  0  0  0  0  0
  -19.6948  -25.6295   21.1253 H   0  0  0  0  0  0
  -19.6733  -27.3200   20.6748 H   0  0  0  0  0  0
  -17.4225  -26.6742   21.4012 H   0  0  0  0  0  0
  -18.0344  -26.0084   22.8993 H   0  0  0  0  0  0
  -19.7965  -30.7287   24.2282 H   0  0  0  0  0  0
  -17.5062  -31.6300   24.5174 H   0  0  0  0  0  0
  -15.5381  -30.3052   23.7670 H   0  0  0  0  0  0
  -15.8675  -28.0857   22.7107 H   0  0  0  0  0  0
  -24.5937  -30.7103   25.7766 H   0  0  0  0  0  0
  -24.8910  -32.2954   26.4807 H   0  0  0  0  0  0
  -25.8037  -30.9002   27.0247 H   0  0  0  0  0  0
  -26.2974  -29.6794   24.1200 H   0  0  0  0  0  0
  -27.4088  -29.7298   25.4691 H   0  0  0  0  0  0
  -27.8841  -30.4369   23.9444 H   0  0  0  0  0  0
  -27.2714  -33.3704   26.1998 H   0  0  0  0  0  0
  -28.3939  -32.6821   25.0357 H   0  0  0  0  0  0
  -28.0689  -31.8522   26.5476 H   0  0  0  0  0  0
  -28.2556  -38.0118   24.7571 H   0  0  0  0  0  0
  -28.1104  -36.2652   24.6213 H   0  0  0  0  0  0
  -27.2315  -37.1308   25.8872 H   0  0  0  0  0  0
  -20.9394  -29.8854   21.6903 H   0  0  0  0  0  0
  -26.0155  -38.2847   24.1504 H   0  0  0  0  0  0
  -28.4980  -18.0196   19.0710 H   0  0  0  0  0  0
  -31.5005  -17.2972   22.0678 H   0  0  0  0  0  0
  -27.9223  -20.2915   18.4432 H   0  0  0  0  0  0
  -29.4284  -21.1071   18.2258 H   0  0  0  0  0  0
  -31.1809  -22.1145   20.0335 H   0  0  0  0  0  0
  -31.4383  -21.9436   21.7193 H   0  0  0  0  0  0
  -27.3059  -21.8918   20.3177 H   0  0  0  0  0  0
  -27.4024  -22.5232   18.7178 H   0  0  0  0  0  0
  -29.6165  -23.6509   19.2538 H   0  0  0  0  0  0
  -30.5378  -23.5655   23.0386 H   0  0  0  0  0  0
  -29.3662  -24.6917   22.4117 H   0  0  0  0  0  0
  -30.9379  -24.5293   21.6168 H   0  0  0  0  0  0
  -27.2279  -24.6066   20.9860 H   0  0  0  0  0  0
  -27.3565  -24.6680   19.2601 H   0  0  0  0  0  0
  -28.7821  -15.6575   20.3266 H   0  0  0  0  0  0
  -28.9103  -22.4370   21.8273 H   0  0  0  0  0  0
  1 25  1  0  0  0
  1 30  2  0  0  0
  1 83  1  0  0  0
  2  3  1  0  0  0
  2 25  1  0  0  0
  2 86  1  0  0  0
  2 87  1  0  0  0
  3  4  1  0  0  0
  3 88  1  0  0  0
  3 89  1  0  0  0
  4  5  1  0  0  0
  4 90  1  0  0  0
  4 91  1  0  0  0
  5  6  1  0  0  0
  5 26  1  0  0  0
  5 92  1  0  0  0
  6 25  1  0  0  0
  6 93  1  0  0  0
  6 94  1  0  0  0
  7  8  2  0  0  0
  7 26  1  0  0  0
  7 29  1  0  0  0
  8  9  1  0  0  0
  8 22  1  0  0  0
  9 10  1  0  0  0
  9 27  2  0  0  0
 10 11  2  0  0  0
 10 15  1  0  0  0
 11 12  1  0  0  0
 11 95  1  0  0  0
 12 13  2  0  0  0
 12 96  1  0  0  0
 13 14  1  0  0  0
 13 31  1  0  0  0
 14 15  2  0  0  0
 14 97  1  0  0  0
 15 98  1  0  0  0
 16 17  2  0  0  0
 16 21  1  0  0  0
 16 31  1  0  0  0
 17 18  1  0  0  0
 17 99  1  0  0  0
 18 19  2  0  0  0
 18100  1  0  0  0
 19 20  1  0  0  0
 19 24  1  0  0  0
 20 21  2  0  0  0
 20101  1  0  0  0
 21 23  1  0  0  0
 22 28  1  0  0  0
 22 32  2  0  0  0
 26 27  1  0  0  0
 28102  1  0  0  0
 28103  1  0  0  0
 29104  1  0  0  0
 29105  1  0  0  0
 33 34  1  0  0  0
 33 66  1  0  0  0
 33 70  2  0  0  0
 34 36  1  0  0  0
 34 59  1  0  0  0
 34106  1  0  0  0
 35 44  2  0  0  0
 35 45  1  0  0  0
 35 68  1  0  0  0
 36 56  1  0  0  0
 36107  1  0  0  0
 37 39  1  0  0  0
 37 47  1  0  0  0
 37 66  1  0  0  0
 37108  1  0  0  0
 38 43  2  0  0  0
 38 46  1  0  0  0
 38 47  1  0  0  0
 39 64  1  0  0  0
 39 67  2  0  0  0
 40 52  1  0  0  0
 40 53  2  0  0  0
 40 58  1  0  0  0
 41109  1  0  0  0
 41110  1  0  0  0
 41111  1  0  0  0
 41 48  1  0  0  0
 42 43  1  0  0  0
 42 66  1  0  0  0
 42112  1  0  0  0
 42113  1  0  0  0
 43 44  1  0  0  0
 44114  1  0  0  0
 45 46  2  0  0  0
 45115  1  0  0  0
 46116  1  0  0  0
 47117  1  0  0  0
 47118  1  0  0  0
 48 56  1  0  0  0
 48 65  1  0  0  0
 48119  1  0  0  0
 49 50  1  0  0  0
 49 53  1  0  0  0
 49 64  1  0  0  0
 49120  1  0  0  0
 50 51  1  0  0  0
 50121  1  0  0  0
 50122  1  0  0  0
 51 52  1  0  0  0
 51123  1  0  0  0
 51124  1  0  0  0
 52125  1  0  0  0
 52126  1  0  0  0
 53 54  1  0  0  0
 54 55  2  0  0  0
 54127  1  0  0  0
 55 57  1  0  0  0
 55128  1  0  0  0
 56 69  2  0  0  0
 57 58  2  0  0  0
 57129  1  0  0  0
 58130  1  0  0  0
 59 60  1  0  0  0
 59 61  1  0  0  0
 59 62  1  0  0  0
 60131  1  0  0  0
 60132  1  0  0  0
 60133  1  0  0  0
 61134  1  0  0  0
 61135  1  0  0  0
 61136  1  0  0  0
 62137  1  0  0  0
 62138  1  0  0  0
 62139  1  0  0  0
 63 65  1  0  0  0
 63140  1  0  0  0
 63141  1  0  0  0
 63142  1  0  0  0
 64143  1  0  0  0
 65144  1  0  0  0
 68 82  1  0  0  0
 71 73  2  0  0  0
 71 75  1  0  0  0
 71145  1  0  0  0
 72 75  2  0  0  0
 72 76  1  0  0  0
 72146  1  0  0  0
 73 74  1  0  0  0
 73 77  1  0  0  0
 74 76  2  0  0  0
 74 78  1  0  0  0
 75 83  1  0  0  0
 76 85  1  0  0  0
 77 79  1  0  0  0
 77147  1  0  0  0
 77148  1  0  0  0
 78 84  1  0  0  0
 78149  1  0  0  0
 78150  1  0  0  0
 79 80  1  0  0  0
 79151  1  0  0  0
 79152  1  0  0  0
 80 82  1  0  0  0
 80 84  1  0  0  0
 80153  1  0  0  0
 81154  1  0  0  0
 81155  1  0  0  0
 81156  1  0  0  0
 81 84  1  0  0  0
 82157  1  0  0  0
 82158  1  0  0  0
 83159  1  0  0  0
 84160  1  0  0  0
M  CHG  1  84   1
M  ISO  4   1 100  68 101  82 101  83 100
M  END
> <chiral flag>
0

> <version>
0

> <s_m_source_file>
/data/baiqing/PycharmProjects/Reinvent-master-3.2/result/LINK_invent/BTK/process_docking_weight1_custom_product_contain_oxygen_bond_distance_aromatic_linkinvent_7_9_3/rearranged_h_0026.sdf

> <i_m_source_file_index>
1

> <r_mmod_Potential_Energy-OPLS-2005>
224.946304321289

> <r_mmod_Stretch_Energy-OPLS-2005>
147.191207885742

> <r_mmod_Bend_Energy-OPLS-2005>
215.331939697266

> <r_mmod_Torsional_Energy-OPLS-2005>
256.338409423828

> <r_mmod_Improper_Torsional_Energy-OPLS-2005>
8.95926284790039

> <r_mmod_Van_der_Waal_Energy-OPLS-2005>
147.230972290039

> <r_mmod_Electrostatic_Energy-OPLS-2005>
-240.557403564453

> <r_mmod_Solvation_Energy-OPLS-2005>
-426.791595458984

> <b_mmod_Minimization_Converged-OPLS-2005>
0

> <r_mmod_RMS_Derivative-OPLS-2005>
3.36180353164673

$$$$
1
                    3D
 Structure written by MMmdl.
158167  0  0  1  0            999 V2000
  -30.3562  -15.0477   20.5778 C   0  0  0  0  0  0
  -30.4245  -12.7013   19.5533 C   0  0  0  0  0  0
  -29.5239  -12.5915   18.2984 C   0  0  0  0  0  0
  -28.0762  -12.2874   18.7148 C   0  0  0  0  0  0
  -27.6128  -13.2306   19.8534 C   0  0  2  0  0  0
  -28.6071  -13.2496   21.0273 C   0  0  0  0  0  0
  -25.2396  -13.8171   20.5640 C   0  0  0  0  0  0
  -24.1702  -13.0402   20.9215 C   0  0  0  0  0  0
  -24.6300  -11.6857   20.8740 C   0  0  0  0  0  0
  -23.9003  -10.4235   21.0404 C   0  0  0  0  0  0
  -24.3573   -9.4167   21.9173 C   0  0  0  0  0  0
  -23.6267   -8.2186   22.0776 C   0  0  0  0  0  0
  -22.4257   -8.0206   21.3542 C   0  0  0  0  0  0
  -21.9872   -9.0150   20.4627 C   0  0  0  0  0  0
  -22.7205  -10.2048   20.3011 C   0  0  0  0  0  0
  -21.6847   -6.0682   22.5276 C   0  0  0  0  0  0
  -21.4008   -6.5603   23.8196 C   0  0  0  0  0  0
  -21.3670   -5.6768   24.9169 C   0  0  0  0  0  0
  -21.6079   -4.3033   24.7244 C   0  0  0  0  0  0
  -21.8832   -3.8099   23.4379 C   0  0  0  0  0  0
  -21.9183   -4.6901   22.3419 C   0  0  0  0  0  0
  -22.7774  -13.5158   21.1926 C   0  0  0  0  0  0
  -22.1650   -4.2077   21.0996 F   0  0  0  0  0  0
  -21.5651   -3.4520   25.7765 F   0  0  0  0  0  0
  -29.8488  -13.7517   20.4706 N   0  0  0  0  0  0
  -26.2760  -12.9292   20.3212 N   0  0  0  0  0  0
  -25.9199  -11.6443   20.5731 N   0  0  0  0  0  0
  -22.0421  -12.8029   22.0444 N   0  0  0  0  0  0
  -25.4066  -15.1880   20.4052 N   0  0  0  0  0  0
  -31.5463  -15.0941   20.2502 O   0  0  0  0  0  0
  -21.6634   -6.8791   21.4227 O   0  0  0  0  0  0
  -22.3450  -14.5430   20.6824 O   0  0  0  0  0  0
  -24.6635  -31.8422   23.1895 C   0  0  0  0  0  0
  -25.9380  -32.4677   23.8289 C   0  0  1  0  0  0
  -27.1352  -27.0339   20.2705 C   0  0  0  0  0  0
  -25.6068  -33.8481   24.2176 N   0  0  0  0  0  0
  -23.4842  -30.4678   21.5443 C   0  0  2  0  0  0
  -24.9052  -28.8795   20.1039 C   0  0  0  0  0  0
  -22.7911  -29.4698   22.5006 C   0  0  0  0  0  0
  -17.9995  -28.1175   22.8715 C   0  0  0  0  0  0
  -24.1538  -36.7243   23.2638 C   0  0  0  0  0  0
  -26.0297  -30.6870   21.4051 C   0  0  0  0  0  0
  -26.0784  -29.2924   20.7523 C   0  0  0  0  0  0
  -27.1955  -28.3799   20.8197 C   0  0  0  0  0  0
  -25.9748  -26.7503   19.5260 C   0  0  0  0  0  0
  -24.8753  -27.6353   19.4548 C   0  0  0  0  0  0
  -23.6925  -29.7972   20.1554 C   0  0  0  0  0  0
  -25.4146  -36.2986   24.0293 C   0  0  1  0  0  0
  -20.4832  -28.4654   22.7747 C   0  0  2  0  0  0
  -20.6962  -26.9631   22.5264 C   0  0  0  0  0  0
  -19.5595  -26.4591   21.6110 C   0  0  0  0  0  0
  -18.1588  -26.7503   22.2016 C   0  0  0  0  0  0
  -19.1173  -28.9037   23.2508 C   0  0  0  0  0  0
  -18.9340  -30.1541   23.8726 C   0  0  0  0  0  0
  -17.6324  -30.6483   24.0772 C   0  0  0  0  0  0
  -25.9109  -34.9385   23.5017 C   0  0  0  0  0  0
  -16.5161  -29.8912   23.6730 C   0  0  0  0  0  0
  -16.7035  -28.6259   23.0869 C   0  0  0  0  0  0
  -26.4617  -31.6546   25.0757 C   0  0  0  0  0  0
  -25.3749  -31.3756   26.1385 C   0  0  0  0  0  0
  -27.0487  -30.2912   24.6430 C   0  0  0  0  0  0
  -27.6095  -32.4304   25.7582 C   0  0  0  0  0  0
  -27.5575  -37.1793   24.8472 C   0  0  0  0  0  0
  -21.4677  -29.4507   22.3923 N   0  0  0  0  0  0
  -26.4304  -37.3692   23.9385 N   0  0  0  0  0  0
  -24.7466  -31.0278   22.0987 N   0  0  0  0  0  0
  -23.4256  -28.7458   23.2679 O   0  0  0  0  0  0
  -28.1003  -25.9834   20.5060 O   0  0  0  0  0  0
  -26.5677  -34.8882   22.4608 O   0  0  0  0  0  0
  -23.5731  -32.1347   23.7047 O   0  0  0  0  0  0
  -31.9013  -18.4911   22.1588 C   0  0  0  0  0  0
  -31.2620  -17.8876   21.0745 C   0  0  0  0  0  0
  -31.1831  -19.2951   23.0536 C   0  0  0  0  0  0
  -29.2015  -19.0600   21.6011 C   0  0  0  0  0  0
  -29.8653  -17.7866   21.0192 C   0  0  0  0  0  0
  -29.8583  -19.6177   22.7462 C   0  0  0  0  0  0
  -28.6809  -21.6299   21.0127 C   0  0  0  0  0  0
  -26.0251  -21.0538   21.6922 C   0  0  0  0  0  0
  -26.2222  -22.4354   20.9998 C   0  0  0  0  0  0
  -26.8584  -19.9471   21.0040 C   0  0  0  0  0  0
  -27.6849  -22.9775   21.0826 C   0  0  2  0  0  0
  -27.9513  -24.4315   20.1921 C   0  0  0  0  0  0
  -28.3083  -20.2214   21.0591 N   0  0  0  0  0  0
  -29.5314  -16.2424   20.8973 N   0  0  0  0  0  0
  -29.8792  -21.9150   21.0248 O   0  0  0  0  0  0
  -29.2725  -20.6271   23.4571 F   0  0  0  0  0  0
  -31.4362  -12.9517   19.2382 H   0  0  0  0  0  0
  -30.5019  -11.7431   20.0724 H   0  0  0  0  0  0
  -29.9134  -11.8316   17.6212 H   0  0  0  0  0  0
  -29.5457  -13.5440   17.7575 H   0  0  0  0  0  0
  -28.0324  -11.2506   19.0637 H   0  0  0  0  0  0
  -27.4080  -12.3507   17.8565 H   0  0  0  0  0  0
  -27.5798  -14.2333   19.4208 H   0  0  0  0  0  0
  -28.7539  -12.2536   21.4454 H   0  0  0  0  0  0
  -28.2566  -13.8827   21.8410 H   0  0  0  0  0  0
  -25.2707   -9.5647   22.4791 H   0  0  0  0  0  0
  -23.9988   -7.4561   22.7504 H   0  0  0  0  0  0
  -21.0821   -8.8608   19.8899 H   0  0  0  0  0  0
  -22.3637  -10.9549   19.6097 H   0  0  0  0  0  0
  -21.1984   -7.6079   23.9669 H   0  0  0  0  0  0
  -21.1528   -6.0512   25.9083 H   0  0  0  0  0  0
  -22.0624   -2.7554   23.2909 H   0  0  0  0  0  0
  -22.4050  -11.9658   22.4682 H   0  0  0  0  0  0
  -21.1068  -13.1065   22.2688 H   0  0  0  0  0  0
  -24.6399  -15.8402   20.5312 H   0  0  0  0  0  0
  -26.2378  -15.6237   20.0295 H   0  0  0  0  0  0
  -26.7459  -32.5222   23.0999 H   0  0  0  0  0  0
  -25.0231  -33.9574   25.0318 H   0  0  0  0  0  0
  -22.8041  -31.3005   21.3763 H   0  0  0  0  0  0
  -23.3776  -35.9613   23.3307 H   0  0  0  0  0  0
  -24.3632  -36.8880   22.2061 H   0  0  0  0  0  0
  -23.7343  -37.6452   23.6697 H   0  0  0  0  0  0
  -26.2195  -31.4303   20.6290 H   0  0  0  0  0  0
  -26.8969  -30.7239   22.0553 H   0  0  0  0  0  0
  -28.0669  -28.6622   21.3880 H   0  0  0  0  0  0
  -25.8493  -25.7847   19.0651 H   0  0  0  0  0  0
  -23.9910  -27.3258   18.9156 H   0  0  0  0  0  0
  -23.8372  -30.5658   19.3942 H   0  0  0  0  0  0
  -22.8039  -29.2403   19.8457 H   0  0  0  0  0  0
  -25.1364  -36.1795   25.0784 H   0  0  0  0  0  0
  -20.1542  -28.6884   21.7537 H   0  0  0  0  0  0
  -21.6632  -26.7635   22.0583 H   0  0  0  0  0  0
  -20.6853  -26.4215   23.4729 H   0  0  0  0  0  0
  -19.6609  -25.3890   21.4285 H   0  0  0  0  0  0
  -19.6397  -26.9283   20.6250 H   0  0  0  0  0  0
  -17.4098  -26.6377   21.4191 H   0  0  0  0  0  0
  -17.9315  -25.9988   22.9575 H   0  0  0  0  0  0
  -19.7926  -30.7623   24.1345 H   0  0  0  0  0  0
  -17.4924  -31.6166   24.5303 H   0  0  0  0  0  0
  -15.5193  -30.2802   23.8185 H   0  0  0  0  0  0
  -15.8391  -28.0506   22.7936 H   0  0  0  0  0  0
  -24.5931  -30.7119   25.7699 H   0  0  0  0  0  0
  -24.8941  -32.2949   26.4745 H   0  0  0  0  0  0
  -25.7976  -30.8956   27.0220 H   0  0  0  0  0  0
  -26.3152  -29.6567   24.1443 H   0  0  0  0  0  0
  -27.4065  -29.7264   25.5071 H   0  0  0  0  0  0
  -27.9088  -30.4092   23.9820 H   0  0  0  0  0  0
  -27.2673  -33.3620   26.2080 H   0  0  0  0  0  0
  -28.3984  -32.6812   25.0492 H   0  0  0  0  0  0
  -28.0686  -31.8473   26.5572 H   0  0  0  0  0  0
  -28.2587  -38.0079   24.7429 H   0  0  0  0  0  0
  -28.1064  -36.2601   24.6417 H   0  0  0  0  0  0
  -27.2281  -37.1562   25.8867 H   0  0  0  0  0  0
  -21.0881  -30.1776   21.8029 H   0  0  0  0  0  0
  -26.0167  -38.2776   24.1307 H   0  0  0  0  0  0
  -32.9469  -18.2877   22.3210 H   0  0  0  0  0  0
  -31.8781  -17.2774   20.4410 H   0  0  0  0  0  0
  -31.7007  -19.7643   23.8851 H   0  0  0  0  0  0
  -24.9712  -20.7603   21.6728 H   0  0  0  0  0  0
  -26.3142  -21.1044   22.7441 H   0  0  0  0  0  0
  -25.5080  -23.1499   21.4208 H   0  0  0  0  0  0
  -25.9465  -22.3316   19.9492 H   0  0  0  0  0  0
  -26.5307  -19.8472   19.9698 H   0  0  0  0  0  0
  -26.6287  -18.9924   21.4807 H   0  0  0  0  0  0
  -27.8102  -23.2943   22.1254 H   0  0  0  0  0  0
  -27.3486  -24.3357   19.2967 H   0  0  0  0  0  0
  -28.9539  -24.2444   19.8183 H   0  0  0  0  0  0
  -28.5929  -16.0023   21.1953 H   0  0  0  0  0  0
  1 25  1  0  0  0
  1 30  2  0  0  0
  1 84  1  0  0  0
  2  3  1  0  0  0
  2 25  1  0  0  0
  2 87  1  0  0  0
  2 88  1  0  0  0
  3  4  1  0  0  0
  3 89  1  0  0  0
  3 90  1  0  0  0
  4  5  1  0  0  0
  4 91  1  0  0  0
  4 92  1  0  0  0
  5  6  1  0  0  0
  5 26  1  0  0  0
  5 93  1  0  0  0
  6 25  1  0  0  0
  6 94  1  0  0  0
  6 95  1  0  0  0
  7  8  2  0  0  0
  7 26  1  0  0  0
  7 29  1  0  0  0
  8  9  1  0  0  0
  8 22  1  0  0  0
  9 10  1  0  0  0
  9 27  2  0  0  0
 10 11  2  0  0  0
 10 15  1  0  0  0
 11 12  1  0  0  0
 11 96  1  0  0  0
 12 13  2  0  0  0
 12 97  1  0  0  0
 13 14  1  0  0  0
 13 31  1  0  0  0
 14 15  2  0  0  0
 14 98  1  0  0  0
 15 99  1  0  0  0
 16 17  2  0  0  0
 16 21  1  0  0  0
 16 31  1  0  0  0
 17 18  1  0  0  0
 17100  1  0  0  0
 18 19  2  0  0  0
 18101  1  0  0  0
 19 20  1  0  0  0
 19 24  1  0  0  0
 20 21  2  0  0  0
 20102  1  0  0  0
 21 23  1  0  0  0
 22 28  1  0  0  0
 22 32  2  0  0  0
 26 27  1  0  0  0
 28103  1  0  0  0
 28104  1  0  0  0
 29105  1  0  0  0
 29106  1  0  0  0
 33 34  1  0  0  0
 33 66  1  0  0  0
 33 70  2  0  0  0
 34 36  1  0  0  0
 34 59  1  0  0  0
 34107  1  0  0  0
 35 44  2  0  0  0
 35 45  1  0  0  0
 35 68  1  0  0  0
 36 56  1  0  0  0
 36108  1  0  0  0
 37 39  1  0  0  0
 37 47  1  0  0  0
 37 66  1  0  0  0
 37109  1  0  0  0
 38 43  2  0  0  0
 38 46  1  0  0  0
 38 47  1  0  0  0
 39 64  1  0  0  0
 39 67  2  0  0  0
 40 52  1  0  0  0
 40 53  2  0  0  0
 40 58  1  0  0  0
 41110  1  0  0  0
 41111  1  0  0  0
 41112  1  0  0  0
 41 48  1  0  0  0
 42 43  1  0  0  0
 42 66  1  0  0  0
 42113  1  0  0  0
 42114  1  0  0  0
 43 44  1  0  0  0
 44115  1  0  0  0
 45 46  2  0  0  0
 45116  1  0  0  0
 46117  1  0  0  0
 47118  1  0  0  0
 47119  1  0  0  0
 48 56  1  0  0  0
 48 65  1  0  0  0
 48120  1  0  0  0
 49 50  1  0  0  0
 49 53  1  0  0  0
 49 64  1  0  0  0
 49121  1  0  0  0
 50 51  1  0  0  0
 50122  1  0  0  0
 50123  1  0  0  0
 51 52  1  0  0  0
 51124  1  0  0  0
 51125  1  0  0  0
 52126  1  0  0  0
 52127  1  0  0  0
 53 54  1  0  0  0
 54 55  2  0  0  0
 54128  1  0  0  0
 55 57  1  0  0  0
 55129  1  0  0  0
 56 69  2  0  0  0
 57 58  2  0  0  0
 57130  1  0  0  0
 58131  1  0  0  0
 59 60  1  0  0  0
 59 61  1  0  0  0
 59 62  1  0  0  0
 60132  1  0  0  0
 60133  1  0  0  0
 60134  1  0  0  0
 61135  1  0  0  0
 61136  1  0  0  0
 61137  1  0  0  0
 62138  1  0  0  0
 62139  1  0  0  0
 62140  1  0  0  0
 63 65  1  0  0  0
 63141  1  0  0  0
 63142  1  0  0  0
 63143  1  0  0  0
 64144  1  0  0  0
 65145  1  0  0  0
 68 82  1  0  0  0
 71 72  2  0  0  0
 71 73  1  0  0  0
 71146  1  0  0  0
 72 75  1  0  0  0
 72147  1  0  0  0
 73 76  2  0  0  0
 73148  1  0  0  0
 74 75  2  0  0  0
 74 76  1  0  0  0
 74 83  1  0  0  0
 75 84  1  0  0  0
 76 86  1  0  0  0
 77 81  1  0  0  0
 77 83  1  0  0  0
 77 85  2  0  0  0
 78 79  1  0  0  0
 78 80  1  0  0  0
 78149  1  0  0  0
 78150  1  0  0  0
 79 81  1  0  0  0
 79151  1  0  0  0
 79152  1  0  0  0
 80 83  1  0  0  0
 80153  1  0  0  0
 80154  1  0  0  0
 81 82  1  0  0  0
 81155  1  0  0  0
 82156  1  0  0  0
 82157  1  0  0  0
 84158  1  0  0  0
M  ISO  4   1 100  68 101  82 101  84 100
M  END
> <chiral flag>
0

> <version>
0

> <s_m_source_file>
/data/baiqing/PycharmProjects/Reinvent-master-3.2/result/LINK_invent/BTK/process_docking_weight1_custom_product_contain_oxygen_bond_distance_aromatic_linkinvent_7_9_3/rearranged_h_0026.sdf

> <i_m_source_file_index>
2

> <r_mmod_Potential_Energy-OPLS-2005>
1325.63977050781

> <r_mmod_Stretch_Energy-OPLS-2005>
395.101745605469

> <r_mmod_Bend_Energy-OPLS-2005>
479.314910888672

> <r_mmod_Torsional_Energy-OPLS-2005>
469.073394775391

> <r_mmod_Improper_Torsional_Energy-OPLS-2005>
22.796947479248

> <r_mmod_Van_der_Waal_Energy-OPLS-2005>
187.743255615234

> <r_mmod_Electrostatic_Energy-OPLS-2005>
-348.277984619141

> <r_mmod_Solvation_Energy-OPLS-2005>
-224.388168334961

> <b_mmod_Minimization_Converged-OPLS-2005>
0

> <r_mmod_RMS_Derivative-OPLS-2005>
15.5778894424438

$$$$
2
                    3D
 Structure written by MMmdl.
156165  0  0  1  0            999 V2000
  -30.4638  -15.2348   20.3449 C   0  0  0  0  0  0
  -30.4303  -12.7803   19.5435 C   0  0  0  0  0  0
  -29.5366  -12.5692   18.2959 C   0  0  0  0  0  0
  -28.0827  -12.3031   18.7190 C   0  0  0  0  0  0
  -27.6118  -13.2796   19.8261 C   0  0  2  0  0  0
  -28.6408  -13.4530   20.9657 C   0  0  0  0  0  0
  -25.2376  -13.8266   20.5761 C   0  0  0  0  0  0
  -24.1733  -13.0446   20.9273 C   0  0  0  0  0  0
  -24.6391  -11.6946   20.8769 C   0  0  0  0  0  0
  -23.9093  -10.4294   21.0403 C   0  0  0  0  0  0
  -24.3641   -9.4204   21.9177 C   0  0  0  0  0  0
  -23.6310   -8.2241   22.0750 C   0  0  0  0  0  0
  -22.4288   -8.0286   21.3548 C   0  0  0  0  0  0
  -21.9927   -9.0261   20.4648 C   0  0  0  0  0  0
  -22.7267  -10.2133   20.3053 C   0  0  0  0  0  0
  -21.6852   -6.0742   22.5277 C   0  0  0  0  0  0
  -21.4023   -6.5647   23.8214 C   0  0  0  0  0  0
  -21.3663   -5.6796   24.9175 C   0  0  0  0  0  0
  -21.6040   -4.3059   24.7222 C   0  0  0  0  0  0
  -21.8816   -3.8154   23.4341 C   0  0  0  0  0  0
  -21.9187   -4.6969   22.3399 C   0  0  0  0  0  0
  -22.7744  -13.5193   21.1907 C   0  0  0  0  0  0
  -22.1654   -4.2156   21.0975 F   0  0  0  0  0  0
  -21.5623   -3.4544   25.7736 F   0  0  0  0  0  0
  -29.8832  -13.9371   20.3464 N   0  0  0  0  0  0
  -26.2808  -12.9552   20.3230 N   0  0  0  0  0  0
  -25.9333  -11.6651   20.5738 N   0  0  0  0  0  0
  -22.0396  -12.8185   22.0465 N   0  0  0  0  0  0
  -25.4007  -15.2004   20.4214 N   0  0  0  0  0  0
  -31.6794  -15.2044   20.1018 O   0  0  0  0  0  0
  -21.6648   -6.8888   21.4243 O   0  0  0  0  0  0
  -22.3419  -14.5491   20.6743 O   0  0  0  0  0  0
  -24.6601  -31.8253   23.1695 C   0  0  0  0  0  0
  -25.9292  -32.4595   23.8167 C   0  0  1  0  0  0
  -27.2199  -26.9488   20.1840 C   0  0  0  0  0  0
  -25.5965  -33.8407   24.2075 N   0  0  0  0  0  0
  -23.4737  -30.4347   21.5177 C   0  0  2  0  0  0
  -24.9263  -28.8208   20.1056 C   0  0  0  0  0  0
  -22.7657  -29.4441   22.4780 C   0  0  0  0  0  0
  -18.0322  -28.1408   22.8469 C   0  0  0  0  0  0
  -24.1491  -36.7219   23.2648 C   0  0  0  0  0  0
  -26.0382  -30.6371   21.3951 C   0  0  0  0  0  0
  -26.1050  -29.2281   20.7410 C   0  0  0  0  0  0
  -27.2430  -28.3105   20.7573 C   0  0  0  0  0  0
  -26.0166  -26.6819   19.4968 C   0  0  0  0  0  0
  -24.9062  -27.5687   19.4641 C   0  0  0  0  0  0
  -23.7113  -29.7478   20.1427 C   0  0  0  0  0  0
  -25.4128  -36.2974   24.0303 C   0  0  1  0  0  0
  -20.5948  -28.3746   23.1196 C   0  0  2  0  0  0
  -20.6796  -26.9430   22.5409 C   0  0  0  0  0  0
  -19.5769  -26.6372   21.5220 C   0  0  0  0  0  0
  -18.1949  -26.7939   22.1624 C   0  0  0  0  0  0
  -19.1583  -28.8897   23.2820 C   0  0  0  0  0  0
  -18.9495  -30.1487   23.8855 C   0  0  0  0  0  0
  -17.6489  -30.6597   24.0559 C   0  0  0  0  0  0
  -25.9092  -34.9359   23.5011 C   0  0  0  0  0  0
  -16.5378  -29.9087   23.6343 C   0  0  0  0  0  0
  -16.7305  -28.6508   23.0356 C   0  0  0  0  0  0
  -26.4545  -31.6534   25.0694 C   0  0  0  0  0  0
  -25.3675  -31.3788   26.1356 C   0  0  0  0  0  0
  -27.0438  -30.2909   24.6406 C   0  0  0  0  0  0
  -27.6036  -32.4345   25.7494 C   0  0  0  0  0  0
  -27.5571  -37.1764   24.8463 C   0  0  0  0  0  0
  -21.4328  -29.3038   22.3545 N   0  0  0  0  0  0
  -26.4276  -37.3708   23.9411 N   0  0  0  0  0  0
  -24.7453  -30.9931   22.0816 N   0  0  0  0  0  0
  -23.4213  -28.8023   23.3028 O   0  0  0  0  0  0
  -28.2493  -25.8883   20.3185 O   0  0  0  0  0  0
  -26.5709  -34.8893   22.4615 O   0  0  0  0  0  0
  -23.5679  -32.1212   23.6804 O   0  0  0  0  0  0
  -29.1916  -19.8520   18.0355 C   0  0  0  0  0  0
  -29.5433  -19.1750   16.8697 C   0  0  0  0  0  0
  -30.1061  -17.2715   18.2030 C   0  0  0  0  0  0
  -29.3111  -19.3827   19.3834 C   0  0  0  0  0  0
  -29.7213  -17.8328   19.4628 C   0  0  0  0  0  0
  -30.0445  -17.8931   16.9584 C   0  0  0  0  0  0
  -29.6582  -23.4544   20.3345 C   0  0  0  0  0  0
  -27.4447  -23.0294   20.5467 C   0  0  0  0  0  0
  -29.9627  -21.8678   19.9208 C   0  0  0  0  0  0
  -27.6972  -21.4358   20.0665 C   0  0  0  0  0  0
  -28.3091  -24.2792   19.9627 C   0  0  0  0  0  0
  -29.0329  -20.6684   20.2118 N   0  0  0  0  0  0
  -29.7557  -16.5436   20.4208 N   0  0  0  0  0  0
  -30.5337  -17.0507   15.5333 Cl  0  0  0  0  0  0
  -31.4584  -12.9537   19.2214 H   0  0  0  0  0  0
  -30.4711  -11.8746   20.1507 H   0  0  0  0  0  0
  -29.9117  -11.7390   17.6965 H   0  0  0  0  0  0
  -29.5805  -13.4542   17.6595 H   0  0  0  0  0  0
  -28.0347  -11.2804   19.0942 H   0  0  0  0  0  0
  -27.4158  -12.3435   17.8570 H   0  0  0  0  0  0
  -27.5312  -14.2472   19.3287 H   0  0  0  0  0  0
  -28.7940  -12.5226   21.5144 H   0  0  0  0  0  0
  -28.2843  -14.1879   21.6889 H   0  0  0  0  0  0
  -25.2771   -9.5690   22.4763 H   0  0  0  0  0  0
  -24.0015   -7.4634   22.7475 H   0  0  0  0  0  0
  -21.0847   -8.8791   19.8959 H   0  0  0  0  0  0
  -22.3713  -10.9682   19.6174 H   0  0  0  0  0  0
  -21.2027   -7.6156   23.9730 H   0  0  0  0  0  0
  -21.1490   -6.0521   25.9080 H   0  0  0  0  0  0
  -22.0589   -2.7617   23.2839 H   0  0  0  0  0  0
  -22.4036  -11.9879   22.4894 H   0  0  0  0  0  0
  -21.1000  -13.1192   22.2651 H   0  0  0  0  0  0
  -24.6343  -15.8515   20.5519 H   0  0  0  0  0  0
  -26.2435  -15.6448   20.0817 H   0  0  0  0  0  0
  -26.7364  -32.5135   23.0885 H   0  0  0  0  0  0
  -25.0048  -33.9480   25.0181 H   0  0  0  0  0  0
  -22.7858  -31.2659   21.3479 H   0  0  0  0  0  0
  -23.3762  -35.9540   23.3277 H   0  0  0  0  0  0
  -24.3571  -36.8901   22.2071 H   0  0  0  0  0  0
  -23.7241  -37.6396   23.6726 H   0  0  0  0  0  0
  -26.2150  -31.3779   20.6141 H   0  0  0  0  0  0
  -26.9005  -30.6952   22.0475 H   0  0  0  0  0  0
  -28.1332  -28.6154   21.2897 H   0  0  0  0  0  0
  -25.9038  -25.7187   19.0194 H   0  0  0  0  0  0
  -24.0078  -27.2507   18.9528 H   0  0  0  0  0  0
  -23.8666  -30.5171   19.3854 H   0  0  0  0  0  0
  -22.8201  -29.2040   19.8255 H   0  0  0  0  0  0
  -25.1327  -36.1775   25.0794 H   0  0  0  0  0  0
  -21.0034  -28.3355   24.1320 H   0  0  0  0  0  0
  -20.5678  -26.2367   23.3646 H   0  0  0  0  0  0
  -21.6659  -26.7404   22.1220 H   0  0  0  0  0  0
  -19.6927  -25.6271   21.1279 H   0  0  0  0  0  0
  -19.6711  -27.3159   20.6730 H   0  0  0  0  0  0
  -17.4224  -26.6691   21.4023 H   0  0  0  0  0  0
  -18.0340  -26.0092   22.9031 H   0  0  0  0  0  0
  -19.7969  -30.7319   24.2200 H   0  0  0  0  0  0
  -17.5038  -31.6265   24.5179 H   0  0  0  0  0  0
  -15.5375  -30.2972   23.7683 H   0  0  0  0  0  0
  -15.8705  -28.0810   22.7085 H   0  0  0  0  0  0
  -24.5851  -30.7142   25.7670 H   0  0  0  0  0  0
  -24.8866  -32.2992   26.4680 H   0  0  0  0  0  0
  -25.7909  -30.9019   27.0203 H   0  0  0  0  0  0
  -26.3092  -29.6582   24.1410 H   0  0  0  0  0  0
  -27.3982  -29.7279   25.5050 H   0  0  0  0  0  0
  -27.9029  -30.4106   23.9801 H   0  0  0  0  0  0
  -27.2594  -33.3675   26.1969 H   0  0  0  0  0  0
  -28.3896  -32.6860   25.0362 H   0  0  0  0  0  0
  -28.0647  -31.8545   26.5496 H   0  0  0  0  0  0
  -28.2568  -38.0078   24.7511 H   0  0  0  0  0  0
  -28.1085  -36.2607   24.6281 H   0  0  0  0  0  0
  -27.2292  -37.1402   25.8865 H   0  0  0  0  0  0
  -20.9576  -29.8727   21.6676 H   0  0  0  0  0  0
  -26.0129  -38.2771   24.1410 H   0  0  0  0  0  0
  -28.8523  -20.8487   17.8052 H   0  0  0  0  0  0
  -29.4492  -19.6590   15.9085 H   0  0  0  0  0  0
  -30.4382  -16.2537   18.0979 H   0  0  0  0  0  0
  -30.4885  -24.0352   19.9320 H   0  0  0  0  0  0
  -29.7956  -23.5291   21.4149 H   0  0  0  0  0  0
  -27.5056  -23.0531   21.6364 H   0  0  0  0  0  0
  -26.3976  -23.2550   20.3412 H   0  0  0  0  0  0
  -30.9039  -21.6103   20.4082 H   0  0  0  0  0  0
  -30.2393  -21.9044   18.8689 H   0  0  0  0  0  0
  -27.3335  -21.3686   19.0431 H   0  0  0  0  0  0
  -26.9743  -20.8396   20.6251 H   0  0  0  0  0  0
  -28.1980  -24.2482   18.8784 H   0  0  0  0  0  0
  -28.9309  -16.4878   21.0012 H   0  0  0  0  0  0
  1 25  1  0  0  0
  1 30  2  0  0  0
  1 83  1  0  0  0
  2  3  1  0  0  0
  2 25  1  0  0  0
  2 85  1  0  0  0
  2 86  1  0  0  0
  3  4  1  0  0  0
  3 87  1  0  0  0
  3 88  1  0  0  0
  4  5  1  0  0  0
  4 89  1  0  0  0
  4 90  1  0  0  0
  5  6  1  0  0  0
  5 26  1  0  0  0
  5 91  1  0  0  0
  6 25  1  0  0  0
  6 92  1  0  0  0
  6 93  1  0  0  0
  7  8  2  0  0  0
  7 26  1  0  0  0
  7 29  1  0  0  0
  8  9  1  0  0  0
  8 22  1  0  0  0
  9 10  1  0  0  0
  9 27  2  0  0  0
 10 11  2  0  0  0
 10 15  1  0  0  0
 11 12  1  0  0  0
 11 94  1  0  0  0
 12 13  2  0  0  0
 12 95  1  0  0  0
 13 14  1  0  0  0
 13 31  1  0  0  0
 14 15  2  0  0  0
 14 96  1  0  0  0
 15 97  1  0  0  0
 16 17  2  0  0  0
 16 21  1  0  0  0
 16 31  1  0  0  0
 17 18  1  0  0  0
 17 98  1  0  0  0
 18 19  2  0  0  0
 18 99  1  0  0  0
 19 20  1  0  0  0
 19 24  1  0  0  0
 20 21  2  0  0  0
 20100  1  0  0  0
 21 23  1  0  0  0
 22 28  1  0  0  0
 22 32  2  0  0  0
 26 27  1  0  0  0
 28101  1  0  0  0
 28102  1  0  0  0
 29103  1  0  0  0
 29104  1  0  0  0
 33 34  1  0  0  0
 33 66  1  0  0  0
 33 70  2  0  0  0
 34 36  1  0  0  0
 34 59  1  0  0  0
 34105  1  0  0  0
 35 44  2  0  0  0
 35 45  1  0  0  0
 35 68  1  0  0  0
 36 56  1  0  0  0
 36106  1  0  0  0
 37 39  1  0  0  0
 37 47  1  0  0  0
 37 66  1  0  0  0
 37107  1  0  0  0
 38 43  2  0  0  0
 38 46  1  0  0  0
 38 47  1  0  0  0
 39 64  1  0  0  0
 39 67  2  0  0  0
 40 52  1  0  0  0
 40 53  2  0  0  0
 40 58  1  0  0  0
 41108  1  0  0  0
 41109  1  0  0  0
 41110  1  0  0  0
 41 48  1  0  0  0
 42 43  1  0  0  0
 42 66  1  0  0  0
 42111  1  0  0  0
 42112  1  0  0  0
 43 44  1  0  0  0
 44113  1  0  0  0
 45 46  2  0  0  0
 45114  1  0  0  0
 46115  1  0  0  0
 47116  1  0  0  0
 47117  1  0  0  0
 48 56  1  0  0  0
 48 65  1  0  0  0
 48118  1  0  0  0
 49 50  1  0  0  0
 49 53  1  0  0  0
 49 64  1  0  0  0
 49119  1  0  0  0
 50 51  1  0  0  0
 50120  1  0  0  0
 50121  1  0  0  0
 51 52  1  0  0  0
 51122  1  0  0  0
 51123  1  0  0  0
 52124  1  0  0  0
 52125  1  0  0  0
 53 54  1  0  0  0
 54 55  2  0  0  0
 54126  1  0  0  0
 55 57  1  0  0  0
 55127  1  0  0  0
 56 69  2  0  0  0
 57 58  2  0  0  0
 57128  1  0  0  0
 58129  1  0  0  0
 59 60  1  0  0  0
 59 61  1  0  0  0
 59 62  1  0  0  0
 60130  1  0  0  0
 60131  1  0  0  0
 60132  1  0  0  0
 61133  1  0  0  0
 61134  1  0  0  0
 61135  1  0  0  0
 62136  1  0  0  0
 62137  1  0  0  0
 62138  1  0  0  0
 63 65  1  0  0  0
 63139  1  0  0  0
 63140  1  0  0  0
 63141  1  0  0  0
 64142  1  0  0  0
 65143  1  0  0  0
 68 81  1  0  0  0
 71 72  2  0  0  0
 71 74  1  0  0  0
 71144  1  0  0  0
 72 76  1  0  0  0
 72145  1  0  0  0
 73 75  1  0  0  0
 73 76  2  0  0  0
 73146  1  0  0  0
 74 75  2  0  0  0
 74 82  1  0  0  0
 75 83  1  0  0  0
 76 84  1  0  0  0
 77 79  1  0  0  0
 77 81  1  0  0  0
 77147  1  0  0  0
 77148  1  0  0  0
 78 80  1  0  0  0
 78 81  1  0  0  0
 78149  1  0  0  0
 78150  1  0  0  0
 79 82  1  0  0  0
 79151  1  0  0  0
 79152  1  0  0  0
 80 82  1  0  0  0
 80153  1  0  0  0
 80154  1  0  0  0
 81155  1  0  0  0
 83156  1  0  0  0
M  ISO  4   1 100  68 101  81 101  83 100
M  END
> <chiral flag>
0

> <version>
0

> <s_m_source_file>
/data/baiqing/PycharmProjects/Reinvent-master-3.2/result/LINK_invent/BTK/process_docking_weight1_custom_product_contain_oxygen_bond_distance_aromatic_linkinvent_7_9_3/rearranged_h_0026.sdf

> <i_m_source_file_index>
3

> <r_mmod_Potential_Energy-OPLS-2005>
1365.63098144531

> <r_mmod_Stretch_Energy-OPLS-2005>
531.399475097656

> <r_mmod_Bend_Energy-OPLS-2005>
591.638122558594

> <r_mmod_Torsional_Energy-OPLS-2005>
301.595520019531

> <r_mmod_Improper_Torsional_Energy-OPLS-2005>
12.6806354522705

> <r_mmod_Van_der_Waal_Energy-OPLS-2005>
161.309188842773

> <r_mmod_Electrostatic_Energy-OPLS-2005>
-415.288970947266

> <r_mmod_Solvation_Energy-OPLS-2005>
-241.446563720703

> <b_mmod_Minimization_Converged-OPLS-2005>
0

> <r_mmod_RMS_Derivative-OPLS-2005>
1.33500194549561

$$$$
3
                    3D
 Structure written by MMmdl.
156165  0  0  1  0            999 V2000
  -30.6568  -14.7436   20.4473 C   0  0  0  0  0  0
  -30.4187  -12.4549   19.4773 C   0  0  0  0  0  0
  -29.5012  -12.5011   18.2367 C   0  0  0  0  0  0
  -28.0296  -12.3281   18.6541 C   0  0  0  0  0  0
  -27.6373  -13.2394   19.8476 C   0  0  2  0  0  0
  -28.6854  -13.2060   20.9839 C   0  0  0  0  0  0
  -25.2499  -13.8215   20.5715 C   0  0  0  0  0  0
  -24.1796  -13.0454   20.9208 C   0  0  0  0  0  0
  -24.6395  -11.6934   20.8754 C   0  0  0  0  0  0
  -23.9074  -10.4303   21.0409 C   0  0  0  0  0  0
  -24.3620   -9.4213   21.9184 C   0  0  0  0  0  0
  -23.6298   -8.2250   22.0753 C   0  0  0  0  0  0
  -22.4284   -8.0288   21.3542 C   0  0  0  0  0  0
  -21.9919   -9.0260   20.4641 C   0  0  0  0  0  0
  -22.7250  -10.2139   20.3058 C   0  0  0  0  0  0
  -21.6853   -6.0738   22.5270 C   0  0  0  0  0  0
  -21.4016   -6.5639   23.8203 C   0  0  0  0  0  0
  -21.3658   -5.6796   24.9167 C   0  0  0  0  0  0
  -21.6047   -4.3060   24.7218 C   0  0  0  0  0  0
  -21.8816   -3.8152   23.4340 C   0  0  0  0  0  0
  -21.9190   -4.6968   22.3398 C   0  0  0  0  0  0
  -22.7818  -13.5229   21.1867 C   0  0  0  0  0  0
  -22.1664   -4.2158   21.0975 F   0  0  0  0  0  0
  -21.5628   -3.4541   25.7732 F   0  0  0  0  0  0
  -29.9855  -13.5399   20.3913 N   0  0  0  0  0  0
  -26.2925  -12.9438   20.3299 N   0  0  0  0  0  0
  -25.9329  -11.6572   20.5777 N   0  0  0  0  0  0
  -22.0470  -12.8197   22.0416 N   0  0  0  0  0  0
  -25.4193  -15.1944   20.4162 N   0  0  0  0  0  0
  -31.8504  -14.7525   20.1442 O   0  0  0  0  0  0
  -21.6644   -6.8889   21.4238 O   0  0  0  0  0  0
  -22.3496  -14.5540   20.6731 O   0  0  0  0  0  0
  -24.6318  -31.8545   23.1997 C   0  0  0  0  0  0
  -25.9145  -32.4743   23.8334 C   0  0  1  0  0  0
  -27.2122  -27.2559   20.1243 C   0  0  0  0  0  0
  -25.5938  -33.8548   24.2251 N   0  0  0  0  0  0
  -23.4274  -30.4800   21.5424 C   0  0  2  0  0  0
  -24.8744  -28.9334   20.1057 C   0  0  0  0  0  0
  -22.7513  -29.4594   22.4900 C   0  0  0  0  0  0
  -18.0296  -28.1392   22.8477 C   0  0  0  0  0  0
  -24.1489  -36.7273   23.2637 C   0  0  0  0  0  0
  -25.9757  -30.7650   21.3836 C   0  0  0  0  0  0
  -26.0457  -29.3888   20.7232 C   0  0  0  0  0  0
  -27.2157  -28.5607   20.7270 C   0  0  0  0  0  0
  -26.0225  -26.8856   19.4546 C   0  0  0  0  0  0
  -24.8686  -27.6901   19.4603 C   0  0  0  0  0  0
  -23.6456  -29.8198   20.1562 C   0  0  0  0  0  0
  -25.4115  -36.3049   24.0322 C   0  0  1  0  0  0
  -20.5902  -28.3692   23.1274 C   0  0  2  0  0  0
  -20.6776  -26.9408   22.5407 C   0  0  0  0  0  0
  -19.5744  -26.6381   21.5212 C   0  0  0  0  0  0
  -18.1922  -26.7930   22.1622 C   0  0  0  0  0  0
  -19.1553  -28.8861   23.2863 C   0  0  0  0  0  0
  -18.9473  -30.1465   23.8872 C   0  0  0  0  0  0
  -17.6473  -30.6581   24.0571 C   0  0  0  0  0  0
  -25.9067  -34.9430   23.5089 C   0  0  0  0  0  0
  -16.5361  -29.9080   23.6339 C   0  0  0  0  0  0
  -16.7283  -28.6511   23.0335 C   0  0  0  0  0  0
  -26.4517  -31.6568   25.0718 C   0  0  0  0  0  0
  -25.3741  -31.3725   26.1439 C   0  0  0  0  0  0
  -27.0381  -30.2981   24.6213 C   0  0  0  0  0  0
  -27.6067  -32.4328   25.7491 C   0  0  0  0  0  0
  -27.5586  -37.1779   24.8458 C   0  0  0  0  0  0
  -21.4217  -29.3041   22.3670 N   0  0  0  0  0  0
  -26.4281  -37.3756   23.9427 N   0  0  0  0  0  0
  -24.6971  -31.0510   22.0977 N   0  0  0  0  0  0
  -23.4223  -28.8116   23.2980 O   0  0  0  0  0  0
  -28.2916  -26.3398   20.2098 O   0  0  0  0  0  0
  -26.5635  -34.8906   22.4656 O   0  0  0  0  0  0
  -23.5469  -32.1389   23.7286 O   0  0  0  0  0  0
  -31.7203  -17.7004   20.2352 C   0  0  0  0  0  0
  -32.1495  -19.0306   20.0957 C   0  0  0  0  0  0
  -29.8856  -19.9163   20.4735 C   0  0  0  0  0  0
  -30.3677  -17.3681   20.4936 C   0  0  0  0  0  0
  -29.4669  -18.5147   20.6124 C   0  0  0  0  0  0
  -31.2690  -20.1192   20.2117 C   0  0  0  0  0  0
  -28.6147  -23.1771   21.8529 C   0  0  0  0  0  0
  -29.1725  -21.7354   21.9743 C   0  0  0  0  0  0
  -28.8520  -22.2164   19.7032 C   0  0  0  0  0  0
  -28.9448  -23.6420   20.4279 C   0  0  1  0  0  0
  -28.0568  -24.8860   19.8809 C   0  0  0  0  0  0
  -29.0186  -21.0768   20.6741 N   0  0  0  0  0  0
  -29.9495  -15.9323   20.6329 N   0  0  0  0  0  0
  -28.1621  -18.2544   20.8766 F   0  0  0  0  0  0
  -31.9724  -21.6968   20.0749 Cl  0  0  0  0  0  0
  -31.4606  -12.5515   19.1703 H   0  0  0  0  0  0
  -30.3463  -11.4871   19.9755 H   0  0  0  0  0  0
  -29.7811  -11.7204   17.5283 H   0  0  0  0  0  0
  -29.6278  -13.4508   17.7145 H   0  0  0  0  0  0
  -27.8893  -11.2817   18.9279 H   0  0  0  0  0  0
  -27.3694  -12.5087   17.8054 H   0  0  0  0  0  0
  -27.6233  -14.2558   19.4534 H   0  0  0  0  0  0
  -28.7201  -12.2222   21.4537 H   0  0  0  0  0  0
  -28.4232  -13.9148   21.7712 H   0  0  0  0  0  0
  -25.2769   -9.5688   22.4764 H   0  0  0  0  0  0
  -24.0005   -7.4638   22.7477 H   0  0  0  0  0  0
  -21.0851   -8.8776   19.8945 H   0  0  0  0  0  0
  -22.3707  -10.9682   19.6171 H   0  0  0  0  0  0
  -21.2013   -7.6143   23.9711 H   0  0  0  0  0  0
  -21.1484   -6.0525   25.9072 H   0  0  0  0  0  0
  -22.0599   -2.7613   23.2834 H   0  0  0  0  0  0
  -22.4100  -11.9847   22.4775 H   0  0  0  0  0  0
  -21.1091  -13.1212   22.2654 H   0  0  0  0  0  0
  -24.6538  -15.8483   20.5361 H   0  0  0  0  0  0
  -26.2713  -15.6400   20.1015 H   0  0  0  0  0  0
  -26.7202  -32.5393   23.1067 H   0  0  0  0  0  0
  -25.0087  -33.9691   25.0397 H   0  0  0  0  0  0
  -22.7214  -31.3008   21.3978 H   0  0  0  0  0  0
  -23.3750  -35.9603   23.3266 H   0  0  0  0  0  0
  -24.3583  -36.8935   22.2056 H   0  0  0  0  0  0
  -23.7249  -37.6464   23.6691 H   0  0  0  0  0  0
  -26.1161  -31.5256   20.6147 H   0  0  0  0  0  0
  -26.8535  -30.8130   22.0157 H   0  0  0  0  0  0
  -28.1072  -28.8970   21.2380 H   0  0  0  0  0  0
  -25.9407  -25.9488   18.9244 H   0  0  0  0  0  0
  -23.9768  -27.3418   18.9582 H   0  0  0  0  0  0
  -23.7680  -30.5993   19.4031 H   0  0  0  0  0  0
  -22.7641  -29.2541   19.8495 H   0  0  0  0  0  0
  -25.1286  -36.1875   25.0809 H   0  0  0  0  0  0
  -21.0003  -28.3273   24.1394 H   0  0  0  0  0  0
  -20.5680  -26.2299   23.3610 H   0  0  0  0  0  0
  -21.6637  -26.7416   22.1195 H   0  0  0  0  0  0
  -19.6898  -25.6294   21.1234 H   0  0  0  0  0  0
  -19.6677  -27.3201   20.6748 H   0  0  0  0  0  0
  -17.4192  -26.6688   21.4022 H   0  0  0  0  0  0
  -18.0301  -26.0072   22.9016 H   0  0  0  0  0  0
  -19.7951  -30.7291   24.2211 H   0  0  0  0  0  0
  -17.5017  -31.6253   24.5179 H   0  0  0  0  0  0
  -15.5364  -30.2967   23.7676 H   0  0  0  0  0  0
  -15.8686  -28.0840   22.7030 H   0  0  0  0  0  0
  -24.5936  -30.7044   25.7773 H   0  0  0  0  0  0
  -24.8903  -32.2890   26.4823 H   0  0  0  0  0  0
  -25.8052  -30.8941   27.0239 H   0  0  0  0  0  0
  -26.2972  -29.6703   24.1241 H   0  0  0  0  0  0
  -27.4072  -29.7260   25.4736 H   0  0  0  0  0  0
  -27.8837  -30.4249   23.9453 H   0  0  0  0  0  0
  -27.2671  -33.3661   26.1997 H   0  0  0  0  0  0
  -28.3908  -32.6842   25.0335 H   0  0  0  0  0  0
  -28.0683  -31.8489   26.5461 H   0  0  0  0  0  0
  -28.2557  -38.0119   24.7547 H   0  0  0  0  0  0
  -28.1129  -36.2650   24.6222 H   0  0  0  0  0  0
  -27.2300  -37.1349   25.8856 H   0  0  0  0  0  0
  -20.9398  -29.8808   21.6918 H   0  0  0  0  0  0
  -26.0145  -38.2814   24.1460 H   0  0  0  0  0  0
  -32.4913  -16.9556   20.1418 H   0  0  0  0  0  0
  -33.1969  -19.2229   19.9122 H   0  0  0  0  0  0
  -29.0234  -23.8438   22.6126 H   0  0  0  0  0  0
  -27.5333  -23.1529   21.9900 H   0  0  0  0  0  0
  -28.6558  -21.1801   22.7590 H   0  0  0  0  0  0
  -30.2259  -21.7764   22.2539 H   0  0  0  0  0  0
  -29.5539  -22.1518   18.8712 H   0  0  0  0  0  0
  -27.8598  -22.1170   19.2596 H   0  0  0  0  0  0
  -29.9933  -23.9407   20.3994 H   0  0  0  0  0  0
  -27.0384  -24.6244   20.1677 H   0  0  0  0  0  0
  -28.0764  -24.8315   18.7918 H   0  0  0  0  0  0
  -28.9697  -15.8044   20.8331 H   0  0  0  0  0  0
  1 25  1  0  0  0
  1 30  2  0  0  0
  1 83  1  0  0  0
  2  3  1  0  0  0
  2 25  1  0  0  0
  2 86  1  0  0  0
  2 87  1  0  0  0
  3  4  1  0  0  0
  3 88  1  0  0  0
  3 89  1  0  0  0
  4  5  1  0  0  0
  4 90  1  0  0  0
  4 91  1  0  0  0
  5  6  1  0  0  0
  5 26  1  0  0  0
  5 92  1  0  0  0
  6 25  1  0  0  0
  6 93  1  0  0  0
  6 94  1  0  0  0
  7  8  2  0  0  0
  7 26  1  0  0  0
  7 29  1  0  0  0
  8  9  1  0  0  0
  8 22  1  0  0  0
  9 10  1  0  0  0
  9 27  2  0  0  0
 10 11  2  0  0  0
 10 15  1  0  0  0
 11 12  1  0  0  0
 11 95  1  0  0  0
 12 13  2  0  0  0
 12 96  1  0  0  0
 13 14  1  0  0  0
 13 31  1  0  0  0
 14 15  2  0  0  0
 14 97  1  0  0  0
 15 98  1  0  0  0
 16 17  2  0  0  0
 16 21  1  0  0  0
 16 31  1  0  0  0
 17 18  1  0  0  0
 17 99  1  0  0  0
 18 19  2  0  0  0
 18100  1  0  0  0
 19 20  1  0  0  0
 19 24  1  0  0  0
 20 21  2  0  0  0
 20101  1  0  0  0
 21 23  1  0  0  0
 22 28  1  0  0  0
 22 32  2  0  0  0
 26 27  1  0  0  0
 28102  1  0  0  0
 28103  1  0  0  0
 29104  1  0  0  0
 29105  1  0  0  0
 33 34  1  0  0  0
 33 66  1  0  0  0
 33 70  2  0  0  0
 34 36  1  0  0  0
 34 59  1  0  0  0
 34106  1  0  0  0
 35 44  2  0  0  0
 35 45  1  0  0  0
 35 68  1  0  0  0
 36 56  1  0  0  0
 36107  1  0  0  0
 37 39  1  0  0  0
 37 47  1  0  0  0
 37 66  1  0  0  0
 37108  1  0  0  0
 38 43  2  0  0  0
 38 46  1  0  0  0
 38 47  1  0  0  0
 39 64  1  0  0  0
 39 67  2  0  0  0
 40 52  1  0  0  0
 40 53  2  0  0  0
 40 58  1  0  0  0
 41109  1  0  0  0
 41110  1  0  0  0
 41111  1  0  0  0
 41 48  1  0  0  0
 42 43  1  0  0  0
 42 66  1  0  0  0
 42112  1  0  0  0
 42113  1  0  0  0
 43 44  1  0  0  0
 44114  1  0  0  0
 45 46  2  0  0  0
 45115  1  0  0  0
 46116  1  0  0  0
 47117  1  0  0  0
 47118  1  0  0  0
 48 56  1  0  0  0
 48 65  1  0  0  0
 48119  1  0  0  0
 49 50  1  0  0  0
 49 53  1  0  0  0
 49 64  1  0  0  0
 49120  1  0  0  0
 50 51  1  0  0  0
 50121  1  0  0  0
 50122  1  0  0  0
 51 52  1  0  0  0
 51123  1  0  0  0
 51124  1  0  0  0
 52125  1  0  0  0
 52126  1  0  0  0
 53 54  1  0  0  0
 54 55  2  0  0  0
 54127  1  0  0  0
 55 57  1  0  0  0
 55128  1  0  0  0
 56 69  2  0  0  0
 57 58  2  0  0  0
 57129  1  0  0  0
 58130  1  0  0  0
 59 60  1  0  0  0
 59 61  1  0  0  0
 59 62  1  0  0  0
 60131  1  0  0  0
 60132  1  0  0  0
 60133  1  0  0  0
 61134  1  0  0  0
 61135  1  0  0  0
 61136  1  0  0  0
 62137  1  0  0  0
 62138  1  0  0  0
 62139  1  0  0  0
 63 65  1  0  0  0
 63140  1  0  0  0
 63141  1  0  0  0
 63142  1  0  0  0
 64143  1  0  0  0
 65144  1  0  0  0
 68 81  1  0  0  0
 71 72  2  0  0  0
 71 74  1  0  0  0
 71145  1  0  0  0
 72 76  1  0  0  0
 72146  1  0  0  0
 73 75  1  0  0  0
 73 76  2  0  0  0
 73 82  1  0  0  0
 74 75  2  0  0  0
 74 83  1  0  0  0
 75 84  1  0  0  0
 76 85  1  0  0  0
 77 78  1  0  0  0
 77 80  1  0  0  0
 77147  1  0  0  0
 77148  1  0  0  0
 78 82  1  0  0  0
 78149  1  0  0  0
 78150  1  0  0  0
 79 80  1  0  0  0
 79 82  1  0  0  0
 79151  1  0  0  0
 79152  1  0  0  0
 80 81  1  0  0  0
 80153  1  0  0  0
 81154  1  0  0  0
 81155  1  0  0  0
 83156  1  0  0  0
M  ISO  4   1 100  68 101  81 101  83 100
M  END
> <chiral flag>
0

> <version>
0

> <s_m_source_file>
/data/baiqing/PycharmProjects/Reinvent-master-3.2/result/LINK_invent/BTK/process_docking_weight1_custom_product_contain_oxygen_bond_distance_aromatic_linkinvent_7_9_3/rearranged_h_0026.sdf

> <i_m_source_file_index>
4

> <r_mmod_Potential_Energy-OPLS-2005>
346.687194824219

> <r_mmod_Stretch_Energy-OPLS-2005>
130.082702636719

> <r_mmod_Bend_Energy-OPLS-2005>
197.220489501953

> <r_mmod_Torsional_Energy-OPLS-2005>
290.709899902344

> <r_mmod_Improper_Torsional_Energy-OPLS-2005>
9.50984001159668

> <r_mmod_Van_der_Waal_Energy-OPLS-2005>
150.800491333008

> <r_mmod_Electrostatic_Energy-OPLS-2005>
-311.93310546875

> <r_mmod_Solvation_Energy-OPLS-2005>
-210.657745361328

> <b_mmod_Minimization_Converged-OPLS-2005>
0

> <r_mmod_RMS_Derivative-OPLS-2005>
1.45726203918457

$$$$
4
                    3D
 Structure written by MMmdl.
170179  0  0  1  0            999 V2000
  -30.7176  -14.4955   20.6221 C   0  0  0  0  0  0
  -30.4244  -12.3392   19.4292 C   0  0  0  0  0  0
  -29.4949  -12.5229   18.2118 C   0  0  0  0  0  0
  -28.0193  -12.3674   18.6247 C   0  0  0  0  0  0
  -27.6609  -13.2121   19.8754 C   0  0  2  0  0  0
  -28.6998  -13.0030   20.9994 C   0  0  0  0  0  0
  -25.2568  -13.8172   20.5670 C   0  0  0  0  0  0
  -24.1826  -13.0446   20.9167 C   0  0  0  0  0  0
  -24.6391  -11.6913   20.8733 C   0  0  0  0  0  0
  -23.9066  -10.4296   21.0402 C   0  0  0  0  0  0
  -24.3621   -9.4210   21.9178 C   0  0  0  0  0  0
  -23.6286   -8.2250   22.0756 C   0  0  0  0  0  0
  -22.4269   -8.0285   21.3545 C   0  0  0  0  0  0
  -21.9908   -9.0262   20.4649 C   0  0  0  0  0  0
  -22.7241  -10.2137   20.3051 C   0  0  0  0  0  0
  -21.6853   -6.0730   22.5276 C   0  0  0  0  0  0
  -21.4012   -6.5634   23.8210 C   0  0  0  0  0  0
  -21.3662   -5.6784   24.9173 C   0  0  0  0  0  0
  -21.6051   -4.3047   24.7219 C   0  0  0  0  0  0
  -21.8819   -3.8141   23.4339 C   0  0  0  0  0  0
  -21.9190   -4.6958   22.3397 C   0  0  0  0  0  0
  -22.7847  -13.5238   21.1842 C   0  0  0  0  0  0
  -22.1655   -4.2147   21.0972 F   0  0  0  0  0  0
  -21.5641   -3.4529   25.7733 F   0  0  0  0  0  0
  -30.0361  -13.3199   20.4594 N   0  0  0  0  0  0
  -26.3018  -12.9353   20.3371 N   0  0  0  0  0  0
  -25.9322  -11.6508   20.5765 N   0  0  0  0  0  0
  -22.0495  -12.8231   22.0407 N   0  0  0  0  0  0
  -25.4259  -15.1891   20.4078 N   0  0  0  0  0  0
  -31.7706  -14.7324   20.0191 O   0  0  0  0  0  0
  -21.6633   -6.8878   21.4241 O   0  0  0  0  0  0
  -22.3533  -14.5548   20.6702 O   0  0  0  0  0  0
  -24.6210  -31.8633   23.2058 C   0  0  0  0  0  0
  -25.9083  -32.4787   23.8367 C   0  0  1  0  0  0
  -27.2248  -27.3771   20.0985 C   0  0  0  0  0  0
  -25.5924  -33.8585   24.2298 N   0  0  0  0  0  0
  -23.4112  -30.4913   21.5459 C   0  0  2  0  0  0
  -24.8553  -28.9557   20.1101 C   0  0  0  0  0  0
  -22.7450  -29.4654   22.4930 C   0  0  0  0  0  0
  -18.0297  -28.1364   22.8506 C   0  0  0  0  0  0
  -24.1500  -36.7306   23.2642 C   0  0  0  0  0  0
  -25.9481  -30.8132   21.3677 C   0  0  0  0  0  0
  -26.0225  -29.4457   20.7099 C   0  0  0  0  0  0
  -27.2099  -28.6666   20.6968 C   0  0  0  0  0  0
  -26.0322  -26.9248   19.4847 C   0  0  0  0  0  0
  -24.8589  -27.6964   19.4935 C   0  0  0  0  0  0
  -23.6227  -29.8290   20.1594 C   0  0  0  0  0  0
  -25.4116  -36.3075   24.0334 C   0  0  1  0  0  0
  -20.5900  -28.3668   23.1283 C   0  0  2  0  0  0
  -20.6787  -26.9393   22.5399 C   0  0  0  0  0  0
  -19.5757  -26.6369   21.5212 C   0  0  0  0  0  0
  -18.1938  -26.7912   22.1631 C   0  0  0  0  0  0
  -19.1553  -28.8835   23.2897 C   0  0  0  0  0  0
  -18.9475  -30.1449   23.8891 C   0  0  0  0  0  0
  -17.6473  -30.6568   24.0581 C   0  0  0  0  0  0
  -25.9042  -34.9446   23.5108 C   0  0  0  0  0  0
  -16.5368  -29.9071   23.6327 C   0  0  0  0  0  0
  -16.7286  -28.6493   23.0341 C   0  0  0  0  0  0
  -26.4493  -31.6575   25.0714 C   0  0  0  0  0  0
  -25.3762  -31.3697   26.1473 C   0  0  0  0  0  0
  -27.0326  -30.3004   24.6105 C   0  0  0  0  0  0
  -27.6055  -32.4311   25.7480 C   0  0  0  0  0  0
  -27.5581  -37.1802   24.8470 C   0  0  0  0  0  0
  -21.4169  -29.3030   22.3675 N   0  0  0  0  0  0
  -26.4291  -37.3764   23.9419 N   0  0  0  0  0  0
  -24.6788  -31.0709   22.0971 N   0  0  0  0  0  0
  -23.4212  -28.8180   23.2970 O   0  0  0  0  0  0
  -28.3663  -26.5782   20.1355 O   0  0  0  0  0  0
  -26.5598  -34.8910   22.4661 O   0  0  0  0  0  0
  -23.5383  -32.1388   23.7418 O   0  0  0  0  0  0
  -29.7392  -18.3155   22.9316 C   0  0  0  0  0  0
  -29.8923  -19.5828   23.5232 C   0  0  0  0  0  0
  -29.9219  -19.3271   20.7372 C   0  0  0  0  0  0
  -29.8076  -18.1398   21.5290 C   0  0  0  0  0  0
  -30.0599  -20.7391   22.7340 C   0  0  0  0  0  0
  -30.0342  -20.6260   21.3217 C   0  0  0  0  0  0
  -31.6187  -23.1172   24.9717 C   0  0  0  0  0  0
  -30.1676  -23.5907   25.0435 C   0  0  0  0  0  0
  -31.6765  -22.2549   23.7039 C   0  0  0  0  0  0
  -29.4111  -22.4360   24.3959 C   0  0  0  0  0  0
  -30.3098  -15.2598   22.8537 C   0  0  0  0  0  0
  -29.6442  -16.7456   20.8372 C   0  0  0  0  0  0
  -29.3700  -24.2139   20.3662 C   0  0  0  0  0  0
  -29.0362  -22.6764   20.3626 C   0  0  0  0  0  0
  -28.1610  -25.1389   20.0169 C   0  0  0  0  0  0
  -30.2914  -21.9985   23.3211 N   0  0  0  0  0  0
  -30.2141  -21.8069   20.5574 N   0  0  0  0  0  0
  -30.1393  -15.4431   21.4097 N   0  0  0  0  0  0
  -31.4684  -12.4424   19.1286 H   0  0  0  0  0  0
  -30.3345  -11.3282   19.8300 H   0  0  0  0  0  0
  -29.7448  -11.7981   17.4361 H   0  0  0  0  0  0
  -29.6518  -13.5092   17.7717 H   0  0  0  0  0  0
  -27.8430  -11.3101   18.8293 H   0  0  0  0  0  0
  -27.3640  -12.6279   17.7928 H   0  0  0  0  0  0
  -27.7024  -14.2600   19.5768 H   0  0  0  0  0  0
  -28.6833  -11.9679   21.3446 H   0  0  0  0  0  0
  -28.4345  -13.6026   21.8696 H   0  0  0  0  0  0
  -25.2772   -9.5678   22.4745 H   0  0  0  0  0  0
  -23.9996   -7.4636   22.7477 H   0  0  0  0  0  0
  -21.0838   -8.8782   19.8950 H   0  0  0  0  0  0
  -22.3708  -10.9673   19.6153 H   0  0  0  0  0  0
  -21.1999   -7.6139   23.9717 H   0  0  0  0  0  0
  -21.1490   -6.0508   25.9077 H   0  0  0  0  0  0
  -22.0598   -2.7601   23.2836 H   0  0  0  0  0  0
  -22.4101  -11.9878   22.4776 H   0  0  0  0  0  0
  -21.1125  -13.1276   22.2645 H   0  0  0  0  0  0
  -24.6599  -15.8439   20.5201 H   0  0  0  0  0  0
  -26.2817  -15.6324   20.0993 H   0  0  0  0  0  0
  -26.7150  -32.5477   23.1117 H   0  0  0  0  0  0
  -25.0129  -33.9763   25.0479 H   0  0  0  0  0  0
  -22.7025  -31.3098   21.4054 H   0  0  0  0  0  0
  -23.3736  -35.9666   23.3306 H   0  0  0  0  0  0
  -24.3597  -36.8902   22.2055 H   0  0  0  0  0  0
  -23.7271  -37.6521   23.6655 H   0  0  0  0  0  0
  -26.0746  -31.5794   20.6017 H   0  0  0  0  0  0
  -26.8318  -30.8581   21.9929 H   0  0  0  0  0  0
  -28.1075  -29.0395   21.1704 H   0  0  0  0  0  0
  -25.9745  -25.9659   18.9924 H   0  0  0  0  0  0
  -23.9637  -27.3152   19.0209 H   0  0  0  0  0  0
  -23.7379  -30.6067   19.4035 H   0  0  0  0  0  0
  -22.7444  -29.2549   19.8579 H   0  0  0  0  0  0
  -25.1281  -36.1926   25.0820 H   0  0  0  0  0  0
  -21.0033  -28.3236   24.1390 H   0  0  0  0  0  0
  -20.5690  -26.2278   23.3595 H   0  0  0  0  0  0
  -21.6654  -26.7414   22.1190 H   0  0  0  0  0  0
  -19.6925  -25.6282   21.1228 H   0  0  0  0  0  0
  -19.6695  -27.3201   20.6764 H   0  0  0  0  0  0
  -17.4216  -26.6691   21.4025 H   0  0  0  0  0  0
  -18.0330  -26.0029   22.9000 H   0  0  0  0  0  0
  -19.7952  -30.7284   24.2226 H   0  0  0  0  0  0
  -17.5023  -31.6245   24.5188 H   0  0  0  0  0  0
  -15.5365  -30.2979   23.7628 H   0  0  0  0  0  0
  -15.8693  -28.0821   22.7019 H   0  0  0  0  0  0
  -24.5932  -30.7033   25.7826 H   0  0  0  0  0  0
  -24.8986  -32.2875   26.4921 H   0  0  0  0  0  0
  -25.8133  -30.8872   27.0229 H   0  0  0  0  0  0
  -26.2857  -29.6757   24.1184 H   0  0  0  0  0  0
  -27.4108  -29.7237   25.4556 H   0  0  0  0  0  0
  -27.8699  -30.4305   23.9242 H   0  0  0  0  0  0
  -27.2646  -33.3604   26.2058 H   0  0  0  0  0  0
  -28.3867  -32.6874   25.0313 H   0  0  0  0  0  0
  -28.0725  -31.8441   26.5399 H   0  0  0  0  0  0
  -28.2577  -38.0116   24.7481 H   0  0  0  0  0  0
  -28.1072  -36.2626   24.6297 H   0  0  0  0  0  0
  -27.2300  -37.1450   25.8873 H   0  0  0  0  0  0
  -20.9306  -29.8783   21.6939 H   0  0  0  0  0  0
  -26.0162  -38.2835   24.1401 H   0  0  0  0  0  0
  -29.5630  -17.4996   23.6074 H   0  0  0  0  0  0
  -29.8931  -19.6478   24.6011 H   0  0  0  0  0  0
  -29.9371  -19.2391   19.6599 H   0  0  0  0  0  0
  -31.8513  -22.5073   25.8468 H   0  0  0  0  0  0
  -32.3305  -23.9430   24.9478 H   0  0  0  0  0  0
  -30.0421  -24.4973   24.4486 H   0  0  0  0  0  0
  -29.8356  -23.8053   26.0599 H   0  0  0  0  0  0
  -32.2401  -21.3358   23.8788 H   0  0  0  0  0  0
  -32.1732  -22.7980   22.8981 H   0  0  0  0  0  0
  -28.4384  -22.7558   24.0187 H   0  0  0  0  0  0
  -29.2434  -21.6455   25.1287 H   0  0  0  0  0  0
  -29.3615  -15.3971   23.3711 H   0  0  0  0  0  0
  -31.0601  -15.9450   23.2468 H   0  0  0  0  0  0
  -30.6523  -14.2542   23.1112 H   0  0  0  0  0  0
  -30.0450  -16.8472   19.8260 H   0  0  0  0  0  0
  -28.5720  -16.6108   20.6922 H   0  0  0  0  0  0
  -30.1717  -24.4188   19.6560 H   0  0  0  0  0  0
  -29.7517  -24.4929   21.3492 H   0  0  0  0  0  0
  -28.5693  -22.4081   19.4137 H   0  0  0  0  0  0
  -28.2933  -22.4726   21.1370 H   0  0  0  0  0  0
  -27.3298  -24.8473   20.6626 H   0  0  0  0  0  0
  -27.8643  -24.9101   18.9929 H   0  0  0  0  0  0
  -30.8639  -22.3550   21.1171 H   0  0  0  0  0  0
  1 25  1  0  0  0
  1 30  2  0  0  0
  1 88  1  0  0  0
  2  3  1  0  0  0
  2 25  1  0  0  0
  2 89  1  0  0  0
  2 90  1  0  0  0
  3  4  1  0  0  0
  3 91  1  0  0  0
  3 92  1  0  0  0
  4  5  1  0  0  0
  4 93  1  0  0  0
  4 94  1  0  0  0
  5  6  1  0  0  0
  5 26  1  0  0  0
  5 95  1  0  0  0
  6 25  1  0  0  0
  6 96  1  0  0  0
  6 97  1  0  0  0
  7  8  2  0  0  0
  7 26  1  0  0  0
  7 29  1  0  0  0
  8  9  1  0  0  0
  8 22  1  0  0  0
  9 10  1  0  0  0
  9 27  2  0  0  0
 10 11  2  0  0  0
 10 15  1  0  0  0
 11 12  1  0  0  0
 11 98  1  0  0  0
 12 13  2  0  0  0
 12 99  1  0  0  0
 13 14  1  0  0  0
 13 31  1  0  0  0
 14 15  2  0  0  0
 14100  1  0  0  0
 15101  1  0  0  0
 16 17  2  0  0  0
 16 21  1  0  0  0
 16 31  1  0  0  0
 17 18  1  0  0  0
 17102  1  0  0  0
 18 19  2  0  0  0
 18103  1  0  0  0
 19 20  1  0  0  0
 19 24  1  0  0  0
 20 21  2  0  0  0
 20104  1  0  0  0
 21 23  1  0  0  0
 22 28  1  0  0  0
 22 32  2  0  0  0
 26 27  1  0  0  0
 28105  1  0  0  0
 28106  1  0  0  0
 29107  1  0  0  0
 29108  1  0  0  0
 33 34  1  0  0  0
 33 66  1  0  0  0
 33 70  2  0  0  0
 34 36  1  0  0  0
 34 59  1  0  0  0
 34109  1  0  0  0
 35 44  2  0  0  0
 35 45  1  0  0  0
 35 68  1  0  0  0
 36 56  1  0  0  0
 36110  1  0  0  0
 37 39  1  0  0  0
 37 47  1  0  0  0
 37 66  1  0  0  0
 37111  1  0  0  0
 38 43  2  0  0  0
 38 46  1  0  0  0
 38 47  1  0  0  0
 39 64  1  0  0  0
 39 67  2  0  0  0
 40 52  1  0  0  0
 40 53  2  0  0  0
 40 58  1  0  0  0
 41112  1  0  0  0
 41113  1  0  0  0
 41114  1  0  0  0
 41 48  1  0  0  0
 42 43  1  0  0  0
 42 66  1  0  0  0
 42115  1  0  0  0
 42116  1  0  0  0
 43 44  1  0  0  0
 44117  1  0  0  0
 45 46  2  0  0  0
 45118  1  0  0  0
 46119  1  0  0  0
 47120  1  0  0  0
 47121  1  0  0  0
 48 56  1  0  0  0
 48 65  1  0  0  0
 48122  1  0  0  0
 49 50  1  0  0  0
 49 53  1  0  0  0
 49 64  1  0  0  0
 49123  1  0  0  0
 50 51  1  0  0  0
 50124  1  0  0  0
 50125  1  0  0  0
 51 52  1  0  0  0
 51126  1  0  0  0
 51127  1  0  0  0
 52128  1  0  0  0
 52129  1  0  0  0
 53 54  1  0  0  0
 54 55  2  0  0  0
 54130  1  0  0  0
 55 57  1  0  0  0
 55131  1  0  0  0
 56 69  2  0  0  0
 57 58  2  0  0  0
 57132  1  0  0  0
 58133  1  0  0  0
 59 60  1  0  0  0
 59 61  1  0  0  0
 59 62  1  0  0  0
 60134  1  0  0  0
 60135  1  0  0  0
 60136  1  0  0  0
 61137  1  0  0  0
 61138  1  0  0  0
 61139  1  0  0  0
 62140  1  0  0  0
 62141  1  0  0  0
 62142  1  0  0  0
 63 65  1  0  0  0
 63143  1  0  0  0
 63144  1  0  0  0
 63145  1  0  0  0
 64146  1  0  0  0
 65147  1  0  0  0
 68 85  1  0  0  0
 71 72  2  0  0  0
 71 74  1  0  0  0
 71148  1  0  0  0
 72 75  1  0  0  0
 72149  1  0  0  0
 73 74  2  0  0  0
 73 76  1  0  0  0
 73150  1  0  0  0
 74 82  1  0  0  0
 75 76  2  0  0  0
 75 86  1  0  0  0
 76 87  1  0  0  0
 77 78  1  0  0  0
 77 79  1  0  0  0
 77151  1  0  0  0
 77152  1  0  0  0
 78 80  1  0  0  0
 78153  1  0  0  0
 78154  1  0  0  0
 79 86  1  0  0  0
 79155  1  0  0  0
 79156  1  0  0  0
 80 86  1  0  0  0
 80157  1  0  0  0
 80158  1  0  0  0
 81 88  1  0  0  0
 81159  1  0  0  0
 81160  1  0  0  0
 81161  1  0  0  0
 82 88  1  0  0  0
 82162  1  0  0  0
 82163  1  0  0  0
 83 84  1  0  0  0
 83 85  1  0  0  0
 83164  1  0  0  0
 83165  1  0  0  0
 84 87  1  0  0  0
 84166  1  0  0  0
 84167  1  0  0  0
 85168  1  0  0  0
 85169  1  0  0  0
 87170  1  0  0  0
M  ISO  4   1 100  68 101  85 101  88 100
M  END
> <chiral flag>
0

> <version>
0

> <s_m_source_file>
/data/baiqing/PycharmProjects/Reinvent-master-3.2/result/LINK_invent/BTK/process_docking_weight1_custom_product_contain_oxygen_bond_distance_aromatic_linkinvent_7_9_3/rearranged_h_0026.sdf

> <i_m_source_file_index>
5

> <r_mmod_Potential_Energy-OPLS-2005>
237.119781494141

> <r_mmod_Stretch_Energy-OPLS-2005>
59.453239440918

> <r_mmod_Bend_Energy-OPLS-2005>
159.009307861328

> <r_mmod_Torsional_Energy-OPLS-2005>
372.086364746094

> <r_mmod_Improper_Torsional_Energy-OPLS-2005>
14.7989645004272

> <r_mmod_Van_der_Waal_Energy-OPLS-2005>
158.059341430664

> <r_mmod_Electrostatic_Energy-OPLS-2005>
-332.772918701172

> <r_mmod_Solvation_Energy-OPLS-2005>
-213.551956176758

> <b_mmod_Minimization_Converged-OPLS-2005>
0

> <r_mmod_RMS_Derivative-OPLS-2005>
1.83996176719666

$$$$
5
                    3D
 Structure written by MMmdl.
159168  0  0  1  0            999 V2000
  -30.6017  -14.8139   20.4566 C   0  0  0  0  0  0
  -30.4314  -12.5036   19.4766 C   0  0  0  0  0  0
  -29.5104  -12.5166   18.2369 C   0  0  0  0  0  0
  -28.0392  -12.3272   18.6531 C   0  0  0  0  0  0
  -27.6348  -13.2389   19.8425 C   0  0  2  0  0  0
  -28.6805  -13.2124   20.9775 C   0  0  0  0  0  0
  -25.2484  -13.8203   20.5698 C   0  0  0  0  0  0
  -24.1785  -13.0436   20.9210 C   0  0  0  0  0  0
  -24.6391  -11.6919   20.8744 C   0  0  0  0  0  0
  -23.9072  -10.4290   21.0405 C   0  0  0  0  0  0
  -24.3625   -9.4206   21.9182 C   0  0  0  0  0  0
  -23.6297   -8.2244   22.0757 C   0  0  0  0  0  0
  -22.4279   -8.0282   21.3546 C   0  0  0  0  0  0
  -21.9915   -9.0254   20.4648 C   0  0  0  0  0  0
  -22.7246  -10.2131   20.3053 C   0  0  0  0  0  0
  -21.6852   -6.0732   22.5277 C   0  0  0  0  0  0
  -21.4020   -6.5639   23.8211 C   0  0  0  0  0  0
  -21.3659   -5.6793   24.9174 C   0  0  0  0  0  0
  -21.6045   -4.3054   24.7225 C   0  0  0  0  0  0
  -21.8822   -3.8142   23.4346 C   0  0  0  0  0  0
  -21.9198   -4.6958   22.3403 C   0  0  0  0  0  0
  -22.7810  -13.5211   21.1870 C   0  0  0  0  0  0
  -22.1668   -4.2145   21.0979 F   0  0  0  0  0  0
  -21.5623   -3.4542   25.7738 F   0  0  0  0  0  0
  -29.9697  -13.5852   20.3832 N   0  0  0  0  0  0
  -26.2905  -12.9425   20.3250 N   0  0  0  0  0  0
  -25.9319  -11.6559   20.5731 N   0  0  0  0  0  0
  -22.0469  -12.8192   22.0428 N   0  0  0  0  0  0
  -25.4152  -15.1933   20.4125 N   0  0  0  0  0  0
  -31.8019  -14.8696   20.1747 O   0  0  0  0  0  0
  -21.6643   -6.8878   21.4242 O   0  0  0  0  0  0
  -22.3494  -14.5516   20.6717 O   0  0  0  0  0  0
  -24.6374  -31.8512   23.1941 C   0  0  0  0  0  0
  -25.9178  -32.4728   23.8304 C   0  0  1  0  0  0
  -27.2128  -27.2092   20.1385 C   0  0  0  0  0  0
  -25.5953  -33.8531   24.2227 N   0  0  0  0  0  0
  -23.4362  -30.4742   21.5382 C   0  0  2  0  0  0
  -24.8842  -28.9189   20.1057 C   0  0  0  0  0  0
  -22.7540  -29.4587   22.4879 C   0  0  0  0  0  0
  -18.0299  -28.1403   22.8483 C   0  0  0  0  0  0
  -24.1495  -36.7273   23.2640 C   0  0  0  0  0  0
  -25.9876  -30.7500   21.3814 C   0  0  0  0  0  0
  -26.0590  -29.3689   20.7219 C   0  0  0  0  0  0
  -27.2258  -28.5278   20.7259 C   0  0  0  0  0  0
  -26.0153  -26.8500   19.4781 C   0  0  0  0  0  0
  -24.8716  -27.6709   19.4691 C   0  0  0  0  0  0
  -23.6576  -29.8112   20.1538 C   0  0  0  0  0  0
  -25.4119  -36.3050   24.0321 C   0  0  1  0  0  0
  -20.5911  -28.3727   23.1255 C   0  0  2  0  0  0
  -20.6790  -26.9436   22.5412 C   0  0  0  0  0  0
  -19.5757  -26.6392   21.5223 C   0  0  0  0  0  0
  -18.1939  -26.7943   22.1635 C   0  0  0  0  0  0
  -19.1556  -28.8881   23.2863 C   0  0  0  0  0  0
  -18.9473  -30.1481   23.8883 C   0  0  0  0  0  0
  -17.6469  -30.6597   24.0569 C   0  0  0  0  0  0
  -25.9067  -34.9425   23.5076 C   0  0  0  0  0  0
  -16.5360  -29.9093   23.6337 C   0  0  0  0  0  0
  -16.7285  -28.6516   23.0346 C   0  0  0  0  0  0
  -26.4520  -31.6554   25.0706 C   0  0  0  0  0  0
  -25.3721  -31.3718   26.1409 C   0  0  0  0  0  0
  -27.0366  -30.2956   24.6226 C   0  0  0  0  0  0
  -27.6060  -32.4301   25.7488 C   0  0  0  0  0  0
  -27.5579  -37.1793   24.8465 C   0  0  0  0  0  0
  -21.4240  -29.3056   22.3629 N   0  0  0  0  0  0
  -26.4288  -37.3757   23.9410 N   0  0  0  0  0  0
  -24.7064  -31.0440   22.0940 N   0  0  0  0  0  0
  -23.4220  -28.8133   23.2999 O   0  0  0  0  0  0
  -28.2756  -26.2579   20.2188 O   0  0  0  0  0  0
  -26.5646  -34.8911   22.4650 O   0  0  0  0  0  0
  -23.5512  -32.1369   23.7203 O   0  0  0  0  0  0
  -29.4283  -18.6383   20.4837 C   0  0  0  0  0  0
  -31.4935  -17.7067   21.3266 C   0  0  0  0  0  0
  -31.1075  -20.1561   21.3215 C   0  0  0  0  0  0
  -29.8090  -20.0510   20.7158 C   0  0  0  0  0  0
  -30.2341  -17.4356   20.7666 C   0  0  0  0  0  0
  -31.9083  -19.0190   21.5965 C   0  0  0  0  0  0
  -29.3732  -22.3432   19.4447 C   0  0  0  0  0  0
  -28.4978  -22.2775   21.3468 C   0  0  0  0  0  0
  -28.9382  -23.4994   20.4391 C   0  0  0  0  0  0
  -31.7539  -21.4851   21.7223 C   0  0  0  0  0  0
  -27.9717  -24.7687   20.0434 C   0  0  0  0  0  0
  -28.9505  -21.2525   20.3673 N   0  0  0  0  0  0
  -29.8374  -15.9882   20.5900 N   0  0  0  0  0  0
  -31.7795  -21.6838   23.1821 N   0  3  0  0  0  0
  -33.1215  -19.1944   22.1765 F   0  0  0  0  0  0
  -31.4712  -12.6339   19.1713 H   0  0  0  0  0  0
  -30.3883  -11.5370   19.9814 H   0  0  0  0  0  0
  -29.8051  -11.7355   17.5351 H   0  0  0  0  0  0
  -29.6224  -13.4630   17.7050 H   0  0  0  0  0  0
  -27.9071  -11.2805   18.9296 H   0  0  0  0  0  0
  -27.3794  -12.5003   17.8020 H   0  0  0  0  0  0
  -27.6154  -14.2524   19.4417 H   0  0  0  0  0  0
  -28.7357  -12.2241   21.4365 H   0  0  0  0  0  0
  -28.4050  -13.9075   21.7727 H   0  0  0  0  0  0
  -25.2777   -9.5678   22.4747 H   0  0  0  0  0  0
  -24.0008   -7.4635   22.7473 H   0  0  0  0  0  0
  -21.0851   -8.8774   19.8948 H   0  0  0  0  0  0
  -22.3713  -10.9670   19.6157 H   0  0  0  0  0  0
  -21.2019   -7.6149   23.9714 H   0  0  0  0  0  0
  -21.1477   -6.0521   25.9077 H   0  0  0  0  0  0
  -22.0602   -2.7604   23.2846 H   0  0  0  0  0  0
  -22.4110  -11.9860   22.4807 H   0  0  0  0  0  0
  -21.1083  -13.1195   22.2638 H   0  0  0  0  0  0
  -24.6417  -15.8407   20.5196 H   0  0  0  0  0  0
  -26.2529  -15.6362   20.0582 H   0  0  0  0  0  0
  -26.7247  -32.5365   23.1045 H   0  0  0  0  0  0
  -25.0081  -33.9653   25.0360 H   0  0  0  0  0  0
  -22.7354  -31.2987   21.3903 H   0  0  0  0  0  0
  -23.3754  -35.9607   23.3283 H   0  0  0  0  0  0
  -24.3597  -36.8918   22.2060 H   0  0  0  0  0  0
  -23.7246  -37.6465   23.6683 H   0  0  0  0  0  0
  -26.1336  -31.5095   20.6117 H   0  0  0  0  0  0
  -26.8622  -30.7993   22.0181 H   0  0  0  0  0  0
  -28.1196  -28.8650   21.2325 H   0  0  0  0  0  0
  -25.9232  -25.9001   18.9738 H   0  0  0  0  0  0
  -23.9762  -27.3244   18.9710 H   0  0  0  0  0  0
  -23.7871  -30.5895   19.4009 H   0  0  0  0  0  0
  -22.7745  -29.2490   19.8440 H   0  0  0  0  0  0
  -25.1299  -36.1888   25.0812 H   0  0  0  0  0  0
  -21.0008  -28.3317   24.1374 H   0  0  0  0  0  0
  -20.5709  -26.2334   23.3626 H   0  0  0  0  0  0
  -21.6651  -26.7459   22.1190 H   0  0  0  0  0  0
  -19.6918  -25.6302   21.1253 H   0  0  0  0  0  0
  -19.6682  -27.3203   20.6753 H   0  0  0  0  0  0
  -17.4208  -26.6698   21.4038 H   0  0  0  0  0  0
  -18.0330  -26.0094   22.9037 H   0  0  0  0  0  0
  -19.7945  -30.7306   24.2245 H   0  0  0  0  0  0
  -17.5015  -31.6271   24.5182 H   0  0  0  0  0  0
  -15.5360  -30.2987   23.7658 H   0  0  0  0  0  0
  -15.8692  -28.0834   22.7049 H   0  0  0  0  0  0
  -24.5916  -30.7047   25.7728 H   0  0  0  0  0  0
  -24.8894  -32.2890   26.4796 H   0  0  0  0  0  0
  -25.8030  -30.8921   27.0208 H   0  0  0  0  0  0
  -26.2958  -29.6689   24.1245 H   0  0  0  0  0  0
  -27.4011  -29.7236   25.4769 H   0  0  0  0  0  0
  -27.8857  -30.4194   23.9500 H   0  0  0  0  0  0
  -27.2657  -33.3610   26.2037 H   0  0  0  0  0  0
  -28.3891  -32.6843   25.0331 H   0  0  0  0  0  0
  -28.0705  -31.8441   26.5430 H   0  0  0  0  0  0
  -28.2575  -38.0108   24.7517 H   0  0  0  0  0  0
  -28.1092  -36.2635   24.6274 H   0  0  0  0  0  0
  -27.2304  -37.1419   25.8870 H   0  0  0  0  0  0
  -20.9447  -29.8775   21.6817 H   0  0  0  0  0  0
  -26.0157  -38.2826   24.1408 H   0  0  0  0  0  0
  -28.4504  -18.4752   20.0538 H   0  0  0  0  0  0
  -32.1654  -16.9061   21.5955 H   0  0  0  0  0  0
  -30.4378  -22.3451   19.2085 H   0  0  0  0  0  0
  -28.7841  -22.3351   18.5267 H   0  0  0  0  0  0
  -27.4176  -22.2305   21.4922 H   0  0  0  0  0  0
  -29.0108  -22.2388   22.3071 H   0  0  0  0  0  0
  -29.8424  -23.9173   20.8777 H   0  0  0  0  0  0
  -31.2779  -22.3393   21.2631 H   0  0  0  0  0  0
  -32.7785  -21.5055   21.3483 H   0  0  0  0  0  0
  -27.0296  -24.5962   20.5653 H   0  0  0  0  0  0
  -27.7290  -24.6476   18.9876 H   0  0  0  0  0  0
  -28.8433  -15.8183   20.5954 H   0  0  0  0  0  0
  -30.8548  -21.6936   23.5707 H   0  0  0  0  0  0
  -32.2260  -22.5580   23.3959 H   0  0  0  0  0  0
  -32.3093  -20.9485   23.6163 H   0  0  0  0  0  0
  1 25  1  0  0  0
  1 30  2  0  0  0
  1 83  1  0  0  0
  2  3  1  0  0  0
  2 25  1  0  0  0
  2 86  1  0  0  0
  2 87  1  0  0  0
  3  4  1  0  0  0
  3 88  1  0  0  0
  3 89  1  0  0  0
  4  5  1  0  0  0
  4 90  1  0  0  0
  4 91  1  0  0  0
  5  6  1  0  0  0
  5 26  1  0  0  0
  5 92  1  0  0  0
  6 25  1  0  0  0
  6 93  1  0  0  0
  6 94  1  0  0  0
  7  8  2  0  0  0
  7 26  1  0  0  0
  7 29  1  0  0  0
  8  9  1  0  0  0
  8 22  1  0  0  0
  9 10  1  0  0  0
  9 27  2  0  0  0
 10 11  2  0  0  0
 10 15  1  0  0  0
 11 12  1  0  0  0
 11 95  1  0  0  0
 12 13  2  0  0  0
 12 96  1  0  0  0
 13 14  1  0  0  0
 13 31  1  0  0  0
 14 15  2  0  0  0
 14 97  1  0  0  0
 15 98  1  0  0  0
 16 17  2  0  0  0
 16 21  1  0  0  0
 16 31  1  0  0  0
 17 18  1  0  0  0
 17 99  1  0  0  0
 18 19  2  0  0  0
 18100  1  0  0  0
 19 20  1  0  0  0
 19 24  1  0  0  0
 20 21  2  0  0  0
 20101  1  0  0  0
 21 23  1  0  0  0
 22 28  1  0  0  0
 22 32  2  0  0  0
 26 27  1  0  0  0
 28102  1  0  0  0
 28103  1  0  0  0
 29104  1  0  0  0
 29105  1  0  0  0
 33 34  1  0  0  0
 33 66  1  0  0  0
 33 70  2  0  0  0
 34 36  1  0  0  0
 34 59  1  0  0  0
 34106  1  0  0  0
 35 44  2  0  0  0
 35 45  1  0  0  0
 35 68  1  0  0  0
 36 56  1  0  0  0
 36107  1  0  0  0
 37 39  1  0  0  0
 37 47  1  0  0  0
 37 66  1  0  0  0
 37108  1  0  0  0
 38 43  2  0  0  0
 38 46  1  0  0  0
 38 47  1  0  0  0
 39 64  1  0  0  0
 39 67  2  0  0  0
 40 52  1  0  0  0
 40 53  2  0  0  0
 40 58  1  0  0  0
 41109  1  0  0  0
 41110  1  0  0  0
 41111  1  0  0  0
 41 48  1  0  0  0
 42 43  1  0  0  0
 42 66  1  0  0  0
 42112  1  0  0  0
 42113  1  0  0  0
 43 44  1  0  0  0
 44114  1  0  0  0
 45 46  2  0  0  0
 45115  1  0  0  0
 46116  1  0  0  0
 47117  1  0  0  0
 47118  1  0  0  0
 48 56  1  0  0  0
 48 65  1  0  0  0
 48119  1  0  0  0
 49 50  1  0  0  0
 49 53  1  0  0  0
 49 64  1  0  0  0
 49120  1  0  0  0
 50 51  1  0  0  0
 50121  1  0  0  0
 50122  1  0  0  0
 51 52  1  0  0  0
 51123  1  0  0  0
 51124  1  0  0  0
 52125  1  0  0  0
 52126  1  0  0  0
 53 54  1  0  0  0
 54 55  2  0  0  0
 54127  1  0  0  0
 55 57  1  0  0  0
 55128  1  0  0  0
 56 69  2  0  0  0
 57 58  2  0  0  0
 57129  1  0  0  0
 58130  1  0  0  0
 59 60  1  0  0  0
 59 61  1  0  0  0
 59 62  1  0  0  0
 60131  1  0  0  0
 60132  1  0  0  0
 60133  1  0  0  0
 61134  1  0  0  0
 61135  1  0  0  0
 61136  1  0  0  0
 62137  1  0  0  0
 62138  1  0  0  0
 62139  1  0  0  0
 63 65  1  0  0  0
 63140  1  0  0  0
 63141  1  0  0  0
 63142  1  0  0  0
 64143  1  0  0  0
 65144  1  0  0  0
 68 81  1  0  0  0
 71 74  2  0  0  0
 71 75  1  0  0  0
 71145  1  0  0  0
 72 75  2  0  0  0
 72 76  1  0  0  0
 72146  1  0  0  0
 73 74  1  0  0  0
 73 76  2  0  0  0
 73 80  1  0  0  0
 74 82  1  0  0  0
 75 83  1  0  0  0
 76 85  1  0  0  0
 77 79  1  0  0  0
 77 82  1  0  0  0
 77147  1  0  0  0
 77148  1  0  0  0
 78 79  1  0  0  0
 78 82  1  0  0  0
 78149  1  0  0  0
 78150  1  0  0  0
 79 81  1  0  0  0
 79151  1  0  0  0
 80 84  1  0  0  0
 80152  1  0  0  0
 80153  1  0  0  0
 81154  1  0  0  0
 81155  1  0  0  0
 83156  1  0  0  0
 84157  1  0  0  0
 84158  1  0  0  0
 84159  1  0  0  0
M  CHG  1  84   1
M  ISO  4   1 100  68 101  81 101  83 100
M  END
> <chiral flag>
0

> <version>
0

> <s_m_source_file>
/data/baiqing/PycharmProjects/Reinvent-master-3.2/result/LINK_invent/BTK/process_docking_weight1_custom_product_contain_oxygen_bond_distance_aromatic_linkinvent_7_9_3/rearranged_h_0026.sdf

> <i_m_source_file_index>
6

> <r_mmod_Potential_Energy-OPLS-2005>
124.657318115234

> <r_mmod_Stretch_Energy-OPLS-2005>
173.644790649414

> <r_mmod_Bend_Energy-OPLS-2005>
229.38298034668

> <r_mmod_Torsional_Energy-OPLS-2005>
274.086578369141

> <r_mmod_Improper_Torsional_Energy-OPLS-2005>
12.6431255340576

> <r_mmod_Van_der_Waal_Energy-OPLS-2005>
145.011306762695

> <r_mmod_Electrostatic_Energy-OPLS-2005>
-315.032745361328

> <r_mmod_Solvation_Energy-OPLS-2005>
-517.309204101562

> <b_mmod_Minimization_Converged-OPLS-2005>
0

> <r_mmod_RMS_Derivative-OPLS-2005>
0.988979160785675

$$$$
6
                    3D
 Structure written by MMmdl.
172182  0  0  1  0            999 V2000
  -30.6952  -14.4637   20.6248 C   0  0  0  0  0  0
  -30.4410  -12.3223   19.4109 C   0  0  0  0  0  0
  -29.5006  -12.5268   18.2044 C   0  0  0  0  0  0
  -28.0208  -12.3777   18.6146 C   0  0  0  0  0  0
  -27.6693  -13.2023   19.8801 C   0  0  2  0  0  0
  -28.7099  -12.9456   20.9936 C   0  0  0  0  0  0
  -25.2616  -13.8143   20.5657 C   0  0  0  0  0  0
  -24.1861  -13.0436   20.9181 C   0  0  0  0  0  0
  -24.6403  -11.6901   20.8738 C   0  0  0  0  0  0
  -23.9068  -10.4294   21.0403 C   0  0  0  0  0  0
  -24.3611   -9.4211   21.9185 C   0  0  0  0  0  0
  -23.6292   -8.2244   22.0750 C   0  0  0  0  0  0
  -22.4277   -8.0281   21.3539 C   0  0  0  0  0  0
  -21.9907   -9.0263   20.4651 C   0  0  0  0  0  0
  -22.7233  -10.2142   20.3066 C   0  0  0  0  0  0
  -21.6849   -6.0738   22.5285 C   0  0  0  0  0  0
  -21.4007   -6.5638   23.8225 C   0  0  0  0  0  0
  -21.3657   -5.6788   24.9183 C   0  0  0  0  0  0
  -21.6046   -4.3054   24.7222 C   0  0  0  0  0  0
  -21.8816   -3.8150   23.4347 C   0  0  0  0  0  0
  -21.9193   -4.6971   22.3404 C   0  0  0  0  0  0
  -22.7888  -13.5254   21.1843 C   0  0  0  0  0  0
  -22.1663   -4.2159   21.0978 F   0  0  0  0  0  0
  -21.5626   -3.4529   25.7733 F   0  0  0  0  0  0
  -30.0480  -13.2749   20.4609 N   0  0  0  0  0  0
  -26.3059  -12.9313   20.3366 N   0  0  0  0  0  0
  -25.9331  -11.6472   20.5760 N   0  0  0  0  0  0
  -22.0507  -12.8264   22.0388 N   0  0  0  0  0  0
  -25.4302  -15.1851   20.3992 N   0  0  0  0  0  0
  -31.7732  -14.7288   20.0845 O   0  0  0  0  0  0
  -21.6635   -6.8879   21.4247 O   0  0  0  0  0  0
  -22.3589  -14.5564   20.6688 O   0  0  0  0  0  0
  -24.6186  -31.8674   23.2121 C   0  0  0  0  0  0
  -25.9068  -32.4824   23.8404 C   0  0  1  0  0  0
  -27.2236  -27.4012   20.0864 C   0  0  0  0  0  0
  -25.5918  -33.8622   24.2334 N   0  0  0  0  0  0
  -23.4054  -30.4979   21.5535 C   0  0  2  0  0  0
  -24.8480  -28.9686   20.1132 C   0  0  0  0  0  0
  -22.7423  -29.4670   22.4967 C   0  0  0  0  0  0
  -18.0273  -28.1387   22.8492 C   0  0  0  0  0  0
  -24.1486  -36.7312   23.2638 C   0  0  0  0  0  0
  -25.9415  -30.8223   21.3719 C   0  0  0  0  0  0
  -26.0143  -29.4565   20.7147 C   0  0  0  0  0  0
  -27.2030  -28.6802   20.7013 C   0  0  0  0  0  0
  -26.0266  -26.9498   19.4709 C   0  0  0  0  0  0
  -24.8517  -27.7156   19.4888 C   0  0  0  0  0  0
  -23.6139  -29.8396   20.1663 C   0  0  0  0  0  0
  -25.4108  -36.3116   24.0338 C   0  0  1  0  0  0
  -20.5871  -28.3678   23.1310 C   0  0  2  0  0  0
  -20.6757  -26.9407   22.5427 C   0  0  0  0  0  0
  -19.5745  -26.6391   21.5215 C   0  0  0  0  0  0
  -18.1919  -26.7940   22.1613 C   0  0  0  0  0  0
  -19.1524  -28.8845   23.2901 C   0  0  0  0  0  0
  -18.9452  -30.1451   23.8912 C   0  0  0  0  0  0
  -17.6455  -30.6591   24.0570 C   0  0  0  0  0  0
  -25.9035  -34.9477   23.5123 C   0  0  0  0  0  0
  -16.5344  -29.9090   23.6333 C   0  0  0  0  0  0
  -16.7263  -28.6510   23.0346 C   0  0  0  0  0  0
  -26.4492  -31.6601   25.0736 C   0  0  0  0  0  0
  -25.3764  -31.3745   26.1499 C   0  0  0  0  0  0
  -27.0292  -30.3020   24.6133 C   0  0  0  0  0  0
  -27.6084  -32.4314   25.7473 C   0  0  0  0  0  0
  -27.5586  -37.1806   24.8459 C   0  0  0  0  0  0
  -21.4145  -29.3044   22.3706 N   0  0  0  0  0  0
  -26.4297  -37.3798   23.9413 N   0  0  0  0  0  0
  -24.6735  -31.0767   22.1030 N   0  0  0  0  0  0
  -23.4194  -28.8189   23.2990 O   0  0  0  0  0  0
  -28.3792  -26.6226   20.1091 O   0  0  0  0  0  0
  -26.5584  -34.8925   22.4682 O   0  0  0  0  0  0
  -23.5371  -32.1430   23.7500 O   0  0  0  0  0  0
  -28.7175  -17.3081   20.8501 C   0  0  0  0  0  0
  -30.9941  -17.6449   21.6046 C   0  0  0  0  0  0
  -29.5149  -19.6000   21.2637 C   0  0  0  0  0  0
  -28.4967  -18.7028   20.8299 C   0  0  0  0  0  0
  -29.9531  -16.7599   21.2458 C   0  0  0  0  0  0
  -30.7747  -19.0462   21.6278 C   0  0  0  0  0  0
  -24.9314  -19.6443   20.4307 C   0  0  0  0  0  0
  -25.6208  -20.4552   19.3258 C   0  0  0  0  0  0
  -29.3185  -23.1159   18.7955 C   0  0  0  0  0  0
  -26.0841  -19.1714   21.3213 C   0  0  0  0  0  0
  -26.9644  -19.7481   19.1337 C   0  0  0  0  0  0
  -30.1978  -22.0158   19.3887 C   0  0  0  0  0  0
  -29.6125  -23.5406   21.1347 C   0  0  0  0  0  0
  -29.4475  -24.2857   19.7807 C   0  0  2  0  0  0
  -29.1960  -21.0993   21.5049 C   0  0  0  0  0  0
  -28.2400  -25.2574   19.6498 C   0  0  0  0  0  0
  -27.2269  -19.1367   20.4247 N   0  0  0  0  0  0
  -30.0407  -15.3428   21.4057 N   0  0  0  0  0  0
  -30.0559  -22.1350   20.8540 N   0  3  1  0  0  0
  -32.0595  -20.0709   22.1655 Cl  0  0  0  0  0  0
  -31.4811  -12.4476   19.1032 H   0  0  0  0  0  0
  -30.3664  -11.3013   19.7878 H   0  0  0  0  0  0
  -29.7432  -11.8140   17.4150 H   0  0  0  0  0  0
  -29.6629  -13.5184   17.7796 H   0  0  0  0  0  0
  -27.8268  -11.3203   18.7980 H   0  0  0  0  0  0
  -27.3715  -12.6655   17.7861 H   0  0  0  0  0  0
  -27.7255  -14.2554   19.6025 H   0  0  0  0  0  0
  -28.6879  -11.8959   21.2909 H   0  0  0  0  0  0
  -28.4510  -13.4959   21.8985 H   0  0  0  0  0  0
  -25.2755   -9.5691   22.4759 H   0  0  0  0  0  0
  -24.0009   -7.4629   22.7460 H   0  0  0  0  0  0
  -21.0840   -8.8790   19.8958 H   0  0  0  0  0  0
  -22.3695  -10.9685   19.6178 H   0  0  0  0  0  0
  -21.1999   -7.6146   23.9726 H   0  0  0  0  0  0
  -21.1479   -6.0514   25.9086 H   0  0  0  0  0  0
  -22.0599   -2.7616   23.2836 H   0  0  0  0  0  0
  -22.4076  -11.9915   22.4794 H   0  0  0  0  0  0
  -21.1136  -13.1340   22.2578 H   0  0  0  0  0  0
  -24.6514  -15.8297   20.4783 H   0  0  0  0  0  0
  -26.2560  -15.6103   20.0009 H   0  0  0  0  0  0
  -26.7128  -32.5529   23.1149 H   0  0  0  0  0  0
  -25.0090  -33.9785   25.0494 H   0  0  0  0  0  0
  -22.6956  -31.3176   21.4201 H   0  0  0  0  0  0
  -23.3758  -35.9633   23.3293 H   0  0  0  0  0  0
  -24.3579  -36.8936   22.2053 H   0  0  0  0  0  0
  -23.7218  -37.6506   23.6654 H   0  0  0  0  0  0
  -26.0598  -31.5883   20.6042 H   0  0  0  0  0  0
  -26.8274  -30.8717   21.9931 H   0  0  0  0  0  0
  -28.1002  -29.0516   21.1756 H   0  0  0  0  0  0
  -25.9550  -26.0003   18.9639 H   0  0  0  0  0  0
  -23.9559  -27.3382   19.0153 H   0  0  0  0  0  0
  -23.7271  -30.6176   19.4108 H   0  0  0  0  0  0
  -22.7353  -29.2654   19.8668 H   0  0  0  0  0  0
  -25.1284  -36.1980   25.0831 H   0  0  0  0  0  0
  -20.9982  -28.3261   24.1424 H   0  0  0  0  0  0
  -20.5654  -26.2286   23.3621 H   0  0  0  0  0  0
  -21.6629  -26.7449   22.1229 H   0  0  0  0  0  0
  -19.6903  -25.6305   21.1235 H   0  0  0  0  0  0
  -19.6699  -27.3213   20.6758 H   0  0  0  0  0  0
  -17.4203  -26.6722   21.3994 H   0  0  0  0  0  0
  -18.0296  -26.0076   22.8999 H   0  0  0  0  0  0
  -19.7928  -30.7259   24.2289 H   0  0  0  0  0  0
  -17.5011  -31.6273   24.5171 H   0  0  0  0  0  0
  -15.5342  -30.2987   23.7652 H   0  0  0  0  0  0
  -15.8668  -28.0834   22.7040 H   0  0  0  0  0  0
  -24.5913  -30.7112   25.7862 H   0  0  0  0  0  0
  -24.8992  -32.2920   26.4951 H   0  0  0  0  0  0
  -25.8121  -30.8916   27.0254 H   0  0  0  0  0  0
  -26.2818  -29.6786   24.1212 H   0  0  0  0  0  0
  -27.4052  -29.7264   25.4601 H   0  0  0  0  0  0
  -27.8676  -30.4300   23.9283 H   0  0  0  0  0  0
  -27.2735  -33.3631   26.2043 H   0  0  0  0  0  0
  -28.3887  -32.6839   25.0280 H   0  0  0  0  0  0
  -28.0757  -31.8439   26.5384 H   0  0  0  0  0  0
  -28.2617  -38.0092   24.7499 H   0  0  0  0  0  0
  -28.1064  -36.2620   24.6281 H   0  0  0  0  0  0
  -27.2310  -37.1475   25.8865 H   0  0  0  0  0  0
  -20.9292  -29.8791   21.6960 H   0  0  0  0  0  0
  -26.0188  -38.2875   24.1425 H   0  0  0  0  0  0
  -27.9093  -16.6462   20.5771 H   0  0  0  0  0  0
  -31.9491  -17.2521   21.9248 H   0  0  0  0  0  0
  -24.4306  -18.7796   19.9920 H   0  0  0  0  0  0
  -24.1822  -20.2165   20.9795 H   0  0  0  0  0  0
  -25.7873  -21.4783   19.6678 H   0  0  0  0  0  0
  -25.0360  -20.5039   18.4072 H   0  0  0  0  0  0
  -28.2844  -22.7686   18.7547 H   0  0  0  0  0  0
  -29.6123  -23.3816   17.7796 H   0  0  0  0  0  0
  -25.8790  -18.1973   21.7697 H   0  0  0  0  0  0
  -26.2697  -19.8832   22.1273 H   0  0  0  0  0  0
  -27.7466  -20.4408   18.8266 H   0  0  0  0  0  0
  -26.8878  -18.9688   18.3729 H   0  0  0  0  0  0
  -31.2408  -22.2166   19.1377 H   0  0  0  0  0  0
  -29.9663  -21.0256   18.9983 H   0  0  0  0  0  0
  -28.6746  -23.5477   21.6929 H   0  0  0  0  0  0
  -30.3456  -24.0458   21.7642 H   0  0  0  0  0  0
  -30.3690  -24.8200   19.5447 H   0  0  0  0  0  0
  -29.2327  -21.2564   22.5834 H   0  0  0  0  0  0
  -28.1656  -21.3159   21.2286 H   0  0  0  0  0  0
  -27.3846  -24.7862   20.1375 H   0  0  0  0  0  0
  -28.0060  -25.3182   18.5856 H   0  0  0  0  0  0
  -29.2236  -14.9201   21.8189 H   0  0  0  0  0  0
  -30.9765  -22.0067   21.2535 H   0  0  0  0  0  0
  1 25  1  0  0  0
  1 30  2  0  0  0
  1 88  1  0  0  0
  2  3  1  0  0  0
  2 25  1  0  0  0
  2 91  1  0  0  0
  2 92  1  0  0  0
  3  4  1  0  0  0
  3 93  1  0  0  0
  3 94  1  0  0  0
  4  5  1  0  0  0
  4 95  1  0  0  0
  4 96  1  0  0  0
  5  6  1  0  0  0
  5 26  1  0  0  0
  5 97  1  0  0  0
  6 25  1  0  0  0
  6 98  1  0  0  0
  6 99  1  0  0  0
  7  8  2  0  0  0
  7 26  1  0  0  0
  7 29  1  0  0  0
  8  9  1  0  0  0
  8 22  1  0  0  0
  9 10  1  0  0  0
  9 27  2  0  0  0
 10 11  2  0  0  0
 10 15  1  0  0  0
 11 12  1  0  0  0
 11100  1  0  0  0
 12 13  2  0  0  0
 12101  1  0  0  0
 13 14  1  0  0  0
 13 31  1  0  0  0
 14 15  2  0  0  0
 14102  1  0  0  0
 15103  1  0  0  0
 16 17  2  0  0  0
 16 21  1  0  0  0
 16 31  1  0  0  0
 17 18  1  0  0  0
 17104  1  0  0  0
 18 19  2  0  0  0
 18105  1  0  0  0
 19 20  1  0  0  0
 19 24  1  0  0  0
 20 21  2  0  0  0
 20106  1  0  0  0
 21 23  1  0  0  0
 22 28  1  0  0  0
 22 32  2  0  0  0
 26 27  1  0  0  0
 28107  1  0  0  0
 28108  1  0  0  0
 29109  1  0  0  0
 29110  1  0  0  0
 33 34  1  0  0  0
 33 66  1  0  0  0
 33 70  2  0  0  0
 34 36  1  0  0  0
 34 59  1  0  0  0
 34111  1  0  0  0
 35 44  2  0  0  0
 35 45  1  0  0  0
 35 68  1  0  0  0
 36 56  1  0  0  0
 36112  1  0  0  0
 37 39  1  0  0  0
 37 47  1  0  0  0
 37 66  1  0  0  0
 37113  1  0  0  0
 38 43  2  0  0  0
 38 46  1  0  0  0
 38 47  1  0  0  0
 39 64  1  0  0  0
 39 67  2  0  0  0
 40 52  1  0  0  0
 40 53  2  0  0  0
 40 58  1  0  0  0
 41114  1  0  0  0
 41115  1  0  0  0
 41116  1  0  0  0
 41 48  1  0  0  0
 42 43  1  0  0  0
 42 66  1  0  0  0
 42117  1  0  0  0
 42118  1  0  0  0
 43 44  1  0  0  0
 44119  1  0  0  0
 45 46  2  0  0  0
 45120  1  0  0  0
 46121  1  0  0  0
 47122  1  0  0  0
 47123  1  0  0  0
 48 56  1  0  0  0
 48 65  1  0  0  0
 48124  1  0  0  0
 49 50  1  0  0  0
 49 53  1  0  0  0
 49 64  1  0  0  0
 49125  1  0  0  0
 50 51  1  0  0  0
 50126  1  0  0  0
 50127  1  0  0  0
 51 52  1  0  0  0
 51128  1  0  0  0
 51129  1  0  0  0
 52130  1  0  0  0
 52131  1  0  0  0
 53 54  1  0  0  0
 54 55  2  0  0  0
 54132  1  0  0  0
 55 57  1  0  0  0
 55133  1  0  0  0
 56 69  2  0  0  0
 57 58  2  0  0  0
 57134  1  0  0  0
 58135  1  0  0  0
 59 60  1  0  0  0
 59 61  1  0  0  0
 59 62  1  0  0  0
 60136  1  0  0  0
 60137  1  0  0  0
 60138  1  0  0  0
 61139  1  0  0  0
 61140  1  0  0  0
 61141  1  0  0  0
 62142  1  0  0  0
 62143  1  0  0  0
 62144  1  0  0  0
 63 65  1  0  0  0
 63145  1  0  0  0
 63146  1  0  0  0
 63147  1  0  0  0
 64148  1  0  0  0
 65149  1  0  0  0
 68 86  1  0  0  0
 71 74  2  0  0  0
 71 75  1  0  0  0
 71150  1  0  0  0
 72 75  2  0  0  0
 72 76  1  0  0  0
 72151  1  0  0  0
 73 74  1  0  0  0
 73 76  2  0  0  0
 73 85  1  0  0  0
 74 87  1  0  0  0
 75 88  1  0  0  0
 76 90  1  0  0  0
 77 78  1  0  0  0
 77 80  1  0  0  0
 77152  1  0  0  0
 77153  1  0  0  0
 78 81  1  0  0  0
 78154  1  0  0  0
 78155  1  0  0  0
 79 82  1  0  0  0
 79 84  1  0  0  0
 79156  1  0  0  0
 79157  1  0  0  0
 80 87  1  0  0  0
 80158  1  0  0  0
 80159  1  0  0  0
 81 87  1  0  0  0
 81160  1  0  0  0
 81161  1  0  0  0
 82 89  1  0  0  0
 82162  1  0  0  0
 82163  1  0  0  0
 83 84  1  0  0  0
 83 89  1  0  0  0
 83164  1  0  0  0
 83165  1  0  0  0
 84 86  1  0  0  0
 84166  1  0  0  0
 85167  1  0  0  0
 85168  1  0  0  0
 85 89  1  0  0  0
 86169  1  0  0  0
 86170  1  0  0  0
 88171  1  0  0  0
 89172  1  0  0  0
M  CHG  1  89   1
M  ISO  4   1 100  68 101  86 101  88 100
M  END
> <chiral flag>
0

> <version>
0

> <s_m_source_file>
/data/baiqing/PycharmProjects/Reinvent-master-3.2/result/LINK_invent/BTK/process_docking_weight1_custom_product_contain_oxygen_bond_distance_aromatic_linkinvent_7_9_3/rearranged_h_0026.sdf

> <i_m_source_file_index>
7

> <r_mmod_Potential_Energy-OPLS-2005>
60.0794486999512

> <r_mmod_Stretch_Energy-OPLS-2005>
45.7809181213379

> <r_mmod_Bend_Energy-OPLS-2005>
181.012542724609

> <r_mmod_Torsional_Energy-OPLS-2005>
381.096893310547

> <r_mmod_Improper_Torsional_Energy-OPLS-2005>
6.192138671875

> <r_mmod_Van_der_Waal_Energy-OPLS-2005>
139.157470703125

> <r_mmod_Electrostatic_Energy-OPLS-2005>
-277.717559814453

> <r_mmod_Solvation_Energy-OPLS-2005>
-430.466278076172

> <b_mmod_Minimization_Converged-OPLS-2005>
0

> <r_mmod_RMS_Derivative-OPLS-2005>
1.69735288619995

$$$$
7
                    3D
 Structure written by MMmdl.
155164  0  0  1  0            999 V2000
  -30.5744  -14.8724   20.4528 C   0  0  0  0  0  0
  -30.4508  -12.5621   19.4352 C   0  0  0  0  0  0
  -29.5013  -12.5243   18.2133 C   0  0  0  0  0  0
  -28.0369  -12.3035   18.6440 C   0  0  0  0  0  0
  -27.6368  -13.1984   19.8431 C   0  0  2  0  0  0
  -28.7073  -13.1281   20.9568 C   0  0  0  0  0  0
  -25.2493  -13.8077   20.5678 C   0  0  0  0  0  0
  -24.1778  -13.0361   20.9207 C   0  0  0  0  0  0
  -24.6361  -11.6843   20.8783 C   0  0  0  0  0  0
  -23.9058  -10.4232   21.0441 C   0  0  0  0  0  0
  -24.3624   -9.4147   21.9206 C   0  0  0  0  0  0
  -23.6274   -8.2202   22.0776 C   0  0  0  0  0  0
  -22.4253   -8.0270   21.3579 C   0  0  0  0  0  0
  -21.9908   -9.0244   20.4679 C   0  0  0  0  0  0
  -22.7245  -10.2101   20.3076 C   0  0  0  0  0  0
  -21.6845   -6.0731   22.5298 C   0  0  0  0  0  0
  -21.3991   -6.5632   23.8225 C   0  0  0  0  0  0
  -21.3639   -5.6787   24.9193 C   0  0  0  0  0  0
  -21.6039   -4.3048   24.7242 C   0  0  0  0  0  0
  -21.8824   -3.8148   23.4363 C   0  0  0  0  0  0
  -21.9187   -4.6960   22.3418 C   0  0  0  0  0  0
  -22.7810  -13.5176   21.1859 C   0  0  0  0  0  0
  -22.1667   -4.2157   21.1001 F   0  0  0  0  0  0
  -21.5643   -3.4523   25.7745 F   0  0  0  0  0  0
  -29.9563  -13.6241   20.3572 N   0  0  0  0  0  0
  -26.2914  -12.9232   20.3292 N   0  0  0  0  0  0
  -25.9281  -11.6413   20.5775 N   0  0  0  0  0  0
  -22.0455  -12.8196   22.0441 N   0  0  0  0  0  0
  -25.4110  -15.1799   20.4070 N   0  0  0  0  0  0
  -31.7851  -14.9037   20.2056 O   0  0  0  0  0  0
  -21.6624   -6.8871   21.4261 O   0  0  0  0  0  0
  -22.3503  -14.5477   20.6681 O   0  0  0  0  0  0
  -24.6376  -31.8515   23.1948 C   0  0  0  0  0  0
  -25.9165  -32.4754   23.8314 C   0  0  1  0  0  0
  -27.2245  -27.2120   20.1284 C   0  0  0  0  0  0
  -25.5934  -33.8559   24.2235 N   0  0  0  0  0  0
  -23.4379  -30.4710   21.5401 C   0  0  2  0  0  0
  -24.8868  -28.9098   20.1102 C   0  0  0  0  0  0
  -22.7542  -29.4582   22.4907 C   0  0  0  0  0  0
  -18.0303  -28.1403   22.8487 C   0  0  0  0  0  0
  -24.1478  -36.7266   23.2639 C   0  0  0  0  0  0
  -25.9885  -30.7465   21.3821 C   0  0  0  0  0  0
  -26.0620  -29.3653   20.7223 C   0  0  0  0  0  0
  -27.2341  -28.5312   20.7160 C   0  0  0  0  0  0
  -26.0262  -26.8408   19.4811 C   0  0  0  0  0  0
  -24.8772  -27.6591   19.4751 C   0  0  0  0  0  0
  -23.6598  -29.8039   20.1576 C   0  0  0  0  0  0
  -25.4107  -36.3072   24.0330 C   0  0  1  0  0  0
  -20.5908  -28.3717   23.1259 C   0  0  2  0  0  0
  -20.6786  -26.9425   22.5413 C   0  0  0  0  0  0
  -19.5755  -26.6391   21.5225 C   0  0  0  0  0  0
  -18.1942  -26.7939   22.1636 C   0  0  0  0  0  0
  -19.1556  -28.8880   23.2865 C   0  0  0  0  0  0
  -18.9467  -30.1472   23.8900 C   0  0  0  0  0  0
  -17.6464  -30.6598   24.0572 C   0  0  0  0  0  0
  -25.9059  -34.9449   23.5094 C   0  0  0  0  0  0
  -16.5357  -29.9096   23.6337 C   0  0  0  0  0  0
  -16.7289  -28.6512   23.0366 C   0  0  0  0  0  0
  -26.4517  -31.6605   25.0730 C   0  0  0  0  0  0
  -25.3704  -31.3776   26.1424 C   0  0  0  0  0  0
  -27.0380  -30.3020   24.6253 C   0  0  0  0  0  0
  -27.6062  -32.4366   25.7492 C   0  0  0  0  0  0
  -27.5581  -37.1775   24.8461 C   0  0  0  0  0  0
  -21.4243  -29.3051   22.3644 N   0  0  0  0  0  0
  -26.4275  -37.3779   23.9437 N   0  0  0  0  0  0
  -24.7076  -31.0417   22.0956 N   0  0  0  0  0  0
  -23.4217  -28.8132   23.3037 O   0  0  0  0  0  0
  -28.3001  -26.2756   20.1818 O   0  0  0  0  0  0
  -26.5638  -34.8937   22.4672 O   0  0  0  0  0  0
  -23.5507  -32.1362   23.7206 O   0  0  0  0  0  0
  -28.8830  -20.9901   18.2505 C   0  0  0  0  0  0
  -29.1070  -19.7081   17.7085 C   0  0  0  0  0  0
  -29.5648  -20.1707   20.3886 C   0  0  0  0  0  0
  -29.8084  -18.8114   19.8666 C   0  0  0  0  0  0
  -29.0837  -21.3333   19.6151 C   0  0  0  0  0  0
  -29.5585  -18.6377   18.4931 C   0  0  0  0  0  0
  -29.0327  -23.7743   20.9525 C   0  0  0  0  0  0
  -28.2866  -23.7925   19.0305 C   0  0  0  0  0  0
  -27.9960  -24.7741   20.2293 C   0  0  2  0  0  0
  -28.4216  -16.2629   20.8234 C   0  0  0  0  0  0
  -30.4476  -17.5446   20.6456 C   0  0  0  0  0  0
  -28.7440  -22.7603   20.0003 N   0  0  0  0  0  0
  -29.8639  -16.1055   20.5987 N   0  0  0  0  0  0
  -29.8034  -23.8014   21.8922 O   0  0  0  0  0  0
  -29.7913  -17.4392   17.9046 F   0  0  0  0  0  0
  -31.4702  -12.7512   19.0951 H   0  0  0  0  0  0
  -30.4889  -11.5893   19.9296 H   0  0  0  0  0  0
  -29.8046  -11.7415   17.5184 H   0  0  0  0  0  0
  -29.5804  -13.4636   17.6641 H   0  0  0  0  0  0
  -27.9300  -11.2522   18.9158 H   0  0  0  0  0  0
  -27.3636  -12.4734   17.8030 H   0  0  0  0  0  0
  -27.6104  -14.1954   19.4222 H   0  0  0  0  0  0
  -28.8251  -12.0958   21.2855 H   0  0  0  0  0  0
  -28.4394  -13.6480   21.8711 H   0  0  0  0  0  0
  -25.2792   -9.5589   22.4746 H   0  0  0  0  0  0
  -23.9983   -7.4579   22.7479 H   0  0  0  0  0  0
  -21.0839   -8.8770   19.8988 H   0  0  0  0  0  0
  -22.3743  -10.9642   19.6170 H   0  0  0  0  0  0
  -21.1973   -7.6139   23.9734 H   0  0  0  0  0  0
  -21.1456   -6.0521   25.9091 H   0  0  0  0  0  0
  -22.0617   -2.7615   23.2873 H   0  0  0  0  0  0
  -22.4046  -11.9839   22.4812 H   0  0  0  0  0  0
  -21.1102  -13.1282   22.2674 H   0  0  0  0  0  0
  -24.6505  -15.8399   20.5312 H   0  0  0  0  0  0
  -26.2716  -15.6234   20.1187 H   0  0  0  0  0  0
  -26.7237  -32.5389   23.1056 H   0  0  0  0  0  0
  -25.0077  -33.9691   25.0378 H   0  0  0  0  0  0
  -22.7365  -31.2950   21.3914 H   0  0  0  0  0  0
  -23.3774  -35.9561   23.3276 H   0  0  0  0  0  0
  -24.3561  -36.8918   22.2056 H   0  0  0  0  0  0
  -23.7188  -37.6442   23.6678 H   0  0  0  0  0  0
  -26.1317  -31.5054   20.6114 H   0  0  0  0  0  0
  -26.8636  -30.7980   22.0187 H   0  0  0  0  0  0
  -28.1311  -28.8748   21.2113 H   0  0  0  0  0  0
  -25.9549  -25.8881   18.9769 H   0  0  0  0  0  0
  -23.9816  -27.3102   18.9804 H   0  0  0  0  0  0
  -23.7917  -30.5821   19.4042 H   0  0  0  0  0  0
  -22.7755  -29.2436   19.8483 H   0  0  0  0  0  0
  -25.1286  -36.1910   25.0818 H   0  0  0  0  0  0
  -20.9995  -28.3306   24.1381 H   0  0  0  0  0  0
  -20.5697  -26.2330   23.3629 H   0  0  0  0  0  0
  -21.6650  -26.7455   22.1195 H   0  0  0  0  0  0
  -19.6912  -25.6300   21.1263 H   0  0  0  0  0  0
  -19.6688  -27.3202   20.6754 H   0  0  0  0  0  0
  -17.4206  -26.6695   21.4049 H   0  0  0  0  0  0
  -18.0331  -26.0091   22.9037 H   0  0  0  0  0  0
  -19.7944  -30.7285   24.2282 H   0  0  0  0  0  0
  -17.5023  -31.6272   24.5176 H   0  0  0  0  0  0
  -15.5359  -30.3001   23.7659 H   0  0  0  0  0  0
  -15.8691  -28.0832   22.7089 H   0  0  0  0  0  0
  -24.5859  -30.7170   25.7721 H   0  0  0  0  0  0
  -24.8920  -32.2958   26.4844 H   0  0  0  0  0  0
  -25.7971  -30.8925   27.0211 H   0  0  0  0  0  0
  -26.2990  -29.6754   24.1250 H   0  0  0  0  0  0
  -27.4027  -29.7310   25.4802 H   0  0  0  0  0  0
  -27.8880  -30.4310   23.9546 H   0  0  0  0  0  0
  -27.2667  -33.3669   26.2064 H   0  0  0  0  0  0
  -28.3855  -32.6937   25.0303 H   0  0  0  0  0  0
  -28.0756  -31.8505   26.5403 H   0  0  0  0  0  0
  -28.2573  -38.0101   24.7580 H   0  0  0  0  0  0
  -28.1106  -36.2645   24.6197 H   0  0  0  0  0  0
  -27.2315  -37.1315   25.8862 H   0  0  0  0  0  0
  -20.9451  -29.8735   21.6801 H   0  0  0  0  0  0
  -26.0156  -38.2843   24.1492 H   0  0  0  0  0  0
  -28.5418  -21.7350   17.5473 H   0  0  0  0  0  0
  -28.9457  -19.5443   16.6524 H   0  0  0  0  0  0
  -29.7550  -20.3315   21.4411 H   0  0  0  0  0  0
  -29.0860  -24.1356   18.3677 H   0  0  0  0  0  0
  -27.3931  -23.5203   18.4665 H   0  0  0  0  0  0
  -26.9889  -24.6136   20.6179 H   0  0  0  0  0  0
  -27.9835  -15.5635   21.5216 H   0  0  0  0  0  0
  -27.9010  -16.2371   19.8691 H   0  0  0  0  0  0
  -28.1717  -17.2270   21.2664 H   0  0  0  0  0  0
  -30.5150  -17.8200   21.6977 H   0  0  0  0  0  0
  -31.4857  -17.4909   20.3135 H   0  0  0  0  0  0
  1 25  1  0  0  0
  1 30  2  0  0  0
  1 83  1  0  0  0
  2  3  1  0  0  0
  2 25  1  0  0  0
  2 86  1  0  0  0
  2 87  1  0  0  0
  3  4  1  0  0  0
  3 88  1  0  0  0
  3 89  1  0  0  0
  4  5  1  0  0  0
  4 90  1  0  0  0
  4 91  1  0  0  0
  5  6  1  0  0  0
  5 26  1  0  0  0
  5 92  1  0  0  0
  6 25  1  0  0  0
  6 93  1  0  0  0
  6 94  1  0  0  0
  7  8  2  0  0  0
  7 26  1  0  0  0
  7 29  1  0  0  0
  8  9  1  0  0  0
  8 22  1  0  0  0
  9 10  1  0  0  0
  9 27  2  0  0  0
 10 11  2  0  0  0
 10 15  1  0  0  0
 11 12  1  0  0  0
 11 95  1  0  0  0
 12 13  2  0  0  0
 12 96  1  0  0  0
 13 14  1  0  0  0
 13 31  1  0  0  0
 14 15  2  0  0  0
 14 97  1  0  0  0
 15 98  1  0  0  0
 16 17  2  0  0  0
 16 21  1  0  0  0
 16 31  1  0  0  0
 17 18  1  0  0  0
 17 99  1  0  0  0
 18 19  2  0  0  0
 18100  1  0  0  0
 19 20  1  0  0  0
 19 24  1  0  0  0
 20 21  2  0  0  0
 20101  1  0  0  0
 21 23  1  0  0  0
 22 28  1  0  0  0
 22 32  2  0  0  0
 26 27  1  0  0  0
 28102  1  0  0  0
 28103  1  0  0  0
 29104  1  0  0  0
 29105  1  0  0  0
 33 34  1  0  0  0
 33 66  1  0  0  0
 33 70  2  0  0  0
 34 36  1  0  0  0
 34 59  1  0  0  0
 34106  1  0  0  0
 35 44  2  0  0  0
 35 45  1  0  0  0
 35 68  1  0  0  0
 36 56  1  0  0  0
 36107  1  0  0  0
 37 39  1  0  0  0
 37 47  1  0  0  0
 37 66  1  0  0  0
 37108  1  0  0  0
 38 43  2  0  0  0
 38 46  1  0  0  0
 38 47  1  0  0  0
 39 64  1  0  0  0
 39 67  2  0  0  0
 40 52  1  0  0  0
 40 53  2  0  0  0
 40 58  1  0  0  0
 41109  1  0  0  0
 41110  1  0  0  0
 41111  1  0  0  0
 41 48  1  0  0  0
 42 43  1  0  0  0
 42 66  1  0  0  0
 42112  1  0  0  0
 42113  1  0  0  0
 43 44  1  0  0  0
 44114  1  0  0  0
 45 46  2  0  0  0
 45115  1  0  0  0
 46116  1  0  0  0
 47117  1  0  0  0
 47118  1  0  0  0
 48 56  1  0  0  0
 48 65  1  0  0  0
 48119  1  0  0  0
 49 50  1  0  0  0
 49 53  1  0  0  0
 49 64  1  0  0  0
 49120  1  0  0  0
 50 51  1  0  0  0
 50121  1  0  0  0
 50122  1  0  0  0
 51 52  1  0  0  0
 51123  1  0  0  0
 51124  1  0  0  0
 52125  1  0  0  0
 52126  1  0  0  0
 53 54  1  0  0  0
 54 55  2  0  0  0
 54127  1  0  0  0
 55 57  1  0  0  0
 55128  1  0  0  0
 56 69  2  0  0  0
 57 58  2  0  0  0
 57129  1  0  0  0
 58130  1  0  0  0
 59 60  1  0  0  0
 59 61  1  0  0  0
 59 62  1  0  0  0
 60131  1  0  0  0
 60132  1  0  0  0
 60133  1  0  0  0
 61134  1  0  0  0
 61135  1  0  0  0
 61136  1  0  0  0
 62137  1  0  0  0
 62138  1  0  0  0
 62139  1  0  0  0
 63 65  1  0  0  0
 63140  1  0  0  0
 63141  1  0  0  0
 63142  1  0  0  0
 64143  1  0  0  0
 65144  1  0  0  0
 68 79  1  0  0  0
 71 72  2  0  0  0
 71 75  1  0  0  0
 71145  1  0  0  0
 72 76  1  0  0  0
 72146  1  0  0  0
 73 74  1  0  0  0
 73 75  2  0  0  0
 73147  1  0  0  0
 74 76  2  0  0  0
 74 81  1  0  0  0
 75 82  1  0  0  0
 76 85  1  0  0  0
 77 79  1  0  0  0
 77 82  1  0  0  0
 77 84  2  0  0  0
 78 79  1  0  0  0
 78 82  1  0  0  0
 78148  1  0  0  0
 78149  1  0  0  0
 79150  1  0  0  0
 80 83  1  0  0  0
 80151  1  0  0  0
 80152  1  0  0  0
 80153  1  0  0  0
 81 83  1  0  0  0
 81154  1  0  0  0
 81155  1  0  0  0
M  ISO  4   1 100  68 101  79 101  83 100
M  END
> <chiral flag>
0

> <version>
0

> <s_m_source_file>
/data/baiqing/PycharmProjects/Reinvent-master-3.2/result/LINK_invent/BTK/process_docking_weight1_custom_product_contain_oxygen_bond_distance_aromatic_linkinvent_7_9_3/rearranged_h_0026.sdf

> <i_m_source_file_index>
8

> <r_mmod_Potential_Energy-OPLS-2005>
466.706207275391

> <r_mmod_Stretch_Energy-OPLS-2005>
179.467437744141

> <r_mmod_Bend_Energy-OPLS-2005>
265.40234375

> <r_mmod_Torsional_Energy-OPLS-2005>
254.959716796875

> <r_mmod_Improper_Torsional_Energy-OPLS-2005>
6.15747499465942

> <r_mmod_Van_der_Waal_Energy-OPLS-2005>
150.751449584961

> <r_mmod_Electrostatic_Energy-OPLS-2005>
-301.085784912109

> <r_mmod_Solvation_Energy-OPLS-2005>
-220.094100952148

> <b_mmod_Minimization_Converged-OPLS-2005>
0

> <r_mmod_RMS_Derivative-OPLS-2005>
3.05083179473877

$$$$
8
                    3D
 Structure written by MMmdl.
157166  0  0  1  0            999 V2000
  -30.5552  -14.8428   20.4505 C   0  0  0  0  0  0
  -30.4415  -12.5224   19.4657 C   0  0  0  0  0  0
  -29.5100  -12.4985   18.2337 C   0  0  0  0  0  0
  -28.0380  -12.3101   18.6530 C   0  0  0  0  0  0
  -27.6308  -13.2279   19.8343 C   0  0  2  0  0  0
  -28.6784  -13.2086   20.9663 C   0  0  0  0  0  0
  -25.2501  -13.8173   20.5722 C   0  0  0  0  0  0
  -24.1762  -13.0441   20.9197 C   0  0  0  0  0  0
  -24.6355  -11.6915   20.8729 C   0  0  0  0  0  0
  -23.9035  -10.4300   21.0397 C   0  0  0  0  0  0
  -24.3604   -9.4213   21.9174 C   0  0  0  0  0  0
  -23.6279   -8.2245   22.0752 C   0  0  0  0  0  0
  -22.4266   -8.0277   21.3534 C   0  0  0  0  0  0
  -21.9888   -9.0255   20.4636 C   0  0  0  0  0  0
  -22.7207  -10.2140   20.3040 C   0  0  0  0  0  0
  -21.6854   -6.0743   22.5285 C   0  0  0  0  0  0
  -21.4016   -6.5646   23.8222 C   0  0  0  0  0  0
  -21.3646   -5.6789   24.9183 C   0  0  0  0  0  0
  -21.6038   -4.3052   24.7225 C   0  0  0  0  0  0
  -21.8812   -3.8147   23.4347 C   0  0  0  0  0  0
  -21.9194   -4.6968   22.3403 C   0  0  0  0  0  0
  -22.7796  -13.5230   21.1849 C   0  0  0  0  0  0
  -22.1663   -4.2158   21.0980 F   0  0  0  0  0  0
  -21.5616   -3.4523   25.7729 F   0  0  0  0  0  0
  -29.9619  -13.5973   20.3663 N   0  0  0  0  0  0
  -26.2885  -12.9360   20.3221 N   0  0  0  0  0  0
  -25.9273  -11.6527   20.5719 N   0  0  0  0  0  0
  -22.0448  -12.8241   22.0418 N   0  0  0  0  0  0
  -25.4194  -15.1917   20.4246 N   0  0  0  0  0  0
  -31.7651  -14.9389   20.2209 O   0  0  0  0  0  0
  -21.6635   -6.8873   21.4238 O   0  0  0  0  0  0
  -22.3476  -14.5538   20.6702 O   0  0  0  0  0  0
  -24.6356  -31.8512   23.1907 C   0  0  0  0  0  0
  -25.9164  -32.4737   23.8271 C   0  0  1  0  0  0
  -27.2214  -27.1982   20.1457 C   0  0  0  0  0  0
  -25.5963  -33.8535   24.2218 N   0  0  0  0  0  0
  -23.4354  -30.4690   21.5353 C   0  0  2  0  0  0
  -24.8852  -28.9030   20.1091 C   0  0  0  0  0  0
  -22.7526  -29.4584   22.4887 C   0  0  0  0  0  0
  -18.0294  -28.1393   22.8487 C   0  0  0  0  0  0
  -24.1484  -36.7268   23.2636 C   0  0  0  0  0  0
  -25.9854  -30.7453   21.3783 C   0  0  0  0  0  0
  -26.0574  -29.3601   20.7230 C   0  0  0  0  0  0
  -27.2243  -28.5209   20.7277 C   0  0  0  0  0  0
  -26.0216  -26.8209   19.5034 C   0  0  0  0  0  0
  -24.8784  -27.6455   19.4860 C   0  0  0  0  0  0
  -23.6562  -29.7956   20.1531 C   0  0  0  0  0  0
  -25.4118  -36.3063   24.0307 C   0  0  1  0  0  0
  -20.5911  -28.3704   23.1261 C   0  0  2  0  0  0
  -20.6794  -26.9420   22.5400 C   0  0  0  0  0  0
  -19.5766  -26.6401   21.5209 C   0  0  0  0  0  0
  -18.1937  -26.7932   22.1608 C   0  0  0  0  0  0
  -19.1555  -28.8856   23.2877 C   0  0  0  0  0  0
  -18.9487  -30.1451   23.8907 C   0  0  0  0  0  0
  -17.6490  -30.6596   24.0558 C   0  0  0  0  0  0
  -25.9070  -34.9438   23.5066 C   0  0  0  0  0  0
  -16.5375  -29.9112   23.6326 C   0  0  0  0  0  0
  -16.7279  -28.6524   23.0354 C   0  0  0  0  0  0
  -26.4504  -31.6570   25.0676 C   0  0  0  0  0  0
  -25.3696  -31.3754   26.1373 C   0  0  0  0  0  0
  -27.0355  -30.2976   24.6206 C   0  0  0  0  0  0
  -27.6067  -32.4315   25.7469 C   0  0  0  0  0  0
  -27.5580  -37.1786   24.8470 C   0  0  0  0  0  0
  -21.4226  -29.3065   22.3659 N   0  0  0  0  0  0
  -26.4299  -37.3760   23.9398 N   0  0  0  0  0  0
  -24.7054  -31.0423   22.0907 N   0  0  0  0  0  0
  -23.4201  -28.8121   23.3005 O   0  0  0  0  0  0
  -28.3175  -26.2857   20.2220 O   0  0  0  0  0  0
  -26.5654  -34.8932   22.4645 O   0  0  0  0  0  0
  -23.5493  -32.1387   23.7159 O   0  0  0  0  0  0
  -29.9762  -20.0938   22.0605 C   0  0  0  0  0  0
  -29.3972  -18.6057   20.2347 C   0  0  0  0  0  0
  -29.4245  -19.9823   20.7666 C   0  0  0  0  0  0
  -30.4356  -18.9646   22.7821 C   0  0  0  0  0  0
  -29.8856  -17.4047   20.9379 C   0  0  0  0  0  0
  -30.3841  -17.6481   22.2473 C   0  0  0  0  0  0
  -29.5273  -23.9144   19.7877 C   0  0  0  0  0  0
  -27.7559  -23.6522   20.8218 C   0  0  0  0  0  0
  -28.2290  -24.7997   19.8509 C   0  0  1  0  0  0
  -30.9628  -19.1813   24.1939 C   0  0  0  0  0  0
  -28.8670  -21.3242   20.0206 C   0  0  0  0  0  0
  -29.7216  -15.9752   20.4744 N   0  0  0  0  0  0
  -28.9668  -22.7813   20.6014 N   0  3  1  0  0  0
  -30.8534  -16.3309   23.2775 Cl  0  0  0  0  0  0
  -31.4738  -12.6822   19.1484 H   0  0  0  0  0  0
  -30.4260  -11.5642   19.9868 H   0  0  0  0  0  0
  -29.8042  -11.6975   17.5546 H   0  0  0  0  0  0
  -29.6156  -13.4292   17.6732 H   0  0  0  0  0  0
  -27.9087  -11.2677   18.9431 H   0  0  0  0  0  0
  -27.3765  -12.4671   17.7995 H   0  0  0  0  0  0
  -27.6070  -14.2339   19.4192 H   0  0  0  0  0  0
  -28.7421  -12.2218   21.4289 H   0  0  0  0  0  0
  -28.3948  -13.9016   21.7606 H   0  0  0  0  0  0
  -25.2754   -9.5716   22.4736 H   0  0  0  0  0  0
  -23.9992   -7.4644   22.7480 H   0  0  0  0  0  0
  -21.0816   -8.8777   19.8949 H   0  0  0  0  0  0
  -22.3649  -10.9695   19.6154 H   0  0  0  0  0  0
  -21.2010   -7.6153   23.9730 H   0  0  0  0  0  0
  -21.1470   -6.0521   25.9083 H   0  0  0  0  0  0
  -22.0594   -2.7610   23.2858 H   0  0  0  0  0  0
  -22.4062  -11.9914   22.4856 H   0  0  0  0  0  0
  -21.1077  -13.1288   22.2599 H   0  0  0  0  0  0
  -24.6509  -15.8416   20.5509 H   0  0  0  0  0  0
  -26.2679  -15.6441   20.1128 H   0  0  0  0  0  0
  -26.7223  -32.5347   23.1000 H   0  0  0  0  0  0
  -25.0062  -33.9639   25.0337 H   0  0  0  0  0  0
  -22.7334  -31.2914   21.3828 H   0  0  0  0  0  0
  -23.3755  -35.9594   23.3312 H   0  0  0  0  0  0
  -24.3569  -36.8886   22.2055 H   0  0  0  0  0  0
  -23.7228  -37.6458   23.6668 H   0  0  0  0  0  0
  -26.1260  -31.4999   20.6037 H   0  0  0  0  0  0
  -26.8627  -30.7982   22.0139 H   0  0  0  0  0  0
  -28.1193  -28.8638   21.2270 H   0  0  0  0  0  0
  -25.9294  -25.8562   19.0276 H   0  0  0  0  0  0
  -23.9816  -27.2879   19.0006 H   0  0  0  0  0  0
  -23.7771  -30.5694   19.3928 H   0  0  0  0  0  0
  -22.7748  -29.2284   19.8505 H   0  0  0  0  0  0
  -25.1297  -36.1898   25.0794 H   0  0  0  0  0  0
  -20.9984  -28.3279   24.1397 H   0  0  0  0  0  0
  -20.5712  -26.2304   23.3598 H   0  0  0  0  0  0
  -21.6631  -26.7463   22.1137 H   0  0  0  0  0  0
  -19.6922  -25.6321   21.1243 H   0  0  0  0  0  0
  -19.6718  -27.3209   20.6725 H   0  0  0  0  0  0
  -17.4201  -26.6683   21.4007 H   0  0  0  0  0  0
  -18.0349  -26.0085   22.9016 H   0  0  0  0  0  0
  -19.7970  -30.7257   24.2296 H   0  0  0  0  0  0
  -17.5057  -31.6273   24.5173 H   0  0  0  0  0  0
  -15.5375  -30.3009   23.7672 H   0  0  0  0  0  0
  -15.8672  -28.0836   22.7078 H   0  0  0  0  0  0
  -24.5885  -30.7094   25.7686 H   0  0  0  0  0  0
  -24.8861  -32.2929   26.4737 H   0  0  0  0  0  0
  -25.7960  -30.8967   27.0190 H   0  0  0  0  0  0
  -26.2943  -29.6729   24.1210 H   0  0  0  0  0  0
  -27.3989  -29.7243   25.4743 H   0  0  0  0  0  0
  -27.8853  -30.4230   23.9490 H   0  0  0  0  0  0
  -27.2673  -33.3627   26.2017 H   0  0  0  0  0  0
  -28.3893  -32.6839   25.0304 H   0  0  0  0  0  0
  -28.0715  -31.8448   26.5400 H   0  0  0  0  0  0
  -28.2589  -38.0087   24.7496 H   0  0  0  0  0  0
  -28.1063  -36.2608   24.6308 H   0  0  0  0  0  0
  -27.2293  -37.1461   25.8872 H   0  0  0  0  0  0
  -20.9409  -29.8818   21.6891 H   0  0  0  0  0  0
  -26.0176  -38.2829   24.1400 H   0  0  0  0  0  0
  -30.0270  -21.0593   22.5403 H   0  0  0  0  0  0
  -28.9737  -18.4674   19.2490 H   0  0  0  0  0  0
  -30.3786  -24.3772   20.2902 H   0  0  0  0  0  0
  -29.8022  -23.6297   18.7722 H   0  0  0  0  0  0
  -26.8209  -23.1781   20.5182 H   0  0  0  0  0  0
  -27.6913  -23.9830   21.8577 H   0  0  0  0  0  0
  -27.7347  -24.6996   18.8851 H   0  0  0  0  0  0
  -31.0141  -20.2378   24.4552 H   0  0  0  0  0  0
  -31.9648  -18.7651   24.2985 H   0  0  0  0  0  0
  -30.3149  -18.6923   24.9222 H   0  0  0  0  0  0
  -27.8160  -21.1354   19.7990 H   0  0  0  0  0  0
  -29.3530  -21.3400   19.0449 H   0  0  0  0  0  0
  -28.7623  -15.7354   20.2851 H   0  0  0  0  0  0
  -29.4925  -22.7363   21.4600 H   0  0  0  0  0  0
  1 25  1  0  0  0
  1 30  2  0  0  0
  1 82  1  0  0  0
  2  3  1  0  0  0
  2 25  1  0  0  0
  2 85  1  0  0  0
  2 86  1  0  0  0
  3  4  1  0  0  0
  3 87  1  0  0  0
  3 88  1  0  0  0
  4  5  1  0  0  0
  4 89  1  0  0  0
  4 90  1  0  0  0
  5  6  1  0  0  0
  5 26  1  0  0  0
  5 91  1  0  0  0
  6 25  1  0  0  0
  6 92  1  0  0  0
  6 93  1  0  0  0
  7  8  2  0  0  0
  7 26  1  0  0  0
  7 29  1  0  0  0
  8  9  1  0  0  0
  8 22  1  0  0  0
  9 10  1  0  0  0
  9 27  2  0  0  0
 10 11  2  0  0  0
 10 15  1  0  0  0
 11 12  1  0  0  0
 11 94  1  0  0  0
 12 13  2  0  0  0
 12 95  1  0  0  0
 13 14  1  0  0  0
 13 31  1  0  0  0
 14 15  2  0  0  0
 14 96  1  0  0  0
 15 97  1  0  0  0
 16 17  2  0  0  0
 16 21  1  0  0  0
 16 31  1  0  0  0
 17 18  1  0  0  0
 17 98  1  0  0  0
 18 19  2  0  0  0
 18 99  1  0  0  0
 19 20  1  0  0  0
 19 24  1  0  0  0
 20 21  2  0  0  0
 20100  1  0  0  0
 21 23  1  0  0  0
 22 28  1  0  0  0
 22 32  2  0  0  0
 26 27  1  0  0  0
 28101  1  0  0  0
 28102  1  0  0  0
 29103  1  0  0  0
 29104  1  0  0  0
 33 34  1  0  0  0
 33 66  1  0  0  0
 33 70  2  0  0  0
 34 36  1  0  0  0
 34 59  1  0  0  0
 34105  1  0  0  0
 35 44  2  0  0  0
 35 45  1  0  0  0
 35 68  1  0  0  0
 36 56  1  0  0  0
 36106  1  0  0  0
 37 39  1  0  0  0
 37 47  1  0  0  0
 37 66  1  0  0  0
 37107  1  0  0  0
 38 43  2  0  0  0
 38 46  1  0  0  0
 38 47  1  0  0  0
 39 64  1  0  0  0
 39 67  2  0  0  0
 40 52  1  0  0  0
 40 53  2  0  0  0
 40 58  1  0  0  0
 41108  1  0  0  0
 41109  1  0  0  0
 41110  1  0  0  0
 41 48  1  0  0  0
 42 43  1  0  0  0
 42 66  1  0  0  0
 42111  1  0  0  0
 42112  1  0  0  0
 43 44  1  0  0  0
 44113  1  0  0  0
 45 46  2  0  0  0
 45114  1  0  0  0
 46115  1  0  0  0
 47116  1  0  0  0
 47117  1  0  0  0
 48 56  1  0  0  0
 48 65  1  0  0  0
 48118  1  0  0  0
 49 50  1  0  0  0
 49 53  1  0  0  0
 49 64  1  0  0  0
 49119  1  0  0  0
 50 51  1  0  0  0
 50120  1  0  0  0
 50121  1  0  0  0
 51 52  1  0  0  0
 51122  1  0  0  0
 51123  1  0  0  0
 52124  1  0  0  0
 52125  1  0  0  0
 53 54  1  0  0  0
 54 55  2  0  0  0
 54126  1  0  0  0
 55 57  1  0  0  0
 55127  1  0  0  0
 56 69  2  0  0  0
 57 58  2  0  0  0
 57128  1  0  0  0
 58129  1  0  0  0
 59 60  1  0  0  0
 59 61  1  0  0  0
 59 62  1  0  0  0
 60130  1  0  0  0
 60131  1  0  0  0
 60132  1  0  0  0
 61133  1  0  0  0
 61134  1  0  0  0
 61135  1  0  0  0
 62136  1  0  0  0
 62137  1  0  0  0
 62138  1  0  0  0
 63 65  1  0  0  0
 63139  1  0  0  0
 63140  1  0  0  0
 63141  1  0  0  0
 64142  1  0  0  0
 65143  1  0  0  0
 68 79  1  0  0  0
 71 73  2  0  0  0
 71 74  1  0  0  0
 71144  1  0  0  0
 72 73  1  0  0  0
 72 75  2  0  0  0
 72145  1  0  0  0
 73 81  1  0  0  0
 74 76  2  0  0  0
 74 80  1  0  0  0
 75 76  1  0  0  0
 75 82  1  0  0  0
 76 84  1  0  0  0
 77 79  1  0  0  0
 77 83  1  0  0  0
 77146  1  0  0  0
 77147  1  0  0  0
 78 79  1  0  0  0
 78 83  1  0  0  0
 78148  1  0  0  0
 78149  1  0  0  0
 79150  1  0  0  0
 80151  1  0  0  0
 80152  1  0  0  0
 80153  1  0  0  0
 81154  1  0  0  0
 81155  1  0  0  0
 81 83  1  0  0  0
 82156  1  0  0  0
 83157  1  0  0  0
M  CHG  1  83   1
M  ISO  4   1 100  68 101  79 101  82 100
M  END
> <chiral flag>
0

> <version>
0

> <s_m_source_file>
/data/baiqing/PycharmProjects/Reinvent-master-3.2/result/LINK_invent/BTK/process_docking_weight1_custom_product_contain_oxygen_bond_distance_aromatic_linkinvent_7_9_3/rearranged_h_0026.sdf

> <i_m_source_file_index>
9

> <r_mmod_Potential_Energy-OPLS-2005>
128.47737121582

> <r_mmod_Stretch_Energy-OPLS-2005>
173.168045043945

> <r_mmod_Bend_Energy-OPLS-2005>
220.455505371094

> <r_mmod_Torsional_Energy-OPLS-2005>
272.588806152344

> <r_mmod_Improper_Torsional_Energy-OPLS-2005>
9.21645355224609

> <r_mmod_Van_der_Waal_Energy-OPLS-2005>
133.757232666016

> <r_mmod_Electrostatic_Energy-OPLS-2005>
-319.910552978516

> <r_mmod_Solvation_Energy-OPLS-2005>
-493.5537109375

> <b_mmod_Minimization_Converged-OPLS-2005>
0

> <r_mmod_RMS_Derivative-OPLS-2005>
3.22349572181702

$$$$
9
                    3D
 Structure written by MMmdl.
175185  0  0  1  0            999 V2000
  -30.6042  -14.7537   20.4605 C   0  0  0  0  0  0
  -30.4338  -12.4623   19.4635 C   0  0  0  0  0  0
  -29.5064  -12.5036   18.2291 C   0  0  0  0  0  0
  -28.0336  -12.3241   18.6488 C   0  0  0  0  0  0
  -27.6386  -13.2285   19.8468 C   0  0  2  0  0  0
  -28.6861  -13.1691   20.9788 C   0  0  0  0  0  0
  -25.2499  -13.8190   20.5695 C   0  0  0  0  0  0
  -24.1803  -13.0433   20.9218 C   0  0  0  0  0  0
  -24.6387  -11.6916   20.8757 C   0  0  0  0  0  0
  -23.9068  -10.4288   21.0414 C   0  0  0  0  0  0
  -24.3621   -9.4203   21.9187 C   0  0  0  0  0  0
  -23.6298   -8.2236   22.0755 C   0  0  0  0  0  0
  -22.4283   -8.0273   21.3541 C   0  0  0  0  0  0
  -21.9914   -9.0248   20.4645 C   0  0  0  0  0  0
  -22.7243  -10.2129   20.3060 C   0  0  0  0  0  0
  -21.6850   -6.0735   22.5278 C   0  0  0  0  0  0
  -21.4012   -6.5642   23.8211 C   0  0  0  0  0  0
  -21.3662   -5.6795   24.9177 C   0  0  0  0  0  0
  -21.6043   -4.3055   24.7227 C   0  0  0  0  0  0
  -21.8820   -3.8149   23.4348 C   0  0  0  0  0  0
  -21.9194   -4.6960   22.3403 C   0  0  0  0  0  0
  -22.7823  -13.5209   21.1885 C   0  0  0  0  0  0
  -22.1661   -4.2154   21.0973 F   0  0  0  0  0  0
  -21.5633   -3.4535   25.7740 F   0  0  0  0  0  0
  -29.9815  -13.5268   20.3882 N   0  0  0  0  0  0
  -26.2923  -12.9392   20.3276 N   0  0  0  0  0  0
  -25.9313  -11.6541   20.5755 N   0  0  0  0  0  0
  -22.0473  -12.8187   22.0433 N   0  0  0  0  0  0
  -25.4170  -15.1917   20.4089 N   0  0  0  0  0  0
  -31.7998  -14.8447   20.1683 O   0  0  0  0  0  0
  -21.6637   -6.8878   21.4240 O   0  0  0  0  0  0
  -22.3511  -14.5509   20.6731 O   0  0  0  0  0  0
  -24.6291  -31.8531   23.1947 C   0  0  0  0  0  0
  -25.9105  -32.4737   23.8300 C   0  0  1  0  0  0
  -27.2244  -27.2592   20.1392 C   0  0  0  0  0  0
  -25.5896  -33.8542   24.2219 N   0  0  0  0  0  0
  -23.4271  -30.4732   21.5390 C   0  0  2  0  0  0
  -24.8759  -28.9097   20.1165 C   0  0  0  0  0  0
  -22.7492  -29.4591   22.4912 C   0  0  0  0  0  0
  -18.0290  -28.1401   22.8487 C   0  0  0  0  0  0
  -24.1505  -36.7295   23.2645 C   0  0  0  0  0  0
  -25.9722  -30.7647   21.3745 C   0  0  0  0  0  0
  -26.0467  -29.3853   20.7204 C   0  0  0  0  0  0
  -27.2271  -28.5745   20.7127 C   0  0  0  0  0  0
  -26.0304  -26.8382   19.5188 C   0  0  0  0  0  0
  -24.8716  -27.6441   19.5051 C   0  0  0  0  0  0
  -23.6464  -29.7991   20.1583 C   0  0  0  0  0  0
  -25.4127  -36.3065   24.0321 C   0  0  1  0  0  0
  -20.5887  -28.3704   23.1282 C   0  0  2  0  0  0
  -20.6790  -26.9425   22.5419 C   0  0  0  0  0  0
  -19.5763  -26.6398   21.5229 C   0  0  0  0  0  0
  -18.1936  -26.7941   22.1630 C   0  0  0  0  0  0
  -19.1541  -28.8871   23.2880 C   0  0  0  0  0  0
  -18.9460  -30.1474   23.8893 C   0  0  0  0  0  0
  -17.6461  -30.6600   24.0567 C   0  0  0  0  0  0
  -25.9061  -34.9431   23.5086 C   0  0  0  0  0  0
  -16.5353  -29.9095   23.6336 C   0  0  0  0  0  0
  -16.7276  -28.6521   23.0345 C   0  0  0  0  0  0
  -26.4484  -31.6552   25.0685 C   0  0  0  0  0  0
  -25.3708  -31.3666   26.1396 C   0  0  0  0  0  0
  -27.0329  -30.2969   24.6171 C   0  0  0  0  0  0
  -27.6045  -32.4299   25.7437 C   0  0  0  0  0  0
  -27.5586  -37.1788   24.8458 C   0  0  0  0  0  0
  -21.4196  -29.3036   22.3657 N   0  0  0  0  0  0
  -26.4301  -37.3759   23.9404 N   0  0  0  0  0  0
  -24.6949  -31.0494   22.0921 N   0  0  0  0  0  0
  -23.4193  -28.8144   23.3023 O   0  0  0  0  0  0
  -28.3394  -26.3955   20.1257 O   0  0  0  0  0  0
  -26.5666  -34.8909   22.4677 O   0  0  0  0  0  0
  -23.5446  -32.1377   23.7244 O   0  0  0  0  0  0
  -29.4521  -18.4809   20.2801 C   0  0  0  0  0  0
  -31.5126  -18.9216   22.1008 C   0  0  0  0  0  0
  -29.7900  -19.8600   20.6275 C   0  0  0  0  0  0
  -30.8601  -20.0476   21.5440 C   0  0  0  0  0  0
  -30.1421  -17.3150   20.8320 C   0  0  0  0  0  0
  -31.1631  -17.5970   21.7688 C   0  0  0  0  0  0
  -28.5883  -22.2325   20.5328 C   0  0  0  0  0  0
  -33.2525  -22.7231   22.2187 C   0  0  0  0  0  0
  -32.2083  -22.9712   23.3083 C   0  0  0  0  0  0
  -29.6826  -22.5400   17.9248 C   0  0  0  0  0  0
  -29.6870  -23.7518   18.8659 C   0  0  0  0  0  0
  -29.9236  -21.2091   18.6524 C   0  0  0  0  0  0
  -32.6046  -21.7043   21.2715 C   0  0  0  0  0  0
  -31.3426  -21.7186   23.2643 C   0  0  0  0  0  0
  -28.4856  -23.6493   19.8040 C   0  0  2  0  0  0
  -27.6715  -20.9603   22.5491 C   0  0  0  0  0  0
  -28.2475  -24.9986   20.6832 C   0  0  0  0  0  0
  -29.2388  -21.1184   19.9602 N   0  0  0  0  0  0
  -31.3128  -21.3473   21.8555 N   0  0  0  0  0  0
  -29.8018  -15.8880   20.5648 N   0  0  0  0  0  0
  -27.9161  -22.1416   21.7074 N   0  3  0  0  0  0
  -31.8113  -16.5893   22.4010 F   0  0  0  0  0  0
  -31.4733  -12.5938   19.1571 H   0  0  0  0  0  0
  -30.3849  -11.4877   19.9520 H   0  0  0  0  0  0
  -29.7884  -11.7279   17.5156 H   0  0  0  0  0  0
  -29.6268  -13.4566   17.7121 H   0  0  0  0  0  0
  -27.8942  -11.2764   18.9177 H   0  0  0  0  0  0
  -27.3733  -12.5094   17.8010 H   0  0  0  0  0  0
  -27.6283  -14.2471   19.4592 H   0  0  0  0  0  0
  -28.7274  -12.1727   21.4218 H   0  0  0  0  0  0
  -28.4239  -13.8528   21.7880 H   0  0  0  0  0  0
  -25.2769   -9.5674   22.4759 H   0  0  0  0  0  0
  -24.0011   -7.4623   22.7469 H   0  0  0  0  0  0
  -21.0849   -8.8770   19.8940 H   0  0  0  0  0  0
  -22.3710  -10.9670   19.6168 H   0  0  0  0  0  0
  -21.1999   -7.6153   23.9716 H   0  0  0  0  0  0
  -21.1484   -6.0524   25.9079 H   0  0  0  0  0  0
  -22.0596   -2.7608   23.2845 H   0  0  0  0  0  0
  -22.4113  -11.9855   22.4813 H   0  0  0  0  0  0
  -21.1078  -13.1189   22.2637 H   0  0  0  0  0  0
  -24.6416  -15.8377   20.5140 H   0  0  0  0  0  0
  -26.2494  -15.6318   20.0397 H   0  0  0  0  0  0
  -26.7157  -32.5382   23.1024 H   0  0  0  0  0  0
  -24.9938  -33.9667   25.0292 H   0  0  0  0  0  0
  -22.7235  -31.2952   21.3883 H   0  0  0  0  0  0
  -23.3762  -35.9628   23.3286 H   0  0  0  0  0  0
  -24.3601  -36.8967   22.2066 H   0  0  0  0  0  0
  -23.7268  -37.6487   23.6703 H   0  0  0  0  0  0
  -26.1135  -31.5217   20.6025 H   0  0  0  0  0  0
  -26.8487  -30.8139   22.0092 H   0  0  0  0  0  0
  -28.1306  -28.9371   21.1816 H   0  0  0  0  0  0
  -25.9896  -25.8679   19.0445 H   0  0  0  0  0  0
  -23.9731  -27.2754   19.0278 H   0  0  0  0  0  0
  -23.7720  -30.5720   19.3992 H   0  0  0  0  0  0
  -22.7646  -29.2335   19.8531 H   0  0  0  0  0  0
  -25.1314  -36.1903   25.0813 H   0  0  0  0  0  0
  -20.9986  -28.3305   24.1403 H   0  0  0  0  0  0
  -20.5719  -26.2316   23.3624 H   0  0  0  0  0  0
  -21.6653  -26.7466   22.1198 H   0  0  0  0  0  0
  -19.6929  -25.6316   21.1250 H   0  0  0  0  0  0
  -19.6706  -27.3216   20.6765 H   0  0  0  0  0  0
  -17.4213  -26.6689   21.4027 H   0  0  0  0  0  0
  -18.0327  -26.0088   22.9029 H   0  0  0  0  0  0
  -19.7933  -30.7292   24.2266 H   0  0  0  0  0  0
  -17.5011  -31.6267   24.5182 H   0  0  0  0  0  0
  -15.5352  -30.2993   23.7673 H   0  0  0  0  0  0
  -15.8677  -28.0846   22.7050 H   0  0  0  0  0  0
  -24.5917  -30.6983   25.7706 H   0  0  0  0  0  0
  -24.8838  -32.2804   26.4811 H   0  0  0  0  0  0
  -25.8029  -30.8848   27.0175 H   0  0  0  0  0  0
  -26.2888  -29.6687   24.1252 H   0  0  0  0  0  0
  -27.4072  -29.7263   25.4680 H   0  0  0  0  0  0
  -27.8748  -30.4243   23.9363 H   0  0  0  0  0  0
  -27.2675  -33.3633   26.1961 H   0  0  0  0  0  0
  -28.3853  -32.6805   25.0238 H   0  0  0  0  0  0
  -28.0701  -31.8443   26.5379 H   0  0  0  0  0  0
  -28.2572  -38.0114   24.7539 H   0  0  0  0  0  0
  -28.1122  -36.2646   24.6253 H   0  0  0  0  0  0
  -27.2306  -37.1400   25.8860 H   0  0  0  0  0  0
  -20.9402  -29.8729   21.6823 H   0  0  0  0  0  0
  -26.0183  -38.2832   24.1410 H   0  0  0  0  0  0
  -28.6654  -18.3201   19.5585 H   0  0  0  0  0  0
  -32.3262  -19.0621   22.7960 H   0  0  0  0  0  0
  -34.1620  -22.3020   22.6499 H   0  0  0  0  0  0
  -33.5318  -23.6440   21.7039 H   0  0  0  0  0  0
  -31.6053  -23.8438   23.0543 H   0  0  0  0  0  0
  -32.6489  -23.1432   24.2911 H   0  0  0  0  0  0
  -30.4642  -22.6711   17.1749 H   0  0  0  0  0  0
  -28.7472  -22.4915   17.3665 H   0  0  0  0  0  0
  -29.6223  -24.6736   18.2872 H   0  0  0  0  0  0
  -30.6132  -23.8022   19.4391 H   0  0  0  0  0  0
  -30.9947  -21.0900   18.8138 H   0  0  0  0  0  0
  -29.6158  -20.3807   18.0137 H   0  0  0  0  0  0
  -33.2514  -20.8345   21.1405 H   0  0  0  0  0  0
  -32.4597  -22.1464   20.2854 H   0  0  0  0  0  0
  -30.3438  -21.9168   23.6559 H   0  0  0  0  0  0
  -31.7938  -20.9365   23.8766 H   0  0  0  0  0  0
  -27.6024  -23.5835   19.1659 H   0  0  0  0  0  0
  -26.9222  -21.1920   23.3060 H   0  0  0  0  0  0
  -28.5759  -20.6408   23.0635 H   0  0  0  0  0  0
  -27.2903  -20.1290   21.9570 H   0  0  0  0  0  0
  -28.9889  -24.9720   21.4812 H   0  0  0  0  0  0
  -27.2898  -24.9017   21.1962 H   0  0  0  0  0  0
  -28.8156  -15.6915   20.5158 H   0  0  0  0  0  0
  -27.4628  -22.9776   22.0535 H   0  0  0  0  0  0
  1 25  1  0  0  0
  1 30  2  0  0  0
  1 90  1  0  0  0
  2  3  1  0  0  0
  2 25  1  0  0  0
  2 93  1  0  0  0
  2 94  1  0  0  0
  3  4  1  0  0  0
  3 95  1  0  0  0
  3 96  1  0  0  0
  4  5  1  0  0  0
  4 97  1  0  0  0
  4 98  1  0  0  0
  5  6  1  0  0  0
  5 26  1  0  0  0
  5 99  1  0  0  0
  6 25  1  0  0  0
  6100  1  0  0  0
  6101  1  0  0  0
  7  8  2  0  0  0
  7 26  1  0  0  0
  7 29  1  0  0  0
  8  9  1  0  0  0
  8 22  1  0  0  0
  9 10  1  0  0  0
  9 27  2  0  0  0
 10 11  2  0  0  0
 10 15  1  0  0  0
 11 12  1  0  0  0
 11102  1  0  0  0
 12 13  2  0  0  0
 12103  1  0  0  0
 13 14  1  0  0  0
 13 31  1  0  0  0
 14 15  2  0  0  0
 14104  1  0  0  0
 15105  1  0  0  0
 16 17  2  0  0  0
 16 21  1  0  0  0
 16 31  1  0  0  0
 17 18  1  0  0  0
 17106  1  0  0  0
 18 19  2  0  0  0
 18107  1  0  0  0
 19 20  1  0  0  0
 19 24  1  0  0  0
 20 21  2  0  0  0
 20108  1  0  0  0
 21 23  1  0  0  0
 22 28  1  0  0  0
 22 32  2  0  0  0
 26 27  1  0  0  0
 28109  1  0  0  0
 28110  1  0  0  0
 29111  1  0  0  0
 29112  1  0  0  0
 33 34  1  0  0  0
 33 66  1  0  0  0
 33 70  2  0  0  0
 34 36  1  0  0  0
 34 59  1  0  0  0
 34113  1  0  0  0
 35 44  2  0  0  0
 35 45  1  0  0  0
 35 68  1  0  0  0
 36 56  1  0  0  0
 36114  1  0  0  0
 37 39  1  0  0  0
 37 47  1  0  0  0
 37 66  1  0  0  0
 37115  1  0  0  0
 38 43  2  0  0  0
 38 46  1  0  0  0
 38 47  1  0  0  0
 39 64  1  0  0  0
 39 67  2  0  0  0
 40 52  1  0  0  0
 40 53  2  0  0  0
 40 58  1  0  0  0
 41116  1  0  0  0
 41117  1  0  0  0
 41118  1  0  0  0
 41 48  1  0  0  0
 42 43  1  0  0  0
 42 66  1  0  0  0
 42119  1  0  0  0
 42120  1  0  0  0
 43 44  1  0  0  0
 44121  1  0  0  0
 45 46  2  0  0  0
 45122  1  0  0  0
 46123  1  0  0  0
 47124  1  0  0  0
 47125  1  0  0  0
 48 56  1  0  0  0
 48 65  1  0  0  0
 48126  1  0  0  0
 49 50  1  0  0  0
 49 53  1  0  0  0
 49 64  1  0  0  0
 49127  1  0  0  0
 50 51  1  0  0  0
 50128  1  0  0  0
 50129  1  0  0  0
 51 52  1  0  0  0
 51130  1  0  0  0
 51131  1  0  0  0
 52132  1  0  0  0
 52133  1  0  0  0
 53 54  1  0  0  0
 54 55  2  0  0  0
 54134  1  0  0  0
 55 57  1  0  0  0
 55135  1  0  0  0
 56 69  2  0  0  0
 57 58  2  0  0  0
 57136  1  0  0  0
 58137  1  0  0  0
 59 60  1  0  0  0
 59 61  1  0  0  0
 59 62  1  0  0  0
 60138  1  0  0  0
 60139  1  0  0  0
 60140  1  0  0  0
 61141  1  0  0  0
 61142  1  0  0  0
 61143  1  0  0  0
 62144  1  0  0  0
 62145  1  0  0  0
 62146  1  0  0  0
 63 65  1  0  0  0
 63147  1  0  0  0
 63148  1  0  0  0
 63149  1  0  0  0
 64150  1  0  0  0
 65151  1  0  0  0
 68 87  1  0  0  0
 71 73  2  0  0  0
 71 75  1  0  0  0
 71152  1  0  0  0
 72 74  2  0  0  0
 72 76  1  0  0  0
 72153  1  0  0  0
 73 74  1  0  0  0
 73 88  1  0  0  0
 74 89  1  0  0  0
 75 76  2  0  0  0
 75 90  1  0  0  0
 76 92  1  0  0  0
 77 85  1  0  0  0
 77 88  1  0  0  0
 77 91  2  0  0  0
 78 79  1  0  0  0
 78 83  1  0  0  0
 78154  1  0  0  0
 78155  1  0  0  0
 79 84  1  0  0  0
 79156  1  0  0  0
 79157  1  0  0  0
 80 81  1  0  0  0
 80 82  1  0  0  0
 80158  1  0  0  0
 80159  1  0  0  0
 81 85  1  0  0  0
 81160  1  0  0  0
 81161  1  0  0  0
 82 88  1  0  0  0
 82162  1  0  0  0
 82163  1  0  0  0
 83 89  1  0  0  0
 83164  1  0  0  0
 83165  1  0  0  0
 84 89  1  0  0  0
 84166  1  0  0  0
 84167  1  0  0  0
 85 87  1  0  0  0
 85168  1  0  0  0
 86 91  1  0  0  0
 86169  1  0  0  0
 86170  1  0  0  0
 86171  1  0  0  0
 87172  1  0  0  0
 87173  1  0  0  0
 90174  1  0  0  0
 91175  1  0  0  0
M  CHG  1  91   1
M  ISO  4   1 100  68 101  87 101  90 100
M  END
> <chiral flag>
0

> <version>
0

> <s_m_source_file>
/data/baiqing/PycharmProjects/Reinvent-master-3.2/result/LINK_invent/BTK/process_docking_weight1_custom_product_contain_oxygen_bond_distance_aromatic_linkinvent_7_9_3/rearranged_h_0026.sdf

> <i_m_source_file_index>
10

> <r_mmod_Potential_Energy-OPLS-2005>
348.689147949219

> <r_mmod_Stretch_Energy-OPLS-2005>
141.01042175293

> <r_mmod_Bend_Energy-OPLS-2005>
202.949401855469

> <r_mmod_Torsional_Energy-OPLS-2005>
348.236236572266

> <r_mmod_Improper_Torsional_Energy-OPLS-2005>
15.624382019043

> <r_mmod_Van_der_Waal_Energy-OPLS-2005>
128.842208862305

> <r_mmod_Electrostatic_Energy-OPLS-2005>
-173.486480712891

> <r_mmod_Solvation_Energy-OPLS-2005>
-399.389221191406

> <b_mmod_Minimization_Converged-OPLS-2005>
0

> <r_mmod_RMS_Derivative-OPLS-2005>
1.82543218135834

$$$$
10
                    3D
 Structure written by MMmdl.
165174  0  0  1  0            999 V2000
  -30.6527  -14.6999   20.4034 C   0  0  0  0  0  0
  -30.4167  -12.4179   19.4561 C   0  0  0  0  0  0
  -29.4993  -12.4683   18.2186 C   0  0  0  0  0  0
  -28.0218  -12.3282   18.6347 C   0  0  0  0  0  0
  -27.6335  -13.2355   19.8354 C   0  0  2  0  0  0
  -28.6853  -13.1953   20.9627 C   0  0  0  0  0  0
  -25.2481  -13.8156   20.5737 C   0  0  0  0  0  0
  -24.1780  -13.0405   20.9230 C   0  0  0  0  0  0
  -24.6396  -11.6894   20.8753 C   0  0  0  0  0  0
  -23.9082  -10.4271   21.0404 C   0  0  0  0  0  0
  -24.3635   -9.4193   21.9186 C   0  0  0  0  0  0
  -23.6308   -8.2227   22.0753 C   0  0  0  0  0  0
  -22.4288   -8.0274   21.3539 C   0  0  0  0  0  0
  -21.9930   -9.0244   20.4638 C   0  0  0  0  0  0
  -22.7256  -10.2121   20.3054 C   0  0  0  0  0  0
  -21.6852   -6.0748   22.5283 C   0  0  0  0  0  0
  -21.4012   -6.5647   23.8218 C   0  0  0  0  0  0
  -21.3655   -5.6793   24.9174 C   0  0  0  0  0  0
  -21.6042   -4.3058   24.7221 C   0  0  0  0  0  0
  -21.8818   -3.8159   23.4340 C   0  0  0  0  0  0
  -21.9191   -4.6978   22.3401 C   0  0  0  0  0  0
  -22.7807  -13.5197   21.1881 C   0  0  0  0  0  0
  -22.1660   -4.2168   21.0976 F   0  0  0  0  0  0
  -21.5630   -3.4541   25.7732 F   0  0  0  0  0  0
  -29.9771  -13.5082   20.3486 N   0  0  0  0  0  0
  -26.2916  -12.9398   20.3270 N   0  0  0  0  0  0
  -25.9328  -11.6536   20.5760 N   0  0  0  0  0  0
  -22.0454  -12.8181   22.0431 N   0  0  0  0  0  0
  -25.4146  -15.1861   20.4220 N   0  0  0  0  0  0
  -31.8836  -14.6873   20.3026 O   0  0  0  0  0  0
  -21.6638   -6.8887   21.4245 O   0  0  0  0  0  0
  -22.3498  -14.5508   20.6734 O   0  0  0  0  0  0
  -24.6257  -31.8580   23.1992 C   0  0  0  0  0  0
  -25.9099  -32.4773   23.8328 C   0  0  1  0  0  0
  -27.2303  -27.3152   20.1126 C   0  0  0  0  0  0
  -25.5904  -33.8577   24.2258 N   0  0  0  0  0  0
  -23.4186  -30.4795   21.5426 C   0  0  2  0  0  0
  -24.8619  -28.9239   20.1151 C   0  0  0  0  0  0
  -22.7456  -29.4626   22.4946 C   0  0  0  0  0  0
  -18.0276  -28.1402   22.8496 C   0  0  0  0  0  0
  -24.1473  -36.7293   23.2641 C   0  0  0  0  0  0
  -25.9566  -30.7916   21.3627 C   0  0  0  0  0  0
  -26.0301  -29.4157   20.7074 C   0  0  0  0  0  0
  -27.2135  -28.6242   20.6887 C   0  0  0  0  0  0
  -26.0263  -26.8516   19.5417 C   0  0  0  0  0  0
  -24.8609  -27.6478   19.5270 C   0  0  0  0  0  0
  -23.6317  -29.8075   20.1598 C   0  0  0  0  0  0
  -25.4108  -36.3087   24.0320 C   0  0  1  0  0  0
  -20.5871  -28.3694   23.1305 C   0  0  2  0  0  0
  -20.6765  -26.9419   22.5427 C   0  0  0  0  0  0
  -19.5742  -26.6398   21.5228 C   0  0  0  0  0  0
  -18.1918  -26.7950   22.1630 C   0  0  0  0  0  0
  -19.1527  -28.8864   23.2900 C   0  0  0  0  0  0
  -18.9455  -30.1468   23.8923 C   0  0  0  0  0  0
  -17.6453  -30.6606   24.0568 C   0  0  0  0  0  0
  -25.9045  -34.9453   23.5096 C   0  0  0  0  0  0
  -16.5344  -29.9106   23.6337 C   0  0  0  0  0  0
  -16.7261  -28.6522   23.0360 C   0  0  0  0  0  0
  -26.4476  -31.6599   25.0716 C   0  0  0  0  0  0
  -25.3704  -31.3734   26.1437 C   0  0  0  0  0  0
  -27.0312  -30.3025   24.6169 C   0  0  0  0  0  0
  -27.6031  -32.4333   25.7490 C   0  0  0  0  0  0
  -27.5578  -37.1798   24.8458 C   0  0  0  0  0  0
  -21.4172  -29.3049   22.3700 N   0  0  0  0  0  0
  -26.4280  -37.3788   23.9410 N   0  0  0  0  0  0
  -24.6865  -31.0594   22.0930 N   0  0  0  0  0  0
  -23.4182  -28.8176   23.3034 O   0  0  0  0  0  0
  -28.4087  -26.5572   20.1410 O   0  0  0  0  0  0
  -26.5635  -34.8927   22.4676 O   0  0  0  0  0  0
  -23.5426  -32.1369   23.7332 O   0  0  0  0  0  0
  -27.8018  -20.3044   19.5764 C   0  0  0  0  0  0
  -29.8262  -20.8067   20.7388 C   0  0  0  0  0  0
  -27.9863  -18.9064   19.8249 C   0  0  0  0  0  0
  -29.1373  -18.4017   20.5118 C   0  0  0  0  0  0
  -28.7001  -21.3047   20.0330 C   0  0  0  0  0  0
  -30.0526  -19.4086   20.9537 C   0  0  0  0  0  0
  -28.2502  -24.6547   18.3044 C   0  0  0  0  0  0
  -27.9749  -23.1307   18.4305 C   0  0  0  0  0  0
  -28.3849  -23.8656   20.6302 C   0  0  0  0  0  0
  -28.6014  -25.1420   19.7282 C   0  0  1  0  0  0
  -26.8763  -17.9811   19.3591 C   0  0  0  0  0  0
  -29.4505  -16.4611   17.5802 C   0  0  0  0  0  0
  -29.3299  -16.8577   20.8888 C   0  0  0  0  0  0
  -30.4901  -16.4458   18.7094 C   0  0  0  0  0  0
  -28.5239  -22.7029   19.7151 N   0  0  0  0  0  0
  -29.9815  -15.8430   19.9672 N   0  0  0  0  0  0
  -31.4939  -18.9526   21.7922 Cl  0  0  0  0  0  0
  -31.4595  -12.5218   19.1511 H   0  0  0  0  0  0
  -30.3418  -11.4534   19.9607 H   0  0  0  0  0  0
  -29.7657  -11.6744   17.5199 H   0  0  0  0  0  0
  -29.6482  -13.4051   17.6819 H   0  0  0  0  0  0
  -27.8590  -11.2821   18.8952 H   0  0  0  0  0  0
  -27.3699  -12.5314   17.7837 H   0  0  0  0  0  0
  -27.6166  -14.2535   19.4457 H   0  0  0  0  0  0
  -28.7134  -12.2157   21.4421 H   0  0  0  0  0  0
  -28.4435  -13.9221   21.7408 H   0  0  0  0  0  0
  -25.2774   -9.5671   22.4770 H   0  0  0  0  0  0
  -24.0014   -7.4621   22.7473 H   0  0  0  0  0  0
  -21.0865   -8.8753   19.8945 H   0  0  0  0  0  0
  -22.3709  -10.9663   19.6170 H   0  0  0  0  0  0
  -21.2000   -7.6153   23.9730 H   0  0  0  0  0  0
  -21.1480   -6.0521   25.9077 H   0  0  0  0  0  0
  -22.0604   -2.7627   23.2830 H   0  0  0  0  0  0
  -22.4082  -11.9844   22.4805 H   0  0  0  0  0  0
  -21.1073  -13.1199   22.2643 H   0  0  0  0  0  0
  -24.6478  -15.8383   20.5418 H   0  0  0  0  0  0
  -26.2712  -15.6222   20.1130 H   0  0  0  0  0  0
  -26.7180  -32.5432   23.1087 H   0  0  0  0  0  0
  -25.0012  -33.9721   25.0370 H   0  0  0  0  0  0
  -22.7132  -31.3001   21.3963 H   0  0  0  0  0  0
  -23.3750  -35.9612   23.3284 H   0  0  0  0  0  0
  -24.3565  -36.8946   22.2061 H   0  0  0  0  0  0
  -23.7204  -37.6477   23.6682 H   0  0  0  0  0  0
  -26.0807  -31.5550   20.5934 H   0  0  0  0  0  0
  -26.8389  -30.8455   21.9889 H   0  0  0  0  0  0
  -28.1175  -29.0075   21.1407 H   0  0  0  0  0  0
  -25.9488  -25.8595   19.1300 H   0  0  0  0  0  0
  -23.9569  -27.2555   19.0815 H   0  0  0  0  0  0
  -23.7526  -30.5800   19.3993 H   0  0  0  0  0  0
  -22.7506  -29.2379   19.8599 H   0  0  0  0  0  0
  -25.1289  -36.1936   25.0814 H   0  0  0  0  0  0
  -20.9966  -28.3270   24.1423 H   0  0  0  0  0  0
  -20.5668  -26.2304   23.3625 H   0  0  0  0  0  0
  -21.6635  -26.7452   22.1220 H   0  0  0  0  0  0
  -19.6892  -25.6307   21.1264 H   0  0  0  0  0  0
  -19.6689  -27.3212   20.6761 H   0  0  0  0  0  0
  -17.4189  -26.6717   21.4029 H   0  0  0  0  0  0
  -18.0294  -26.0089   22.9022 H   0  0  0  0  0  0
  -19.7922  -30.7277   24.2318 H   0  0  0  0  0  0
  -17.4998  -31.6290   24.5156 H   0  0  0  0  0  0
  -15.5345  -30.3008   23.7650 H   0  0  0  0  0  0
  -15.8663  -28.0839   22.7078 H   0  0  0  0  0  0
  -24.5885  -30.7077   25.7765 H   0  0  0  0  0  0
  -24.8883  -32.2896   26.4864 H   0  0  0  0  0  0
  -25.8022  -30.8917   27.0218 H   0  0  0  0  0  0
  -26.2887  -29.6792   24.1176 H   0  0  0  0  0  0
  -27.3989  -29.7278   25.4681 H   0  0  0  0  0  0
  -27.8755  -30.4323   23.9393 H   0  0  0  0  0  0
  -27.2647  -33.3643   26.2056 H   0  0  0  0  0  0
  -28.3850  -32.6886   25.0322 H   0  0  0  0  0  0
  -28.0680  -31.8459   26.5421 H   0  0  0  0  0  0
  -28.2579  -38.0114   24.7547 H   0  0  0  0  0  0
  -28.1093  -36.2649   24.6229 H   0  0  0  0  0  0
  -27.2301  -37.1383   25.8862 H   0  0  0  0  0  0
  -20.9343  -29.8771   21.6913 H   0  0  0  0  0  0
  -26.0156  -38.2853   24.1460 H   0  0  0  0  0  0
  -26.9196  -20.6159   19.0345 H   0  0  0  0  0  0
  -30.5663  -21.5059   21.0986 H   0  0  0  0  0  0
  -27.4125  -25.1654   17.8387 H   0  0  0  0  0  0
  -29.1014  -24.8285   17.6445 H   0  0  0  0  0  0
  -28.4157  -22.5783   17.5991 H   0  0  0  0  0  0
  -26.8992  -22.9476   18.4186 H   0  0  0  0  0  0
  -27.3836  -23.8709   21.0651 H   0  0  0  0  0  0
  -29.1048  -23.8211   21.4492 H   0  0  0  0  0  0
  -29.6922  -25.1636   19.6904 H   0  0  0  0  0  0
  -26.4629  -18.3228   18.4096 H   0  0  0  0  0  0
  -26.0704  -17.9736   20.0933 H   0  0  0  0  0  0
  -27.2161  -16.9586   19.2095 H   0  0  0  0  0  0
  -29.9444  -16.5213   16.6095 H   0  0  0  0  0  0
  -28.8032  -17.3318   17.6425 H   0  0  0  0  0  0
  -28.8295  -15.5663   17.5780 H   0  0  0  0  0  0
  -28.3461  -16.4604   21.1361 H   0  0  0  0  0  0
  -29.8591  -16.8162   21.8415 H   0  0  0  0  0  0
  -30.8946  -17.4443   18.8742 H   0  0  0  0  0  0
  -31.3387  -15.8873   18.3088 H   0  0  0  0  0  0
  1 25  1  0  0  0
  1 30  2  0  0  0
  1 86  1  0  0  0
  2  3  1  0  0  0
  2 25  1  0  0  0
  2 88  1  0  0  0
  2 89  1  0  0  0
  3  4  1  0  0  0
  3 90  1  0  0  0
  3 91  1  0  0  0
  4  5  1  0  0  0
  4 92  1  0  0  0
  4 93  1  0  0  0
  5  6  1  0  0  0
  5 26  1  0  0  0
  5 94  1  0  0  0
  6 25  1  0  0  0
  6 95  1  0  0  0
  6 96  1  0  0  0
  7  8  2  0  0  0
  7 26  1  0  0  0
  7 29  1  0  0  0
  8  9  1  0  0  0
  8 22  1  0  0  0
  9 10  1  0  0  0
  9 27  2  0  0  0
 10 11  2  0  0  0
 10 15  1  0  0  0
 11 12  1  0  0  0
 11 97  1  0  0  0
 12 13  2  0  0  0
 12 98  1  0  0  0
 13 14  1  0  0  0
 13 31  1  0  0  0
 14 15  2  0  0  0
 14 99  1  0  0  0
 15100  1  0  0  0
 16 17  2  0  0  0
 16 21  1  0  0  0
 16 31  1  0  0  0
 17 18  1  0  0  0
 17101  1  0  0  0
 18 19  2  0  0  0
 18102  1  0  0  0
 19 20  1  0  0  0
 19 24  1  0  0  0
 20 21  2  0  0  0
 20103  1  0  0  0
 21 23  1  0  0  0
 22 28  1  0  0  0
 22 32  2  0  0  0
 26 27  1  0  0  0
 28104  1  0  0  0
 28105  1  0  0  0
 29106  1  0  0  0
 29107  1  0  0  0
 33 34  1  0  0  0
 33 66  1  0  0  0
 33 70  2  0  0  0
 34 36  1  0  0  0
 34 59  1  0  0  0
 34108  1  0  0  0
 35 44  2  0  0  0
 35 45  1  0  0  0
 35 68  1  0  0  0
 36 56  1  0  0  0
 36109  1  0  0  0
 37 39  1  0  0  0
 37 47  1  0  0  0
 37 66  1  0  0  0
 37110  1  0  0  0
 38 43  2  0  0  0
 38 46  1  0  0  0
 38 47  1  0  0  0
 39 64  1  0  0  0
 39 67  2  0  0  0
 40 52  1  0  0  0
 40 53  2  0  0  0
 40 58  1  0  0  0
 41111  1  0  0  0
 41112  1  0  0  0
 41113  1  0  0  0
 41 48  1  0  0  0
 42 43  1  0  0  0
 42 66  1  0  0  0
 42114  1  0  0  0
 42115  1  0  0  0
 43 44  1  0  0  0
 44116  1  0  0  0
 45 46  2  0  0  0
 45117  1  0  0  0
 46118  1  0  0  0
 47119  1  0  0  0
 47120  1  0  0  0
 48 56  1  0  0  0
 48 65  1  0  0  0
 48121  1  0  0  0
 49 50  1  0  0  0
 49 53  1  0  0  0
 49 64  1  0  0  0
 49122  1  0  0  0
 50 51  1  0  0  0
 50123  1  0  0  0
 50124  1  0  0  0
 51 52  1  0  0  0
 51125  1  0  0  0
 51126  1  0  0  0
 52127  1  0  0  0
 52128  1  0  0  0
 53 54  1  0  0  0
 54 55  2  0  0  0
 54129  1  0  0  0
 55 57  1  0  0  0
 55130  1  0  0  0
 56 69  2  0  0  0
 57 58  2  0  0  0
 57131  1  0  0  0
 58132  1  0  0  0
 59 60  1  0  0  0
 59 61  1  0  0  0
 59 62  1  0  0  0
 60133  1  0  0  0
 60134  1  0  0  0
 60135  1  0  0  0
 61136  1  0  0  0
 61137  1  0  0  0
 61138  1  0  0  0
 62139  1  0  0  0
 62140  1  0  0  0
 62141  1  0  0  0
 63 65  1  0  0  0
 63142  1  0  0  0
 63143  1  0  0  0
 63144  1  0  0  0
 64145  1  0  0  0
 65146  1  0  0  0
 68 80  1  0  0  0
 71 73  2  0  0  0
 71 75  1  0  0  0
 71147  1  0  0  0
 72 75  2  0  0  0
 72 76  1  0  0  0
 72148  1  0  0  0
 73 74  1  0  0  0
 73 81  1  0  0  0
 74 76  2  0  0  0
 74 83  1  0  0  0
 75 85  1  0  0  0
 76 87  1  0  0  0
 77 78  1  0  0  0
 77 80  1  0  0  0
 77149  1  0  0  0
 77150  1  0  0  0
 78 85  1  0  0  0
 78151  1  0  0  0
 78152  1  0  0  0
 79 80  1  0  0  0
 79 85  1  0  0  0
 79153  1  0  0  0
 79154  1  0  0  0
 80155  1  0  0  0
 81156  1  0  0  0
 81157  1  0  0  0
 81158  1  0  0  0
 82 84  1  0  0  0
 82159  1  0  0  0
 82160  1  0  0  0
 82161  1  0  0  0
 83 86  1  0  0  0
 83162  1  0  0  0
 83163  1  0  0  0
 84 86  1  0  0  0
 84164  1  0  0  0
 84165  1  0  0  0
M  ISO  4   1 100  68 101  80 101  86 100
M  END
> <chiral flag>
0

> <version>
0

> <s_m_source_file>
/data/baiqing/PycharmProjects/Reinvent-master-3.2/result/LINK_invent/BTK/process_docking_weight1_custom_product_contain_oxygen_bond_distance_aromatic_linkinvent_7_9_3/rearranged_h_0026.sdf

> <i_m_source_file_index>
11

> <r_mmod_Potential_Energy-OPLS-2005>
446.578796386719

> <r_mmod_Stretch_Energy-OPLS-2005>
92.5989303588867

> <r_mmod_Bend_Energy-OPLS-2005>
249.993927001953

> <r_mmod_Torsional_Energy-OPLS-2005>
353.598937988281

> <r_mmod_Improper_Torsional_Energy-OPLS-2005>
25.30051612854

> <r_mmod_Van_der_Waal_Energy-OPLS-2005>
131.660736083984

> <r_mmod_Electrostatic_Energy-OPLS-2005>
-269.898956298828

> <r_mmod_Solvation_Energy-OPLS-2005>
-206.277221679688

> <b_mmod_Minimization_Converged-OPLS-2005>
0

> <r_mmod_RMS_Derivative-OPLS-2005>
1.27556240558624

$$$$
11
                    3D
 Structure written by MMmdl.
159167  0  0  1  0            999 V2000
  -30.5552  -14.9173   20.4091 C   0  0  0  0  0  0
  -30.4274  -12.5664   19.4788 C   0  0  0  0  0  0
  -29.5064  -12.5088   18.2390 C   0  0  0  0  0  0
  -28.0368  -12.3154   18.6609 C   0  0  0  0  0  0
  -27.6213  -13.2470   19.8319 C   0  0  2  0  0  0
  -28.6686  -13.2599   20.9619 C   0  0  0  0  0  0
  -25.2420  -13.8234   20.5761 C   0  0  0  0  0  0
  -24.1744  -13.0439   20.9261 C   0  0  0  0  0  0
  -24.6355  -11.6921   20.8776 C   0  0  0  0  0  0
  -23.9062  -10.4284   21.0424 C   0  0  0  0  0  0
  -24.3618   -9.4193   21.9189 C   0  0  0  0  0  0
  -23.6294   -8.2233   22.0761 C   0  0  0  0  0  0
  -22.4276   -8.0275   21.3542 C   0  0  0  0  0  0
  -21.9911   -9.0239   20.4646 C   0  0  0  0  0  0
  -22.7244  -10.2118   20.3047 C   0  0  0  0  0  0
  -21.6839   -6.0738   22.5276 C   0  0  0  0  0  0
  -21.4013   -6.5641   23.8214 C   0  0  0  0  0  0
  -21.3657   -5.6798   24.9185 C   0  0  0  0  0  0
  -21.6048   -4.3062   24.7227 C   0  0  0  0  0  0
  -21.8814   -3.8140   23.4352 C   0  0  0  0  0  0
  -21.9186   -4.6967   22.3405 C   0  0  0  0  0  0
  -22.7760  -13.5197   21.1905 C   0  0  0  0  0  0
  -22.1654   -4.2154   21.0984 F   0  0  0  0  0  0
  -21.5626   -3.4534   25.7734 F   0  0  0  0  0  0
  -29.9367  -13.6704   20.3520 N   0  0  0  0  0  0
  -26.2833  -12.9458   20.3260 N   0  0  0  0  0  0
  -25.9288  -11.6588   20.5760 N   0  0  0  0  0  0
  -22.0415  -12.8177   22.0468 N   0  0  0  0  0  0
  -25.4085  -15.1974   20.4221 N   0  0  0  0  0  0
  -31.7736  -14.9364   20.2217 O   0  0  0  0  0  0
  -21.6623   -6.8878   21.4238 O   0  0  0  0  0  0
  -22.3449  -14.5500   20.6754 O   0  0  0  0  0  0
  -24.6432  -31.8440   23.1905 C   0  0  0  0  0  0
  -25.9184  -32.4736   23.8305 C   0  0  1  0  0  0
  -27.2023  -27.1406   20.1445 C   0  0  0  0  0  0
  -25.5925  -33.8549   24.2212 N   0  0  0  0  0  0
  -23.4465  -30.4616   21.5392 C   0  0  2  0  0  0
  -24.8903  -28.8965   20.1095 C   0  0  0  0  0  0
  -22.7580  -29.4512   22.4902 C   0  0  0  0  0  0
  -18.0278  -28.1439   22.8480 C   0  0  0  0  0  0
  -24.1457  -36.7266   23.2642 C   0  0  0  0  0  0
  -26.0031  -30.7178   21.3868 C   0  0  0  0  0  0
  -26.0696  -29.3311   20.7303 C   0  0  0  0  0  0
  -27.2260  -28.4650   20.7355 C   0  0  0  0  0  0
  -26.0037  -26.8141   19.4742 C   0  0  0  0  0  0
  -24.8705  -27.6539   19.4650 C   0  0  0  0  0  0
  -23.6703  -29.7977   20.1570 C   0  0  0  0  0  0
  -25.4104  -36.3079   24.0309 C   0  0  1  0  0  0
  -20.5890  -28.3719   23.1279 C   0  0  2  0  0  0
  -20.6791  -26.9431   22.5420 C   0  0  0  0  0  0
  -19.5772  -26.6394   21.5233 C   0  0  0  0  0  0
  -18.1941  -26.7969   22.1618 C   0  0  0  0  0  0
  -19.1542  -28.8907   23.2844 C   0  0  0  0  0  0
  -18.9448  -30.1517   23.8864 C   0  0  0  0  0  0
  -17.6450  -30.6619   24.0581 C   0  0  0  0  0  0
  -25.9046  -34.9447   23.5058 C   0  0  0  0  0  0
  -16.5335  -29.9122   23.6358 C   0  0  0  0  0  0
  -16.7263  -28.6540   23.0354 C   0  0  0  0  0  0
  -26.4498  -31.6626   25.0753 C   0  0  0  0  0  0
  -25.3649  -31.3812   26.1411 C   0  0  0  0  0  0
  -27.0378  -30.3056   24.6310 C   0  0  0  0  0  0
  -27.6054  -32.4390   25.7523 C   0  0  0  0  0  0
  -27.5557  -37.1790   24.8457 C   0  0  0  0  0  0
  -21.4263  -29.3023   22.3663 N   0  0  0  0  0  0
  -26.4259  -37.3799   23.9412 N   0  0  0  0  0  0
  -24.7197  -31.0288   22.0949 N   0  0  0  0  0  0
  -23.4205  -28.8055   23.3022 O   0  0  0  0  0  0
  -28.2430  -26.1466   20.2256 O   0  0  0  0  0  0
  -26.5658  -34.8939   22.4644 O   0  0  0  0  0  0
  -23.5544  -32.1300   23.7097 O   0  0  0  0  0  0
  -31.5993  -19.1263   18.7526 C   0  0  0  0  0  0
  -30.3582  -19.4224   17.8799 C   0  0  0  0  0  0
  -31.4599  -17.8146   19.5426 C   0  0  0  0  0  0
  -29.0346  -18.9467   18.5286 C   0  0  0  0  0  0
  -30.1931  -17.6747   20.4447 C   0  0  1  0  0  0
  -29.1236  -18.9508   20.0711 C   0  0  1  0  0  0
  -28.9044  -23.3083   20.4079 C   0  0  0  0  0  0
  -28.4757  -21.6948   20.1534 C   0  0  0  0  0  0
  -27.9302  -24.6330   20.0507 C   0  0  0  0  0  0
  -29.8000  -16.1284   20.4539 N   0  0  0  0  0  0
  -29.4046  -20.4572   20.5105 N   0  3  0  0  0  0
  -31.4634  -12.7132   19.1673 H   0  0  0  0  0  0
  -30.4142  -11.6160   20.0135 H   0  0  0  0  0  0
  -29.8150  -11.6965   17.5805 H   0  0  0  0  0  0
  -29.6064  -13.4298   17.6619 H   0  0  0  0  0  0
  -27.9169  -11.2740   18.9613 H   0  0  0  0  0  0
  -27.3728  -12.4596   17.8073 H   0  0  0  0  0  0
  -27.5895  -14.2531   19.4106 H   0  0  0  0  0  0
  -28.7585  -12.2755   21.4250 H   0  0  0  0  0  0
  -28.3843  -13.9524   21.7559 H   0  0  0  0  0  0
  -25.2773   -9.5670   22.4753 H   0  0  0  0  0  0
  -24.0009   -7.4615   22.7469 H   0  0  0  0  0  0
  -21.0851   -8.8729   19.8943 H   0  0  0  0  0  0
  -22.3705  -10.9634   19.6135 H   0  0  0  0  0  0
  -21.2009   -7.6146   23.9734 H   0  0  0  0  0  0
  -21.1490   -6.0521   25.9098 H   0  0  0  0  0  0
  -22.0602   -2.7600   23.2837 H   0  0  0  0  0  0
  -22.4035  -11.9842   22.4855 H   0  0  0  0  0  0
  -21.1016  -13.1146   22.2659 H   0  0  0  0  0  0
  -24.6426  -15.8477   20.5595 H   0  0  0  0  0  0
  -26.2473  -15.6428   20.0771 H   0  0  0  0  0  0
  -26.7260  -32.5358   23.1055 H   0  0  0  0  0  0
  -25.0088  -33.9690   25.0383 H   0  0  0  0  0  0
  -22.7501  -31.2879   21.3912 H   0  0  0  0  0  0
  -23.3751  -35.9558   23.3295 H   0  0  0  0  0  0
  -24.3535  -36.8911   22.2054 H   0  0  0  0  0  0
  -23.7142  -37.6430   23.6697 H   0  0  0  0  0  0
  -26.1439  -31.4622   20.6005 H   0  0  0  0  0  0
  -26.8830  -30.7800   22.0172 H   0  0  0  0  0  0
  -28.1176  -28.7838   21.2551 H   0  0  0  0  0  0
  -25.9063  -25.8682   18.9636 H   0  0  0  0  0  0
  -23.9740  -27.3253   18.9577 H   0  0  0  0  0  0
  -23.8104  -30.5754   19.4046 H   0  0  0  0  0  0
  -22.7863  -29.2362   19.8446 H   0  0  0  0  0  0
  -25.1290  -36.1918   25.0799 H   0  0  0  0  0  0
  -20.9942  -28.3264   24.1414 H   0  0  0  0  0  0
  -20.5743  -26.2294   23.3601 H   0  0  0  0  0  0
  -21.6655  -26.7493   22.1181 H   0  0  0  0  0  0
  -19.6917  -25.6290   21.1291 H   0  0  0  0  0  0
  -19.6749  -27.3191   20.6753 H   0  0  0  0  0  0
  -17.4215  -26.6700   21.4013 H   0  0  0  0  0  0
  -18.0328  -26.0156   22.9053 H   0  0  0  0  0  0
  -19.7918  -30.7369   24.2194 H   0  0  0  0  0  0
  -17.4989  -31.6302   24.5192 H   0  0  0  0  0  0
  -15.5339  -30.3014   23.7742 H   0  0  0  0  0  0
  -15.8642  -28.0884   22.7077 H   0  0  0  0  0  0
  -24.5831  -30.7181   25.7687 H   0  0  0  0  0  0
  -24.8813  -32.2998   26.4756 H   0  0  0  0  0  0
  -25.7847  -30.9004   27.0244 H   0  0  0  0  0  0
  -26.3002  -29.6806   24.1269 H   0  0  0  0  0  0
  -27.3988  -29.7334   25.4865 H   0  0  0  0  0  0
  -27.8908  -30.4388   23.9648 H   0  0  0  0  0  0
  -27.2692  -33.3744   26.2010 H   0  0  0  0  0  0
  -28.3898  -32.6836   25.0350 H   0  0  0  0  0  0
  -28.0690  -31.8559   26.5490 H   0  0  0  0  0  0
  -28.2570  -38.0106   24.7571 H   0  0  0  0  0  0
  -28.1056  -36.2630   24.6214 H   0  0  0  0  0  0
  -27.2282  -37.1367   25.8867 H   0  0  0  0  0  0
  -20.9485  -29.8693   21.6833 H   0  0  0  0  0  0
  -26.0122  -38.2844   24.1502 H   0  0  0  0  0  0
  -31.7934  -19.9451   19.4462 H   0  0  0  0  0  0
  -32.4884  -19.0752   18.1207 H   0  0  0  0  0  0
  -30.4674  -18.9611   16.8974 H   0  0  0  0  0  0
  -30.3132  -20.4938   17.6809 H   0  0  0  0  0  0
  -32.3618  -17.6419   20.1319 H   0  0  0  0  0  0
  -31.4536  -17.0315   18.7829 H   0  0  0  0  0  0
  -28.8221  -17.9330   18.1869 H   0  0  0  0  0  0
  -28.2007  -19.5464   18.1670 H   0  0  0  0  0  0
  -30.4960  -17.8654   21.4755 H   0  0  0  0  0  0
  -28.1456  -18.7008   20.4871 H   0  0  0  0  0  0
  -29.8378  -23.4653   19.8707 H   0  0  0  0  0  0
  -29.1769  -23.4016   21.4598 H   0  0  0  0  0  0
  -28.2183  -21.6096   19.0978 H   0  0  0  0  0  0
  -27.5332  -21.5276   20.6783 H   0  0  0  0  0  0
  -26.9980  -24.4574   20.5896 H   0  0  0  0  0  0
  -27.6618  -24.5130   19.0011 H   0  0  0  0  0  0
  -28.8119  -15.9582   20.5602 H   0  0  0  0  0  0
  -30.3135  -20.6746   20.1378 H   0  0  0  0  0  0
  -29.5001  -20.4598   21.5142 H   0  0  0  0  0  0
  1 25  1  0  0  0
  1 30  2  0  0  0
  1 80  1  0  0  0
  2  3  1  0  0  0
  2 25  1  0  0  0
  2 82  1  0  0  0
  2 83  1  0  0  0
  3  4  1  0  0  0
  3 84  1  0  0  0
  3 85  1  0  0  0
  4  5  1  0  0  0
  4 86  1  0  0  0
  4 87  1  0  0  0
  5  6  1  0  0  0
  5 26  1  0  0  0
  5 88  1  0  0  0
  6 25  1  0  0  0
  6 89  1  0  0  0
  6 90  1  0  0  0
  7  8  2  0  0  0
  7 26  1  0  0  0
  7 29  1  0  0  0
  8  9  1  0  0  0
  8 22  1  0  0  0
  9 10  1  0  0  0
  9 27  2  0  0  0
 10 11  2  0  0  0
 10 15  1  0  0  0
 11 12  1  0  0  0
 11 91  1  0  0  0
 12 13  2  0  0  0
 12 92  1  0  0  0
 13 14  1  0  0  0
 13 31  1  0  0  0
 14 15  2  0  0  0
 14 93  1  0  0  0
 15 94  1  0  0  0
 16 17  2  0  0  0
 16 21  1  0  0  0
 16 31  1  0  0  0
 17 18  1  0  0  0
 17 95  1  0  0  0
 18 19  2  0  0  0
 18 96  1  0  0  0
 19 20  1  0  0  0
 19 24  1  0  0  0
 20 21  2  0  0  0
 20 97  1  0  0  0
 21 23  1  0  0  0
 22 28  1  0  0  0
 22 32  2  0  0  0
 26 27  1  0  0  0
 28 98  1  0  0  0
 28 99  1  0  0  0
 29100  1  0  0  0
 29101  1  0  0  0
 33 34  1  0  0  0
 33 66  1  0  0  0
 33 70  2  0  0  0
 34 36  1  0  0  0
 34 59  1  0  0  0
 34102  1  0  0  0
 35 44  2  0  0  0
 35 45  1  0  0  0
 35 68  1  0  0  0
 36 56  1  0  0  0
 36103  1  0  0  0
 37 39  1  0  0  0
 37 47  1  0  0  0
 37 66  1  0  0  0
 37104  1  0  0  0
 38 43  2  0  0  0
 38 46  1  0  0  0
 38 47  1  0  0  0
 39 64  1  0  0  0
 39 67  2  0  0  0
 40 52  1  0  0  0
 40 53  2  0  0  0
 40 58  1  0  0  0
 41105  1  0  0  0
 41106  1  0  0  0
 41107  1  0  0  0
 41 48  1  0  0  0
 42 43  1  0  0  0
 42 66  1  0  0  0
 42108  1  0  0  0
 42109  1  0  0  0
 43 44  1  0  0  0
 44110  1  0  0  0
 45 46  2  0  0  0
 45111  1  0  0  0
 46112  1  0  0  0
 47113  1  0  0  0
 47114  1  0  0  0
 48 56  1  0  0  0
 48 65  1  0  0  0
 48115  1  0  0  0
 49 50  1  0  0  0
 49 53  1  0  0  0
 49 64  1  0  0  0
 49116  1  0  0  0
 50 51  1  0  0  0
 50117  1  0  0  0
 50118  1  0  0  0
 51 52  1  0  0  0
 51119  1  0  0  0
 51120  1  0  0  0
 52121  1  0  0  0
 52122  1  0  0  0
 53 54  1  0  0  0
 54 55  2  0  0  0
 54123  1  0  0  0
 55 57  1  0  0  0
 55124  1  0  0  0
 56 69  2  0  0  0
 57 58  2  0  0  0
 57125  1  0  0  0
 58126  1  0  0  0
 59 60  1  0  0  0
 59 61  1  0  0  0
 59 62  1  0  0  0
 60127  1  0  0  0
 60128  1  0  0  0
 60129  1  0  0  0
 61130  1  0  0  0
 61131  1  0  0  0
 61132  1  0  0  0
 62133  1  0  0  0
 62134  1  0  0  0
 62135  1  0  0  0
 63 65  1  0  0  0
 63136  1  0  0  0
 63137  1  0  0  0
 63138  1  0  0  0
 64139  1  0  0  0
 65140  1  0  0  0
 68 79  1  0  0  0
 71 72  1  0  0  0
 71 73  1  0  0  0
 71141  1  0  0  0
 71142  1  0  0  0
 72 74  1  0  0  0
 72143  1  0  0  0
 72144  1  0  0  0
 73 75  1  0  0  0
 73145  1  0  0  0
 73146  1  0  0  0
 74 76  1  0  0  0
 74147  1  0  0  0
 74148  1  0  0  0
 75 76  1  0  0  0
 75 80  1  0  0  0
 75149  1  0  0  0
 76 81  1  0  0  0
 76150  1  0  0  0
 77 78  1  0  0  0
 77 79  1  0  0  0
 77151  1  0  0  0
 77152  1  0  0  0
 78 81  1  0  0  0
 78153  1  0  0  0
 78154  1  0  0  0
 79155  1  0  0  0
 79156  1  0  0  0
 80157  1  0  0  0
 81158  1  0  0  0
 81159  1  0  0  0
M  CHG  1  81   1
M  ISO  4   1 100  68 101  79 101  80 100
M  END
> <chiral flag>
0

> <version>
0

> <s_m_source_file>
/data/baiqing/PycharmProjects/Reinvent-master-3.2/result/LINK_invent/BTK/process_docking_weight1_custom_product_contain_oxygen_bond_distance_aromatic_linkinvent_7_9_3/rearranged_h_0026.sdf

> <i_m_source_file_index>
12

> <r_mmod_Potential_Energy-OPLS-2005>
335.294982910156

> <r_mmod_Stretch_Energy-OPLS-2005>
272.913360595703

> <r_mmod_Bend_Energy-OPLS-2005>
257.613616943359

> <r_mmod_Torsional_Energy-OPLS-2005>
260.387023925781

> <r_mmod_Improper_Torsional_Energy-OPLS-2005>
4.60356903076172

> <r_mmod_Van_der_Waal_Energy-OPLS-2005>
129.967407226562

> <r_mmod_Electrostatic_Energy-OPLS-2005>
-293.267517089844

> <r_mmod_Solvation_Energy-OPLS-2005>
-480.021636962891

> <b_mmod_Minimization_Converged-OPLS-2005>
0

> <r_mmod_RMS_Derivative-OPLS-2005>
4.11684942245483

$$$$
12
                    3D
 Structure written by MMmdl.
156165  0  0  1  0            999 V2000
  -30.5082  -14.9473   20.4155 C   0  0  0  0  0  0
  -30.4555  -12.5838   19.4957 C   0  0  0  0  0  0
  -29.5290  -12.5332   18.2570 C   0  0  0  0  0  0
  -28.0600  -12.3184   18.6718 C   0  0  0  0  0  0
  -27.6361  -13.2441   19.8413 C   0  0  2  0  0  0
  -28.6797  -13.2459   20.9802 C   0  0  0  0  0  0
  -25.2481  -13.8223   20.5714 C   0  0  0  0  0  0
  -24.1788  -13.0452   20.9252 C   0  0  0  0  0  0
  -24.6389  -11.6931   20.8752 C   0  0  0  0  0  0
  -23.9064  -10.4301   21.0404 C   0  0  0  0  0  0
  -24.3617   -9.4218   21.9181 C   0  0  0  0  0  0
  -23.6298   -8.2248   22.0748 C   0  0  0  0  0  0
  -22.4278   -8.0283   21.3541 C   0  0  0  0  0  0
  -21.9907   -9.0262   20.4646 C   0  0  0  0  0  0
  -22.7234  -10.2144   20.3054 C   0  0  0  0  0  0
  -21.6854   -6.0726   22.5276 C   0  0  0  0  0  0
  -21.4009   -6.5631   23.8207 C   0  0  0  0  0  0
  -21.3663   -5.6786   24.9173 C   0  0  0  0  0  0
  -21.6054   -4.3049   24.7226 C   0  0  0  0  0  0
  -21.8818   -3.8134   23.4342 C   0  0  0  0  0  0
  -21.9194   -4.6951   22.3399 C   0  0  0  0  0  0
  -22.7801  -13.5222   21.1913 C   0  0  0  0  0  0
  -22.1662   -4.2136   21.0976 F   0  0  0  0  0  0
  -21.5639   -3.4531   25.7735 F   0  0  0  0  0  0
  -29.9619  -13.6646   20.3955 N   0  0  0  0  0  0
  -26.2902  -12.9445   20.3224 N   0  0  0  0  0  0
  -25.9319  -11.6576   20.5714 N   0  0  0  0  0  0
  -22.0431  -12.8213   22.0457 N   0  0  0  0  0  0
  -25.4157  -15.1953   20.4133 N   0  0  0  0  0  0
  -31.6932  -15.0716   20.0874 O   0  0  0  0  0  0
  -21.6644   -6.8872   21.4239 O   0  0  0  0  0  0
  -22.3484  -14.5528   20.6753 O   0  0  0  0  0  0
  -24.6414  -31.8448   23.1879 C   0  0  0  0  0  0
  -25.9193  -32.4694   23.8266 C   0  0  1  0  0  0
  -27.2195  -27.1465   20.1436 C   0  0  0  0  0  0
  -25.5946  -33.8502   24.2183 N   0  0  0  0  0  0
  -23.4435  -30.4627   21.5338 C   0  0  2  0  0  0
  -24.8922  -28.8875   20.1061 C   0  0  0  0  0  0
  -22.7557  -29.4541   22.4869 C   0  0  0  0  0  0
  -18.0304  -28.1382   22.8476 C   0  0  0  0  0  0
  -24.1492  -36.7255   23.2642 C   0  0  0  0  0  0
  -25.9973  -30.7216   21.3829 C   0  0  0  0  0  0
  -26.0671  -29.3332   20.7230 C   0  0  0  0  0  0
  -27.2278  -28.4768   20.7250 C   0  0  0  0  0  0
  -26.0161  -26.7907   19.4977 C   0  0  0  0  0  0
  -24.8784  -27.6301   19.4800 C   0  0  0  0  0  0
  -23.6672  -29.7887   20.1528 C   0  0  0  0  0  0
  -25.4125  -36.3033   24.0316 C   0  0  1  0  0  0
  -20.5916  -28.3702   23.1245 C   0  0  2  0  0  0
  -20.6782  -26.9403   22.5416 C   0  0  0  0  0  0
  -19.5758  -26.6360   21.5224 C   0  0  0  0  0  0
  -18.1939  -26.7917   22.1626 C   0  0  0  0  0  0
  -19.1560  -28.8863   23.2848 C   0  0  0  0  0  0
  -18.9476  -30.1466   23.8856 C   0  0  0  0  0  0
  -17.6473  -30.6576   24.0558 C   0  0  0  0  0  0
  -25.9078  -34.9408   23.5059 C   0  0  0  0  0  0
  -16.5364  -29.9067   23.6335 C   0  0  0  0  0  0
  -16.7291  -28.6492   23.0346 C   0  0  0  0  0  0
  -26.4511  -31.6560   25.0711 C   0  0  0  0  0  0
  -25.3699  -31.3775   26.1416 C   0  0  0  0  0  0
  -27.0374  -30.2950   24.6299 C   0  0  0  0  0  0
  -27.6042  -32.4322   25.7496 C   0  0  0  0  0  0
  -27.5582  -37.1776   24.8455 C   0  0  0  0  0  0
  -21.4254  -29.3027   22.3615 N   0  0  0  0  0  0
  -26.4281  -37.3750   23.9417 N   0  0  0  0  0  0
  -24.7140  -31.0314   22.0900 N   0  0  0  0  0  0
  -23.4214  -28.8098   23.3013 O   0  0  0  0  0  0
  -28.3055  -26.2076   20.2428 O   0  0  0  0  0  0
  -26.5664  -34.8907   22.4639 O   0  0  0  0  0  0
  -23.5539  -32.1322   23.7112 O   0  0  0  0  0  0
  -30.2414  -19.8977   19.6511 C   0  0  0  0  0  0
  -30.4527  -18.4591   19.7744 C   0  0  0  0  0  0
  -28.5697  -18.3598   21.1612 C   0  0  0  0  0  0
  -28.3673  -19.8085   21.0813 C   0  0  0  0  0  0
  -29.1959  -20.6857   20.2757 C   0  0  0  0  0  0
  -29.6081  -17.5860   20.5324 C   0  0  0  0  0  0
  -29.7735  -24.4103   19.2747 C   0  0  0  0  0  0
  -29.9239  -22.8649   19.0893 C   0  0  0  0  0  0
  -28.1982  -23.3209   20.6151 C   0  0  0  0  0  0
  -28.3487  -24.7272   19.7630 C   0  0  1  0  0  0
  -27.2104  -20.3913   21.8973 C   0  0  0  0  0  0
  -29.0662  -22.1742   20.0568 N   0  0  0  0  0  0
  -29.6495  -16.0517   20.6700 N   0  0  0  0  0  0
  -26.6234  -19.4783   22.6730 F   0  0  0  0  0  0
  -27.6424  -21.3594   22.7065 F   0  0  0  0  0  0
  -26.2729  -20.8812   21.0858 F   0  0  0  0  0  0
  -31.4851  -12.7602   19.1796 H   0  0  0  0  0  0
  -30.4655  -11.6265   20.0186 H   0  0  0  0  0  0
  -29.8494  -11.7418   17.5780 H   0  0  0  0  0  0
  -29.6154  -13.4677   17.7004 H   0  0  0  0  0  0
  -27.9514  -11.2755   18.9709 H   0  0  0  0  0  0
  -27.3990  -12.4604   17.8162 H   0  0  0  0  0  0
  -27.6064  -14.2505   19.4222 H   0  0  0  0  0  0
  -28.7633  -12.2588   21.4360 H   0  0  0  0  0  0
  -28.3770  -13.9260   21.7777 H   0  0  0  0  0  0
  -25.2761   -9.5705   22.4746 H   0  0  0  0  0  0
  -24.0016   -7.4636   22.7459 H   0  0  0  0  0  0
  -21.0832   -8.8778   19.8955 H   0  0  0  0  0  0
  -22.3688  -10.9677   19.6156 H   0  0  0  0  0  0
  -21.1990   -7.6138   23.9709 H   0  0  0  0  0  0
  -21.1495   -6.0512   25.9078 H   0  0  0  0  0  0
  -22.0593   -2.7595   23.2843 H   0  0  0  0  0  0
  -22.4032  -11.9892   22.4880 H   0  0  0  0  0  0
  -21.1039  -13.1234   22.2632 H   0  0  0  0  0  0
  -24.6466  -15.8451   20.5314 H   0  0  0  0  0  0
  -26.2406  -15.6292   20.0206 H   0  0  0  0  0  0
  -26.7255  -32.5296   23.0993 H   0  0  0  0  0  0
  -25.0079  -33.9608   25.0321 H   0  0  0  0  0  0
  -22.7449  -31.2877   21.3806 H   0  0  0  0  0  0
  -23.3763  -35.9576   23.3281 H   0  0  0  0  0  0
  -24.3584  -36.8916   22.2062 H   0  0  0  0  0  0
  -23.7229  -37.6436   23.6695 H   0  0  0  0  0  0
  -26.1508  -31.4787   20.6123 H   0  0  0  0  0  0
  -26.8676  -30.7704   22.0260 H   0  0  0  0  0  0
  -28.1245  -28.8117   21.2279 H   0  0  0  0  0  0
  -25.9151  -25.8223   19.0332 H   0  0  0  0  0  0
  -23.9772  -27.2822   18.9942 H   0  0  0  0  0  0
  -23.7958  -30.5622   19.3947 H   0  0  0  0  0  0
  -22.7815  -29.2283   19.8477 H   0  0  0  0  0  0
  -25.1309  -36.1858   25.0805 H   0  0  0  0  0  0
  -21.0015  -28.3290   24.1366 H   0  0  0  0  0  0
  -20.5683  -26.2310   23.3635 H   0  0  0  0  0  0
  -21.6645  -26.7403   22.1214 H   0  0  0  0  0  0
  -19.6916  -25.6267   21.1259 H   0  0  0  0  0  0
  -19.6696  -27.3167   20.6755 H   0  0  0  0  0  0
  -17.4217  -26.6675   21.4022 H   0  0  0  0  0  0
  -18.0322  -26.0061   22.9021 H   0  0  0  0  0  0
  -19.7958  -30.7291   24.2192 H   0  0  0  0  0  0
  -17.5029  -31.6253   24.5170 H   0  0  0  0  0  0
  -15.5361  -30.2951   23.7682 H   0  0  0  0  0  0
  -15.8698  -28.0808   22.7050 H   0  0  0  0  0  0
  -24.5825  -30.7187   25.7737 H   0  0  0  0  0  0
  -24.8955  -32.2980   26.4828 H   0  0  0  0  0  0
  -25.7969  -30.8929   27.0205 H   0  0  0  0  0  0
  -26.2994  -29.6660   24.1307 H   0  0  0  0  0  0
  -27.3978  -29.7263   25.4883 H   0  0  0  0  0  0
  -27.8905  -30.4177   23.9623 H   0  0  0  0  0  0
  -27.2622  -33.3619   26.2056 H   0  0  0  0  0  0
  -28.3862  -32.6886   25.0338 H   0  0  0  0  0  0
  -28.0699  -31.8463   26.5430 H   0  0  0  0  0  0
  -28.2567  -38.0104   24.7535 H   0  0  0  0  0  0
  -28.1098  -36.2628   24.6223 H   0  0  0  0  0  0
  -27.2304  -37.1368   25.8858 H   0  0  0  0  0  0
  -20.9461  -29.8724   21.6782 H   0  0  0  0  0  0
  -26.0142  -38.2812   24.1438 H   0  0  0  0  0  0
  -30.9530  -20.4072   19.0208 H   0  0  0  0  0  0
  -31.2855  -18.0252   19.2384 H   0  0  0  0  0  0
  -27.8665  -17.7991   21.7575 H   0  0  0  0  0  0
  -30.0263  -24.9551   18.3647 H   0  0  0  0  0  0
  -30.4787  -24.7372   20.0401 H   0  0  0  0  0  0
  -30.9700  -22.5835   19.2159 H   0  0  0  0  0  0
  -29.6264  -22.5757   18.0797 H   0  0  0  0  0  0
  -27.1481  -23.0337   20.6507 H   0  0  0  0  0  0
  -28.5024  -23.5028   21.6460 H   0  0  0  0  0  0
  -27.7026  -24.6412   18.8895 H   0  0  0  0  0  0
  -28.7738  -15.6898   21.0138 H   0  0  0  0  0  0
  1 25  1  0  0  0
  1 30  2  0  0  0
  1 83  1  0  0  0
  2  3  1  0  0  0
  2 25  1  0  0  0
  2 87  1  0  0  0
  2 88  1  0  0  0
  3  4  1  0  0  0
  3 89  1  0  0  0
  3 90  1  0  0  0
  4  5  1  0  0  0
  4 91  1  0  0  0
  4 92  1  0  0  0
  5  6  1  0  0  0
  5 26  1  0  0  0
  5 93  1  0  0  0
  6 25  1  0  0  0
  6 94  1  0  0  0
  6 95  1  0  0  0
  7  8  2  0  0  0
  7 26  1  0  0  0
  7 29  1  0  0  0
  8  9  1  0  0  0
  8 22  1  0  0  0
  9 10  1  0  0  0
  9 27  2  0  0  0
 10 11  2  0  0  0
 10 15  1  0  0  0
 11 12  1  0  0  0
 11 96  1  0  0  0
 12 13  2  0  0  0
 12 97  1  0  0  0
 13 14  1  0  0  0
 13 31  1  0  0  0
 14 15  2  0  0  0
 14 98  1  0  0  0
 15 99  1  0  0  0
 16 17  2  0  0  0
 16 21  1  0  0  0
 16 31  1  0  0  0
 17 18  1  0  0  0
 17100  1  0  0  0
 18 19  2  0  0  0
 18101  1  0  0  0
 19 20  1  0  0  0
 19 24  1  0  0  0
 20 21  2  0  0  0
 20102  1  0  0  0
 21 23  1  0  0  0
 22 28  1  0  0  0
 22 32  2  0  0  0
 26 27  1  0  0  0
 28103  1  0  0  0
 28104  1  0  0  0
 29105  1  0  0  0
 29106  1  0  0  0
 33 34  1  0  0  0
 33 66  1  0  0  0
 33 70  2  0  0  0
 34 36  1  0  0  0
 34 59  1  0  0  0
 34107  1  0  0  0
 35 44  2  0  0  0
 35 45  1  0  0  0
 35 68  1  0  0  0
 36 56  1  0  0  0
 36108  1  0  0  0
 37 39  1  0  0  0
 37 47  1  0  0  0
 37 66  1  0  0  0
 37109  1  0  0  0
 38 43  2  0  0  0
 38 46  1  0  0  0
 38 47  1  0  0  0
 39 64  1  0  0  0
 39 67  2  0  0  0
 40 52  1  0  0  0
 40 53  2  0  0  0
 40 58  1  0  0  0
 41110  1  0  0  0
 41111  1  0  0  0
 41112  1  0  0  0
 41 48  1  0  0  0
 42 43  1  0  0  0
 42 66  1  0  0  0
 42113  1  0  0  0
 42114  1  0  0  0
 43 44  1  0  0  0
 44115  1  0  0  0
 45 46  2  0  0  0
 45116  1  0  0  0
 46117  1  0  0  0
 47118  1  0  0  0
 47119  1  0  0  0
 48 56  1  0  0  0
 48 65  1  0  0  0
 48120  1  0  0  0
 49 50  1  0  0  0
 49 53  1  0  0  0
 49 64  1  0  0  0
 49121  1  0  0  0
 50 51  1  0  0  0
 50122  1  0  0  0
 50123  1  0  0  0
 51 52  1  0  0  0
 51124  1  0  0  0
 51125  1  0  0  0
 52126  1  0  0  0
 52127  1  0  0  0
 53 54  1  0  0  0
 54 55  2  0  0  0
 54128  1  0  0  0
 55 57  1  0  0  0
 55129  1  0  0  0
 56 69  2  0  0  0
 57 58  2  0  0  0
 57130  1  0  0  0
 58131  1  0  0  0
 59 60  1  0  0  0
 59 61  1  0  0  0
 59 62  1  0  0  0
 60132  1  0  0  0
 60133  1  0  0  0
 60134  1  0  0  0
 61135  1  0  0  0
 61136  1  0  0  0
 61137  1  0  0  0
 62138  1  0  0  0
 62139  1  0  0  0
 62140  1  0  0  0
 63 65  1  0  0  0
 63141  1  0  0  0
 63142  1  0  0  0
 63143  1  0  0  0
 64144  1  0  0  0
 65145  1  0  0  0
 68 80  1  0  0  0
 71 72  2  0  0  0
 71 75  1  0  0  0
 71146  1  0  0  0
 72 76  1  0  0  0
 72147  1  0  0  0
 73 74  1  0  0  0
 73 76  2  0  0  0
 73148  1  0  0  0
 74 75  2  0  0  0
 74 81  1  0  0  0
 75 82  1  0  0  0
 76 83  1  0  0  0
 77 78  1  0  0  0
 77 80  1  0  0  0
 77149  1  0  0  0
 77150  1  0  0  0
 78 82  1  0  0  0
 78151  1  0  0  0
 78152  1  0  0  0
 79 80  1  0  0  0
 79 82  1  0  0  0
 79153  1  0  0  0
 79154  1  0  0  0
 80155  1  0  0  0
 81 84  1  0  0  0
 81 85  1  0  0  0
 81 86  1  0  0  0
 83156  1  0  0  0
M  ISO  4   1 100  68 101  80 101  83 100
M  END
> <chiral flag>
0

> <version>
0

> <s_m_source_file>
/data/baiqing/PycharmProjects/Reinvent-master-3.2/result/LINK_invent/BTK/process_docking_weight1_custom_product_contain_oxygen_bond_distance_aromatic_linkinvent_7_9_3/rearranged_h_0026.sdf

> <i_m_source_file_index>
13

> <r_mmod_Potential_Energy-OPLS-2005>
615.0234375

> <r_mmod_Stretch_Energy-OPLS-2005>
224.136016845703

> <r_mmod_Bend_Energy-OPLS-2005>
334.533874511719

> <r_mmod_Torsional_Energy-OPLS-2005>
250.492797851562

> <r_mmod_Improper_Torsional_Energy-OPLS-2005>
3.5887279510498

> <r_mmod_Van_der_Waal_Energy-OPLS-2005>
134.448043823242

> <r_mmod_Electrostatic_Energy-OPLS-2005>
-297.319122314453

> <r_mmod_Solvation_Energy-OPLS-2005>
-220.857055664062

> <b_mmod_Minimization_Converged-OPLS-2005>
0

> <r_mmod_RMS_Derivative-OPLS-2005>
1.79841411113739

$$$$
13
                    3D
 Structure written by MMmdl.
173183  0  0  1  0            999 V2000
  -30.4437  -15.3723   20.3607 C   0  0  0  0  0  0
  -30.4268  -12.8852   19.4835 C   0  0  0  0  0  0
  -29.5283  -12.6008   18.2518 C   0  0  0  0  0  0
  -28.0825  -12.2941   18.6844 C   0  0  0  0  0  0
  -27.6035  -13.2532   19.8018 C   0  0  2  0  0  0
  -28.6599  -13.4595   20.9127 C   0  0  0  0  0  0
  -25.2354  -13.8124   20.5568 C   0  0  0  0  0  0
  -24.1723  -13.0334   20.9227 C   0  0  0  0  0  0
  -24.6386  -11.6842   20.8784 C   0  0  0  0  0  0
  -23.9068  -10.4223   21.0444 C   0  0  0  0  0  0
  -24.3603   -9.4142   21.9224 C   0  0  0  0  0  0
  -23.6252   -8.2183   22.0784 C   0  0  0  0  0  0
  -22.4258   -8.0234   21.3544 C   0  0  0  0  0  0
  -21.9896   -9.0213   20.4651 C   0  0  0  0  0  0
  -22.7238  -10.2075   20.3069 C   0  0  0  0  0  0
  -21.6813   -6.0723   22.5292 C   0  0  0  0  0  0
  -21.3978   -6.5625   23.8223 C   0  0  0  0  0  0
  -21.3670   -5.6779   24.9195 C   0  0  0  0  0  0
  -21.6056   -4.3041   24.7245 C   0  0  0  0  0  0
  -21.8808   -3.8138   23.4365 C   0  0  0  0  0  0
  -21.9165   -4.6952   22.3422 C   0  0  0  0  0  0
  -22.7772  -13.5152   21.1814 C   0  0  0  0  0  0
  -22.1629   -4.2149   21.0991 F   0  0  0  0  0  0
  -21.5661   -3.4498   25.7747 F   0  0  0  0  0  0
  -29.8454  -14.0576   20.2553 N   0  0  0  0  0  0
  -26.2768  -12.9350   20.3123 N   0  0  0  0  0  0
  -25.9320  -11.6483   20.5725 N   0  0  0  0  0  0
  -22.0406  -12.8176   22.0378 N   0  0  0  0  0  0
  -25.3931  -15.1810   20.3705 N   0  0  0  0  0  0
  -31.6723  -15.2375   20.3056 O   0  0  0  0  0  0
  -21.6599   -6.8844   21.4242 O   0  0  0  0  0  0
  -22.3474  -14.5458   20.6656 O   0  0  0  0  0  0
  -24.6727  -31.8169   23.1594 C   0  0  0  0  0  0
  -25.9363  -32.4563   23.8114 C   0  0  1  0  0  0
  -27.2448  -26.8583   20.2126 C   0  0  0  0  0  0
  -25.5989  -33.8370   24.2034 N   0  0  0  0  0  0
  -23.4935  -30.4160   21.5119 C   0  0  2  0  0  0
  -24.9535  -28.7834   20.1239 C   0  0  0  0  0  0
  -22.7730  -29.4376   22.4766 C   0  0  0  0  0  0
  -18.0334  -28.1411   22.8475 C   0  0  0  0  0  0
  -24.1477  -36.7190   23.2635 C   0  0  0  0  0  0
  -26.0646  -30.6032   21.3952 C   0  0  0  0  0  0
  -26.1388  -29.1820   20.7533 C   0  0  0  0  0  0
  -27.2746  -28.2429   20.7674 C   0  0  0  0  0  0
  -26.0230  -26.6234   19.5403 C   0  0  0  0  0  0
  -24.9234  -27.5250   19.4942 C   0  0  0  0  0  0
  -23.7403  -29.7143   20.1463 C   0  0  0  0  0  0
  -25.4112  -36.2947   24.0295 C   0  0  1  0  0  0
  -20.5967  -28.3773   23.1190 C   0  0  2  0  0  0
  -20.6810  -26.9442   22.5415 C   0  0  0  0  0  0
  -19.5775  -26.6380   21.5243 C   0  0  0  0  0  0
  -18.1954  -26.7942   22.1638 C   0  0  0  0  0  0
  -19.1595  -28.8912   23.2811 C   0  0  0  0  0  0
  -18.9490  -30.1510   23.8846 C   0  0  0  0  0  0
  -17.6485  -30.6598   24.0538 C   0  0  0  0  0  0
  -25.9103  -34.9328   23.4986 C   0  0  0  0  0  0
  -16.5373  -29.9065   23.6328 C   0  0  0  0  0  0
  -16.7311  -28.6490   23.0367 C   0  0  0  0  0  0
  -26.4569  -31.6535   25.0666 C   0  0  0  0  0  0
  -25.3674  -31.3855   26.1331 C   0  0  0  0  0  0
  -27.0428  -30.2873   24.6425 C   0  0  0  0  0  0
  -27.6061  -32.4348   25.7464 C   0  0  0  0  0  0
  -27.5546  -37.1749   24.8468 C   0  0  0  0  0  0
  -21.4383  -29.3046   22.3549 N   0  0  0  0  0  0
  -26.4247  -37.3693   23.9443 N   0  0  0  0  0  0
  -24.7654  -30.9749   22.0761 N   0  0  0  0  0  0
  -23.4241  -28.7979   23.3063 O   0  0  0  0  0  0
  -28.2563  -25.7378   20.3009 O   0  0  0  0  0  0
  -26.5689  -34.8874   22.4577 O   0  0  0  0  0  0
  -23.5776  -32.1169   23.6626 O   0  0  0  0  0  0
  -30.0305  -20.1045   22.1274 C   0  0  0  0  0  0
  -32.1920  -19.1625   21.6325 C   0  0  0  0  0  0
  -31.3864  -19.9301   22.5053 C   0  0  0  0  0  0
  -29.5623  -19.7176   20.8520 C   0  0  0  0  0  0
  -30.2260  -18.3327   20.4133 C   0  0  0  0  0  0
  -31.6351  -18.4248   20.5684 C   0  0  0  0  0  0
  -31.4166  -21.5036   24.4889 C   0  0  0  0  0  0
  -32.4256  -22.1070   25.4545 C   0  0  0  0  0  0
  -33.7666  -21.6882   24.8731 C   0  0  0  0  0  0
  -28.4653  -22.3827   18.1380 C   0  0  0  0  0  0
  -27.7308  -23.6449   18.7216 C   0  0  0  0  0  0
  -33.4321  -20.5494   23.9038 C   0  0  0  0  0  0
  -28.3415  -21.0241   18.9219 C   0  0  0  0  0  0
  -29.0704  -22.6342   20.7211 C   0  0  0  0  0  0
  -28.1031  -24.0595   20.1733 C   0  0  1  0  0  0
  -28.1436  -16.6025   18.4684 C   0  0  0  0  0  0
  -28.3418  -16.7249   19.9921 C   0  0  0  0  0  0
  -31.9946  -20.6420   23.6150 N   0  0  0  0  0  0
  -28.9849  -21.0535   20.2398 N   0  0  0  0  0  0
  -29.7637  -16.7492   20.3142 N   0  0  0  0  0  0
  -30.2265  -21.8211   24.5605 O   0  0  0  0  0  0
  -32.7336  -17.7116   19.4365 Cl  0  0  0  0  0  0
  -31.4465  -13.0853   19.1502 H   0  0  0  0  0  0
  -30.4987  -11.9826   20.0949 H   0  0  0  0  0  0
  -29.9308  -11.7760   17.6594 H   0  0  0  0  0  0
  -29.5324  -13.4736   17.5960 H   0  0  0  0  0  0
  -28.0491  -11.2653   19.0434 H   0  0  0  0  0  0
  -27.4123  -12.3282   17.8230 H   0  0  0  0  0  0
  -27.4818  -14.1949   19.2803 H   0  0  0  0  0  0
  -28.8887  -12.5066   21.3943 H   0  0  0  0  0  0
  -28.2876  -14.1072   21.7037 H   0  0  0  0  0  0
  -25.2756   -9.5560   22.4795 H   0  0  0  0  0  0
  -23.9918   -7.4562   22.7519 H   0  0  0  0  0  0
  -21.0830   -8.8737   19.8964 H   0  0  0  0  0  0
  -22.3739  -10.9604   19.6150 H   0  0  0  0  0  0
  -21.1942   -7.6126   23.9703 H   0  0  0  0  0  0
  -21.1518   -6.0543   25.9096 H   0  0  0  0  0  0
  -22.0590   -2.7599   23.2891 H   0  0  0  0  0  0
  -22.3960  -11.9809   22.4747 H   0  0  0  0  0  0
  -21.1067  -13.1332   22.2535 H   0  0  0  0  0  0
  -24.6114  -15.8267   20.3613 H   0  0  0  0  0  0
  -26.2088  -15.5523   19.9037 H   0  0  0  0  0  0
  -26.7442  -32.5082   23.0847 H   0  0  0  0  0  0
  -25.0178  -33.9473   25.0206 H   0  0  0  0  0  0
  -22.8105  -31.2457   21.3262 H   0  0  0  0  0  0
  -23.3760  -35.9496   23.3241 H   0  0  0  0  0  0
  -24.3558  -36.8896   22.2059 H   0  0  0  0  0  0
  -23.7207  -37.6344   23.6741 H   0  0  0  0  0  0
  -26.2384  -31.3304   20.6020 H   0  0  0  0  0  0
  -26.9268  -30.6792   22.0443 H   0  0  0  0  0  0
  -28.1749  -28.5518   21.2827 H   0  0  0  0  0  0
  -25.8816  -25.6615   19.0711 H   0  0  0  0  0  0
  -24.0240  -27.2055   18.9870 H   0  0  0  0  0  0
  -23.8987  -30.4714   19.3778 H   0  0  0  0  0  0
  -22.8525  -29.1618   19.8342 H   0  0  0  0  0  0
  -25.1309  -36.1708   25.0778 H   0  0  0  0  0  0
  -21.0040  -28.3350   24.1317 H   0  0  0  0  0  0
  -20.5737  -26.2359   23.3654 H   0  0  0  0  0  0
  -21.6658  -26.7417   22.1186 H   0  0  0  0  0  0
  -19.6918  -25.6272   21.1304 H   0  0  0  0  0  0
  -19.6704  -27.3148   20.6745 H   0  0  0  0  0  0
  -17.4232  -26.6721   21.4021 H   0  0  0  0  0  0
  -18.0292  -26.0097   22.9042 H   0  0  0  0  0  0
  -19.7967  -30.7348   24.2177 H   0  0  0  0  0  0
  -17.5016  -31.6261   24.5163 H   0  0  0  0  0  0
  -15.5359  -30.2938   23.7699 H   0  0  0  0  0  0
  -15.8724  -28.0782   22.7110 H   0  0  0  0  0  0
  -24.5796  -30.7287   25.7657 H   0  0  0  0  0  0
  -24.8934  -32.3083   26.4675 H   0  0  0  0  0  0
  -25.7853  -30.9050   27.0186 H   0  0  0  0  0  0
  -26.3067  -29.6569   24.1427 H   0  0  0  0  0  0
  -27.3929  -29.7239   25.5093 H   0  0  0  0  0  0
  -27.9025  -30.4048   23.9825 H   0  0  0  0  0  0
  -27.2667  -33.3754   26.1832 H   0  0  0  0  0  0
  -28.3959  -32.6758   25.0336 H   0  0  0  0  0  0
  -28.0614  -31.8592   26.5551 H   0  0  0  0  0  0
  -28.2554  -38.0051   24.7498 H   0  0  0  0  0  0
  -28.1041  -36.2578   24.6295 H   0  0  0  0  0  0
  -27.2268  -37.1379   25.8868 H   0  0  0  0  0  0
  -20.9670  -29.8738   21.6654 H   0  0  0  0  0  0
  -26.0071  -38.2737   24.1469 H   0  0  0  0  0  0
  -29.4239  -20.8052   22.6690 H   0  0  0  0  0  0
  -33.2605  -19.1036   21.7707 H   0  0  0  0  0  0
  -32.2747  -21.6949   26.4535 H   0  0  0  0  0  0
  -32.3278  -23.1919   25.5086 H   0  0  0  0  0  0
  -34.4809  -21.3885   25.6396 H   0  0  0  0  0  0
  -34.2099  -22.5289   24.3384 H   0  0  0  0  0  0
  -29.5214  -22.6185   17.9921 H   0  0  0  0  0  0
  -28.0758  -22.2255   17.1293 H   0  0  0  0  0  0
  -26.6557  -23.4698   18.6723 H   0  0  0  0  0  0
  -27.9113  -24.4914   18.0570 H   0  0  0  0  0  0
  -33.6407  -19.5875   24.3750 H   0  0  0  0  0  0
  -34.0576  -20.6393   23.0159 H   0  0  0  0  0  0
  -28.7757  -20.2163   18.3295 H   0  0  0  0  0  0
  -27.2885  -20.7806   19.0579 H   0  0  0  0  0  0
  -29.0368  -22.6498   21.8106 H   0  0  0  0  0  0
  -30.1035  -22.8933   20.4869 H   0  0  0  0  0  0
  -27.1856  -23.9177   20.7478 H   0  0  0  0  0  0
  -28.5026  -17.4966   17.9519 H   0  0  0  0  0  0
  -27.0926  -16.4641   18.2084 H   0  0  0  0  0  0
  -28.6992  -15.7539   18.0621 H   0  0  0  0  0  0
  -27.8388  -15.9478   20.5529 H   0  0  0  0  0  0
  -27.8560  -17.6414   20.3330 H   0  0  0  0  0  0
  1 25  1  0  0  0
  1 30  2  0  0  0
  1 90  1  0  0  0
  2  3  1  0  0  0
  2 25  1  0  0  0
  2 93  1  0  0  0
  2 94  1  0  0  0
  3  4  1  0  0  0
  3 95  1  0  0  0
  3 96  1  0  0  0
  4  5  1  0  0  0
  4 97  1  0  0  0
  4 98  1  0  0  0
  5  6  1  0  0  0
  5 26  1  0  0  0
  5 99  1  0  0  0
  6 25  1  0  0  0
  6100  1  0  0  0
  6101  1  0  0  0
  7  8  2  0  0  0
  7 26  1  0  0  0
  7 29  1  0  0  0
  8  9  1  0  0  0
  8 22  1  0  0  0
  9 10  1  0  0  0
  9 27  2  0  0  0
 10 11  2  0  0  0
 10 15  1  0  0  0
 11 12  1  0  0  0
 11102  1  0  0  0
 12 13  2  0  0  0
 12103  1  0  0  0
 13 14  1  0  0  0
 13 31  1  0  0  0
 14 15  2  0  0  0
 14104  1  0  0  0
 15105  1  0  0  0
 16 17  2  0  0  0
 16 21  1  0  0  0
 16 31  1  0  0  0
 17 18  1  0  0  0
 17106  1  0  0  0
 18 19  2  0  0  0
 18107  1  0  0  0
 19 20  1  0  0  0
 19 24  1  0  0  0
 20 21  2  0  0  0
 20108  1  0  0  0
 21 23  1  0  0  0
 22 28  1  0  0  0
 22 32  2  0  0  0
 26 27  1  0  0  0
 28109  1  0  0  0
 28110  1  0  0  0
 29111  1  0  0  0
 29112  1  0  0  0
 33 34  1  0  0  0
 33 66  1  0  0  0
 33 70  2  0  0  0
 34 36  1  0  0  0
 34 59  1  0  0  0
 34113  1  0  0  0
 35 44  2  0  0  0
 35 45  1  0  0  0
 35 68  1  0  0  0
 36 56  1  0  0  0
 36114  1  0  0  0
 37 39  1  0  0  0
 37 47  1  0  0  0
 37 66  1  0  0  0
 37115  1  0  0  0
 38 43  2  0  0  0
 38 46  1  0  0  0
 38 47  1  0  0  0
 39 64  1  0  0  0
 39 67  2  0  0  0
 40 52  1  0  0  0
 40 53  2  0  0  0
 40 58  1  0  0  0
 41116  1  0  0  0
 41117  1  0  0  0
 41118  1  0  0  0
 41 48  1  0  0  0
 42 43  1  0  0  0
 42 66  1  0  0  0
 42119  1  0  0  0
 42120  1  0  0  0
 43 44  1  0  0  0
 44121  1  0  0  0
 45 46  2  0  0  0
 45122  1  0  0  0
 46123  1  0  0  0
 47124  1  0  0  0
 47125  1  0  0  0
 48 56  1  0  0  0
 48 65  1  0  0  0
 48126  1  0  0  0
 49 50  1  0  0  0
 49 53  1  0  0  0
 49 64  1  0  0  0
 49127  1  0  0  0
 50 51  1  0  0  0
 50128  1  0  0  0
 50129  1  0  0  0
 51 52  1  0  0  0
 51130  1  0  0  0
 51131  1  0  0  0
 52132  1  0  0  0
 52133  1  0  0  0
 53 54  1  0  0  0
 54 55  2  0  0  0
 54134  1  0  0  0
 55 57  1  0  0  0
 55135  1  0  0  0
 56 69  2  0  0  0
 57 58  2  0  0  0
 57136  1  0  0  0
 58137  1  0  0  0
 59 60  1  0  0  0
 59 61  1  0  0  0
 59 62  1  0  0  0
 60138  1  0  0  0
 60139  1  0  0  0
 60140  1  0  0  0
 61141  1  0  0  0
 61142  1  0  0  0
 61143  1  0  0  0
 62144  1  0  0  0
 62145  1  0  0  0
 62146  1  0  0  0
 63 65  1  0  0  0
 63147  1  0  0  0
 63148  1  0  0  0
 63149  1  0  0  0
 64150  1  0  0  0
 65151  1  0  0  0
 68 85  1  0  0  0
 71 73  2  0  0  0
 71 74  1  0  0  0
 71152  1  0  0  0
 72 73  1  0  0  0
 72 76  2  0  0  0
 72153  1  0  0  0
 73 88  1  0  0  0
 74 75  2  0  0  0
 74 89  1  0  0  0
 75 76  1  0  0  0
 75 90  1  0  0  0
 76 92  1  0  0  0
 77 78  1  0  0  0
 77 88  1  0  0  0
 77 91  2  0  0  0
 78 79  1  0  0  0
 78154  1  0  0  0
 78155  1  0  0  0
 79 82  1  0  0  0
 79156  1  0  0  0
 79157  1  0  0  0
 80 81  1  0  0  0
 80 83  1  0  0  0
 80158  1  0  0  0
 80159  1  0  0  0
 81 85  1  0  0  0
 81160  1  0  0  0
 81161  1  0  0  0
 82 88  1  0  0  0
 82162  1  0  0  0
 82163  1  0  0  0
 83 89  1  0  0  0
 83164  1  0  0  0
 83165  1  0  0  0
 84 85  1  0  0  0
 84 89  1  0  0  0
 84166  1  0  0  0
 84167  1  0  0  0
 85168  1  0  0  0
 86 87  1  0  0  0
 86169  1  0  0  0
 86170  1  0  0  0
 86171  1  0  0  0
 87 90  1  0  0  0
 87172  1  0  0  0
 87173  1  0  0  0
M  ISO  4   1 100  68 101  85 101  90 100
M  END
> <chiral flag>
0

> <version>
0

> <s_m_source_file>
/data/baiqing/PycharmProjects/Reinvent-master-3.2/result/LINK_invent/BTK/process_docking_weight1_custom_product_contain_oxygen_bond_distance_aromatic_linkinvent_7_9_3/rearranged_h_0026.sdf

> <i_m_source_file_index>
14

> <r_mmod_Potential_Energy-OPLS-2005>
2131.47973632812

> <r_mmod_Stretch_Energy-OPLS-2005>
737.452697753906

> <r_mmod_Bend_Energy-OPLS-2005>
567.391967773438

> <r_mmod_Torsional_Energy-OPLS-2005>
590.63720703125

> <r_mmod_Improper_Torsional_Energy-OPLS-2005>
21.7612285614014

> <r_mmod_Van_der_Waal_Energy-OPLS-2005>
158.360977172852

> <r_mmod_Electrostatic_Energy-OPLS-2005>
-279.32177734375

> <r_mmod_Solvation_Energy-OPLS-2005>
-220.880355834961

> <b_mmod_Minimization_Converged-OPLS-2005>
0

> <r_mmod_RMS_Derivative-OPLS-2005>
5.72364521026611

$$$$
14
                    3D
 Structure written by MMmdl.
155164  0  0  1  0            999 V2000
  -30.5155  -14.9208   20.4458 C   0  0  0  0  0  0
  -30.4540  -12.5688   19.4959 C   0  0  0  0  0  0
  -29.5269  -12.5359   18.2565 C   0  0  0  0  0  0
  -28.0576  -12.3234   18.6705 C   0  0  0  0  0  0
  -27.6392  -13.2397   19.8494 C   0  0  2  0  0  0
  -28.6826  -13.2197   20.9882 C   0  0  0  0  0  0
  -25.2477  -13.8178   20.5647 C   0  0  0  0  0  0
  -24.1797  -13.0423   20.9218 C   0  0  0  0  0  0
  -24.6409  -11.6908   20.8763 C   0  0  0  0  0  0
  -23.9086  -10.4286   21.0418 C   0  0  0  0  0  0
  -24.3631   -9.4197   21.9193 C   0  0  0  0  0  0
  -23.6298   -8.2237   22.0755 C   0  0  0  0  0  0
  -22.4280   -8.0282   21.3545 C   0  0  0  0  0  0
  -21.9921   -9.0260   20.4648 C   0  0  0  0  0  0
  -22.7258  -10.2136   20.3063 C   0  0  0  0  0  0
  -21.6852   -6.0738   22.5279 C   0  0  0  0  0  0
  -21.4014   -6.5642   23.8214 C   0  0  0  0  0  0
  -21.3658   -5.6793   24.9176 C   0  0  0  0  0  0
  -21.6043   -4.3056   24.7225 C   0  0  0  0  0  0
  -21.8818   -3.8149   23.4346 C   0  0  0  0  0  0
  -21.9192   -4.6965   22.3401 C   0  0  0  0  0  0
  -22.7819  -13.5206   21.1874 C   0  0  0  0  0  0
  -22.1662   -4.2152   21.0979 F   0  0  0  0  0  0
  -21.5626   -3.4539   25.7737 F   0  0  0  0  0  0
  -29.9679  -13.6404   20.4089 N   0  0  0  0  0  0
  -26.2928  -12.9409   20.3265 N   0  0  0  0  0  0
  -25.9347  -11.6548   20.5766 N   0  0  0  0  0  0
  -22.0468  -12.8201   22.0437 N   0  0  0  0  0  0
  -25.4091  -15.1886   20.3933 N   0  0  0  0  0  0
  -31.6953  -15.0588   20.1017 O   0  0  0  0  0  0
  -21.6638   -6.8883   21.4243 O   0  0  0  0  0  0
  -22.3502  -14.5510   20.6717 O   0  0  0  0  0  0
  -24.6427  -31.8450   23.1890 C   0  0  0  0  0  0
  -25.9201  -32.4700   23.8278 C   0  0  1  0  0  0
  -27.2207  -27.1409   20.1558 C   0  0  0  0  0  0
  -25.5951  -33.8506   24.2194 N   0  0  0  0  0  0
  -23.4463  -30.4641   21.5346 C   0  0  2  0  0  0
  -24.8967  -28.8902   20.1145 C   0  0  0  0  0  0
  -22.7564  -29.4550   22.4864 C   0  0  0  0  0  0
  -18.0305  -28.1395   22.8476 C   0  0  0  0  0  0
  -24.1493  -36.7259   23.2642 C   0  0  0  0  0  0
  -26.0021  -30.7197   21.3883 C   0  0  0  0  0  0
  -26.0737  -29.3302   20.7332 C   0  0  0  0  0  0
  -27.2369  -28.4724   20.7359 C   0  0  0  0  0  0
  -26.0198  -26.8069   19.4900 C   0  0  0  0  0  0
  -24.8823  -27.6414   19.4774 C   0  0  0  0  0  0
  -23.6736  -29.7926   20.1546 C   0  0  0  0  0  0
  -25.4124  -36.3034   24.0316 C   0  0  1  0  0  0
  -20.5917  -28.3720   23.1237 C   0  0  2  0  0  0
  -20.6790  -26.9424   22.5404 C   0  0  0  0  0  0
  -19.5764  -26.6381   21.5211 C   0  0  0  0  0  0
  -18.1945  -26.7933   22.1622 C   0  0  0  0  0  0
  -19.1560  -28.8875   23.2850 C   0  0  0  0  0  0
  -18.9477  -30.1470   23.8878 C   0  0  0  0  0  0
  -17.6473  -30.6591   24.0558 C   0  0  0  0  0  0
  -25.9074  -34.9410   23.5064 C   0  0  0  0  0  0
  -16.5365  -29.9085   23.6333 C   0  0  0  0  0  0
  -16.7288  -28.6503   23.0356 C   0  0  0  0  0  0
  -26.4524  -31.6566   25.0718 C   0  0  0  0  0  0
  -25.3711  -31.3757   26.1414 C   0  0  0  0  0  0
  -27.0389  -30.2962   24.6299 C   0  0  0  0  0  0
  -27.6054  -32.4333   25.7502 C   0  0  0  0  0  0
  -27.5576  -37.1785   24.8464 C   0  0  0  0  0  0
  -21.4257  -29.3047   22.3609 N   0  0  0  0  0  0
  -26.4287  -37.3747   23.9407 N   0  0  0  0  0  0
  -24.7168  -31.0308   22.0924 N   0  0  0  0  0  0
  -23.4207  -28.8099   23.3015 O   0  0  0  0  0  0
  -28.2892  -26.1717   20.1903 O   0  0  0  0  0  0
  -26.5658  -34.8905   22.4641 O   0  0  0  0  0  0
  -23.5547  -32.1325   23.7110 O   0  0  0  0  0  0
  -30.0382  -19.9507   19.9129 C   0  0  0  0  0  0
  -30.2995  -18.5042   19.9111 C   0  0  0  0  0  0
  -28.3377  -19.6247   21.4935 C   0  0  0  0  0  0
  -28.5874  -18.1989   21.5064 C   0  0  0  0  0  0
  -29.0391  -20.6135   20.7203 C   0  0  0  0  0  0
  -29.5832  -17.5385   20.7111 C   0  0  0  0  0  0
  -28.1805  -22.7178   21.9422 C   0  0  0  0  0  0
  -27.9064  -24.2405   21.8365 C   0  0  0  0  0  0
  -28.9545  -23.3462   19.9145 C   0  0  0  0  0  0
  -28.0380  -24.6396   20.3665 C   0  0  2  0  0  0
  -27.7312  -17.3578   22.4403 C   0  0  0  0  0  0
  -28.7159  -22.1311   20.8344 N   0  0  0  0  0  0
  -29.6552  -16.0042   20.7442 N   0  0  0  0  0  0
  -27.9380  -22.1454   23.0092 O   0  0  0  0  0  0
  -31.4856  -12.7410   19.1852 H   0  0  0  0  0  0
  -30.4540  -11.6040   20.0055 H   0  0  0  0  0  0
  -29.8400  -11.7483   17.5698 H   0  0  0  0  0  0
  -29.6190  -13.4746   17.7077 H   0  0  0  0  0  0
  -27.9462  -11.2783   18.9619 H   0  0  0  0  0  0
  -27.3957  -12.4741   17.8168 H   0  0  0  0  0  0
  -27.6164  -14.2517   19.4442 H   0  0  0  0  0  0
  -28.7609  -12.2238   21.4270 H   0  0  0  0  0  0
  -28.3823  -13.8847   21.7994 H   0  0  0  0  0  0
  -25.2776   -9.5667   22.4771 H   0  0  0  0  0  0
  -24.0002   -7.4625   22.7474 H   0  0  0  0  0  0
  -21.0850   -8.8790   19.8954 H   0  0  0  0  0  0
  -22.3722  -10.9681   19.6175 H   0  0  0  0  0  0
  -21.2008   -7.6150   23.9720 H   0  0  0  0  0  0
  -21.1480   -6.0522   25.9079 H   0  0  0  0  0  0
  -22.0597   -2.7610   23.2846 H   0  0  0  0  0  0
  -22.4091  -11.9868   22.4829 H   0  0  0  0  0  0
  -21.1089  -13.1230   22.2647 H   0  0  0  0  0  0
  -24.6264  -15.8279   20.4772 H   0  0  0  0  0  0
  -26.2288  -15.6213   19.9883 H   0  0  0  0  0  0
  -26.7266  -32.5312   23.1008 H   0  0  0  0  0  0
  -25.0070  -33.9626   25.0321 H   0  0  0  0  0  0
  -22.7484  -31.2897   21.3796 H   0  0  0  0  0  0
  -23.3756  -35.9590   23.3297 H   0  0  0  0  0  0
  -24.3576  -36.8896   22.2057 H   0  0  0  0  0  0
  -23.7251  -37.6454   23.6684 H   0  0  0  0  0  0
  -26.1569  -31.4729   20.6146 H   0  0  0  0  0  0
  -26.8731  -30.7713   22.0302 H   0  0  0  0  0  0
  -28.1352  -28.8074   21.2351 H   0  0  0  0  0  0
  -25.9305  -25.8684   18.9656 H   0  0  0  0  0  0
  -23.9878  -27.3035   18.9722 H   0  0  0  0  0  0
  -23.8114  -30.5667   19.3989 H   0  0  0  0  0  0
  -22.7889  -29.2348   19.8427 H   0  0  0  0  0  0
  -25.1313  -36.1862   25.0809 H   0  0  0  0  0  0
  -21.0007  -28.3312   24.1360 H   0  0  0  0  0  0
  -20.5680  -26.2335   23.3623 H   0  0  0  0  0  0
  -21.6657  -26.7430   22.1205 H   0  0  0  0  0  0
  -19.6927  -25.6287   21.1255 H   0  0  0  0  0  0
  -19.6702  -27.3179   20.6732 H   0  0  0  0  0  0
  -17.4214  -26.6673   21.4028 H   0  0  0  0  0  0
  -18.0347  -26.0083   22.9026 H   0  0  0  0  0  0
  -19.7953  -30.7290   24.2244 H   0  0  0  0  0  0
  -17.5027  -31.6269   24.5163 H   0  0  0  0  0  0
  -15.5365  -30.2980   23.7671 H   0  0  0  0  0  0
  -15.8689  -28.0813   22.7087 H   0  0  0  0  0  0
  -24.5894  -30.7099   25.7736 H   0  0  0  0  0  0
  -24.8896  -32.2940   26.4785 H   0  0  0  0  0  0
  -25.7996  -30.8966   27.0225 H   0  0  0  0  0  0
  -26.3006  -29.6683   24.1296 H   0  0  0  0  0  0
  -27.3989  -29.7265   25.4875 H   0  0  0  0  0  0
  -27.8920  -30.4197   23.9625 H   0  0  0  0  0  0
  -27.2644  -33.3647   26.2036 H   0  0  0  0  0  0
  -28.3888  -32.6871   25.0349 H   0  0  0  0  0  0
  -28.0697  -31.8488   26.5455 H   0  0  0  0  0  0
  -28.2587  -38.0087   24.7505 H   0  0  0  0  0  0
  -28.1077  -36.2615   24.6297 H   0  0  0  0  0  0
  -27.2292  -37.1439   25.8866 H   0  0  0  0  0  0
  -20.9469  -29.8757   21.6785 H   0  0  0  0  0  0
  -26.0154  -38.2814   24.1410 H   0  0  0  0  0  0
  -30.6493  -20.5666   19.2680 H   0  0  0  0  0  0
  -31.0706  -18.1363   19.2489 H   0  0  0  0  0  0
  -27.5347  -19.9616   22.1305 H   0  0  0  0  0  0
  -28.6525  -24.7603   22.4374 H   0  0  0  0  0  0
  -26.9231  -24.4917   22.2342 H   0  0  0  0  0  0
  -30.0116  -23.6078   19.9773 H   0  0  0  0  0  0
  -28.7589  -23.0767   18.8766 H   0  0  0  0  0  0
  -27.0716  -24.4221   19.9189 H   0  0  0  0  0  0
  -27.1100  -17.9743   23.0904 H   0  0  0  0  0  0
  -28.3564  -16.7377   23.0837 H   0  0  0  0  0  0
  -27.0688  -16.7081   21.8724 H   0  0  0  0  0  0
  -28.7909  -15.6164   21.0884 H   0  0  0  0  0  0
  1 25  1  0  0  0
  1 30  2  0  0  0
  1 83  1  0  0  0
  2  3  1  0  0  0
  2 25  1  0  0  0
  2 85  1  0  0  0
  2 86  1  0  0  0
  3  4  1  0  0  0
  3 87  1  0  0  0
  3 88  1  0  0  0
  4  5  1  0  0  0
  4 89  1  0  0  0
  4 90  1  0  0  0
  5  6  1  0  0  0
  5 26  1  0  0  0
  5 91  1  0  0  0
  6 25  1  0  0  0
  6 92  1  0  0  0
  6 93  1  0  0  0
  7  8  2  0  0  0
  7 26  1  0  0  0
  7 29  1  0  0  0
  8  9  1  0  0  0
  8 22  1  0  0  0
  9 10  1  0  0  0
  9 27  2  0  0  0
 10 11  2  0  0  0
 10 15  1  0  0  0
 11 12  1  0  0  0
 11 94  1  0  0  0
 12 13  2  0  0  0
 12 95  1  0  0  0
 13 14  1  0  0  0
 13 31  1  0  0  0
 14 15  2  0  0  0
 14 96  1  0  0  0
 15 97  1  0  0  0
 16 17  2  0  0  0
 16 21  1  0  0  0
 16 31  1  0  0  0
 17 18  1  0  0  0
 17 98  1  0  0  0
 18 19  2  0  0  0
 18 99  1  0  0  0
 19 20  1  0  0  0
 19 24  1  0  0  0
 20 21  2  0  0  0
 20100  1  0  0  0
 21 23  1  0  0  0
 22 28  1  0  0  0
 22 32  2  0  0  0
 26 27  1  0  0  0
 28101  1  0  0  0
 28102  1  0  0  0
 29103  1  0  0  0
 29104  1  0  0  0
 33 34  1  0  0  0
 33 66  1  0  0  0
 33 70  2  0  0  0
 34 36  1  0  0  0
 34 59  1  0  0  0
 34105  1  0  0  0
 35 44  2  0  0  0
 35 45  1  0  0  0
 35 68  1  0  0  0
 36 56  1  0  0  0
 36106  1  0  0  0
 37 39  1  0  0  0
 37 47  1  0  0  0
 37 66  1  0  0  0
 37107  1  0  0  0
 38 43  2  0  0  0
 38 46  1  0  0  0
 38 47  1  0  0  0
 39 64  1  0  0  0
 39 67  2  0  0  0
 40 52  1  0  0  0
 40 53  2  0  0  0
 40 58  1  0  0  0
 41108  1  0  0  0
 41109  1  0  0  0
 41110  1  0  0  0
 41 48  1  0  0  0
 42 43  1  0  0  0
 42 66  1  0  0  0
 42111  1  0  0  0
 42112  1  0  0  0
 43 44  1  0  0  0
 44113  1  0  0  0
 45 46  2  0  0  0
 45114  1  0  0  0
 46115  1  0  0  0
 47116  1  0  0  0
 47117  1  0  0  0
 48 56  1  0  0  0
 48 65  1  0  0  0
 48118  1  0  0  0
 49 50  1  0  0  0
 49 53  1  0  0  0
 49 64  1  0  0  0
 49119  1  0  0  0
 50 51  1  0  0  0
 50120  1  0  0  0
 50121  1  0  0  0
 51 52  1  0  0  0
 51122  1  0  0  0
 51123  1  0  0  0
 52124  1  0  0  0
 52125  1  0  0  0
 53 54  1  0  0  0
 54 55  2  0  0  0
 54126  1  0  0  0
 55 57  1  0  0  0
 55127  1  0  0  0
 56 69  2  0  0  0
 57 58  2  0  0  0
 57128  1  0  0  0
 58129  1  0  0  0
 59 60  1  0  0  0
 59 61  1  0  0  0
 59 62  1  0  0  0
 60130  1  0  0  0
 60131  1  0  0  0
 60132  1  0  0  0
 61133  1  0  0  0
 61134  1  0  0  0
 61135  1  0  0  0
 62136  1  0  0  0
 62137  1  0  0  0
 62138  1  0  0  0
 63 65  1  0  0  0
 63139  1  0  0  0
 63140  1  0  0  0
 63141  1  0  0  0
 64142  1  0  0  0
 65143  1  0  0  0
 68 80  1  0  0  0
 71 72  2  0  0  0
 71 75  1  0  0  0
 71144  1  0  0  0
 72 76  1  0  0  0
 72145  1  0  0  0
 73 74  1  0  0  0
 73 75  2  0  0  0
 73146  1  0  0  0
 74 76  2  0  0  0
 74 81  1  0  0  0
 75 82  1  0  0  0
 76 83  1  0  0  0
 77 78  1  0  0  0
 77 82  1  0  0  0
 77 84  2  0  0  0
 78 80  1  0  0  0
 78147  1  0  0  0
 78148  1  0  0  0
 79 80  1  0  0  0
 79 82  1  0  0  0
 79149  1  0  0  0
 79150  1  0  0  0
 80151  1  0  0  0
 81152  1  0  0  0
 81153  1  0  0  0
 81154  1  0  0  0
 83155  1  0  0  0
M  ISO  4   1 100  68 101  80 101  83 100
M  END
> <chiral flag>
0

> <version>
0

> <s_m_source_file>
/data/baiqing/PycharmProjects/Reinvent-master-3.2/result/LINK_invent/BTK/process_docking_weight1_custom_product_contain_oxygen_bond_distance_aromatic_linkinvent_7_9_3/rearranged_h_0026.sdf

> <i_m_source_file_index>
15

> <r_mmod_Potential_Energy-OPLS-2005>
494.822021484375

> <r_mmod_Stretch_Energy-OPLS-2005>
224.876388549805

> <r_mmod_Bend_Energy-OPLS-2005>
301.244323730469

> <r_mmod_Torsional_Energy-OPLS-2005>
264.674285888672

> <r_mmod_Improper_Torsional_Energy-OPLS-2005>
3.86693859100342

> <r_mmod_Van_der_Waal_Energy-OPLS-2005>
134.963775634766

> <r_mmod_Electrostatic_Energy-OPLS-2005>
-391.883972167969

> <r_mmod_Solvation_Energy-OPLS-2005>
-220.497100830078

> <b_mmod_Minimization_Converged-OPLS-2005>
0

> <r_mmod_RMS_Derivative-OPLS-2005>
0.370373874902725

$$$$
15
                    3D
 Structure written by MMmdl.
156165  0  0  1  0            999 V2000
  -30.6450  -14.7023   20.5273 C   0  0  0  0  0  0
  -30.4255  -12.4358   19.4857 C   0  0  0  0  0  0
  -29.5144  -12.5280   18.2419 C   0  0  0  0  0  0
  -28.0366  -12.3469   18.6427 C   0  0  0  0  0  0
  -27.6457  -13.2310   19.8605 C   0  0  2  0  0  0
  -28.6812  -13.1328   21.0005 C   0  0  0  0  0  0
  -25.2514  -13.8221   20.5665 C   0  0  0  0  0  0
  -24.1793  -13.0458   20.9175 C   0  0  0  0  0  0
  -24.6391  -11.6935   20.8739 C   0  0  0  0  0  0
  -23.9094  -10.4303   21.0422 C   0  0  0  0  0  0
  -24.3649   -9.4222   21.9199 C   0  0  0  0  0  0
  -23.6315   -8.2255   22.0773 C   0  0  0  0  0  0
  -22.4293   -8.0297   21.3561 C   0  0  0  0  0  0
  -21.9939   -9.0268   20.4663 C   0  0  0  0  0  0
  -22.7268  -10.2146   20.3066 C   0  0  0  0  0  0
  -21.6841   -6.0765   22.5303 C   0  0  0  0  0  0
  -21.4003   -6.5660   23.8241 C   0  0  0  0  0  0
  -21.3660   -5.6802   24.9198 C   0  0  0  0  0  0
  -21.6041   -4.3058   24.7231 C   0  0  0  0  0  0
  -21.8808   -3.8161   23.4346 C   0  0  0  0  0  0
  -21.9180   -4.6996   22.3415 C   0  0  0  0  0  0
  -22.7811  -13.5243   21.1846 C   0  0  0  0  0  0
  -22.1635   -4.2185   21.0993 F   0  0  0  0  0  0
  -21.5650   -3.4537   25.7737 F   0  0  0  0  0  0
  -29.9924  -13.4887   20.4399 N   0  0  0  0  0  0
  -26.2946  -12.9423   20.3290 N   0  0  0  0  0  0
  -25.9327  -11.6570   20.5763 N   0  0  0  0  0  0
  -22.0440  -12.8256   22.0410 N   0  0  0  0  0  0
  -25.4205  -15.1952   20.4095 N   0  0  0  0  0  0
  -31.7881  -14.8036   20.0702 O   0  0  0  0  0  0
  -21.6641   -6.8901   21.4263 O   0  0  0  0  0  0
  -22.3503  -14.5562   20.6720 O   0  0  0  0  0  0
  -24.6284  -31.8529   23.1972 C   0  0  0  0  0  0
  -25.9117  -32.4730   23.8310 C   0  0  1  0  0  0
  -27.2242  -27.2593   20.1234 C   0  0  0  0  0  0
  -25.5923  -33.8537   24.2232 N   0  0  0  0  0  0
  -23.4269  -30.4760   21.5396 C   0  0  2  0  0  0
  -24.8775  -28.9279   20.1051 C   0  0  0  0  0  0
  -22.7486  -29.4570   22.4869 C   0  0  0  0  0  0
  -18.0285  -28.1376   22.8469 C   0  0  0  0  0  0
  -24.1503  -36.7287   23.2643 C   0  0  0  0  0  0
  -25.9735  -30.7646   21.3803 C   0  0  0  0  0  0
  -26.0478  -29.3890   20.7194 C   0  0  0  0  0  0
  -27.2218  -28.5686   20.7186 C   0  0  0  0  0  0
  -26.0341  -26.8793   19.4610 C   0  0  0  0  0  0
  -24.8765  -27.6805   19.4649 C   0  0  0  0  0  0
  -23.6461  -29.8130   20.1548 C   0  0  0  0  0  0
  -25.4129  -36.3054   24.0314 C   0  0  1  0  0  0
  -20.5888  -28.3679   23.1246 C   0  0  2  0  0  0
  -20.6753  -26.9376   22.5412 C   0  0  0  0  0  0
  -19.5739  -26.6350   21.5206 C   0  0  0  0  0  0
  -18.1923  -26.7916   22.1609 C   0  0  0  0  0  0
  -19.1543  -28.8843   23.2858 C   0  0  0  0  0  0
  -18.9462  -30.1450   23.8875 C   0  0  0  0  0  0
  -17.6463  -30.6574   24.0557 C   0  0  0  0  0  0
  -25.9054  -34.9422   23.5070 C   0  0  0  0  0  0
  -16.5347  -29.9065   23.6343 C   0  0  0  0  0  0
  -16.7276  -28.6488   23.0343 C   0  0  0  0  0  0
  -26.4496  -31.6557   25.0706 C   0  0  0  0  0  0
  -25.3718  -31.3728   26.1430 C   0  0  0  0  0  0
  -27.0333  -30.2953   24.6243 C   0  0  0  0  0  0
  -27.6015  -32.4335   25.7500 C   0  0  0  0  0  0
  -27.5592  -37.1797   24.8457 C   0  0  0  0  0  0
  -21.4188  -29.3032   22.3630 N   0  0  0  0  0  0
  -26.4304  -37.3759   23.9398 N   0  0  0  0  0  0
  -24.6951  -31.0492   22.0947 N   0  0  0  0  0  0
  -23.4182  -28.8088   23.2954 O   0  0  0  0  0  0
  -28.3203  -26.3630   20.2146 O   0  0  0  0  0  0
  -26.5641  -34.8903   22.4648 O   0  0  0  0  0  0
  -23.5434  -32.1360   23.7268 O   0  0  0  0  0  0
  -28.5378  -19.6798   22.6861 C   0  0  0  0  0  0
  -28.5844  -20.9308   22.0263 C   0  0  0  0  0  0
  -29.5195  -19.8132   20.0913 C   0  0  0  0  0  0
  -28.9744  -18.4856   22.0642 C   0  0  0  0  0  0
  -29.5003  -18.5209   20.7591 C   0  0  0  0  0  0
  -29.0572  -21.0507   20.6992 C   0  0  0  0  0  0
  -28.8522  -17.1513   22.7886 C   0  0  0  0  0  0
  -30.0330  -17.1614   20.1337 C   0  0  0  0  0  0
  -29.9089  -16.1064   22.3638 C   0  0  0  0  0  0
  -28.9980  -23.7276   20.6255 C   0  0  0  0  0  0
  -28.1653  -24.8998   19.8758 C   0  0  0  0  0  0
  -29.9496  -15.8498   20.9139 N   0  0  0  0  0  0
  -29.0275  -22.3317   20.0154 N   0  0  0  0  0  0
  -31.4720  -12.5372   19.1949 H   0  0  0  0  0  0
  -30.3463  -11.4481   19.9454 H   0  0  0  0  0  0
  -29.8015  -11.7806   17.5012 H   0  0  0  0  0  0
  -29.6493  -13.5004   17.7640 H   0  0  0  0  0  0
  -27.8871  -11.2936   18.8845 H   0  0  0  0  0  0
  -27.3854  -12.5591   17.7951 H   0  0  0  0  0  0
  -27.6524  -14.2636   19.5099 H   0  0  0  0  0  0
  -28.7064  -12.1236   21.4148 H   0  0  0  0  0  0
  -28.3935  -13.7863   21.8230 H   0  0  0  0  0  0
  -25.2798   -9.5706   22.4786 H   0  0  0  0  0  0
  -24.0026   -7.4654   22.7505 H   0  0  0  0  0  0
  -21.0864   -8.8790   19.8965 H   0  0  0  0  0  0
  -22.3733  -10.9695   19.6181 H   0  0  0  0  0  0
  -21.1981   -7.6169   23.9770 H   0  0  0  0  0  0
  -21.1493   -6.0520   25.9111 H   0  0  0  0  0  0
  -22.0584   -2.7624   23.2828 H   0  0  0  0  0  0
  -22.3991  -11.9875   22.4778 H   0  0  0  0  0  0
  -21.1094  -13.1367   22.2655 H   0  0  0  0  0  0
  -24.6617  -15.8539   20.5492 H   0  0  0  0  0  0
  -26.2853  -15.6405   20.1308 H   0  0  0  0  0  0
  -26.7174  -32.5381   23.1045 H   0  0  0  0  0  0
  -25.0053  -33.9658   25.0362 H   0  0  0  0  0  0
  -22.7246  -31.2988   21.3933 H   0  0  0  0  0  0
  -23.3763  -35.9623   23.3284 H   0  0  0  0  0  0
  -24.3605  -36.8936   22.2065 H   0  0  0  0  0  0
  -23.7259  -37.6476   23.6694 H   0  0  0  0  0  0
  -26.1192  -31.5258   20.6126 H   0  0  0  0  0  0
  -26.8463  -30.8082   22.0202 H   0  0  0  0  0  0
  -28.1143  -28.9180   21.2180 H   0  0  0  0  0  0
  -25.9596  -25.9389   18.9379 H   0  0  0  0  0  0
  -23.9827  -27.3261   18.9714 H   0  0  0  0  0  0
  -23.7687  -30.5920   19.4004 H   0  0  0  0  0  0
  -22.7666  -29.2433   19.8482 H   0  0  0  0  0  0
  -25.1323  -36.1895   25.0812 H   0  0  0  0  0  0
  -21.0007  -28.3257   24.1352 H   0  0  0  0  0  0
  -20.5604  -26.2275   23.3618 H   0  0  0  0  0  0
  -21.6611  -26.7340   22.1214 H   0  0  0  0  0  0
  -19.6866  -25.6256   21.1232 H   0  0  0  0  0  0
  -19.6699  -27.3160   20.6742 H   0  0  0  0  0  0
  -17.4181  -26.6674   21.4018 H   0  0  0  0  0  0
  -18.0316  -26.0066   22.9011 H   0  0  0  0  0  0
  -19.7947  -30.7277   24.2204 H   0  0  0  0  0  0
  -17.5018  -31.6257   24.5161 H   0  0  0  0  0  0
  -15.5345  -30.2951   23.7697 H   0  0  0  0  0  0
  -15.8673  -28.0811   22.7050 H   0  0  0  0  0  0
  -24.5896  -30.7073   25.7765 H   0  0  0  0  0  0
  -24.8923  -32.2899   26.4838 H   0  0  0  0  0  0
  -25.8028  -30.8911   27.0212 H   0  0  0  0  0  0
  -26.2915  -29.6690   24.1270 H   0  0  0  0  0  0
  -27.3965  -29.7235   25.4795 H   0  0  0  0  0  0
  -27.8823  -30.4165   23.9512 H   0  0  0  0  0  0
  -27.2570  -33.3624   26.2054 H   0  0  0  0  0  0
  -28.3845  -32.6912   25.0354 H   0  0  0  0  0  0
  -28.0675  -31.8489   26.5448 H   0  0  0  0  0  0
  -28.2565  -38.0134   24.7517 H   0  0  0  0  0  0
  -28.1128  -36.2649   24.6268 H   0  0  0  0  0  0
  -27.2301  -37.1422   25.8857 H   0  0  0  0  0  0
  -20.9347  -29.8810   21.6900 H   0  0  0  0  0  0
  -26.0169  -38.2816   24.1445 H   0  0  0  0  0  0
  -28.1396  -19.6393   23.6923 H   0  0  0  0  0  0
  -28.2129  -21.7952   22.5577 H   0  0  0  0  0  0
  -29.9014  -19.8477   19.0803 H   0  0  0  0  0  0
  -27.8507  -16.7596   22.6078 H   0  0  0  0  0  0
  -28.9205  -17.3171   23.8657 H   0  0  0  0  0  0
  -31.0784  -17.3297   19.8709 H   0  0  0  0  0  0
  -29.5135  -17.0051   19.1873 H   0  0  0  0  0  0
  -29.7319  -15.1872   22.9241 H   0  0  0  0  0  0
  -30.8979  -16.4506   22.6728 H   0  0  0  0  0  0
  -28.6539  -23.6809   21.6567 H   0  0  0  0  0  0
  -30.0379  -24.0500   20.6889 H   0  0  0  0  0  0
  -27.1286  -24.5995   20.0134 H   0  0  0  0  0  0
  -28.3669  -24.8230   18.8060 H   0  0  0  0  0  0
  -29.3706  -22.3116   19.0571 H   0  0  0  0  0  0
  1 25  1  0  0  0
  1 30  2  0  0  0
  1 82  1  0  0  0
  2  3  1  0  0  0
  2 25  1  0  0  0
  2 84  1  0  0  0
  2 85  1  0  0  0
  3  4  1  0  0  0
  3 86  1  0  0  0
  3 87  1  0  0  0
  4  5  1  0  0  0
  4 88  1  0  0  0
  4 89  1  0  0  0
  5  6  1  0  0  0
  5 26  1  0  0  0
  5 90  1  0  0  0
  6 25  1  0  0  0
  6 91  1  0  0  0
  6 92  1  0  0  0
  7  8  2  0  0  0
  7 26  1  0  0  0
  7 29  1  0  0  0
  8  9  1  0  0  0
  8 22  1  0  0  0
  9 10  1  0  0  0
  9 27  2  0  0  0
 10 11  2  0  0  0
 10 15  1  0  0  0
 11 12  1  0  0  0
 11 93  1  0  0  0
 12 13  2  0  0  0
 12 94  1  0  0  0
 13 14  1  0  0  0
 13 31  1  0  0  0
 14 15  2  0  0  0
 14 95  1  0  0  0
 15 96  1  0  0  0
 16 17  2  0  0  0
 16 21  1  0  0  0
 16 31  1  0  0  0
 17 18  1  0  0  0
 17 97  1  0  0  0
 18 19  2  0  0  0
 18 98  1  0  0  0
 19 20  1  0  0  0
 19 24  1  0  0  0
 20 21  2  0  0  0
 20 99  1  0  0  0
 21 23  1  0  0  0
 22 28  1  0  0  0
 22 32  2  0  0  0
 26 27  1  0  0  0
 28100  1  0  0  0
 28101  1  0  0  0
 29102  1  0  0  0
 29103  1  0  0  0
 33 34  1  0  0  0
 33 66  1  0  0  0
 33 70  2  0  0  0
 34 36  1  0  0  0
 34 59  1  0  0  0
 34104  1  0  0  0
 35 44  2  0  0  0
 35 45  1  0  0  0
 35 68  1  0  0  0
 36 56  1  0  0  0
 36105  1  0  0  0
 37 39  1  0  0  0
 37 47  1  0  0  0
 37 66  1  0  0  0
 37106  1  0  0  0
 38 43  2  0  0  0
 38 46  1  0  0  0
 38 47  1  0  0  0
 39 64  1  0  0  0
 39 67  2  0  0  0
 40 52  1  0  0  0
 40 53  2  0  0  0
 40 58  1  0  0  0
 41107  1  0  0  0
 41108  1  0  0  0
 41109  1  0  0  0
 41 48  1  0  0  0
 42 43  1  0  0  0
 42 66  1  0  0  0
 42110  1  0  0  0
 42111  1  0  0  0
 43 44  1  0  0  0
 44112  1  0  0  0
 45 46  2  0  0  0
 45113  1  0  0  0
 46114  1  0  0  0
 47115  1  0  0  0
 47116  1  0  0  0
 48 56  1  0  0  0
 48 65  1  0  0  0
 48117  1  0  0  0
 49 50  1  0  0  0
 49 53  1  0  0  0
 49 64  1  0  0  0
 49118  1  0  0  0
 50 51  1  0  0  0
 50119  1  0  0  0
 50120  1  0  0  0
 51 52  1  0  0  0
 51121  1  0  0  0
 51122  1  0  0  0
 52123  1  0  0  0
 52124  1  0  0  0
 53 54  1  0  0  0
 54 55  2  0  0  0
 54125  1  0  0  0
 55 57  1  0  0  0
 55126  1  0  0  0
 56 69  2  0  0  0
 57 58  2  0  0  0
 57127  1  0  0  0
 58128  1  0  0  0
 59 60  1  0  0  0
 59 61  1  0  0  0
 59 62  1  0  0  0
 60129  1  0  0  0
 60130  1  0  0  0
 60131  1  0  0  0
 61132  1  0  0  0
 61133  1  0  0  0
 61134  1  0  0  0
 62135  1  0  0  0
 62136  1  0  0  0
 62137  1  0  0  0
 63 65  1  0  0  0
 63138  1  0  0  0
 63139  1  0  0  0
 63140  1  0  0  0
 64141  1  0  0  0
 65142  1  0  0  0
 68 81  1  0  0  0
 71 72  2  0  0  0
 71 74  1  0  0  0
 71143  1  0  0  0
 72 76  1  0  0  0
 72144  1  0  0  0
 73 75  1  0  0  0
 73 76  2  0  0  0
 73145  1  0  0  0
 74 75  2  0  0  0
 74 77  1  0  0  0
 75 78  1  0  0  0
 76 83  1  0  0  0
 77 79  1  0  0  0
 77146  1  0  0  0
 77147  1  0  0  0
 78 82  1  0  0  0
 78148  1  0  0  0
 78149  1  0  0  0
 79 82  1  0  0  0
 79150  1  0  0  0
 79151  1  0  0  0
 80 81  1  0  0  0
 80 83  1  0  0  0
 80152  1  0  0  0
 80153  1  0  0  0
 81154  1  0  0  0
 81155  1  0  0  0
 83156  1  0  0  0
M  ISO  4   1 100  68 101  81 101  82 100
M  END
> <chiral flag>
0

> <version>
0

> <s_m_source_file>
/data/baiqing/PycharmProjects/Reinvent-master-3.2/result/LINK_invent/BTK/process_docking_weight1_custom_product_contain_oxygen_bond_distance_aromatic_linkinvent_7_9_3/rearranged_h_0026.sdf

> <i_m_source_file_index>
16

> <r_mmod_Potential_Energy-OPLS-2005>
269.486755371094

> <r_mmod_Stretch_Energy-OPLS-2005>
123.830772399902

> <r_mmod_Bend_Energy-OPLS-2005>
173.661148071289

> <r_mmod_Torsional_Energy-OPLS-2005>
274.150756835938

> <r_mmod_Improper_Torsional_Energy-OPLS-2005>
9.435302734375

> <r_mmod_Van_der_Waal_Energy-OPLS-2005>
145.017211914062

> <r_mmod_Electrostatic_Energy-OPLS-2005>
-320.271545410156

> <r_mmod_Solvation_Energy-OPLS-2005>
-210.973754882812

> <b_mmod_Minimization_Converged-OPLS-2005>
0

> <r_mmod_RMS_Derivative-OPLS-2005>
2.69188952445984

$$$$
16
                    3D
 Structure written by MMmdl.
154163  0  0  1  0            999 V2000
  -30.5382  -14.8240   20.4866 C   0  0  0  0  0  0
  -30.4373  -12.5170   19.4799 C   0  0  0  0  0  0
  -29.5144  -12.5235   18.2387 C   0  0  0  0  0  0
  -28.0394  -12.3310   18.6520 C   0  0  0  0  0  0
  -27.6325  -13.2365   19.8484 C   0  0  2  0  0  0
  -28.6725  -13.1874   20.9862 C   0  0  0  0  0  0
  -25.2434  -13.8196   20.5685 C   0  0  0  0  0  0
  -24.1732  -13.0419   20.9251 C   0  0  0  0  0  0
  -24.6357  -11.6933   20.8756 C   0  0  0  0  0  0
  -23.9058  -10.4298   21.0404 C   0  0  0  0  0  0
  -24.3598   -9.4204   21.9184 C   0  0  0  0  0  0
  -23.6277   -8.2232   22.0744 C   0  0  0  0  0  0
  -22.4258   -8.0275   21.3550 C   0  0  0  0  0  0
  -21.9903   -9.0244   20.4644 C   0  0  0  0  0  0
  -22.7231  -10.2134   20.3059 C   0  0  0  0  0  0
  -21.6861   -6.0730   22.5280 C   0  0  0  0  0  0
  -21.4018   -6.5630   23.8214 C   0  0  0  0  0  0
  -21.3656   -5.6773   24.9178 C   0  0  0  0  0  0
  -21.6048   -4.3041   24.7222 C   0  0  0  0  0  0
  -21.8817   -3.8134   23.4349 C   0  0  0  0  0  0
  -21.9192   -4.6958   22.3403 C   0  0  0  0  0  0
  -22.7775  -13.5201   21.1885 C   0  0  0  0  0  0
  -22.1662   -4.2131   21.0990 F   0  0  0  0  0  0
  -21.5624   -3.4537   25.7746 F   0  0  0  0  0  0
  -29.9586  -13.5748   20.4027 N   0  0  0  0  0  0
  -26.2846  -12.9409   20.3239 N   0  0  0  0  0  0
  -25.9275  -11.6545   20.5702 N   0  0  0  0  0  0
  -22.0433  -12.8194   22.0465 N   0  0  0  0  0  0
  -25.4113  -15.1919   20.4159 N   0  0  0  0  0  0
  -31.7396  -14.9300   20.2015 O   0  0  0  0  0  0
  -21.6647   -6.8871   21.4235 O   0  0  0  0  0  0
  -22.3483  -14.5516   20.6766 O   0  0  0  0  0  0
  -24.6345  -31.8515   23.1926 C   0  0  0  0  0  0
  -25.9174  -32.4723   23.8286 C   0  0  1  0  0  0
  -27.1704  -27.1903   20.1827 C   0  0  0  0  0  0
  -25.5960  -33.8534   24.2219 N   0  0  0  0  0  0
  -23.4323  -30.4687   21.5359 C   0  0  2  0  0  0
  -24.8740  -28.9103   20.1052 C   0  0  0  0  0  0
  -22.7526  -29.4547   22.4870 C   0  0  0  0  0  0
  -18.0299  -28.1403   22.8484 C   0  0  0  0  0  0
  -24.1505  -36.7258   23.2648 C   0  0  0  0  0  0
  -25.9803  -30.7430   21.3813 C   0  0  0  0  0  0
  -26.0490  -29.3614   20.7263 C   0  0  0  0  0  0
  -27.2074  -28.5136   20.7454 C   0  0  0  0  0  0
  -25.9864  -26.8213   19.5220 C   0  0  0  0  0  0
  -24.8539  -27.6542   19.4822 C   0  0  0  0  0  0
  -23.6535  -29.8078   20.1491 C   0  0  0  0  0  0
  -25.4140  -36.3036   24.0325 C   0  0  1  0  0  0
  -20.5911  -28.3706   23.1284 C   0  0  2  0  0  0
  -20.6793  -26.9416   22.5432 C   0  0  0  0  0  0
  -19.5753  -26.6376   21.5241 C   0  0  0  0  0  0
  -18.1928  -26.7949   22.1633 C   0  0  0  0  0  0
  -19.1566  -28.8876   23.2883 C   0  0  0  0  0  0
  -18.9461  -30.1478   23.8886 C   0  0  0  0  0  0
  -17.6466  -30.6598   24.0568 C   0  0  0  0  0  0
  -25.9075  -34.9420   23.5050 C   0  0  0  0  0  0
  -16.5357  -29.9089   23.6352 C   0  0  0  0  0  0
  -16.7293  -28.6522   23.0348 C   0  0  0  0  0  0
  -26.4519  -31.6545   25.0687 C   0  0  0  0  0  0
  -25.3731  -31.3713   26.1389 C   0  0  0  0  0  0
  -27.0366  -30.2945   24.6181 C   0  0  0  0  0  0
  -27.6069  -32.4289   25.7478 C   0  0  0  0  0  0
  -27.5565  -37.1778   24.8467 C   0  0  0  0  0  0
  -21.4231  -29.3029   22.3674 N   0  0  0  0  0  0
  -26.4285  -37.3747   23.9407 N   0  0  0  0  0  0
  -24.7016  -31.0431   22.0921 N   0  0  0  0  0  0
  -23.4225  -28.8109   23.3006 O   0  0  0  0  0  0
  -28.2102  -26.2324   20.2665 O   0  0  0  0  0  0
  -26.5667  -34.8914   22.4632 O   0  0  0  0  0  0
  -23.5492  -32.1367   23.7184 O   0  0  0  0  0  0
  -29.1535  -18.5745   20.5321 C   0  0  0  0  0  0
  -31.1963  -17.7321   21.5377 C   0  0  0  0  0  0
  -29.5199  -19.9904   20.7560 C   0  0  0  0  0  0
  -29.9955  -17.4122   20.8755 C   0  0  0  0  0  0
  -31.5530  -19.0644   21.8309 C   0  0  0  0  0  0
  -30.7454  -20.1634   21.4522 C   0  0  0  0  0  0
  -29.0668  -23.8077   21.0600 C   0  0  0  0  0  0
  -27.4750  -23.5784   19.8423 C   0  0  0  0  0  0
  -27.8954  -24.8079   20.7342 C   0  0  2  0  0  0
  -28.8274  -21.2973   20.0600 C   0  0  0  0  0  0
  -29.7060  -15.9503   20.6406 N   0  0  0  0  0  0
  -28.2343  -22.5971   20.7174 N   0  3  1  0  0  0
  -32.7330  -19.2999   22.4576 F   0  0  0  0  0  0
  -31.3381  -21.7460   21.8133 Cl  0  0  0  0  0  0
  -31.4710  -12.6809   19.1751 H   0  0  0  0  0  0
  -30.4199  -11.5455   19.9729 H   0  0  0  0  0  0
  -29.8167  -11.7398   17.5414 H   0  0  0  0  0  0
  -29.6268  -13.4693   17.7070 H   0  0  0  0  0  0
  -27.9057  -11.2815   18.9145 H   0  0  0  0  0  0
  -27.3859  -12.5159   17.7973 H   0  0  0  0  0  0
  -27.6146  -14.2543   19.4553 H   0  0  0  0  0  0
  -28.7263  -12.1907   21.4212 H   0  0  0  0  0  0
  -28.3856  -13.8648   21.7922 H   0  0  0  0  0  0
  -25.2755   -9.5685   22.4757 H   0  0  0  0  0  0
  -24.0003   -7.4623   22.7469 H   0  0  0  0  0  0
  -21.0831   -8.8753   19.8953 H   0  0  0  0  0  0
  -22.3675  -10.9661   19.6150 H   0  0  0  0  0  0
  -21.2013   -7.6141   23.9707 H   0  0  0  0  0  0
  -21.1483   -6.0523   25.9078 H   0  0  0  0  0  0
  -22.0602   -2.7598   23.2862 H   0  0  0  0  0  0
  -22.4066  -11.9849   22.4822 H   0  0  0  0  0  0
  -21.1038  -13.1194   22.2663 H   0  0  0  0  0  0
  -24.6356  -15.8369   20.5309 H   0  0  0  0  0  0
  -26.2400  -15.6391   20.0437 H   0  0  0  0  0  0
  -26.7216  -32.5350   23.1000 H   0  0  0  0  0  0
  -25.0086  -33.9643   25.0343 H   0  0  0  0  0  0
  -22.7322  -31.2898   21.3887 H   0  0  0  0  0  0
  -23.3745  -35.9588   23.3317 H   0  0  0  0  0  0
  -24.3585  -36.8875   22.2046 H   0  0  0  0  0  0
  -23.7256  -37.6471   23.6669 H   0  0  0  0  0  0
  -26.1269  -31.4872   20.5998 H   0  0  0  0  0  0
  -26.8612  -30.7983   22.0073 H   0  0  0  0  0  0
  -28.1028  -28.8290   21.2646 H   0  0  0  0  0  0
  -25.9156  -25.8462   19.0638 H   0  0  0  0  0  0
  -23.9577  -27.3027   18.9866 H   0  0  0  0  0  0
  -23.7898  -30.5797   19.3909 H   0  0  0  0  0  0
  -22.7735  -29.2383   19.8423 H   0  0  0  0  0  0
  -25.1312  -36.1856   25.0805 H   0  0  0  0  0  0
  -20.9995  -28.3266   24.1408 H   0  0  0  0  0  0
  -20.5705  -26.2286   23.3621 H   0  0  0  0  0  0
  -21.6647  -26.7446   22.1194 H   0  0  0  0  0  0
  -19.6928  -25.6282   21.1254 H   0  0  0  0  0  0
  -19.6711  -27.3219   20.6792 H   0  0  0  0  0  0
  -17.4206  -26.6713   21.4034 H   0  0  0  0  0  0
  -18.0316  -26.0106   22.9034 H   0  0  0  0  0  0
  -19.7927  -30.7314   24.2224 H   0  0  0  0  0  0
  -17.5004  -31.6271   24.5171 H   0  0  0  0  0  0
  -15.5348  -30.2975   23.7686 H   0  0  0  0  0  0
  -15.8685  -28.0836   22.7051 H   0  0  0  0  0  0
  -24.5924  -30.7078   25.7685 H   0  0  0  0  0  0
  -24.8941  -32.2899   26.4755 H   0  0  0  0  0  0
  -25.8033  -30.8895   27.0161 H   0  0  0  0  0  0
  -26.2938  -29.6714   24.1183 H   0  0  0  0  0  0
  -27.4017  -29.7202   25.4707 H   0  0  0  0  0  0
  -27.8838  -30.4236   23.9446 H   0  0  0  0  0  0
  -27.2657  -33.3585   26.2031 H   0  0  0  0  0  0
  -28.3884  -32.6836   25.0310 H   0  0  0  0  0  0
  -28.0715  -31.8415   26.5397 H   0  0  0  0  0  0
  -28.2577  -38.0077   24.7505 H   0  0  0  0  0  0
  -28.1068  -36.2610   24.6309 H   0  0  0  0  0  0
  -27.2289  -37.1436   25.8871 H   0  0  0  0  0  0
  -20.9420  -29.8720   21.6854 H   0  0  0  0  0  0
  -26.0151  -38.2804   24.1416 H   0  0  0  0  0  0
  -28.2152  -18.3707   20.0328 H   0  0  0  0  0  0
  -31.8851  -16.9488   21.8205 H   0  0  0  0  0  0
  -29.3777  -23.8501   22.1115 H   0  0  0  0  0  0
  -29.9259  -23.9384   20.3955 H   0  0  0  0  0  0
  -27.8523  -23.6245   18.8174 H   0  0  0  0  0  0
  -26.3940  -23.4054   19.8393 H   0  0  0  0  0  0
  -27.2102  -24.8827   21.5824 H   0  0  0  0  0  0
  -28.0190  -20.8786   19.4663 H   0  0  0  0  0  0
  -29.5539  -21.6440   19.3229 H   0  0  0  0  0  0
  -28.7248  -15.7165   20.6016 H   0  0  0  0  0  0
  -27.6294  -22.3213   21.4817 H   0  0  0  0  0  0
  1 25  1  0  0  0
  1 30  2  0  0  0
  1 81  1  0  0  0
  2  3  1  0  0  0
  2 25  1  0  0  0
  2 85  1  0  0  0
  2 86  1  0  0  0
  3  4  1  0  0  0
  3 87  1  0  0  0
  3 88  1  0  0  0
  4  5  1  0  0  0
  4 89  1  0  0  0
  4 90  1  0  0  0
  5  6  1  0  0  0
  5 26  1  0  0  0
  5 91  1  0  0  0
  6 25  1  0  0  0
  6 92  1  0  0  0
  6 93  1  0  0  0
  7  8  2  0  0  0
  7 26  1  0  0  0
  7 29  1  0  0  0
  8  9  1  0  0  0
  8 22  1  0  0  0
  9 10  1  0  0  0
  9 27  2  0  0  0
 10 11  2  0  0  0
 10 15  1  0  0  0
 11 12  1  0  0  0
 11 94  1  0  0  0
 12 13  2  0  0  0
 12 95  1  0  0  0
 13 14  1  0  0  0
 13 31  1  0  0  0
 14 15  2  0  0  0
 14 96  1  0  0  0
 15 97  1  0  0  0
 16 17  2  0  0  0
 16 21  1  0  0  0
 16 31  1  0  0  0
 17 18  1  0  0  0
 17 98  1  0  0  0
 18 19  2  0  0  0
 18 99  1  0  0  0
 19 20  1  0  0  0
 19 24  1  0  0  0
 20 21  2  0  0  0
 20100  1  0  0  0
 21 23  1  0  0  0
 22 28  1  0  0  0
 22 32  2  0  0  0
 26 27  1  0  0  0
 28101  1  0  0  0
 28102  1  0  0  0
 29103  1  0  0  0
 29104  1  0  0  0
 33 34  1  0  0  0
 33 66  1  0  0  0
 33 70  2  0  0  0
 34 36  1  0  0  0
 34 59  1  0  0  0
 34105  1  0  0  0
 35 44  2  0  0  0
 35 45  1  0  0  0
 35 68  1  0  0  0
 36 56  1  0  0  0
 36106  1  0  0  0
 37 39  1  0  0  0
 37 47  1  0  0  0
 37 66  1  0  0  0
 37107  1  0  0  0
 38 43  2  0  0  0
 38 46  1  0  0  0
 38 47  1  0  0  0
 39 64  1  0  0  0
 39 67  2  0  0  0
 40 52  1  0  0  0
 40 53  2  0  0  0
 40 58  1  0  0  0
 41108  1  0  0  0
 41109  1  0  0  0
 41110  1  0  0  0
 41 48  1  0  0  0
 42 43  1  0  0  0
 42 66  1  0  0  0
 42111  1  0  0  0
 42112  1  0  0  0
 43 44  1  0  0  0
 44113  1  0  0  0
 45 46  2  0  0  0
 45114  1  0  0  0
 46115  1  0  0  0
 47116  1  0  0  0
 47117  1  0  0  0
 48 56  1  0  0  0
 48 65  1  0  0  0
 48118  1  0  0  0
 49 50  1  0  0  0
 49 53  1  0  0  0
 49 64  1  0  0  0
 49119  1  0  0  0
 50 51  1  0  0  0
 50120  1  0  0  0
 50121  1  0  0  0
 51 52  1  0  0  0
 51122  1  0  0  0
 51123  1  0  0  0
 52124  1  0  0  0
 52125  1  0  0  0
 53 54  1  0  0  0
 54 55  2  0  0  0
 54126  1  0  0  0
 55 57  1  0  0  0
 55127  1  0  0  0
 56 69  2  0  0  0
 57 58  2  0  0  0
 57128  1  0  0  0
 58129  1  0  0  0
 59 60  1  0  0  0
 59 61  1  0  0  0
 59 62  1  0  0  0
 60130  1  0  0  0
 60131  1  0  0  0
 60132  1  0  0  0
 61133  1  0  0  0
 61134  1  0  0  0
 61135  1  0  0  0
 62136  1  0  0  0
 62137  1  0  0  0
 62138  1  0  0  0
 63 65  1  0  0  0
 63139  1  0  0  0
 63140  1  0  0  0
 63141  1  0  0  0
 64142  1  0  0  0
 65143  1  0  0  0
 68 79  1  0  0  0
 71 73  2  0  0  0
 71 74  1  0  0  0
 71144  1  0  0  0
 72 74  2  0  0  0
 72 75  1  0  0  0
 72145  1  0  0  0
 73 76  1  0  0  0
 73 80  1  0  0  0
 74 81  1  0  0  0
 75 76  2  0  0  0
 75 83  1  0  0  0
 76 84  1  0  0  0
 77 79  1  0  0  0
 77 82  1  0  0  0
 77146  1  0  0  0
 77147  1  0  0  0
 78 79  1  0  0  0
 78 82  1  0  0  0
 78148  1  0  0  0
 78149  1  0  0  0
 79150  1  0  0  0
 80151  1  0  0  0
 80152  1  0  0  0
 80 82  1  0  0  0
 81153  1  0  0  0
 82154  1  0  0  0
M  CHG  1  82   1
M  ISO  4   1 100  68 101  79 101  81 100
M  END
> <chiral flag>
0

> <version>
0

> <s_m_source_file>
/data/baiqing/PycharmProjects/Reinvent-master-3.2/result/LINK_invent/BTK/process_docking_weight1_custom_product_contain_oxygen_bond_distance_aromatic_linkinvent_7_9_3/rearranged_h_0026.sdf

> <i_m_source_file_index>
17

> <r_mmod_Potential_Energy-OPLS-2005>
122.240898132324

> <r_mmod_Stretch_Energy-OPLS-2005>
170.586135864258

> <r_mmod_Bend_Energy-OPLS-2005>
233.722640991211

> <r_mmod_Torsional_Energy-OPLS-2005>
248.177062988281

> <r_mmod_Improper_Torsional_Energy-OPLS-2005>
7.79790878295898

> <r_mmod_Van_der_Waal_Energy-OPLS-2005>
133.903381347656

> <r_mmod_Electrostatic_Energy-OPLS-2005>
-316.360931396484

> <r_mmod_Solvation_Energy-OPLS-2005>
-493.185333251953

> <b_mmod_Minimization_Converged-OPLS-2005>
0

> <r_mmod_RMS_Derivative-OPLS-2005>
9.6462345123291

$$$$
17
                    3D
 Structure written by MMmdl.
180189  0  0  1  0            999 V2000
  -30.5354  -15.1059   20.3206 C   0  0  0  0  0  0
  -30.4560  -12.6699   19.5020 C   0  0  0  0  0  0
  -29.5363  -12.3213   18.3065 C   0  0  0  0  0  0
  -28.0524  -12.2369   18.7139 C   0  0  0  0  0  0
  -27.6143  -13.2435   19.8133 C   0  0  2  0  0  0
  -28.6726  -13.4088   20.9188 C   0  0  0  0  0  0
  -25.2449  -13.8222   20.5789 C   0  0  0  0  0  0
  -24.1766  -13.0437   20.9302 C   0  0  0  0  0  0
  -24.6377  -11.6917   20.8866 C   0  0  0  0  0  0
  -23.9078  -10.4270   21.0471 C   0  0  0  0  0  0
  -24.3616   -9.4167   21.9241 C   0  0  0  0  0  0
  -23.6282   -8.2213   22.0759 C   0  0  0  0  0  0
  -22.4253   -8.0270   21.3540 C   0  0  0  0  0  0
  -21.9902   -9.0261   20.4649 C   0  0  0  0  0  0
  -22.7264  -10.2143   20.3103 C   0  0  0  0  0  0
  -21.6833   -6.0741   22.5305 C   0  0  0  0  0  0
  -21.4029   -6.5651   23.8241 C   0  0  0  0  0  0
  -21.3645   -5.6802   24.9214 C   0  0  0  0  0  0
  -21.6005   -4.3056   24.7260 C   0  0  0  0  0  0
  -21.8794   -3.8153   23.4379 C   0  0  0  0  0  0
  -21.9183   -4.6975   22.3433 C   0  0  0  0  0  0
  -22.7790  -13.5211   21.1913 C   0  0  0  0  0  0
  -22.1650   -4.2154   21.1010 F   0  0  0  0  0  0
  -21.5604   -3.4518   25.7758 F   0  0  0  0  0  0
  -29.9025  -13.8496   20.2417 N   0  0  0  0  0  0
  -26.2850  -12.9428   20.3307 N   0  0  0  0  0  0
  -25.9306  -11.6583   20.5926 N   0  0  0  0  0  0
  -22.0390  -12.8234   22.0460 N   0  0  0  0  0  0
  -25.4102  -15.1955   20.4227 N   0  0  0  0  0  0
  -31.7718  -15.0537   20.2668 O   0  0  0  0  0  0
  -21.6611   -6.8878   21.4253 O   0  0  0  0  0  0
  -22.3507  -14.5514   20.6727 O   0  0  0  0  0  0
  -24.6450  -31.8365   23.1798 C   0  0  0  0  0  0
  -25.9207  -32.4640   23.8214 C   0  0  1  0  0  0
  -27.2387  -27.1012   20.1579 C   0  0  0  0  0  0
  -25.5954  -33.8450   24.2143 N   0  0  0  0  0  0
  -23.4520  -30.4475   21.5230 C   0  0  2  0  0  0
  -24.9071  -28.8588   20.0959 C   0  0  0  0  0  0
  -22.7579  -29.4475   22.4814 C   0  0  0  0  0  0
  -18.0300  -28.1390   22.8456 C   0  0  0  0  0  0
  -24.1490  -36.7216   23.2648 C   0  0  0  0  0  0
  -26.0059  -30.6948   21.3854 C   0  0  0  0  0  0
  -26.0740  -29.3038   20.7257 C   0  0  0  0  0  0
  -27.2281  -28.4369   20.7417 C   0  0  0  0  0  0
  -26.0510  -26.7557   19.4792 C   0  0  0  0  0  0
  -24.9110  -27.6034   19.4558 C   0  0  0  0  0  0
  -23.6816  -29.7653   20.1432 C   0  0  0  0  0  0
  -25.4124  -36.2997   24.0320 C   0  0  1  0  0  0
  -20.5911  -28.3704   23.1227 C   0  0  2  0  0  0
  -20.6767  -26.9392   22.5408 C   0  0  0  0  0  0
  -19.5753  -26.6358   21.5205 C   0  0  0  0  0  0
  -18.1936  -26.7923   22.1610 C   0  0  0  0  0  0
  -19.1559  -28.8863   23.2835 C   0  0  0  0  0  0
  -18.9481  -30.1462   23.8858 C   0  0  0  0  0  0
  -17.6481  -30.6581   24.0554 C   0  0  0  0  0  0
  -25.9075  -34.9385   23.5047 C   0  0  0  0  0  0
  -16.5368  -29.9076   23.6339 C   0  0  0  0  0  0
  -16.7284  -28.6504   23.0341 C   0  0  0  0  0  0
  -26.4532  -31.6538   25.0680 C   0  0  0  0  0  0
  -25.3719  -31.3752   26.1381 C   0  0  0  0  0  0
  -27.0429  -30.2936   24.6311 C   0  0  0  0  0  0
  -27.6040  -32.4338   25.7469 C   0  0  0  0  0  0
  -27.5573  -37.1765   24.8475 C   0  0  0  0  0  0
  -21.4260  -29.3013   22.3591 N   0  0  0  0  0  0
  -26.4278  -37.3723   23.9424 N   0  0  0  0  0  0
  -24.7197  -31.0175   22.0839 N   0  0  0  0  0  0
  -23.4205  -28.8049   23.3000 O   0  0  0  0  0  0
  -28.3236  -26.1669   20.3756 O   0  0  0  0  0  0
  -26.5679  -34.8892   22.4634 O   0  0  0  0  0  0
  -23.5556  -32.1259   23.6990 O   0  0  0  0  0  0
  -28.0707  -15.8353   16.8343 C   0  0  0  0  0  0
  -28.9925  -15.7612   17.8874 C   0  0  0  0  0  0
  -27.2193  -16.9362   16.7447 C   0  0  0  0  0  0
  -28.4720  -18.0369   18.5585 C   0  0  0  0  0  0
  -29.1272  -16.7634   18.8743 C   0  0  0  0  0  0
  -27.4189  -18.0428   17.5863 C   0  0  0  0  0  0
  -29.0835  -19.4665   18.7572 C   0  0  0  0  0  0
  -30.0813  -19.2015   20.8893 C   0  0  0  0  0  0
  -29.8674  -17.5616   21.1372 C   0  0  0  0  0  0
  -29.0719  -20.2391   20.1190 C   0  0  1  0  0  0
  -30.1657  -24.9738   20.5697 C   0  0  0  0  0  0
  -28.8789  -24.9930   18.3370 C   0  0  0  0  0  0
  -25.6839  -19.4375   18.4713 C   0  0  0  0  0  0
  -30.3957  -22.0159   18.8687 C   0  0  0  0  0  0
  -26.5802  -21.8096   16.4368 C   0  0  0  0  0  0
  -28.4297  -23.0844   20.1728 C   0  0  0  0  0  0
  -28.8102  -24.7525   19.8572 C   0  0  0  0  0  0
  -29.8739  -16.4025   20.1036 N   0  0  0  0  0  0
  -26.6001  -19.1658   17.3676 N   0  0  0  0  0  0
  -29.4481  -21.8220   20.0046 N   0  3  1  0  0  0
  -25.1088  -19.8088   15.3761 O   0  0  0  0  0  0
  -27.6465  -19.7403   15.0911 O   0  0  0  0  0  0
  -26.4596  -20.0755   15.8909 S   0  0  0  0  0  0
  -31.4651  -12.8615   19.1325 H   0  0  0  0  0  0
  -30.5439  -11.8149   20.1739 H   0  0  0  0  0  0
  -29.8350  -11.3395   17.9341 H   0  0  0  0  0  0
  -29.6842  -12.9681   17.4475 H   0  0  0  0  0  0
  -27.9082  -11.2248   19.0925 H   0  0  0  0  0  0
  -27.4094  -12.3137   17.8369 H   0  0  0  0  0  0
  -27.5197  -14.2075   19.3218 H   0  0  0  0  0  0
  -28.8224  -12.4797   21.4691 H   0  0  0  0  0  0
  -28.3548  -14.1582   21.6449 H   0  0  0  0  0  0
  -25.2751   -9.5624   22.4854 H   0  0  0  0  0  0
  -23.9931   -7.4597   22.7493 H   0  0  0  0  0  0
  -21.0807   -8.8842   19.8985 H   0  0  0  0  0  0
  -22.3725  -10.9706   19.6241 H   0  0  0  0  0  0
  -21.2044   -7.6155   23.9763 H   0  0  0  0  0  0
  -21.1482   -6.0532   25.9115 H   0  0  0  0  0  0
  -22.0572   -2.7602   23.2907 H   0  0  0  0  0  0
  -22.3932  -11.9919   22.4937 H   0  0  0  0  0  0
  -21.1011  -13.1363   22.2586 H   0  0  0  0  0  0
  -24.6370  -15.8395   20.5525 H   0  0  0  0  0  0
  -26.2596  -15.6458   20.1106 H   0  0  0  0  0  0
  -26.7274  -32.5228   23.0929 H   0  0  0  0  0  0
  -25.0091  -33.9569   25.0288 H   0  0  0  0  0  0
  -22.7560  -31.2727   21.3614 H   0  0  0  0  0  0
  -23.3770  -35.9528   23.3287 H   0  0  0  0  0  0
  -24.3562  -36.8868   22.2064 H   0  0  0  0  0  0
  -23.7225  -37.6392   23.6703 H   0  0  0  0  0  0
  -26.1764  -31.4481   20.6146 H   0  0  0  0  0  0
  -26.8698  -30.7372   22.0376 H   0  0  0  0  0  0
  -28.1106  -28.7619   21.2738 H   0  0  0  0  0  0
  -25.9724  -25.7817   19.0190 H   0  0  0  0  0  0
  -24.0177  -27.2585   18.9536 H   0  0  0  0  0  0
  -23.8228  -30.5375   19.3862 H   0  0  0  0  0  0
  -22.7947  -29.2101   19.8309 H   0  0  0  0  0  0
  -25.1314  -36.1801   25.0811 H   0  0  0  0  0  0
  -21.0009  -28.3296   24.1348 H   0  0  0  0  0  0
  -20.5615  -26.2321   23.3635 H   0  0  0  0  0  0
  -21.6642  -26.7356   22.1241 H   0  0  0  0  0  0
  -19.6916  -25.6266   21.1248 H   0  0  0  0  0  0
  -19.6699  -27.3155   20.6728 H   0  0  0  0  0  0
  -17.4197  -26.6656   21.4021 H   0  0  0  0  0  0
  -18.0327  -26.0079   22.9022 H   0  0  0  0  0  0
  -19.7962  -30.7291   24.2201 H   0  0  0  0  0  0
  -17.5033  -31.6256   24.5171 H   0  0  0  0  0  0
  -15.5367  -30.2970   23.7682 H   0  0  0  0  0  0
  -15.8686  -28.0827   22.7053 H   0  0  0  0  0  0
  -24.5880  -30.7120   25.7706 H   0  0  0  0  0  0
  -24.8936  -32.2948   26.4765 H   0  0  0  0  0  0
  -25.7992  -30.8941   27.0190 H   0  0  0  0  0  0
  -26.3076  -29.6617   24.1319 H   0  0  0  0  0  0
  -27.4035  -29.7266   25.4904 H   0  0  0  0  0  0
  -27.8972  -30.4165   23.9649 H   0  0  0  0  0  0
  -27.2613  -33.3668   26.1958 H   0  0  0  0  0  0
  -28.3886  -32.6862   25.0324 H   0  0  0  0  0  0
  -28.0678  -31.8539   26.5460 H   0  0  0  0  0  0
  -28.2579  -38.0070   24.7510 H   0  0  0  0  0  0
  -28.1076  -36.2599   24.6306 H   0  0  0  0  0  0
  -27.2295  -37.1405   25.8879 H   0  0  0  0  0  0
  -20.9485  -29.8734   21.6773 H   0  0  0  0  0  0
  -26.0133  -38.2782   24.1436 H   0  0  0  0  0  0
  -27.9970  -15.0304   16.1180 H   0  0  0  0  0  0
  -29.6000  -14.8864   17.9233 H   0  0  0  0  0  0
  -26.4666  -16.9588   15.9689 H   0  0  0  0  0  0
  -28.6930  -20.1305   17.9942 H   0  0  0  0  0  0
  -30.1152  -19.3334   18.4273 H   0  0  0  0  0  0
  -31.0816  -19.3254   20.4690 H   0  0  0  0  0  0
  -30.1869  -19.6249   21.8900 H   0  0  0  0  0  0
  -28.9174  -17.4556   21.6638 H   0  0  0  0  0  0
  -30.6109  -17.2788   21.8855 H   0  0  0  0  0  0
  -28.0800  -20.1843   20.5662 H   0  0  0  0  0  0
  -30.8667  -24.1479   20.5303 H   0  0  0  0  0  0
  -29.9926  -25.1366   21.6342 H   0  0  0  0  0  0
  -30.6854  -25.8556   20.1930 H   0  0  0  0  0  0
  -29.4922  -24.2760   17.8023 H   0  0  0  0  0  0
  -29.2776  -25.9817   18.1113 H   0  0  0  0  0  0
  -27.8839  -24.9402   17.8983 H   0  0  0  0  0  0
  -25.5532  -18.5721   19.1246 H   0  0  0  0  0  0
  -24.6985  -19.7097   18.0911 H   0  0  0  0  0  0
  -26.0378  -20.2686   19.0803 H   0  0  0  0  0  0
  -31.1868  -21.2664   18.8866 H   0  0  0  0  0  0
  -30.9174  -22.9649   18.8685 H   0  0  0  0  0  0
  -29.8880  -21.9483   17.9052 H   0  0  0  0  0  0
  -25.7612  -22.0470   17.1109 H   0  0  0  0  0  0
  -26.5212  -22.4550   15.5624 H   0  0  0  0  0  0
  -27.5323  -21.9777   16.9326 H   0  0  0  0  0  0
  -27.5487  -22.8465   19.5775 H   0  0  0  0  0  0
  -28.0900  -23.0273   21.2086 H   0  0  0  0  0  0
  -30.0357  -21.9522   20.8157 H   0  0  0  0  0  0
  1 25  1  0  0  0
  1 30  2  0  0  0
  1 88  1  0  0  0
  2  3  1  0  0  0
  2 25  1  0  0  0
  2 94  1  0  0  0
  2 95  1  0  0  0
  3  4  1  0  0  0
  3 96  1  0  0  0
  3 97  1  0  0  0
  4  5  1  0  0  0
  4 98  1  0  0  0
  4 99  1  0  0  0
  5  6  1  0  0  0
  5 26  1  0  0  0
  5100  1  0  0  0
  6 25  1  0  0  0
  6101  1  0  0  0
  6102  1  0  0  0
  7  8  2  0  0  0
  7 26  1  0  0  0
  7 29  1  0  0  0
  8  9  1  0  0  0
  8 22  1  0  0  0
  9 10  1  0  0  0
  9 27  2  0  0  0
 10 11  2  0  0  0
 10 15  1  0  0  0
 11 12  1  0  0  0
 11103  1  0  0  0
 12 13  2  0  0  0
 12104  1  0  0  0
 13 14  1  0  0  0
 13 31  1  0  0  0
 14 15  2  0  0  0
 14105  1  0  0  0
 15106  1  0  0  0
 16 17  2  0  0  0
 16 21  1  0  0  0
 16 31  1  0  0  0
 17 18  1  0  0  0
 17107  1  0  0  0
 18 19  2  0  0  0
 18108  1  0  0  0
 19 20  1  0  0  0
 19 24  1  0  0  0
 20 21  2  0  0  0
 20109  1  0  0  0
 21 23  1  0  0  0
 22 28  1  0  0  0
 22 32  2  0  0  0
 26 27  1  0  0  0
 28110  1  0  0  0
 28111  1  0  0  0
 29112  1  0  0  0
 29113  1  0  0  0
 33 34  1  0  0  0
 33 66  1  0  0  0
 33 70  2  0  0  0
 34 36  1  0  0  0
 34 59  1  0  0  0
 34114  1  0  0  0
 35 44  2  0  0  0
 35 45  1  0  0  0
 35 68  1  0  0  0
 36 56  1  0  0  0
 36115  1  0  0  0
 37 39  1  0  0  0
 37 47  1  0  0  0
 37 66  1  0  0  0
 37116  1  0  0  0
 38 43  2  0  0  0
 38 46  1  0  0  0
 38 47  1  0  0  0
 39 64  1  0  0  0
 39 67  2  0  0  0
 40 52  1  0  0  0
 40 53  2  0  0  0
 40 58  1  0  0  0
 41117  1  0  0  0
 41118  1  0  0  0
 41119  1  0  0  0
 41 48  1  0  0  0
 42 43  1  0  0  0
 42 66  1  0  0  0
 42120  1  0  0  0
 42121  1  0  0  0
 43 44  1  0  0  0
 44122  1  0  0  0
 45 46  2  0  0  0
 45123  1  0  0  0
 46124  1  0  0  0
 47125  1  0  0  0
 47126  1  0  0  0
 48 56  1  0  0  0
 48 65  1  0  0  0
 48127  1  0  0  0
 49 50  1  0  0  0
 49 53  1  0  0  0
 49 64  1  0  0  0
 49128  1  0  0  0
 50 51  1  0  0  0
 50129  1  0  0  0
 50130  1  0  0  0
 51 52  1  0  0  0
 51131  1  0  0  0
 51132  1  0  0  0
 52133  1  0  0  0
 52134  1  0  0  0
 53 54  1  0  0  0
 54 55  2  0  0  0
 54135  1  0  0  0
 55 57  1  0  0  0
 55136  1  0  0  0
 56 69  2  0  0  0
 57 58  2  0  0  0
 57137  1  0  0  0
 58138  1  0  0  0
 59 60  1  0  0  0
 59 61  1  0  0  0
 59 62  1  0  0  0
 60139  1  0  0  0
 60140  1  0  0  0
 60141  1  0  0  0
 61142  1  0  0  0
 61143  1  0  0  0
 61144  1  0  0  0
 62145  1  0  0  0
 62146  1  0  0  0
 62147  1  0  0  0
 63 65  1  0  0  0
 63148  1  0  0  0
 63149  1  0  0  0
 63150  1  0  0  0
 64151  1  0  0  0
 65152  1  0  0  0
 68 87  1  0  0  0
 71 72  2  0  0  0
 71 73  1  0  0  0
 71153  1  0  0  0
 72 75  1  0  0  0
 72154  1  0  0  0
 73 76  2  0  0  0
 73155  1  0  0  0
 74 75  2  0  0  0
 74 76  1  0  0  0
 74 77  1  0  0  0
 75 88  1  0  0  0
 76 89  1  0  0  0
 77156  1  0  0  0
 77157  1  0  0  0
 77 80  1  0  0  0
 78 79  1  0  0  0
 78 80  1  0  0  0
 78158  1  0  0  0
 78159  1  0  0  0
 79 88  1  0  0  0
 79160  1  0  0  0
 79161  1  0  0  0
 80 90  1  0  0  0
 80162  1  0  0  0
 81163  1  0  0  0
 81164  1  0  0  0
 81165  1  0  0  0
 81 87  1  0  0  0
 82 87  1  0  0  0
 82166  1  0  0  0
 82167  1  0  0  0
 82168  1  0  0  0
 83 89  1  0  0  0
 83169  1  0  0  0
 83170  1  0  0  0
 83171  1  0  0  0
 84172  1  0  0  0
 84173  1  0  0  0
 84174  1  0  0  0
 84 90  1  0  0  0
 85175  1  0  0  0
 85176  1  0  0  0
 85177  1  0  0  0
 85 93  1  0  0  0
 86 87  1  0  0  0
 86 90  1  0  0  0
 86178  1  0  0  0
 86179  1  0  0  0
 89 93  1  0  0  0
 90180  1  0  0  0
 91 93  2  0  0  0
 92 93  2  0  0  0
M  CHG  1  90   1
M  ISO  4   1 100  68 101  87 101  88 100
M  END
> <chiral flag>
0

> <version>
0

> <s_m_source_file>
/data/baiqing/PycharmProjects/Reinvent-master-3.2/result/LINK_invent/BTK/process_docking_weight1_custom_product_contain_oxygen_bond_distance_aromatic_linkinvent_7_9_3/rearranged_h_0026.sdf

> <i_m_source_file_index>
18

> <r_mmod_Potential_Energy-OPLS-2005>
848.951477050781

> <r_mmod_Stretch_Energy-OPLS-2005>
358.993225097656

> <r_mmod_Bend_Energy-OPLS-2005>
483.448608398438

> <r_mmod_Torsional_Energy-OPLS-2005>
409.837158203125

> <r_mmod_Improper_Torsional_Energy-OPLS-2005>
14.9359407424927

> <r_mmod_Van_der_Waal_Energy-OPLS-2005>
139.598648071289

> <r_mmod_Electrostatic_Energy-OPLS-2005>
-371.318664550781

> <r_mmod_Solvation_Energy-OPLS-2005>
-478.369354248047

> <b_mmod_Minimization_Converged-OPLS-2005>
0

> <r_mmod_RMS_Derivative-OPLS-2005>
4.33848428726196

$$$$
18
                    3D
 Structure written by MMmdl.
158167  0  0  1  0            999 V2000
  -30.6674  -14.6285   20.5141 C   0  0  0  0  0  0
  -30.4240  -12.3953   19.4452 C   0  0  0  0  0  0
  -29.4966  -12.5039   18.2165 C   0  0  0  0  0  0
  -28.0215  -12.3446   18.6340 C   0  0  0  0  0  0
  -27.6469  -13.2244   19.8578 C   0  0  2  0  0  0
  -28.6946  -13.1051   20.9862 C   0  0  0  0  0  0
  -25.2534  -13.8187   20.5698 C   0  0  0  0  0  0
  -24.1814  -13.0438   20.9200 C   0  0  0  0  0  0
  -24.6393  -11.6913   20.8745 C   0  0  0  0  0  0
  -23.9064  -10.4288   21.0409 C   0  0  0  0  0  0
  -24.3620   -9.4203   21.9186 C   0  0  0  0  0  0
  -23.6297   -8.2236   22.0749 C   0  0  0  0  0  0
  -22.4277   -8.0277   21.3538 C   0  0  0  0  0  0
  -21.9920   -9.0248   20.4641 C   0  0  0  0  0  0
  -22.7243  -10.2128   20.3054 C   0  0  0  0  0  0
  -21.6857   -6.0738   22.5276 C   0  0  0  0  0  0
  -21.4014   -6.5641   23.8212 C   0  0  0  0  0  0
  -21.3656   -5.6794   24.9177 C   0  0  0  0  0  0
  -21.6043   -4.3055   24.7225 C   0  0  0  0  0  0
  -21.8817   -3.8149   23.4348 C   0  0  0  0  0  0
  -21.9193   -4.6968   22.3404 C   0  0  0  0  0  0
  -22.7836  -13.5222   21.1869 C   0  0  0  0  0  0
  -22.1662   -4.2151   21.0984 F   0  0  0  0  0  0
  -21.5629   -3.4541   25.7742 F   0  0  0  0  0  0
  -30.0033  -13.4348   20.4066 N   0  0  0  0  0  0
  -26.2967  -12.9387   20.3319 N   0  0  0  0  0  0
  -25.9324  -11.6530   20.5766 N   0  0  0  0  0  0
  -22.0488  -12.8198   22.0419 N   0  0  0  0  0  0
  -25.4246  -15.1909   20.4120 N   0  0  0  0  0  0
  -31.8444  -14.7283   20.1613 O   0  0  0  0  0  0
  -21.6637   -6.8878   21.4239 O   0  0  0  0  0  0
  -22.3516  -14.5532   20.6725 O   0  0  0  0  0  0
  -24.6297  -31.8613   23.2062 C   0  0  0  0  0  0
  -25.9150  -32.4792   23.8378 C   0  0  1  0  0  0
  -27.2039  -27.2938   20.0980 C   0  0  0  0  0  0
  -25.5974  -33.8595   24.2297 N   0  0  0  0  0  0
  -23.4219  -30.4921   21.5500 C   0  0  2  0  0  0
  -24.8623  -28.9575   20.1075 C   0  0  0  0  0  0
  -22.7482  -29.4656   22.4926 C   0  0  0  0  0  0
  -18.0293  -28.1399   22.8501 C   0  0  0  0  0  0
  -24.1468  -36.7265   23.2637 C   0  0  0  0  0  0
  -25.9698  -30.7792   21.3872 C   0  0  0  0  0  0
  -26.0368  -29.4088   20.7225 C   0  0  0  0  0  0
  -27.2095  -28.5879   20.7151 C   0  0  0  0  0  0
  -25.9967  -26.9189   19.4535 C   0  0  0  0  0  0
  -24.8464  -27.7181   19.4646 C   0  0  0  0  0  0
  -23.6358  -29.8423   20.1608 C   0  0  0  0  0  0
  -25.4096  -36.3080   24.0331 C   0  0  1  0  0  0
  -20.5899  -28.3706   23.1269 C   0  0  2  0  0  0
  -20.6782  -26.9425   22.5400 C   0  0  0  0  0  0
  -19.5753  -26.6388   21.5209 C   0  0  0  0  0  0
  -18.1930  -26.7940   22.1621 C   0  0  0  0  0  0
  -19.1550  -28.8865   23.2883 C   0  0  0  0  0  0
  -18.9485  -30.1472   23.8895 C   0  0  0  0  0  0
  -17.6485  -30.6608   24.0575 C   0  0  0  0  0  0
  -25.9058  -34.9460   23.5098 C   0  0  0  0  0  0
  -16.5372  -29.9103   23.6349 C   0  0  0  0  0  0
  -16.7282  -28.6519   23.0364 C   0  0  0  0  0  0
  -26.4509  -31.6618   25.0764 C   0  0  0  0  0  0
  -25.3731  -31.3783   26.1498 C   0  0  0  0  0  0
  -27.0360  -30.3037   24.6247 C   0  0  0  0  0  0
  -27.6076  -32.4358   25.7518 C   0  0  0  0  0  0
  -27.5582  -37.1767   24.8452 C   0  0  0  0  0  0
  -21.4191  -29.3080   22.3672 N   0  0  0  0  0  0
  -26.4255  -37.3796   23.9456 N   0  0  0  0  0  0
  -24.6930  -31.0607   22.1037 N   0  0  0  0  0  0
  -23.4200  -28.8167   23.2987 O   0  0  0  0  0  0
  -28.3005  -26.3998   20.1416 O   0  0  0  0  0  0
  -26.5605  -34.8929   22.4652 O   0  0  0  0  0  0
  -23.5450  -32.1431   23.7365 O   0  0  0  0  0  0
  -30.0144  -20.2904   19.1158 C   0  0  0  0  0  0
  -29.1802  -20.7973   21.2947 C   0  0  0  0  0  0
  -29.9903  -18.4731   20.8052 C   0  0  0  0  0  0
  -29.5020  -21.2957   19.9994 C   0  0  0  0  0  0
  -30.2596  -18.9410   19.4982 C   0  0  0  0  0  0
  -29.4163  -19.4407   21.6885 C   0  0  0  0  0  0
  -28.9151  -23.8032   20.3131 C   0  0  0  0  0  0
  -29.4242  -24.3799   17.5981 C   0  0  0  0  0  0
  -28.1289  -24.9831   18.1099 C   0  0  0  0  0  0
  -29.5471  -22.9345   18.0998 C   0  0  0  0  0  0
  -28.0894  -25.0008   19.6518 C   0  0  2  0  0  0
  -30.5297  -17.0698   21.2930 C   0  0  0  0  0  0
  -29.2900  -22.7032   19.5431 N   0  0  0  0  0  0
  -29.9531  -15.7384   20.8825 N   0  0  0  0  0  0
  -29.1669  -23.8735   21.5211 O   0  0  0  0  0  0
  -30.8146  -18.0991   18.5932 F   0  0  0  0  0  0
  -29.0142  -19.0063   23.3127 Cl  0  0  0  0  0  0
  -31.4665  -12.5036   19.1399 H   0  0  0  0  0  0
  -30.3477  -11.4055   19.8991 H   0  0  0  0  0  0
  -29.7578  -11.7461   17.4768 H   0  0  0  0  0  0
  -29.6387  -13.4699   17.7298 H   0  0  0  0  0  0
  -27.8594  -11.2921   18.8715 H   0  0  0  0  0  0
  -27.3641  -12.5704   17.7930 H   0  0  0  0  0  0
  -27.6580  -14.2568   19.5069 H   0  0  0  0  0  0
  -28.7073  -12.0928   21.3934 H   0  0  0  0  0  0
  -28.4462  -13.7637   21.8202 H   0  0  0  0  0  0
  -25.2771   -9.5679   22.4755 H   0  0  0  0  0  0
  -24.0011   -7.4627   22.7466 H   0  0  0  0  0  0
  -21.0851   -8.8761   19.8943 H   0  0  0  0  0  0
  -22.3704  -10.9666   19.6153 H   0  0  0  0  0  0
  -21.2000   -7.6146   23.9716 H   0  0  0  0  0  0
  -21.1484   -6.0525   25.9078 H   0  0  0  0  0  0
  -22.0598   -2.7611   23.2848 H   0  0  0  0  0  0
  -22.4127  -11.9857   22.4789 H   0  0  0  0  0  0
  -21.1104  -13.1197   22.2641 H   0  0  0  0  0  0
  -24.6586  -15.8467   20.5235 H   0  0  0  0  0  0
  -26.2741  -15.6297   20.0804 H   0  0  0  0  0  0
  -26.7215  -32.5431   23.1116 H   0  0  0  0  0  0
  -25.0211  -33.9760   25.0499 H   0  0  0  0  0  0
  -22.7192  -31.3162   21.4127 H   0  0  0  0  0  0
  -23.3762  -35.9565   23.3276 H   0  0  0  0  0  0
  -24.3562  -36.8899   22.2057 H   0  0  0  0  0  0
  -23.7172  -37.6440   23.6663 H   0  0  0  0  0  0
  -26.1130  -31.5429   20.6216 H   0  0  0  0  0  0
  -26.8464  -30.8187   22.0225 H   0  0  0  0  0  0
  -28.1061  -28.9271   21.2149 H   0  0  0  0  0  0
  -25.8786  -25.9890   18.9233 H   0  0  0  0  0  0
  -23.9512  -27.3700   18.9690 H   0  0  0  0  0  0
  -23.7629  -30.6275   19.4140 H   0  0  0  0  0  0
  -22.7521  -29.2829   19.8486 H   0  0  0  0  0  0
  -25.1250  -36.1916   25.0813 H   0  0  0  0  0  0
  -21.0004  -28.3277   24.1381 H   0  0  0  0  0  0
  -20.5679  -26.2313   23.3601 H   0  0  0  0  0  0
  -21.6647  -26.7446   22.1198 H   0  0  0  0  0  0
  -19.6912  -25.6289   21.1257 H   0  0  0  0  0  0
  -19.6696  -27.3192   20.6732 H   0  0  0  0  0  0
  -17.4199  -26.6723   21.4020 H   0  0  0  0  0  0
  -18.0329  -26.0070   22.8998 H   0  0  0  0  0  0
  -19.7964  -30.7301   24.2250 H   0  0  0  0  0  0
  -17.5043  -31.6290   24.5172 H   0  0  0  0  0  0
  -15.5380  -30.3015   23.7674 H   0  0  0  0  0  0
  -15.8671  -28.0840   22.7082 H   0  0  0  0  0  0
  -24.5951  -30.7058   25.7869 H   0  0  0  0  0  0
  -24.8866  -32.2952   26.4850 H   0  0  0  0  0  0
  -25.8069  -30.9064   27.0325 H   0  0  0  0  0  0
  -26.2958  -29.6803   24.1234 H   0  0  0  0  0  0
  -27.4010  -29.7292   25.4773 H   0  0  0  0  0  0
  -27.8833  -30.4323   23.9512 H   0  0  0  0  0  0
  -27.2726  -33.3711   26.2013 H   0  0  0  0  0  0
  -28.3931  -32.6839   25.0365 H   0  0  0  0  0  0
  -28.0687  -31.8529   26.5502 H   0  0  0  0  0  0
  -28.2533  -38.0137   24.7636 H   0  0  0  0  0  0
  -28.1147  -36.2684   24.6084 H   0  0  0  0  0  0
  -27.2342  -37.1181   25.8861 H   0  0  0  0  0  0
  -20.9361  -29.8827   21.6911 H   0  0  0  0  0  0
  -26.0124  -38.2838   24.1574 H   0  0  0  0  0  0
  -30.2694  -20.5181   18.0937 H   0  0  0  0  0  0
  -28.7504  -21.4599   22.0302 H   0  0  0  0  0  0
  -30.2722  -24.9770   17.9375 H   0  0  0  0  0  0
  -29.4498  -24.3995   16.5071 H   0  0  0  0  0  0
  -27.2882  -24.3996   17.7308 H   0  0  0  0  0  0
  -28.0066  -25.9861   17.7017 H   0  0  0  0  0  0
  -30.5606  -22.6136   17.8574 H   0  0  0  0  0  0
  -28.8613  -22.3076   17.5271 H   0  0  0  0  0  0
  -27.0945  -24.6960   19.9728 H   0  0  0  0  0  0
  -30.5315  -17.0572   22.3817 H   0  0  0  0  0  0
  -31.5906  -17.0773   21.0401 H   0  0  0  0  0  0
  -28.9745  -15.5922   21.0780 H   0  0  0  0  0  0
  1 25  1  0  0  0
  1 30  2  0  0  0
  1 84  1  0  0  0
  2  3  1  0  0  0
  2 25  1  0  0  0
  2 88  1  0  0  0
  2 89  1  0  0  0
  3  4  1  0  0  0
  3 90  1  0  0  0
  3 91  1  0  0  0
  4  5  1  0  0  0
  4 92  1  0  0  0
  4 93  1  0  0  0
  5  6  1  0  0  0
  5 26  1  0  0  0
  5 94  1  0  0  0
  6 25  1  0  0  0
  6 95  1  0  0  0
  6 96  1  0  0  0
  7  8  2  0  0  0
  7 26  1  0  0  0
  7 29  1  0  0  0
  8  9  1  0  0  0
  8 22  1  0  0  0
  9 10  1  0  0  0
  9 27  2  0  0  0
 10 11  2  0  0  0
 10 15  1  0  0  0
 11 12  1  0  0  0
 11 97  1  0  0  0
 12 13  2  0  0  0
 12 98  1  0  0  0
 13 14  1  0  0  0
 13 31  1  0  0  0
 14 15  2  0  0  0
 14 99  1  0  0  0
 15100  1  0  0  0
 16 17  2  0  0  0
 16 21  1  0  0  0
 16 31  1  0  0  0
 17 18  1  0  0  0
 17101  1  0  0  0
 18 19  2  0  0  0
 18102  1  0  0  0
 19 20  1  0  0  0
 19 24  1  0  0  0
 20 21  2  0  0  0
 20103  1  0  0  0
 21 23  1  0  0  0
 22 28  1  0  0  0
 22 32  2  0  0  0
 26 27  1  0  0  0
 28104  1  0  0  0
 28105  1  0  0  0
 29106  1  0  0  0
 29107  1  0  0  0
 33 34  1  0  0  0
 33 66  1  0  0  0
 33 70  2  0  0  0
 34 36  1  0  0  0
 34 59  1  0  0  0
 34108  1  0  0  0
 35 44  2  0  0  0
 35 45  1  0  0  0
 35 68  1  0  0  0
 36 56  1  0  0  0
 36109  1  0  0  0
 37 39  1  0  0  0
 37 47  1  0  0  0
 37 66  1  0  0  0
 37110  1  0  0  0
 38 43  2  0  0  0
 38 46  1  0  0  0
 38 47  1  0  0  0
 39 64  1  0  0  0
 39 67  2  0  0  0
 40 52  1  0  0  0
 40 53  2  0  0  0
 40 58  1  0  0  0
 41111  1  0  0  0
 41112  1  0  0  0
 41113  1  0  0  0
 41 48  1  0  0  0
 42 43  1  0  0  0
 42 66  1  0  0  0
 42114  1  0  0  0
 42115  1  0  0  0
 43 44  1  0  0  0
 44116  1  0  0  0
 45 46  2  0  0  0
 45117  1  0  0  0
 46118  1  0  0  0
 47119  1  0  0  0
 47120  1  0  0  0
 48 56  1  0  0  0
 48 65  1  0  0  0
 48121  1  0  0  0
 49 50  1  0  0  0
 49 53  1  0  0  0
 49 64  1  0  0  0
 49122  1  0  0  0
 50 51  1  0  0  0
 50123  1  0  0  0
 50124  1  0  0  0
 51 52  1  0  0  0
 51125  1  0  0  0
 51126  1  0  0  0
 52127  1  0  0  0
 52128  1  0  0  0
 53 54  1  0  0  0
 54 55  2  0  0  0
 54129  1  0  0  0
 55 57  1  0  0  0
 55130  1  0  0  0
 56 69  2  0  0  0
 57 58  2  0  0  0
 57131  1  0  0  0
 58132  1  0  0  0
 59 60  1  0  0  0
 59 61  1  0  0  0
 59 62  1  0  0  0
 60133  1  0  0  0
 60134  1  0  0  0
 60135  1  0  0  0
 61136  1  0  0  0
 61137  1  0  0  0
 61138  1  0  0  0
 62139  1  0  0  0
 62140  1  0  0  0
 62141  1  0  0  0
 63 65  1  0  0  0
 63142  1  0  0  0
 63143  1  0  0  0
 63144  1  0  0  0
 64145  1  0  0  0
 65146  1  0  0  0
 68 81  1  0  0  0
 71 74  2  0  0  0
 71 75  1  0  0  0
 71147  1  0  0  0
 72 74  1  0  0  0
 72 76  2  0  0  0
 72148  1  0  0  0
 73 75  2  0  0  0
 73 76  1  0  0  0
 73 82  1  0  0  0
 74 83  1  0  0  0
 75 86  1  0  0  0
 76 87  1  0  0  0
 77 81  1  0  0  0
 77 83  1  0  0  0
 77 85  2  0  0  0
 78 79  1  0  0  0
 78 80  1  0  0  0
 78149  1  0  0  0
 78150  1  0  0  0
 79 81  1  0  0  0
 79151  1  0  0  0
 79152  1  0  0  0
 80 83  1  0  0  0
 80153  1  0  0  0
 80154  1  0  0  0
 81155  1  0  0  0
 82 84  1  0  0  0
 82156  1  0  0  0
 82157  1  0  0  0
 84158  1  0  0  0
M  ISO  4   1 100  68 101  81 101  84 100
M  END
> <chiral flag>
0

> <version>
0

> <s_m_source_file>
/data/baiqing/PycharmProjects/Reinvent-master-3.2/result/LINK_invent/BTK/process_docking_weight1_custom_product_contain_oxygen_bond_distance_aromatic_linkinvent_7_9_3/rearranged_h_0026.sdf

> <i_m_source_file_index>
19

> <r_mmod_Potential_Energy-OPLS-2005>
232.258529663086

> <r_mmod_Stretch_Energy-OPLS-2005>
102.808135986328

> <r_mmod_Bend_Energy-OPLS-2005>
163.111724853516

> <r_mmod_Torsional_Energy-OPLS-2005>
261.654388427734

> <r_mmod_Improper_Torsional_Energy-OPLS-2005>
4.93945121765137

> <r_mmod_Van_der_Waal_Energy-OPLS-2005>
177.050537109375

> <r_mmod_Electrostatic_Energy-OPLS-2005>
-308.000671386719

> <r_mmod_Solvation_Energy-OPLS-2005>
-225.86930847168

> <b_mmod_Minimization_Converged-OPLS-2005>
0

> <r_mmod_RMS_Derivative-OPLS-2005>
1.5998067855835

$$$$
19
                    3D
 Structure written by MMmdl.
157165  0  0  1  0            999 V2000
  -30.5282  -15.0624   20.4586 C   0  0  0  0  0  0
  -30.4430  -12.6799   19.5089 C   0  0  0  0  0  0
  -29.5270  -12.5461   18.2676 C   0  0  0  0  0  0
  -28.0671  -12.3013   18.6869 C   0  0  0  0  0  0
  -27.6262  -13.2483   19.8312 C   0  0  2  0  0  0
  -28.6619  -13.2969   20.9702 C   0  0  0  0  0  0
  -25.2467  -13.8206   20.5703 C   0  0  0  0  0  0
  -24.1765  -13.0433   20.9188 C   0  0  0  0  0  0
  -24.6363  -11.6918   20.8703 C   0  0  0  0  0  0
  -23.9046  -10.4286   21.0367 C   0  0  0  0  0  0
  -24.3600   -9.4214   21.9158 C   0  0  0  0  0  0
  -23.6280   -8.2252   22.0753 C   0  0  0  0  0  0
  -22.4268   -8.0265   21.3545 C   0  0  0  0  0  0
  -21.9887   -9.0223   20.4639 C   0  0  0  0  0  0
  -22.7206  -10.2111   20.3030 C   0  0  0  0  0  0
  -21.6863   -6.0704   22.5260 C   0  0  0  0  0  0
  -21.4022   -6.5620   23.8184 C   0  0  0  0  0  0
  -21.3661   -5.6776   24.9153 C   0  0  0  0  0  0
  -21.6042   -4.3033   24.7214 C   0  0  0  0  0  0
  -21.8826   -3.8125   23.4331 C   0  0  0  0  0  0
  -21.9200   -4.6933   22.3386 C   0  0  0  0  0  0
  -22.7791  -13.5214   21.1851 C   0  0  0  0  0  0
  -22.1666   -4.2113   21.0958 F   0  0  0  0  0  0
  -21.5627   -3.4523   25.7729 F   0  0  0  0  0  0
  -29.9256  -13.7858   20.3872 N   0  0  0  0  0  0
  -26.2868  -12.9423   20.3180 N   0  0  0  0  0  0
  -25.9299  -11.6561   20.5679 N   0  0  0  0  0  0
  -22.0437  -12.8207   22.0401 N   0  0  0  0  0  0
  -25.4202  -15.1927   20.4198 N   0  0  0  0  0  0
  -31.7101  -15.0877   20.0912 O   0  0  0  0  0  0
  -21.6657   -6.8846   21.4217 O   0  0  0  0  0  0
  -22.3470  -14.5516   20.6679 O   0  0  0  0  0  0
  -24.6495  -31.8393   23.1827 C   0  0  0  0  0  0
  -25.9240  -32.4673   23.8238 C   0  0  1  0  0  0
  -27.2184  -27.0728   20.1700 C   0  0  0  0  0  0
  -25.5984  -33.8480   24.2179 N   0  0  0  0  0  0
  -23.4556  -30.4571   21.5271 C   0  0  2  0  0  0
  -24.9078  -28.8668   20.1156 C   0  0  0  0  0  0
  -22.7601  -29.4555   22.4844 C   0  0  0  0  0  0
  -18.0309  -28.1416   22.8469 C   0  0  0  0  0  0
  -24.1492  -36.7232   23.2647 C   0  0  0  0  0  0
  -26.0168  -30.6949   21.3886 C   0  0  0  0  0  0
  -26.0880  -29.2968   20.7367 C   0  0  0  0  0  0
  -27.2435  -28.4180   20.7432 C   0  0  0  0  0  0
  -26.0142  -26.7644   19.5008 C   0  0  0  0  0  0
  -24.8878  -27.6166   19.4798 C   0  0  0  0  0  0
  -23.6869  -29.7763   20.1508 C   0  0  0  0  0  0
  -25.4121  -36.3009   24.0327 C   0  0  1  0  0  0
  -20.5933  -28.3749   23.1220 C   0  0  2  0  0  0
  -20.6797  -26.9452   22.5402 C   0  0  0  0  0  0
  -19.5771  -26.6397   21.5211 C   0  0  0  0  0  0
  -18.1943  -26.7961   22.1598 C   0  0  0  0  0  0
  -19.1572  -28.8893   23.2840 C   0  0  0  0  0  0
  -18.9495  -30.1482   23.8878 C   0  0  0  0  0  0
  -17.6493  -30.6606   24.0556 C   0  0  0  0  0  0
  -25.9072  -34.9393   23.5051 C   0  0  0  0  0  0
  -16.5378  -29.9101   23.6343 C   0  0  0  0  0  0
  -16.7295  -28.6516   23.0362 C   0  0  0  0  0  0
  -26.4547  -31.6551   25.0690 C   0  0  0  0  0  0
  -25.3707  -31.3785   26.1371 C   0  0  0  0  0  0
  -27.0410  -30.2934   24.6313 C   0  0  0  0  0  0
  -27.6088  -32.4323   25.7446 C   0  0  0  0  0  0
  -27.5579  -37.1772   24.8472 C   0  0  0  0  0  0
  -21.4285  -29.3077   22.3595 N   0  0  0  0  0  0
  -26.4276  -37.3735   23.9429 N   0  0  0  0  0  0
  -24.7273  -31.0212   22.0869 N   0  0  0  0  0  0
  -23.4215  -28.8114   23.3027 O   0  0  0  0  0  0
  -28.2527  -26.0474   20.1987 O   0  0  0  0  0  0
  -26.5646  -34.8906   22.4628 O   0  0  0  0  0  0
  -23.5603  -32.1277   23.7027 O   0  0  0  0  0  0
  -30.9126  -19.2701   18.5251 C   0  0  0  0  0  0
  -30.2756  -20.4416   19.0066 C   0  0  0  0  0  0
  -30.7470  -17.9872   19.1007 C   0  0  0  0  0  0
  -29.2588  -19.0435   20.6882 C   0  0  0  0  0  0
  -29.3974  -20.4398   20.1184 C   0  0  0  0  0  0
  -29.9259  -17.7646   20.2268 C   0  0  0  0  0  0
  -28.8857  -23.1845   20.1167 C   0  0  0  0  0  0
  -26.3343  -21.1524   20.9883 C   0  0  0  0  0  0
  -29.1882  -16.2880   22.1183 C   0  0  0  0  0  0
  -27.9304  -24.5250   20.5234 C   0  0  0  0  0  0
  -27.6772  -21.6091   21.5829 C   0  0  0  0  0  0
  -28.7035  -21.7950   20.5459 N   0  0  0  0  0  0
  -29.8335  -16.3044   20.8008 N   0  0  0  0  0  0
  -29.8310  -23.4618   19.3720 O   0  0  0  0  0  0
  -31.4659  -12.8582   19.1746 H   0  0  0  0  0  0
  -30.4832  -11.7380   20.0576 H   0  0  0  0  0  0
  -29.8729  -11.7293   17.6316 H   0  0  0  0  0  0
  -29.5869  -13.4537   17.6633 H   0  0  0  0  0  0
  -27.9920  -11.2655   19.0220 H   0  0  0  0  0  0
  -27.3997  -12.3939   17.8286 H   0  0  0  0  0  0
  -27.5816  -14.2455   19.3916 H   0  0  0  0  0  0
  -28.7895  -12.3138   21.4241 H   0  0  0  0  0  0
  -28.2945  -13.9320   21.7691 H   0  0  0  0  0  0
  -25.2745   -9.5715   22.4727 H   0  0  0  0  0  0
  -23.9990   -7.4656   22.7494 H   0  0  0  0  0  0
  -21.0819   -8.8709   19.8951 H   0  0  0  0  0  0
  -22.3632  -10.9625   19.6136 H   0  0  0  0  0  0
  -21.2018   -7.6133   23.9677 H   0  0  0  0  0  0
  -21.1470   -6.0508   25.9050 H   0  0  0  0  0  0
  -22.0604   -2.7584   23.2835 H   0  0  0  0  0  0
  -22.4085  -11.9880   22.4799 H   0  0  0  0  0  0
  -21.1041  -13.1194   22.2581 H   0  0  0  0  0  0
  -24.6638  -15.8551   20.5513 H   0  0  0  0  0  0
  -26.2860  -15.6293   20.1298 H   0  0  0  0  0  0
  -26.7298  -32.5266   23.0957 H   0  0  0  0  0  0
  -25.0179  -33.9607   25.0356 H   0  0  0  0  0  0
  -22.7601  -31.2830   21.3626 H   0  0  0  0  0  0
  -23.3772  -35.9544   23.3270 H   0  0  0  0  0  0
  -24.3577  -36.8883   22.2067 H   0  0  0  0  0  0
  -23.7216  -37.6414   23.6684 H   0  0  0  0  0  0
  -26.1785  -31.4427   20.6113 H   0  0  0  0  0  0
  -26.8862  -30.7522   22.0315 H   0  0  0  0  0  0
  -28.1408  -28.7460   21.2476 H   0  0  0  0  0  0
  -25.9222  -25.8181   18.9893 H   0  0  0  0  0  0
  -23.9912  -27.2847   18.9747 H   0  0  0  0  0  0
  -23.8275  -30.5419   19.3871 H   0  0  0  0  0  0
  -22.8018  -29.2187   19.8402 H   0  0  0  0  0  0
  -25.1310  -36.1812   25.0819 H   0  0  0  0  0  0
  -21.0019  -28.3333   24.1343 H   0  0  0  0  0  0
  -20.5684  -26.2389   23.3639 H   0  0  0  0  0  0
  -21.6665  -26.7455   22.1204 H   0  0  0  0  0  0
  -19.6936  -25.6304   21.1257 H   0  0  0  0  0  0
  -19.6698  -27.3193   20.6727 H   0  0  0  0  0  0
  -17.4237  -26.6739   21.3977 H   0  0  0  0  0  0
  -18.0295  -26.0105   22.8987 H   0  0  0  0  0  0
  -19.7976  -30.7288   24.2255 H   0  0  0  0  0  0
  -17.5053  -31.6284   24.5164 H   0  0  0  0  0  0
  -15.5383  -30.2993   23.7700 H   0  0  0  0  0  0
  -15.8689  -28.0816   22.7117 H   0  0  0  0  0  0
  -24.5960  -30.7029   25.7733 H   0  0  0  0  0  0
  -24.8806  -32.2977   26.4598 H   0  0  0  0  0  0
  -25.7991  -30.9137   27.0258 H   0  0  0  0  0  0
  -26.3042  -29.6642   24.1318 H   0  0  0  0  0  0
  -27.4007  -29.7254   25.4906 H   0  0  0  0  0  0
  -27.8949  -30.4169   23.9644 H   0  0  0  0  0  0
  -27.2713  -33.3698   26.1877 H   0  0  0  0  0  0
  -28.3946  -32.6763   25.0278 H   0  0  0  0  0  0
  -28.0680  -31.8516   26.5454 H   0  0  0  0  0  0
  -28.2597  -38.0073   24.7506 H   0  0  0  0  0  0
  -28.1069  -36.2604   24.6279 H   0  0  0  0  0  0
  -27.2309  -37.1383   25.8880 H   0  0  0  0  0  0
  -20.9519  -29.8781   21.6751 H   0  0  0  0  0  0
  -26.0131  -38.2799   24.1433 H   0  0  0  0  0  0
  -31.5639  -19.3597   17.6659 H   0  0  0  0  0  0
  -30.4787  -21.3536   18.4670 H   0  0  0  0  0  0
  -31.2877  -17.1648   18.6542 H   0  0  0  0  0  0
  -28.5932  -18.9424   21.5311 H   0  0  0  0  0  0
  -25.5911  -21.0137   21.7753 H   0  0  0  0  0  0
  -26.4344  -20.2033   20.4614 H   0  0  0  0  0  0
  -25.9358  -21.8840   20.2839 H   0  0  0  0  0  0
  -28.1044  -16.2296   22.0143 H   0  0  0  0  0  0
  -29.4187  -17.1923   22.6830 H   0  0  0  0  0  0
  -29.5303  -15.4705   22.7559 H   0  0  0  0  0  0
  -27.8373  -24.5210   21.6082 H   0  0  0  0  0  0
  -26.9344  -24.2881   20.1546 H   0  0  0  0  0  0
  -28.0273  -20.8807   22.3123 H   0  0  0  0  0  0
  -27.5220  -22.4989   22.1893 H   0  0  0  0  0  0
  1 25  1  0  0  0
  1 30  2  0  0  0
  1 83  1  0  0  0
  2  3  1  0  0  0
  2 25  1  0  0  0
  2 85  1  0  0  0
  2 86  1  0  0  0
  3  4  1  0  0  0
  3 87  1  0  0  0
  3 88  1  0  0  0
  4  5  1  0  0  0
  4 89  1  0  0  0
  4 90  1  0  0  0
  5  6  1  0  0  0
  5 26  1  0  0  0
  5 91  1  0  0  0
  6 25  1  0  0  0
  6 92  1  0  0  0
  6 93  1  0  0  0
  7  8  2  0  0  0
  7 26  1  0  0  0
  7 29  1  0  0  0
  8  9  1  0  0  0
  8 22  1  0  0  0
  9 10  1  0  0  0
  9 27  2  0  0  0
 10 11  2  0  0  0
 10 15  1  0  0  0
 11 12  1  0  0  0
 11 94  1  0  0  0
 12 13  2  0  0  0
 12 95  1  0  0  0
 13 14  1  0  0  0
 13 31  1  0  0  0
 14 15  2  0  0  0
 14 96  1  0  0  0
 15 97  1  0  0  0
 16 17  2  0  0  0
 16 21  1  0  0  0
 16 31  1  0  0  0
 17 18  1  0  0  0
 17 98  1  0  0  0
 18 19  2  0  0  0
 18 99  1  0  0  0
 19 20  1  0  0  0
 19 24  1  0  0  0
 20 21  2  0  0  0
 20100  1  0  0  0
 21 23  1  0  0  0
 22 28  1  0  0  0
 22 32  2  0  0  0
 26 27  1  0  0  0
 28101  1  0  0  0
 28102  1  0  0  0
 29103  1  0  0  0
 29104  1  0  0  0
 33 34  1  0  0  0
 33 66  1  0  0  0
 33 70  2  0  0  0
 34 36  1  0  0  0
 34 59  1  0  0  0
 34105  1  0  0  0
 35 44  2  0  0  0
 35 45  1  0  0  0
 35 68  1  0  0  0
 36 56  1  0  0  0
 36106  1  0  0  0
 37 39  1  0  0  0
 37 47  1  0  0  0
 37 66  1  0  0  0
 37107  1  0  0  0
 38 43  2  0  0  0
 38 46  1  0  0  0
 38 47  1  0  0  0
 39 64  1  0  0  0
 39 67  2  0  0  0
 40 52  1  0  0  0
 40 53  2  0  0  0
 40 58  1  0  0  0
 41108  1  0  0  0
 41109  1  0  0  0
 41110  1  0  0  0
 41 48  1  0  0  0
 42 43  1  0  0  0
 42 66  1  0  0  0
 42111  1  0  0  0
 42112  1  0  0  0
 43 44  1  0  0  0
 44113  1  0  0  0
 45 46  2  0  0  0
 45114  1  0  0  0
 46115  1  0  0  0
 47116  1  0  0  0
 47117  1  0  0  0
 48 56  1  0  0  0
 48 65  1  0  0  0
 48118  1  0  0  0
 49 50  1  0  0  0
 49 53  1  0  0  0
 49 64  1  0  0  0
 49119  1  0  0  0
 50 51  1  0  0  0
 50120  1  0  0  0
 50121  1  0  0  0
 51 52  1  0  0  0
 51122  1  0  0  0
 51123  1  0  0  0
 52124  1  0  0  0
 52125  1  0  0  0
 53 54  1  0  0  0
 54 55  2  0  0  0
 54126  1  0  0  0
 55 57  1  0  0  0
 55127  1  0  0  0
 56 69  2  0  0  0
 57 58  2  0  0  0
 57128  1  0  0  0
 58129  1  0  0  0
 59 60  1  0  0  0
 59 61  1  0  0  0
 59 62  1  0  0  0
 60130  1  0  0  0
 60131  1  0  0  0
 60132  1  0  0  0
 61133  1  0  0  0
 61134  1  0  0  0
 61135  1  0  0  0
 62136  1  0  0  0
 62137  1  0  0  0
 62138  1  0  0  0
 63 65  1  0  0  0
 63139  1  0  0  0
 63140  1  0  0  0
 63141  1  0  0  0
 64142  1  0  0  0
 65143  1  0  0  0
 68 80  1  0  0  0
 71 72  2  0  0  0
 71 73  1  0  0  0
 71144  1  0  0  0
 72 75  1  0  0  0
 72145  1  0  0  0
 73 76  2  0  0  0
 73146  1  0  0  0
 74 75  2  0  0  0
 74 76  1  0  0  0
 74147  1  0  0  0
 75 82  1  0  0  0
 76 83  1  0  0  0
 77 80  1  0  0  0
 77 82  1  0  0  0
 77 84  2  0  0  0
 78 81  1  0  0  0
 78148  1  0  0  0
 78149  1  0  0  0
 78150  1  0  0  0
 79 83  1  0  0  0
 79151  1  0  0  0
 79152  1  0  0  0
 79153  1  0  0  0
 80154  1  0  0  0
 80155  1  0  0  0
 81 82  1  0  0  0
 81156  1  0  0  0
 81157  1  0  0  0
M  ISO  4   1 100  68 101  80 101  83 100
M  END
> <chiral flag>
0

> <version>
0

> <s_m_source_file>
/data/baiqing/PycharmProjects/Reinvent-master-3.2/result/LINK_invent/BTK/process_docking_weight1_custom_product_contain_oxygen_bond_distance_aromatic_linkinvent_7_9_3/rearranged_h_0026.sdf

> <i_m_source_file_index>
20

> <r_mmod_Potential_Energy-OPLS-2005>
944.039611816406

> <r_mmod_Stretch_Energy-OPLS-2005>
374.977630615234

> <r_mmod_Bend_Energy-OPLS-2005>
289.447143554688

> <r_mmod_Torsional_Energy-OPLS-2005>
307.668060302734

> <r_mmod_Improper_Torsional_Energy-OPLS-2005>
3.13055205345154

> <r_mmod_Van_der_Waal_Energy-OPLS-2005>
145.119644165039

> <r_mmod_Electrostatic_Energy-OPLS-2005>
-224.58984375

> <r_mmod_Solvation_Energy-OPLS-2005>
-211.020263671875

> <b_mmod_Minimization_Converged-OPLS-2005>
0

> <r_mmod_RMS_Derivative-OPLS-2005>
2.3657546043396

$$$$
20
                    3D
 Structure written by MMmdl.
154162  0  0  1  0            999 V2000
  -30.4970  -15.0293   20.3960 C   0  0  0  0  0  0
  -30.4415  -12.6432   19.4936 C   0  0  0  0  0  0
  -29.5190  -12.5376   18.2583 C   0  0  0  0  0  0
  -28.0546  -12.3153   18.6830 C   0  0  0  0  0  0
  -27.6224  -13.2575   19.8360 C   0  0  2  0  0  0
  -28.6683  -13.3195   20.9653 C   0  0  0  0  0  0
  -25.2423  -13.8233   20.5808 C   0  0  0  0  0  0
  -24.1746  -13.0430   20.9279 C   0  0  0  0  0  0
  -24.6382  -11.6929   20.8798 C   0  0  0  0  0  0
  -23.9080  -10.4280   21.0402 C   0  0  0  0  0  0
  -24.3629   -9.4208   21.9186 C   0  0  0  0  0  0
  -23.6291   -8.2250   22.0747 C   0  0  0  0  0  0
  -22.4275   -8.0292   21.3546 C   0  0  0  0  0  0
  -21.9925   -9.0264   20.4642 C   0  0  0  0  0  0
  -22.7252  -10.2133   20.3037 C   0  0  0  0  0  0
  -21.6863   -6.0752   22.5271 C   0  0  0  0  0  0
  -21.4029   -6.5645   23.8211 C   0  0  0  0  0  0
  -21.3651   -5.6783   24.9172 C   0  0  0  0  0  0
  -21.6039   -4.3043   24.7201 C   0  0  0  0  0  0
  -21.8828   -3.8154   23.4313 C   0  0  0  0  0  0
  -21.9191   -4.6984   22.3386 C   0  0  0  0  0  0
  -22.7756  -13.5185   21.1932 C   0  0  0  0  0  0
  -22.1662   -4.2172   21.0959 F   0  0  0  0  0  0
  -21.5614   -3.4520   25.7710 F   0  0  0  0  0  0
  -29.9257  -13.7561   20.3483 N   0  0  0  0  0  0
  -26.2851  -12.9503   20.3300 N   0  0  0  0  0  0
  -25.9320  -11.6620   20.5770 N   0  0  0  0  0  0
  -22.0395  -12.8149   22.0465 N   0  0  0  0  0  0
  -25.4084  -15.1978   20.4350 N   0  0  0  0  0  0
  -31.7172  -15.0801   20.1935 O   0  0  0  0  0  0
  -21.6628   -6.8900   21.4234 O   0  0  0  0  0  0
  -22.3444  -14.5481   20.6766 O   0  0  0  0  0  0
  -24.6501  -31.8419   23.1874 C   0  0  0  0  0  0
  -25.9230  -32.4708   23.8251 C   0  0  1  0  0  0
  -27.1956  -27.0663   20.1224 C   0  0  0  0  0  0
  -25.5953  -33.8510   24.2162 N   0  0  0  0  0  0
  -23.4548  -30.4715   21.5363 C   0  0  2  0  0  0
  -24.8961  -28.9034   20.1067 C   0  0  0  0  0  0
  -22.7619  -29.4543   22.4815 C   0  0  0  0  0  0
  -18.0336  -28.1413   22.8502 C   0  0  0  0  0  0
  -24.1452  -36.7241   23.2640 C   0  0  0  0  0  0
  -26.0227  -30.6939   21.3957 C   0  0  0  0  0  0
  -26.0856  -29.3039   20.7263 C   0  0  0  0  0  0
  -27.2332  -28.4082   20.7166 C   0  0  0  0  0  0
  -25.9574  -26.7985   19.4836 C   0  0  0  0  0  0
  -24.8501  -27.6638   19.4688 C   0  0  0  0  0  0
  -23.6842  -29.8202   20.1500 C   0  0  0  0  0  0
  -25.4100  -36.3046   24.0319 C   0  0  1  0  0  0
  -20.5955  -28.3714   23.1250 C   0  0  2  0  0  0
  -20.6801  -26.9398   22.5447 C   0  0  0  0  0  0
  -19.5766  -26.6389   21.5256 C   0  0  0  0  0  0
  -18.1944  -26.7983   22.1636 C   0  0  0  0  0  0
  -19.1605  -28.8890   23.2876 C   0  0  0  0  0  0
  -18.9515  -30.1495   23.8891 C   0  0  0  0  0  0
  -17.6508  -30.6622   24.0582 C   0  0  0  0  0  0
  -25.9071  -34.9437   23.5063 C   0  0  0  0  0  0
  -16.5384  -29.9112   23.6351 C   0  0  0  0  0  0
  -16.7312  -28.6534   23.0365 C   0  0  0  0  0  0
  -26.4498  -31.6604   25.0732 C   0  0  0  0  0  0
  -25.3653  -31.3882   26.1424 C   0  0  0  0  0  0
  -27.0322  -30.2958   24.6368 C   0  0  0  0  0  0
  -27.6006  -32.4345   25.7546 C   0  0  0  0  0  0
  -27.5571  -37.1807   24.8480 C   0  0  0  0  0  0
  -21.4306  -29.3072   22.3638 N   0  0  0  0  0  0
  -26.4254  -37.3776   23.9458 N   0  0  0  0  0  0
  -24.7314  -31.0254   22.0925 N   0  0  0  0  0  0
  -23.4280  -28.8030   23.2893 O   0  0  0  0  0  0
  -28.1927  -25.9888   20.2168 O   0  0  0  0  0  0
  -26.5660  -34.8947   22.4640 O   0  0  0  0  0  0
  -23.5614  -32.1236   23.7145 O   0  0  0  0  0  0
  -31.1887  -18.1875   21.0043 C   0  0  0  0  0  0
  -31.5105  -19.5570   21.1802 C   0  0  0  0  0  0
  -29.0460  -18.9219   20.1755 C   0  0  0  0  0  0
  -29.3512  -20.3951   20.3269 C   0  0  0  0  0  0
  -29.9443  -17.7582   20.4935 C   0  0  0  0  0  0
  -30.6394  -20.6240   20.8550 C   0  0  0  0  0  0
  -28.0439  -24.5149   19.6122 C   0  0  0  0  0  0
  -28.2519  -21.5358   18.3687 C   0  0  0  0  0  0
  -27.0197  -21.4547   20.5303 C   0  0  0  0  0  0
  -28.4026  -21.7174   19.8997 C   0  0  0  0  0  0
  -29.6843  -16.2228   20.4099 N   0  0  0  0  0  0
  -28.6834  -23.2926   20.2090 N   0  0  0  0  0  0
  -27.3692  -24.3883   18.5930 O   0  0  0  0  0  0
  -31.0663  -21.8939   21.0614 F   0  0  0  0  0  0
  -31.4666  -12.8267   19.1713 H   0  0  0  0  0  0
  -30.4683  -11.7059   20.0533 H   0  0  0  0  0  0
  -29.8457  -11.7271   17.6057 H   0  0  0  0  0  0
  -29.5914  -13.4564   17.6752 H   0  0  0  0  0  0
  -27.9618  -11.2786   19.0086 H   0  0  0  0  0  0
  -27.3855  -12.4335   17.8294 H   0  0  0  0  0  0
  -27.5692  -14.2510   19.3891 H   0  0  0  0  0  0
  -28.7842  -12.3529   21.4597 H   0  0  0  0  0  0
  -28.3648  -14.0313   21.7356 H   0  0  0  0  0  0
  -25.2774   -9.5682   22.4775 H   0  0  0  0  0  0
  -23.9997   -7.4632   22.7471 H   0  0  0  0  0  0
  -21.0858   -8.8795   19.8939 H   0  0  0  0  0  0
  -22.3736  -10.9677   19.6139 H   0  0  0  0  0  0
  -21.2049   -7.6158   23.9734 H   0  0  0  0  0  0
  -21.1454   -6.0501   25.9072 H   0  0  0  0  0  0
  -22.0616   -2.7618   23.2793 H   0  0  0  0  0  0
  -22.3971  -11.9768   22.4805 H   0  0  0  0  0  0
  -21.1018  -13.1198   22.2704 H   0  0  0  0  0  0
  -24.6551  -15.8537   20.6069 H   0  0  0  0  0  0
  -26.2636  -15.6501   20.1397 H   0  0  0  0  0  0
  -26.7309  -32.5216   23.0998 H   0  0  0  0  0  0
  -25.0144  -33.9558   25.0339 H   0  0  0  0  0  0
  -22.7588  -31.3011   21.3935 H   0  0  0  0  0  0
  -23.3748  -35.9546   23.3297 H   0  0  0  0  0  0
  -24.3539  -36.8855   22.2062 H   0  0  0  0  0  0
  -23.7171  -37.6420   23.6662 H   0  0  0  0  0  0
  -26.2008  -31.4500   20.6314 H   0  0  0  0  0  0
  -26.8895  -30.7306   22.0455 H   0  0  0  0  0  0
  -28.1367  -28.7264   21.2201 H   0  0  0  0  0  0
  -25.7405  -25.8545   19.0236 H   0  0  0  0  0  0
  -23.9402  -27.3479   18.9785 H   0  0  0  0  0  0
  -23.8442  -30.6067   19.4106 H   0  0  0  0  0  0
  -22.7928  -29.2901   19.8165 H   0  0  0  0  0  0
  -25.1304  -36.1866   25.0805 H   0  0  0  0  0  0
  -21.0051  -28.3298   24.1359 H   0  0  0  0  0  0
  -20.5633  -26.2334   23.3674 H   0  0  0  0  0  0
  -21.6665  -26.7366   22.1263 H   0  0  0  0  0  0
  -19.6877  -25.6295   21.1277 H   0  0  0  0  0  0
  -19.6712  -27.3226   20.6801 H   0  0  0  0  0  0
  -17.4226  -26.6789   21.4002 H   0  0  0  0  0  0
  -18.0246  -26.0134   22.9011 H   0  0  0  0  0  0
  -19.7984  -30.7349   24.2208 H   0  0  0  0  0  0
  -17.5056  -31.6275   24.5213 H   0  0  0  0  0  0
  -15.5372  -30.3020   23.7707 H   0  0  0  0  0  0
  -15.8713  -28.0877   22.7047 H   0  0  0  0  0  0
  -24.5985  -30.6976   25.7933 H   0  0  0  0  0  0
  -24.8622  -32.3046   26.4497 H   0  0  0  0  0  0
  -25.7951  -30.9473   27.0418 H   0  0  0  0  0  0
  -26.2932  -29.6746   24.1301 H   0  0  0  0  0  0
  -27.3831  -29.7212   25.4956 H   0  0  0  0  0  0
  -27.8903  -30.4194   23.9761 H   0  0  0  0  0  0
  -27.2670  -33.3840   26.1753 H   0  0  0  0  0  0
  -28.4058  -32.6533   25.0523 H   0  0  0  0  0  0
  -28.0339  -31.8623   26.5759 H   0  0  0  0  0  0
  -28.2615  -38.0086   24.7547 H   0  0  0  0  0  0
  -28.1020  -36.2626   24.6270 H   0  0  0  0  0  0
  -27.2285  -37.1447   25.8873 H   0  0  0  0  0  0
  -20.9491  -29.8881   21.6919 H   0  0  0  0  0  0
  -26.0106  -38.2828   24.1464 H   0  0  0  0  0  0
  -31.9248  -17.4545   21.3008 H   0  0  0  0  0  0
  -32.4808  -19.8102   21.5848 H   0  0  0  0  0  0
  -28.0674  -18.6763   19.7856 H   0  0  0  0  0  0
  -27.9919  -20.5074   18.1124 H   0  0  0  0  0  0
  -29.1828  -21.7687   17.8504 H   0  0  0  0  0  0
  -27.4545  -22.1327   17.9315 H   0  0  0  0  0  0
  -26.5458  -20.5611   20.1201 H   0  0  0  0  0  0
  -26.3206  -22.2716   20.3471 H   0  0  0  0  0  0
  -27.0971  -21.3264   21.6113 H   0  0  0  0  0  0
  -28.7051  -15.9861   20.3643 H   0  0  0  0  0  0
  -29.3411  -23.4904   20.9513 H   0  0  0  0  0  0
  1 25  1  0  0  0
  1 30  2  0  0  0
  1 81  1  0  0  0
  2  3  1  0  0  0
  2 25  1  0  0  0
  2 85  1  0  0  0
  2 86  1  0  0  0
  3  4  1  0  0  0
  3 87  1  0  0  0
  3 88  1  0  0  0
  4  5  1  0  0  0
  4 89  1  0  0  0
  4 90  1  0  0  0
  5  6  1  0  0  0
  5 26  1  0  0  0
  5 91  1  0  0  0
  6 25  1  0  0  0
  6 92  1  0  0  0
  6 93  1  0  0  0
  7  8  2  0  0  0
  7 26  1  0  0  0
  7 29  1  0  0  0
  8  9  1  0  0  0
  8 22  1  0  0  0
  9 10  1  0  0  0
  9 27  2  0  0  0
 10 11  2  0  0  0
 10 15  1  0  0  0
 11 12  1  0  0  0
 11 94  1  0  0  0
 12 13  2  0  0  0
 12 95  1  0  0  0
 13 14  1  0  0  0
 13 31  1  0  0  0
 14 15  2  0  0  0
 14 96  1  0  0  0
 15 97  1  0  0  0
 16 17  2  0  0  0
 16 21  1  0  0  0
 16 31  1  0  0  0
 17 18  1  0  0  0
 17 98  1  0  0  0
 18 19  2  0  0  0
 18 99  1  0  0  0
 19 20  1  0  0  0
 19 24  1  0  0  0
 20 21  2  0  0  0
 20100  1  0  0  0
 21 23  1  0  0  0
 22 28  1  0  0  0
 22 32  2  0  0  0
 26 27  1  0  0  0
 28101  1  0  0  0
 28102  1  0  0  0
 29103  1  0  0  0
 29104  1  0  0  0
 33 34  1  0  0  0
 33 66  1  0  0  0
 33 70  2  0  0  0
 34 36  1  0  0  0
 34 59  1  0  0  0
 34105  1  0  0  0
 35 44  2  0  0  0
 35 45  1  0  0  0
 35 68  1  0  0  0
 36 56  1  0  0  0
 36106  1  0  0  0
 37 39  1  0  0  0
 37 47  1  0  0  0
 37 66  1  0  0  0
 37107  1  0  0  0
 38 43  2  0  0  0
 38 46  1  0  0  0
 38 47  1  0  0  0
 39 64  1  0  0  0
 39 67  2  0  0  0
 40 52  1  0  0  0
 40 53  2  0  0  0
 40 58  1  0  0  0
 41108  1  0  0  0
 41109  1  0  0  0
 41110  1  0  0  0
 41 48  1  0  0  0
 42 43  1  0  0  0
 42 66  1  0  0  0
 42111  1  0  0  0
 42112  1  0  0  0
 43 44  1  0  0  0
 44113  1  0  0  0
 45 46  2  0  0  0
 45114  1  0  0  0
 46115  1  0  0  0
 47116  1  0  0  0
 47117  1  0  0  0
 48 56  1  0  0  0
 48 65  1  0  0  0
 48118  1  0  0  0
 49 50  1  0  0  0
 49 53  1  0  0  0
 49 64  1  0  0  0
 49119  1  0  0  0
 50 51  1  0  0  0
 50120  1  0  0  0
 50121  1  0  0  0
 51 52  1  0  0  0
 51122  1  0  0  0
 51123  1  0  0  0
 52124  1  0  0  0
 52125  1  0  0  0
 53 54  1  0  0  0
 54 55  2  0  0  0
 54126  1  0  0  0
 55 57  1  0  0  0
 55127  1  0  0  0
 56 69  2  0  0  0
 57 58  2  0  0  0
 57128  1  0  0  0
 58129  1  0  0  0
 59 60  1  0  0  0
 59 61  1  0  0  0
 59 62  1  0  0  0
 60130  1  0  0  0
 60131  1  0  0  0
 60132  1  0  0  0
 61133  1  0  0  0
 61134  1  0  0  0
 61135  1  0  0  0
 62136  1  0  0  0
 62137  1  0  0  0
 62138  1  0  0  0
 63 65  1  0  0  0
 63139  1  0  0  0
 63140  1  0  0  0
 63141  1  0  0  0
 64142  1  0  0  0
 65143  1  0  0  0
 68 77  1  0  0  0
 71 72  2  0  0  0
 71 75  1  0  0  0
 71144  1  0  0  0
 72 76  1  0  0  0
 72145  1  0  0  0
 73 74  1  0  0  0
 73 75  2  0  0  0
 73146  1  0  0  0
 74 76  2  0  0  0
 74 80  1  0  0  0
 75 81  1  0  0  0
 76 84  1  0  0  0
 77 82  1  0  0  0
 77 83  2  0  0  0
 78147  1  0  0  0
 78148  1  0  0  0
 78149  1  0  0  0
 78 80  1  0  0  0
 79 80  1  0  0  0
 79150  1  0  0  0
 79151  1  0  0  0
 79152  1  0  0  0
 80 82  1  0  0  0
 81153  1  0  0  0
 82154  1  0  0  0
M  ISO  4   1 100  68 101  77 101  81 100
M  END
> <chiral flag>
0

> <version>
0

> <s_m_source_file>
/data/baiqing/PycharmProjects/Reinvent-master-3.2/result/LINK_invent/BTK/process_docking_weight1_custom_product_contain_oxygen_bond_distance_aromatic_linkinvent_7_9_3/rearranged_h_0026.sdf

> <i_m_source_file_index>
21

> <r_mmod_Potential_Energy-OPLS-2005>
668.10595703125

> <r_mmod_Stretch_Energy-OPLS-2005>
368.131408691406

> <r_mmod_Bend_Energy-OPLS-2005>
284.792633056641

> <r_mmod_Torsional_Energy-OPLS-2005>
215.448257446289

> <r_mmod_Improper_Torsional_Energy-OPLS-2005>
6.17585754394531

> <r_mmod_Van_der_Waal_Energy-OPLS-2005>
148.246597290039

> <r_mmod_Electrostatic_Energy-OPLS-2005>
-409.97021484375

> <r_mmod_Solvation_Energy-OPLS-2005>
-211.378036499023

> <b_mmod_Minimization_Converged-OPLS-2005>
0

> <r_mmod_RMS_Derivative-OPLS-2005>
5.76399898529053

$$$$
21
                    3D
 Structure written by MMmdl.
160170  0  0  1  0            999 V2000
  -30.6684  -14.7788   20.3755 C   0  0  0  0  0  0
  -30.4285  -12.4682   19.4579 C   0  0  0  0  0  0
  -29.4965  -12.4181   18.2313 C   0  0  0  0  0  0
  -28.0279  -12.2508   18.6689 C   0  0  0  0  0  0
  -27.6224  -13.1878   19.8353 C   0  0  2  0  0  0
  -28.6909  -13.2495   20.9489 C   0  0  0  0  0  0
  -25.2488  -13.8050   20.5756 C   0  0  0  0  0  0
  -24.1755  -13.0357   20.9272 C   0  0  0  0  0  0
  -24.6313  -11.6828   20.8842 C   0  0  0  0  0  0
  -23.8992  -10.4237   21.0467 C   0  0  0  0  0  0
  -24.3566   -9.4158   21.9225 C   0  0  0  0  0  0
  -23.6258   -8.2190   22.0767 C   0  0  0  0  0  0
  -22.4246   -8.0242   21.3543 C   0  0  0  0  0  0
  -21.9873   -9.0216   20.4651 C   0  0  0  0  0  0
  -22.7188  -10.2101   20.3084 C   0  0  0  0  0  0
  -21.6833   -6.0713   22.5280 C   0  0  0  0  0  0
  -21.3999   -6.5628   23.8211 C   0  0  0  0  0  0
  -21.3653   -5.6787   24.9177 C   0  0  0  0  0  0
  -21.6044   -4.3049   24.7232 C   0  0  0  0  0  0
  -21.8822   -3.8134   23.4356 C   0  0  0  0  0  0
  -21.9189   -4.6946   22.3408 C   0  0  0  0  0  0
  -22.7791  -13.5192   21.1890 C   0  0  0  0  0  0
  -22.1662   -4.2130   21.0986 F   0  0  0  0  0  0
  -21.5630   -3.4538   25.7748 F   0  0  0  0  0  0
  -29.9709  -13.5879   20.3097 N   0  0  0  0  0  0
  -26.2863  -12.9158   20.3377 N   0  0  0  0  0  0
  -25.9230  -11.6361   20.5897 N   0  0  0  0  0  0
  -22.0408  -12.8209   22.0444 N   0  0  0  0  0  0
  -25.4139  -15.1767   20.4105 N   0  0  0  0  0  0
  -31.8977  -14.7484   20.2979 O   0  0  0  0  0  0
  -21.6612   -6.8844   21.4236 O   0  0  0  0  0  0
  -22.3508  -14.5503   20.6716 O   0  0  0  0  0  0
  -24.6280  -31.8573   23.2013 C   0  0  0  0  0  0
  -25.9117  -32.4765   23.8351 C   0  0  1  0  0  0
  -27.2264  -27.2992   20.1305 C   0  0  0  0  0  0
  -25.5929  -33.8566   24.2276 N   0  0  0  0  0  0
  -23.4239  -30.4803   21.5433 C   0  0  2  0  0  0
  -24.8737  -28.9346   20.1082 C   0  0  0  0  0  0
  -22.7487  -29.4609   22.4920 C   0  0  0  0  0  0
  -18.0289  -28.1382   22.8485 C   0  0  0  0  0  0
  -24.1488  -36.7287   23.2642 C   0  0  0  0  0  0
  -25.9666  -30.7831   21.3760 C   0  0  0  0  0  0
  -26.0425  -29.4094   20.7173 C   0  0  0  0  0  0
  -27.2229  -28.6047   20.7169 C   0  0  0  0  0  0
  -26.0404  -26.8879   19.4814 C   0  0  0  0  0  0
  -24.8762  -27.6802   19.4784 C   0  0  0  0  0  0
  -23.6408  -29.8149   20.1586 C   0  0  0  0  0  0
  -25.4112  -36.3075   24.0330 C   0  0  1  0  0  0
  -20.5891  -28.3691   23.1275 C   0  0  2  0  0  0
  -20.6775  -26.9412   22.5407 C   0  0  0  0  0  0
  -19.5752  -26.6381   21.5211 C   0  0  0  0  0  0
  -18.1933  -26.7924   22.1621 C   0  0  0  0  0  0
  -19.1542  -28.8853   23.2874 C   0  0  0  0  0  0
  -18.9463  -30.1453   23.8892 C   0  0  0  0  0  0
  -17.6464  -30.6586   24.0562 C   0  0  0  0  0  0
  -25.9047  -34.9443   23.5103 C   0  0  0  0  0  0
  -16.5354  -29.9082   23.6335 C   0  0  0  0  0  0
  -16.7273  -28.6498   23.0357 C   0  0  0  0  0  0
  -26.4507  -31.6581   25.0725 C   0  0  0  0  0  0
  -25.3741  -31.3706   26.1453 C   0  0  0  0  0  0
  -27.0367  -30.3005   24.6191 C   0  0  0  0  0  0
  -27.6056  -32.4330   25.7497 C   0  0  0  0  0  0
  -27.5580  -37.1796   24.8468 C   0  0  0  0  0  0
  -21.4196  -29.3041   22.3662 N   0  0  0  0  0  0
  -26.4289  -37.3770   23.9412 N   0  0  0  0  0  0
  -24.6916  -31.0571   22.0972 N   0  0  0  0  0  0
  -23.4198  -28.8147   23.3007 O   0  0  0  0  0  0
  -28.3209  -26.4160   20.2018 O   0  0  0  0  0  0
  -26.5616  -34.8918   22.4671 O   0  0  0  0  0  0
  -23.5436  -32.1377   23.7325 O   0  0  0  0  0  0
  -30.6359  -19.7901   19.8831 C   0  0  0  0  0  0
  -30.1384  -21.1336   19.8231 C   0  0  0  0  0  0
  -28.4842  -20.5728   21.4138 C   0  0  0  0  0  0
  -30.0581  -18.7766   20.7019 C   0  0  0  0  0  0
  -29.0334  -21.6016   20.5889 C   0  0  0  0  0  0
  -28.9552  -19.2214   21.4776 C   0  0  0  0  0  0
  -28.8176  -17.3269   18.4364 C   0  0  0  0  0  0
  -28.8076  -15.8837   18.0644 C   0  0  0  0  0  0
  -28.3805  -23.8488   19.4041 C   0  0  0  0  0  0
  -28.9012  -24.0772   21.3660 C   0  0  0  0  0  0
  -28.8409  -16.2728   19.5412 C   0  0  0  0  0  0
  -28.0154  -24.9704   20.4354 C   0  0  0  0  0  0
  -30.6962  -17.3143   20.7982 C   0  0  0  0  0  0
  -28.4094  -22.9370   20.5668 N   0  0  0  0  0  0
  -30.0248  -16.0260   20.3267 N   0  0  0  0  0  0
  -28.1647  -18.1183   22.5471 Cl  0  0  0  0  0  0
  -31.4623  -12.5906   19.1304 H   0  0  0  0  0  0
  -30.3966  -11.5281   20.0112 H   0  0  0  0  0  0
  -29.7809  -11.5885   17.5822 H   0  0  0  0  0  0
  -29.6133  -13.3143   17.6270 H   0  0  0  0  0  0
  -27.9043  -11.2134   18.9815 H   0  0  0  0  0  0
  -27.3596  -12.3910   17.8184 H   0  0  0  0  0  0
  -27.5404  -14.1566   19.3791 H   0  0  0  0  0  0
  -28.7630  -12.2995   21.4802 H   0  0  0  0  0  0
  -28.4260  -14.0047   21.6906 H   0  0  0  0  0  0
  -25.2705   -9.5641   22.4807 H   0  0  0  0  0  0
  -23.9968   -7.4574   22.7478 H   0  0  0  0  0  0
  -21.0809   -8.8735   19.8948 H   0  0  0  0  0  0
  -22.3655  -10.9654   19.6203 H   0  0  0  0  0  0
  -21.1989   -7.6136   23.9710 H   0  0  0  0  0  0
  -21.1472   -6.0518   25.9078 H   0  0  0  0  0  0
  -22.0611   -2.7597   23.2864 H   0  0  0  0  0  0
  -22.3999  -11.9869   22.4848 H   0  0  0  0  0  0
  -21.1029  -13.1257   22.2629 H   0  0  0  0  0  0
  -24.6450  -15.8269   20.5291 H   0  0  0  0  0  0
  -26.2630  -15.6221   20.0937 H   0  0  0  0  0  0
  -26.7184  -32.5431   23.1097 H   0  0  0  0  0  0
  -25.0082  -33.9707   25.0427 H   0  0  0  0  0  0
  -22.7187  -31.3015   21.3987 H   0  0  0  0  0  0
  -23.3752  -35.9619   23.3300 H   0  0  0  0  0  0
  -24.3578  -36.8915   22.2058 H   0  0  0  0  0  0
  -23.7240  -37.6485   23.6670 H   0  0  0  0  0  0
  -26.1015  -31.5465   20.6085 H   0  0  0  0  0  0
  -26.8450  -30.8311   22.0077 H   0  0  0  0  0  0
  -28.1164  -28.9608   21.2110 H   0  0  0  0  0  0
  -25.9966  -25.9281   18.9869 H   0  0  0  0  0  0
  -23.9832  -27.3124   18.9916 H   0  0  0  0  0  0
  -23.7589  -30.5916   19.4022 H   0  0  0  0  0  0
  -22.7610  -29.2442   19.8563 H   0  0  0  0  0  0
  -25.1293  -36.1925   25.0821 H   0  0  0  0  0  0
  -20.9984  -28.3270   24.1393 H   0  0  0  0  0  0
  -20.5681  -26.2298   23.3605 H   0  0  0  0  0  0
  -21.6642  -26.7437   22.1201 H   0  0  0  0  0  0
  -19.6916  -25.6293   21.1239 H   0  0  0  0  0  0
  -19.6694  -27.3187   20.6740 H   0  0  0  0  0  0
  -17.4203  -26.6674   21.4021 H   0  0  0  0  0  0
  -18.0329  -26.0064   22.9012 H   0  0  0  0  0  0
  -19.7941  -30.7268   24.2260 H   0  0  0  0  0  0
  -17.5022  -31.6268   24.5162 H   0  0  0  0  0  0
  -15.5354  -30.2986   23.7666 H   0  0  0  0  0  0
  -15.8670  -28.0816   22.7083 H   0  0  0  0  0  0
  -24.5922  -30.7053   25.7782 H   0  0  0  0  0  0
  -24.8928  -32.2864   26.4892 H   0  0  0  0  0  0
  -25.8076  -30.8878   27.0220 H   0  0  0  0  0  0
  -26.2948  -29.6726   24.1245 H   0  0  0  0  0  0
  -27.4100  -29.7292   25.4702 H   0  0  0  0  0  0
  -27.8802  -30.4297   23.9404 H   0  0  0  0  0  0
  -27.2663  -33.3639   26.2055 H   0  0  0  0  0  0
  -28.3878  -32.6876   25.0332 H   0  0  0  0  0  0
  -28.0715  -31.8469   26.5430 H   0  0  0  0  0  0
  -28.2591  -38.0097   24.7524 H   0  0  0  0  0  0
  -28.1084  -36.2629   24.6290 H   0  0  0  0  0  0
  -27.2298  -37.1438   25.8870 H   0  0  0  0  0  0
  -20.9372  -29.8766   21.6875 H   0  0  0  0  0  0
  -26.0172  -38.2844   24.1415 H   0  0  0  0  0  0
  -31.4925  -19.5392   19.2732 H   0  0  0  0  0  0
  -30.6337  -21.8269   19.1578 H   0  0  0  0  0  0
  -27.6356  -20.8275   22.0315 H   0  0  0  0  0  0
  -27.8945  -17.8883   18.3031 H   0  0  0  0  0  0
  -29.7250  -17.8616   18.1660 H   0  0  0  0  0  0
  -29.7184  -15.5211   17.5931 H   0  0  0  0  0  0
  -27.8813  -15.5061   17.6349 H   0  0  0  0  0  0
  -29.3532  -23.9839   18.9259 H   0  0  0  0  0  0
  -27.5928  -23.6314   18.6816 H   0  0  0  0  0  0
  -28.5830  -24.0653   22.4092 H   0  0  0  0  0  0
  -29.9753  -24.2495   21.2651 H   0  0  0  0  0  0
  -27.9139  -16.2206   20.1041 H   0  0  0  0  0  0
  -26.9802  -24.8632   20.7731 H   0  0  0  0  0  0
  -30.9513  -17.1636   21.8477 H   0  0  0  0  0  0
  -31.6590  -17.3682   20.2876 H   0  0  0  0  0  0
  1 25  1  0  0  0
  1 30  2  0  0  0
  1 85  1  0  0  0
  2  3  1  0  0  0
  2 25  1  0  0  0
  2 87  1  0  0  0
  2 88  1  0  0  0
  3  4  1  0  0  0
  3 89  1  0  0  0
  3 90  1  0  0  0
  4  5  1  0  0  0
  4 91  1  0  0  0
  4 92  1  0  0  0
  5  6  1  0  0  0
  5 26  1  0  0  0
  5 93  1  0  0  0
  6 25  1  0  0  0
  6 94  1  0  0  0
  6 95  1  0  0  0
  7  8  2  0  0  0
  7 26  1  0  0  0
  7 29  1  0  0  0
  8  9  1  0  0  0
  8 22  1  0  0  0
  9 10  1  0  0  0
  9 27  2  0  0  0
 10 11  2  0  0  0
 10 15  1  0  0  0
 11 12  1  0  0  0
 11 96  1  0  0  0
 12 13  2  0  0  0
 12 97  1  0  0  0
 13 14  1  0  0  0
 13 31  1  0  0  0
 14 15  2  0  0  0
 14 98  1  0  0  0
 15 99  1  0  0  0
 16 17  2  0  0  0
 16 21  1  0  0  0
 16 31  1  0  0  0
 17 18  1  0  0  0
 17100  1  0  0  0
 18 19  2  0  0  0
 18101  1  0  0  0
 19 20  1  0  0  0
 19 24  1  0  0  0
 20 21  2  0  0  0
 20102  1  0  0  0
 21 23  1  0  0  0
 22 28  1  0  0  0
 22 32  2  0  0  0
 26 27  1  0  0  0
 28103  1  0  0  0
 28104  1  0  0  0
 29105  1  0  0  0
 29106  1  0  0  0
 33 34  1  0  0  0
 33 66  1  0  0  0
 33 70  2  0  0  0
 34 36  1  0  0  0
 34 59  1  0  0  0
 34107  1  0  0  0
 35 44  2  0  0  0
 35 45  1  0  0  0
 35 68  1  0  0  0
 36 56  1  0  0  0
 36108  1  0  0  0
 37 39  1  0  0  0
 37 47  1  0  0  0
 37 66  1  0  0  0
 37109  1  0  0  0
 38 43  2  0  0  0
 38 46  1  0  0  0
 38 47  1  0  0  0
 39 64  1  0  0  0
 39 67  2  0  0  0
 40 52  1  0  0  0
 40 53  2  0  0  0
 40 58  1  0  0  0
 41110  1  0  0  0
 41111  1  0  0  0
 41112  1  0  0  0
 41 48  1  0  0  0
 42 43  1  0  0  0
 42 66  1  0  0  0
 42113  1  0  0  0
 42114  1  0  0  0
 43 44  1  0  0  0
 44115  1  0  0  0
 45 46  2  0  0  0
 45116  1  0  0  0
 46117  1  0  0  0
 47118  1  0  0  0
 47119  1  0  0  0
 48 56  1  0  0  0
 48 65  1  0  0  0
 48120  1  0  0  0
 49 50  1  0  0  0
 49 53  1  0  0  0
 49 64  1  0  0  0
 49121  1  0  0  0
 50 51  1  0  0  0
 50122  1  0  0  0
 50123  1  0  0  0
 51 52  1  0  0  0
 51124  1  0  0  0
 51125  1  0  0  0
 52126  1  0  0  0
 52127  1  0  0  0
 53 54  1  0  0  0
 54 55  2  0  0  0
 54128  1  0  0  0
 55 57  1  0  0  0
 55129  1  0  0  0
 56 69  2  0  0  0
 57 58  2  0  0  0
 57130  1  0  0  0
 58131  1  0  0  0
 59 60  1  0  0  0
 59 61  1  0  0  0
 59 62  1  0  0  0
 60132  1  0  0  0
 60133  1  0  0  0
 60134  1  0  0  0
 61135  1  0  0  0
 61136  1  0  0  0
 61137  1  0  0  0
 62138  1  0  0  0
 62139  1  0  0  0
 62140  1  0  0  0
 63 65  1  0  0  0
 63141  1  0  0  0
 63142  1  0  0  0
 63143  1  0  0  0
 64144  1  0  0  0
 65145  1  0  0  0
 68 82  1  0  0  0
 71 72  2  0  0  0
 71 74  1  0  0  0
 71146  1  0  0  0
 72 75  1  0  0  0
 72147  1  0  0  0
 73 75  2  0  0  0
 73 76  1  0  0  0
 73148  1  0  0  0
 74 76  2  0  0  0
 74 83  1  0  0  0
 75 84  1  0  0  0
 76 86  1  0  0  0
 77 78  1  0  0  0
 77 81  1  0  0  0
 77149  1  0  0  0
 77150  1  0  0  0
 78 81  1  0  0  0
 78151  1  0  0  0
 78152  1  0  0  0
 79 82  1  0  0  0
 79 84  1  0  0  0
 79153  1  0  0  0
 79154  1  0  0  0
 80 82  1  0  0  0
 80 84  1  0  0  0
 80155  1  0  0  0
 80156  1  0  0  0
 81 85  1  0  0  0
 81157  1  0  0  0
 82158  1  0  0  0
 83 85  1  0  0  0
 83159  1  0  0  0
 83160  1  0  0  0
M  ISO  4   1 100  68 101  82 101  85 100
M  END
> <chiral flag>
0

> <version>
0

> <s_m_source_file>
/data/baiqing/PycharmProjects/Reinvent-master-3.2/result/LINK_invent/BTK/process_docking_weight1_custom_product_contain_oxygen_bond_distance_aromatic_linkinvent_7_9_3/rearranged_h_0026.sdf

> <i_m_source_file_index>
22

> <r_mmod_Potential_Energy-OPLS-2005>
499.913909912109

> <r_mmod_Stretch_Energy-OPLS-2005>
102.640235900879

> <r_mmod_Bend_Energy-OPLS-2005>
225.809875488281

> <r_mmod_Torsional_Energy-OPLS-2005>
404.526977539062

> <r_mmod_Improper_Torsional_Energy-OPLS-2005>
11.8194665908813

> <r_mmod_Van_der_Waal_Energy-OPLS-2005>
147.37028503418

> <r_mmod_Electrostatic_Energy-OPLS-2005>
-287.556274414062

> <r_mmod_Solvation_Energy-OPLS-2005>
-207.472717285156

> <b_mmod_Minimization_Converged-OPLS-2005>
0

> <r_mmod_RMS_Derivative-OPLS-2005>
0.683862924575806

$$$$
22
                    3D
 Structure written by MMmdl.
158167  0  0  1  0            999 V2000
  -30.5343  -15.0696   20.4513 C   0  0  0  0  0  0
  -30.4447  -12.6782   19.5281 C   0  0  0  0  0  0
  -29.5347  -12.5680   18.2785 C   0  0  0  0  0  0
  -28.0740  -12.3149   18.6903 C   0  0  0  0  0  0
  -27.6303  -13.2549   19.8374 C   0  0  2  0  0  0
  -28.6654  -13.3112   20.9787 C   0  0  0  0  0  0
  -25.2472  -13.8220   20.5709 C   0  0  0  0  0  0
  -24.1785  -13.0444   20.9201 C   0  0  0  0  0  0
  -24.6415  -11.6928   20.8730 C   0  0  0  0  0  0
  -23.9113  -10.4288   21.0395 C   0  0  0  0  0  0
  -24.3648   -9.4199   21.9183 C   0  0  0  0  0  0
  -23.6305   -8.2246   22.0773 C   0  0  0  0  0  0
  -22.4291   -8.0292   21.3562 C   0  0  0  0  0  0
  -21.9935   -9.0272   20.4672 C   0  0  0  0  0  0
  -22.7280  -10.2136   20.3061 C   0  0  0  0  0  0
  -21.6856   -6.0742   22.5282 C   0  0  0  0  0  0
  -21.4030   -6.5644   23.8214 C   0  0  0  0  0  0
  -21.3663   -5.6794   24.9166 C   0  0  0  0  0  0
  -21.6033   -4.3056   24.7222 C   0  0  0  0  0  0
  -21.8817   -3.8156   23.4341 C   0  0  0  0  0  0
  -21.9185   -4.6971   22.3396 C   0  0  0  0  0  0
  -22.7800  -13.5215   21.1847 C   0  0  0  0  0  0
  -22.1645   -4.2151   21.0976 F   0  0  0  0  0  0
  -21.5617   -3.4540   25.7734 F   0  0  0  0  0  0
  -29.9344  -13.7893   20.4020 N   0  0  0  0  0  0
  -26.2899  -12.9460   20.3235 N   0  0  0  0  0  0
  -25.9354  -11.6584   20.5730 N   0  0  0  0  0  0
  -22.0447  -12.8215   22.0415 N   0  0  0  0  0  0
  -25.4145  -15.1949   20.4175 N   0  0  0  0  0  0
  -31.6941  -15.1092   20.0231 O   0  0  0  0  0  0
  -21.6644   -6.8894   21.4251 O   0  0  0  0  0  0
  -22.3474  -14.5513   20.6682 O   0  0  0  0  0  0
  -24.6510  -31.8373   23.1828 C   0  0  0  0  0  0
  -25.9248  -32.4658   23.8238 C   0  0  1  0  0  0
  -27.2230  -27.0642   20.1604 C   0  0  0  0  0  0
  -25.5972  -33.8465   24.2148 N   0  0  0  0  0  0
  -23.4579  -30.4553   21.5280 C   0  0  2  0  0  0
  -24.9093  -28.8680   20.1130 C   0  0  0  0  0  0
  -22.7609  -29.4516   22.4823 C   0  0  0  0  0  0
  -18.0320  -28.1411   22.8483 C   0  0  0  0  0  0
  -24.1486  -36.7237   23.2643 C   0  0  0  0  0  0
  -26.0198  -30.6892   21.3914 C   0  0  0  0  0  0
  -26.0908  -29.2926   20.7346 C   0  0  0  0  0  0
  -27.2461  -28.4099   20.7354 C   0  0  0  0  0  0
  -26.0101  -26.7597   19.5007 C   0  0  0  0  0  0
  -24.8860  -27.6178   19.4794 C   0  0  0  0  0  0
  -23.6895  -29.7797   20.1506 C   0  0  0  0  0  0
  -25.4125  -36.3011   24.0307 C   0  0  1  0  0  0
  -20.5934  -28.3728   23.1232 C   0  0  2  0  0  0
  -20.6789  -26.9421   22.5408 C   0  0  0  0  0  0
  -19.5766  -26.6382   21.5214 C   0  0  0  0  0  0
  -18.1953  -26.7953   22.1629 C   0  0  0  0  0  0
  -19.1578  -28.8894   23.2848 C   0  0  0  0  0  0
  -18.9488  -30.1487   23.8872 C   0  0  0  0  0  0
  -17.6479  -30.6601   24.0566 C   0  0  0  0  0  0
  -25.9084  -34.9386   23.5038 C   0  0  0  0  0  0
  -16.5371  -29.9086   23.6344 C   0  0  0  0  0  0
  -16.7301  -28.6510   23.0361 C   0  0  0  0  0  0
  -26.4541  -31.6560   25.0708 C   0  0  0  0  0  0
  -25.3704  -31.3774   26.1387 C   0  0  0  0  0  0
  -27.0411  -30.2951   24.6338 C   0  0  0  0  0  0
  -27.6066  -32.4332   25.7507 C   0  0  0  0  0  0
  -27.5576  -37.1779   24.8469 C   0  0  0  0  0  0
  -21.4285  -29.3043   22.3577 N   0  0  0  0  0  0
  -26.4283  -37.3733   23.9411 N   0  0  0  0  0  0
  -24.7297  -31.0175   22.0892 N   0  0  0  0  0  0
  -23.4221  -28.8059   23.2988 O   0  0  0  0  0  0
  -28.2725  -26.0470   20.2135 O   0  0  0  0  0  0
  -26.5672  -34.8898   22.4617 O   0  0  0  0  0  0
  -23.5608  -32.1275   23.7007 O   0  0  0  0  0  0
  -30.8077  -20.8653   19.0468 C   0  0  0  0  0  0
  -32.0909  -20.4417   19.4422 C   0  0  0  0  0  0
  -31.1072  -19.2709   21.3419 C   0  0  0  0  0  0
  -29.8678  -19.3174   20.6644 C   0  0  0  0  0  0
  -29.7269  -20.6559   19.9344 C   0  0  0  0  0  0
  -32.2449  -19.7541   20.6608 C   0  0  0  0  0  0
  -29.1801  -23.3634   19.7909 C   0  0  0  0  0  0
  -27.5002  -23.7013   21.3493 C   0  0  0  0  0  0
  -27.8458  -22.1610   21.1647 C   0  0  0  0  0  0
  -28.0248  -24.4720   20.1195 C   0  0  1  0  0  0
  -29.4916  -16.4888   22.1860 C   0  0  0  0  0  0
  -29.7249  -17.7518   20.0385 C   0  0  0  0  0  0
  -28.9797  -22.0166   20.2399 N   0  0  0  0  0  0
  -29.8343  -16.3076   20.7704 N   0  0  0  0  0  0
  -30.1795  -23.7428   19.1712 O   0  0  0  0  0  0
  -33.8252  -19.3832   21.2450 Cl  0  0  0  0  0  0
  -31.4770  -12.8361   19.2134 H   0  0  0  0  0  0
  -30.4652  -11.7372   20.0803 H   0  0  0  0  0  0
  -29.8881  -11.7718   17.6220 H   0  0  0  0  0  0
  -29.5934  -13.4928   17.7013 H   0  0  0  0  0  0
  -27.9999  -11.2782   19.0208 H   0  0  0  0  0  0
  -27.4083  -12.4126   17.8320 H   0  0  0  0  0  0
  -27.5882  -14.2511   19.3976 H   0  0  0  0  0  0
  -28.7921  -12.3338   21.4465 H   0  0  0  0  0  0
  -28.2878  -13.9584   21.7608 H   0  0  0  0  0  0
  -25.2786   -9.5642   22.4772 H   0  0  0  0  0  0
  -23.9982   -7.4633   22.7512 H   0  0  0  0  0  0
  -21.0854   -8.8820   19.8995 H   0  0  0  0  0  0
  -22.3753  -10.9680   19.6171 H   0  0  0  0  0  0
  -21.2061   -7.6161   23.9720 H   0  0  0  0  0  0
  -21.1474   -6.0525   25.9064 H   0  0  0  0  0  0
  -22.0599   -2.7623   23.2838 H   0  0  0  0  0  0
  -22.4056  -11.9872   22.4797 H   0  0  0  0  0  0
  -21.1089  -13.1279   22.2671 H   0  0  0  0  0  0
  -24.6556  -15.8536   20.5563 H   0  0  0  0  0  0
  -26.2775  -15.6397   20.1304 H   0  0  0  0  0  0
  -26.7307  -32.5243   23.0949 H   0  0  0  0  0  0
  -25.0091  -33.9549   25.0281 H   0  0  0  0  0  0
  -22.7651  -31.2834   21.3671 H   0  0  0  0  0  0
  -23.3757  -35.9561   23.3291 H   0  0  0  0  0  0
  -24.3571  -36.8889   22.2063 H   0  0  0  0  0  0
  -23.7223  -37.6418   23.6696 H   0  0  0  0  0  0
  -26.1847  -31.4386   20.6153 H   0  0  0  0  0  0
  -26.8861  -30.7457   22.0388 H   0  0  0  0  0  0
  -28.1451  -28.7347   21.2401 H   0  0  0  0  0  0
  -25.8883  -25.8112   19.0043 H   0  0  0  0  0  0
  -23.9835  -27.2915   18.9803 H   0  0  0  0  0  0
  -23.8370  -30.5500   19.3932 H   0  0  0  0  0  0
  -22.8034  -29.2259   19.8353 H   0  0  0  0  0  0
  -25.1310  -36.1831   25.0798 H   0  0  0  0  0  0
  -21.0050  -28.3326   24.1348 H   0  0  0  0  0  0
  -20.5687  -26.2332   23.3628 H   0  0  0  0  0  0
  -21.6651  -26.7412   22.1211 H   0  0  0  0  0  0
  -19.6914  -25.6281   21.1273 H   0  0  0  0  0  0
  -19.6722  -27.3165   20.6728 H   0  0  0  0  0  0
  -17.4220  -26.6710   21.4034 H   0  0  0  0  0  0
  -18.0353  -26.0099   22.9035 H   0  0  0  0  0  0
  -19.7951  -30.7319   24.2241 H   0  0  0  0  0  0
  -17.5021  -31.6286   24.5153 H   0  0  0  0  0  0
  -15.5367  -30.2976   23.7683 H   0  0  0  0  0  0
  -15.8708  -28.0812   22.7094 H   0  0  0  0  0  0
  -24.5899  -30.7102   25.7704 H   0  0  0  0  0  0
  -24.8869  -32.2960   26.4728 H   0  0  0  0  0  0
  -25.7967  -30.9007   27.0221 H   0  0  0  0  0  0
  -26.3039  -29.6670   24.1324 H   0  0  0  0  0  0
  -27.3975  -29.7270   25.4942 H   0  0  0  0  0  0
  -27.8970  -30.4171   23.9696 H   0  0  0  0  0  0
  -27.2664  -33.3668   26.1998 H   0  0  0  0  0  0
  -28.3934  -32.6827   25.0376 H   0  0  0  0  0  0
  -28.0665  -31.8505   26.5499 H   0  0  0  0  0  0
  -28.2579  -38.0088   24.7517 H   0  0  0  0  0  0
  -28.1084  -36.2620   24.6292 H   0  0  0  0  0  0
  -27.2301  -37.1415   25.8872 H   0  0  0  0  0  0
  -20.9512  -29.8739   21.6731 H   0  0  0  0  0  0
  -26.0148  -38.2798   24.1424 H   0  0  0  0  0  0
  -30.7643  -21.5967   18.2540 H   0  0  0  0  0  0
  -32.9582  -20.7469   18.8727 H   0  0  0  0  0  0
  -31.3143  -18.5190   22.0854 H   0  0  0  0  0  0
  -26.4310  -23.8534   21.4961 H   0  0  0  0  0  0
  -27.9995  -24.0837   22.2402 H   0  0  0  0  0  0
  -28.0711  -21.6883   22.1219 H   0  0  0  0  0  0
  -26.9952  -21.6316   20.7348 H   0  0  0  0  0  0
  -27.3274  -24.3115   19.3002 H   0  0  0  0  0  0
  -28.8006  -17.3211   22.3267 H   0  0  0  0  0  0
  -30.3914  -16.6931   22.7638 H   0  0  0  0  0  0
  -29.0275  -15.6282   22.6513 H   0  0  0  0  0  0
  -28.7628  -17.7385   19.5295 H   0  0  0  0  0  0
  -30.4513  -17.7005   19.2261 H   0  0  0  0  0  0
  1 25  1  0  0  0
  1 30  2  0  0  0
  1 84  1  0  0  0
  2  3  1  0  0  0
  2 25  1  0  0  0
  2 87  1  0  0  0
  2 88  1  0  0  0
  3  4  1  0  0  0
  3 89  1  0  0  0
  3 90  1  0  0  0
  4  5  1  0  0  0
  4 91  1  0  0  0
  4 92  1  0  0  0
  5  6  1  0  0  0
  5 26  1  0  0  0
  5 93  1  0  0  0
  6 25  1  0  0  0
  6 94  1  0  0  0
  6 95  1  0  0  0
  7  8  2  0  0  0
  7 26  1  0  0  0
  7 29  1  0  0  0
  8  9  1  0  0  0
  8 22  1  0  0  0
  9 10  1  0  0  0
  9 27  2  0  0  0
 10 11  2  0  0  0
 10 15  1  0  0  0
 11 12  1  0  0  0
 11 96  1  0  0  0
 12 13  2  0  0  0
 12 97  1  0  0  0
 13 14  1  0  0  0
 13 31  1  0  0  0
 14 15  2  0  0  0
 14 98  1  0  0  0
 15 99  1  0  0  0
 16 17  2  0  0  0
 16 21  1  0  0  0
 16 31  1  0  0  0
 17 18  1  0  0  0
 17100  1  0  0  0
 18 19  2  0  0  0
 18101  1  0  0  0
 19 20  1  0  0  0
 19 24  1  0  0  0
 20 21  2  0  0  0
 20102  1  0  0  0
 21 23  1  0  0  0
 22 28  1  0  0  0
 22 32  2  0  0  0
 26 27  1  0  0  0
 28103  1  0  0  0
 28104  1  0  0  0
 29105  1  0  0  0
 29106  1  0  0  0
 33 34  1  0  0  0
 33 66  1  0  0  0
 33 70  2  0  0  0
 34 36  1  0  0  0
 34 59  1  0  0  0
 34107  1  0  0  0
 35 44  2  0  0  0
 35 45  1  0  0  0
 35 68  1  0  0  0
 36 56  1  0  0  0
 36108  1  0  0  0
 37 39  1  0  0  0
 37 47  1  0  0  0
 37 66  1  0  0  0
 37109  1  0  0  0
 38 43  2  0  0  0
 38 46  1  0  0  0
 38 47  1  0  0  0
 39 64  1  0  0  0
 39 67  2  0  0  0
 40 52  1  0  0  0
 40 53  2  0  0  0
 40 58  1  0  0  0
 41110  1  0  0  0
 41111  1  0  0  0
 41112  1  0  0  0
 41 48  1  0  0  0
 42 43  1  0  0  0
 42 66  1  0  0  0
 42113  1  0  0  0
 42114  1  0  0  0
 43 44  1  0  0  0
 44115  1  0  0  0
 45 46  2  0  0  0
 45116  1  0  0  0
 46117  1  0  0  0
 47118  1  0  0  0
 47119  1  0  0  0
 48 56  1  0  0  0
 48 65  1  0  0  0
 48120  1  0  0  0
 49 50  1  0  0  0
 49 53  1  0  0  0
 49 64  1  0  0  0
 49121  1  0  0  0
 50 51  1  0  0  0
 50122  1  0  0  0
 50123  1  0  0  0
 51 52  1  0  0  0
 51124  1  0  0  0
 51125  1  0  0  0
 52126  1  0  0  0
 52127  1  0  0  0
 53 54  1  0  0  0
 54 55  2  0  0  0
 54128  1  0  0  0
 55 57  1  0  0  0
 55129  1  0  0  0
 56 69  2  0  0  0
 57 58  2  0  0  0
 57130  1  0  0  0
 58131  1  0  0  0
 59 60  1  0  0  0
 59 61  1  0  0  0
 59 62  1  0  0  0
 60132  1  0  0  0
 60133  1  0  0  0
 60134  1  0  0  0
 61135  1  0  0  0
 61136  1  0  0  0
 61137  1  0  0  0
 62138  1  0  0  0
 62139  1  0  0  0
 62140  1  0  0  0
 63 65  1  0  0  0
 63141  1  0  0  0
 63142  1  0  0  0
 63143  1  0  0  0
 64144  1  0  0  0
 65145  1  0  0  0
 68 80  1  0  0  0
 71 72  2  0  0  0
 71 75  1  0  0  0
 71146  1  0  0  0
 72 76  1  0  0  0
 72147  1  0  0  0
 73 74  1  0  0  0
 73 76  2  0  0  0
 73148  1  0  0  0
 74 75  2  0  0  0
 74 82  1  0  0  0
 75 83  1  0  0  0
 76 86  1  0  0  0
 77 80  1  0  0  0
 77 83  1  0  0  0
 77 85  2  0  0  0
 78 79  1  0  0  0
 78 80  1  0  0  0
 78149  1  0  0  0
 78150  1  0  0  0
 79 83  1  0  0  0
 79151  1  0  0  0
 79152  1  0  0  0
 80153  1  0  0  0
 81 84  1  0  0  0
 81154  1  0  0  0
 81155  1  0  0  0
 81156  1  0  0  0
 82 84  1  0  0  0
 82157  1  0  0  0
 82158  1  0  0  0
M  ISO  4   1 100  68 101  80 101  84 100
M  END
> <chiral flag>
0

> <version>
0

> <s_m_source_file>
/data/baiqing/PycharmProjects/Reinvent-master-3.2/result/LINK_invent/BTK/process_docking_weight1_custom_product_contain_oxygen_bond_distance_aromatic_linkinvent_7_9_3/rearranged_h_0026.sdf

> <i_m_source_file_index>
23

> <r_mmod_Potential_Energy-OPLS-2005>
1235.04553222656

> <r_mmod_Stretch_Energy-OPLS-2005>
371.079803466797

> <r_mmod_Bend_Energy-OPLS-2005>
387.082550048828

> <r_mmod_Torsional_Energy-OPLS-2005>
519.586364746094

> <r_mmod_Improper_Torsional_Energy-OPLS-2005>
34.610034942627

> <r_mmod_Van_der_Waal_Energy-OPLS-2005>
138.144714355469

> <r_mmod_Electrostatic_Energy-OPLS-2005>
-265.278961181641

> <r_mmod_Solvation_Energy-OPLS-2005>
-216.436401367188

> <b_mmod_Minimization_Converged-OPLS-2005>
0

> <r_mmod_RMS_Derivative-OPLS-2005>
2.61817121505737

$$$$
23
                    3D
 Structure written by MMmdl.
159168  0  0  1  0            999 V2000
  -30.4837  -15.0482   20.3971 C   0  0  0  0  0  0
  -30.4456  -12.6494   19.5223 C   0  0  0  0  0  0
  -29.5352  -12.5458   18.2738 C   0  0  0  0  0  0
  -28.0696  -12.3112   18.6872 C   0  0  0  0  0  0
  -27.6265  -13.2538   19.8364 C   0  0  2  0  0  0
  -28.6618  -13.3148   20.9810 C   0  0  0  0  0  0
  -25.2447  -13.8215   20.5691 C   0  0  0  0  0  0
  -24.1767  -13.0434   20.9207 C   0  0  0  0  0  0
  -24.6385  -11.6918   20.8722 C   0  0  0  0  0  0
  -23.9065  -10.4284   21.0392 C   0  0  0  0  0  0
  -24.3630   -9.4204   21.9171 C   0  0  0  0  0  0
  -23.6304   -8.2240   22.0756 C   0  0  0  0  0  0
  -22.4280   -8.0267   21.3559 C   0  0  0  0  0  0
  -21.9912   -9.0232   20.4651 C   0  0  0  0  0  0
  -22.7234  -10.2116   20.3047 C   0  0  0  0  0  0
  -21.6846   -6.0723   22.5283 C   0  0  0  0  0  0
  -21.4018   -6.5634   23.8215 C   0  0  0  0  0  0
  -21.3661   -5.6792   24.9184 C   0  0  0  0  0  0
  -21.6038   -4.3054   24.7237 C   0  0  0  0  0  0
  -21.8831   -3.8144   23.4365 C   0  0  0  0  0  0
  -21.9203   -4.6954   22.3416 C   0  0  0  0  0  0
  -22.7790  -13.5202   21.1873 C   0  0  0  0  0  0
  -22.1673   -4.2133   21.0994 F   0  0  0  0  0  0
  -21.5623   -3.4544   25.7754 F   0  0  0  0  0  0
  -29.9327  -13.7571   20.3900 N   0  0  0  0  0  0
  -26.2861  -12.9456   20.3211 N   0  0  0  0  0  0
  -25.9324  -11.6574   20.5698 N   0  0  0  0  0  0
  -22.0464  -12.8173   22.0434 N   0  0  0  0  0  0
  -25.4135  -15.1947   20.4113 N   0  0  0  0  0  0
  -31.6747  -15.1291   20.0710 O   0  0  0  0  0  0
  -21.6662   -6.8855   21.4241 O   0  0  0  0  0  0
  -22.3456  -14.5487   20.6687 O   0  0  0  0  0  0
  -24.6505  -31.8329   23.1778 C   0  0  0  0  0  0
  -25.9240  -32.4626   23.8212 C   0  0  1  0  0  0
  -27.2273  -27.0611   20.1633 C   0  0  0  0  0  0
  -25.5946  -33.8434   24.2114 N   0  0  0  0  0  0
  -23.4591  -30.4482   21.5216 C   0  0  2  0  0  0
  -24.9100  -28.8533   20.1094 C   0  0  0  0  0  0
  -22.7605  -29.4496   22.4791 C   0  0  0  0  0  0
  -18.0300  -28.1415   22.8453 C   0  0  0  0  0  0
  -24.1487  -36.7243   23.2650 C   0  0  0  0  0  0
  -26.0182  -30.6856   21.3843 C   0  0  0  0  0  0
  -26.0875  -29.2876   20.7293 C   0  0  0  0  0  0
  -27.2419  -28.4095   20.7301 C   0  0  0  0  0  0
  -26.0142  -26.7305   19.5239 C   0  0  0  0  0  0
  -24.8907  -27.5926   19.4888 C   0  0  0  0  0  0
  -23.6903  -29.7646   20.1451 C   0  0  0  0  0  0
  -25.4125  -36.2994   24.0302 C   0  0  1  0  0  0
  -20.5920  -28.3749   23.1194 C   0  0  2  0  0  0
  -20.6778  -26.9438   22.5394 C   0  0  0  0  0  0
  -19.5752  -26.6390   21.5200 C   0  0  0  0  0  0
  -18.1936  -26.7943   22.1610 C   0  0  0  0  0  0
  -19.1560  -28.8899   23.2813 C   0  0  0  0  0  0
  -18.9480  -30.1490   23.8849 C   0  0  0  0  0  0
  -17.6479  -30.6601   24.0564 C   0  0  0  0  0  0
  -25.9077  -34.9373   23.5030 C   0  0  0  0  0  0
  -16.5369  -29.9099   23.6337 C   0  0  0  0  0  0
  -16.7287  -28.6525   23.0339 C   0  0  0  0  0  0
  -26.4549  -31.6530   25.0690 C   0  0  0  0  0  0
  -25.3720  -31.3741   26.1378 C   0  0  0  0  0  0
  -27.0427  -30.2909   24.6331 C   0  0  0  0  0  0
  -27.6047  -32.4334   25.7490 C   0  0  0  0  0  0
  -27.5571  -37.1774   24.8465 C   0  0  0  0  0  0
  -21.4282  -29.3067   22.3557 N   0  0  0  0  0  0
  -26.4280  -37.3723   23.9410 N   0  0  0  0  0  0
  -24.7293  -31.0136   22.0828 N   0  0  0  0  0  0
  -23.4207  -28.8047   23.2977 O   0  0  0  0  0  0
  -28.3168  -26.0974   20.2601 O   0  0  0  0  0  0
  -26.5690  -34.8897   22.4622 O   0  0  0  0  0  0
  -23.5604  -32.1236   23.6958 O   0  0  0  0  0  0
  -30.2858  -21.3197   22.2194 C   0  0  0  0  0  0
  -31.0480  -20.7194   23.2255 C   0  0  0  0  0  0
  -30.6936  -18.5882   22.1819 C   0  0  0  0  0  0
  -29.9025  -19.1092   21.1211 C   0  0  0  0  0  0
  -29.6270  -20.6440   21.1505 C   0  0  0  0  0  0
  -31.2496  -19.3479   23.2123 C   0  0  0  0  0  0
  -27.7899  -22.6002   18.2864 C   0  0  0  0  0  0
  -28.1719  -24.1107   18.4569 C   0  0  0  0  0  0
  -28.7579  -21.5475   18.9185 C   0  0  0  0  0  0
  -28.3732  -23.1396   20.8600 C   0  0  0  0  0  0
  -28.4757  -24.5427   19.9181 C   0  0  2  0  0  0
  -29.6224  -17.7892   20.1520 C   0  0  0  0  0  0
  -28.9027  -21.7141   20.3650 N   0  0  0  0  0  0
  -29.6650  -16.2198   20.5784 N   0  0  0  0  0  0
  -32.2123  -18.5980   24.4314 Cl  0  0  0  0  0  0
  -31.4792  -12.8237   19.2174 H   0  0  0  0  0  0
  -30.4602  -11.7070   20.0724 H   0  0  0  0  0  0
  -29.8758  -11.7423   17.6196 H   0  0  0  0  0  0
  -29.6091  -13.4686   17.6955 H   0  0  0  0  0  0
  -27.9829  -11.2739   19.0131 H   0  0  0  0  0  0
  -27.4109  -12.4188   17.8260 H   0  0  0  0  0  0
  -27.5780  -14.2478   19.3905 H   0  0  0  0  0  0
  -28.7673  -12.3465   21.4734 H   0  0  0  0  0  0
  -28.3378  -14.0121   21.7538 H   0  0  0  0  0  0
  -25.2780   -9.5688   22.4739 H   0  0  0  0  0  0
  -24.0025   -7.4635   22.7467 H   0  0  0  0  0  0
  -21.0852   -8.8740   19.8947 H   0  0  0  0  0  0
  -22.3689  -10.9653   19.6150 H   0  0  0  0  0  0
  -21.2021   -7.6147   23.9705 H   0  0  0  0  0  0
  -21.1456   -6.0534   25.9077 H   0  0  0  0  0  0
  -22.0611   -2.7598   23.2882 H   0  0  0  0  0  0
  -22.4106  -11.9873   22.4872 H   0  0  0  0  0  0
  -21.1051  -13.1143   22.2586 H   0  0  0  0  0  0
  -24.6437  -15.8483   20.5091 H   0  0  0  0  0  0
  -26.2592  -15.6312   20.0700 H   0  0  0  0  0  0
  -26.7300  -32.5207   23.0932 H   0  0  0  0  0  0
  -25.0038  -33.9524   25.0226 H   0  0  0  0  0  0
  -22.7670  -31.2760   21.3550 H   0  0  0  0  0  0
  -23.3743  -35.9582   23.3282 H   0  0  0  0  0  0
  -24.3575  -36.8916   22.2075 H   0  0  0  0  0  0
  -23.7247  -37.6426   23.6717 H   0  0  0  0  0  0
  -26.1784  -31.4290   20.6025 H   0  0  0  0  0  0
  -26.8888  -30.7456   22.0267 H   0  0  0  0  0  0
  -28.1430  -28.7401   21.2296 H   0  0  0  0  0  0
  -25.8934  -25.7522   19.0866 H   0  0  0  0  0  0
  -23.9895  -27.2504   18.9991 H   0  0  0  0  0  0
  -23.8352  -30.5315   19.3833 H   0  0  0  0  0  0
  -22.8053  -29.2069   19.8326 H   0  0  0  0  0  0
  -25.1311  -36.1810   25.0791 H   0  0  0  0  0  0
  -21.0008  -28.3361   24.1316 H   0  0  0  0  0  0
  -20.5635  -26.2374   23.3633 H   0  0  0  0  0  0
  -21.6641  -26.7401   22.1219 H   0  0  0  0  0  0
  -19.6915  -25.6290   21.1250 H   0  0  0  0  0  0
  -19.6698  -27.3176   20.6708 H   0  0  0  0  0  0
  -17.4200  -26.6662   21.4028 H   0  0  0  0  0  0
  -18.0354  -26.0108   22.9029 H   0  0  0  0  0  0
  -19.7966  -30.7315   24.2196 H   0  0  0  0  0  0
  -17.5038  -31.6270   24.5194 H   0  0  0  0  0  0
  -15.5363  -30.2995   23.7700 H   0  0  0  0  0  0
  -15.8681  -28.0850   22.7056 H   0  0  0  0  0  0
  -24.5900  -30.7083   25.7701 H   0  0  0  0  0  0
  -24.8924  -32.2935   26.4744 H   0  0  0  0  0  0
  -25.8012  -30.8955   27.0188 H   0  0  0  0  0  0
  -26.3055  -29.6605   24.1340 H   0  0  0  0  0  0
  -27.3998  -29.7248   25.4946 H   0  0  0  0  0  0
  -27.8983  -30.4111   23.9681 H   0  0  0  0  0  0
  -27.2586  -33.3647   26.1994 H   0  0  0  0  0  0
  -28.3901  -32.6879   25.0355 H   0  0  0  0  0  0
  -28.0668  -31.8514   26.5478 H   0  0  0  0  0  0
  -28.2560  -38.0093   24.7504 H   0  0  0  0  0  0
  -28.1083  -36.2614   24.6281 H   0  0  0  0  0  0
  -27.2289  -37.1412   25.8869 H   0  0  0  0  0  0
  -20.9515  -29.8793   21.6735 H   0  0  0  0  0  0
  -26.0126  -38.2778   24.1424 H   0  0  0  0  0  0
  -30.2867  -22.3886   22.3082 H   0  0  0  0  0  0
  -31.5014  -21.3238   23.9979 H   0  0  0  0  0  0
  -30.9345  -17.5390   22.2176 H   0  0  0  0  0  0
  -27.6957  -22.3838   17.2218 H   0  0  0  0  0  0
  -26.7882  -22.4461   18.6917 H   0  0  0  0  0  0
  -27.3781  -24.7154   18.0281 H   0  0  0  0  0  0
  -29.0468  -24.3240   17.8423 H   0  0  0  0  0  0
  -29.7402  -21.6115   18.4464 H   0  0  0  0  0  0
  -28.3841  -20.5422   18.7138 H   0  0  0  0  0  0
  -27.3080  -22.9834   21.0348 H   0  0  0  0  0  0
  -28.7222  -23.4062   21.8530 H   0  0  0  0  0  0
  -29.5660  -24.5858   19.8943 H   0  0  0  0  0  0
  -30.2985  -17.8919   19.3035 H   0  0  0  0  0  0
  -28.6310  -17.9537   19.7281 H   0  0  0  0  0  0
  -28.7565  -15.9335   20.9171 H   0  0  0  0  0  0
  1 25  1  0  0  0
  1 30  2  0  0  0
  1 84  1  0  0  0
  2  3  1  0  0  0
  2 25  1  0  0  0
  2 86  1  0  0  0
  2 87  1  0  0  0
  3  4  1  0  0  0
  3 88  1  0  0  0
  3 89  1  0  0  0
  4  5  1  0  0  0
  4 90  1  0  0  0
  4 91  1  0  0  0
  5  6  1  0  0  0
  5 26  1  0  0  0
  5 92  1  0  0  0
  6 25  1  0  0  0
  6 93  1  0  0  0
  6 94  1  0  0  0
  7  8  2  0  0  0
  7 26  1  0  0  0
  7 29  1  0  0  0
  8  9  1  0  0  0
  8 22  1  0  0  0
  9 10  1  0  0  0
  9 27  2  0  0  0
 10 11  2  0  0  0
 10 15  1  0  0  0
 11 12  1  0  0  0
 11 95  1  0  0  0
 12 13  2  0  0  0
 12 96  1  0  0  0
 13 14  1  0  0  0
 13 31  1  0  0  0
 14 15  2  0  0  0
 14 97  1  0  0  0
 15 98  1  0  0  0
 16 17  2  0  0  0
 16 21  1  0  0  0
 16 31  1  0  0  0
 17 18  1  0  0  0
 17 99  1  0  0  0
 18 19  2  0  0  0
 18100  1  0  0  0
 19 20  1  0  0  0
 19 24  1  0  0  0
 20 21  2  0  0  0
 20101  1  0  0  0
 21 23  1  0  0  0
 22 28  1  0  0  0
 22 32  2  0  0  0
 26 27  1  0  0  0
 28102  1  0  0  0
 28103  1  0  0  0
 29104  1  0  0  0
 29105  1  0  0  0
 33 34  1  0  0  0
 33 66  1  0  0  0
 33 70  2  0  0  0
 34 36  1  0  0  0
 34 59  1  0  0  0
 34106  1  0  0  0
 35 44  2  0  0  0
 35 45  1  0  0  0
 35 68  1  0  0  0
 36 56  1  0  0  0
 36107  1  0  0  0
 37 39  1  0  0  0
 37 47  1  0  0  0
 37 66  1  0  0  0
 37108  1  0  0  0
 38 43  2  0  0  0
 38 46  1  0  0  0
 38 47  1  0  0  0
 39 64  1  0  0  0
 39 67  2  0  0  0
 40 52  1  0  0  0
 40 53  2  0  0  0
 40 58  1  0  0  0
 41109  1  0  0  0
 41110  1  0  0  0
 41111  1  0  0  0
 41 48  1  0  0  0
 42 43  1  0  0  0
 42 66  1  0  0  0
 42112  1  0  0  0
 42113  1  0  0  0
 43 44  1  0  0  0
 44114  1  0  0  0
 45 46  2  0  0  0
 45115  1  0  0  0
 46116  1  0  0  0
 47117  1  0  0  0
 47118  1  0  0  0
 48 56  1  0  0  0
 48 65  1  0  0  0
 48119  1  0  0  0
 49 50  1  0  0  0
 49 53  1  0  0  0
 49 64  1  0  0  0
 49120  1  0  0  0
 50 51  1  0  0  0
 50121  1  0  0  0
 50122  1  0  0  0
 51 52  1  0  0  0
 51123  1  0  0  0
 51124  1  0  0  0
 52125  1  0  0  0
 52126  1  0  0  0
 53 54  1  0  0  0
 54 55  2  0  0  0
 54127  1  0  0  0
 55 57  1  0  0  0
 55128  1  0  0  0
 56 69  2  0  0  0
 57 58  2  0  0  0
 57129  1  0  0  0
 58130  1  0  0  0
 59 60  1  0  0  0
 59 61  1  0  0  0
 59 62  1  0  0  0
 60131  1  0  0  0
 60132  1  0  0  0
 60133  1  0  0  0
 61134  1  0  0  0
 61135  1  0  0  0
 61136  1  0  0  0
 62137  1  0  0  0
 62138  1  0  0  0
 62139  1  0  0  0
 63 65  1  0  0  0
 63140  1  0  0  0
 63141  1  0  0  0
 63142  1  0  0  0
 64143  1  0  0  0
 65144  1  0  0  0
 68 81  1  0  0  0
 71 72  2  0  0  0
 71 75  1  0  0  0
 71145  1  0  0  0
 72 76  1  0  0  0
 72146  1  0  0  0
 73 74  1  0  0  0
 73 76  2  0  0  0
 73147  1  0  0  0
 74 75  2  0  0  0
 74 82  1  0  0  0
 75 83  1  0  0  0
 76 85  1  0  0  0
 77 78  1  0  0  0
 77 79  1  0  0  0
 77148  1  0  0  0
 77149  1  0  0  0
 78 81  1  0  0  0
 78150  1  0  0  0
 78151  1  0  0  0
 79 83  1  0  0  0
 79152  1  0  0  0
 79153  1  0  0  0
 80 81  1  0  0  0
 80 83  1  0  0  0
 80154  1  0  0  0
 80155  1  0  0  0
 81156  1  0  0  0
 82 84  1  0  0  0
 82157  1  0  0  0
 82158  1  0  0  0
 84159  1  0  0  0
M  ISO  4   1 100  68 101  81 101  84 100
M  END
> <chiral flag>
0

> <version>
0

> <s_m_source_file>
/data/baiqing/PycharmProjects/Reinvent-master-3.2/result/LINK_invent/BTK/process_docking_weight1_custom_product_contain_oxygen_bond_distance_aromatic_linkinvent_7_9_3/rearranged_h_0026.sdf

> <i_m_source_file_index>
24

> <r_mmod_Potential_Energy-OPLS-2005>
850.423461914062

> <r_mmod_Stretch_Energy-OPLS-2005>
373.689819335938

> <r_mmod_Bend_Energy-OPLS-2005>
463.616302490234

> <r_mmod_Torsional_Energy-OPLS-2005>
241.76432800293

> <r_mmod_Improper_Torsional_Energy-OPLS-2005>
5.19088745117188

> <r_mmod_Van_der_Waal_Energy-OPLS-2005>
146.188690185547

> <r_mmod_Electrostatic_Energy-OPLS-2005>
-407.118408203125

> <r_mmod_Solvation_Energy-OPLS-2005>
-234.815017700195

> <b_mmod_Minimization_Converged-OPLS-2005>
0

> <r_mmod_RMS_Derivative-OPLS-2005>
2.5086030960083

$$$$
24
                    3D
 Structure written by MMmdl.
155164  0  0  1  0            999 V2000
  -30.4260  -15.4036   20.3390 C   0  0  0  0  0  0
  -30.4240  -12.9131   19.5293 C   0  0  0  0  0  0
  -29.5348  -12.5965   18.2999 C   0  0  0  0  0  0
  -28.0951  -12.2899   18.7386 C   0  0  0  0  0  0
  -27.6008  -13.2887   19.8136 C   0  0  2  0  0  0
  -28.6283  -13.5484   20.9381 C   0  0  0  0  0  0
  -25.2358  -13.8275   20.5771 C   0  0  0  0  0  0
  -24.1723  -13.0448   20.9274 C   0  0  0  0  0  0
  -24.6393  -11.6946   20.8775 C   0  0  0  0  0  0
  -23.9094  -10.4298   21.0411 C   0  0  0  0  0  0
  -24.3643   -9.4215   21.9187 C   0  0  0  0  0  0
  -23.6312   -8.2253   22.0754 C   0  0  0  0  0  0
  -22.4294   -8.0288   21.3543 C   0  0  0  0  0  0
  -21.9933   -9.0260   20.4644 C   0  0  0  0  0  0
  -22.7266  -10.2136   20.3057 C   0  0  0  0  0  0
  -21.6860   -6.0742   22.5278 C   0  0  0  0  0  0
  -21.4013   -6.5640   23.8212 C   0  0  0  0  0  0
  -21.3665   -5.6792   24.9173 C   0  0  0  0  0  0
  -21.6050   -4.3056   24.7225 C   0  0  0  0  0  0
  -21.8820   -3.8148   23.4345 C   0  0  0  0  0  0
  -21.9192   -4.6967   22.3400 C   0  0  0  0  0  0
  -22.7741  -13.5191   21.1904 C   0  0  0  0  0  0
  -22.1663   -4.2147   21.0980 F   0  0  0  0  0  0
  -21.5631   -3.4543   25.7744 F   0  0  0  0  0  0
  -29.8350  -14.0921   20.2871 N   0  0  0  0  0  0
  -26.2780  -12.9564   20.3225 N   0  0  0  0  0  0
  -25.9334  -11.6657   20.5727 N   0  0  0  0  0  0
  -22.0400  -12.8177   22.0458 N   0  0  0  0  0  0
  -25.4001  -15.2011   20.4207 N   0  0  0  0  0  0
  -31.6584  -15.2902   20.2217 O   0  0  0  0  0  0
  -21.6650   -6.8891   21.4242 O   0  0  0  0  0  0
  -22.3427  -14.5488   20.6735 O   0  0  0  0  0  0
  -24.6713  -31.8152   23.1633 C   0  0  0  0  0  0
  -25.9359  -32.4538   23.8127 C   0  0  1  0  0  0
  -27.2120  -26.8443   20.1952 C   0  0  0  0  0  0
  -25.5996  -33.8360   24.2026 N   0  0  0  0  0  0
  -23.4886  -30.4249   21.5154 C   0  0  2  0  0  0
  -24.9404  -28.7942   20.1167 C   0  0  0  0  0  0
  -22.7698  -29.4405   22.4758 C   0  0  0  0  0  0
  -18.0321  -28.1419   22.8451 C   0  0  0  0  0  0
  -24.1497  -36.7188   23.2646 C   0  0  0  0  0  0
  -26.0628  -30.5942   21.4053 C   0  0  0  0  0  0
  -26.1287  -29.1754   20.7519 C   0  0  0  0  0  0
  -27.2585  -28.2256   20.7605 C   0  0  0  0  0  0
  -25.9924  -26.6359   19.5110 C   0  0  0  0  0  0
  -24.9025  -27.5466   19.4743 C   0  0  0  0  0  0
  -23.7323  -29.7345   20.1451 C   0  0  0  0  0  0
  -25.4139  -36.2937   24.0290 C   0  0  1  0  0  0
  -20.5949  -28.3770   23.1167 C   0  0  2  0  0  0
  -20.6804  -26.9445   22.5401 C   0  0  0  0  0  0
  -19.5782  -26.6380   21.5211 C   0  0  0  0  0  0
  -18.1960  -26.7950   22.1613 C   0  0  0  0  0  0
  -19.1583  -28.8915   23.2792 C   0  0  0  0  0  0
  -18.9498  -30.1502   23.8835 C   0  0  0  0  0  0
  -17.6492  -30.6608   24.0550 C   0  0  0  0  0  0
  -25.9111  -34.9324   23.4982 C   0  0  0  0  0  0
  -16.5380  -29.9092   23.6349 C   0  0  0  0  0  0
  -16.7303  -28.6514   23.0360 C   0  0  0  0  0  0
  -26.4581  -31.6520   25.0695 C   0  0  0  0  0  0
  -25.3679  -31.3804   26.1334 C   0  0  0  0  0  0
  -27.0482  -30.2868   24.6500 C   0  0  0  0  0  0
  -27.6051  -32.4352   25.7505 C   0  0  0  0  0  0
  -27.5572  -37.1744   24.8457 C   0  0  0  0  0  0
  -21.4360  -29.3045   22.3508 N   0  0  0  0  0  0
  -26.4274  -37.3687   23.9410 N   0  0  0  0  0  0
  -24.7632  -30.9740   22.0810 N   0  0  0  0  0  0
  -23.4207  -28.7982   23.3037 O   0  0  0  0  0  0
  -28.2013  -25.6993   20.2395 O   0  0  0  0  0  0
  -26.5729  -34.8877   22.4583 O   0  0  0  0  0  0
  -23.5769  -32.1166   23.6678 O   0  0  0  0  0  0
  -31.1969  -20.6563   19.8655 C   0  0  0  0  0  0
  -32.3561  -20.1957   19.2458 C   0  0  0  0  0  0
  -31.3602  -18.0314   19.1221 C   0  0  0  0  0  0
  -29.9758  -19.9386   20.0548 C   0  0  0  0  0  0
  -30.2315  -18.3208   19.9500 C   0  0  0  0  0  0
  -32.3897  -18.9013   18.7729 C   0  0  0  0  0  0
  -28.9529  -22.6653   19.8761 C   0  0  0  0  0  0
  -27.6014  -22.2320   22.2468 C   0  0  0  0  0  0
  -27.2078  -23.6181   21.6234 C   0  0  0  0  0  0
  -27.8155  -21.0229   21.2675 C   0  0  0  0  0  0
  -27.9206  -24.0303   20.3087 C   0  0  1  0  0  0
  -28.9380  -21.2141   20.3388 N   0  0  0  0  0  0
  -29.7505  -16.7787   20.3394 N   0  0  0  0  0  0
  -29.7503  -22.9817   18.9870 O   0  0  0  0  0  0
  -33.7342  -18.3457   17.8439 Cl  0  0  0  0  0  0
  -31.4349  -13.1233   19.1786 H   0  0  0  0  0  0
  -30.5221  -12.0389   20.1752 H   0  0  0  0  0  0
  -29.9449  -11.7571   17.7365 H   0  0  0  0  0  0
  -29.5345  -13.4534   17.6241 H   0  0  0  0  0  0
  -28.0829  -11.2788   19.1473 H   0  0  0  0  0  0
  -27.4250  -12.2815   17.8786 H   0  0  0  0  0  0
  -27.4881  -14.2309   19.2754 H   0  0  0  0  0  0
  -28.8384  -12.6440   21.5114 H   0  0  0  0  0  0
  -28.2388  -14.2829   21.6447 H   0  0  0  0  0  0
  -25.2785   -9.5693   22.4768 H   0  0  0  0  0  0
  -24.0017   -7.4648   22.7480 H   0  0  0  0  0  0
  -21.0865   -8.8780   19.8952 H   0  0  0  0  0  0
  -22.3721  -10.9675   19.6170 H   0  0  0  0  0  0
  -21.1998   -7.6146   23.9713 H   0  0  0  0  0  0
  -21.1487   -6.0522   25.9075 H   0  0  0  0  0  0
  -22.0592   -2.7608   23.2847 H   0  0  0  0  0  0
  -22.4032  -11.9857   22.4870 H   0  0  0  0  0  0
  -21.1002  -13.1174   22.2633 H   0  0  0  0  0  0
  -24.6327  -15.8542   20.5373 H   0  0  0  0  0  0
  -26.2434  -15.6397   20.0748 H   0  0  0  0  0  0
  -26.7431  -32.5049   23.0838 H   0  0  0  0  0  0
  -25.0079  -33.9424   25.0136 H   0  0  0  0  0  0
  -22.8070  -31.2594   21.3380 H   0  0  0  0  0  0
  -23.3778  -35.9498   23.3256 H   0  0  0  0  0  0
  -24.3578  -36.8896   22.2073 H   0  0  0  0  0  0
  -23.7239  -37.6351   23.6747 H   0  0  0  0  0  0
  -26.2540  -31.3287   20.6219 H   0  0  0  0  0  0
  -26.9199  -30.6524   22.0644 H   0  0  0  0  0  0
  -28.1594  -28.5202   21.2802 H   0  0  0  0  0  0
  -25.8454  -25.6891   19.0118 H   0  0  0  0  0  0
  -24.0016  -27.2481   18.9557 H   0  0  0  0  0  0
  -23.8965  -30.5001   19.3859 H   0  0  0  0  0  0
  -22.8391  -29.1951   19.8242 H   0  0  0  0  0  0
  -25.1342  -36.1712   25.0781 H   0  0  0  0  0  0
  -21.0028  -28.3387   24.1292 H   0  0  0  0  0  0
  -20.5687  -26.2386   23.3646 H   0  0  0  0  0  0
  -21.6668  -26.7421   22.1206 H   0  0  0  0  0  0
  -19.6950  -25.6272   21.1282 H   0  0  0  0  0  0
  -19.6735  -27.3153   20.6711 H   0  0  0  0  0  0
  -17.4230  -26.6672   21.4019 H   0  0  0  0  0  0
  -18.0365  -26.0113   22.9031 H   0  0  0  0  0  0
  -19.7975  -30.7327   24.2189 H   0  0  0  0  0  0
  -17.5045  -31.6283   24.5162 H   0  0  0  0  0  0
  -15.5379  -30.2976   23.7723 H   0  0  0  0  0  0
  -15.8696  -28.0821   22.7116 H   0  0  0  0  0  0
  -24.5878  -30.7137   25.7645 H   0  0  0  0  0  0
  -24.8855  -32.3016   26.4611 H   0  0  0  0  0  0
  -25.7892  -30.9071   27.0211 H   0  0  0  0  0  0
  -26.3167  -29.6519   24.1489 H   0  0  0  0  0  0
  -27.3947  -29.7274   25.5202 H   0  0  0  0  0  0
  -27.9140  -30.4021   23.9974 H   0  0  0  0  0  0
  -27.2605  -33.3709   26.1925 H   0  0  0  0  0  0
  -28.3945  -32.6824   25.0391 H   0  0  0  0  0  0
  -28.0623  -31.8580   26.5554 H   0  0  0  0  0  0
  -28.2539  -38.0088   24.7533 H   0  0  0  0  0  0
  -28.1118  -36.2611   24.6244 H   0  0  0  0  0  0
  -27.2289  -37.1333   25.8859 H   0  0  0  0  0  0
  -20.9635  -29.8709   21.6601 H   0  0  0  0  0  0
  -26.0109  -38.2735   24.1440 H   0  0  0  0  0  0
  -31.2951  -21.6859   20.1656 H   0  0  0  0  0  0
  -33.1894  -20.8622   19.0755 H   0  0  0  0  0  0
  -31.5289  -17.0501   18.7179 H   0  0  0  0  0  0
  -26.8424  -21.9596   22.9817 H   0  0  0  0  0  0
  -28.5171  -22.3646   22.8257 H   0  0  0  0  0  0
  -27.3821  -24.3915   22.3724 H   0  0  0  0  0  0
  -26.1314  -23.6328   21.4469 H   0  0  0  0  0  0
  -26.9059  -20.8382   20.6943 H   0  0  0  0  0  0
  -28.0007  -20.1200   21.8504 H   0  0  0  0  0  0
  -27.1638  -23.9170   19.5330 H   0  0  0  0  0  0
  -28.7711  -16.7119   20.5783 H   0  0  0  0  0  0
  1 25  1  0  0  0
  1 30  2  0  0  0
  1 83  1  0  0  0
  2  3  1  0  0  0
  2 25  1  0  0  0
  2 86  1  0  0  0
  2 87  1  0  0  0
  3  4  1  0  0  0
  3 88  1  0  0  0
  3 89  1  0  0  0
  4  5  1  0  0  0
  4 90  1  0  0  0
  4 91  1  0  0  0
  5  6  1  0  0  0
  5 26  1  0  0  0
  5 92  1  0  0  0
  6 25  1  0  0  0
  6 93  1  0  0  0
  6 94  1  0  0  0
  7  8  2  0  0  0
  7 26  1  0  0  0
  7 29  1  0  0  0
  8  9  1  0  0  0
  8 22  1  0  0  0
  9 10  1  0  0  0
  9 27  2  0  0  0
 10 11  2  0  0  0
 10 15  1  0  0  0
 11 12  1  0  0  0
 11 95  1  0  0  0
 12 13  2  0  0  0
 12 96  1  0  0  0
 13 14  1  0  0  0
 13 31  1  0  0  0
 14 15  2  0  0  0
 14 97  1  0  0  0
 15 98  1  0  0  0
 16 17  2  0  0  0
 16 21  1  0  0  0
 16 31  1  0  0  0
 17 18  1  0  0  0
 17 99  1  0  0  0
 18 19  2  0  0  0
 18100  1  0  0  0
 19 20  1  0  0  0
 19 24  1  0  0  0
 20 21  2  0  0  0
 20101  1  0  0  0
 21 23  1  0  0  0
 22 28  1  0  0  0
 22 32  2  0  0  0
 26 27  1  0  0  0
 28102  1  0  0  0
 28103  1  0  0  0
 29104  1  0  0  0
 29105  1  0  0  0
 33 34  1  0  0  0
 33 66  1  0  0  0
 33 70  2  0  0  0
 34 36  1  0  0  0
 34 59  1  0  0  0
 34106  1  0  0  0
 35 44  2  0  0  0
 35 45  1  0  0  0
 35 68  1  0  0  0
 36 56  1  0  0  0
 36107  1  0  0  0
 37 39  1  0  0  0
 37 47  1  0  0  0
 37 66  1  0  0  0
 37108  1  0  0  0
 38 43  2  0  0  0
 38 46  1  0  0  0
 38 47  1  0  0  0
 39 64  1  0  0  0
 39 67  2  0  0  0
 40 52  1  0  0  0
 40 53  2  0  0  0
 40 58  1  0  0  0
 41109  1  0  0  0
 41110  1  0  0  0
 41111  1  0  0  0
 41 48  1  0  0  0
 42 43  1  0  0  0
 42 66  1  0  0  0
 42112  1  0  0  0
 42113  1  0  0  0
 43 44  1  0  0  0
 44114  1  0  0  0
 45 46  2  0  0  0
 45115  1  0  0  0
 46116  1  0  0  0
 47117  1  0  0  0
 47118  1  0  0  0
 48 56  1  0  0  0
 48 65  1  0  0  0
 48119  1  0  0  0
 49 50  1  0  0  0
 49 53  1  0  0  0
 49 64  1  0  0  0
 49120  1  0  0  0
 50 51  1  0  0  0
 50121  1  0  0  0
 50122  1  0  0  0
 51 52  1  0  0  0
 51123  1  0  0  0
 51124  1  0  0  0
 52125  1  0  0  0
 52126  1  0  0  0
 53 54  1  0  0  0
 54 55  2  0  0  0
 54127  1  0  0  0
 55 57  1  0  0  0
 55128  1  0  0  0
 56 69  2  0  0  0
 57 58  2  0  0  0
 57129  1  0  0  0
 58130  1  0  0  0
 59 60  1  0  0  0
 59 61  1  0  0  0
 59 62  1  0  0  0
 60131  1  0  0  0
 60132  1  0  0  0
 60133  1  0  0  0
 61134  1  0  0  0
 61135  1  0  0  0
 61136  1  0  0  0
 62137  1  0  0  0
 62138  1  0  0  0
 62139  1  0  0  0
 63 65  1  0  0  0
 63140  1  0  0  0
 63141  1  0  0  0
 63142  1  0  0  0
 64143  1  0  0  0
 65144  1  0  0  0
 68 81  1  0  0  0
 71 72  2  0  0  0
 71 74  1  0  0  0
 71145  1  0  0  0
 72 76  1  0  0  0
 72146  1  0  0  0
 73 75  1  0  0  0
 73 76  2  0  0  0
 73147  1  0  0  0
 74 75  2  0  0  0
 74 82  1  0  0  0
 75 83  1  0  0  0
 76 85  1  0  0  0
 77 81  1  0  0  0
 77 82  1  0  0  0
 77 84  2  0  0  0
 78 79  1  0  0  0
 78 80  1  0  0  0
 78148  1  0  0  0
 78149  1  0  0  0
 79 81  1  0  0  0
 79150  1  0  0  0
 79151  1  0  0  0
 80 82  1  0  0  0
 80152  1  0  0  0
 80153  1  0  0  0
 81154  1  0  0  0
 83155  1  0  0  0
M  ISO  4   1 100  68 101  81 101  83 100
M  END
> <chiral flag>
0

> <version>
0

> <s_m_source_file>
/data/baiqing/PycharmProjects/Reinvent-master-3.2/result/LINK_invent/BTK/process_docking_weight1_custom_product_contain_oxygen_bond_distance_aromatic_linkinvent_7_9_3/rearranged_h_0026.sdf

> <i_m_source_file_index>
25

> <r_mmod_Potential_Energy-OPLS-2005>
1982.28283691406

> <r_mmod_Stretch_Energy-OPLS-2005>
807.328308105469

> <r_mmod_Bend_Energy-OPLS-2005>
616.136291503906

> <r_mmod_Torsional_Energy-OPLS-2005>
327.035888671875

> <r_mmod_Improper_Torsional_Energy-OPLS-2005>
4.76722145080566

> <r_mmod_Van_der_Waal_Energy-OPLS-2005>
166.863159179688

> <r_mmod_Electrostatic_Energy-OPLS-2005>
-307.026458740234

> <r_mmod_Solvation_Energy-OPLS-2005>
-230.595001220703

> <b_mmod_Minimization_Converged-OPLS-2005>
0

> <r_mmod_RMS_Derivative-OPLS-2005>
1.11350274085999

$$$$
25
                    3D
 Structure written by MMmdl.
161170  0  0  1  0            999 V2000
  -30.6037  -14.7522   20.4475 C   0  0  0  0  0  0
  -30.4289  -12.4568   19.4713 C   0  0  0  0  0  0
  -29.5049  -12.5016   18.2347 C   0  0  0  0  0  0
  -28.0341  -12.3194   18.6552 C   0  0  0  0  0  0
  -27.6378  -13.2284   19.8493 C   0  0  2  0  0  0
  -28.6828  -13.1724   20.9848 C   0  0  0  0  0  0
  -25.2485  -13.8173   20.5676 C   0  0  0  0  0  0
  -24.1788  -13.0427   20.9224 C   0  0  0  0  0  0
  -24.6381  -11.6908   20.8780 C   0  0  0  0  0  0
  -23.9068  -10.4282   21.0427 C   0  0  0  0  0  0
  -24.3620   -9.4197   21.9202 C   0  0  0  0  0  0
  -23.6292   -8.2235   22.0768 C   0  0  0  0  0  0
  -22.4277   -8.0279   21.3554 C   0  0  0  0  0  0
  -21.9910   -9.0253   20.4652 C   0  0  0  0  0  0
  -22.7245  -10.2129   20.3066 C   0  0  0  0  0  0
  -21.6847   -6.0732   22.5278 C   0  0  0  0  0  0
  -21.4010   -6.5640   23.8211 C   0  0  0  0  0  0
  -21.3658   -5.6798   24.9177 C   0  0  0  0  0  0
  -21.6041   -4.3056   24.7225 C   0  0  0  0  0  0
  -21.8825   -3.8144   23.4346 C   0  0  0  0  0  0
  -21.9191   -4.6960   22.3397 C   0  0  0  0  0  0
  -22.7815  -13.5220   21.1874 C   0  0  0  0  0  0
  -22.1662   -4.2146   21.0975 F   0  0  0  0  0  0
  -21.5625   -3.4539   25.7735 F   0  0  0  0  0  0
  -29.9817  -13.5237   20.3977 N   0  0  0  0  0  0
  -26.2913  -12.9379   20.3281 N   0  0  0  0  0  0
  -25.9311  -11.6525   20.5782 N   0  0  0  0  0  0
  -22.0455  -12.8211   22.0423 N   0  0  0  0  0  0
  -25.4139  -15.1884   20.4010 N   0  0  0  0  0  0
  -31.7976  -14.8302   20.1412 O   0  0  0  0  0  0
  -21.6642   -6.8876   21.4244 O   0  0  0  0  0  0
  -22.3508  -14.5530   20.6721 O   0  0  0  0  0  0
  -24.6310  -31.8535   23.1940 C   0  0  0  0  0  0
  -25.9140  -32.4733   23.8290 C   0  0  1  0  0  0
  -27.2211  -27.2565   20.1238 C   0  0  0  0  0  0
  -25.5925  -33.8545   24.2221 N   0  0  0  0  0  0
  -23.4279  -30.4734   21.5376 C   0  0  2  0  0  0
  -24.8726  -28.9171   20.1056 C   0  0  0  0  0  0
  -22.7499  -29.4590   22.4913 C   0  0  0  0  0  0
  -18.0290  -28.1392   22.8500 C   0  0  0  0  0  0
  -24.1495  -36.7266   23.2642 C   0  0  0  0  0  0
  -25.9737  -30.7631   21.3735 C   0  0  0  0  0  0
  -26.0417  -29.3858   20.7142 C   0  0  0  0  0  0
  -27.2148  -28.5666   20.7137 C   0  0  0  0  0  0
  -26.0241  -26.8462   19.4961 C   0  0  0  0  0  0
  -24.8680  -27.6549   19.4883 C   0  0  0  0  0  0
  -23.6434  -29.8038   20.1532 C   0  0  0  0  0  0
  -25.4128  -36.3058   24.0322 C   0  0  1  0  0  0
  -20.5892  -28.3693   23.1273 C   0  0  2  0  0  0
  -20.6792  -26.9411   22.5410 C   0  0  0  0  0  0
  -19.5766  -26.6387   21.5215 C   0  0  0  0  0  0
  -18.1942  -26.7939   22.1621 C   0  0  0  0  0  0
  -19.1547  -28.8864   23.2879 C   0  0  0  0  0  0
  -18.9468  -30.1474   23.8878 C   0  0  0  0  0  0
  -17.6471  -30.6589   24.0577 C   0  0  0  0  0  0
  -25.9061  -34.9431   23.5079 C   0  0  0  0  0  0
  -16.5357  -29.9095   23.6336 C   0  0  0  0  0  0
  -16.7275  -28.6516   23.0353 C   0  0  0  0  0  0
  -26.4503  -31.6578   25.0698 C   0  0  0  0  0  0
  -25.3711  -31.3735   26.1404 C   0  0  0  0  0  0
  -27.0368  -30.3008   24.6199 C   0  0  0  0  0  0
  -27.6049  -32.4334   25.7466 C   0  0  0  0  0  0
  -27.5582  -37.1797   24.8476 C   0  0  0  0  0  0
  -21.4213  -29.3044   22.3676 N   0  0  0  0  0  0
  -26.4298  -37.3767   23.9407 N   0  0  0  0  0  0
  -24.6966  -31.0506   22.0900 N   0  0  0  0  0  0
  -23.4203  -28.8154   23.3024 O   0  0  0  0  0  0
  -28.3409  -26.3991   20.2272 O   0  0  0  0  0  0
  -26.5662  -34.8912   22.4660 O   0  0  0  0  0  0
  -23.5460  -32.1346   23.7242 O   0  0  0  0  0  0
  -31.7982  -19.1432   20.9037 C   0  0  0  0  0  0
  -30.8387  -20.1592   20.7280 C   0  0  0  0  0  0
  -31.4530  -17.7773   20.8491 C   0  0  0  0  0  0
  -29.4898  -19.8531   20.4626 C   0  0  0  0  0  0
  -29.1519  -18.4269   20.3972 C   0  0  0  0  0  0
  -30.1276  -17.3513   20.5989 C   0  0  0  0  0  0
  -28.3005  -23.7052   20.3776 C   0  0  0  0  0  0
  -30.6080  -23.7518   18.6963 C   0  0  0  0  0  0
  -29.9196  -25.1179   18.9125 C   0  0  0  0  0  0
  -29.6169  -22.5723   18.6624 C   0  0  0  0  0  0
  -28.5038  -25.0688   19.5402 C   0  0  2  0  0  0
  -27.7115  -18.0551   20.0862 C   0  0  0  0  0  0
  -28.4502  -21.0695   20.3316 C   0  0  0  0  0  0
  -28.8258  -22.5005   19.8980 N   0  0  0  0  0  0
  -29.8117  -15.8887   20.6092 N   0  0  0  0  0  0
  -27.6229  -23.7468   21.4087 O   0  0  0  0  0  0
  -31.4691  -12.5798   19.1654 H   0  0  0  0  0  0
  -30.3747  -11.4829   19.9598 H   0  0  0  0  0  0
  -29.7893  -11.7262   17.5226 H   0  0  0  0  0  0
  -29.6241  -13.4543   17.7162 H   0  0  0  0  0  0
  -27.9016  -11.2719   18.9318 H   0  0  0  0  0  0
  -27.3704  -12.4934   17.8070 H   0  0  0  0  0  0
  -27.6291  -14.2463   19.4605 H   0  0  0  0  0  0
  -28.7206  -12.1791   21.4323 H   0  0  0  0  0  0
  -28.4158  -13.8594   21.7895 H   0  0  0  0  0  0
  -25.2758   -9.5667   22.4783 H   0  0  0  0  0  0
  -23.9991   -7.4620   22.7483 H   0  0  0  0  0  0
  -21.0842   -8.8775   19.8945 H   0  0  0  0  0  0
  -22.3715  -10.9673   19.6170 H   0  0  0  0  0  0
  -21.2010   -7.6152   23.9714 H   0  0  0  0  0  0
  -21.1473   -6.0525   25.9078 H   0  0  0  0  0  0
  -22.0604   -2.7605   23.2843 H   0  0  0  0  0  0
  -22.4056  -11.9851   22.4779 H   0  0  0  0  0  0
  -21.1088  -13.1252   22.2657 H   0  0  0  0  0  0
  -24.6355  -15.8324   20.4853 H   0  0  0  0  0  0
  -26.2348  -15.6103   19.9908 H   0  0  0  0  0  0
  -26.7210  -32.5366   23.1027 H   0  0  0  0  0  0
  -25.0090  -33.9697   25.0373 H   0  0  0  0  0  0
  -22.7264  -31.2972   21.3900 H   0  0  0  0  0  0
  -23.3765  -35.9583   23.3298 H   0  0  0  0  0  0
  -24.3588  -36.8897   22.2056 H   0  0  0  0  0  0
  -23.7235  -37.6462   23.6676 H   0  0  0  0  0  0
  -26.1217  -31.5254   20.6066 H   0  0  0  0  0  0
  -26.8485  -30.8062   22.0115 H   0  0  0  0  0  0
  -28.1091  -28.9200   21.2062 H   0  0  0  0  0  0
  -25.9371  -25.8705   19.0455 H   0  0  0  0  0  0
  -23.9653  -27.2885   19.0182 H   0  0  0  0  0  0
  -23.7691  -30.5777   19.3938 H   0  0  0  0  0  0
  -22.7600  -29.2380   19.8501 H   0  0  0  0  0  0
  -25.1315  -36.1890   25.0817 H   0  0  0  0  0  0
  -20.9989  -28.3247   24.1385 H   0  0  0  0  0  0
  -20.5715  -26.2293   23.3611 H   0  0  0  0  0  0
  -21.6658  -26.7462   22.1183 H   0  0  0  0  0  0
  -19.6929  -25.6296   21.1245 H   0  0  0  0  0  0
  -19.6690  -27.3216   20.6755 H   0  0  0  0  0  0
  -17.4224  -26.6697   21.4016 H   0  0  0  0  0  0
  -18.0321  -26.0082   22.9006 H   0  0  0  0  0  0
  -19.7948  -30.7321   24.2207 H   0  0  0  0  0  0
  -17.5016  -31.6256   24.5209 H   0  0  0  0  0  0
  -15.5358  -30.2999   23.7679 H   0  0  0  0  0  0
  -15.8671  -28.0843   22.7052 H   0  0  0  0  0  0
  -24.5885  -30.7095   25.7729 H   0  0  0  0  0  0
  -24.8889  -32.2907   26.4806 H   0  0  0  0  0  0
  -25.7990  -30.8921   27.0199 H   0  0  0  0  0  0
  -26.2959  -29.6747   24.1231 H   0  0  0  0  0  0
  -27.4092  -29.7289   25.4703 H   0  0  0  0  0  0
  -27.8803  -30.4322   23.9416 H   0  0  0  0  0  0
  -27.2664  -33.3673   26.1978 H   0  0  0  0  0  0
  -28.3877  -32.6852   25.0291 H   0  0  0  0  0  0
  -28.0704  -31.8506   26.5429 H   0  0  0  0  0  0
  -28.2612  -38.0093   24.7532 H   0  0  0  0  0  0
  -28.1073  -36.2626   24.6286 H   0  0  0  0  0  0
  -27.2306  -37.1419   25.8886 H   0  0  0  0  0  0
  -20.9406  -29.8725   21.6843 H   0  0  0  0  0  0
  -26.0162  -38.2835   24.1403 H   0  0  0  0  0  0
  -32.8237  -19.4185   21.1025 H   0  0  0  0  0  0
  -31.1529  -21.1904   20.8117 H   0  0  0  0  0  0
  -32.2402  -17.0602   21.0269 H   0  0  0  0  0  0
  -31.3234  -23.5840   19.5039 H   0  0  0  0  0  0
  -31.1996  -23.7740   17.7798 H   0  0  0  0  0  0
  -29.8435  -25.6354   17.9560 H   0  0  0  0  0  0
  -30.5759  -25.7408   19.5217 H   0  0  0  0  0  0
  -30.1626  -21.6436   18.4981 H   0  0  0  0  0  0
  -28.9424  -22.6766   17.8107 H   0  0  0  0  0  0
  -27.8103  -24.9948   18.7042 H   0  0  0  0  0  0
  -27.0378  -18.4714   20.8347 H   0  0  0  0  0  0
  -27.5527  -16.9801   20.0576 H   0  0  0  0  0  0
  -27.4258  -18.4448   19.1082 H   0  0  0  0  0  0
  -27.9309  -21.1312   21.2889 H   0  0  0  0  0  0
  -27.6820  -20.7577   19.6243 H   0  0  0  0  0  0
  -28.8356  -15.6712   20.7319 H   0  0  0  0  0  0
  1 25  1  0  0  0
  1 30  2  0  0  0
  1 85  1  0  0  0
  2  3  1  0  0  0
  2 25  1  0  0  0
  2 87  1  0  0  0
  2 88  1  0  0  0
  3  4  1  0  0  0
  3 89  1  0  0  0
  3 90  1  0  0  0
  4  5  1  0  0  0
  4 91  1  0  0  0
  4 92  1  0  0  0
  5  6  1  0  0  0
  5 26  1  0  0  0
  5 93  1  0  0  0
  6 25  1  0  0  0
  6 94  1  0  0  0
  6 95  1  0  0  0
  7  8  2  0  0  0
  7 26  1  0  0  0
  7 29  1  0  0  0
  8  9  1  0  0  0
  8 22  1  0  0  0
  9 10  1  0  0  0
  9 27  2  0  0  0
 10 11  2  0  0  0
 10 15  1  0  0  0
 11 12  1  0  0  0
 11 96  1  0  0  0
 12 13  2  0  0  0
 12 97  1  0  0  0
 13 14  1  0  0  0
 13 31  1  0  0  0
 14 15  2  0  0  0
 14 98  1  0  0  0
 15 99  1  0  0  0
 16 17  2  0  0  0
 16 21  1  0  0  0
 16 31  1  0  0  0
 17 18  1  0  0  0
 17100  1  0  0  0
 18 19  2  0  0  0
 18101  1  0  0  0
 19 20  1  0  0  0
 19 24  1  0  0  0
 20 21  2  0  0  0
 20102  1  0  0  0
 21 23  1  0  0  0
 22 28  1  0  0  0
 22 32  2  0  0  0
 26 27  1  0  0  0
 28103  1  0  0  0
 28104  1  0  0  0
 29105  1  0  0  0
 29106  1  0  0  0
 33 34  1  0  0  0
 33 66  1  0  0  0
 33 70  2  0  0  0
 34 36  1  0  0  0
 34 59  1  0  0  0
 34107  1  0  0  0
 35 44  2  0  0  0
 35 45  1  0  0  0
 35 68  1  0  0  0
 36 56  1  0  0  0
 36108  1  0  0  0
 37 39  1  0  0  0
 37 47  1  0  0  0
 37 66  1  0  0  0
 37109  1  0  0  0
 38 43  2  0  0  0
 38 46  1  0  0  0
 38 47  1  0  0  0
 39 64  1  0  0  0
 39 67  2  0  0  0
 40 52  1  0  0  0
 40 53  2  0  0  0
 40 58  1  0  0  0
 41110  1  0  0  0
 41111  1  0  0  0
 41112  1  0  0  0
 41 48  1  0  0  0
 42 43  1  0  0  0
 42 66  1  0  0  0
 42113  1  0  0  0
 42114  1  0  0  0
 43 44  1  0  0  0
 44115  1  0  0  0
 45 46  2  0  0  0
 45116  1  0  0  0
 46117  1  0  0  0
 47118  1  0  0  0
 47119  1  0  0  0
 48 56  1  0  0  0
 48 65  1  0  0  0
 48120  1  0  0  0
 49 50  1  0  0  0
 49 53  1  0  0  0
 49 64  1  0  0  0
 49121  1  0  0  0
 50 51  1  0  0  0
 50122  1  0  0  0
 50123  1  0  0  0
 51 52  1  0  0  0
 51124  1  0  0  0
 51125  1  0  0  0
 52126  1  0  0  0
 52127  1  0  0  0
 53 54  1  0  0  0
 54 55  2  0  0  0
 54128  1  0  0  0
 55 57  1  0  0  0
 55129  1  0  0  0
 56 69  2  0  0  0
 57 58  2  0  0  0
 57130  1  0  0  0
 58131  1  0  0  0
 59 60  1  0  0  0
 59 61  1  0  0  0
 59 62  1  0  0  0
 60132  1  0  0  0
 60133  1  0  0  0
 60134  1  0  0  0
 61135  1  0  0  0
 61136  1  0  0  0
 61137  1  0  0  0
 62138  1  0  0  0
 62139  1  0  0  0
 62140  1  0  0  0
 63 65  1  0  0  0
 63141  1  0  0  0
 63142  1  0  0  0
 63143  1  0  0  0
 64144  1  0  0  0
 65145  1  0  0  0
 68 81  1  0  0  0
 71 72  2  0  0  0
 71 73  1  0  0  0
 71146  1  0  0  0
 72 74  1  0  0  0
 72147  1  0  0  0
 73 76  2  0  0  0
 73148  1  0  0  0
 74 75  2  0  0  0
 74 83  1  0  0  0
 75 76  1  0  0  0
 75 82  1  0  0  0
 76 85  1  0  0  0
 77 81  1  0  0  0
 77 84  1  0  0  0
 77 86  2  0  0  0
 78 79  1  0  0  0
 78 80  1  0  0  0
 78149  1  0  0  0
 78150  1  0  0  0
 79 81  1  0  0  0
 79151  1  0  0  0
 79152  1  0  0  0
 80 84  1  0  0  0
 80153  1  0  0  0
 80154  1  0  0  0
 81155  1  0  0  0
 82156  1  0  0  0
 82157  1  0  0  0
 82158  1  0  0  0
 83 84  1  0  0  0
 83159  1  0  0  0
 83160  1  0  0  0
 85161  1  0  0  0
M  ISO  4   1 100  68 101  81 101  85 100
M  END
> <chiral flag>
0

> <version>
0

> <s_m_source_file>
/data/baiqing/PycharmProjects/Reinvent-master-3.2/result/LINK_invent/BTK/process_docking_weight1_custom_product_contain_oxygen_bond_distance_aromatic_linkinvent_7_9_3/rearranged_h_0026.sdf

> <i_m_source_file_index>
26

> <r_mmod_Potential_Energy-OPLS-2005>
220.310195922852

> <r_mmod_Stretch_Energy-OPLS-2005>
139.211883544922

> <r_mmod_Bend_Energy-OPLS-2005>
176.576812744141

> <r_mmod_Torsional_Energy-OPLS-2005>
242.835494995117

> <r_mmod_Improper_Torsional_Energy-OPLS-2005>
6.75346612930298

> <r_mmod_Van_der_Waal_Energy-OPLS-2005>
147.470001220703

> <r_mmod_Electrostatic_Energy-OPLS-2005>
-345.661926269531

> <r_mmod_Solvation_Energy-OPLS-2005>
-234.506744384766

> <b_mmod_Minimization_Converged-OPLS-2005>
0

> <r_mmod_RMS_Derivative-OPLS-2005>
2.37469029426575

$$$$
26
                    3D
 Structure written by MMmdl.
160169  0  0  1  0            999 V2000
  -30.6603  -14.5029   20.5554 C   0  0  0  0  0  0
  -30.4373  -12.3223   19.4248 C   0  0  0  0  0  0
  -29.5025  -12.5124   18.2103 C   0  0  0  0  0  0
  -28.0214  -12.3702   18.6203 C   0  0  0  0  0  0
  -27.6671  -13.2022   19.8810 C   0  0  2  0  0  0
  -28.7093  -12.9699   21.0002 C   0  0  0  0  0  0
  -25.2609  -13.8160   20.5668 C   0  0  0  0  0  0
  -24.1866  -13.0442   20.9187 C   0  0  0  0  0  0
  -24.6432  -11.6916   20.8772 C   0  0  0  0  0  0
  -23.9108  -10.4307   21.0423 C   0  0  0  0  0  0
  -24.3664   -9.4216   21.9195 C   0  0  0  0  0  0
  -23.6318   -8.2266   22.0778 C   0  0  0  0  0  0
  -22.4291   -8.0314   21.3570 C   0  0  0  0  0  0
  -21.9930   -9.0303   20.4677 C   0  0  0  0  0  0
  -22.7279  -10.2165   20.3076 C   0  0  0  0  0  0
  -21.6862   -6.0762   22.5286 C   0  0  0  0  0  0
  -21.4017   -6.5661   23.8222 C   0  0  0  0  0  0
  -21.3647   -5.6787   24.9175 C   0  0  0  0  0  0
  -21.6036   -4.3059   24.7191 C   0  0  0  0  0  0
  -21.8823   -3.8167   23.4315 C   0  0  0  0  0  0
  -21.9191   -4.6995   22.3384 C   0  0  0  0  0  0
  -22.7878  -13.5248   21.1790 C   0  0  0  0  0  0
  -22.1661   -4.2200   21.0957 F   0  0  0  0  0  0
  -21.5616   -3.4527   25.7697 F   0  0  0  0  0  0
  -30.0436  -13.2932   20.4601 N   0  0  0  0  0  0
  -26.3065  -12.9326   20.3394 N   0  0  0  0  0  0
  -25.9361  -11.6501   20.5826 N   0  0  0  0  0  0
  -22.0497  -12.8309   22.0374 N   0  0  0  0  0  0
  -25.4253  -15.1876   20.4001 N   0  0  0  0  0  0
  -31.7551  -14.7480   20.0426 O   0  0  0  0  0  0
  -21.6645   -6.8924   21.4255 O   0  0  0  0  0  0
  -22.3569  -14.5516   20.6556 O   0  0  0  0  0  0
  -24.6197  -31.8648   23.2063 C   0  0  0  0  0  0
  -25.9093  -32.4796   23.8360 C   0  0  1  0  0  0
  -27.2151  -27.3968   20.1053 C   0  0  0  0  0  0
  -25.5953  -33.8602   24.2282 N   0  0  0  0  0  0
  -23.4069  -30.4917   21.5476 C   0  0  2  0  0  0
  -24.8494  -28.9578   20.1085 C   0  0  0  0  0  0
  -22.7418  -29.4675   22.4966 C   0  0  0  0  0  0
  -18.0260  -28.1377   22.8487 C   0  0  0  0  0  0
  -24.1490  -36.7297   23.2639 C   0  0  0  0  0  0
  -25.9416  -30.8186   21.3663 C   0  0  0  0  0  0
  -26.0149  -29.4552   20.7055 C   0  0  0  0  0  0
  -27.2066  -28.6853   20.6945 C   0  0  0  0  0  0
  -26.0292  -26.9195   19.5092 C   0  0  0  0  0  0
  -24.8521  -27.6904   19.5064 C   0  0  0  0  0  0
  -23.6141  -29.8304   20.1596 C   0  0  0  0  0  0
  -25.4122  -36.3088   24.0314 C   0  0  1  0  0  0
  -20.5863  -28.3673   23.1307 C   0  0  2  0  0  0
  -20.6760  -26.9405   22.5421 C   0  0  0  0  0  0
  -19.5747  -26.6382   21.5211 C   0  0  0  0  0  0
  -18.1917  -26.7925   22.1608 C   0  0  0  0  0  0
  -19.1518  -28.8838   23.2890 C   0  0  0  0  0  0
  -18.9454  -30.1442   23.8901 C   0  0  0  0  0  0
  -17.6465  -30.6590   24.0566 C   0  0  0  0  0  0
  -25.9065  -34.9462   23.5084 C   0  0  0  0  0  0
  -16.5350  -29.9092   23.6343 C   0  0  0  0  0  0
  -16.7248  -28.6508   23.0354 C   0  0  0  0  0  0
  -26.4488  -31.6587   25.0712 C   0  0  0  0  0  0
  -25.3781  -31.3723   26.1490 C   0  0  0  0  0  0
  -27.0309  -30.3012   24.6134 C   0  0  0  0  0  0
  -27.6023  -32.4329   25.7499 C   0  0  0  0  0  0
  -27.5568  -37.1818   24.8468 C   0  0  0  0  0  0
  -21.4142  -29.3038   22.3704 N   0  0  0  0  0  0
  -26.4294  -37.3787   23.9390 N   0  0  0  0  0  0
  -24.6732  -31.0749   22.0965 N   0  0  0  0  0  0
  -23.4177  -28.8244   23.3031 O   0  0  0  0  0  0
  -28.3457  -26.5989   20.1092 O   0  0  0  0  0  0
  -26.5613  -34.8925   22.4634 O   0  0  0  0  0  0
  -23.5376  -32.1414   23.7453 O   0  0  0  0  0  0
  -28.0658  -23.8551   18.8400 C   0  0  0  0  0  0
  -28.3153  -22.6440   18.1673 C   0  0  0  0  0  0
  -29.2173  -22.9830   20.8016 C   0  0  0  0  0  0
  -28.5343  -24.0571   20.1548 C   0  0  0  0  0  0
  -29.4645  -21.7448   20.1354 C   0  0  0  0  0  0
  -29.0361  -21.6124   18.7947 C   0  0  0  0  0  0
  -28.2440  -17.3394   20.6723 C   0  0  0  0  0  0
  -28.3513  -18.8795   20.6783 C   0  0  0  0  0  0
  -30.5341  -18.0231   20.9344 C   0  0  0  0  0  0
  -29.6778  -16.8226   20.4595 C   0  0  1  0  0  0
  -30.2126  -20.5767   20.8306 C   0  0  0  0  0  0
  -28.2327  -25.3804   20.8906 C   0  0  0  0  0  0
  -29.8863  -15.4845   21.0617 N   0  0  0  0  0  0
  -29.7713  -19.1995   20.4275 N   0  3  2  0  0  0
  -29.3043  -20.4737   18.1084 F   0  0  0  0  0  0
  -31.4796  -12.4417   19.1230 H   0  0  0  0  0  0
  -30.3530  -11.3079   19.8162 H   0  0  0  0  0  0
  -29.7435  -11.7832   17.4365 H   0  0  0  0  0  0
  -29.6694  -13.4948   17.7642 H   0  0  0  0  0  0
  -27.8358  -11.3129   18.8106 H   0  0  0  0  0  0
  -27.3682  -12.6445   17.7908 H   0  0  0  0  0  0
  -27.7124  -14.2517   19.5935 H   0  0  0  0  0  0
  -28.6957  -11.9275   21.3191 H   0  0  0  0  0  0
  -28.4661  -13.5477   21.8919 H   0  0  0  0  0  0
  -25.2844   -9.5665   22.4731 H   0  0  0  0  0  0
  -24.0033   -7.4651   22.7495 H   0  0  0  0  0  0
  -21.0857   -8.8851   19.8982 H   0  0  0  0  0  0
  -22.3790  -10.9711   19.6166 H   0  0  0  0  0  0
  -21.2033   -7.6167   23.9743 H   0  0  0  0  0  0
  -21.1451   -6.0512   25.9076 H   0  0  0  0  0  0
  -22.0614   -2.7635   23.2786 H   0  0  0  0  0  0
  -22.4102  -12.0013   22.4837 H   0  0  0  0  0  0
  -21.1118  -13.1394   22.2535 H   0  0  0  0  0  0
  -24.6446  -15.8284   20.4851 H   0  0  0  0  0  0
  -26.2547  -15.6195   20.0167 H   0  0  0  0  0  0
  -26.7183  -32.5468   23.1125 H   0  0  0  0  0  0
  -25.0120  -33.9751   25.0446 H   0  0  0  0  0  0
  -22.6995  -31.3116   21.4111 H   0  0  0  0  0  0
  -23.3730  -35.9655   23.3336 H   0  0  0  0  0  0
  -24.3591  -36.8875   22.2048 H   0  0  0  0  0  0
  -23.7270  -37.6521   23.6646 H   0  0  0  0  0  0
  -26.0836  -31.5863   20.6039 H   0  0  0  0  0  0
  -26.8190  -30.8510   21.9991 H   0  0  0  0  0  0
  -28.1066  -29.0617   21.1616 H   0  0  0  0  0  0
  -25.9942  -25.9411   19.0582 H   0  0  0  0  0  0
  -23.9530  -27.3006   19.0502 H   0  0  0  0  0  0
  -23.7326  -30.6080   19.4037 H   0  0  0  0  0  0
  -22.7329  -29.2594   19.8594 H   0  0  0  0  0  0
  -25.1316  -36.1944   25.0815 H   0  0  0  0  0  0
  -20.9951  -28.3226   24.1427 H   0  0  0  0  0  0
  -20.5669  -26.2265   23.3592 H   0  0  0  0  0  0
  -21.6634  -26.7452   22.1224 H   0  0  0  0  0  0
  -19.6922  -25.6297   21.1221 H   0  0  0  0  0  0
  -19.6701  -27.3199   20.6750 H   0  0  0  0  0  0
  -17.4196  -26.6648   21.4000 H   0  0  0  0  0  0
  -18.0326  -26.0071   22.9012 H   0  0  0  0  0  0
  -19.7947  -30.7238   24.2271 H   0  0  0  0  0  0
  -17.5040  -31.6284   24.5145 H   0  0  0  0  0  0
  -15.5362  -30.3002   23.7693 H   0  0  0  0  0  0
  -15.8630  -28.0844   22.7071 H   0  0  0  0  0  0
  -24.5960  -30.7032   25.7883 H   0  0  0  0  0  0
  -24.8987  -32.2892   26.4938 H   0  0  0  0  0  0
  -25.8200  -30.8943   27.0247 H   0  0  0  0  0  0
  -26.2847  -29.6786   24.1182 H   0  0  0  0  0  0
  -27.4029  -29.7253   25.4617 H   0  0  0  0  0  0
  -27.8723  -30.4268   23.9309 H   0  0  0  0  0  0
  -27.2585  -33.3608   26.2080 H   0  0  0  0  0  0
  -28.3851  -32.6924   25.0364 H   0  0  0  0  0  0
  -28.0677  -31.8476   26.5438 H   0  0  0  0  0  0
  -28.2626  -38.0075   24.7477 H   0  0  0  0  0  0
  -28.1020  -36.2613   24.6350 H   0  0  0  0  0  0
  -27.2291  -37.1530   25.8874 H   0  0  0  0  0  0
  -20.9283  -29.8751   21.6930 H   0  0  0  0  0  0
  -26.0165  -38.2858   24.1384 H   0  0  0  0  0  0
  -27.5185  -24.6291   18.3228 H   0  0  0  0  0  0
  -27.9511  -22.5131   17.1583 H   0  0  0  0  0  0
  -29.5589  -23.1150   21.8191 H   0  0  0  0  0  0
  -27.5842  -16.9899   19.8807 H   0  0  0  0  0  0
  -27.8238  -17.0011   21.6221 H   0  0  0  0  0  0
  -28.0429  -19.2805   21.6458 H   0  0  0  0  0  0
  -27.7131  -19.3353   19.9204 H   0  0  0  0  0  0
  -31.5501  -17.9891   20.5394 H   0  0  0  0  0  0
  -30.5908  -18.0533   22.0226 H   0  0  0  0  0  0
  -29.8300  -16.7197   19.3839 H   0  0  0  0  0  0
  -30.1299  -20.6846   21.9122 H   0  0  0  0  0  0
  -31.2692  -20.6859   20.5882 H   0  0  0  0  0  0
  -28.9161  -25.4731   21.7358 H   0  0  0  0  0  0
  -27.2431  -25.2827   21.3424 H   0  0  0  0  0  0
  -29.0908  -15.1244   21.5666 H   0  0  0  0  0  0
  -29.8744  -19.1835   19.4201 H   0  0  0  0  0  0
  1 25  1  0  0  0
  1 30  2  0  0  0
  1 83  1  0  0  0
  2  3  1  0  0  0
  2 25  1  0  0  0
  2 86  1  0  0  0
  2 87  1  0  0  0
  3  4  1  0  0  0
  3 88  1  0  0  0
  3 89  1  0  0  0
  4  5  1  0  0  0
  4 90  1  0  0  0
  4 91  1  0  0  0
  5  6  1  0  0  0
  5 26  1  0  0  0
  5 92  1  0  0  0
  6 25  1  0  0  0
  6 93  1  0  0  0
  6 94  1  0  0  0
  7  8  2  0  0  0
  7 26  1  0  0  0
  7 29  1  0  0  0
  8  9  1  0  0  0
  8 22  1  0  0  0
  9 10  1  0  0  0
  9 27  2  0  0  0
 10 11  2  0  0  0
 10 15  1  0  0  0
 11 12  1  0  0  0
 11 95  1  0  0  0
 12 13  2  0  0  0
 12 96  1  0  0  0
 13 14  1  0  0  0
 13 31  1  0  0  0
 14 15  2  0  0  0
 14 97  1  0  0  0
 15 98  1  0  0  0
 16 17  2  0  0  0
 16 21  1  0  0  0
 16 31  1  0  0  0
 17 18  1  0  0  0
 17 99  1  0  0  0
 18 19  2  0  0  0
 18100  1  0  0  0
 19 20  1  0  0  0
 19 24  1  0  0  0
 20 21  2  0  0  0
 20101  1  0  0  0
 21 23  1  0  0  0
 22 28  1  0  0  0
 22 32  2  0  0  0
 26 27  1  0  0  0
 28102  1  0  0  0
 28103  1  0  0  0
 29104  1  0  0  0
 29105  1  0  0  0
 33 34  1  0  0  0
 33 66  1  0  0  0
 33 70  2  0  0  0
 34 36  1  0  0  0
 34 59  1  0  0  0
 34106  1  0  0  0
 35 44  2  0  0  0
 35 45  1  0  0  0
 35 68  1  0  0  0
 36 56  1  0  0  0
 36107  1  0  0  0
 37 39  1  0  0  0
 37 47  1  0  0  0
 37 66  1  0  0  0
 37108  1  0  0  0
 38 43  2  0  0  0
 38 46  1  0  0  0
 38 47  1  0  0  0
 39 64  1  0  0  0
 39 67  2  0  0  0
 40 52  1  0  0  0
 40 53  2  0  0  0
 40 58  1  0  0  0
 41109  1  0  0  0
 41110  1  0  0  0
 41111  1  0  0  0
 41 48  1  0  0  0
 42 43  1  0  0  0
 42 66  1  0  0  0
 42112  1  0  0  0
 42113  1  0  0  0
 43 44  1  0  0  0
 44114  1  0  0  0
 45 46  2  0  0  0
 45115  1  0  0  0
 46116  1  0  0  0
 47117  1  0  0  0
 47118  1  0  0  0
 48 56  1  0  0  0
 48 65  1  0  0  0
 48119  1  0  0  0
 49 50  1  0  0  0
 49 53  1  0  0  0
 49 64  1  0  0  0
 49120  1  0  0  0
 50 51  1  0  0  0
 50121  1  0  0  0
 50122  1  0  0  0
 51 52  1  0  0  0
 51123  1  0  0  0
 51124  1  0  0  0
 52125  1  0  0  0
 52126  1  0  0  0
 53 54  1  0  0  0
 54 55  2  0  0  0
 54127  1  0  0  0
 55 57  1  0  0  0
 55128  1  0  0  0
 56 69  2  0  0  0
 57 58  2  0  0  0
 57129  1  0  0  0
 58130  1  0  0  0
 59 60  1  0  0  0
 59 61  1  0  0  0
 59 62  1  0  0  0
 60131  1  0  0  0
 60132  1  0  0  0
 60133  1  0  0  0
 61134  1  0  0  0
 61135  1  0  0  0
 61136  1  0  0  0
 62137  1  0  0  0
 62138  1  0  0  0
 62139  1  0  0  0
 63 65  1  0  0  0
 63140  1  0  0  0
 63141  1  0  0  0
 63142  1  0  0  0
 64143  1  0  0  0
 65144  1  0  0  0
 68 82  1  0  0  0
 71 72  2  0  0  0
 71 74  1  0  0  0
 71145  1  0  0  0
 72 76  1  0  0  0
 72146  1  0  0  0
 73 74  2  0  0  0
 73 75  1  0  0  0
 73147  1  0  0  0
 74 82  1  0  0  0
 75 76  2  0  0  0
 75 81  1  0  0  0
 76 85  1  0  0  0
 77 78  1  0  0  0
 77 80  1  0  0  0
 77148  1  0  0  0
 77149  1  0  0  0
 78 84  1  0  0  0
 78150  1  0  0  0
 78151  1  0  0  0
 79 80  1  0  0  0
 79 84  1  0  0  0
 79152  1  0  0  0
 79153  1  0  0  0
 80 83  1  0  0  0
 80154  1  0  0  0
 81155  1  0  0  0
 81156  1  0  0  0
 81 84  1  0  0  0
 82157  1  0  0  0
 82158  1  0  0  0
 83159  1  0  0  0
 84160  1  0  0  0
M  CHG  1  84   1
M  ISO  4   1 100  68 101  82 101  83 100
M  END
> <chiral flag>
0

> <version>
0

> <s_m_source_file>
/data/baiqing/PycharmProjects/Reinvent-master-3.2/result/LINK_invent/BTK/process_docking_weight1_custom_product_contain_oxygen_bond_distance_aromatic_linkinvent_7_9_3/rearranged_h_0026.sdf

> <i_m_source_file_index>
27

> <r_mmod_Potential_Energy-OPLS-2005>
-114.914405822754

> <r_mmod_Stretch_Energy-OPLS-2005>
45.8767127990723

> <r_mmod_Bend_Energy-OPLS-2005>
131.333770751953

> <r_mmod_Torsional_Energy-OPLS-2005>
302.414611816406

> <r_mmod_Improper_Torsional_Energy-OPLS-2005>
7.96336507797241

> <r_mmod_Van_der_Waal_Energy-OPLS-2005>
140.580108642578

> <r_mmod_Electrostatic_Energy-OPLS-2005>
-321.241851806641

> <r_mmod_Solvation_Energy-OPLS-2005>
-440.920379638672

> <b_mmod_Minimization_Converged-OPLS-2005>
0

> <r_mmod_RMS_Derivative-OPLS-2005>
3.59400868415833

$$$$
27
                    3D
 Structure written by MMmdl.
155164  0  0  1  0            999 V2000
  -30.6340  -14.7774   20.4012 C   0  0  0  0  0  0
  -30.4467  -12.4620   19.4718 C   0  0  0  0  0  0
  -29.5191  -12.4900   18.2391 C   0  0  0  0  0  0
  -28.0527  -12.3007   18.6713 C   0  0  0  0  0  0
  -27.6487  -13.2292   19.8472 C   0  0  2  0  0  0
  -28.7059  -13.2138   20.9757 C   0  0  0  0  0  0
  -25.2545  -13.8135   20.5715 C   0  0  0  0  0  0
  -24.1853  -13.0401   20.9253 C   0  0  0  0  0  0
  -24.6454  -11.6893   20.8801 C   0  0  0  0  0  0
  -23.9110  -10.4289   21.0443 C   0  0  0  0  0  0
  -24.3652   -9.4189   21.9213 C   0  0  0  0  0  0
  -23.6311   -8.2232   22.0750 C   0  0  0  0  0  0
  -22.4291   -8.0302   21.3542 C   0  0  0  0  0  0
  -21.9937   -9.0294   20.4667 C   0  0  0  0  0  0
  -22.7276  -10.2166   20.3090 C   0  0  0  0  0  0
  -21.6866   -6.0753   22.5297 C   0  0  0  0  0  0
  -21.4013   -6.5649   23.8231 C   0  0  0  0  0  0
  -21.3650   -5.6795   24.9191 C   0  0  0  0  0  0
  -21.6039   -4.3054   24.7240 C   0  0  0  0  0  0
  -21.8815   -3.8151   23.4353 C   0  0  0  0  0  0
  -21.9198   -4.6977   22.3411 C   0  0  0  0  0  0
  -22.7880  -13.5210   21.1868 C   0  0  0  0  0  0
  -22.1678   -4.2158   21.1003 F   0  0  0  0  0  0
  -21.5602   -3.4543   25.7746 F   0  0  0  0  0  0
  -30.0062  -13.5487   20.3741 N   0  0  0  0  0  0
  -26.3019  -12.9380   20.3344 N   0  0  0  0  0  0
  -25.9391  -11.6516   20.5823 N   0  0  0  0  0  0
  -22.0489  -12.8256   22.0450 N   0  0  0  0  0  0
  -25.4091  -15.1835   20.4015 N   0  0  0  0  0  0
  -31.8371  -14.8628   20.1497 O   0  0  0  0  0  0
  -21.6635   -6.8909   21.4264 O   0  0  0  0  0  0
  -22.3585  -14.5508   20.6677 O   0  0  0  0  0  0
  -24.6300  -31.8566   23.2030 C   0  0  0  0  0  0
  -25.9117  -32.4762   23.8367 C   0  0  1  0  0  0
  -27.2255  -27.2698   20.1187 C   0  0  0  0  0  0
  -25.5944  -33.8572   24.2270 N   0  0  0  0  0  0
  -23.4260  -30.4837   21.5437 C   0  0  2  0  0  0
  -24.8767  -28.9409   20.1077 C   0  0  0  0  0  0
  -22.7484  -29.4608   22.4877 C   0  0  0  0  0  0
  -18.0296  -28.1373   22.8464 C   0  0  0  0  0  0
  -24.1488  -36.7278   23.2642 C   0  0  0  0  0  0
  -25.9758  -30.7716   21.3893 C   0  0  0  0  0  0
  -26.0487  -29.4006   20.7185 C   0  0  0  0  0  0
  -27.2251  -28.5813   20.7071 C   0  0  0  0  0  0
  -26.0227  -26.8835   19.4780 C   0  0  0  0  0  0
  -24.8691  -27.6901   19.4774 C   0  0  0  0  0  0
  -23.6443  -29.8277   20.1564 C   0  0  0  0  0  0
  -25.4115  -36.3059   24.0316 C   0  0  1  0  0  0
  -20.5903  -28.3684   23.1235 C   0  0  2  0  0  0
  -20.6776  -26.9393   22.5390 C   0  0  0  0  0  0
  -19.5761  -26.6349   21.5185 C   0  0  0  0  0  0
  -18.1938  -26.7913   22.1594 C   0  0  0  0  0  0
  -19.1550  -28.8837   23.2855 C   0  0  0  0  0  0
  -18.9472  -30.1442   23.8863 C   0  0  0  0  0  0
  -17.6472  -30.6564   24.0556 C   0  0  0  0  0  0
  -25.9056  -34.9436   23.5082 C   0  0  0  0  0  0
  -16.5360  -29.9057   23.6343 C   0  0  0  0  0  0
  -16.7290  -28.6484   23.0345 C   0  0  0  0  0  0
  -26.4504  -31.6609   25.0761 C   0  0  0  0  0  0
  -25.3755  -31.3800   26.1511 C   0  0  0  0  0  0
  -27.0367  -30.3008   24.6320 C   0  0  0  0  0  0
  -27.6032  -32.4399   25.7523 C   0  0  0  0  0  0
  -27.5583  -37.1784   24.8453 C   0  0  0  0  0  0
  -21.4201  -29.3034   22.3613 N   0  0  0  0  0  0
  -26.4288  -37.3754   23.9406 N   0  0  0  0  0  0
  -24.6960  -31.0544   22.1005 N   0  0  0  0  0  0
  -23.4181  -28.8129   23.2957 O   0  0  0  0  0  0
  -28.3443  -26.3977   20.1569 O   0  0  0  0  0  0
  -26.5604  -34.8901   22.4642 O   0  0  0  0  0  0
  -23.5447  -32.1397   23.7310 O   0  0  0  0  0  0
  -31.2700  -19.5221   20.6751 C   0  0  0  0  0  0
  -31.2188  -18.0869   20.6149 C   0  0  0  0  0  0
  -28.9439  -19.6762   20.1675 C   0  0  0  0  0  0
  -30.1319  -20.3721   20.4945 C   0  0  0  0  0  0
  -28.8937  -18.2401   20.0842 C   0  0  0  0  0  0
  -30.0090  -17.3805   20.3680 C   0  0  0  0  0  0
  -29.3937  -24.0928   19.4464 C   0  0  0  0  0  0
  -28.4314  -23.9574   21.2457 C   0  0  0  0  0  0
  -28.1740  -24.8993   20.0333 C   0  0  1  0  0  0
  -27.5853  -17.6171   19.6635 C   0  0  0  0  0  0
  -30.2753  -21.9451   20.7492 C   0  0  0  0  0  0
  -29.3049  -23.0710   20.3994 N   0  0  0  0  0  0
  -29.8164  -15.8995   20.4444 N   0  0  0  0  0  0
  -30.1783  -24.2438   18.5351 O   0  0  0  0  0  0
  -31.4863  -12.5773   19.1621 H   0  0  0  0  0  0
  -30.3858  -11.4985   19.9805 H   0  0  0  0  0  0
  -29.8011  -11.7020   17.5400 H   0  0  0  0  0  0
  -29.6364  -13.4320   17.7023 H   0  0  0  0  0  0
  -27.9457  -11.2616   18.9811 H   0  0  0  0  0  0
  -27.3844  -12.4337   17.8198 H   0  0  0  0  0  0
  -27.6240  -14.2383   19.4368 H   0  0  0  0  0  0
  -28.7520  -12.2394   21.4643 H   0  0  0  0  0  0
  -28.4481  -13.9350   21.7531 H   0  0  0  0  0  0
  -25.2791   -9.5646   22.4796 H   0  0  0  0  0  0
  -24.0008   -7.4607   22.7448 H   0  0  0  0  0  0
  -21.0847   -8.8861   19.8979 H   0  0  0  0  0  0
  -22.3746  -10.9744   19.6226 H   0  0  0  0  0  0
  -21.2003   -7.6155   23.9753 H   0  0  0  0  0  0
  -21.1473   -6.0518   25.9103 H   0  0  0  0  0  0
  -22.0587   -2.7612   23.2873 H   0  0  0  0  0  0
  -22.4071  -11.9934   22.4891 H   0  0  0  0  0  0
  -21.1129  -13.1359   22.2635 H   0  0  0  0  0  0
  -24.6213  -15.8182   20.4836 H   0  0  0  0  0  0
  -26.2222  -15.6140   19.9877 H   0  0  0  0  0  0
  -26.7174  -32.5402   23.1101 H   0  0  0  0  0  0
  -25.0167  -33.9747   25.0460 H   0  0  0  0  0  0
  -22.7223  -31.3087   21.4021 H   0  0  0  0  0  0
  -23.3750  -35.9617   23.3306 H   0  0  0  0  0  0
  -24.3584  -36.8903   22.2062 H   0  0  0  0  0  0
  -23.7242  -37.6470   23.6683 H   0  0  0  0  0  0
  -26.1378  -31.5480   20.6398 H   0  0  0  0  0  0
  -26.8398  -30.7972   22.0408 H   0  0  0  0  0  0
  -28.1281  -28.9378   21.1842 H   0  0  0  0  0  0
  -25.9193  -25.9508   18.9491 H   0  0  0  0  0  0
  -23.9733  -27.3373   18.9855 H   0  0  0  0  0  0
  -23.7681  -30.6116   19.4074 H   0  0  0  0  0  0
  -22.7608  -29.2655   19.8460 H   0  0  0  0  0  0
  -25.1305  -36.1914   25.0807 H   0  0  0  0  0  0
  -21.0023  -28.3278   24.1344 H   0  0  0  0  0  0
  -20.5636  -26.2308   23.3606 H   0  0  0  0  0  0
  -21.6658  -26.7386   22.1216 H   0  0  0  0  0  0
  -19.6932  -25.6243   21.1246 H   0  0  0  0  0  0
  -19.6720  -27.3132   20.6689 H   0  0  0  0  0  0
  -17.4220  -26.6654   21.3996 H   0  0  0  0  0  0
  -18.0360  -26.0047   22.8979 H   0  0  0  0  0  0
  -19.7952  -30.7265   24.2215 H   0  0  0  0  0  0
  -17.5025  -31.6246   24.5158 H   0  0  0  0  0  0
  -15.5364  -30.2942   23.7667 H   0  0  0  0  0  0
  -15.8695  -28.0785   22.7066 H   0  0  0  0  0  0
  -24.5832  -30.7268   25.7847 H   0  0  0  0  0  0
  -24.9099  -32.3018   26.5022 H   0  0  0  0  0  0
  -25.8083  -30.8886   27.0238 H   0  0  0  0  0  0
  -26.2988  -29.6733   24.1315 H   0  0  0  0  0  0
  -27.3961  -29.7308   25.4897 H   0  0  0  0  0  0
  -27.8911  -30.4228   23.9659 H   0  0  0  0  0  0
  -27.2568  -33.3646   26.2161 H   0  0  0  0  0  0
  -28.3800  -32.7078   25.0345 H   0  0  0  0  0  0
  -28.0780  -31.8543   26.5405 H   0  0  0  0  0  0
  -28.2585  -38.0088   24.7484 H   0  0  0  0  0  0
  -28.1081  -36.2618   24.6282 H   0  0  0  0  0  0
  -27.2316  -37.1439   25.8857 H   0  0  0  0  0  0
  -20.9358  -29.8787   21.6856 H   0  0  0  0  0  0
  -26.0164  -38.2826   24.1414 H   0  0  0  0  0  0
  -32.2234  -19.9842   20.9000 H   0  0  0  0  0  0
  -32.1309  -17.5326   20.7888 H   0  0  0  0  0  0
  -28.0471  -20.2574   19.9981 H   0  0  0  0  0  0
  -27.5275  -23.4820   21.6303 H   0  0  0  0  0  0
  -28.9690  -24.4514   22.0581 H   0  0  0  0  0  0
  -27.2630  -24.5850   19.5357 H   0  0  0  0  0  0
  -26.8913  -18.3629   19.2791 H   0  0  0  0  0  0
  -27.1275  -17.1376   20.5255 H   0  0  0  0  0  0
  -27.7549  -16.8880   18.8682 H   0  0  0  0  0  0
  -31.2428  -22.2402   20.3403 H   0  0  0  0  0  0
  -30.4142  -22.0304   21.8274 H   0  0  0  0  0  0
  -28.8478  -15.6327   20.4962 H   0  0  0  0  0  0
  1 25  1  0  0  0
  1 30  2  0  0  0
  1 83  1  0  0  0
  2  3  1  0  0  0
  2 25  1  0  0  0
  2 85  1  0  0  0
  2 86  1  0  0  0
  3  4  1  0  0  0
  3 87  1  0  0  0
  3 88  1  0  0  0
  4  5  1  0  0  0
  4 89  1  0  0  0
  4 90  1  0  0  0
  5  6  1  0  0  0
  5 26  1  0  0  0
  5 91  1  0  0  0
  6 25  1  0  0  0
  6 92  1  0  0  0
  6 93  1  0  0  0
  7  8  2  0  0  0
  7 26  1  0  0  0
  7 29  1  0  0  0
  8  9  1  0  0  0
  8 22  1  0  0  0
  9 10  1  0  0  0
  9 27  2  0  0  0
 10 11  2  0  0  0
 10 15  1  0  0  0
 11 12  1  0  0  0
 11 94  1  0  0  0
 12 13  2  0  0  0
 12 95  1  0  0  0
 13 14  1  0  0  0
 13 31  1  0  0  0
 14 15  2  0  0  0
 14 96  1  0  0  0
 15 97  1  0  0  0
 16 17  2  0  0  0
 16 21  1  0  0  0
 16 31  1  0  0  0
 17 18  1  0  0  0
 17 98  1  0  0  0
 18 19  2  0  0  0
 18 99  1  0  0  0
 19 20  1  0  0  0
 19 24  1  0  0  0
 20 21  2  0  0  0
 20100  1  0  0  0
 21 23  1  0  0  0
 22 28  1  0  0  0
 22 32  2  0  0  0
 26 27  1  0  0  0
 28101  1  0  0  0
 28102  1  0  0  0
 29103  1  0  0  0
 29104  1  0  0  0
 33 34  1  0  0  0
 33 66  1  0  0  0
 33 70  2  0  0  0
 34 36  1  0  0  0
 34 59  1  0  0  0
 34105  1  0  0  0
 35 44  2  0  0  0
 35 45  1  0  0  0
 35 68  1  0  0  0
 36 56  1  0  0  0
 36106  1  0  0  0
 37 39  1  0  0  0
 37 47  1  0  0  0
 37 66  1  0  0  0
 37107  1  0  0  0
 38 43  2  0  0  0
 38 46  1  0  0  0
 38 47  1  0  0  0
 39 64  1  0  0  0
 39 67  2  0  0  0
 40 52  1  0  0  0
 40 53  2  0  0  0
 40 58  1  0  0  0
 41108  1  0  0  0
 41109  1  0  0  0
 41110  1  0  0  0
 41 48  1  0  0  0
 42 43  1  0  0  0
 42 66  1  0  0  0
 42111  1  0  0  0
 42112  1  0  0  0
 43 44  1  0  0  0
 44113  1  0  0  0
 45 46  2  0  0  0
 45114  1  0  0  0
 46115  1  0  0  0
 47116  1  0  0  0
 47117  1  0  0  0
 48 56  1  0  0  0
 48 65  1  0  0  0
 48118  1  0  0  0
 49 50  1  0  0  0
 49 53  1  0  0  0
 49 64  1  0  0  0
 49119  1  0  0  0
 50 51  1  0  0  0
 50120  1  0  0  0
 50121  1  0  0  0
 51 52  1  0  0  0
 51122  1  0  0  0
 51123  1  0  0  0
 52124  1  0  0  0
 52125  1  0  0  0
 53 54  1  0  0  0
 54 55  2  0  0  0
 54126  1  0  0  0
 55 57  1  0  0  0
 55127  1  0  0  0
 56 69  2  0  0  0
 57 58  2  0  0  0
 57128  1  0  0  0
 58129  1  0  0  0
 59 60  1  0  0  0
 59 61  1  0  0  0
 59 62  1  0  0  0
 60130  1  0  0  0
 60131  1  0  0  0
 60132  1  0  0  0
 61133  1  0  0  0
 61134  1  0  0  0
 61135  1  0  0  0
 62136  1  0  0  0
 62137  1  0  0  0
 62138  1  0  0  0
 63 65  1  0  0  0
 63139  1  0  0  0
 63140  1  0  0  0
 63141  1  0  0  0
 64142  1  0  0  0
 65143  1  0  0  0
 68 79  1  0  0  0
 71 72  2  0  0  0
 71 74  1  0  0  0
 71144  1  0  0  0
 72 76  1  0  0  0
 72145  1  0  0  0
 73 74  2  0  0  0
 73 75  1  0  0  0
 73146  1  0  0  0
 74 81  1  0  0  0
 75 76  2  0  0  0
 75 80  1  0  0  0
 76 83  1  0  0  0
 77 79  1  0  0  0
 77 82  1  0  0  0
 77 84  2  0  0  0
 78 79  1  0  0  0
 78 82  1  0  0  0
 78147  1  0  0  0
 78148  1  0  0  0
 79149  1  0  0  0
 80150  1  0  0  0
 80151  1  0  0  0
 80152  1  0  0  0
 81 82  1  0  0  0
 81153  1  0  0  0
 81154  1  0  0  0
 83155  1  0  0  0
M  ISO  4   1 100  68 101  79 101  83 100
M  END
> <chiral flag>
0

> <version>
0

> <s_m_source_file>
/data/baiqing/PycharmProjects/Reinvent-master-3.2/result/LINK_invent/BTK/process_docking_weight1_custom_product_contain_oxygen_bond_distance_aromatic_linkinvent_7_9_3/rearranged_h_0026.sdf

> <i_m_source_file_index>
28

> <r_mmod_Potential_Energy-OPLS-2005>
169.041458129883

> <r_mmod_Stretch_Energy-OPLS-2005>
115.259437561035

> <r_mmod_Bend_Energy-OPLS-2005>
196.595291137695

> <r_mmod_Torsional_Energy-OPLS-2005>
233.916046142578

> <r_mmod_Improper_Torsional_Energy-OPLS-2005>
8.89557647705078

> <r_mmod_Van_der_Waal_Energy-OPLS-2005>
135.080612182617

> <r_mmod_Electrostatic_Energy-OPLS-2005>
-375.191284179688

> <r_mmod_Solvation_Energy-OPLS-2005>
-238.260314941406

> <b_mmod_Minimization_Converged-OPLS-2005>
0

> <r_mmod_RMS_Derivative-OPLS-2005>
4.21994876861572

$$$$
28
                    3D
 Structure written by MMmdl.
155164  0  0  1  0            999 V2000
  -30.5086  -14.9428   20.4261 C   0  0  0  0  0  0
  -30.4544  -12.5835   19.4886 C   0  0  0  0  0  0
  -29.5288  -12.5368   18.2493 C   0  0  0  0  0  0
  -28.0592  -12.3212   18.6649 C   0  0  0  0  0  0
  -27.6369  -13.2391   19.8415 C   0  0  2  0  0  0
  -28.6811  -13.2386   20.9778 C   0  0  0  0  0  0
  -25.2494  -13.8183   20.5682 C   0  0  0  0  0  0
  -24.1804  -13.0427   20.9225 C   0  0  0  0  0  0
  -24.6403  -11.6910   20.8746 C   0  0  0  0  0  0
  -23.9070  -10.4294   21.0406 C   0  0  0  0  0  0
  -24.3620   -9.4208   21.9187 C   0  0  0  0  0  0
  -23.6297   -8.2242   22.0752 C   0  0  0  0  0  0
  -22.4279   -8.0282   21.3543 C   0  0  0  0  0  0
  -21.9918   -9.0253   20.4644 C   0  0  0  0  0  0
  -22.7244  -10.2132   20.3053 C   0  0  0  0  0  0
  -21.6857   -6.0729   22.5281 C   0  0  0  0  0  0
  -21.4013   -6.5632   23.8214 C   0  0  0  0  0  0
  -21.3659   -5.6788   24.9177 C   0  0  0  0  0  0
  -21.6047   -4.3050   24.7228 C   0  0  0  0  0  0
  -21.8820   -3.8146   23.4350 C   0  0  0  0  0  0
  -21.9195   -4.6961   22.3405 C   0  0  0  0  0  0
  -22.7825  -13.5214   21.1878 C   0  0  0  0  0  0
  -22.1668   -4.2145   21.0985 F   0  0  0  0  0  0
  -21.5627   -3.4536   25.7737 F   0  0  0  0  0  0
  -29.9586  -13.6632   20.3868 N   0  0  0  0  0  0
  -26.2920  -12.9402   20.3228 N   0  0  0  0  0  0
  -25.9335  -11.6539   20.5716 N   0  0  0  0  0  0
  -22.0459  -12.8205   22.0425 N   0  0  0  0  0  0
  -25.4144  -15.1907   20.4053 N   0  0  0  0  0  0
  -31.7100  -15.0590   20.1581 O   0  0  0  0  0  0
  -21.6644   -6.8876   21.4242 O   0  0  0  0  0  0
  -22.3517  -14.5522   20.6721 O   0  0  0  0  0  0
  -24.6436  -31.8455   23.1874 C   0  0  0  0  0  0
  -25.9201  -32.4709   23.8275 C   0  0  1  0  0  0
  -27.2220  -27.1395   20.1645 C   0  0  0  0  0  0
  -25.5943  -33.8509   24.2197 N   0  0  0  0  0  0
  -23.4477  -30.4634   21.5330 C   0  0  2  0  0  0
  -24.8993  -28.8842   20.1181 C   0  0  0  0  0  0
  -22.7569  -29.4561   22.4863 C   0  0  0  0  0  0
  -18.0309  -28.1423   22.8494 C   0  0  0  0  0  0
  -24.1473  -36.7239   23.2646 C   0  0  0  0  0  0
  -26.0028  -30.7215   21.3845 C   0  0  0  0  0  0
  -26.0765  -29.3288   20.7338 C   0  0  0  0  0  0
  -27.2420  -28.4738   20.7376 C   0  0  0  0  0  0
  -26.0196  -26.7919   19.5131 C   0  0  0  0  0  0
  -24.8828  -27.6281   19.4917 C   0  0  0  0  0  0
  -23.6757  -29.7873   20.1549 C   0  0  0  0  0  0
  -25.4110  -36.3037   24.0321 C   0  0  1  0  0  0
  -20.5920  -28.3734   23.1248 C   0  0  2  0  0  0
  -20.6780  -26.9437   22.5415 C   0  0  0  0  0  0
  -19.5744  -26.6410   21.5227 C   0  0  0  0  0  0
  -18.1931  -26.7963   22.1642 C   0  0  0  0  0  0
  -19.1568  -28.8898   23.2864 C   0  0  0  0  0  0
  -18.9481  -30.1492   23.8885 C   0  0  0  0  0  0
  -17.6477  -30.6610   24.0578 C   0  0  0  0  0  0
  -25.9066  -34.9414   23.5072 C   0  0  0  0  0  0
  -16.5369  -29.9105   23.6359 C   0  0  0  0  0  0
  -16.7294  -28.6528   23.0374 C   0  0  0  0  0  0
  -26.4515  -31.6574   25.0713 C   0  0  0  0  0  0
  -25.3701  -31.3789   26.1415 C   0  0  0  0  0  0
  -27.0369  -30.2971   24.6286 C   0  0  0  0  0  0
  -27.6062  -32.4321   25.7501 C   0  0  0  0  0  0
  -27.5567  -37.1778   24.8469 C   0  0  0  0  0  0
  -21.4260  -29.3053   22.3613 N   0  0  0  0  0  0
  -26.4267  -37.3759   23.9423 N   0  0  0  0  0  0
  -24.7179  -31.0312   22.0905 N   0  0  0  0  0  0
  -23.4208  -28.8117   23.3026 O   0  0  0  0  0  0
  -28.2747  -26.1553   20.1688 O   0  0  0  0  0  0
  -26.5656  -34.8914   22.4656 O   0  0  0  0  0  0
  -23.5551  -32.1328   23.7089 O   0  0  0  0  0  0
  -28.2743  -19.7412   20.0281 C   0  0  0  0  0  0
  -28.4614  -18.2977   19.9953 C   0  0  0  0  0  0
  -30.3967  -19.9535   21.0191 C   0  0  0  0  0  0
  -29.2227  -20.6707   20.5694 C   0  0  0  0  0  0
  -29.6201  -17.5817   20.4678 C   0  0  0  0  0  0
  -30.6006  -18.5067   20.9657 C   0  0  0  0  0  0
  -28.6588  -23.3132   20.1211 C   0  0  0  0  0  0
  -28.1416  -23.4856   22.9457 C   0  0  0  0  0  0
  -28.3533  -24.8261   22.2385 C   0  0  0  0  0  0
  -29.0570  -22.3908   22.3647 C   0  0  0  0  0  0
  -28.0282  -24.7297   20.7439 C   0  0  1  0  0  0
  -28.9229  -22.1475   20.9152 N   0  0  0  0  0  0
  -29.6217  -16.0447   20.5362 N   0  0  0  0  0  0
  -28.8454  -23.2752   18.9003 O   0  0  0  0  0  0
  -31.7496  -18.0075   21.4793 F   0  0  0  0  0  0
  -31.4850  -12.7600   19.1772 H   0  0  0  0  0  0
  -30.4560  -11.6224   20.0056 H   0  0  0  0  0  0
  -29.8466  -11.7459   17.5678 H   0  0  0  0  0  0
  -29.6174  -13.4708   17.6923 H   0  0  0  0  0  0
  -27.9505  -11.2763   18.9569 H   0  0  0  0  0  0
  -27.3981  -12.4695   17.8105 H   0  0  0  0  0  0
  -27.6065  -14.2469   19.4267 H   0  0  0  0  0  0
  -28.7678  -12.2493   21.4300 H   0  0  0  0  0  0
  -28.3820  -13.9159   21.7792 H   0  0  0  0  0  0
  -25.2767   -9.5684   22.4753 H   0  0  0  0  0  0
  -24.0012   -7.4632   22.7470 H   0  0  0  0  0  0
  -21.0849   -8.8771   19.8951 H   0  0  0  0  0  0
  -22.3707  -10.9666   19.6152 H   0  0  0  0  0  0
  -21.2004   -7.6135   23.9710 H   0  0  0  0  0  0
  -21.1478   -6.0519   25.9077 H   0  0  0  0  0  0
  -22.0597   -2.7608   23.2852 H   0  0  0  0  0  0
  -22.4071  -11.9872   22.4828 H   0  0  0  0  0  0
  -21.1068  -13.1222   22.2601 H   0  0  0  0  0  0
  -24.6318  -15.8303   20.4943 H   0  0  0  0  0  0
  -26.2310  -15.6243   19.9977 H   0  0  0  0  0  0
  -26.7272  -32.5329   23.1012 H   0  0  0  0  0  0
  -25.0053  -33.9623   25.0317 H   0  0  0  0  0  0
  -22.7509  -31.2893   21.3757 H   0  0  0  0  0  0
  -23.3752  -35.9552   23.3296 H   0  0  0  0  0  0
  -24.3558  -36.8885   22.2063 H   0  0  0  0  0  0
  -23.7196  -37.6420   23.6684 H   0  0  0  0  0  0
  -26.1524  -31.4710   20.6059 H   0  0  0  0  0  0
  -26.8752  -30.7803   22.0235 H   0  0  0  0  0  0
  -28.1421  -28.8111   21.2318 H   0  0  0  0  0  0
  -25.9456  -25.8305   19.0251 H   0  0  0  0  0  0
  -23.9849  -27.2838   18.9968 H   0  0  0  0  0  0
  -23.8122  -30.5579   19.3948 H   0  0  0  0  0  0
  -22.7910  -29.2277   19.8464 H   0  0  0  0  0  0
  -25.1293  -36.1871   25.0812 H   0  0  0  0  0  0
  -21.0032  -28.3327   24.1362 H   0  0  0  0  0  0
  -20.5683  -26.2345   23.3634 H   0  0  0  0  0  0
  -21.6642  -26.7446   22.1209 H   0  0  0  0  0  0
  -19.6887  -25.6319   21.1269 H   0  0  0  0  0  0
  -19.6681  -27.3214   20.6750 H   0  0  0  0  0  0
  -17.4205  -26.6744   21.4040 H   0  0  0  0  0  0
  -18.0304  -26.0110   22.9038 H   0  0  0  0  0  0
  -19.7954  -30.7327   24.2242 H   0  0  0  0  0  0
  -17.5031  -31.6291   24.5177 H   0  0  0  0  0  0
  -15.5367  -30.3001   23.7687 H   0  0  0  0  0  0
  -15.8696  -28.0840   22.7099 H   0  0  0  0  0  0
  -24.5845  -30.7172   25.7747 H   0  0  0  0  0  0
  -24.8914  -32.2981   26.4802 H   0  0  0  0  0  0
  -25.7967  -30.8984   27.0225 H   0  0  0  0  0  0
  -26.2980  -29.6706   24.1272 H   0  0  0  0  0  0
  -27.3961  -29.7264   25.4859 H   0  0  0  0  0  0
  -27.8898  -30.4210   23.9609 H   0  0  0  0  0  0
  -27.2692  -33.3672   26.1986 H   0  0  0  0  0  0
  -28.3924  -32.6798   25.0357 H   0  0  0  0  0  0
  -28.0653  -31.8484   26.5491 H   0  0  0  0  0  0
  -28.2591  -38.0074   24.7530 H   0  0  0  0  0  0
  -28.1055  -36.2607   24.6270 H   0  0  0  0  0  0
  -27.2290  -37.1403   25.8874 H   0  0  0  0  0  0
  -20.9468  -29.8753   21.6779 H   0  0  0  0  0  0
  -26.0133  -38.2824   24.1443 H   0  0  0  0  0  0
  -27.3221  -20.1285   19.6932 H   0  0  0  0  0  0
  -27.6359  -17.7139   19.6140 H   0  0  0  0  0  0
  -31.1819  -20.5315   21.4836 H   0  0  0  0  0  0
  -27.0968  -23.1809   22.8649 H   0  0  0  0  0  0
  -28.3433  -23.5997   24.0119 H   0  0  0  0  0  0
  -29.3835  -25.1591   22.3704 H   0  0  0  0  0  0
  -27.7215  -25.5839   22.7026 H   0  0  0  0  0  0
  -28.8525  -21.4662   22.9082 H   0  0  0  0  0  0
  -30.0985  -22.6376   22.5755 H   0  0  0  0  0  0
  -26.9542  -24.5557   20.6781 H   0  0  0  0  0  0
  -28.6854  -15.6852   20.6221 H   0  0  0  0  0  0
  1 25  1  0  0  0
  1 30  2  0  0  0
  1 83  1  0  0  0
  2  3  1  0  0  0
  2 25  1  0  0  0
  2 86  1  0  0  0
  2 87  1  0  0  0
  3  4  1  0  0  0
  3 88  1  0  0  0
  3 89  1  0  0  0
  4  5  1  0  0  0
  4 90  1  0  0  0
  4 91  1  0  0  0
  5  6  1  0  0  0
  5 26  1  0  0  0
  5 92  1  0  0  0
  6 25  1  0  0  0
  6 93  1  0  0  0
  6 94  1  0  0  0
  7  8  2  0  0  0
  7 26  1  0  0  0
  7 29  1  0  0  0
  8  9  1  0  0  0
  8 22  1  0  0  0
  9 10  1  0  0  0
  9 27  2  0  0  0
 10 11  2  0  0  0
 10 15  1  0  0  0
 11 12  1  0  0  0
 11 95  1  0  0  0
 12 13  2  0  0  0
 12 96  1  0  0  0
 13 14  1  0  0  0
 13 31  1  0  0  0
 14 15  2  0  0  0
 14 97  1  0  0  0
 15 98  1  0  0  0
 16 17  2  0  0  0
 16 21  1  0  0  0
 16 31  1  0  0  0
 17 18  1  0  0  0
 17 99  1  0  0  0
 18 19  2  0  0  0
 18100  1  0  0  0
 19 20  1  0  0  0
 19 24  1  0  0  0
 20 21  2  0  0  0
 20101  1  0  0  0
 21 23  1  0  0  0
 22 28  1  0  0  0
 22 32  2  0  0  0
 26 27  1  0  0  0
 28102  1  0  0  0
 28103  1  0  0  0
 29104  1  0  0  0
 29105  1  0  0  0
 33 34  1  0  0  0
 33 66  1  0  0  0
 33 70  2  0  0  0
 34 36  1  0  0  0
 34 59  1  0  0  0
 34106  1  0  0  0
 35 44  2  0  0  0
 35 45  1  0  0  0
 35 68  1  0  0  0
 36 56  1  0  0  0
 36107  1  0  0  0
 37 39  1  0  0  0
 37 47  1  0  0  0
 37 66  1  0  0  0
 37108  1  0  0  0
 38 43  2  0  0  0
 38 46  1  0  0  0
 38 47  1  0  0  0
 39 64  1  0  0  0
 39 67  2  0  0  0
 40 52  1  0  0  0
 40 53  2  0  0  0
 40 58  1  0  0  0
 41109  1  0  0  0
 41110  1  0  0  0
 41111  1  0  0  0
 41 48  1  0  0  0
 42 43  1  0  0  0
 42 66  1  0  0  0
 42112  1  0  0  0
 42113  1  0  0  0
 43 44  1  0  0  0
 44114  1  0  0  0
 45 46  2  0  0  0
 45115  1  0  0  0
 46116  1  0  0  0
 47117  1  0  0  0
 47118  1  0  0  0
 48 56  1  0  0  0
 48 65  1  0  0  0
 48119  1  0  0  0
 49 50  1  0  0  0
 49 53  1  0  0  0
 49 64  1  0  0  0
 49120  1  0  0  0
 50 51  1  0  0  0
 50121  1  0  0  0
 50122  1  0  0  0
 51 52  1  0  0  0
 51123  1  0  0  0
 51124  1  0  0  0
 52125  1  0  0  0
 52126  1  0  0  0
 53 54  1  0  0  0
 54 55  2  0  0  0
 54127  1  0  0  0
 55 57  1  0  0  0
 55128  1  0  0  0
 56 69  2  0  0  0
 57 58  2  0  0  0
 57129  1  0  0  0
 58130  1  0  0  0
 59 60  1  0  0  0
 59 61  1  0  0  0
 59 62  1  0  0  0
 60131  1  0  0  0
 60132  1  0  0  0
 60133  1  0  0  0
 61134  1  0  0  0
 61135  1  0  0  0
 61136  1  0  0  0
 62137  1  0  0  0
 62138  1  0  0  0
 62139  1  0  0  0
 63 65  1  0  0  0
 63140  1  0  0  0
 63141  1  0  0  0
 63142  1  0  0  0
 64143  1  0  0  0
 65144  1  0  0  0
 68 81  1  0  0  0
 71 72  2  0  0  0
 71 74  1  0  0  0
 71145  1  0  0  0
 72 75  1  0  0  0
 72146  1  0  0  0
 73 74  2  0  0  0
 73 76  1  0  0  0
 73147  1  0  0  0
 74 82  1  0  0  0
 75 76  2  0  0  0
 75 83  1  0  0  0
 76 85  1  0  0  0
 77 81  1  0  0  0
 77 82  1  0  0  0
 77 84  2  0  0  0
 78 79  1  0  0  0
 78 80  1  0  0  0
 78148  1  0  0  0
 78149  1  0  0  0
 79 81  1  0  0  0
 79150  1  0  0  0
 79151  1  0  0  0
 80 82  1  0  0  0
 80152  1  0  0  0
 80153  1  0  0  0
 81154  1  0  0  0
 83155  1  0  0  0
M  ISO  4   1 100  68 101  81 101  83 100
M  END
> <chiral flag>
0

> <version>
0

> <s_m_source_file>
/data/baiqing/PycharmProjects/Reinvent-master-3.2/result/LINK_invent/BTK/process_docking_weight1_custom_product_contain_oxygen_bond_distance_aromatic_linkinvent_7_9_3/rearranged_h_0026.sdf

> <i_m_source_file_index>
29

> <r_mmod_Potential_Energy-OPLS-2005>
585.798461914062

> <r_mmod_Stretch_Energy-OPLS-2005>
239.137954711914

> <r_mmod_Bend_Energy-OPLS-2005>
257.103637695312

> <r_mmod_Torsional_Energy-OPLS-2005>
312.13720703125

> <r_mmod_Improper_Torsional_Energy-OPLS-2005>
9.05985641479492

> <r_mmod_Van_der_Waal_Energy-OPLS-2005>
131.199310302734

> <r_mmod_Electrostatic_Energy-OPLS-2005>
-317.666931152344

> <r_mmod_Solvation_Energy-OPLS-2005>
-233.900863647461

> <b_mmod_Minimization_Converged-OPLS-2005>
0

> <r_mmod_RMS_Derivative-OPLS-2005>
1.41005790233612

$$$$
29
                    3D
 Structure written by MMmdl.
163172  0  0  1  0            999 V2000
  -30.6704  -14.4810   20.5736 C   0  0  0  0  0  0
  -30.4310  -12.3114   19.4247 C   0  0  0  0  0  0
  -29.4961  -12.5086   18.2089 C   0  0  0  0  0  0
  -28.0177  -12.3626   18.6251 C   0  0  0  0  0  0
  -27.6679  -13.1985   19.8868 C   0  0  2  0  0  0
  -28.7089  -12.9638   21.0059 C   0  0  0  0  0  0
  -25.2663  -13.8104   20.5791 C   0  0  0  0  0  0
  -24.1861  -13.0383   20.9208 C   0  0  0  0  0  0
  -24.6391  -11.6853   20.8710 C   0  0  0  0  0  0
  -23.9058  -10.4253   21.0391 C   0  0  0  0  0  0
  -24.3606   -9.4201   21.9216 C   0  0  0  0  0  0
  -23.6278   -8.2233   22.0805 C   0  0  0  0  0  0
  -22.4267   -8.0254   21.3562 C   0  0  0  0  0  0
  -21.9919   -9.0212   20.4653 C   0  0  0  0  0  0
  -22.7225  -10.2101   20.3051 C   0  0  0  0  0  0
  -21.6853   -6.0728   22.5290 C   0  0  0  0  0  0
  -21.4003   -6.5648   23.8210 C   0  0  0  0  0  0
  -21.3667   -5.6816   24.9181 C   0  0  0  0  0  0
  -21.6059   -4.3092   24.7257 C   0  0  0  0  0  0
  -21.8825   -3.8162   23.4371 C   0  0  0  0  0  0
  -21.9185   -4.6961   22.3411 C   0  0  0  0  0  0
  -22.7895  -13.5200   21.1824 C   0  0  0  0  0  0
  -22.1647   -4.2140   21.0993 F   0  0  0  0  0  0
  -21.5631   -3.4594   25.7782 F   0  0  0  0  0  0
  -30.0391  -13.2821   20.4637 N   0  0  0  0  0  0
  -26.3066  -12.9258   20.3447 N   0  0  0  0  0  0
  -25.9311  -11.6436   20.5737 N   0  0  0  0  0  0
  -22.0523  -12.8175   22.0359 N   0  0  0  0  0  0
  -25.4435  -15.1821   20.4300 N   0  0  0  0  0  0
  -31.7804  -14.6987   20.0816 O   0  0  0  0  0  0
  -21.6643   -6.8853   21.4247 O   0  0  0  0  0  0
  -22.3587  -14.5515   20.6676 O   0  0  0  0  0  0
  -24.6193  -31.8679   23.2127 C   0  0  0  0  0  0
  -25.9082  -32.4805   23.8399 C   0  0  1  0  0  0
  -27.2251  -27.4066   20.1139 C   0  0  0  0  0  0
  -25.5945  -33.8608   24.2324 N   0  0  0  0  0  0
  -23.4083  -30.4937   21.5518 C   0  0  2  0  0  0
  -24.8536  -28.9623   20.1086 C   0  0  0  0  0  0
  -22.7420  -29.4672   22.4992 C   0  0  0  0  0  0
  -18.0272  -28.1377   22.8499 C   0  0  0  0  0  0
  -24.1476  -36.7292   23.2644 C   0  0  0  0  0  0
  -25.9403  -30.8253   21.3711 C   0  0  0  0  0  0
  -26.0142  -29.4610   20.7117 C   0  0  0  0  0  0
  -27.2050  -28.6932   20.7074 C   0  0  0  0  0  0
  -26.0491  -26.9428   19.4783 C   0  0  0  0  0  0
  -24.8674  -27.7054   19.4841 C   0  0  0  0  0  0
  -23.6161  -29.8317   20.1627 C   0  0  0  0  0  0
  -25.4101  -36.3092   24.0336 C   0  0  1  0  0  0
  -20.5868  -28.3684   23.1310 C   0  0  2  0  0  0
  -20.6775  -26.9424   22.5403 C   0  0  0  0  0  0
  -19.5748  -26.6388   21.5208 C   0  0  0  0  0  0
  -18.1928  -26.7923   22.1623 C   0  0  0  0  0  0
  -19.1522  -28.8838   23.2898 C   0  0  0  0  0  0
  -18.9459  -30.1439   23.8918 C   0  0  0  0  0  0
  -17.6471  -30.6599   24.0555 C   0  0  0  0  0  0
  -25.9044  -34.9465   23.5108 C   0  0  0  0  0  0
  -16.5357  -29.9105   23.6328 C   0  0  0  0  0  0
  -16.7264  -28.6501   23.0385 C   0  0  0  0  0  0
  -26.4494  -31.6615   25.0748 C   0  0  0  0  0  0
  -25.3745  -31.3754   26.1486 C   0  0  0  0  0  0
  -27.0349  -30.3054   24.6158 C   0  0  0  0  0  0
  -27.6016  -32.4388   25.7525 C   0  0  0  0  0  0
  -27.5563  -37.1805   24.8471 C   0  0  0  0  0  0
  -21.4144  -29.3053   22.3708 N   0  0  0  0  0  0
  -26.4285  -37.3775   23.9404 N   0  0  0  0  0  0
  -24.6740  -31.0760   22.1043 N   0  0  0  0  0  0
  -23.4175  -28.8208   23.3054 O   0  0  0  0  0  0
  -28.3518  -26.5989   20.2128 O   0  0  0  0  0  0
  -26.5592  -34.8923   22.4667 O   0  0  0  0  0  0
  -23.5380  -32.1469   23.7495 O   0  0  0  0  0  0
  -29.9350  -17.9154   22.8493 C   0  0  0  0  0  0
  -30.0235  -19.0694   23.6575 C   0  0  0  0  0  0
  -29.8260  -19.3495   20.8872 C   0  0  0  0  0  0
  -29.8639  -18.0465   21.4471 C   0  0  0  0  0  0
  -29.9296  -20.5208   21.6823 C   0  0  0  0  0  0
  -30.0523  -20.3617   23.0865 C   0  0  0  0  0  0
  -27.0401  -23.8254   22.5002 C   0  0  0  0  0  0
  -27.5019  -25.2381   22.0965 C   0  0  0  0  0  0
  -27.7758  -22.6848   21.7549 C   0  0  0  0  0  0
  -29.3662  -24.3167   20.6982 C   0  0  0  0  0  0
  -28.1046  -25.2402   20.6787 C   0  0  1  0  0  0
  -29.8802  -16.8421   20.4934 C   0  0  0  0  0  0
  -30.0325  -21.8965   20.9784 C   0  0  0  0  0  0
  -29.8996  -15.4795   21.0571 N   0  0  0  0  0  0
  -29.1966  -23.0335   21.4878 N   0  3  2  0  0  0
  -30.2536  -21.7280   24.1259 Cl  0  0  0  0  0  0
  -31.4736  -12.4220   19.1226 H   0  0  0  0  0  0
  -30.3401  -11.2955   19.8133 H   0  0  0  0  0  0
  -29.7302  -11.7815   17.4303 H   0  0  0  0  0  0
  -29.6597  -13.4929   17.7668 H   0  0  0  0  0  0
  -27.8329  -11.3058   18.8231 H   0  0  0  0  0  0
  -27.3605  -12.6358   17.7993 H   0  0  0  0  0  0
  -27.7143  -14.2486   19.5986 H   0  0  0  0  0  0
  -28.6889  -11.9226   21.3321 H   0  0  0  0  0  0
  -28.4759  -13.5453   21.8978 H   0  0  0  0  0  0
  -25.2773   -9.5711   22.4767 H   0  0  0  0  0  0
  -23.9998   -7.4657   22.7573 H   0  0  0  0  0  0
  -21.0856   -8.8684   19.8950 H   0  0  0  0  0  0
  -22.3704  -10.9606   19.6113 H   0  0  0  0  0  0
  -21.1974   -7.6164   23.9715 H   0  0  0  0  0  0
  -21.1480   -6.0551   25.9073 H   0  0  0  0  0  0
  -22.0587   -2.7625   23.2869 H   0  0  0  0  0  0
  -22.4150  -11.9811   22.4668 H   0  0  0  0  0  0
  -21.1148  -13.1185   22.2575 H   0  0  0  0  0  0
  -24.6863  -15.8387   20.5797 H   0  0  0  0  0  0
  -26.3088  -15.6269   20.1545 H   0  0  0  0  0  0
  -26.7153  -32.5500   23.1154 H   0  0  0  0  0  0
  -25.0116  -33.9766   25.0481 H   0  0  0  0  0  0
  -22.6976  -31.3120   21.4146 H   0  0  0  0  0  0
  -23.3736  -35.9630   23.3326 H   0  0  0  0  0  0
  -24.3543  -36.8894   22.2056 H   0  0  0  0  0  0
  -23.7252  -37.6503   23.6652 H   0  0  0  0  0  0
  -26.0659  -31.5961   20.6085 H   0  0  0  0  0  0
  -26.8223  -30.8626   21.9995 H   0  0  0  0  0  0
  -28.0925  -29.0650   21.1988 H   0  0  0  0  0  0
  -26.0211  -25.9878   18.9753 H   0  0  0  0  0  0
  -23.9761  -27.3229   19.0059 H   0  0  0  0  0  0
  -23.7257  -30.6110   19.4068 H   0  0  0  0  0  0
  -22.7396  -29.2528   19.8644 H   0  0  0  0  0  0
  -25.1281  -36.1931   25.0832 H   0  0  0  0  0  0
  -20.9946  -28.3246   24.1438 H   0  0  0  0  0  0
  -20.5697  -26.2297   23.3589 H   0  0  0  0  0  0
  -21.6648  -26.7489   22.1179 H   0  0  0  0  0  0
  -19.6916  -25.6292   21.1249 H   0  0  0  0  0  0
  -19.6680  -27.3190   20.6729 H   0  0  0  0  0  0
  -17.4195  -26.6680   21.4022 H   0  0  0  0  0  0
  -18.0334  -26.0045   22.9006 H   0  0  0  0  0  0
  -19.7941  -30.7237   24.2317 H   0  0  0  0  0  0
  -17.5040  -31.6288   24.5148 H   0  0  0  0  0  0
  -15.5362  -30.3036   23.7633 H   0  0  0  0  0  0
  -15.8654  -28.0811   22.7156 H   0  0  0  0  0  0
  -24.5839  -30.7204   25.7819 H   0  0  0  0  0  0
  -24.9043  -32.2950   26.4990 H   0  0  0  0  0  0
  -25.8075  -30.8847   27.0219 H   0  0  0  0  0  0
  -26.2925  -29.6788   24.1213 H   0  0  0  0  0  0
  -27.4132  -29.7300   25.4622 H   0  0  0  0  0  0
  -27.8730  -30.4355   23.9301 H   0  0  0  0  0  0
  -27.2536  -33.3627   26.2161 H   0  0  0  0  0  0
  -28.3780  -32.7109   25.0362 H   0  0  0  0  0  0
  -28.0748  -31.8535   26.5408 H   0  0  0  0  0  0
  -28.2611  -38.0074   24.7485 H   0  0  0  0  0  0
  -28.1027  -36.2612   24.6327 H   0  0  0  0  0  0
  -27.2275  -37.1490   25.8874 H   0  0  0  0  0  0
  -20.9333  -29.8753   21.6887 H   0  0  0  0  0  0
  -26.0159  -38.2844   24.1409 H   0  0  0  0  0  0
  -29.9450  -16.9378   23.3117 H   0  0  0  0  0  0
  -30.1054  -18.9591   24.7289 H   0  0  0  0  0  0
  -29.7661  -19.4463   19.8115 H   0  0  0  0  0  0
  -25.9698  -23.7244   22.3089 H   0  0  0  0  0  0
  -27.1603  -23.7130   23.5795 H   0  0  0  0  0  0
  -28.2648  -25.5932   22.7938 H   0  0  0  0  0  0
  -26.6678  -25.9337   22.2046 H   0  0  0  0  0  0
  -27.2853  -22.4520   20.8100 H   0  0  0  0  0  0
  -27.6965  -21.7780   22.3548 H   0  0  0  0  0  0
  -29.6295  -24.0918   19.6633 H   0  0  0  0  0  0
  -30.2104  -24.8647   21.1205 H   0  0  0  0  0  0
  -27.3965  -24.7657   20.0006 H   0  0  0  0  0  0
  -28.9904  -16.9126   19.8670 H   0  0  0  0  0  0
  -30.7201  -16.9855   19.8103 H   0  0  0  0  0  0
  -29.7926  -21.7578   19.9230 H   0  0  0  0  0  0
  -31.0777  -22.2013   21.0178 H   0  0  0  0  0  0
  -29.0481  -15.1819   21.5070 H   0  0  0  0  0  0
  -29.5782  -23.2186   22.4076 H   0  0  0  0  0  0
  1 25  1  0  0  0
  1 30  2  0  0  0
  1 84  1  0  0  0
  2  3  1  0  0  0
  2 25  1  0  0  0
  2 87  1  0  0  0
  2 88  1  0  0  0
  3  4  1  0  0  0
  3 89  1  0  0  0
  3 90  1  0  0  0
  4  5  1  0  0  0
  4 91  1  0  0  0
  4 92  1  0  0  0
  5  6  1  0  0  0
  5 26  1  0  0  0
  5 93  1  0  0  0
  6 25  1  0  0  0
  6 94  1  0  0  0
  6 95  1  0  0  0
  7  8  2  0  0  0
  7 26  1  0  0  0
  7 29  1  0  0  0
  8  9  1  0  0  0
  8 22  1  0  0  0
  9 10  1  0  0  0
  9 27  2  0  0  0
 10 11  2  0  0  0
 10 15  1  0  0  0
 11 12  1  0  0  0
 11 96  1  0  0  0
 12 13  2  0  0  0
 12 97  1  0  0  0
 13 14  1  0  0  0
 13 31  1  0  0  0
 14 15  2  0  0  0
 14 98  1  0  0  0
 15 99  1  0  0  0
 16 17  2  0  0  0
 16 21  1  0  0  0
 16 31  1  0  0  0
 17 18  1  0  0  0
 17100  1  0  0  0
 18 19  2  0  0  0
 18101  1  0  0  0
 19 20  1  0  0  0
 19 24  1  0  0  0
 20 21  2  0  0  0
 20102  1  0  0  0
 21 23  1  0  0  0
 22 28  1  0  0  0
 22 32  2  0  0  0
 26 27  1  0  0  0
 28103  1  0  0  0
 28104  1  0  0  0
 29105  1  0  0  0
 29106  1  0  0  0
 33 34  1  0  0  0
 33 66  1  0  0  0
 33 70  2  0  0  0
 34 36  1  0  0  0
 34 59  1  0  0  0
 34107  1  0  0  0
 35 44  2  0  0  0
 35 45  1  0  0  0
 35 68  1  0  0  0
 36 56  1  0  0  0
 36108  1  0  0  0
 37 39  1  0  0  0
 37 47  1  0  0  0
 37 66  1  0  0  0
 37109  1  0  0  0
 38 43  2  0  0  0
 38 46  1  0  0  0
 38 47  1  0  0  0
 39 64  1  0  0  0
 39 67  2  0  0  0
 40 52  1  0  0  0
 40 53  2  0  0  0
 40 58  1  0  0  0
 41110  1  0  0  0
 41111  1  0  0  0
 41112  1  0  0  0
 41 48  1  0  0  0
 42 43  1  0  0  0
 42 66  1  0  0  0
 42113  1  0  0  0
 42114  1  0  0  0
 43 44  1  0  0  0
 44115  1  0  0  0
 45 46  2  0  0  0
 45116  1  0  0  0
 46117  1  0  0  0
 47118  1  0  0  0
 47119  1  0  0  0
 48 56  1  0  0  0
 48 65  1  0  0  0
 48120  1  0  0  0
 49 50  1  0  0  0
 49 53  1  0  0  0
 49 64  1  0  0  0
 49121  1  0  0  0
 50 51  1  0  0  0
 50122  1  0  0  0
 50123  1  0  0  0
 51 52  1  0  0  0
 51124  1  0  0  0
 51125  1  0  0  0
 52126  1  0  0  0
 52127  1  0  0  0
 53 54  1  0  0  0
 54 55  2  0  0  0
 54128  1  0  0  0
 55 57  1  0  0  0
 55129  1  0  0  0
 56 69  2  0  0  0
 57 58  2  0  0  0
 57130  1  0  0  0
 58131  1  0  0  0
 59 60  1  0  0  0
 59 61  1  0  0  0
 59 62  1  0  0  0
 60132  1  0  0  0
 60133  1  0  0  0
 60134  1  0  0  0
 61135  1  0  0  0
 61136  1  0  0  0
 61137  1  0  0  0
 62138  1  0  0  0
 62139  1  0  0  0
 62140  1  0  0  0
 63 65  1  0  0  0
 63141  1  0  0  0
 63142  1  0  0  0
 63143  1  0  0  0
 64144  1  0  0  0
 65145  1  0  0  0
 68 81  1  0  0  0
 71 72  2  0  0  0
 71 74  1  0  0  0
 71146  1  0  0  0
 72 76  1  0  0  0
 72147  1  0  0  0
 73 74  2  0  0  0
 73 75  1  0  0  0
 73148  1  0  0  0
 74 82  1  0  0  0
 75 76  2  0  0  0
 75 83  1  0  0  0
 76 86  1  0  0  0
 77 78  1  0  0  0
 77 79  1  0  0  0
 77149  1  0  0  0
 77150  1  0  0  0
 78 81  1  0  0  0
 78151  1  0  0  0
 78152  1  0  0  0
 79 85  1  0  0  0
 79153  1  0  0  0
 79154  1  0  0  0
 80 81  1  0  0  0
 80 85  1  0  0  0
 80155  1  0  0  0
 80156  1  0  0  0
 81157  1  0  0  0
 82 84  1  0  0  0
 82158  1  0  0  0
 82159  1  0  0  0
 83160  1  0  0  0
 83161  1  0  0  0
 83 85  1  0  0  0
 84162  1  0  0  0
 85163  1  0  0  0
M  CHG  1  85   1
M  ISO  4   1 100  68 101  81 101  84 100
M  END
> <chiral flag>
0

> <version>
0

> <s_m_source_file>
/data/baiqing/PycharmProjects/Reinvent-master-3.2/result/LINK_invent/BTK/process_docking_weight1_custom_product_contain_oxygen_bond_distance_aromatic_linkinvent_7_9_3/rearranged_h_0026.sdf

> <i_m_source_file_index>
30

> <r_mmod_Potential_Energy-OPLS-2005>
-119.601219177246

> <r_mmod_Stretch_Energy-OPLS-2005>
48.261116027832

> <r_mmod_Bend_Energy-OPLS-2005>
107.915161132812

> <r_mmod_Torsional_Energy-OPLS-2005>
266.885711669922

> <r_mmod_Improper_Torsional_Energy-OPLS-2005>
7.5425009727478

> <r_mmod_Van_der_Waal_Energy-OPLS-2005>
163.641738891602

> <r_mmod_Electrostatic_Energy-OPLS-2005>
-314.201263427734

> <r_mmod_Solvation_Energy-OPLS-2005>
-418.962860107422

> <b_mmod_Minimization_Converged-OPLS-2005>
0

> <r_mmod_RMS_Derivative-OPLS-2005>
4.95486211776733

$$$$
30
                    3D
 Structure written by MMmdl.
160168  0  0  1  0            999 V2000
  -30.6336  -14.7557   20.4213 C   0  0  0  0  0  0
  -30.4332  -12.4590   19.4651 C   0  0  0  0  0  0
  -29.5077  -12.5143   18.2302 C   0  0  0  0  0  0
  -28.0345  -12.3481   18.6443 C   0  0  0  0  0  0
  -27.6434  -13.2449   19.8508 C   0  0  2  0  0  0
  -28.6958  -13.1943   20.9792 C   0  0  0  0  0  0
  -25.2503  -13.8230   20.5734 C   0  0  0  0  0  0
  -24.1799  -13.0437   20.9228 C   0  0  0  0  0  0
  -24.6432  -11.6929   20.8754 C   0  0  0  0  0  0
  -23.9108  -10.4277   21.0411 C   0  0  0  0  0  0
  -24.3642   -9.4194   21.9193 C   0  0  0  0  0  0
  -23.6299   -8.2237   22.0764 C   0  0  0  0  0  0
  -22.4283   -8.0297   21.3561 C   0  0  0  0  0  0
  -21.9934   -9.0267   20.4656 C   0  0  0  0  0  0
  -22.7278  -10.2142   20.3065 C   0  0  0  0  0  0
  -21.6854   -6.0752   22.5284 C   0  0  0  0  0  0
  -21.4000   -6.5651   23.8218 C   0  0  0  0  0  0
  -21.3657   -5.6812   24.9186 C   0  0  0  0  0  0
  -21.6054   -4.3076   24.7226 C   0  0  0  0  0  0
  -21.8813   -3.8164   23.4353 C   0  0  0  0  0  0
  -21.9188   -4.6968   22.3405 C   0  0  0  0  0  0
  -22.7816  -13.5205   21.1899 C   0  0  0  0  0  0
  -22.1665   -4.2157   21.0983 F   0  0  0  0  0  0
  -21.5630   -3.4568   25.7738 F   0  0  0  0  0  0
  -29.9964  -13.5334   20.3875 N   0  0  0  0  0  0
  -26.2960  -12.9472   20.3330 N   0  0  0  0  0  0
  -25.9365  -11.6598   20.5758 N   0  0  0  0  0  0
  -22.0475  -12.8177   22.0465 N   0  0  0  0  0  0
  -25.4152  -15.1945   20.4165 N   0  0  0  0  0  0
  -31.8261  -14.8312   20.1266 O   0  0  0  0  0  0
  -21.6647   -6.8895   21.4242 O   0  0  0  0  0  0
  -22.3476  -14.5496   20.6759 O   0  0  0  0  0  0
  -24.6294  -31.8547   23.2001 C   0  0  0  0  0  0
  -25.9140  -32.4744   23.8320 C   0  0  1  0  0  0
  -27.2403  -27.2963   20.1238 C   0  0  0  0  0  0
  -25.5941  -33.8546   24.2233 N   0  0  0  0  0  0
  -23.4248  -30.4741   21.5436 C   0  0  2  0  0  0
  -24.8735  -28.9208   20.1114 C   0  0  0  0  0  0
  -22.7481  -29.4594   22.4936 C   0  0  0  0  0  0
  -18.0284  -28.1384   22.8476 C   0  0  0  0  0  0
  -24.1507  -36.7337   23.2627 C   0  0  0  0  0  0
  -25.9644  -30.7796   21.3709 C   0  0  0  0  0  0
  -26.0409  -29.4049   20.7117 C   0  0  0  0  0  0
  -27.2236  -28.6066   20.7027 C   0  0  0  0  0  0
  -26.0451  -26.8632   19.5052 C   0  0  0  0  0  0
  -24.8782  -27.6550   19.5022 C   0  0  0  0  0  0
  -23.6434  -29.8040   20.1599 C   0  0  0  0  0  0
  -25.4126  -36.3086   24.0305 C   0  0  1  0  0  0
  -20.5879  -28.3708   23.1278 C   0  0  2  0  0  0
  -20.6771  -26.9422   22.5416 C   0  0  0  0  0  0
  -19.5761  -26.6376   21.5208 C   0  0  0  0  0  0
  -18.1939  -26.7924   22.1613 C   0  0  0  0  0  0
  -19.1528  -28.8864   23.2868 C   0  0  0  0  0  0
  -18.9448  -30.1464   23.8891 C   0  0  0  0  0  0
  -17.6446  -30.6588   24.0565 C   0  0  0  0  0  0
  -25.9060  -34.9445   23.5073 C   0  0  0  0  0  0
  -16.5346  -29.9085   23.6323 C   0  0  0  0  0  0
  -16.7271  -28.6506   23.0337 C   0  0  0  0  0  0
  -26.4500  -31.6588   25.0718 C   0  0  0  0  0  0
  -25.3741  -31.3761   26.1458 C   0  0  0  0  0  0
  -27.0335  -30.3003   24.6201 C   0  0  0  0  0  0
  -27.6046  -32.4340   25.7497 C   0  0  0  0  0  0
  -27.5596  -37.1823   24.8441 C   0  0  0  0  0  0
  -21.4191  -29.3051   22.3677 N   0  0  0  0  0  0
  -26.4314  -37.3772   23.9380 N   0  0  0  0  0  0
  -24.6914  -31.0539   22.0959 N   0  0  0  0  0  0
  -23.4188  -28.8111   23.3006 O   0  0  0  0  0  0
  -28.3714  -26.4623   20.2329 O   0  0  0  0  0  0
  -26.5637  -34.8921   22.4642 O   0  0  0  0  0  0
  -23.5466  -32.1335   23.7344 O   0  0  0  0  0  0
  -27.8282  -21.0043   21.2866 C   0  0  0  0  0  0
  -27.5745  -19.7514   21.8696 C   0  0  0  0  0  0
  -29.3890  -18.6667   20.6177 C   0  0  0  0  0  0
  -28.8706  -21.1994   20.3528 C   0  0  0  0  0  0
  -28.3275  -18.6060   21.5544 C   0  0  0  0  0  0
  -29.6564  -19.9919   20.0511 C   0  0  0  0  0  0
  -28.7002  -23.8014   20.3246 C   0  0  0  0  0  0
  -30.7785  -22.7210   16.2899 C   0  0  0  0  0  0
  -30.2835  -17.3686   20.2831 C   0  0  0  0  0  0
  -28.5464  -25.1770   19.4977 C   0  0  0  0  0  0
  -30.5449  -23.0475   17.7694 C   0  0  0  0  0  0
  -29.1626  -22.5468   18.2469 C   0  0  0  0  0  0
  -29.8744  -15.9096   20.5466 N   0  0  0  0  0  0
  -28.9737  -22.5598   19.7116 N   0  0  0  0  0  0
  -28.6037  -23.8916   21.5543 O   0  0  0  0  0  0
  -27.9196  -17.1569   22.4013 Cl  0  0  0  0  0  0
  -31.0446  -20.0978   19.0260 Cl  0  0  0  0  0  0
  -31.4730  -12.5738   19.1524 H   0  0  0  0  0  0
  -30.3764  -11.4859   19.9559 H   0  0  0  0  0  0
  -29.7815  -11.7396   17.5118 H   0  0  0  0  0  0
  -29.6404  -13.4675   17.7140 H   0  0  0  0  0  0
  -27.8878  -11.3006   18.9053 H   0  0  0  0  0  0
  -27.3773  -12.5472   17.7947 H   0  0  0  0  0  0
  -27.6329  -14.2660   19.4725 H   0  0  0  0  0  0
  -28.7266  -12.2060   21.4397 H   0  0  0  0  0  0
  -28.4390  -13.8999   21.7707 H   0  0  0  0  0  0
  -25.2788   -9.5658   22.4777 H   0  0  0  0  0  0
  -24.0020   -7.4615   22.7479 H   0  0  0  0  0  0
  -21.0884   -8.8770   19.8938 H   0  0  0  0  0  0
  -22.3745  -10.9681   19.6170 H   0  0  0  0  0  0
  -21.1976   -7.6158   23.9718 H   0  0  0  0  0  0
  -21.1503   -6.0554   25.9096 H   0  0  0  0  0  0
  -22.0592   -2.7620   23.2845 H   0  0  0  0  0  0
  -22.4129  -11.9871   22.4880 H   0  0  0  0  0  0
  -21.1094  -13.1183   22.2701 H   0  0  0  0  0  0
  -24.6447  -15.8458   20.5244 H   0  0  0  0  0  0
  -26.2761  -15.6444   20.1330 H   0  0  0  0  0  0
  -26.7197  -32.5389   23.1051 H   0  0  0  0  0  0
  -25.0055  -33.9635   25.0360 H   0  0  0  0  0  0
  -22.7229  -31.2969   21.3955 H   0  0  0  0  0  0
  -23.3747  -35.9695   23.3280 H   0  0  0  0  0  0
  -24.3611  -36.8977   22.2047 H   0  0  0  0  0  0
  -23.7290  -37.6541   23.6674 H   0  0  0  0  0  0
  -26.0971  -31.5418   20.6025 H   0  0  0  0  0  0
  -26.8473  -30.8304   21.9980 H   0  0  0  0  0  0
  -28.1203  -28.9859   21.1727 H   0  0  0  0  0  0
  -25.9687  -25.8856   19.0578 H   0  0  0  0  0  0
  -23.9794  -27.2657   19.0427 H   0  0  0  0  0  0
  -23.7794  -30.5818   19.4090 H   0  0  0  0  0  0
  -22.7618  -29.2423   19.8490 H   0  0  0  0  0  0
  -25.1298  -36.1933   25.0797 H   0  0  0  0  0  0
  -20.9956  -28.3306   24.1403 H   0  0  0  0  0  0
  -20.5664  -26.2303   23.3609 H   0  0  0  0  0  0
  -21.6630  -26.7444   22.1197 H   0  0  0  0  0  0
  -19.6925  -25.6277   21.1250 H   0  0  0  0  0  0
  -19.6710  -27.3170   20.6731 H   0  0  0  0  0  0
  -17.4185  -26.6654   21.4041 H   0  0  0  0  0  0
  -18.0388  -26.0069   22.9018 H   0  0  0  0  0  0
  -19.7925  -30.7283   24.2255 H   0  0  0  0  0  0
  -17.5001  -31.6260   24.5178 H   0  0  0  0  0  0
  -15.5346  -30.2980   23.7657 H   0  0  0  0  0  0
  -15.8671  -28.0832   22.7042 H   0  0  0  0  0  0
  -24.5871  -30.7144   25.7811 H   0  0  0  0  0  0
  -24.8977  -32.2931   26.4932 H   0  0  0  0  0  0
  -25.8061  -30.8903   27.0215 H   0  0  0  0  0  0
  -26.2891  -29.6745   24.1246 H   0  0  0  0  0  0
  -27.4033  -29.7264   25.4712 H   0  0  0  0  0  0
  -27.8772  -30.4262   23.9414 H   0  0  0  0  0  0
  -27.2614  -33.3583   26.2153 H   0  0  0  0  0  0
  -28.3817  -32.6997   25.0324 H   0  0  0  0  0  0
  -28.0768  -31.8439   26.5354 H   0  0  0  0  0  0
  -28.2579  -38.0146   24.7469 H   0  0  0  0  0  0
  -28.1123  -36.2667   24.6282 H   0  0  0  0  0  0
  -27.2310  -37.1480   25.8841 H   0  0  0  0  0  0
  -20.9412  -29.8791   21.6870 H   0  0  0  0  0  0
  -26.0205  -38.2854   24.1360 H   0  0  0  0  0  0
  -27.1748  -21.8181   21.5648 H   0  0  0  0  0  0
  -26.7738  -19.6655   22.5892 H   0  0  0  0  0  0
  -31.1305  -21.6947   16.1656 H   0  0  0  0  0  0
  -31.5251  -23.3891   15.8565 H   0  0  0  0  0  0
  -29.8624  -22.8380   15.7069 H   0  0  0  0  0  0
  -31.2304  -17.5224   20.8023 H   0  0  0  0  0  0
  -30.5289  -17.4263   19.2218 H   0  0  0  0  0  0
  -27.8413  -25.0699   18.6788 H   0  0  0  0  0  0
  -29.5053  -25.3588   19.0291 H   0  0  0  0  0  0
  -30.6401  -24.1230   17.8820 H   0  0  0  0  0  0
  -31.3483  -22.6322   18.3781 H   0  0  0  0  0  0
  -29.0015  -21.5353   17.8711 H   0  0  0  0  0  0
  -28.3709  -23.1144   17.7569 H   0  0  0  0  0  0
  -28.9007  -15.7707   20.7683 H   0  0  0  0  0  0
  1 25  1  0  0  0
  1 30  2  0  0  0
  1 83  1  0  0  0
  2  3  1  0  0  0
  2 25  1  0  0  0
  2 88  1  0  0  0
  2 89  1  0  0  0
  3  4  1  0  0  0
  3 90  1  0  0  0
  3 91  1  0  0  0
  4  5  1  0  0  0
  4 92  1  0  0  0
  4 93  1  0  0  0
  5  6  1  0  0  0
  5 26  1  0  0  0
  5 94  1  0  0  0
  6 25  1  0  0  0
  6 95  1  0  0  0
  6 96  1  0  0  0
  7  8  2  0  0  0
  7 26  1  0  0  0
  7 29  1  0  0  0
  8  9  1  0  0  0
  8 22  1  0  0  0
  9 10  1  0  0  0
  9 27  2  0  0  0
 10 11  2  0  0  0
 10 15  1  0  0  0
 11 12  1  0  0  0
 11 97  1  0  0  0
 12 13  2  0  0  0
 12 98  1  0  0  0
 13 14  1  0  0  0
 13 31  1  0  0  0
 14 15  2  0  0  0
 14 99  1  0  0  0
 15100  1  0  0  0
 16 17  2  0  0  0
 16 21  1  0  0  0
 16 31  1  0  0  0
 17 18  1  0  0  0
 17101  1  0  0  0
 18 19  2  0  0  0
 18102  1  0  0  0
 19 20  1  0  0  0
 19 24  1  0  0  0
 20 21  2  0  0  0
 20103  1  0  0  0
 21 23  1  0  0  0
 22 28  1  0  0  0
 22 32  2  0  0  0
 26 27  1  0  0  0
 28104  1  0  0  0
 28105  1  0  0  0
 29106  1  0  0  0
 29107  1  0  0  0
 33 34  1  0  0  0
 33 66  1  0  0  0
 33 70  2  0  0  0
 34 36  1  0  0  0
 34 59  1  0  0  0
 34108  1  0  0  0
 35 44  2  0  0  0
 35 45  1  0  0  0
 35 68  1  0  0  0
 36 56  1  0  0  0
 36109  1  0  0  0
 37 39  1  0  0  0
 37 47  1  0  0  0
 37 66  1  0  0  0
 37110  1  0  0  0
 38 43  2  0  0  0
 38 46  1  0  0  0
 38 47  1  0  0  0
 39 64  1  0  0  0
 39 67  2  0  0  0
 40 52  1  0  0  0
 40 53  2  0  0  0
 40 58  1  0  0  0
 41111  1  0  0  0
 41112  1  0  0  0
 41113  1  0  0  0
 41 48  1  0  0  0
 42 43  1  0  0  0
 42 66  1  0  0  0
 42114  1  0  0  0
 42115  1  0  0  0
 43 44  1  0  0  0
 44116  1  0  0  0
 45 46  2  0  0  0
 45117  1  0  0  0
 46118  1  0  0  0
 47119  1  0  0  0
 47120  1  0  0  0
 48 56  1  0  0  0
 48 65  1  0  0  0
 48121  1  0  0  0
 49 50  1  0  0  0
 49 53  1  0  0  0
 49 64  1  0  0  0
 49122  1  0  0  0
 50 51  1  0  0  0
 50123  1  0  0  0
 50124  1  0  0  0
 51 52  1  0  0  0
 51125  1  0  0  0
 51126  1  0  0  0
 52127  1  0  0  0
 52128  1  0  0  0
 53 54  1  0  0  0
 54 55  2  0  0  0
 54129  1  0  0  0
 55 57  1  0  0  0
 55130  1  0  0  0
 56 69  2  0  0  0
 57 58  2  0  0  0
 57131  1  0  0  0
 58132  1  0  0  0
 59 60  1  0  0  0
 59 61  1  0  0  0
 59 62  1  0  0  0
 60133  1  0  0  0
 60134  1  0  0  0
 60135  1  0  0  0
 61136  1  0  0  0
 61137  1  0  0  0
 61138  1  0  0  0
 62139  1  0  0  0
 62140  1  0  0  0
 62141  1  0  0  0
 63 65  1  0  0  0
 63142  1  0  0  0
 63143  1  0  0  0
 63144  1  0  0  0
 64145  1  0  0  0
 65146  1  0  0  0
 68 80  1  0  0  0
 71 72  2  0  0  0
 71 74  1  0  0  0
 71147  1  0  0  0
 72 75  1  0  0  0
 72148  1  0  0  0
 73 75  2  0  0  0
 73 76  1  0  0  0
 73 79  1  0  0  0
 74 76  2  0  0  0
 74 84  1  0  0  0
 75 86  1  0  0  0
 76 87  1  0  0  0
 77 80  1  0  0  0
 77 84  1  0  0  0
 77 85  2  0  0  0
 78 81  1  0  0  0
 78149  1  0  0  0
 78150  1  0  0  0
 78151  1  0  0  0
 79 83  1  0  0  0
 79152  1  0  0  0
 79153  1  0  0  0
 80154  1  0  0  0
 80155  1  0  0  0
 81 82  1  0  0  0
 81156  1  0  0  0
 81157  1  0  0  0
 82 84  1  0  0  0
 82158  1  0  0  0
 82159  1  0  0  0
 83160  1  0  0  0
M  ISO  4   1 100  68 101  80 101  83 100
M  END
> <chiral flag>
0

> <version>
0

> <s_m_source_file>
/data/baiqing/PycharmProjects/Reinvent-master-3.2/result/LINK_invent/BTK/process_docking_weight1_custom_product_contain_oxygen_bond_distance_aromatic_linkinvent_7_9_3/rearranged_h_0026.sdf

> <i_m_source_file_index>
31

> <r_mmod_Potential_Energy-OPLS-2005>
262.666015625

> <r_mmod_Stretch_Energy-OPLS-2005>
140.16943359375

> <r_mmod_Bend_Energy-OPLS-2005>
184.043716430664

> <r_mmod_Torsional_Energy-OPLS-2005>
250.031646728516

> <r_mmod_Improper_Torsional_Energy-OPLS-2005>
6.53528594970703

> <r_mmod_Van_der_Waal_Energy-OPLS-2005>
155.483612060547

> <r_mmod_Electrostatic_Energy-OPLS-2005>
-332.140655517578

> <r_mmod_Solvation_Energy-OPLS-2005>
-221.650466918945

> <b_mmod_Minimization_Converged-OPLS-2005>
0

> <r_mmod_RMS_Derivative-OPLS-2005>
4.0899829864502

$$$$
31
                    3D
 Structure written by MMmdl.
180190  0  0  1  0            999 V2000
  -30.7036  -14.5862   20.5783 C   0  0  0  0  0  0
  -30.4155  -12.3633   19.4890 C   0  0  0  0  0  0
  -29.5148  -12.4752   18.2457 C   0  0  0  0  0  0
  -28.0298  -12.3535   18.6386 C   0  0  0  0  0  0
  -27.6461  -13.2129   19.8736 C   0  0  2  0  0  0
  -28.6867  -13.0831   21.0119 C   0  0  0  0  0  0
  -25.2482  -13.8095   20.5680 C   0  0  0  0  0  0
  -24.1765  -13.0346   20.9186 C   0  0  0  0  0  0
  -24.6352  -11.6829   20.8796 C   0  0  0  0  0  0
  -23.9059  -10.4209   21.0463 C   0  0  0  0  0  0
  -24.3598   -9.4109   21.9235 C   0  0  0  0  0  0
  -23.6248   -8.2158   22.0769 C   0  0  0  0  0  0
  -22.4251   -8.0219   21.3529 C   0  0  0  0  0  0
  -21.9893   -9.0218   20.4664 C   0  0  0  0  0  0
  -22.7242  -10.2078   20.3101 C   0  0  0  0  0  0
  -21.6824   -6.0691   22.5268 C   0  0  0  0  0  0
  -21.4010   -6.5608   23.8201 C   0  0  0  0  0  0
  -21.3678   -5.6781   24.9173 C   0  0  0  0  0  0
  -21.6062   -4.3034   24.7241 C   0  0  0  0  0  0
  -21.8800   -3.8113   23.4368 C   0  0  0  0  0  0
  -21.9161   -4.6926   22.3410 C   0  0  0  0  0  0
  -22.7803  -13.5164   21.1852 C   0  0  0  0  0  0
  -22.1617   -4.2100   21.0991 F   0  0  0  0  0  0
  -21.5659   -3.4519   25.7760 F   0  0  0  0  0  0
  -30.0065  -13.4084   20.4588 N   0  0  0  0  0  0
  -26.2924  -12.9287   20.3366 N   0  0  0  0  0  0
  -25.9286  -11.6445   20.5837 N   0  0  0  0  0  0
  -22.0411  -12.8224   22.0441 N   0  0  0  0  0  0
  -25.4099  -15.1832   20.4063 N   0  0  0  0  0  0
  -31.7972  -14.7056   20.0220 O   0  0  0  0  0  0
  -21.6611   -6.8820   21.4224 O   0  0  0  0  0  0
  -22.3524  -14.5451   20.6651 O   0  0  0  0  0  0
  -24.6240  -31.8606   23.2060 C   0  0  0  0  0  0
  -25.9094  -32.4811   23.8379 C   0  0  1  0  0  0
  -27.2454  -27.3734   20.1076 C   0  0  0  0  0  0
  -25.5957  -33.8611   24.2311 N   0  0  0  0  0  0
  -23.4159  -30.4808   21.5461 C   0  0  2  0  0  0
  -24.8627  -28.9307   20.1232 C   0  0  0  0  0  0
  -22.7466  -29.4607   22.4965 C   0  0  0  0  0  0
  -18.0280  -28.1373   22.8479 C   0  0  0  0  0  0
  -24.1469  -36.7314   23.2631 C   0  0  0  0  0  0
  -25.9492  -30.8112   21.3611 C   0  0  0  0  0  0
  -26.0248  -29.4361   20.7131 C   0  0  0  0  0  0
  -27.2157  -28.6665   20.6955 C   0  0  0  0  0  0
  -26.0548  -26.8851   19.5255 C   0  0  0  0  0  0
  -24.8724  -27.6543   19.5310 C   0  0  0  0  0  0
  -23.6309  -29.8092   20.1647 C   0  0  0  0  0  0
  -25.4090  -36.3106   24.0328 C   0  0  1  0  0  0
  -20.5879  -28.3657   23.1312 C   0  0  2  0  0  0
  -20.6763  -26.9392   22.5411 C   0  0  0  0  0  0
  -19.5731  -26.6383   21.5204 C   0  0  0  0  0  0
  -18.1913  -26.7924   22.1604 C   0  0  0  0  0  0
  -19.1531  -28.8829   23.2889 C   0  0  0  0  0  0
  -18.9459  -30.1444   23.8895 C   0  0  0  0  0  0
  -17.6459  -30.6579   24.0559 C   0  0  0  0  0  0
  -25.9030  -34.9489   23.5103 C   0  0  0  0  0  0
  -16.5336  -29.9081   23.6334 C   0  0  0  0  0  0
  -16.7275  -28.6496   23.0343 C   0  0  0  0  0  0
  -26.4488  -31.6636   25.0747 C   0  0  0  0  0  0
  -25.3769  -31.3789   26.1529 C   0  0  0  0  0  0
  -27.0321  -30.3067   24.6163 C   0  0  0  0  0  0
  -27.6029  -32.4383   25.7544 C   0  0  0  0  0  0
  -27.5560  -37.1814   24.8467 C   0  0  0  0  0  0
  -21.4177  -29.3044   22.3725 N   0  0  0  0  0  0
  -26.4268  -37.3799   23.9411 N   0  0  0  0  0  0
  -24.6815  -31.0675   22.0956 N   0  0  0  0  0  0
  -23.4205  -28.8128   23.3011 O   0  0  0  0  0  0
  -28.4295  -26.6453   20.1409 O   0  0  0  0  0  0
  -26.5562  -34.8936   22.4643 O   0  0  0  0  0  0
  -23.5420  -32.1359   23.7417 O   0  0  0  0  0  0
  -28.0510  -18.7421   18.2068 C   0  0  0  0  0  0
  -29.0196  -19.0534   20.7847 C   0  0  0  0  0  0
  -28.5847  -17.6265   18.8781 C   0  0  0  0  0  0
  -28.9681  -17.7268   20.2373 C   0  0  0  0  0  0
  -27.8724  -20.0001   18.8264 C   0  0  0  0  0  0
  -28.5271  -20.2115   20.0866 C   0  0  0  0  0  0
  -24.9652  -21.2760   16.9802 C   0  0  0  0  0  0
  -24.6645  -21.3038   18.4732 C   0  0  0  0  0  0
  -32.4862  -15.9374   22.7076 C   0  0  0  0  0  0
  -31.8121  -17.2725   22.5175 C   0  0  0  0  0  0
  -26.4238  -20.8214   16.8919 C   0  0  0  0  0  0
  -26.0192  -21.6034   19.1012 C   0  0  0  0  0  0
  -30.9631  -16.0207   22.5844 C   0  0  0  0  0  0
  -28.6069  -16.3335   18.0933 C   0  0  0  0  0  0
  -30.1859  -15.6602   23.8503 C   0  0  0  0  0  0
  -29.0157  -16.4483   21.1470 C   0  0  0  0  0  0
  -28.4181  -24.0842   20.5105 C   0  0  0  0  0  0
  -28.9401  -22.7293   19.9035 C   0  0  0  0  0  0
  -28.5708  -25.3204   19.5554 C   0  0  0  0  0  0
  -27.0083  -20.9667   18.2312 N   0  0  0  0  0  0
  -28.6427  -21.5015   20.6950 N   0  0  0  0  0  0
  -30.2385  -15.6014   21.3889 N   0  0  0  0  0  0
  -31.4667  -12.4289   19.2052 H   0  0  0  0  0  0
  -30.3066  -11.3761   19.9422 H   0  0  0  0  0  0
  -29.7796  -11.6916   17.5344 H   0  0  0  0  0  0
  -29.7004  -13.4209   17.7369 H   0  0  0  0  0  0
  -27.8421  -11.3034   18.8593 H   0  0  0  0  0  0
  -27.3928  -12.6060   17.7908 H   0  0  0  0  0  0
  -27.6428  -14.2393   19.5272 H   0  0  0  0  0  0
  -28.6886  -12.0647   21.4032 H   0  0  0  0  0  0
  -28.4339  -13.7135   21.8646 H   0  0  0  0  0  0
  -25.2711   -9.5557   22.4857 H   0  0  0  0  0  0
  -23.9902   -7.4563   22.7519 H   0  0  0  0  0  0
  -21.0786   -8.8771   19.9010 H   0  0  0  0  0  0
  -22.3694  -10.9647   19.6236 H   0  0  0  0  0  0
  -21.1992   -7.6115   23.9672 H   0  0  0  0  0  0
  -21.1557   -6.0531   25.9075 H   0  0  0  0  0  0
  -22.0575   -2.7572   23.2886 H   0  0  0  0  0  0
  -22.3954  -11.9879   22.4899 H   0  0  0  0  0  0
  -21.1085  -13.1375   22.2683 H   0  0  0  0  0  0
  -24.6232  -15.8166   20.4926 H   0  0  0  0  0  0
  -26.2414  -15.6346   20.0531 H   0  0  0  0  0  0
  -26.7186  -32.5479   23.1165 H   0  0  0  0  0  0
  -25.0244  -33.9743   25.0555 H   0  0  0  0  0  0
  -22.7099  -31.3008   21.4016 H   0  0  0  0  0  0
  -23.3727  -35.9661   23.3315 H   0  0  0  0  0  0
  -24.3556  -36.8892   22.2045 H   0  0  0  0  0  0
  -23.7236  -37.6524   23.6633 H   0  0  0  0  0  0
  -26.0659  -31.5673   20.5835 H   0  0  0  0  0  0
  -26.8396  -30.8748   21.9788 H   0  0  0  0  0  0
  -28.1197  -29.0584   21.1417 H   0  0  0  0  0  0
  -26.0075  -25.9028   19.0815 H   0  0  0  0  0  0
  -23.9777  -27.2439   19.0865 H   0  0  0  0  0  0
  -23.7733  -30.5858   19.4136 H   0  0  0  0  0  0
  -22.7500  -29.2515   19.8429 H   0  0  0  0  0  0
  -25.1279  -36.1950   25.0826 H   0  0  0  0  0  0
  -20.9978  -28.3231   24.1425 H   0  0  0  0  0  0
  -20.5667  -26.2267   23.3587 H   0  0  0  0  0  0
  -21.6621  -26.7423   22.1181 H   0  0  0  0  0  0
  -19.6881  -25.6308   21.1209 H   0  0  0  0  0  0
  -19.6667  -27.3201   20.6738 H   0  0  0  0  0  0
  -17.4184  -26.6685   21.4015 H   0  0  0  0  0  0
  -18.0298  -26.0064   22.8992 H   0  0  0  0  0  0
  -19.7932  -30.7261   24.2251 H   0  0  0  0  0  0
  -17.5007  -31.6253   24.5172 H   0  0  0  0  0  0
  -15.5338  -30.2969   23.7676 H   0  0  0  0  0  0
  -15.8660  -28.0828   22.7049 H   0  0  0  0  0  0
  -24.5920  -30.7131   25.7946 H   0  0  0  0  0  0
  -24.9010  -32.2964   26.4993 H   0  0  0  0  0  0
  -25.8168  -30.9001   27.0289 H   0  0  0  0  0  0
  -26.2875  -29.6845   24.1193 H   0  0  0  0  0  0
  -27.4041  -29.7298   25.4645 H   0  0  0  0  0  0
  -27.8735  -30.4372   23.9356 H   0  0  0  0  0  0
  -27.2592  -33.3658   26.2142 H   0  0  0  0  0  0
  -28.3857  -32.6978   25.0415 H   0  0  0  0  0  0
  -28.0687  -31.8517   26.5474 H   0  0  0  0  0  0
  -28.2604  -38.0083   24.7476 H   0  0  0  0  0  0
  -28.1017  -36.2613   24.6336 H   0  0  0  0  0  0
  -27.2280  -37.1533   25.8869 H   0  0  0  0  0  0
  -20.9356  -29.8816   21.6973 H   0  0  0  0  0  0
  -26.0150  -38.2868   24.1429 H   0  0  0  0  0  0
  -27.7088  -18.5560   17.2070 H   0  0  0  0  0  0
  -29.3802  -19.1750   21.7965 H   0  0  0  0  0  0
  -24.8534  -22.2673   16.5376 H   0  0  0  0  0  0
  -24.2907  -20.6004   16.4519 H   0  0  0  0  0  0
  -24.3199  -20.3208   18.7931 H   0  0  0  0  0  0
  -23.8951  -22.0273   18.7454 H   0  0  0  0  0  0
  -32.9197  -15.7527   23.6885 H   0  0  0  0  0  0
  -33.1013  -15.5809   21.8857 H   0  0  0  0  0  0
  -31.9416  -17.7538   21.5502 H   0  0  0  0  0  0
  -31.7718  -17.9482   23.3702 H   0  0  0  0  0  0
  -26.9685  -21.4417   16.1807 H   0  0  0  0  0  0
  -26.4126  -19.8099   16.4932 H   0  0  0  0  0  0
  -26.0514  -21.2539   20.1355 H   0  0  0  0  0  0
  -26.1961  -22.6801   19.1139 H   0  0  0  0  0  0
  -29.1268  -16.4764   17.1429 H   0  0  0  0  0  0
  -27.5879  -16.0103   17.8756 H   0  0  0  0  0  0
  -29.1304  -15.5439   18.6137 H   0  0  0  0  0  0
  -30.8519  -15.5867   24.7093 H   0  0  0  0  0  0
  -29.6763  -14.7003   23.7468 H   0  0  0  0  0  0
  -29.4508  -16.4272   24.0918 H   0  0  0  0  0  0
  -28.6390  -16.8010   22.1062 H   0  0  0  0  0  0
  -28.2064  -15.7998   20.8322 H   0  0  0  0  0  0
  -28.9797  -24.2919   21.4202 H   0  0  0  0  0  0
  -27.3757  -23.9849   20.8133 H   0  0  0  0  0  0
  -30.0238  -22.7968   19.8099 H   0  0  0  0  0  0
  -28.5951  -22.6601   18.8722 H   0  0  0  0  0  0
  -27.9717  -25.2027   18.6539 H   0  0  0  0  0  0
  -29.6004  -25.2913   19.1929 H   0  0  0  0  0  0
  -29.0436  -21.4916   21.6284 H   0  0  0  0  0  0
  1 25  1  0  0  0
  1 30  2  0  0  0
  1 92  1  0  0  0
  2  3  1  0  0  0
  2 25  1  0  0  0
  2 93  1  0  0  0
  2 94  1  0  0  0
  3  4  1  0  0  0
  3 95  1  0  0  0
  3 96  1  0  0  0
  4  5  1  0  0  0
  4 97  1  0  0  0
  4 98  1  0  0  0
  5  6  1  0  0  0
  5 26  1  0  0  0
  5 99  1  0  0  0
  6 25  1  0  0  0
  6100  1  0  0  0
  6101  1  0  0  0
  7  8  2  0  0  0
  7 26  1  0  0  0
  7 29  1  0  0  0
  8  9  1  0  0  0
  8 22  1  0  0  0
  9 10  1  0  0  0
  9 27  2  0  0  0
 10 11  2  0  0  0
 10 15  1  0  0  0
 11 12  1  0  0  0
 11102  1  0  0  0
 12 13  2  0  0  0
 12103  1  0  0  0
 13 14  1  0  0  0
 13 31  1  0  0  0
 14 15  2  0  0  0
 14104  1  0  0  0
 15105  1  0  0  0
 16 17  2  0  0  0
 16 21  1  0  0  0
 16 31  1  0  0  0
 17 18  1  0  0  0
 17106  1  0  0  0
 18 19  2  0  0  0
 18107  1  0  0  0
 19 20  1  0  0  0
 19 24  1  0  0  0
 20 21  2  0  0  0
 20108  1  0  0  0
 21 23  1  0  0  0
 22 28  1  0  0  0
 22 32  2  0  0  0
 26 27  1  0  0  0
 28109  1  0  0  0
 28110  1  0  0  0
 29111  1  0  0  0
 29112  1  0  0  0
 33 34  1  0  0  0
 33 66  1  0  0  0
 33 70  2  0  0  0
 34 36  1  0  0  0
 34 59  1  0  0  0
 34113  1  0  0  0
 35 44  2  0  0  0
 35 45  1  0  0  0
 35 68  1  0  0  0
 36 56  1  0  0  0
 36114  1  0  0  0
 37 39  1  0  0  0
 37 47  1  0  0  0
 37 66  1  0  0  0
 37115  1  0  0  0
 38 43  2  0  0  0
 38 46  1  0  0  0
 38 47  1  0  0  0
 39 64  1  0  0  0
 39 67  2  0  0  0
 40 52  1  0  0  0
 40 53  2  0  0  0
 40 58  1  0  0  0
 41116  1  0  0  0
 41117  1  0  0  0
 41118  1  0  0  0
 41 48  1  0  0  0
 42 43  1  0  0  0
 42 66  1  0  0  0
 42119  1  0  0  0
 42120  1  0  0  0
 43 44  1  0  0  0
 44121  1  0  0  0
 45 46  2  0  0  0
 45122  1  0  0  0
 46123  1  0  0  0
 47124  1  0  0  0
 47125  1  0  0  0
 48 56  1  0  0  0
 48 65  1  0  0  0
 48126  1  0  0  0
 49 50  1  0  0  0
 49 53  1  0  0  0
 49 64  1  0  0  0
 49127  1  0  0  0
 50 51  1  0  0  0
 50128  1  0  0  0
 50129  1  0  0  0
 51 52  1  0  0  0
 51130  1  0  0  0
 51131  1  0  0  0
 52132  1  0  0  0
 52133  1  0  0  0
 53 54  1  0  0  0
 54 55  2  0  0  0
 54134  1  0  0  0
 55 57  1  0  0  0
 55135  1  0  0  0
 56 69  2  0  0  0
 57 58  2  0  0  0
 57136  1  0  0  0
 58137  1  0  0  0
 59 60  1  0  0  0
 59 61  1  0  0  0
 59 62  1  0  0  0
 60138  1  0  0  0
 60139  1  0  0  0
 60140  1  0  0  0
 61141  1  0  0  0
 61142  1  0  0  0
 61143  1  0  0  0
 62144  1  0  0  0
 62145  1  0  0  0
 62146  1  0  0  0
 63 65  1  0  0  0
 63147  1  0  0  0
 63148  1  0  0  0
 63149  1  0  0  0
 64150  1  0  0  0
 65151  1  0  0  0
 68 89  1  0  0  0
 71 73  2  0  0  0
 71 75  1  0  0  0
 71152  1  0  0  0
 72 74  2  0  0  0
 72 76  1  0  0  0
 72153  1  0  0  0
 73 74  1  0  0  0
 73 84  1  0  0  0
 74 86  1  0  0  0
 75 76  2  0  0  0
 75 90  1  0  0  0
 76 91  1  0  0  0
 77 78  1  0  0  0
 77 81  1  0  0  0
 77154  1  0  0  0
 77155  1  0  0  0
 78 82  1  0  0  0
 78156  1  0  0  0
 78157  1  0  0  0
 79 80  1  0  0  0
 79 83  1  0  0  0
 79158  1  0  0  0
 79159  1  0  0  0
 80 83  1  0  0  0
 80160  1  0  0  0
 80161  1  0  0  0
 81 90  1  0  0  0
 81162  1  0  0  0
 81163  1  0  0  0
 82 90  1  0  0  0
 82164  1  0  0  0
 82165  1  0  0  0
 83 85  1  0  0  0
 83 92  1  0  0  0
 84166  1  0  0  0
 84167  1  0  0  0
 84168  1  0  0  0
 85169  1  0  0  0
 85170  1  0  0  0
 85171  1  0  0  0
 86 92  1  0  0  0
 86172  1  0  0  0
 86173  1  0  0  0
 87 88  1  0  0  0
 87 89  1  0  0  0
 87174  1  0  0  0
 87175  1  0  0  0
 88 91  1  0  0  0
 88176  1  0  0  0
 88177  1  0  0  0
 89178  1  0  0  0
 89179  1  0  0  0
 91180  1  0  0  0
M  ISO  4   1 100  68 101  89 101  92 100
M  END
> <chiral flag>
0

> <version>
0

> <s_m_source_file>
/data/baiqing/PycharmProjects/Reinvent-master-3.2/result/LINK_invent/BTK/process_docking_weight1_custom_product_contain_oxygen_bond_distance_aromatic_linkinvent_7_9_3/rearranged_h_0026.sdf

> <i_m_source_file_index>
32

> <r_mmod_Potential_Energy-OPLS-2005>
453.124877929688

> <r_mmod_Stretch_Energy-OPLS-2005>
76.6447067260742

> <r_mmod_Bend_Energy-OPLS-2005>
207.384841918945

> <r_mmod_Torsional_Energy-OPLS-2005>
482.75146484375

> <r_mmod_Improper_Torsional_Energy-OPLS-2005>
10.8382234573364

> <r_mmod_Van_der_Waal_Energy-OPLS-2005>
152.520401000977

> <r_mmod_Electrostatic_Energy-OPLS-2005>
-295.158355712891

> <r_mmod_Solvation_Energy-OPLS-2005>
-211.695343017578

> <b_mmod_Minimization_Converged-OPLS-2005>
0

> <r_mmod_RMS_Derivative-OPLS-2005>
5.25974941253662

$$$$
32
                    3D
 Structure written by MMmdl.
164173  0  0  1  0            999 V2000
  -30.6604  -14.5343   20.5509 C   0  0  0  0  0  0
  -30.4441  -12.3479   19.4324 C   0  0  0  0  0  0
  -29.5025  -12.5096   18.2181 C   0  0  0  0  0  0
  -28.0181  -12.3985   18.6246 C   0  0  0  0  0  0
  -27.6658  -13.2214   19.8906 C   0  0  2  0  0  0
  -28.7108  -12.9849   21.0034 C   0  0  0  0  0  0
  -25.2561  -13.8224   20.5745 C   0  0  0  0  0  0
  -24.1809  -13.0473   20.9245 C   0  0  0  0  0  0
  -24.6402  -11.6945   20.8823 C   0  0  0  0  0  0
  -23.9090  -10.4270   21.0458 C   0  0  0  0  0  0
  -24.3624   -9.4140   21.9195 C   0  0  0  0  0  0
  -23.6273   -8.2191   22.0742 C   0  0  0  0  0  0
  -22.4249   -8.0255   21.3542 C   0  0  0  0  0  0
  -21.9906   -9.0247   20.4665 C   0  0  0  0  0  0
  -22.7271  -10.2106   20.3093 C   0  0  0  0  0  0
  -21.6809   -6.0733   22.5276 C   0  0  0  0  0  0
  -21.3973   -6.5634   23.8213 C   0  0  0  0  0  0
  -21.3661   -5.6786   24.9188 C   0  0  0  0  0  0
  -21.6049   -4.3052   24.7240 C   0  0  0  0  0  0
  -21.8807   -3.8144   23.4357 C   0  0  0  0  0  0
  -21.9186   -4.6964   22.3414 C   0  0  0  0  0  0
  -22.7804  -13.5231   21.1882 C   0  0  0  0  0  0
  -22.1640   -4.2158   21.0992 F   0  0  0  0  0  0
  -21.5664   -3.4534   25.7751 F   0  0  0  0  0  0
  -30.0368  -13.3217   20.4600 N   0  0  0  0  0  0
  -26.3020  -12.9407   20.3453 N   0  0  0  0  0  0
  -25.9344  -11.6547   20.5864 N   0  0  0  0  0  0
  -22.0433  -12.8227   22.0448 N   0  0  0  0  0  0
  -25.4326  -15.1955   20.4176 N   0  0  0  0  0  0
  -31.7861  -14.7342   20.0861 O   0  0  0  0  0  0
  -21.6595   -6.8867   21.4229 O   0  0  0  0  0  0
  -22.3448  -14.5493   20.6682 O   0  0  0  0  0  0
  -24.6227  -31.8660   23.2116 C   0  0  0  0  0  0
  -25.9123  -32.4805   23.8410 C   0  0  1  0  0  0
  -27.2245  -27.3732   20.1267 C   0  0  0  0  0  0
  -25.5984  -33.8600   24.2351 N   0  0  0  0  0  0
  -23.4111  -30.4960   21.5507 C   0  0  2  0  0  0
  -24.8609  -28.9723   20.1042 C   0  0  0  0  0  0
  -22.7457  -29.4654   22.4934 C   0  0  0  0  0  0
  -18.0293  -28.1363   22.8489 C   0  0  0  0  0  0
  -24.1488  -36.7261   23.2624 C   0  0  0  0  0  0
  -25.9510  -30.8165   21.3770 C   0  0  0  0  0  0
  -26.0272  -29.4534   20.7128 C   0  0  0  0  0  0
  -27.2133  -28.6698   20.7116 C   0  0  0  0  0  0
  -26.0342  -26.9392   19.4901 C   0  0  0  0  0  0
  -24.8672  -27.7196   19.4770 C   0  0  0  0  0  0
  -23.6272  -29.8455   20.1583 C   0  0  0  0  0  0
  -25.4115  -36.3106   24.0337 C   0  0  1  0  0  0
  -20.5895  -28.3654   23.1294 C   0  0  2  0  0  0
  -20.6782  -26.9377   22.5435 C   0  0  0  0  0  0
  -19.5762  -26.6375   21.5231 C   0  0  0  0  0  0
  -18.1931  -26.7917   22.1614 C   0  0  0  0  0  0
  -19.1551  -28.8836   23.2892 C   0  0  0  0  0  0
  -18.9468  -30.1447   23.8883 C   0  0  0  0  0  0
  -17.6464  -30.6564   24.0571 C   0  0  0  0  0  0
  -25.9056  -34.9468   23.5128 C   0  0  0  0  0  0
  -16.5353  -29.9056   23.6327 C   0  0  0  0  0  0
  -16.7284  -28.6485   23.0328 C   0  0  0  0  0  0
  -26.4538  -31.6566   25.0737 C   0  0  0  0  0  0
  -25.3802  -31.3674   26.1487 C   0  0  0  0  0  0
  -27.0340  -30.2984   24.6157 C   0  0  0  0  0  0
  -27.6156  -32.4249   25.7445 C   0  0  0  0  0  0
  -27.5593  -37.1803   24.8471 C   0  0  0  0  0  0
  -21.4189  -29.2995   22.3662 N   0  0  0  0  0  0
  -26.4295  -37.3811   23.9421 N   0  0  0  0  0  0
  -24.6800  -31.0737   22.1028 N   0  0  0  0  0  0
  -23.4222  -28.8187   23.2990 O   0  0  0  0  0  0
  -28.3419  -26.5351   20.2170 O   0  0  0  0  0  0
  -26.5593  -34.8918   22.4685 O   0  0  0  0  0  0
  -23.5418  -32.1430   23.7497 O   0  0  0  0  0  0
  -28.9804  -18.0815   18.4644 C   0  0  0  0  0  0
  -29.6772  -18.0501   21.1819 C   0  0  0  0  0  0
  -28.9095  -19.2839   19.1999 C   0  0  0  0  0  0
  -29.3242  -19.2913   20.5643 C   0  0  0  0  0  0
  -29.7012  -16.8259   20.4448 C   0  0  0  0  0  0
  -29.3616  -16.8740   19.0709 C   0  0  0  0  0  0
  -28.8668  -22.8362   21.0018 C   0  0  0  0  0  0
  -29.1169  -24.0530   20.4386 C   0  0  0  0  0  0
  -29.8019  -21.7019   20.9491 C   0  0  0  0  0  0
  -26.0599  -20.4258   17.9727 C   0  0  0  0  0  0
  -26.9229  -20.4554   16.7032 C   0  0  0  0  0  0
  -27.0151  -20.8006   19.1003 C   0  0  0  0  0  0
  -28.3646  -20.6631   17.1845 C   0  0  0  0  0  0
  -28.0199  -25.1107   20.2156 C   0  0  0  0  0  0
  -28.3455  -20.4440   18.6231 N   0  0  0  0  0  0
  -29.2347  -20.5223   21.3167 N   0  0  0  0  0  0
  -29.9303  -15.5478   21.0800 N   0  0  0  0  0  0
  -30.9730  -21.7714   20.5600 O   0  0  0  0  0  0
  -29.3101  -15.7467   18.3243 F   0  0  0  0  0  0
  -31.4797  -12.4931   19.1170 H   0  0  0  0  0  0
  -30.3972  -11.3339   19.8324 H   0  0  0  0  0  0
  -29.7302  -11.7632   17.4593 H   0  0  0  0  0  0
  -29.6804  -13.4721   17.7392 H   0  0  0  0  0  0
  -27.8033  -11.3442   18.8047 H   0  0  0  0  0  0
  -27.3765  -12.7109   17.7996 H   0  0  0  0  0  0
  -27.7107  -14.2756   19.6159 H   0  0  0  0  0  0
  -28.6897  -11.9367   21.3062 H   0  0  0  0  0  0
  -28.4741  -13.5474   21.9047 H   0  0  0  0  0  0
  -25.2762   -9.5572   22.4792 H   0  0  0  0  0  0
  -23.9976   -7.4549   22.7416 H   0  0  0  0  0  0
  -21.0843   -8.8816   19.8957 H   0  0  0  0  0  0
  -22.3755  -10.9679   19.6229 H   0  0  0  0  0  0
  -21.1895   -7.6125   23.9727 H   0  0  0  0  0  0
  -21.1527   -6.0511   25.9101 H   0  0  0  0  0  0
  -22.0596   -2.7610   23.2865 H   0  0  0  0  0  0
  -22.3987  -11.9884   22.4868 H   0  0  0  0  0  0
  -21.1050  -13.1259   22.2680 H   0  0  0  0  0  0
  -24.6933  -15.8725   20.5729 H   0  0  0  0  0  0
  -26.2999  -15.6171   20.1141 H   0  0  0  0  0  0
  -26.7180  -32.5501   23.1160 H   0  0  0  0  0  0
  -25.0279  -33.9744   25.0594 H   0  0  0  0  0  0
  -22.7012  -31.3150   21.4185 H   0  0  0  0  0  0
  -23.3786  -35.9560   23.3287 H   0  0  0  0  0  0
  -24.3582  -36.8871   22.2043 H   0  0  0  0  0  0
  -23.7189  -37.6447   23.6604 H   0  0  0  0  0  0
  -26.0921  -31.5851   20.6144 H   0  0  0  0  0  0
  -26.8282  -30.8519   22.0106 H   0  0  0  0  0  0
  -28.1038  -29.0367   21.2021 H   0  0  0  0  0  0
  -25.9571  -25.9825   19.0008 H   0  0  0  0  0  0
  -23.9791  -27.3481   18.9843 H   0  0  0  0  0  0
  -23.7475  -30.6324   19.4123 H   0  0  0  0  0  0
  -22.7464  -29.2812   19.8465 H   0  0  0  0  0  0
  -25.1290  -36.1981   25.0829 H   0  0  0  0  0  0
  -21.0026  -28.3258   24.1401 H   0  0  0  0  0  0
  -20.5696  -26.2257   23.3634 H   0  0  0  0  0  0
  -21.6657  -26.7400   22.1240 H   0  0  0  0  0  0
  -19.6921  -25.6303   21.1229 H   0  0  0  0  0  0
  -19.6730  -27.3213   20.6784 H   0  0  0  0  0  0
  -17.4239  -26.6724   21.3968 H   0  0  0  0  0  0
  -18.0276  -26.0041   22.8977 H   0  0  0  0  0  0
  -19.7935  -30.7301   24.2223 H   0  0  0  0  0  0
  -17.4988  -31.6234   24.5200 H   0  0  0  0  0  0
  -15.5341  -30.2946   23.7640 H   0  0  0  0  0  0
  -15.8679  -28.0810   22.6989 H   0  0  0  0  0  0
  -24.6146  -30.6783   25.7897 H   0  0  0  0  0  0
  -24.8782  -32.2787   26.4729 H   0  0  0  0  0  0
  -25.8231  -30.9105   27.0353 H   0  0  0  0  0  0
  -26.2873  -29.6729   24.1258 H   0  0  0  0  0  0
  -27.4116  -29.7245   25.4632 H   0  0  0  0  0  0
  -27.8728  -30.4238   23.9307 H   0  0  0  0  0  0
  -27.2884  -33.3611   26.1961 H   0  0  0  0  0  0
  -28.3990  -32.6680   25.0251 H   0  0  0  0  0  0
  -28.0791  -31.8390   26.5398 H   0  0  0  0  0  0
  -28.2630  -38.0085   24.7541 H   0  0  0  0  0  0
  -28.1073  -36.2625   24.6268 H   0  0  0  0  0  0
  -27.2306  -37.1443   25.8872 H   0  0  0  0  0  0
  -20.9345  -29.8690   21.6863 H   0  0  0  0  0  0
  -26.0184  -38.2886   24.1437 H   0  0  0  0  0  0
  -28.6692  -18.0438   17.4316 H   0  0  0  0  0  0
  -29.9178  -18.0364   22.2346 H   0  0  0  0  0  0
  -27.8878  -22.6698   21.4338 H   0  0  0  0  0  0
  -30.0923  -24.2716   20.0263 H   0  0  0  0  0  0
  -25.6660  -19.4212   18.1383 H   0  0  0  0  0  0
  -25.2129  -21.1114   17.9223 H   0  0  0  0  0  0
  -26.6153  -21.2543   16.0263 H   0  0  0  0  0  0
  -26.8306  -19.5138   16.1630 H   0  0  0  0  0  0
  -26.7378  -20.3089   20.0360 H   0  0  0  0  0  0
  -26.9928  -21.8774   19.2749 H   0  0  0  0  0  0
  -28.6733  -21.6961   17.0182 H   0  0  0  0  0  0
  -29.0824  -20.0330   16.6576 H   0  0  0  0  0  0
  -27.2042  -24.9117   20.9125 H   0  0  0  0  0  0
  -27.6714  -24.8560   19.2167 H   0  0  0  0  0  0
  -28.3795  -20.6133   21.8449 H   0  0  0  0  0  0
  -29.1737  -15.2375   21.6700 H   0  0  0  0  0  0
  1 25  1  0  0  0
  1 30  2  0  0  0
  1 87  1  0  0  0
  2  3  1  0  0  0
  2 25  1  0  0  0
  2 90  1  0  0  0
  2 91  1  0  0  0
  3  4  1  0  0  0
  3 92  1  0  0  0
  3 93  1  0  0  0
  4  5  1  0  0  0
  4 94  1  0  0  0
  4 95  1  0  0  0
  5  6  1  0  0  0
  5 26  1  0  0  0
  5 96  1  0  0  0
  6 25  1  0  0  0
  6 97  1  0  0  0
  6 98  1  0  0  0
  7  8  2  0  0  0
  7 26  1  0  0  0
  7 29  1  0  0  0
  8  9  1  0  0  0
  8 22  1  0  0  0
  9 10  1  0  0  0
  9 27  2  0  0  0
 10 11  2  0  0  0
 10 15  1  0  0  0
 11 12  1  0  0  0
 11 99  1  0  0  0
 12 13  2  0  0  0
 12100  1  0  0  0
 13 14  1  0  0  0
 13 31  1  0  0  0
 14 15  2  0  0  0
 14101  1  0  0  0
 15102  1  0  0  0
 16 17  2  0  0  0
 16 21  1  0  0  0
 16 31  1  0  0  0
 17 18  1  0  0  0
 17103  1  0  0  0
 18 19  2  0  0  0
 18104  1  0  0  0
 19 20  1  0  0  0
 19 24  1  0  0  0
 20 21  2  0  0  0
 20105  1  0  0  0
 21 23  1  0  0  0
 22 28  1  0  0  0
 22 32  2  0  0  0
 26 27  1  0  0  0
 28106  1  0  0  0
 28107  1  0  0  0
 29108  1  0  0  0
 29109  1  0  0  0
 33 34  1  0  0  0
 33 66  1  0  0  0
 33 70  2  0  0  0
 34 36  1  0  0  0
 34 59  1  0  0  0
 34110  1  0  0  0
 35 44  2  0  0  0
 35 45  1  0  0  0
 35 68  1  0  0  0
 36 56  1  0  0  0
 36111  1  0  0  0
 37 39  1  0  0  0
 37 47  1  0  0  0
 37 66  1  0  0  0
 37112  1  0  0  0
 38 43  2  0  0  0
 38 46  1  0  0  0
 38 47  1  0  0  0
 39 64  1  0  0  0
 39 67  2  0  0  0
 40 52  1  0  0  0
 40 53  2  0  0  0
 40 58  1  0  0  0
 41113  1  0  0  0
 41114  1  0  0  0
 41115  1  0  0  0
 41 48  1  0  0  0
 42 43  1  0  0  0
 42 66  1  0  0  0
 42116  1  0  0  0
 42117  1  0  0  0
 43 44  1  0  0  0
 44118  1  0  0  0
 45 46  2  0  0  0
 45119  1  0  0  0
 46120  1  0  0  0
 47121  1  0  0  0
 47122  1  0  0  0
 48 56  1  0  0  0
 48 65  1  0  0  0
 48123  1  0  0  0
 49 50  1  0  0  0
 49 53  1  0  0  0
 49 64  1  0  0  0
 49124  1  0  0  0
 50 51  1  0  0  0
 50125  1  0  0  0
 50126  1  0  0  0
 51 52  1  0  0  0
 51127  1  0  0  0
 51128  1  0  0  0
 52129  1  0  0  0
 52130  1  0  0  0
 53 54  1  0  0  0
 54 55  2  0  0  0
 54131  1  0  0  0
 55 57  1  0  0  0
 55132  1  0  0  0
 56 69  2  0  0  0
 57 58  2  0  0  0
 57133  1  0  0  0
 58134  1  0  0  0
 59 60  1  0  0  0
 59 61  1  0  0  0
 59 62  1  0  0  0
 60135  1  0  0  0
 60136  1  0  0  0
 60137  1  0  0  0
 61138  1  0  0  0
 61139  1  0  0  0
 61140  1  0  0  0
 62141  1  0  0  0
 62142  1  0  0  0
 62143  1  0  0  0
 63 65  1  0  0  0
 63144  1  0  0  0
 63145  1  0  0  0
 63146  1  0  0  0
 64147  1  0  0  0
 65148  1  0  0  0
 68 84  1  0  0  0
 71 73  2  0  0  0
 71 76  1  0  0  0
 71149  1  0  0  0
 72 74  2  0  0  0
 72 75  1  0  0  0
 72150  1  0  0  0
 73 74  1  0  0  0
 73 85  1  0  0  0
 74 86  1  0  0  0
 75 76  2  0  0  0
 75 87  1  0  0  0
 76 89  1  0  0  0
 77 78  2  0  0  0
 77 79  1  0  0  0
 77151  1  0  0  0
 78 84  1  0  0  0
 78152  1  0  0  0
 79 86  1  0  0  0
 79 88  2  0  0  0
 80 81  1  0  0  0
 80 82  1  0  0  0
 80153  1  0  0  0
 80154  1  0  0  0
 81 83  1  0  0  0
 81155  1  0  0  0
 81156  1  0  0  0
 82 85  1  0  0  0
 82157  1  0  0  0
 82158  1  0  0  0
 83 85  1  0  0  0
 83159  1  0  0  0
 83160  1  0  0  0
 84161  1  0  0  0
 84162  1  0  0  0
 86163  1  0  0  0
 87164  1  0  0  0
M  ISO  4   1 100  68 101  84 101  87 100
M  END
> <chiral flag>
0

> <version>
0

> <s_m_source_file>
/data/baiqing/PycharmProjects/Reinvent-master-3.2/result/LINK_invent/BTK/process_docking_weight1_custom_product_contain_oxygen_bond_distance_aromatic_linkinvent_7_9_3/rearranged_h_0026.sdf

> <i_m_source_file_index>
33

> <r_mmod_Potential_Energy-OPLS-2005>
38.7793922424316

> <r_mmod_Stretch_Energy-OPLS-2005>
56.5951538085938

> <r_mmod_Bend_Energy-OPLS-2005>
139.066986083984

> <r_mmod_Torsional_Energy-OPLS-2005>
388.737548828125

> <r_mmod_Improper_Torsional_Energy-OPLS-2005>
16.0370025634766

> <r_mmod_Van_der_Waal_Energy-OPLS-2005>
165.100204467773

> <r_mmod_Electrostatic_Energy-OPLS-2005>
-499.257751464844

> <r_mmod_Solvation_Energy-OPLS-2005>
-255.604858398438

> <b_mmod_Minimization_Converged-OPLS-2005>
0

> <r_mmod_RMS_Derivative-OPLS-2005>
4.63398838043213

$$$$
33
                    3D
 Structure written by MMmdl.
158167  0  0  1  0            999 V2000
  -30.5895  -14.7579   20.4895 C   0  0  0  0  0  0
  -30.4379  -12.4742   19.4617 C   0  0  0  0  0  0
  -29.5070  -12.5122   18.2305 C   0  0  0  0  0  0
  -28.0381  -12.3126   18.6550 C   0  0  0  0  0  0
  -27.6374  -13.2213   19.8453 C   0  0  2  0  0  0
  -28.6814  -13.1686   20.9785 C   0  0  0  0  0  0
  -25.2520  -13.8168   20.5708 C   0  0  0  0  0  0
  -24.1793  -13.0426   20.9204 C   0  0  0  0  0  0
  -24.6367  -11.6899   20.8739 C   0  0  0  0  0  0
  -23.9042  -10.4276   21.0397 C   0  0  0  0  0  0
  -24.3593   -9.4203   21.9184 C   0  0  0  0  0  0
  -23.6278   -8.2235   22.0752 C   0  0  0  0  0  0
  -22.4265   -8.0264   21.3536 C   0  0  0  0  0  0
  -21.9896   -9.0233   20.4634 C   0  0  0  0  0  0
  -22.7216  -10.2120   20.3042 C   0  0  0  0  0  0
  -21.6854   -6.0722   22.5273 C   0  0  0  0  0  0
  -21.4018   -6.5632   23.8204 C   0  0  0  0  0  0
  -21.3666   -5.6789   24.9167 C   0  0  0  0  0  0
  -21.6039   -4.3049   24.7225 C   0  0  0  0  0  0
  -21.8821   -3.8136   23.4347 C   0  0  0  0  0  0
  -21.9194   -4.6950   22.3399 C   0  0  0  0  0  0
  -22.7818  -13.5218   21.1862 C   0  0  0  0  0  0
  -22.1662   -4.2132   21.0981 F   0  0  0  0  0  0
  -21.5633   -3.4536   25.7743 F   0  0  0  0  0  0
  -29.9730  -13.5314   20.3855 N   0  0  0  0  0  0
  -26.2911  -12.9346   20.3262 N   0  0  0  0  0  0
  -25.9290  -11.6501   20.5735 N   0  0  0  0  0  0
  -22.0457  -12.8184   22.0398 N   0  0  0  0  0  0
  -25.4241  -15.1891   20.4187 N   0  0  0  0  0  0
  -31.7973  -14.8585   20.2529 O   0  0  0  0  0  0
  -21.6634   -6.8858   21.4231 O   0  0  0  0  0  0
  -22.3507  -14.5527   20.6709 O   0  0  0  0  0  0
  -24.6332  -31.8523   23.1980 C   0  0  0  0  0  0
  -25.9141  -32.4749   23.8345 C   0  0  1  0  0  0
  -27.2214  -27.2440   20.1476 C   0  0  0  0  0  0
  -25.5919  -33.8558   24.2252 N   0  0  0  0  0  0
  -23.4346  -30.4730   21.5405 C   0  0  2  0  0  0
  -24.8857  -28.9174   20.1101 C   0  0  0  0  0  0
  -22.7547  -29.4555   22.4894 C   0  0  0  0  0  0
  -18.0298  -28.1417   22.8492 C   0  0  0  0  0  0
  -24.1451  -36.7239   23.2659 C   0  0  0  0  0  0
  -25.9839  -30.7559   21.3868 C   0  0  0  0  0  0
  -26.0548  -29.3784   20.7301 C   0  0  0  0  0  0
  -27.2277  -28.5547   20.7343 C   0  0  0  0  0  0
  -26.0348  -26.8581   19.4860 C   0  0  0  0  0  0
  -24.8830  -27.6688   19.4712 C   0  0  0  0  0  0
  -23.6596  -29.8092   20.1559 C   0  0  0  0  0  0
  -25.4083  -36.3066   24.0348 C   0  0  1  0  0  0
  -20.5910  -28.3696   23.1271 C   0  0  2  0  0  0
  -20.6772  -26.9411   22.5409 C   0  0  0  0  0  0
  -19.5740  -26.6401   21.5225 C   0  0  0  0  0  0
  -18.1919  -26.7959   22.1630 C   0  0  0  0  0  0
  -19.1566  -28.8879   23.2878 C   0  0  0  0  0  0
  -18.9495  -30.1478   23.8898 C   0  0  0  0  0  0
  -17.6493  -30.6612   24.0580 C   0  0  0  0  0  0
  -25.9045  -34.9446   23.5108 C   0  0  0  0  0  0
  -16.5377  -29.9116   23.6359 C   0  0  0  0  0  0
  -16.7288  -28.6545   23.0368 C   0  0  0  0  0  0
  -26.4513  -31.6617   25.0769 C   0  0  0  0  0  0
  -25.3739  -31.3740   26.1499 C   0  0  0  0  0  0
  -27.0413  -30.3066   24.6244 C   0  0  0  0  0  0
  -27.6062  -32.4408   25.7508 C   0  0  0  0  0  0
  -27.5544  -37.1759   24.8484 C   0  0  0  0  0  0
  -21.4247  -29.3031   22.3662 N   0  0  0  0  0  0
  -26.4243  -37.3781   23.9449 N   0  0  0  0  0  0
  -24.7032  -31.0457   22.0974 N   0  0  0  0  0  0
  -23.4236  -28.8101   23.3005 O   0  0  0  0  0  0
  -28.3047  -26.3315   20.1949 O   0  0  0  0  0  0
  -26.5642  -34.8928   22.4681 O   0  0  0  0  0  0
  -23.5471  -32.1363   23.7233 O   0  0  0  0  0  0
  -30.8840  -18.5512   22.9828 C   0  0  0  0  0  0
  -30.5725  -17.3161   22.3772 C   0  0  0  0  0  0
  -29.6812  -18.5250   20.4375 C   0  0  0  0  0  0
  -30.6270  -19.7517   22.2966 C   0  0  0  0  0  0
  -29.9701  -19.8109   21.0638 C   0  0  0  0  0  0
  -30.0253  -17.2482   21.0746 C   0  0  0  0  0  0
  -29.0457  -23.7408   20.2546 C   0  0  0  0  0  0
  -31.2161  -21.0797   22.6751 C   0  0  0  0  0  0
  -31.2533  -21.8230   21.3284 C   0  0  0  0  0  0
  -30.0239  -21.3227   20.5106 C   0  0  2  0  0  0
  -27.7539  -21.9537   21.4289 C   0  0  0  0  0  0
  -28.0179  -24.9149   20.6479 C   0  0  0  0  0  0
  -29.7765  -15.8879   20.5384 N   0  0  0  0  0  0
  -28.9414  -22.4097   20.7052 N   0  0  0  0  0  0
  -29.9893  -24.0682   19.5286 O   0  0  0  0  0  0
  -31.4741  -12.6258   19.1546 H   0  0  0  0  0  0
  -30.4028  -11.4975   19.9484 H   0  0  0  0  0  0
  -29.7988  -11.7494   17.5073 H   0  0  0  0  0  0
  -29.6097  -13.4731   17.7232 H   0  0  0  0  0  0
  -27.9176  -11.2651   18.9363 H   0  0  0  0  0  0
  -27.3703  -12.4780   17.8080 H   0  0  0  0  0  0
  -27.6261  -14.2367   19.4495 H   0  0  0  0  0  0
  -28.7277  -12.1756   21.4290 H   0  0  0  0  0  0
  -28.4122  -13.8610   21.7790 H   0  0  0  0  0  0
  -25.2738   -9.5690   22.4756 H   0  0  0  0  0  0
  -23.9989   -7.4629   22.7470 H   0  0  0  0  0  0
  -21.0834   -8.8732   19.8933 H   0  0  0  0  0  0
  -22.3667  -10.9645   19.6134 H   0  0  0  0  0  0
  -21.2008   -7.6138   23.9700 H   0  0  0  0  0  0
  -21.1493   -6.0523   25.9072 H   0  0  0  0  0  0
  -22.0594   -2.7595   23.2855 H   0  0  0  0  0  0
  -22.4079  -11.9829   22.4737 H   0  0  0  0  0  0
  -21.1058  -13.1177   22.2587 H   0  0  0  0  0  0
  -24.6631  -15.8467   20.5538 H   0  0  0  0  0  0
  -26.2751  -15.6348   20.1026 H   0  0  0  0  0  0
  -26.7208  -32.5385   23.1093 H   0  0  0  0  0  0
  -25.0082  -33.9719   25.0412 H   0  0  0  0  0  0
  -22.7328  -31.2965   21.3907 H   0  0  0  0  0  0
  -23.3754  -35.9533   23.3338 H   0  0  0  0  0  0
  -24.3523  -36.8837   22.2069 H   0  0  0  0  0  0
  -23.7152  -37.6415   23.6677 H   0  0  0  0  0  0
  -26.1343  -31.5078   20.6116 H   0  0  0  0  0  0
  -26.8593  -30.8002   22.0228 H   0  0  0  0  0  0
  -28.1208  -28.8977   21.2371 H   0  0  0  0  0  0
  -25.9828  -25.9060   18.9793 H   0  0  0  0  0  0
  -23.9959  -27.3184   18.9626 H   0  0  0  0  0  0
  -23.7957  -30.5913   19.4065 H   0  0  0  0  0  0
  -22.7779  -29.2488   19.8377 H   0  0  0  0  0  0
  -25.1243  -36.1908   25.0842 H   0  0  0  0  0  0
  -21.0006  -28.3266   24.1390 H   0  0  0  0  0  0
  -20.5673  -26.2296   23.3609 H   0  0  0  0  0  0
  -21.6625  -26.7417   22.1184 H   0  0  0  0  0  0
  -19.6879  -25.6327   21.1228 H   0  0  0  0  0  0
  -19.6682  -27.3249   20.6794 H   0  0  0  0  0  0
  -17.4182  -26.6773   21.4030 H   0  0  0  0  0  0
  -18.0276  -26.0096   22.9015 H   0  0  0  0  0  0
  -19.7978  -30.7311   24.2246 H   0  0  0  0  0  0
  -17.5055  -31.6291   24.5195 H   0  0  0  0  0  0
  -15.5385  -30.3027   23.7693 H   0  0  0  0  0  0
  -15.8679  -28.0879   22.7066 H   0  0  0  0  0  0
  -24.5929  -30.7070   25.7825 H   0  0  0  0  0  0
  -24.8922  -32.2898   26.4953 H   0  0  0  0  0  0
  -25.8083  -30.8912   27.0269 H   0  0  0  0  0  0
  -26.3023  -29.6775   24.1281 H   0  0  0  0  0  0
  -27.4170  -29.7363   25.4747 H   0  0  0  0  0  0
  -27.8851  -30.4415   23.9479 H   0  0  0  0  0  0
  -27.2684  -33.3760   26.1994 H   0  0  0  0  0  0
  -28.3888  -32.6894   25.0328 H   0  0  0  0  0  0
  -28.0716  -31.8606   26.5485 H   0  0  0  0  0  0
  -28.2564  -38.0055   24.7543 H   0  0  0  0  0  0
  -28.1030  -36.2586   24.6287 H   0  0  0  0  0  0
  -27.2276  -37.1375   25.8892 H   0  0  0  0  0  0
  -20.9467  -29.8745   21.6844 H   0  0  0  0  0  0
  -26.0123  -38.2832   24.1525 H   0  0  0  0  0  0
  -31.3812  -18.5651   23.9429 H   0  0  0  0  0  0
  -30.7890  -16.4067   22.9209 H   0  0  0  0  0  0
  -29.2685  -18.5207   19.4408 H   0  0  0  0  0  0
  -32.2083  -20.9770   23.1178 H   0  0  0  0  0  0
  -30.5672  -21.5812   23.3934 H   0  0  0  0  0  0
  -32.1526  -21.5004   20.7996 H   0  0  0  0  0  0
  -31.3553  -22.9005   21.4554 H   0  0  0  0  0  0
  -30.2684  -21.2883   19.4482 H   0  0  0  0  0  0
  -27.2117  -22.7557   21.9281 H   0  0  0  0  0  0
  -28.0095  -21.2360   22.2084 H   0  0  0  0  0  0
  -27.0692  -21.4646   20.7351 H   0  0  0  0  0  0
  -27.9762  -24.9520   21.7369 H   0  0  0  0  0  0
  -27.0332  -24.5808   20.3264 H   0  0  0  0  0  0
  -28.8109  -15.6948   20.3199 H   0  0  0  0  0  0
  1 25  1  0  0  0
  1 30  2  0  0  0
  1 83  1  0  0  0
  2  3  1  0  0  0
  2 25  1  0  0  0
  2 86  1  0  0  0
  2 87  1  0  0  0
  3  4  1  0  0  0
  3 88  1  0  0  0
  3 89  1  0  0  0
  4  5  1  0  0  0
  4 90  1  0  0  0
  4 91  1  0  0  0
  5  6  1  0  0  0
  5 26  1  0  0  0
  5 92  1  0  0  0
  6 25  1  0  0  0
  6 93  1  0  0  0
  6 94  1  0  0  0
  7  8  2  0  0  0
  7 26  1  0  0  0
  7 29  1  0  0  0
  8  9  1  0  0  0
  8 22  1  0  0  0
  9 10  1  0  0  0
  9 27  2  0  0  0
 10 11  2  0  0  0
 10 15  1  0  0  0
 11 12  1  0  0  0
 11 95  1  0  0  0
 12 13  2  0  0  0
 12 96  1  0  0  0
 13 14  1  0  0  0
 13 31  1  0  0  0
 14 15  2  0  0  0
 14 97  1  0  0  0
 15 98  1  0  0  0
 16 17  2  0  0  0
 16 21  1  0  0  0
 16 31  1  0  0  0
 17 18  1  0  0  0
 17 99  1  0  0  0
 18 19  2  0  0  0
 18100  1  0  0  0
 19 20  1  0  0  0
 19 24  1  0  0  0
 20 21  2  0  0  0
 20101  1  0  0  0
 21 23  1  0  0  0
 22 28  1  0  0  0
 22 32  2  0  0  0
 26 27  1  0  0  0
 28102  1  0  0  0
 28103  1  0  0  0
 29104  1  0  0  0
 29105  1  0  0  0
 33 34  1  0  0  0
 33 66  1  0  0  0
 33 70  2  0  0  0
 34 36  1  0  0  0
 34 59  1  0  0  0
 34106  1  0  0  0
 35 44  2  0  0  0
 35 45  1  0  0  0
 35 68  1  0  0  0
 36 56  1  0  0  0
 36107  1  0  0  0
 37 39  1  0  0  0
 37 47  1  0  0  0
 37 66  1  0  0  0
 37108  1  0  0  0
 38 43  2  0  0  0
 38 46  1  0  0  0
 38 47  1  0  0  0
 39 64  1  0  0  0
 39 67  2  0  0  0
 40 52  1  0  0  0
 40 53  2  0  0  0
 40 58  1  0  0  0
 41109  1  0  0  0
 41110  1  0  0  0
 41111  1  0  0  0
 41 48  1  0  0  0
 42 43  1  0  0  0
 42 66  1  0  0  0
 42112  1  0  0  0
 42113  1  0  0  0
 43 44  1  0  0  0
 44114  1  0  0  0
 45 46  2  0  0  0
 45115  1  0  0  0
 46116  1  0  0  0
 47117  1  0  0  0
 47118  1  0  0  0
 48 56  1  0  0  0
 48 65  1  0  0  0
 48119  1  0  0  0
 49 50  1  0  0  0
 49 53  1  0  0  0
 49 64  1  0  0  0
 49120  1  0  0  0
 50 51  1  0  0  0
 50121  1  0  0  0
 50122  1  0  0  0
 51 52  1  0  0  0
 51123  1  0  0  0
 51124  1  0  0  0
 52125  1  0  0  0
 52126  1  0  0  0
 53 54  1  0  0  0
 54 55  2  0  0  0
 54127  1  0  0  0
 55 57  1  0  0  0
 55128  1  0  0  0
 56 69  2  0  0  0
 57 58  2  0  0  0
 57129  1  0  0  0
 58130  1  0  0  0
 59 60  1  0  0  0
 59 61  1  0  0  0
 59 62  1  0  0  0
 60131  1  0  0  0
 60132  1  0  0  0
 60133  1  0  0  0
 61134  1  0  0  0
 61135  1  0  0  0
 61136  1  0  0  0
 62137  1  0  0  0
 62138  1  0  0  0
 62139  1  0  0  0
 63 65  1  0  0  0
 63140  1  0  0  0
 63141  1  0  0  0
 63142  1  0  0  0
 64143  1  0  0  0
 65144  1  0  0  0
 68 82  1  0  0  0
 71 72  2  0  0  0
 71 74  1  0  0  0
 71145  1  0  0  0
 72 76  1  0  0  0
 72146  1  0  0  0
 73 75  1  0  0  0
 73 76  2  0  0  0
 73147  1  0  0  0
 74 75  2  0  0  0
 74 78  1  0  0  0
 75 80  1  0  0  0
 76 83  1  0  0  0
 77 82  1  0  0  0
 77 84  1  0  0  0
 77 85  2  0  0  0
 78 79  1  0  0  0
 78148  1  0  0  0
 78149  1  0  0  0
 79 80  1  0  0  0
 79150  1  0  0  0
 79151  1  0  0  0
 80 84  1  0  0  0
 80152  1  0  0  0
 81 84  1  0  0  0
 81153  1  0  0  0
 81154  1  0  0  0
 81155  1  0  0  0
 82156  1  0  0  0
 82157  1  0  0  0
 83158  1  0  0  0
M  ISO  4   1 100  68 101  82 101  83 100
M  END
> <chiral flag>
0

> <version>
0

> <s_m_source_file>
/data/baiqing/PycharmProjects/Reinvent-master-3.2/result/LINK_invent/BTK/process_docking_weight1_custom_product_contain_oxygen_bond_distance_aromatic_linkinvent_7_9_3/rearranged_h_0026.sdf

> <i_m_source_file_index>
34

> <r_mmod_Potential_Energy-OPLS-2005>
316.292297363281

> <r_mmod_Stretch_Energy-OPLS-2005>
140.438110351562

> <r_mmod_Bend_Energy-OPLS-2005>
224.778747558594

> <r_mmod_Torsional_Energy-OPLS-2005>
289.672332763672

> <r_mmod_Improper_Torsional_Energy-OPLS-2005>
12.0949087142944

> <r_mmod_Van_der_Waal_Energy-OPLS-2005>
137.391967773438

> <r_mmod_Electrostatic_Energy-OPLS-2005>
-347.724456787109

> <r_mmod_Solvation_Energy-OPLS-2005>
-239.157241821289

> <b_mmod_Minimization_Converged-OPLS-2005>
0

> <r_mmod_RMS_Derivative-OPLS-2005>
3.11526441574097

$$$$
34
                    3D
 Structure written by MMmdl.
149157  0  0  1  0            999 V2000
  -30.4987  -15.0657   20.3935 C   0  0  0  0  0  0
  -30.4428  -12.6618   19.5298 C   0  0  0  0  0  0
  -29.5325  -12.5431   18.2829 C   0  0  0  0  0  0
  -28.0713  -12.3039   18.7019 C   0  0  0  0  0  0
  -27.6247  -13.2588   19.8390 C   0  0  2  0  0  0
  -28.6594  -13.3435   20.9832 C   0  0  0  0  0  0
  -25.2433  -13.8243   20.5733 C   0  0  0  0  0  0
  -24.1764  -13.0444   20.9244 C   0  0  0  0  0  0
  -24.6395  -11.6933   20.8755 C   0  0  0  0  0  0
  -23.9091  -10.4298   21.0410 C   0  0  0  0  0  0
  -24.3630   -9.4217   21.9196 C   0  0  0  0  0  0
  -23.6302   -8.2251   22.0764 C   0  0  0  0  0  0
  -22.4283   -8.0291   21.3554 C   0  0  0  0  0  0
  -21.9923   -9.0270   20.4656 C   0  0  0  0  0  0
  -22.7255  -10.2146   20.3068 C   0  0  0  0  0  0
  -21.6859   -6.0749   22.5285 C   0  0  0  0  0  0
  -21.4017   -6.5644   23.8222 C   0  0  0  0  0  0
  -21.3661   -5.6795   24.9186 C   0  0  0  0  0  0
  -21.6038   -4.3058   24.7230 C   0  0  0  0  0  0
  -21.8817   -3.8155   23.4348 C   0  0  0  0  0  0
  -21.9195   -4.6976   22.3408 C   0  0  0  0  0  0
  -22.7788  -13.5220   21.1896 C   0  0  0  0  0  0
  -22.1657   -4.2160   21.0986 F   0  0  0  0  0  0
  -21.5626   -3.4539   25.7738 F   0  0  0  0  0  0
  -29.9286  -13.7810   20.3863 N   0  0  0  0  0  0
  -26.2859  -12.9490   20.3249 N   0  0  0  0  0  0
  -25.9335  -11.6607   20.5745 N   0  0  0  0  0  0
  -22.0430  -12.8207   22.0437 N   0  0  0  0  0  0
  -25.4096  -15.1978   20.4163 N   0  0  0  0  0  0
  -31.6967  -15.1116   20.0875 O   0  0  0  0  0  0
  -21.6643   -6.8888   21.4243 O   0  0  0  0  0  0
  -22.3469  -14.5533   20.6750 O   0  0  0  0  0  0
  -24.6495  -31.8340   23.1834 C   0  0  0  0  0  0
  -25.9255  -32.4628   23.8233 C   0  0  1  0  0  0
  -27.2237  -27.0607   20.1635 C   0  0  0  0  0  0
  -25.5980  -33.8434   24.2169 N   0  0  0  0  0  0
  -23.4577  -30.4498   21.5285 C   0  0  2  0  0  0
  -24.9098  -28.8597   20.1074 C   0  0  0  0  0  0
  -22.7594  -29.4489   22.4834 C   0  0  0  0  0  0
  -18.0298  -28.1407   22.8473 C   0  0  0  0  0  0
  -24.1493  -36.7199   23.2649 C   0  0  0  0  0  0
  -26.0168  -30.6852   21.3920 C   0  0  0  0  0  0
  -26.0871  -29.2889   20.7321 C   0  0  0  0  0  0
  -27.2376  -28.4052   20.7409 C   0  0  0  0  0  0
  -26.0209  -26.7471   19.4937 C   0  0  0  0  0  0
  -24.8945  -27.6060   19.4719 C   0  0  0  0  0  0
  -23.6890  -29.7713   20.1498 C   0  0  0  0  0  0
  -25.4135  -36.2983   24.0310 C   0  0  1  0  0  0
  -20.5914  -28.3738   23.1219 C   0  0  2  0  0  0
  -20.6774  -26.9427   22.5408 C   0  0  0  0  0  0
  -19.5767  -26.6388   21.5203 C   0  0  0  0  0  0
  -18.1945  -26.7945   22.1612 C   0  0  0  0  0  0
  -19.1556  -28.8894   23.2837 C   0  0  0  0  0  0
  -18.9475  -30.1482   23.8873 C   0  0  0  0  0  0
  -17.6474  -30.6604   24.0558 C   0  0  0  0  0  0
  -25.9088  -34.9359   23.5060 C   0  0  0  0  0  0
  -16.5366  -29.9092   23.6333 C   0  0  0  0  0  0
  -16.7281  -28.6505   23.0366 C   0  0  0  0  0  0
  -26.4590  -31.6520   25.0700 C   0  0  0  0  0  0
  -25.3797  -31.3684   26.1416 C   0  0  0  0  0  0
  -27.0477  -30.2912   24.6322 C   0  0  0  0  0  0
  -27.6118  -32.4297   25.7490 C   0  0  0  0  0  0
  -27.5565  -37.1758   24.8482 C   0  0  0  0  0  0
  -21.4280  -29.3031   22.3562 N   0  0  0  0  0  0
  -26.4288  -37.3702   23.9410 N   0  0  0  0  0  0
  -24.7281  -31.0131   22.0896 N   0  0  0  0  0  0
  -23.4190  -28.8062   23.3042 O   0  0  0  0  0  0
  -28.2793  -26.0633   20.2925 O   0  0  0  0  0  0
  -26.5665  -34.8865   22.4635 O   0  0  0  0  0  0
  -23.5602  -32.1251   23.7014 O   0  0  0  0  0  0
  -27.4976  -23.5931   21.9296 C   0  0  0  0  0  0
  -30.7369  -18.0979   19.1380 C   0  0  0  0  0  0
  -30.8612  -19.4139   18.6228 C   0  0  0  0  0  0
  -29.1486  -19.0105   20.7045 C   0  0  0  0  0  0
  -29.2688  -20.4397   20.2175 C   0  0  0  0  0  0
  -29.8640  -17.7803   20.2025 C   0  0  0  0  0  0
  -30.1590  -20.5419   19.1219 C   0  0  0  0  0  0
  -28.5501  -21.7710   20.8334 C   0  0  0  0  0  0
  -28.2169  -23.1898   20.7646 C   0  0  0  0  0  0
  -28.3477  -24.5457   19.8054 C   0  0  0  0  0  0
  -26.9053  -23.8731   22.8888 N   0  0  0  0  0  0
  -29.7276  -16.2724   20.6114 N   0  0  0  0  0  0
  -30.4489  -22.0695   18.3685 Cl  0  0  0  0  0  0
  -31.4745  -12.8279   19.2144 H   0  0  0  0  0  0
  -30.4596  -11.7247   20.0909 H   0  0  0  0  0  0
  -29.8743  -11.7314   17.6393 H   0  0  0  0  0  0
  -29.6033  -13.4582   17.6927 H   0  0  0  0  0  0
  -27.9947  -11.2697   19.0413 H   0  0  0  0  0  0
  -27.4083  -12.3892   17.8411 H   0  0  0  0  0  0
  -27.5700  -14.2472   19.3812 H   0  0  0  0  0  0
  -28.7682  -12.3853   21.4930 H   0  0  0  0  0  0
  -28.3336  -14.0609   21.7395 H   0  0  0  0  0  0
  -25.2767   -9.5693   22.4790 H   0  0  0  0  0  0
  -24.0008   -7.4639   22.7485 H   0  0  0  0  0  0
  -21.0858   -8.8795   19.8964 H   0  0  0  0  0  0
  -22.3711  -10.9695   19.6186 H   0  0  0  0  0  0
  -21.2004   -7.6150   23.9727 H   0  0  0  0  0  0
  -21.1484   -6.0525   25.9087 H   0  0  0  0  0  0
  -22.0593   -2.7615   23.2847 H   0  0  0  0  0  0
  -22.4022  -11.9853   22.4816 H   0  0  0  0  0  0
  -21.1057  -13.1263   22.2670 H   0  0  0  0  0  0
  -24.6342  -15.8448   20.5193 H   0  0  0  0  0  0
  -26.2470  -15.6401   20.0599 H   0  0  0  0  0  0
  -26.7318  -32.5212   23.0941 H   0  0  0  0  0  0
  -25.0124  -33.9530   25.0321 H   0  0  0  0  0  0
  -22.7645  -31.2776   21.3661 H   0  0  0  0  0  0
  -23.3759  -35.9522   23.3322 H   0  0  0  0  0  0
  -24.3579  -36.8824   22.2059 H   0  0  0  0  0  0
  -23.7231  -37.6388   23.6683 H   0  0  0  0  0  0
  -26.1811  -31.4382   20.6202 H   0  0  0  0  0  0
  -26.8825  -30.7350   22.0400 H   0  0  0  0  0  0
  -28.1317  -28.7271   21.2555 H   0  0  0  0  0  0
  -25.9123  -25.7847   19.0181 H   0  0  0  0  0  0
  -23.9934  -27.2745   18.9744 H   0  0  0  0  0  0
  -23.8326  -30.5440   19.3925 H   0  0  0  0  0  0
  -22.8022  -29.2165   19.8387 H   0  0  0  0  0  0
  -25.1313  -36.1807   25.0792 H   0  0  0  0  0  0
  -21.0000  -28.3349   24.1350 H   0  0  0  0  0  0
  -20.5662  -26.2342   23.3630 H   0  0  0  0  0  0
  -21.6642  -26.7425   22.1219 H   0  0  0  0  0  0
  -19.6938  -25.6292   21.1244 H   0  0  0  0  0  0
  -19.6727  -27.3187   20.6725 H   0  0  0  0  0  0
  -17.4208  -26.6684   21.4016 H   0  0  0  0  0  0
  -18.0365  -26.0088   22.9013 H   0  0  0  0  0  0
  -19.7950  -30.7298   24.2248 H   0  0  0  0  0  0
  -17.5026  -31.6285   24.5165 H   0  0  0  0  0  0
  -15.5368  -30.2999   23.7677 H   0  0  0  0  0  0
  -15.8670  -28.0818   22.7123 H   0  0  0  0  0  0
  -24.6021  -30.6969   25.7759 H   0  0  0  0  0  0
  -24.8941  -32.2841   26.4796 H   0  0  0  0  0  0
  -25.8128  -30.8916   27.0227 H   0  0  0  0  0  0
  -26.3124  -29.6612   24.1297 H   0  0  0  0  0  0
  -27.4055  -29.7220   25.4914 H   0  0  0  0  0  0
  -27.9036  -30.4139   23.9682 H   0  0  0  0  0  0
  -27.2727  -33.3635   26.1976 H   0  0  0  0  0  0
  -28.3974  -32.6790   25.0349 H   0  0  0  0  0  0
  -28.0736  -31.8479   26.5475 H   0  0  0  0  0  0
  -28.2592  -38.0041   24.7484 H   0  0  0  0  0  0
  -28.1046  -36.2560   24.6370 H   0  0  0  0  0  0
  -27.2270  -37.1472   25.8884 H   0  0  0  0  0  0
  -20.9519  -29.8677   21.6663 H   0  0  0  0  0  0
  -26.0147  -38.2761   24.1428 H   0  0  0  0  0  0
  -31.3173  -17.3185   18.6656 H   0  0  0  0  0  0
  -31.5367  -19.5631   17.7933 H   0  0  0  0  0  0
  -28.4631  -18.8537   21.5254 H   0  0  0  0  0  0
  -28.1426  -21.4046   21.7657 H   0  0  0  0  0  0
  -27.6514  -24.4169   18.9791 H   0  0  0  0  0  0
  -29.3293  -24.4650   19.3425 H   0  0  0  0  0  0
  -28.8429  -16.0643   21.0508 H   0  0  0  0  0  0
  1 25  1  0  0  0
  1 30  2  0  0  0
  1 82  1  0  0  0
  2  3  1  0  0  0
  2 25  1  0  0  0
  2 84  1  0  0  0
  2 85  1  0  0  0
  3  4  1  0  0  0
  3 86  1  0  0  0
  3 87  1  0  0  0
  4  5  1  0  0  0
  4 88  1  0  0  0
  4 89  1  0  0  0
  5  6  1  0  0  0
  5 26  1  0  0  0
  5 90  1  0  0  0
  6 25  1  0  0  0
  6 91  1  0  0  0
  6 92  1  0  0  0
  7  8  2  0  0  0
  7 26  1  0  0  0
  7 29  1  0  0  0
  8  9  1  0  0  0
  8 22  1  0  0  0
  9 10  1  0  0  0
  9 27  2  0  0  0
 10 11  2  0  0  0
 10 15  1  0  0  0
 11 12  1  0  0  0
 11 93  1  0  0  0
 12 13  2  0  0  0
 12 94  1  0  0  0
 13 14  1  0  0  0
 13 31  1  0  0  0
 14 15  2  0  0  0
 14 95  1  0  0  0
 15 96  1  0  0  0
 16 17  2  0  0  0
 16 21  1  0  0  0
 16 31  1  0  0  0
 17 18  1  0  0  0
 17 97  1  0  0  0
 18 19  2  0  0  0
 18 98  1  0  0  0
 19 20  1  0  0  0
 19 24  1  0  0  0
 20 21  2  0  0  0
 20 99  1  0  0  0
 21 23  1  0  0  0
 22 28  1  0  0  0
 22 32  2  0  0  0
 26 27  1  0  0  0
 28100  1  0  0  0
 28101  1  0  0  0
 29102  1  0  0  0
 29103  1  0  0  0
 33 34  1  0  0  0
 33 66  1  0  0  0
 33 70  2  0  0  0
 34 36  1  0  0  0
 34 59  1  0  0  0
 34104  1  0  0  0
 35 44  2  0  0  0
 35 45  1  0  0  0
 35 68  1  0  0  0
 36 56  1  0  0  0
 36105  1  0  0  0
 37 39  1  0  0  0
 37 47  1  0  0  0
 37 66  1  0  0  0
 37106  1  0  0  0
 38 43  2  0  0  0
 38 46  1  0  0  0
 38 47  1  0  0  0
 39 64  1  0  0  0
 39 67  2  0  0  0
 40 52  1  0  0  0
 40 53  2  0  0  0
 40 58  1  0  0  0
 41107  1  0  0  0
 41108  1  0  0  0
 41109  1  0  0  0
 41 48  1  0  0  0
 42 43  1  0  0  0
 42 66  1  0  0  0
 42110  1  0  0  0
 42111  1  0  0  0
 43 44  1  0  0  0
 44112  1  0  0  0
 45 46  2  0  0  0
 45113  1  0  0  0
 46114  1  0  0  0
 47115  1  0  0  0
 47116  1  0  0  0
 48 56  1  0  0  0
 48 65  1  0  0  0
 48117  1  0  0  0
 49 50  1  0  0  0
 49 53  1  0  0  0
 49 64  1  0  0  0
 49118  1  0  0  0
 50 51  1  0  0  0
 50119  1  0  0  0
 50120  1  0  0  0
 51 52  1  0  0  0
 51121  1  0  0  0
 51122  1  0  0  0
 52123  1  0  0  0
 52124  1  0  0  0
 53 54  1  0  0  0
 54 55  2  0  0  0
 54125  1  0  0  0
 55 57  1  0  0  0
 55126  1  0  0  0
 56 69  2  0  0  0
 57 58  2  0  0  0
 57127  1  0  0  0
 58128  1  0  0  0
 59 60  1  0  0  0
 59 61  1  0  0  0
 59 62  1  0  0  0
 60129  1  0  0  0
 60130  1  0  0  0
 60131  1  0  0  0
 61132  1  0  0  0
 61133  1  0  0  0
 61134  1  0  0  0
 62135  1  0  0  0
 62136  1  0  0  0
 62137  1  0  0  0
 63 65  1  0  0  0
 63138  1  0  0  0
 63139  1  0  0  0
 63140  1  0  0  0
 64141  1  0  0  0
 65142  1  0  0  0
 68 80  1  0  0  0
 71 79  1  0  0  0
 71 81  3  0  0  0
 72 73  2  0  0  0
 72 76  1  0  0  0
 72143  1  0  0  0
 73 77  1  0  0  0
 73144  1  0  0  0
 74 75  1  0  0  0
 74 76  2  0  0  0
 74145  1  0  0  0
 75 77  2  0  0  0
 75 78  1  0  0  0
 76 82  1  0  0  0
 77 83  1  0  0  0
 78 79  2  0  0  0
 78146  1  0  0  0
 79 80  1  0  0  0
 80147  1  0  0  0
 80148  1  0  0  0
 82149  1  0  0  0
M  ISO  4   1 100  68 101  80 101  82 100
M  END
> <chiral flag>
0

> <version>
0

> <s_m_source_file>
/data/baiqing/PycharmProjects/Reinvent-master-3.2/result/LINK_invent/BTK/process_docking_weight1_custom_product_contain_oxygen_bond_distance_aromatic_linkinvent_7_9_3/rearranged_h_0026.sdf

> <i_m_source_file_index>
35

> <r_mmod_Potential_Energy-OPLS-2005>
764.316284179688

> <r_mmod_Stretch_Energy-OPLS-2005>
345.970520019531

> <r_mmod_Bend_Energy-OPLS-2005>
375.731719970703

> <r_mmod_Torsional_Energy-OPLS-2005>
212.486724853516

> <r_mmod_Improper_Torsional_Energy-OPLS-2005>
3.3795108795166

> <r_mmod_Van_der_Waal_Energy-OPLS-2005>
125.908355712891

> <r_mmod_Electrostatic_Energy-OPLS-2005>
-349.39501953125

> <r_mmod_Solvation_Energy-OPLS-2005>
-224.065795898438

> <b_mmod_Minimization_Converged-OPLS-2005>
0

> <r_mmod_RMS_Derivative-OPLS-2005>
2.29604268074036

$$$$
35
                    3D
 Structure written by MMmdl.
163172  0  0  1  0            999 V2000
  -30.5645  -14.9825   20.4231 C   0  0  0  0  0  0
  -30.4369  -12.6181   19.5012 C   0  0  0  0  0  0
  -29.5215  -12.5294   18.2594 C   0  0  0  0  0  0
  -28.0587  -12.3058   18.6845 C   0  0  0  0  0  0
  -27.6244  -13.2549   19.8328 C   0  0  2  0  0  0
  -28.6673  -13.3270   20.9686 C   0  0  0  0  0  0
  -25.2437  -13.8227   20.5745 C   0  0  0  0  0  0
  -24.1763  -13.0437   20.9249 C   0  0  0  0  0  0
  -24.6381  -11.6924   20.8748 C   0  0  0  0  0  0
  -23.9052  -10.4303   21.0408 C   0  0  0  0  0  0
  -24.3610   -9.4221   21.9178 C   0  0  0  0  0  0
  -23.6301   -8.2242   22.0734 C   0  0  0  0  0  0
  -22.4286   -8.0283   21.3521 C   0  0  0  0  0  0
  -21.9908   -9.0244   20.4614 C   0  0  0  0  0  0
  -22.7227  -10.2139   20.3045 C   0  0  0  0  0  0
  -21.6849   -6.0726   22.5269 C   0  0  0  0  0  0
  -21.4016   -6.5627   23.8214 C   0  0  0  0  0  0
  -21.3672   -5.6774   24.9169 C   0  0  0  0  0  0
  -21.6059   -4.3031   24.7219 C   0  0  0  0  0  0
  -21.8810   -3.8135   23.4332 C   0  0  0  0  0  0
  -21.9195   -4.6951   22.3399 C   0  0  0  0  0  0
  -22.7781  -13.5219   21.1892 C   0  0  0  0  0  0
  -22.1660   -4.2136   21.0973 F   0  0  0  0  0  0
  -21.5638   -3.4525   25.7732 F   0  0  0  0  0  0
  -29.9364  -13.7371   20.3528 N   0  0  0  0  0  0
  -26.2867  -12.9470   20.3258 N   0  0  0  0  0  0
  -25.9321  -11.6589   20.5745 N   0  0  0  0  0  0
  -22.0413  -12.8229   22.0445 N   0  0  0  0  0  0
  -25.4047  -15.1966   20.4195 N   0  0  0  0  0  0
  -31.7763  -14.9866   20.1818 O   0  0  0  0  0  0
  -21.6646   -6.8878   21.4240 O   0  0  0  0  0  0
  -22.3483  -14.5524   20.6728 O   0  0  0  0  0  0
  -24.6487  -31.8424   23.1830 C   0  0  0  0  0  0
  -25.9245  -32.4675   23.8247 C   0  0  1  0  0  0
  -27.2144  -27.0985   20.1564 C   0  0  0  0  0  0
  -25.6003  -33.8483   24.2176 N   0  0  0  0  0  0
  -23.4558  -30.4576   21.5287 C   0  0  2  0  0  0
  -24.9059  -28.8838   20.1016 C   0  0  0  0  0  0
  -22.7610  -29.4512   22.4822 C   0  0  0  0  0  0
  -18.0323  -28.1410   22.8480 C   0  0  0  0  0  0
  -24.1498  -36.7247   23.2642 C   0  0  0  0  0  0
  -26.0136  -30.6999   21.3929 C   0  0  0  0  0  0
  -26.0802  -29.3069   20.7364 C   0  0  0  0  0  0
  -27.2301  -28.4265   20.7558 C   0  0  0  0  0  0
  -26.0302  -26.8099   19.4392 C   0  0  0  0  0  0
  -24.8959  -27.6506   19.4338 C   0  0  0  0  0  0
  -23.6861  -29.7916   20.1462 C   0  0  0  0  0  0
  -25.4131  -36.3020   24.0312 C   0  0  1  0  0  0
  -20.5942  -28.3724   23.1235 C   0  0  2  0  0  0
  -20.6804  -26.9418   22.5401 C   0  0  0  0  0  0
  -19.5771  -26.6387   21.5208 C   0  0  0  0  0  0
  -18.1957  -26.7952   22.1620 C   0  0  0  0  0  0
  -19.1582  -28.8879   23.2849 C   0  0  0  0  0  0
  -18.9491  -30.1486   23.8849 C   0  0  0  0  0  0
  -17.6482  -30.6580   24.0574 C   0  0  0  0  0  0
  -25.9080  -34.9395   23.5037 C   0  0  0  0  0  0
  -16.5375  -29.9074   23.6358 C   0  0  0  0  0  0
  -16.7304  -28.6516   23.0349 C   0  0  0  0  0  0
  -26.4550  -31.6555   25.0693 C   0  0  0  0  0  0
  -25.3720  -31.3755   26.1373 C   0  0  0  0  0  0
  -27.0437  -30.2959   24.6285 C   0  0  0  0  0  0
  -27.6092  -32.4315   25.7470 C   0  0  0  0  0  0
  -27.5570  -37.1783   24.8473 C   0  0  0  0  0  0
  -21.4290  -29.3037   22.3595 N   0  0  0  0  0  0
  -26.4289  -37.3737   23.9405 N   0  0  0  0  0  0
  -24.7256  -31.0250   22.0885 N   0  0  0  0  0  0
  -23.4232  -28.8069   23.2996 O   0  0  0  0  0  0
  -28.2400  -26.0736   20.2672 O   0  0  0  0  0  0
  -26.5639  -34.8905   22.4599 O   0  0  0  0  0  0
  -23.5590  -32.1318   23.7002 O   0  0  0  0  0  0
  -29.0776  -19.1193   22.4321 C   0  0  0  0  0  0
  -31.3306  -17.6010   21.7544 C   0  0  0  0  0  0
  -29.3808  -18.9014   21.0663 C   0  0  0  0  0  0
  -29.9591  -18.6865   23.4447 C   0  0  0  0  0  0
  -30.2431  -17.6699   20.8510 C   0  0  0  0  0  0
  -31.1576  -18.0420   23.0785 C   0  0  0  0  0  0
  -26.2852  -22.7154   20.6691 C   0  0  0  0  0  0
  -26.7918  -24.1123   21.0716 C   0  0  0  0  0  0
  -27.2253  -21.5773   21.1166 C   0  0  0  0  0  0
  -29.0431  -23.2086   20.2352 C   0  0  0  0  0  0
  -27.9559  -24.5195   20.1555 C   0  0  2  0  0  0
  -29.6608  -19.0049   24.8999 C   0  0  0  0  0  0
  -29.3164  -20.3443   20.2151 C   0  0  0  0  0  0
  -29.8317  -16.2178   20.5011 N   0  0  0  0  0  0
  -28.6623  -21.7263   20.7365 N   0  3  2  0  0  0
  -32.3571  -17.6619   24.2632 Cl  0  0  0  0  0  0
  -31.4702  -12.7705   19.1819 H   0  0  0  0  0  0
  -30.4328  -11.6802   20.0597 H   0  0  0  0  0  0
  -29.8511  -11.7212   17.6031 H   0  0  0  0  0  0
  -29.5998  -13.4521   17.6809 H   0  0  0  0  0  0
  -27.9729  -11.2704   19.0137 H   0  0  0  0  0  0
  -27.3906  -12.4068   17.8301 H   0  0  0  0  0  0
  -27.5739  -14.2480   19.3847 H   0  0  0  0  0  0
  -28.7687  -12.3697   21.4804 H   0  0  0  0  0  0
  -28.3584  -14.0564   21.7219 H   0  0  0  0  0  0
  -25.2738   -9.5710   22.4764 H   0  0  0  0  0  0
  -23.9993   -7.4644   22.7468 H   0  0  0  0  0  0
  -21.0819   -8.8754   19.8942 H   0  0  0  0  0  0
  -22.3649  -10.9670   19.6166 H   0  0  0  0  0  0
  -21.1997   -7.6128   23.9708 H   0  0  0  0  0  0
  -21.1516   -6.0502   25.9073 H   0  0  0  0  0  0
  -22.0583   -2.7590   23.2832 H   0  0  0  0  0  0
  -22.4019  -11.9907   22.4871 H   0  0  0  0  0  0
  -21.1020  -13.1243   22.2618 H   0  0  0  0  0  0
  -24.6248  -15.8349   20.5302 H   0  0  0  0  0  0
  -26.2432  -15.6496   20.0813 H   0  0  0  0  0  0
  -26.7312  -32.5266   23.0977 H   0  0  0  0  0  0
  -25.0231  -33.9589   25.0378 H   0  0  0  0  0  0
  -22.7611  -31.2844   21.3719 H   0  0  0  0  0  0
  -23.3759  -35.9579   23.3279 H   0  0  0  0  0  0
  -24.3599  -36.8888   22.2058 H   0  0  0  0  0  0
  -23.7234  -37.6436   23.6683 H   0  0  0  0  0  0
  -26.1812  -31.4485   20.6172 H   0  0  0  0  0  0
  -26.8826  -30.7524   22.0378 H   0  0  0  0  0  0
  -28.1121  -28.7346   21.2972 H   0  0  0  0  0  0
  -25.9373  -25.8784   18.9009 H   0  0  0  0  0  0
  -24.0094  -27.3276   18.9059 H   0  0  0  0  0  0
  -23.8294  -30.5694   19.3943 H   0  0  0  0  0  0
  -22.8020  -29.2358   19.8309 H   0  0  0  0  0  0
  -25.1312  -36.1849   25.0801 H   0  0  0  0  0  0
  -21.0045  -28.3286   24.1354 H   0  0  0  0  0  0
  -20.5734  -26.2305   23.3615 H   0  0  0  0  0  0
  -21.6663  -26.7440   22.1166 H   0  0  0  0  0  0
  -19.6926  -25.6291   21.1243 H   0  0  0  0  0  0
  -19.6712  -27.3194   20.6736 H   0  0  0  0  0  0
  -17.4236  -26.6717   21.4011 H   0  0  0  0  0  0
  -18.0327  -26.0098   22.9015 H   0  0  0  0  0  0
  -19.7958  -30.7348   24.2160 H   0  0  0  0  0  0
  -17.5021  -31.6245   24.5196 H   0  0  0  0  0  0
  -15.5373  -30.2957   23.7691 H   0  0  0  0  0  0
  -15.8720  -28.0829   22.7061 H   0  0  0  0  0  0
  -24.5913  -30.7102   25.7660 H   0  0  0  0  0  0
  -24.8905  -32.2941   26.4725 H   0  0  0  0  0  0
  -25.7975  -30.8957   27.0190 H   0  0  0  0  0  0
  -26.3059  -29.6651   24.1311 H   0  0  0  0  0  0
  -27.4095  -29.7281   25.4854 H   0  0  0  0  0  0
  -27.8942  -30.4214   23.9582 H   0  0  0  0  0  0
  -27.2705  -33.3651   26.1973 H   0  0  0  0  0  0
  -28.3921  -32.6809   25.0291 H   0  0  0  0  0  0
  -28.0746  -31.8493   26.5432 H   0  0  0  0  0  0
  -28.2582  -38.0087   24.7514 H   0  0  0  0  0  0
  -28.1065  -36.2612   24.6298 H   0  0  0  0  0  0
  -27.2296  -37.1411   25.8882 H   0  0  0  0  0  0
  -20.9505  -29.8756   21.6779 H   0  0  0  0  0  0
  -26.0150  -38.2803   24.1412 H   0  0  0  0  0  0
  -28.3054  -19.8038   22.7352 H   0  0  0  0  0  0
  -32.1604  -16.9279   21.5989 H   0  0  0  0  0  0
  -26.1155  -22.6596   19.5924 H   0  0  0  0  0  0
  -25.3076  -22.5513   21.1232 H   0  0  0  0  0  0
  -27.1069  -24.1280   22.1153 H   0  0  0  0  0  0
  -25.9612  -24.8096   21.0053 H   0  0  0  0  0  0
  -26.8373  -20.6266   20.7454 H   0  0  0  0  0  0
  -27.1725  -21.5287   22.2049 H   0  0  0  0  0  0
  -29.8471  -23.5232   20.9001 H   0  0  0  0  0  0
  -29.5190  -23.1122   19.2590 H   0  0  0  0  0  0
  -27.5793  -24.4369   19.1371 H   0  0  0  0  0  0
  -28.6341  -19.3487   25.0332 H   0  0  0  0  0  0
  -30.3319  -19.7808   25.2705 H   0  0  0  0  0  0
  -29.7900  -18.1148   25.5175 H   0  0  0  0  0  0
  -28.8617  -20.1171   19.2510 H   0  0  0  0  0  0
  -30.3547  -20.5777   19.9801 H   0  0  0  0  0  0
  -28.8359  -16.0856   20.4027 H   0  0  0  0  0  0
  -29.0908  -21.7639   21.6493 H   0  0  0  0  0  0
  1 25  1  0  0  0
  1 30  2  0  0  0
  1 84  1  0  0  0
  2  3  1  0  0  0
  2 25  1  0  0  0
  2 87  1  0  0  0
  2 88  1  0  0  0
  3  4  1  0  0  0
  3 89  1  0  0  0
  3 90  1  0  0  0
  4  5  1  0  0  0
  4 91  1  0  0  0
  4 92  1  0  0  0
  5  6  1  0  0  0
  5 26  1  0  0  0
  5 93  1  0  0  0
  6 25  1  0  0  0
  6 94  1  0  0  0
  6 95  1  0  0  0
  7  8  2  0  0  0
  7 26  1  0  0  0
  7 29  1  0  0  0
  8  9  1  0  0  0
  8 22  1  0  0  0
  9 10  1  0  0  0
  9 27  2  0  0  0
 10 11  2  0  0  0
 10 15  1  0  0  0
 11 12  1  0  0  0
 11 96  1  0  0  0
 12 13  2  0  0  0
 12 97  1  0  0  0
 13 14  1  0  0  0
 13 31  1  0  0  0
 14 15  2  0  0  0
 14 98  1  0  0  0
 15 99  1  0  0  0
 16 17  2  0  0  0
 16 21  1  0  0  0
 16 31  1  0  0  0
 17 18  1  0  0  0
 17100  1  0  0  0
 18 19  2  0  0  0
 18101  1  0  0  0
 19 20  1  0  0  0
 19 24  1  0  0  0
 20 21  2  0  0  0
 20102  1  0  0  0
 21 23  1  0  0  0
 22 28  1  0  0  0
 22 32  2  0  0  0
 26 27  1  0  0  0
 28103  1  0  0  0
 28104  1  0  0  0
 29105  1  0  0  0
 29106  1  0  0  0
 33 34  1  0  0  0
 33 66  1  0  0  0
 33 70  2  0  0  0
 34 36  1  0  0  0
 34 59  1  0  0  0
 34107  1  0  0  0
 35 44  2  0  0  0
 35 45  1  0  0  0
 35 68  1  0  0  0
 36 56  1  0  0  0
 36108  1  0  0  0
 37 39  1  0  0  0
 37 47  1  0  0  0
 37 66  1  0  0  0
 37109  1  0  0  0
 38 43  2  0  0  0
 38 46  1  0  0  0
 38 47  1  0  0  0
 39 64  1  0  0  0
 39 67  2  0  0  0
 40 52  1  0  0  0
 40 53  2  0  0  0
 40 58  1  0  0  0
 41110  1  0  0  0
 41111  1  0  0  0
 41112  1  0  0  0
 41 48  1  0  0  0
 42 43  1  0  0  0
 42 66  1  0  0  0
 42113  1  0  0  0
 42114  1  0  0  0
 43 44  1  0  0  0
 44115  1  0  0  0
 45 46  2  0  0  0
 45116  1  0  0  0
 46117  1  0  0  0
 47118  1  0  0  0
 47119  1  0  0  0
 48 56  1  0  0  0
 48 65  1  0  0  0
 48120  1  0  0  0
 49 50  1  0  0  0
 49 53  1  0  0  0
 49 64  1  0  0  0
 49121  1  0  0  0
 50 51  1  0  0  0
 50122  1  0  0  0
 50123  1  0  0  0
 51 52  1  0  0  0
 51124  1  0  0  0
 51125  1  0  0  0
 52126  1  0  0  0
 52127  1  0  0  0
 53 54  1  0  0  0
 54 55  2  0  0  0
 54128  1  0  0  0
 55 57  1  0  0  0
 55129  1  0  0  0
 56 69  2  0  0  0
 57 58  2  0  0  0
 57130  1  0  0  0
 58131  1  0  0  0
 59 60  1  0  0  0
 59 61  1  0  0  0
 59 62  1  0  0  0
 60132  1  0  0  0
 60133  1  0  0  0
 60134  1  0  0  0
 61135  1  0  0  0
 61136  1  0  0  0
 61137  1  0  0  0
 62138  1  0  0  0
 62139  1  0  0  0
 62140  1  0  0  0
 63 65  1  0  0  0
 63141  1  0  0  0
 63142  1  0  0  0
 63143  1  0  0  0
 64144  1  0  0  0
 65145  1  0  0  0
 68 81  1  0  0  0
 71 73  2  0  0  0
 71 74  1  0  0  0
 71146  1  0  0  0
 72 75  2  0  0  0
 72 76  1  0  0  0
 72147  1  0  0  0
 73 75  1  0  0  0
 73 83  1  0  0  0
 74 76  2  0  0  0
 74 82  1  0  0  0
 75 84  1  0  0  0
 76 86  1  0  0  0
 77 78  1  0  0  0
 77 79  1  0  0  0
 77148  1  0  0  0
 77149  1  0  0  0
 78 81  1  0  0  0
 78150  1  0  0  0
 78151  1  0  0  0
 79 85  1  0  0  0
 79152  1  0  0  0
 79153  1  0  0  0
 80 81  1  0  0  0
 80 85  1  0  0  0
 80154  1  0  0  0
 80155  1  0  0  0
 81156  1  0  0  0
 82157  1  0  0  0
 82158  1  0  0  0
 82159  1  0  0  0
 83160  1  0  0  0
 83161  1  0  0  0
 83 85  1  0  0  0
 84162  1  0  0  0
 85163  1  0  0  0
M  CHG  1  85   1
M  ISO  4   1 100  68 101  81 101  84 100
M  END
> <chiral flag>
0

> <version>
0

> <s_m_source_file>
/data/baiqing/PycharmProjects/Reinvent-master-3.2/result/LINK_invent/BTK/process_docking_weight1_custom_product_contain_oxygen_bond_distance_aromatic_linkinvent_7_9_3/rearranged_h_0026.sdf

> <i_m_source_file_index>
36

> <r_mmod_Potential_Energy-OPLS-2005>
849.588989257812

> <r_mmod_Stretch_Energy-OPLS-2005>
325.890838623047

> <r_mmod_Bend_Energy-OPLS-2005>
313.878631591797

> <r_mmod_Torsional_Energy-OPLS-2005>
477.451873779297

> <r_mmod_Improper_Torsional_Energy-OPLS-2005>
29.6376056671143

> <r_mmod_Van_der_Waal_Energy-OPLS-2005>
147.059188842773

> <r_mmod_Electrostatic_Energy-OPLS-2005>
-226.969818115234

> <r_mmod_Solvation_Energy-OPLS-2005>
-445.736846923828

> <b_mmod_Minimization_Converged-OPLS-2005>
0

> <r_mmod_RMS_Derivative-OPLS-2005>
3.41386461257935

$$$$
36
                    3D
 Structure written by MMmdl.
186195  0  0  1  0            999 V2000
  -30.5598  -15.3021   20.3659 C   0  0  0  0  0  0
  -30.4049  -12.8723   19.4869 C   0  0  0  0  0  0
  -29.5030  -12.5608   18.2753 C   0  0  0  0  0  0
  -28.0689  -12.2734   18.7315 C   0  0  0  0  0  0
  -27.5952  -13.2836   19.8050 C   0  0  2  0  0  0
  -28.6400  -13.5612   20.9099 C   0  0  0  0  0  0
  -25.2348  -13.8270   20.5823 C   0  0  0  0  0  0
  -24.1690  -13.0454   20.9277 C   0  0  0  0  0  0
  -24.6348  -11.6957   20.8773 C   0  0  0  0  0  0
  -23.9060  -10.4311   21.0406 C   0  0  0  0  0  0
  -24.3630   -9.4224   21.9168 C   0  0  0  0  0  0
  -23.6316   -8.2242   22.0736 C   0  0  0  0  0  0
  -22.4292   -8.0269   21.3537 C   0  0  0  0  0  0
  -21.9922   -9.0242   20.4640 C   0  0  0  0  0  0
  -22.7233  -10.2131   20.3050 C   0  0  0  0  0  0
  -21.6856   -6.0730   22.5268 C   0  0  0  0  0  0
  -21.4009   -6.5630   23.8201 C   0  0  0  0  0  0
  -21.3663   -5.6779   24.9164 C   0  0  0  0  0  0
  -21.6049   -4.3043   24.7214 C   0  0  0  0  0  0
  -21.8817   -3.8140   23.4331 C   0  0  0  0  0  0
  -21.9195   -4.6958   22.3392 C   0  0  0  0  0  0
  -22.7712  -13.5200   21.1909 C   0  0  0  0  0  0
  -22.1659   -4.2147   21.0968 F   0  0  0  0  0  0
  -21.5661   -3.4529   25.7734 F   0  0  0  0  0  0
  -29.8373  -14.0774   20.2163 N   0  0  0  0  0  0
  -26.2773  -12.9566   20.3290 N   0  0  0  0  0  0
  -25.9291  -11.6666   20.5761 N   0  0  0  0  0  0
  -22.0377  -12.8182   22.0463 N   0  0  0  0  0  0
  -25.4013  -15.1983   20.4262 N   0  0  0  0  0  0
  -31.7748  -15.0417   20.3613 O   0  0  0  0  0  0
  -21.6649   -6.8867   21.4227 O   0  0  0  0  0  0
  -22.3385  -14.5495   20.6748 O   0  0  0  0  0  0
  -24.6651  -31.8227   23.1717 C   0  0  0  0  0  0
  -25.9329  -32.4577   23.8169 C   0  0  1  0  0  0
  -27.2017  -26.9097   20.1882 C   0  0  0  0  0  0
  -25.5999  -33.8385   24.2075 N   0  0  0  0  0  0
  -23.4774  -30.4379   21.5199 C   0  0  2  0  0  0
  -24.9296  -28.8236   20.1136 C   0  0  0  0  0  0
  -22.7658  -29.4456   22.4767 C   0  0  0  0  0  0
  -18.0334  -28.1426   22.8449 C   0  0  0  0  0  0
  -24.1503  -36.7194   23.2643 C   0  0  0  0  0  0
  -26.0470  -30.6254   21.4035 C   0  0  0  0  0  0
  -26.1145  -29.2135   20.7496 C   0  0  0  0  0  0
  -27.2469  -28.2776   20.7635 C   0  0  0  0  0  0
  -25.9892  -26.6807   19.4997 C   0  0  0  0  0  0
  -24.8923  -27.5803   19.4675 C   0  0  0  0  0  0
  -23.7186  -29.7566   20.1459 C   0  0  0  0  0  0
  -25.4137  -36.2937   24.0286 C   0  0  1  0  0  0
  -20.5955  -28.3767   23.1175 C   0  0  2  0  0  0
  -20.6802  -26.9450   22.5398 C   0  0  0  0  0  0
  -19.5778  -26.6388   21.5207 C   0  0  0  0  0  0
  -18.1966  -26.7948   22.1621 C   0  0  0  0  0  0
  -19.1597  -28.8917   23.2802 C   0  0  0  0  0  0
  -18.9498  -30.1502   23.8840 C   0  0  0  0  0  0
  -17.6490  -30.6600   24.0557 C   0  0  0  0  0  0
  -25.9096  -34.9327   23.4992 C   0  0  0  0  0  0
  -16.5381  -29.9079   23.6357 C   0  0  0  0  0  0
  -16.7317  -28.6516   23.0347 C   0  0  0  0  0  0
  -26.4587  -31.6510   25.0693 C   0  0  0  0  0  0
  -25.3724  -31.3770   26.1361 C   0  0  0  0  0  0
  -27.0485  -30.2857   24.6451 C   0  0  0  0  0  0
  -27.6086  -32.4321   25.7499 C   0  0  0  0  0  0
  -27.5567  -37.1758   24.8462 C   0  0  0  0  0  0
  -21.4330  -29.3052   22.3517 N   0  0  0  0  0  0
  -26.4273  -37.3676   23.9415 N   0  0  0  0  0  0
  -24.7515  -30.9887   22.0855 N   0  0  0  0  0  0
  -23.4200  -28.8021   23.3004 O   0  0  0  0  0  0
  -28.1830  -25.7803   20.2492 O   0  0  0  0  0  0
  -26.5703  -34.8870   22.4582 O   0  0  0  0  0  0
  -23.5723  -32.1207   23.6823 O   0  0  0  0  0  0
  -32.1341  -18.4598   17.5094 C   0  0  0  0  0  0
  -33.1468  -19.0863   18.2611 C   0  0  0  0  0  0
  -32.2445  -18.1105   20.2963 C   0  0  0  0  0  0
  -31.1596  -17.6477   18.1372 C   0  0  0  0  0  0
  -31.2358  -17.4728   19.5410 C   0  0  0  0  0  0
  -33.2065  -18.9293   19.6611 C   0  0  0  0  0  0
  -28.8440  -22.7310   20.2339 C   0  0  0  0  0  0
  -28.8000  -17.7398   17.6494 C   0  0  0  0  0  0
  -28.1527  -17.5205   19.0518 C   0  0  1  0  0  0
  -29.0465  -17.9598   20.2561 C   0  0  2  0  0  0
  -26.7261  -18.0894   19.0888 C   0  0  0  0  0  0
  -29.7113  -15.2913   14.0301 C   0  0  0  0  0  0
  -34.7865  -18.8261   21.4829 C   0  0  0  0  0  0
  -27.0860  -21.0925   20.7096 C   0  0  0  0  0  0
  -36.2169  -21.2799   19.4642 C   0  0  0  0  0  0
  -27.8124  -24.1632   20.2260 C   0  0  0  0  0  0
  -29.3225  -19.7933   20.2698 C   0  0  0  0  0  0
  -29.7096  -15.4422   15.5542 C   0  0  0  0  0  0
  -30.3927  -16.7351   16.0173 C   0  0  0  0  0  0
  -30.1953  -16.7680   20.1939 N   0  0  0  0  0  0
  -30.0901  -17.0677   17.4137 N   0  0  0  0  0  0
  -34.1977  -19.6035   20.3968 N   0  0  0  0  0  0
  -28.5001  -21.2785   20.3623 N   0  0  0  0  0  0
  -30.0415  -22.9851   20.0860 O   0  0  0  0  0  0
  -34.7629  -21.7602   21.6736 O   0  0  0  0  0  0
  -33.6029  -21.9083   19.4028 O   0  0  0  0  0  0
  -34.6021  -21.2908   20.2892 S   0  0  0  0  0  0
  -31.4120  -13.0527   19.1105 H   0  0  0  0  0  0
  -30.4954  -12.0104   20.1483 H   0  0  0  0  0  0
  -29.9010  -11.7270   17.6936 H   0  0  0  0  0  0
  -29.4852  -13.4231   17.6161 H   0  0  0  0  0  0
  -28.0495  -11.2646   19.1423 H   0  0  0  0  0  0
  -27.3902  -12.2696   17.8768 H   0  0  0  0  0  0
  -27.4761  -14.2137   19.2495 H   0  0  0  0  0  0
  -28.8487  -12.6701   21.5029 H   0  0  0  0  0  0
  -28.2673  -14.3188   21.6010 H   0  0  0  0  0  0
  -25.2774   -9.5725   22.4744 H   0  0  0  0  0  0
  -24.0042   -7.4639   22.7454 H   0  0  0  0  0  0
  -21.0855   -8.8743   19.8948 H   0  0  0  0  0  0
  -22.3669  -10.9667   19.6167 H   0  0  0  0  0  0
  -21.1980   -7.6137   23.9699 H   0  0  0  0  0  0
  -21.1495   -6.0514   25.9067 H   0  0  0  0  0  0
  -22.0597   -2.7606   23.2823 H   0  0  0  0  0  0
  -22.4035  -11.9865   22.4845 H   0  0  0  0  0  0
  -21.0968  -13.1152   22.2654 H   0  0  0  0  0  0
  -24.6325  -15.8511   20.5320 H   0  0  0  0  0  0
  -26.2532  -15.6363   20.1038 H   0  0  0  0  0  0
  -26.7385  -32.5122   23.0878 H   0  0  0  0  0  0
  -25.0123  -33.9465   25.0204 H   0  0  0  0  0  0
  -22.7909  -31.2712   21.3516 H   0  0  0  0  0  0
  -23.3767  -35.9524   23.3260 H   0  0  0  0  0  0
  -24.3581  -36.8888   22.2070 H   0  0  0  0  0  0
  -23.7269  -37.6368   23.6733 H   0  0  0  0  0  0
  -26.2240  -31.3673   20.6234 H   0  0  0  0  0  0
  -26.9062  -30.6872   22.0582 H   0  0  0  0  0  0
  -28.1418  -28.5729   21.2946 H   0  0  0  0  0  0
  -25.8467  -25.7358   18.9979 H   0  0  0  0  0  0
  -23.9928  -27.2808   18.9471 H   0  0  0  0  0  0
  -23.8740  -30.5266   19.3882 H   0  0  0  0  0  0
  -22.8272  -29.2132   19.8282 H   0  0  0  0  0  0
  -25.1339  -36.1712   25.0772 H   0  0  0  0  0  0
  -21.0054  -28.3391   24.1294 H   0  0  0  0  0  0
  -20.5677  -26.2393   23.3643 H   0  0  0  0  0  0
  -21.6665  -26.7417   22.1215 H   0  0  0  0  0  0
  -19.6932  -25.6282   21.1282 H   0  0  0  0  0  0
  -19.6714  -27.3161   20.6702 H   0  0  0  0  0  0
  -17.4228  -26.6696   21.4030 H   0  0  0  0  0  0
  -18.0360  -26.0109   22.9035 H   0  0  0  0  0  0
  -19.7975  -30.7353   24.2157 H   0  0  0  0  0  0
  -17.5040  -31.6273   24.5179 H   0  0  0  0  0  0
  -15.5378  -30.2956   23.7711 H   0  0  0  0  0  0
  -15.8726  -28.0829   22.7046 H   0  0  0  0  0  0
  -24.5924  -30.7091   25.7684 H   0  0  0  0  0  0
  -24.8902  -32.2976   26.4651 H   0  0  0  0  0  0
  -25.7960  -30.9038   27.0224 H   0  0  0  0  0  0
  -26.3153  -29.6538   24.1429 H   0  0  0  0  0  0
  -27.3955  -29.7220   25.5123 H   0  0  0  0  0  0
  -27.9119  -30.4004   23.9899 H   0  0  0  0  0  0
  -27.2643  -33.3670   26.1939 H   0  0  0  0  0  0
  -28.3966  -32.6807   25.0372 H   0  0  0  0  0  0
  -28.0680  -31.8544   26.5539 H   0  0  0  0  0  0
  -28.2547  -38.0088   24.7494 H   0  0  0  0  0  0
  -28.1099  -36.2606   24.6283 H   0  0  0  0  0  0
  -27.2290  -37.1379   25.8866 H   0  0  0  0  0  0
  -20.9587  -29.8729   21.6634 H   0  0  0  0  0  0
  -26.0111  -38.2729   24.1410 H   0  0  0  0  0  0
  -32.1068  -18.6507   16.4472 H   0  0  0  0  0  0
  -33.8673  -19.7104   17.7493 H   0  0  0  0  0  0
  -32.2411  -17.9974   21.3709 H   0  0  0  0  0  0
  -28.9258  -18.8051   17.4556 H   0  0  0  0  0  0
  -28.0928  -17.4040   16.8906 H   0  0  0  0  0  0
  -28.0044  -16.4451   19.1501 H   0  0  0  0  0  0
  -28.4915  -17.7305   21.1664 H   0  0  0  0  0  0
  -26.6856  -19.1266   18.7637 H   0  0  0  0  0  0
  -26.2931  -18.0254   20.0867 H   0  0  0  0  0  0
  -26.0720  -17.5303   18.4193 H   0  0  0  0  0  0
  -29.2511  -14.3495   13.7315 H   0  0  0  0  0  0
  -30.7260  -15.3106   13.6309 H   0  0  0  0  0  0
  -29.1508  -16.0962   13.5547 H   0  0  0  0  0  0
  -34.2063  -18.9471   22.3988 H   0  0  0  0  0  0
  -35.8001  -19.1677   21.6932 H   0  0  0  0  0  0
  -34.8465  -17.7625   21.2440 H   0  0  0  0  0  0
  -26.7812  -21.7560   21.5196 H   0  0  0  0  0  0
  -26.8732  -20.0817   21.0548 H   0  0  0  0  0  0
  -26.4513  -21.2937   19.8461 H   0  0  0  0  0  0
  -36.9480  -20.7793   20.0938 H   0  0  0  0  0  0
  -36.5308  -22.3079   19.2995 H   0  0  0  0  0  0
  -36.1375  -20.7677   18.5087 H   0  0  0  0  0  0
  -27.1283  -24.0282   21.0620 H   0  0  0  0  0  0
  -27.2022  -24.0170   19.3360 H   0  0  0  0  0  0
  -29.0682  -19.7760   21.3292 H   0  0  0  0  0  0
  -28.7073  -19.8357   19.3805 H   0  0  0  0  0  0
  -30.2394  -14.5948   15.9847 H   0  0  0  0  0  0
  -28.6828  -15.3890   15.9151 H   0  0  0  0  0  0
  -30.0861  -17.5676   15.3812 H   0  0  0  0  0  0
  -31.4651  -16.6062   15.8582 H   0  0  0  0  0  0
  1 25  1  0  0  0
  1 30  2  0  0  0
  1 90  1  0  0  0
  2  3  1  0  0  0
  2 25  1  0  0  0
  2 98  1  0  0  0
  2 99  1  0  0  0
  3  4  1  0  0  0
  3100  1  0  0  0
  3101  1  0  0  0
  4  5  1  0  0  0
  4102  1  0  0  0
  4103  1  0  0  0
  5  6  1  0  0  0
  5 26  1  0  0  0
  5104  1  0  0  0
  6 25  1  0  0  0
  6105  1  0  0  0
  6106  1  0  0  0
  7  8  2  0  0  0
  7 26  1  0  0  0
  7 29  1  0  0  0
  8  9  1  0  0  0
  8 22  1  0  0  0
  9 10  1  0  0  0
  9 27  2  0  0  0
 10 11  2  0  0  0
 10 15  1  0  0  0
 11 12  1  0  0  0
 11107  1  0  0  0
 12 13  2  0  0  0
 12108  1  0  0  0
 13 14  1  0  0  0
 13 31  1  0  0  0
 14 15  2  0  0  0
 14109  1  0  0  0
 15110  1  0  0  0
 16 17  2  0  0  0
 16 21  1  0  0  0
 16 31  1  0  0  0
 17 18  1  0  0  0
 17111  1  0  0  0
 18 19  2  0  0  0
 18112  1  0  0  0
 19 20  1  0  0  0
 19 24  1  0  0  0
 20 21  2  0  0  0
 20113  1  0  0  0
 21 23  1  0  0  0
 22 28  1  0  0  0
 22 32  2  0  0  0
 26 27  1  0  0  0
 28114  1  0  0  0
 28115  1  0  0  0
 29116  1  0  0  0
 29117  1  0  0  0
 33 34  1  0  0  0
 33 66  1  0  0  0
 33 70  2  0  0  0
 34 36  1  0  0  0
 34 59  1  0  0  0
 34118  1  0  0  0
 35 44  2  0  0  0
 35 45  1  0  0  0
 35 68  1  0  0  0
 36 56  1  0  0  0
 36119  1  0  0  0
 37 39  1  0  0  0
 37 47  1  0  0  0
 37 66  1  0  0  0
 37120  1  0  0  0
 38 43  2  0  0  0
 38 46  1  0  0  0
 38 47  1  0  0  0
 39 64  1  0  0  0
 39 67  2  0  0  0
 40 52  1  0  0  0
 40 53  2  0  0  0
 40 58  1  0  0  0
 41121  1  0  0  0
 41122  1  0  0  0
 41123  1  0  0  0
 41 48  1  0  0  0
 42 43  1  0  0  0
 42 66  1  0  0  0
 42124  1  0  0  0
 42125  1  0  0  0
 43 44  1  0  0  0
 44126  1  0  0  0
 45 46  2  0  0  0
 45127  1  0  0  0
 46128  1  0  0  0
 47129  1  0  0  0
 47130  1  0  0  0
 48 56  1  0  0  0
 48 65  1  0  0  0
 48131  1  0  0  0
 49 50  1  0  0  0
 49 53  1  0  0  0
 49 64  1  0  0  0
 49132  1  0  0  0
 50 51  1  0  0  0
 50133  1  0  0  0
 50134  1  0  0  0
 51 52  1  0  0  0
 51135  1  0  0  0
 51136  1  0  0  0
 52137  1  0  0  0
 52138  1  0  0  0
 53 54  1  0  0  0
 54 55  2  0  0  0
 54139  1  0  0  0
 55 57  1  0  0  0
 55140  1  0  0  0
 56 69  2  0  0  0
 57 58  2  0  0  0
 57141  1  0  0  0
 58142  1  0  0  0
 59 60  1  0  0  0
 59 61  1  0  0  0
 59 62  1  0  0  0
 60143  1  0  0  0
 60144  1  0  0  0
 60145  1  0  0  0
 61146  1  0  0  0
 61147  1  0  0  0
 61148  1  0  0  0
 62149  1  0  0  0
 62150  1  0  0  0
 62151  1  0  0  0
 63 65  1  0  0  0
 63152  1  0  0  0
 63153  1  0  0  0
 63154  1  0  0  0
 64155  1  0  0  0
 65156  1  0  0  0
 68 86  1  0  0  0
 71 72  2  0  0  0
 71 74  1  0  0  0
 71157  1  0  0  0
 72 76  1  0  0  0
 72158  1  0  0  0
 73 75  1  0  0  0
 73 76  2  0  0  0
 73159  1  0  0  0
 74 75  2  0  0  0
 74 91  1  0  0  0
 75 90  1  0  0  0
 76 92  1  0  0  0
 77 86  1  0  0  0
 77 93  1  0  0  0
 77 94  2  0  0  0
 78 79  1  0  0  0
 78 91  1  0  0  0
 78160  1  0  0  0
 78161  1  0  0  0
 79 80  1  0  0  0
 79 81  1  0  0  0
 79162  1  0  0  0
 80 87  1  0  0  0
 80 90  1  0  0  0
 80163  1  0  0  0
 81164  1  0  0  0
 81165  1  0  0  0
 81166  1  0  0  0
 82 88  1  0  0  0
 82167  1  0  0  0
 82168  1  0  0  0
 82169  1  0  0  0
 83 92  1  0  0  0
 83170  1  0  0  0
 83171  1  0  0  0
 83172  1  0  0  0
 84 93  1  0  0  0
 84173  1  0  0  0
 84174  1  0  0  0
 84175  1  0  0  0
 85176  1  0  0  0
 85177  1  0  0  0
 85178  1  0  0  0
 85 97  1  0  0  0
 86179  1  0  0  0
 86180  1  0  0  0
 87 93  1  0  0  0
 87181  1  0  0  0
 87182  1  0  0  0
 88 89  1  0  0  0
 88183  1  0  0  0
 88184  1  0  0  0
 89 91  1  0  0  0
 89185  1  0  0  0
 89186  1  0  0  0
 92 97  1  0  0  0
 95 97  2  0  0  0
 96 97  2  0  0  0
M  ISO  4   1 100  68 101  86 101  90 100
M  END
> <chiral flag>
0

> <version>
0

> <s_m_source_file>
/data/baiqing/PycharmProjects/Reinvent-master-3.2/result/LINK_invent/BTK/process_docking_weight1_custom_product_contain_oxygen_bond_distance_aromatic_linkinvent_7_9_3/rearranged_h_0026.sdf

> <i_m_source_file_index>
37

> <r_mmod_Potential_Energy-OPLS-2005>
1698.908203125

> <r_mmod_Stretch_Energy-OPLS-2005>
682.557250976562

> <r_mmod_Bend_Energy-OPLS-2005>
753.042663574219

> <r_mmod_Torsional_Energy-OPLS-2005>
404.703735351562

> <r_mmod_Improper_Torsional_Energy-OPLS-2005>
15.8782367706299

> <r_mmod_Van_der_Waal_Energy-OPLS-2005>
145.230758666992

> <r_mmod_Electrostatic_Energy-OPLS-2005>
-521.059936523438

> <r_mmod_Solvation_Energy-OPLS-2005>
-284.862518310547

> <b_mmod_Minimization_Converged-OPLS-2005>
0

> <r_mmod_RMS_Derivative-OPLS-2005>
2.95866632461548

$$$$
37
                    3D
 Structure written by MMmdl.
161169  0  0  1  0            999 V2000
  -30.7282  -14.5514   20.5603 C   0  0  0  0  0  0
  -30.4092  -12.3587   19.4461 C   0  0  0  0  0  0
  -29.4896  -12.4745   18.2155 C   0  0  0  0  0  0
  -28.0177  -12.3055   18.6325 C   0  0  0  0  0  0
  -27.6398  -13.1945   19.8428 C   0  0  2  0  0  0
  -28.6831  -13.0994   20.9812 C   0  0  0  0  0  0
  -25.2544  -13.8121   20.5667 C   0  0  0  0  0  0
  -24.1805  -13.0417   20.9211 C   0  0  0  0  0  0
  -24.6348  -11.6881   20.8766 C   0  0  0  0  0  0
  -23.9023  -10.4277   21.0433 C   0  0  0  0  0  0
  -24.3591   -9.4194   21.9201 C   0  0  0  0  0  0
  -23.6276   -8.2226   22.0759 C   0  0  0  0  0  0
  -22.4259   -8.0268   21.3545 C   0  0  0  0  0  0
  -21.9893   -9.0240   20.4647 C   0  0  0  0  0  0
  -22.7211  -10.2124   20.3065 C   0  0  0  0  0  0
  -21.6842   -6.0732   22.5282 C   0  0  0  0  0  0
  -21.4006   -6.5638   23.8215 C   0  0  0  0  0  0
  -21.3657   -5.6792   24.9178 C   0  0  0  0  0  0
  -21.6044   -4.3056   24.7230 C   0  0  0  0  0  0
  -21.8820   -3.8146   23.4352 C   0  0  0  0  0  0
  -21.9190   -4.6961   22.3407 C   0  0  0  0  0  0
  -22.7839  -13.5234   21.1873 C   0  0  0  0  0  0
  -22.1660   -4.2147   21.0985 F   0  0  0  0  0  0
  -21.5632   -3.4541   25.7744 F   0  0  0  0  0  0
  -30.0059  -13.3978   20.4164 N   0  0  0  0  0  0
  -26.2911  -12.9245   20.3234 N   0  0  0  0  0  0
  -25.9254  -11.6432   20.5751 N   0  0  0  0  0  0
  -22.0467  -12.8229   22.0419 N   0  0  0  0  0  0
  -25.4279  -15.1837   20.4064 N   0  0  0  0  0  0
  -31.8764  -14.6325   20.1138 O   0  0  0  0  0  0
  -21.6626   -6.8868   21.4241 O   0  0  0  0  0  0
  -22.3543  -14.5547   20.6723 O   0  0  0  0  0  0
  -24.6189  -31.8643   23.2064 C   0  0  0  0  0  0
  -25.9074  -32.4795   23.8368 C   0  0  1  0  0  0
  -27.2334  -27.3925   20.0998 C   0  0  0  0  0  0
  -25.5924  -33.8593   24.2308 N   0  0  0  0  0  0
  -23.4071  -30.4876   21.5482 C   0  0  2  0  0  0
  -24.8511  -28.9459   20.1140 C   0  0  0  0  0  0
  -22.7423  -29.4648   22.4980 C   0  0  0  0  0  0
  -18.0273  -28.1376   22.8491 C   0  0  0  0  0  0
  -24.1490  -36.7293   23.2639 C   0  0  0  0  0  0
  -25.9390  -30.8178   21.3634 C   0  0  0  0  0  0
  -26.0131  -29.4489   20.7099 C   0  0  0  0  0  0
  -27.2027  -28.6798   20.6975 C   0  0  0  0  0  0
  -26.0431  -26.9064   19.5106 C   0  0  0  0  0  0
  -24.8630  -27.6757   19.5127 C   0  0  0  0  0  0
  -23.6153  -29.8175   20.1636 C   0  0  0  0  0  0
  -25.4112  -36.3090   24.0335 C   0  0  1  0  0  0
  -20.5864  -28.3669   23.1310 C   0  0  2  0  0  0
  -20.6762  -26.9402   22.5418 C   0  0  0  0  0  0
  -19.5742  -26.6382   21.5210 C   0  0  0  0  0  0
  -18.1918  -26.7924   22.1618 C   0  0  0  0  0  0
  -19.1522  -28.8838   23.2897 C   0  0  0  0  0  0
  -18.9450  -30.1445   23.8906 C   0  0  0  0  0  0
  -17.6453  -30.6585   24.0561 C   0  0  0  0  0  0
  -25.9044  -34.9459   23.5117 C   0  0  0  0  0  0
  -16.5343  -29.9083   23.6327 C   0  0  0  0  0  0
  -16.7262  -28.6498   23.0355 C   0  0  0  0  0  0
  -26.4493  -31.6584   25.0709 C   0  0  0  0  0  0
  -25.3755  -31.3679   26.1451 C   0  0  0  0  0  0
  -27.0344  -30.3031   24.6102 C   0  0  0  0  0  0
  -27.6061  -32.4311   25.7480 C   0  0  0  0  0  0
  -27.5582  -37.1799   24.8463 C   0  0  0  0  0  0
  -21.4148  -29.3032   22.3714 N   0  0  0  0  0  0
  -26.4290  -37.3784   23.9415 N   0  0  0  0  0  0
  -24.6735  -31.0720   22.0975 N   0  0  0  0  0  0
  -23.4180  -28.8195   23.3038 O   0  0  0  0  0  0
  -28.4173  -26.6677   20.1340 O   0  0  0  0  0  0
  -26.5598  -34.8922   22.4675 O   0  0  0  0  0  0
  -23.5376  -32.1411   23.7448 O   0  0  0  0  0  0
  -30.1233  -19.0132   18.0585 C   0  0  0  0  0  0
  -29.8045  -20.2465   18.6490 C   0  0  0  0  0  0
  -29.0753  -19.0758   20.6474 C   0  0  0  0  0  0
  -29.8983  -17.7984   18.7346 C   0  0  0  0  0  0
  -29.3980  -17.8080   20.0650 C   0  0  0  0  0  0
  -29.2482  -20.3078   19.9451 C   0  0  0  0  0  0
  -30.1629  -16.5198   17.9590 C   0  0  0  0  0  0
  -31.1009  -16.3152   22.1789 C   0  0  0  0  0  0
  -29.0828  -16.4840   20.8195 C   0  0  0  0  0  0
  -28.4229  -24.1147   20.4052 C   0  0  0  0  0  0
  -28.8900  -22.7980   19.7002 C   0  0  0  0  0  0
  -28.5588  -25.3773   19.4892 C   0  0  0  0  0  0
  -28.8627  -21.5554   20.5083 N   0  0  0  0  0  0
  -30.2058  -15.6056   21.2596 N   0  0  0  0  0  0
  -31.4529  -12.4426   19.1390 H   0  0  0  0  0  0
  -30.3177  -11.3711   19.9008 H   0  0  0  0  0  0
  -29.7544  -11.7161   17.4774 H   0  0  0  0  0  0
  -29.6344  -13.4379   17.7264 H   0  0  0  0  0  0
  -27.8634  -11.2552   18.8822 H   0  0  0  0  0  0
  -27.3597  -12.5161   17.7885 H   0  0  0  0  0  0
  -27.6305  -14.1995   19.4381 H   0  0  0  0  0  0
  -28.6857  -12.0988   21.4164 H   0  0  0  0  0  0
  -28.4248  -13.7784   21.7946 H   0  0  0  0  0  0
  -25.2735   -9.5674   22.4778 H   0  0  0  0  0  0
  -23.9989   -7.4616   22.7472 H   0  0  0  0  0  0
  -21.0830   -8.8755   19.8946 H   0  0  0  0  0  0
  -22.3673  -10.9668   19.6178 H   0  0  0  0  0  0
  -21.1991   -7.6146   23.9718 H   0  0  0  0  0  0
  -21.1479   -6.0522   25.9081 H   0  0  0  0  0  0
  -22.0602   -2.7609   23.2854 H   0  0  0  0  0  0
  -22.4064  -11.9876   22.4796 H   0  0  0  0  0  0
  -21.1088  -13.1265   22.2621 H   0  0  0  0  0  0
  -24.6600  -15.8370   20.5163 H   0  0  0  0  0  0
  -26.2691  -15.6206   20.0552 H   0  0  0  0  0  0
  -26.7139  -32.5497   23.1122 H   0  0  0  0  0  0
  -25.0112  -33.9745   25.0479 H   0  0  0  0  0  0
  -22.6971  -31.3053   21.4079 H   0  0  0  0  0  0
  -23.3760  -35.9617   23.3289 H   0  0  0  0  0  0
  -24.3582  -36.8920   22.2055 H   0  0  0  0  0  0
  -23.7233  -37.6489   23.6664 H   0  0  0  0  0  0
  -26.0568  -31.5828   20.5946 H   0  0  0  0  0  0
  -26.8252  -30.8693   21.9844 H   0  0  0  0  0  0
  -28.1004  -29.0686   21.1575 H   0  0  0  0  0  0
  -25.9921  -25.9273   19.0600 H   0  0  0  0  0  0
  -23.9657  -27.2774   19.0597 H   0  0  0  0  0  0
  -23.7243  -30.5905   19.4019 H   0  0  0  0  0  0
  -22.7381  -29.2380   19.8699 H   0  0  0  0  0  0
  -25.1288  -36.1948   25.0827 H   0  0  0  0  0  0
  -20.9952  -28.3240   24.1431 H   0  0  0  0  0  0
  -20.5662  -26.2277   23.3606 H   0  0  0  0  0  0
  -21.6634  -26.7438   22.1218 H   0  0  0  0  0  0
  -19.6902  -25.6295   21.1232 H   0  0  0  0  0  0
  -19.6684  -27.3196   20.6743 H   0  0  0  0  0  0
  -17.4194  -26.6685   21.4012 H   0  0  0  0  0  0
  -18.0307  -26.0059   22.9005 H   0  0  0  0  0  0
  -19.7927  -30.7256   24.2282 H   0  0  0  0  0  0
  -17.5009  -31.6266   24.5164 H   0  0  0  0  0  0
  -15.5344  -30.2989   23.7649 H   0  0  0  0  0  0
  -15.8660  -28.0819   22.7070 H   0  0  0  0  0  0
  -24.5948  -30.7002   25.7784 H   0  0  0  0  0  0
  -24.8925  -32.2827   26.4892 H   0  0  0  0  0  0
  -25.8115  -30.8859   27.0210 H   0  0  0  0  0  0
  -26.2892  -29.6763   24.1187 H   0  0  0  0  0  0
  -27.4153  -29.7291   25.4559 H   0  0  0  0  0  0
  -27.8706  -30.4350   23.9230 H   0  0  0  0  0  0
  -27.2681  -33.3617   26.2048 H   0  0  0  0  0  0
  -28.3879  -32.6853   25.0311 H   0  0  0  0  0  0
  -28.0719  -31.8439   26.5404 H   0  0  0  0  0  0
  -28.2587  -38.0110   24.7537 H   0  0  0  0  0  0
  -28.1092  -36.2642   24.6261 H   0  0  0  0  0  0
  -27.2300  -37.1413   25.8865 H   0  0  0  0  0  0
  -20.9313  -29.8747   21.6926 H   0  0  0  0  0  0
  -26.0174  -38.2859   24.1428 H   0  0  0  0  0  0
  -30.5169  -19.0081   17.0514 H   0  0  0  0  0  0
  -29.9784  -21.1360   18.0623 H   0  0  0  0  0  0
  -28.6530  -19.0951   21.6425 H   0  0  0  0  0  0
  -30.0606  -16.6921   16.8872 H   0  0  0  0  0  0
  -29.4572  -15.7313   18.2116 H   0  0  0  0  0  0
  -31.1790  -16.1690   18.1337 H   0  0  0  0  0  0
  -30.5414  -16.9105   22.9014 H   0  0  0  0  0  0
  -31.7635  -16.9858   21.6290 H   0  0  0  0  0  0
  -31.7208  -15.6183   22.7462 H   0  0  0  0  0  0
  -28.3927  -15.9342   20.1961 H   0  0  0  0  0  0
  -28.4941  -16.7241   21.7060 H   0  0  0  0  0  0
  -29.0226  -24.2709   21.3024 H   0  0  0  0  0  0
  -27.3888  -24.0193   20.7374 H   0  0  0  0  0  0
  -29.9129  -22.9518   19.3522 H   0  0  0  0  0  0
  -28.2803  -22.6468   18.8075 H   0  0  0  0  0  0
  -27.9410  -25.2812   18.5976 H   0  0  0  0  0  0
  -29.5769  -25.3791   19.0983 H   0  0  0  0  0  0
  -28.3835  -21.5665   21.4061 H   0  0  0  0  0  0
  1 25  1  0  0  0
  1 30  2  0  0  0
  1 84  1  0  0  0
  2  3  1  0  0  0
  2 25  1  0  0  0
  2 85  1  0  0  0
  2 86  1  0  0  0
  3  4  1  0  0  0
  3 87  1  0  0  0
  3 88  1  0  0  0
  4  5  1  0  0  0
  4 89  1  0  0  0
  4 90  1  0  0  0
  5  6  1  0  0  0
  5 26  1  0  0  0
  5 91  1  0  0  0
  6 25  1  0  0  0
  6 92  1  0  0  0
  6 93  1  0  0  0
  7  8  2  0  0  0
  7 26  1  0  0  0
  7 29  1  0  0  0
  8  9  1  0  0  0
  8 22  1  0  0  0
  9 10  1  0  0  0
  9 27  2  0  0  0
 10 11  2  0  0  0
 10 15  1  0  0  0
 11 12  1  0  0  0
 11 94  1  0  0  0
 12 13  2  0  0  0
 12 95  1  0  0  0
 13 14  1  0  0  0
 13 31  1  0  0  0
 14 15  2  0  0  0
 14 96  1  0  0  0
 15 97  1  0  0  0
 16 17  2  0  0  0
 16 21  1  0  0  0
 16 31  1  0  0  0
 17 18  1  0  0  0
 17 98  1  0  0  0
 18 19  2  0  0  0
 18 99  1  0  0  0
 19 20  1  0  0  0
 19 24  1  0  0  0
 20 21  2  0  0  0
 20100  1  0  0  0
 21 23  1  0  0  0
 22 28  1  0  0  0
 22 32  2  0  0  0
 26 27  1  0  0  0
 28101  1  0  0  0
 28102  1  0  0  0
 29103  1  0  0  0
 29104  1  0  0  0
 33 34  1  0  0  0
 33 66  1  0  0  0
 33 70  2  0  0  0
 34 36  1  0  0  0
 34 59  1  0  0  0
 34105  1  0  0  0
 35 44  2  0  0  0
 35 45  1  0  0  0
 35 68  1  0  0  0
 36 56  1  0  0  0
 36106  1  0  0  0
 37 39  1  0  0  0
 37 47  1  0  0  0
 37 66  1  0  0  0
 37107  1  0  0  0
 38 43  2  0  0  0
 38 46  1  0  0  0
 38 47  1  0  0  0
 39 64  1  0  0  0
 39 67  2  0  0  0
 40 52  1  0  0  0
 40 53  2  0  0  0
 40 58  1  0  0  0
 41108  1  0  0  0
 41109  1  0  0  0
 41110  1  0  0  0
 41 48  1  0  0  0
 42 43  1  0  0  0
 42 66  1  0  0  0
 42111  1  0  0  0
 42112  1  0  0  0
 43 44  1  0  0  0
 44113  1  0  0  0
 45 46  2  0  0  0
 45114  1  0  0  0
 46115  1  0  0  0
 47116  1  0  0  0
 47117  1  0  0  0
 48 56  1  0  0  0
 48 65  1  0  0  0
 48118  1  0  0  0
 49 50  1  0  0  0
 49 53  1  0  0  0
 49 64  1  0  0  0
 49119  1  0  0  0
 50 51  1  0  0  0
 50120  1  0  0  0
 50121  1  0  0  0
 51 52  1  0  0  0
 51122  1  0  0  0
 51123  1  0  0  0
 52124  1  0  0  0
 52125  1  0  0  0
 53 54  1  0  0  0
 54 55  2  0  0  0
 54126  1  0  0  0
 55 57  1  0  0  0
 55127  1  0  0  0
 56 69  2  0  0  0
 57 58  2  0  0  0
 57128  1  0  0  0
 58129  1  0  0  0
 59 60  1  0  0  0
 59 61  1  0  0  0
 59 62  1  0  0  0
 60130  1  0  0  0
 60131  1  0  0  0
 60132  1  0  0  0
 61133  1  0  0  0
 61134  1  0  0  0
 61135  1  0  0  0
 62136  1  0  0  0
 62137  1  0  0  0
 62138  1  0  0  0
 63 65  1  0  0  0
 63139  1  0  0  0
 63140  1  0  0  0
 63141  1  0  0  0
 64142  1  0  0  0
 65143  1  0  0  0
 68 82  1  0  0  0
 71 72  2  0  0  0
 71 74  1  0  0  0
 71144  1  0  0  0
 72 76  1  0  0  0
 72145  1  0  0  0
 73 75  1  0  0  0
 73 76  2  0  0  0
 73146  1  0  0  0
 74 75  2  0  0  0
 74 77  1  0  0  0
 75 79  1  0  0  0
 76 83  1  0  0  0
 77147  1  0  0  0
 77148  1  0  0  0
 77149  1  0  0  0
 78 84  1  0  0  0
 78150  1  0  0  0
 78151  1  0  0  0
 78152  1  0  0  0
 79 84  1  0  0  0
 79153  1  0  0  0
 79154  1  0  0  0
 80 81  1  0  0  0
 80 82  1  0  0  0
 80155  1  0  0  0
 80156  1  0  0  0
 81 83  1  0  0  0
 81157  1  0  0  0
 81158  1  0  0  0
 82159  1  0  0  0
 82160  1  0  0  0
 83161  1  0  0  0
M  ISO  4   1 100  68 101  82 101  84 100
M  END
> <chiral flag>
0

> <version>
0

> <s_m_source_file>
/data/baiqing/PycharmProjects/Reinvent-master-3.2/result/LINK_invent/BTK/process_docking_weight1_custom_product_contain_oxygen_bond_distance_aromatic_linkinvent_7_9_3/rearranged_h_0026.sdf

> <i_m_source_file_index>
38

> <r_mmod_Potential_Energy-OPLS-2005>
93.7539443969727

> <r_mmod_Stretch_Energy-OPLS-2005>
54.1528205871582

> <r_mmod_Bend_Energy-OPLS-2005>
139.480621337891

> <r_mmod_Torsional_Energy-OPLS-2005>
245.703186035156

> <r_mmod_Improper_Torsional_Energy-OPLS-2005>
4.58453702926636

> <r_mmod_Van_der_Waal_Energy-OPLS-2005>
149.747451782227

> <r_mmod_Electrostatic_Energy-OPLS-2005>
-316.411956787109

> <r_mmod_Solvation_Energy-OPLS-2005>
-210.347030639648

> <b_mmod_Minimization_Converged-OPLS-2005>
0

> <r_mmod_RMS_Derivative-OPLS-2005>
0.490991979837418

$$$$
38
                    3D
 Structure written by MMmdl.
152160  0  0  1  0            999 V2000
  -30.5235  -15.0194   20.4035 C   0  0  0  0  0  0
  -30.4379  -12.6357   19.5026 C   0  0  0  0  0  0
  -29.5215  -12.5354   18.2608 C   0  0  0  0  0  0
  -28.0578  -12.3099   18.6823 C   0  0  0  0  0  0
  -27.6234  -13.2551   19.8324 C   0  0  2  0  0  0
  -28.6656  -13.3212   20.9685 C   0  0  0  0  0  0
  -25.2434  -13.8224   20.5718 C   0  0  0  0  0  0
  -24.1765  -13.0437   20.9243 C   0  0  0  0  0  0
  -24.6393  -11.6926   20.8760 C   0  0  0  0  0  0
  -23.9080  -10.4292   21.0408 C   0  0  0  0  0  0
  -24.3628   -9.4205   21.9184 C   0  0  0  0  0  0
  -23.6299   -8.2242   22.0753 C   0  0  0  0  0  0
  -22.4281   -8.0281   21.3544 C   0  0  0  0  0  0
  -21.9920   -9.0255   20.4645 C   0  0  0  0  0  0
  -22.7252  -10.2132   20.3055 C   0  0  0  0  0  0
  -21.6854   -6.0735   22.5277 C   0  0  0  0  0  0
  -21.4016   -6.5638   23.8210 C   0  0  0  0  0  0
  -21.3660   -5.6792   24.9172 C   0  0  0  0  0  0
  -21.6044   -4.3055   24.7223 C   0  0  0  0  0  0
  -21.8820   -3.8145   23.4345 C   0  0  0  0  0  0
  -21.9194   -4.6962   22.3401 C   0  0  0  0  0  0
  -22.7784  -13.5201   21.1893 C   0  0  0  0  0  0
  -22.1662   -4.2147   21.0978 F   0  0  0  0  0  0
  -21.5628   -3.4538   25.7736 F   0  0  0  0  0  0
  -29.9304  -13.7512   20.3588 N   0  0  0  0  0  0
  -26.2858  -12.9468   20.3233 N   0  0  0  0  0  0
  -25.9326  -11.6591   20.5738 N   0  0  0  0  0  0
  -22.0441  -12.8183   22.0448 N   0  0  0  0  0  0
  -25.4080  -15.1954   20.4128 N   0  0  0  0  0  0
  -31.7365  -15.0474   20.1649 O   0  0  0  0  0  0
  -21.6643   -6.8879   21.4240 O   0  0  0  0  0  0
  -22.3464  -14.5502   20.6735 O   0  0  0  0  0  0
  -24.6485  -31.8389   23.1831 C   0  0  0  0  0  0
  -25.9234  -32.4666   23.8242 C   0  0  1  0  0  0
  -27.2160  -27.0836   20.1606 C   0  0  0  0  0  0
  -25.5958  -33.8474   24.2156 N   0  0  0  0  0  0
  -23.4548  -30.4564   21.5299 C   0  0  2  0  0  0
  -24.9048  -28.8730   20.1107 C   0  0  0  0  0  0
  -22.7593  -29.4522   22.4838 C   0  0  0  0  0  0
  -18.0310  -28.1400   22.8474 C   0  0  0  0  0  0
  -24.1493  -36.7242   23.2645 C   0  0  0  0  0  0
  -26.0144  -30.6964   21.3893 C   0  0  0  0  0  0
  -26.0846  -29.3024   20.7314 C   0  0  0  0  0  0
  -27.2405  -28.4257   20.7354 C   0  0  0  0  0  0
  -26.0081  -26.7673   19.5007 C   0  0  0  0  0  0
  -24.8823  -27.6207   19.4785 C   0  0  0  0  0  0
  -23.6847  -29.7826   20.1508 C   0  0  0  0  0  0
  -25.4126  -36.3014   24.0313 C   0  0  1  0  0  0
  -20.5926  -28.3728   23.1225 C   0  0  2  0  0  0
  -20.6792  -26.9426   22.5406 C   0  0  0  0  0  0
  -19.5764  -26.6380   21.5216 C   0  0  0  0  0  0
  -18.1944  -26.7935   22.1626 C   0  0  0  0  0  0
  -19.1568  -28.8883   23.2838 C   0  0  0  0  0  0
  -18.9483  -30.1477   23.8864 C   0  0  0  0  0  0
  -17.6479  -30.6591   24.0560 C   0  0  0  0  0  0
  -25.9081  -34.9391   23.5045 C   0  0  0  0  0  0
  -16.5370  -29.9083   23.6340 C   0  0  0  0  0  0
  -16.7295  -28.6506   23.0355 C   0  0  0  0  0  0
  -26.4534  -31.6554   25.0707 C   0  0  0  0  0  0
  -25.3703  -31.3766   26.1390 C   0  0  0  0  0  0
  -27.0408  -30.2943   24.6329 C   0  0  0  0  0  0
  -27.6051  -32.4335   25.7498 C   0  0  0  0  0  0
  -27.5572  -37.1777   24.8467 C   0  0  0  0  0  0
  -21.4279  -29.3046   22.3590 N   0  0  0  0  0  0
  -26.4283  -37.3733   23.9409 N   0  0  0  0  0  0
  -24.7262  -31.0198   22.0891 N   0  0  0  0  0  0
  -23.4212  -28.8076   23.3012 O   0  0  0  0  0  0
  -28.2559  -26.0686   20.2320 O   0  0  0  0  0  0
  -26.5676  -34.8900   22.4630 O   0  0  0  0  0  0
  -23.5591  -32.1293   23.7017 O   0  0  0  0  0  0
  -31.3973  -18.1613   20.5855 C   0  0  0  0  0  0
  -30.8841  -20.5926   20.5081 C   0  0  0  0  0  0
  -29.1094  -18.9394   20.3615 C   0  0  0  0  0  0
  -30.0471  -17.7611   20.4655 C   0  0  0  0  0  0
  -29.4932  -20.4003   20.3780 C   0  0  0  0  0  0
  -31.7983  -19.5178   20.6061 C   0  0  0  0  0  0
  -27.6347  -18.6121   20.2270 C   0  0  0  0  0  0
  -29.0293  -23.1812   20.3629 C   0  0  0  0  0  0
  -27.9761  -24.5159   20.1115 C   0  0  0  0  0  0
  -29.7412  -16.2291   20.4882 N   0  0  0  0  0  0
  -28.6457  -21.6418   20.2739 N   0  0  0  0  0  0
  -33.4798  -19.8778   20.7625 Cl  0  0  0  0  0  0
  -31.4687  -12.8000   19.1854 H   0  0  0  0  0  0
  -30.4454  -11.6960   20.0572 H   0  0  0  0  0  0
  -29.8525  -11.7265   17.6079 H   0  0  0  0  0  0
  -29.5971  -13.4530   17.6754 H   0  0  0  0  0  0
  -27.9668  -11.2726   19.0065 H   0  0  0  0  0  0
  -27.3925  -12.4203   17.8252 H   0  0  0  0  0  0
  -27.5735  -14.2481   19.3849 H   0  0  0  0  0  0
  -28.7712  -12.3563   21.4664 H   0  0  0  0  0  0
  -28.3539  -14.0337   21.7338 H   0  0  0  0  0  0
  -25.2770   -9.5679   22.4763 H   0  0  0  0  0  0
  -24.0003   -7.4633   22.7474 H   0  0  0  0  0  0
  -21.0850   -8.8775   19.8952 H   0  0  0  0  0  0
  -22.3708  -10.9672   19.6167 H   0  0  0  0  0  0
  -21.2011   -7.6147   23.9712 H   0  0  0  0  0  0
  -21.1481   -6.0522   25.9074 H   0  0  0  0  0  0
  -22.0600   -2.7608   23.2844 H   0  0  0  0  0  0
  -22.4072  -11.9848   22.4830 H   0  0  0  0  0  0
  -21.1056  -13.1192   22.2659 H   0  0  0  0  0  0
  -24.6322  -15.8407   20.5155 H   0  0  0  0  0  0
  -26.2378  -15.6320   20.0361 H   0  0  0  0  0  0
  -26.7300  -32.5255   23.0967 H   0  0  0  0  0  0
  -25.0072  -33.9580   25.0281 H   0  0  0  0  0  0
  -22.7602  -31.2839   21.3711 H   0  0  0  0  0  0
  -23.3759  -35.9570   23.3293 H   0  0  0  0  0  0
  -24.3576  -36.8892   22.2062 H   0  0  0  0  0  0
  -23.7246  -37.6431   23.6697 H   0  0  0  0  0  0
  -26.1763  -31.4481   20.6155 H   0  0  0  0  0  0
  -26.8821  -30.7478   22.0353 H   0  0  0  0  0  0
  -28.1379  -28.7503   21.2432 H   0  0  0  0  0  0
  -25.8993  -25.8100   19.0141 H   0  0  0  0  0  0
  -23.9821  -27.2859   18.9814 H   0  0  0  0  0  0
  -23.8269  -30.5557   19.3946 H   0  0  0  0  0  0
  -22.7979  -29.2287   19.8384 H   0  0  0  0  0  0
  -25.1318  -36.1832   25.0806 H   0  0  0  0  0  0
  -21.0015  -28.3322   24.1347 H   0  0  0  0  0  0
  -20.5687  -26.2344   23.3632 H   0  0  0  0  0  0
  -21.6656  -26.7427   22.1203 H   0  0  0  0  0  0
  -19.6930  -25.6285   21.1261 H   0  0  0  0  0  0
  -19.6701  -27.3179   20.6737 H   0  0  0  0  0  0
  -17.4216  -26.6682   21.4026 H   0  0  0  0  0  0
  -18.0334  -26.0085   22.9029 H   0  0  0  0  0  0
  -19.7961  -30.7300   24.2216 H   0  0  0  0  0  0
  -17.5034  -31.6269   24.5166 H   0  0  0  0  0  0
  -15.5368  -30.2974   23.7683 H   0  0  0  0  0  0
  -15.8696  -28.0816   22.7082 H   0  0  0  0  0  0
  -24.5894  -30.7101   25.7710 H   0  0  0  0  0  0
  -24.8880  -32.2957   26.4730 H   0  0  0  0  0  0
  -25.7969  -30.8997   27.0223 H   0  0  0  0  0  0
  -26.3041  -29.6650   24.1323 H   0  0  0  0  0  0
  -27.3988  -29.7260   25.4924 H   0  0  0  0  0  0
  -27.8961  -30.4163   23.9680 H   0  0  0  0  0  0
  -27.2637  -33.3670   26.1984 H   0  0  0  0  0  0
  -28.3908  -32.6839   25.0357 H   0  0  0  0  0  0
  -28.0666  -31.8520   26.5490 H   0  0  0  0  0  0
  -28.2578  -38.0082   24.7503 H   0  0  0  0  0  0
  -28.1076  -36.2607   24.6303 H   0  0  0  0  0  0
  -27.2287  -37.1433   25.8869 H   0  0  0  0  0  0
  -20.9499  -29.8754   21.6759 H   0  0  0  0  0  0
  -26.0144  -38.2798   24.1410 H   0  0  0  0  0  0
  -32.1750  -17.4195   20.6786 H   0  0  0  0  0  0
  -31.2855  -21.5945   20.5336 H   0  0  0  0  0  0
  -27.4884  -17.7495   19.5773 H   0  0  0  0  0  0
  -27.0764  -19.4422   19.7956 H   0  0  0  0  0  0
  -27.2091  -18.3840   21.2041 H   0  0  0  0  0  0
  -29.4599  -23.3151   21.3561 H   0  0  0  0  0  0
  -29.8670  -23.3222   19.6791 H   0  0  0  0  0  0
  -27.1179  -24.3400   20.7609 H   0  0  0  0  0  0
  -27.5937  -24.3783   19.1004 H   0  0  0  0  0  0
  -28.7586  -16.0195   20.5723 H   0  0  0  0  0  0
  -27.6462  -21.4755   20.1811 H   0  0  0  0  0  0
  1 25  1  0  0  0
  1 30  2  0  0  0
  1 80  1  0  0  0
  2  3  1  0  0  0
  2 25  1  0  0  0
  2 83  1  0  0  0
  2 84  1  0  0  0
  3  4  1  0  0  0
  3 85  1  0  0  0
  3 86  1  0  0  0
  4  5  1  0  0  0
  4 87  1  0  0  0
  4 88  1  0  0  0
  5  6  1  0  0  0
  5 26  1  0  0  0
  5 89  1  0  0  0
  6 25  1  0  0  0
  6 90  1  0  0  0
  6 91  1  0  0  0
  7  8  2  0  0  0
  7 26  1  0  0  0
  7 29  1  0  0  0
  8  9  1  0  0  0
  8 22  1  0  0  0
  9 10  1  0  0  0
  9 27  2  0  0  0
 10 11  2  0  0  0
 10 15  1  0  0  0
 11 12  1  0  0  0
 11 92  1  0  0  0
 12 13  2  0  0  0
 12 93  1  0  0  0
 13 14  1  0  0  0
 13 31  1  0  0  0
 14 15  2  0  0  0
 14 94  1  0  0  0
 15 95  1  0  0  0
 16 17  2  0  0  0
 16 21  1  0  0  0
 16 31  1  0  0  0
 17 18  1  0  0  0
 17 96  1  0  0  0
 18 19  2  0  0  0
 18 97  1  0  0  0
 19 20  1  0  0  0
 19 24  1  0  0  0
 20 21  2  0  0  0
 20 98  1  0  0  0
 21 23  1  0  0  0
 22 28  1  0  0  0
 22 32  2  0  0  0
 26 27  1  0  0  0
 28 99  1  0  0  0
 28100  1  0  0  0
 29101  1  0  0  0
 29102  1  0  0  0
 33 34  1  0  0  0
 33 66  1  0  0  0
 33 70  2  0  0  0
 34 36  1  0  0  0
 34 59  1  0  0  0
 34103  1  0  0  0
 35 44  2  0  0  0
 35 45  1  0  0  0
 35 68  1  0  0  0
 36 56  1  0  0  0
 36104  1  0  0  0
 37 39  1  0  0  0
 37 47  1  0  0  0
 37 66  1  0  0  0
 37105  1  0  0  0
 38 43  2  0  0  0
 38 46  1  0  0  0
 38 47  1  0  0  0
 39 64  1  0  0  0
 39 67  2  0  0  0
 40 52  1  0  0  0
 40 53  2  0  0  0
 40 58  1  0  0  0
 41106  1  0  0  0
 41107  1  0  0  0
 41108  1  0  0  0
 41 48  1  0  0  0
 42 43  1  0  0  0
 42 66  1  0  0  0
 42109  1  0  0  0
 42110  1  0  0  0
 43 44  1  0  0  0
 44111  1  0  0  0
 45 46  2  0  0  0
 45112  1  0  0  0
 46113  1  0  0  0
 47114  1  0  0  0
 47115  1  0  0  0
 48 56  1  0  0  0
 48 65  1  0  0  0
 48116  1  0  0  0
 49 50  1  0  0  0
 49 53  1  0  0  0
 49 64  1  0  0  0
 49117  1  0  0  0
 50 51  1  0  0  0
 50118  1  0  0  0
 50119  1  0  0  0
 51 52  1  0  0  0
 51120  1  0  0  0
 51121  1  0  0  0
 52122  1  0  0  0
 52123  1  0  0  0
 53 54  1  0  0  0
 54 55  2  0  0  0
 54124  1  0  0  0
 55 57  1  0  0  0
 55125  1  0  0  0
 56 69  2  0  0  0
 57 58  2  0  0  0
 57126  1  0  0  0
 58127  1  0  0  0
 59 60  1  0  0  0
 59 61  1  0  0  0
 59 62  1  0  0  0
 60128  1  0  0  0
 60129  1  0  0  0
 60130  1  0  0  0
 61131  1  0  0  0
 61132  1  0  0  0
 61133  1  0  0  0
 62134  1  0  0  0
 62135  1  0  0  0
 62136  1  0  0  0
 63 65  1  0  0  0
 63137  1  0  0  0
 63138  1  0  0  0
 63139  1  0  0  0
 64140  1  0  0  0
 65141  1  0  0  0
 68 79  1  0  0  0
 71 74  2  0  0  0
 71 76  1  0  0  0
 71142  1  0  0  0
 72 75  1  0  0  0
 72 76  2  0  0  0
 72143  1  0  0  0
 73 74  1  0  0  0
 73 75  2  0  0  0
 73 77  1  0  0  0
 74 80  1  0  0  0
 75 81  1  0  0  0
 76 82  1  0  0  0
 77144  1  0  0  0
 77145  1  0  0  0
 77146  1  0  0  0
 78 79  1  0  0  0
 78 81  1  0  0  0
 78147  1  0  0  0
 78148  1  0  0  0
 79149  1  0  0  0
 79150  1  0  0  0
 80151  1  0  0  0
 81152  1  0  0  0
M  ISO  4   1 100  68 101  79 101  80 100
M  END
> <chiral flag>
0

> <version>
0

> <s_m_source_file>
/data/baiqing/PycharmProjects/Reinvent-master-3.2/result/LINK_invent/BTK/process_docking_weight1_custom_product_contain_oxygen_bond_distance_aromatic_linkinvent_7_9_3/rearranged_h_0026.sdf

> <i_m_source_file_index>
39

> <r_mmod_Potential_Energy-OPLS-2005>
604.733032226562

> <r_mmod_Stretch_Energy-OPLS-2005>
319.815582275391

> <r_mmod_Bend_Energy-OPLS-2005>
274.979827880859

> <r_mmod_Torsional_Energy-OPLS-2005>
201.959396362305

> <r_mmod_Improper_Torsional_Energy-OPLS-2005>
4.9875545501709

> <r_mmod_Van_der_Waal_Energy-OPLS-2005>
128.604080200195

> <r_mmod_Electrostatic_Energy-OPLS-2005>
-345.506530761719

> <r_mmod_Solvation_Energy-OPLS-2005>
-223.882629394531

> <b_mmod_Minimization_Converged-OPLS-2005>
0

> <r_mmod_RMS_Derivative-OPLS-2005>
0.407248944044113

$$$$
39
                    3D
 Structure written by MMmdl.
162171  0  0  1  0            999 V2000
  -30.6365  -14.7495   20.4564 C   0  0  0  0  0  0
  -30.4224  -12.4573   19.4797 C   0  0  0  0  0  0
  -29.5068  -12.5033   18.2380 C   0  0  0  0  0  0
  -28.0340  -12.3287   18.6524 C   0  0  0  0  0  0
  -27.6379  -13.2368   19.8476 C   0  0  2  0  0  0
  -28.6823  -13.1936   20.9847 C   0  0  0  0  0  0
  -25.2492  -13.8209   20.5705 C   0  0  0  0  0  0
  -24.1793  -13.0445   20.9219 C   0  0  0  0  0  0
  -24.6393  -11.6925   20.8758 C   0  0  0  0  0  0
  -23.9075  -10.4297   21.0413 C   0  0  0  0  0  0
  -24.3624   -9.4210   21.9189 C   0  0  0  0  0  0
  -23.6297   -8.2245   22.0756 C   0  0  0  0  0  0
  -22.4280   -8.0284   21.3545 C   0  0  0  0  0  0
  -21.9918   -9.0259   20.4647 C   0  0  0  0  0  0
  -22.7249  -10.2138   20.3059 C   0  0  0  0  0  0
  -21.6855   -6.0739   22.5280 C   0  0  0  0  0  0
  -21.4015   -6.5642   23.8214 C   0  0  0  0  0  0
  -21.3659   -5.6794   24.9175 C   0  0  0  0  0  0
  -21.6043   -4.3057   24.7224 C   0  0  0  0  0  0
  -21.8819   -3.8150   23.4346 C   0  0  0  0  0  0
  -21.9193   -4.6967   22.3402 C   0  0  0  0  0  0
  -22.7813  -13.5222   21.1873 C   0  0  0  0  0  0
  -22.1661   -4.2153   21.0980 F   0  0  0  0  0  0
  -21.5628   -3.4540   25.7737 F   0  0  0  0  0  0
  -29.9814  -13.5373   20.3965 N   0  0  0  0  0  0
  -26.2918  -12.9426   20.3281 N   0  0  0  0  0  0
  -25.9324  -11.6564   20.5762 N   0  0  0  0  0  0
  -22.0457  -12.8208   22.0423 N   0  0  0  0  0  0
  -25.4171  -15.1936   20.4112 N   0  0  0  0  0  0
  -31.8258  -14.7801   20.1340 O   0  0  0  0  0  0
  -21.6642   -6.8883   21.4241 O   0  0  0  0  0  0
  -22.3500  -14.5529   20.6720 O   0  0  0  0  0  0
  -24.6322  -31.8539   23.1969 C   0  0  0  0  0  0
  -25.9146  -32.4745   23.8316 C   0  0  1  0  0  0
  -27.2181  -27.2506   20.1220 C   0  0  0  0  0  0
  -25.5938  -33.8548   24.2243 N   0  0  0  0  0  0
  -23.4281  -30.4769   21.5407 C   0  0  2  0  0  0
  -24.8726  -28.9217   20.1074 C   0  0  0  0  0  0
  -22.7502  -29.4599   22.4907 C   0  0  0  0  0  0
  -18.0292  -28.1388   22.8485 C   0  0  0  0  0  0
  -24.1490  -36.7276   23.2642 C   0  0  0  0  0  0
  -25.9742  -30.7630   21.3771 C   0  0  0  0  0  0
  -26.0434  -29.3850   20.7178 C   0  0  0  0  0  0
  -27.2137  -28.5604   20.7159 C   0  0  0  0  0  0
  -26.0175  -26.8529   19.4902 C   0  0  0  0  0  0
  -24.8655  -27.6646   19.4849 C   0  0  0  0  0  0
  -23.6446  -29.8105   20.1562 C   0  0  0  0  0  0
  -25.4118  -36.3062   24.0325 C   0  0  1  0  0  0
  -20.5896  -28.3700   23.1267 C   0  0  2  0  0  0
  -20.6778  -26.9416   22.5408 C   0  0  0  0  0  0
  -19.5753  -26.6383   21.5212 C   0  0  0  0  0  0
  -18.1934  -26.7932   22.1623 C   0  0  0  0  0  0
  -19.1546  -28.8861   23.2870 C   0  0  0  0  0  0
  -18.9468  -30.1463   23.8888 C   0  0  0  0  0  0
  -17.6466  -30.6589   24.0564 C   0  0  0  0  0  0
  -25.9060  -34.9435   23.5087 C   0  0  0  0  0  0
  -16.5357  -29.9085   23.6333 C   0  0  0  0  0  0
  -16.7279  -28.6503   23.0354 C   0  0  0  0  0  0
  -26.4507  -31.6578   25.0714 C   0  0  0  0  0  0
  -25.3723  -31.3733   26.1429 C   0  0  0  0  0  0
  -27.0364  -30.2995   24.6213 C   0  0  0  0  0  0
  -27.6055  -32.4326   25.7490 C   0  0  0  0  0  0
  -27.5578  -37.1796   24.8468 C   0  0  0  0  0  0
  -21.4209  -29.3045   22.3654 N   0  0  0  0  0  0
  -26.4291  -37.3764   23.9408 N   0  0  0  0  0  0
  -24.6976  -31.0498   22.0944 N   0  0  0  0  0  0
  -23.4202  -28.8143   23.3010 O   0  0  0  0  0  0
  -28.3350  -26.3843   20.2200 O   0  0  0  0  0  0
  -26.5634  -34.8916   22.4659 O   0  0  0  0  0  0
  -23.5472  -32.1365   23.7262 O   0  0  0  0  0  0
  -32.1877  -18.9913   20.7784 C   0  0  0  0  0  0
  -31.7181  -17.6711   20.7110 C   0  0  0  0  0  0
  -29.4551  -18.5353   20.6389 C   0  0  0  0  0  0
  -29.9115  -19.9304   20.6965 C   0  0  0  0  0  0
  -31.3252  -20.1052   20.8099 C   0  0  0  0  0  0
  -30.3391  -17.3654   20.6522 C   0  0  0  0  0  0
  -28.3818  -23.7210   20.5737 C   0  0  0  0  0  0
  -28.9860  -21.1669   20.8482 C   0  0  0  0  0  0
  -30.6101  -23.7939   18.7906 C   0  0  0  0  0  0
  -29.7175  -25.0442   18.7220 C   0  0  0  0  0  0
  -29.7910  -22.4952   18.8899 C   0  0  0  0  0  0
  -28.4444  -25.0095   19.6034 C   0  0  2  0  0  0
  -32.0093  -21.4476   21.0573 C   0  0  0  0  0  0
  -29.0463  -22.4100   20.1720 N   0  0  0  0  0  0
  -29.9078  -15.9273   20.6534 N   0  0  0  0  0  0
  -28.0729  -21.0222   21.8090 N   0  3  0  0  0  0
  -27.7595  -23.7929   21.6394 O   0  0  0  0  0  0
  -31.4656  -12.5607   19.1767 H   0  0  0  0  0  0
  -30.3541  -11.4870   19.9742 H   0  0  0  0  0  0
  -29.7910  -11.7244   17.5291 H   0  0  0  0  0  0
  -29.6350  -13.4540   17.7178 H   0  0  0  0  0  0
  -27.8938  -11.2815   18.9231 H   0  0  0  0  0  0
  -27.3763  -12.5123   17.8021 H   0  0  0  0  0  0
  -27.6260  -14.2540   19.4558 H   0  0  0  0  0  0
  -28.7188  -12.2048   21.4444 H   0  0  0  0  0  0
  -28.4170  -13.8925   21.7795 H   0  0  0  0  0  0
  -25.2768   -9.5686   22.4766 H   0  0  0  0  0  0
  -24.0006   -7.4636   22.7475 H   0  0  0  0  0  0
  -21.0851   -8.8779   19.8951 H   0  0  0  0  0  0
  -22.3709  -10.9677   19.6169 H   0  0  0  0  0  0
  -21.2007   -7.6151   23.9718 H   0  0  0  0  0  0
  -21.1481   -6.0524   25.9078 H   0  0  0  0  0  0
  -22.0598   -2.7612   23.2844 H   0  0  0  0  0  0
  -22.4070  -11.9867   22.4809 H   0  0  0  0  0  0
  -21.1074  -13.1230   22.2626 H   0  0  0  0  0  0
  -24.6443  -15.8424   20.5147 H   0  0  0  0  0  0
  -26.2543  -15.6325   20.0511 H   0  0  0  0  0  0
  -26.7209  -32.5385   23.1050 H   0  0  0  0  0  0
  -25.0089  -33.9683   25.0392 H   0  0  0  0  0  0
  -22.7252  -31.2997   21.3949 H   0  0  0  0  0  0
  -23.3756  -35.9606   23.3304 H   0  0  0  0  0  0
  -24.3577  -36.8899   22.2055 H   0  0  0  0  0  0
  -23.7241  -37.6476   23.6667 H   0  0  0  0  0  0
  -26.1160  -31.5236   20.6080 H   0  0  0  0  0  0
  -26.8512  -30.8096   22.0111 H   0  0  0  0  0  0
  -28.1092  -28.9099   21.2105 H   0  0  0  0  0  0
  -25.9099  -25.8900   19.0201 H   0  0  0  0  0  0
  -23.9652  -27.3014   19.0083 H   0  0  0  0  0  0
  -23.7693  -30.5865   19.4000 H   0  0  0  0  0  0
  -22.7618  -29.2452   19.8518 H   0  0  0  0  0  0
  -25.1302  -36.1904   25.0819 H   0  0  0  0  0  0
  -20.9991  -28.3278   24.1386 H   0  0  0  0  0  0
  -20.5677  -26.2312   23.3615 H   0  0  0  0  0  0
  -21.6645  -26.7437   22.1201 H   0  0  0  0  0  0
  -19.6914  -25.6293   21.1246 H   0  0  0  0  0  0
  -19.6687  -27.3191   20.6740 H   0  0  0  0  0  0
  -17.4203  -26.6681   21.4025 H   0  0  0  0  0  0
  -18.0331  -26.0073   22.9019 H   0  0  0  0  0  0
  -19.7945  -30.7283   24.2248 H   0  0  0  0  0  0
  -17.5021  -31.6268   24.5168 H   0  0  0  0  0  0
  -15.5358  -30.2985   23.7662 H   0  0  0  0  0  0
  -15.8679  -28.0821   22.7072 H   0  0  0  0  0  0
  -24.5904  -30.7077   25.7756 H   0  0  0  0  0  0
  -24.8909  -32.2905   26.4832 H   0  0  0  0  0  0
  -25.8032  -30.8924   27.0219 H   0  0  0  0  0  0
  -26.2954  -29.6731   24.1232 H   0  0  0  0  0  0
  -27.4041  -29.7269   25.4737 H   0  0  0  0  0  0
  -27.8831  -30.4275   23.9465 H   0  0  0  0  0  0
  -27.2660  -33.3638   26.2038 H   0  0  0  0  0  0
  -28.3879  -32.6867   25.0325 H   0  0  0  0  0  0
  -28.0708  -31.8469   26.5428 H   0  0  0  0  0  0
  -28.2596  -38.0092   24.7511 H   0  0  0  0  0  0
  -28.1073  -36.2623   24.6299 H   0  0  0  0  0  0
  -27.2295  -37.1449   25.8871 H   0  0  0  0  0  0
  -20.9395  -29.8770   21.6861 H   0  0  0  0  0  0
  -26.0167  -38.2838   24.1403 H   0  0  0  0  0  0
  -33.2559  -19.1398   20.8588 H   0  0  0  0  0  0
  -32.4761  -16.9075   20.7501 H   0  0  0  0  0  0
  -28.3884  -18.3625   20.6118 H   0  0  0  0  0  0
  -31.2727  -23.8770   19.6522 H   0  0  0  0  0  0
  -31.2632  -23.7583   17.9177 H   0  0  0  0  0  0
  -29.4126  -25.2054   17.6872 H   0  0  0  0  0  0
  -30.3267  -25.9112   18.9796 H   0  0  0  0  0  0
  -30.4546  -21.6460   18.7333 H   0  0  0  0  0  0
  -29.0759  -22.4443   18.0667 H   0  0  0  0  0  0
  -27.6314  -24.8340   18.9061 H   0  0  0  0  0  0
  -32.8749  -21.3133   21.7076 H   0  0  0  0  0  0
  -31.3781  -22.1816   21.5554 H   0  0  0  0  0  0
  -32.3822  -21.8660   20.1231 H   0  0  0  0  0  0
  -28.9219  -15.7750   20.7976 H   0  0  0  0  0  0
  -28.0491  -20.1812   22.3638 H   0  0  0  0  0  0
  -27.5302  -21.8280   22.0935 H   0  0  0  0  0  0
  1 25  1  0  0  0
  1 30  2  0  0  0
  1 85  1  0  0  0
  2  3  1  0  0  0
  2 25  1  0  0  0
  2 88  1  0  0  0
  2 89  1  0  0  0
  3  4  1  0  0  0
  3 90  1  0  0  0
  3 91  1  0  0  0
  4  5  1  0  0  0
  4 92  1  0  0  0
  4 93  1  0  0  0
  5  6  1  0  0  0
  5 26  1  0  0  0
  5 94  1  0  0  0
  6 25  1  0  0  0
  6 95  1  0  0  0
  6 96  1  0  0  0
  7  8  2  0  0  0
  7 26  1  0  0  0
  7 29  1  0  0  0
  8  9  1  0  0  0
  8 22  1  0  0  0
  9 10  1  0  0  0
  9 27  2  0  0  0
 10 11  2  0  0  0
 10 15  1  0  0  0
 11 12  1  0  0  0
 11 97  1  0  0  0
 12 13  2  0  0  0
 12 98  1  0  0  0
 13 14  1  0  0  0
 13 31  1  0  0  0
 14 15  2  0  0  0
 14 99  1  0  0  0
 15100  1  0  0  0
 16 17  2  0  0  0
 16 21  1  0  0  0
 16 31  1  0  0  0
 17 18  1  0  0  0
 17101  1  0  0  0
 18 19  2  0  0  0
 18102  1  0  0  0
 19 20  1  0  0  0
 19 24  1  0  0  0
 20 21  2  0  0  0
 20103  1  0  0  0
 21 23  1  0  0  0
 22 28  1  0  0  0
 22 32  2  0  0  0
 26 27  1  0  0  0
 28104  1  0  0  0
 28105  1  0  0  0
 29106  1  0  0  0
 29107  1  0  0  0
 33 34  1  0  0  0
 33 66  1  0  0  0
 33 70  2  0  0  0
 34 36  1  0  0  0
 34 59  1  0  0  0
 34108  1  0  0  0
 35 44  2  0  0  0
 35 45  1  0  0  0
 35 68  1  0  0  0
 36 56  1  0  0  0
 36109  1  0  0  0
 37 39  1  0  0  0
 37 47  1  0  0  0
 37 66  1  0  0  0
 37110  1  0  0  0
 38 43  2  0  0  0
 38 46  1  0  0  0
 38 47  1  0  0  0
 39 64  1  0  0  0
 39 67  2  0  0  0
 40 52  1  0  0  0
 40 53  2  0  0  0
 40 58  1  0  0  0
 41111  1  0  0  0
 41112  1  0  0  0
 41113  1  0  0  0
 41 48  1  0  0  0
 42 43  1  0  0  0
 42 66  1  0  0  0
 42114  1  0  0  0
 42115  1  0  0  0
 43 44  1  0  0  0
 44116  1  0  0  0
 45 46  2  0  0  0
 45117  1  0  0  0
 46118  1  0  0  0
 47119  1  0  0  0
 47120  1  0  0  0
 48 56  1  0  0  0
 48 65  1  0  0  0
 48121  1  0  0  0
 49 50  1  0  0  0
 49 53  1  0  0  0
 49 64  1  0  0  0
 49122  1  0  0  0
 50 51  1  0  0  0
 50123  1  0  0  0
 50124  1  0  0  0
 51 52  1  0  0  0
 51125  1  0  0  0
 51126  1  0  0  0
 52127  1  0  0  0
 52128  1  0  0  0
 53 54  1  0  0  0
 54 55  2  0  0  0
 54129  1  0  0  0
 55 57  1  0  0  0
 55130  1  0  0  0
 56 69  2  0  0  0
 57 58  2  0  0  0
 57131  1  0  0  0
 58132  1  0  0  0
 59 60  1  0  0  0
 59 61  1  0  0  0
 59 62  1  0  0  0
 60133  1  0  0  0
 60134  1  0  0  0
 60135  1  0  0  0
 61136  1  0  0  0
 61137  1  0  0  0
 61138  1  0  0  0
 62139  1  0  0  0
 62140  1  0  0  0
 62141  1  0  0  0
 63 65  1  0  0  0
 63142  1  0  0  0
 63143  1  0  0  0
 63144  1  0  0  0
 64145  1  0  0  0
 65146  1  0  0  0
 68 82  1  0  0  0
 71 72  2  0  0  0
 71 75  1  0  0  0
 71147  1  0  0  0
 72 76  1  0  0  0
 72148  1  0  0  0
 73 74  1  0  0  0
 73 76  2  0  0  0
 73149  1  0  0  0
 74 75  2  0  0  0
 74 78  1  0  0  0
 75 83  1  0  0  0
 76 85  1  0  0  0
 77 82  1  0  0  0
 77 84  1  0  0  0
 77 87  2  0  0  0
 78 84  1  0  0  0
 78 86  2  0  0  0
 79 80  1  0  0  0
 79 81  1  0  0  0
 79150  1  0  0  0
 79151  1  0  0  0
 80 82  1  0  0  0
 80152  1  0  0  0
 80153  1  0  0  0
 81 84  1  0  0  0
 81154  1  0  0  0
 81155  1  0  0  0
 82156  1  0  0  0
 83157  1  0  0  0
 83158  1  0  0  0
 83159  1  0  0  0
 85160  1  0  0  0
 86161  1  0  0  0
 86162  1  0  0  0
M  CHG  1  86   1
M  ISO  4   1 100  68 101  82 101  85 100
M  END
> <chiral flag>
0

> <version>
0

> <s_m_source_file>
/data/baiqing/PycharmProjects/Reinvent-master-3.2/result/LINK_invent/BTK/process_docking_weight1_custom_product_contain_oxygen_bond_distance_aromatic_linkinvent_7_9_3/rearranged_h_0026.sdf

> <i_m_source_file_index>
40

> <r_mmod_Potential_Energy-OPLS-2005>
98.5890350341797

> <r_mmod_Stretch_Energy-OPLS-2005>
154.250762939453

> <r_mmod_Bend_Energy-OPLS-2005>
192.621017456055

> <r_mmod_Torsional_Energy-OPLS-2005>
254.702163696289

> <r_mmod_Improper_Torsional_Energy-OPLS-2005>
7.15711879730225

> <r_mmod_Van_der_Waal_Energy-OPLS-2005>
171.753784179688

> <r_mmod_Electrostatic_Energy-OPLS-2005>
-364.393859863281

> <r_mmod_Solvation_Energy-OPLS-2005>
-405.507690429688

> <b_mmod_Minimization_Converged-OPLS-2005>
0

> <r_mmod_RMS_Derivative-OPLS-2005>
0.327875822782516

$$$$
40
                    3D
 Structure written by MMmdl.
152161  0  0  1  0            999 V2000
  -30.5110  -15.0572   20.4025 C   0  0  0  0  0  0
  -30.4398  -12.6640   19.5018 C   0  0  0  0  0  0
  -29.5236  -12.5403   18.2618 C   0  0  0  0  0  0
  -28.0619  -12.3064   18.6860 C   0  0  0  0  0  0
  -27.6213  -13.2572   19.8289 C   0  0  2  0  0  0
  -28.6635  -13.3415   20.9632 C   0  0  0  0  0  0
  -25.2429  -13.8226   20.5723 C   0  0  0  0  0  0
  -24.1762  -13.0435   20.9242 C   0  0  0  0  0  0
  -24.6394  -11.6926   20.8760 C   0  0  0  0  0  0
  -23.9084  -10.4292   21.0409 C   0  0  0  0  0  0
  -24.3631   -9.4205   21.9186 C   0  0  0  0  0  0
  -23.6301   -8.2242   22.0755 C   0  0  0  0  0  0
  -22.4282   -8.0282   21.3545 C   0  0  0  0  0  0
  -21.9922   -9.0257   20.4646 C   0  0  0  0  0  0
  -22.7256  -10.2133   20.3057 C   0  0  0  0  0  0
  -21.6855   -6.0737   22.5279 C   0  0  0  0  0  0
  -21.4016   -6.5641   23.8212 C   0  0  0  0  0  0
  -21.3660   -5.6793   24.9174 C   0  0  0  0  0  0
  -21.6044   -4.3056   24.7224 C   0  0  0  0  0  0
  -21.8819   -3.8148   23.4345 C   0  0  0  0  0  0
  -21.9193   -4.6964   22.3402 C   0  0  0  0  0  0
  -22.7781  -13.5198   21.1893 C   0  0  0  0  0  0
  -22.1661   -4.2150   21.0979 F   0  0  0  0  0  0
  -21.5628   -3.4539   25.7737 F   0  0  0  0  0  0
  -29.9211  -13.7847   20.3473 N   0  0  0  0  0  0
  -26.2853  -12.9473   20.3225 N   0  0  0  0  0  0
  -25.9327  -11.6594   20.5733 N   0  0  0  0  0  0
  -22.0436  -12.8183   22.0448 N   0  0  0  0  0  0
  -25.4064  -15.1959   20.4151 N   0  0  0  0  0  0
  -31.7288  -15.0808   20.1856 O   0  0  0  0  0  0
  -21.6642   -6.8881   21.4241 O   0  0  0  0  0  0
  -22.3460  -14.5499   20.6734 O   0  0  0  0  0  0
  -24.6506  -31.8369   23.1818 C   0  0  0  0  0  0
  -25.9245  -32.4657   23.8234 C   0  0  1  0  0  0
  -27.2140  -27.0563   20.1680 C   0  0  0  0  0  0
  -25.5964  -33.8466   24.2147 N   0  0  0  0  0  0
  -23.4578  -30.4537   21.5294 C   0  0  2  0  0  0
  -24.9073  -28.8638   20.1152 C   0  0  0  0  0  0
  -22.7602  -29.4512   22.4838 C   0  0  0  0  0  0
  -18.0310  -28.1401   22.8473 C   0  0  0  0  0  0
  -24.1493  -36.7238   23.2645 C   0  0  0  0  0  0
  -26.0193  -30.6853   21.3922 C   0  0  0  0  0  0
  -26.0883  -29.2877   20.7372 C   0  0  0  0  0  0
  -27.2418  -28.4033   20.7400 C   0  0  0  0  0  0
  -26.0068  -26.7551   19.5031 C   0  0  0  0  0  0
  -24.8839  -27.6134   19.4802 C   0  0  0  0  0  0
  -23.6890  -29.7772   20.1520 C   0  0  0  0  0  0
  -25.4130  -36.3009   24.0309 C   0  0  1  0  0  0
  -20.5927  -28.3734   23.1220 C   0  0  2  0  0  0
  -20.6794  -26.9430   22.5404 C   0  0  0  0  0  0
  -19.5767  -26.6381   21.5214 C   0  0  0  0  0  0
  -18.1948  -26.7936   22.1624 C   0  0  0  0  0  0
  -19.1569  -28.8886   23.2836 C   0  0  0  0  0  0
  -18.9482  -30.1480   23.8866 C   0  0  0  0  0  0
  -17.6478  -30.6595   24.0558 C   0  0  0  0  0  0
  -25.9084  -34.9387   23.5042 C   0  0  0  0  0  0
  -16.5369  -29.9086   23.6339 C   0  0  0  0  0  0
  -16.7294  -28.6505   23.0359 C   0  0  0  0  0  0
  -26.4540  -31.6552   25.0707 C   0  0  0  0  0  0
  -25.3700  -31.3764   26.1386 C   0  0  0  0  0  0
  -27.0419  -30.2937   24.6347 C   0  0  0  0  0  0
  -27.6053  -32.4337   25.7501 C   0  0  0  0  0  0
  -27.5571  -37.1781   24.8469 C   0  0  0  0  0  0
  -21.4286  -29.3047   22.3584 N   0  0  0  0  0  0
  -26.4289  -37.3728   23.9401 N   0  0  0  0  0  0
  -24.7297  -31.0155   22.0889 N   0  0  0  0  0  0
  -23.4210  -28.8068   23.3022 O   0  0  0  0  0  0
  -28.2628  -26.0405   20.2027 O   0  0  0  0  0  0
  -26.5680  -34.8898   22.4627 O   0  0  0  0  0  0
  -23.5607  -32.1282   23.6992 O   0  0  0  0  0  0
  -31.7437  -19.5150   21.0999 C   0  0  0  0  0  0
  -30.8802  -20.6138   20.8887 C   0  0  0  0  0  0
  -31.3479  -18.1700   20.9258 C   0  0  0  0  0  0
  -29.5396  -20.4692   20.4676 C   0  0  0  0  0  0
  -30.0410  -17.8073   20.5342 C   0  0  0  0  0  0
  -29.1490  -19.0113   20.3117 C   0  0  0  0  0  0
  -27.7484  -22.0902   19.4204 C   0  0  0  0  0  0
  -27.3691  -23.6098   19.2486 C   0  0  0  0  0  0
  -29.1896  -23.2905   20.6711 C   0  0  0  0  0  0
  -28.0512  -24.4608   20.3566 C   0  0  1  0  0  0
  -28.7873  -21.8362   20.2528 N   0  0  0  0  0  0
  -29.7296  -16.2746   20.4534 N   0  0  0  0  0  0
  -27.1221  -21.2238   18.8047 O   0  0  0  0  0  0
  -27.8716  -18.7398   19.9558 F   0  0  0  0  0  0
  -31.4678  -12.8387   19.1810 H   0  0  0  0  0  0
  -30.4600  -11.7304   20.0663 H   0  0  0  0  0  0
  -29.8626  -11.7278   17.6177 H   0  0  0  0  0  0
  -29.5902  -13.4524   17.6666 H   0  0  0  0  0  0
  -27.9798  -11.2712   19.0192 H   0  0  0  0  0  0
  -27.3952  -12.4043   17.8284 H   0  0  0  0  0  0
  -27.5650  -14.2460   19.3726 H   0  0  0  0  0  0
  -28.7811  -12.3814   21.4680 H   0  0  0  0  0  0
  -28.3449  -14.0568   21.7232 H   0  0  0  0  0  0
  -25.2773   -9.5679   22.4764 H   0  0  0  0  0  0
  -24.0006   -7.4633   22.7477 H   0  0  0  0  0  0
  -21.0853   -8.8780   19.8952 H   0  0  0  0  0  0
  -22.3715  -10.9674   19.6168 H   0  0  0  0  0  0
  -21.2010   -7.6149   23.9716 H   0  0  0  0  0  0
  -21.1481   -6.0523   25.9076 H   0  0  0  0  0  0
  -22.0598   -2.7610   23.2846 H   0  0  0  0  0  0
  -22.4066  -11.9852   22.4839 H   0  0  0  0  0  0
  -21.1049  -13.1193   22.2652 H   0  0  0  0  0  0
  -24.6334  -15.8426   20.5294 H   0  0  0  0  0  0
  -26.2423  -15.6429   20.0630 H   0  0  0  0  0  0
  -26.7310  -32.5236   23.0955 H   0  0  0  0  0  0
  -25.0077  -33.9567   25.0273 H   0  0  0  0  0  0
  -22.7643  -31.2817   21.3687 H   0  0  0  0  0  0
  -23.3758  -35.9568   23.3305 H   0  0  0  0  0  0
  -24.3569  -36.8878   22.2060 H   0  0  0  0  0  0
  -23.7252  -37.6432   23.6692 H   0  0  0  0  0  0
  -26.1839  -31.4338   20.6158 H   0  0  0  0  0  0
  -26.8861  -30.7385   22.0392 H   0  0  0  0  0  0
  -28.1428  -28.7275   21.2415 H   0  0  0  0  0  0
  -25.9037  -25.8121   18.9943 H   0  0  0  0  0  0
  -23.9862  -27.2859   18.9739 H   0  0  0  0  0  0
  -23.8347  -30.5489   19.3951 H   0  0  0  0  0  0
  -22.8013  -29.2250   19.8382 H   0  0  0  0  0  0
  -25.1324  -36.1828   25.0801 H   0  0  0  0  0  0
  -21.0016  -28.3330   24.1343 H   0  0  0  0  0  0
  -20.5687  -26.2348   23.3630 H   0  0  0  0  0  0
  -21.6658  -26.7429   22.1202 H   0  0  0  0  0  0
  -19.6929  -25.6284   21.1264 H   0  0  0  0  0  0
  -19.6704  -27.3174   20.6730 H   0  0  0  0  0  0
  -17.4217  -26.6680   21.4027 H   0  0  0  0  0  0
  -18.0346  -26.0086   22.9028 H   0  0  0  0  0  0
  -19.7958  -30.7305   24.2221 H   0  0  0  0  0  0
  -17.5030  -31.6271   24.5166 H   0  0  0  0  0  0
  -15.5368  -30.2978   23.7682 H   0  0  0  0  0  0
  -15.8694  -28.0814   22.7093 H   0  0  0  0  0  0
  -24.5892  -30.7101   25.7700 H   0  0  0  0  0  0
  -24.8875  -32.2953   26.4727 H   0  0  0  0  0  0
  -25.7960  -30.8991   27.0219 H   0  0  0  0  0  0
  -26.3057  -29.6639   24.1339 H   0  0  0  0  0  0
  -27.3988  -29.7263   25.4952 H   0  0  0  0  0  0
  -27.8982  -30.4153   23.9710 H   0  0  0  0  0  0
  -27.2636  -33.3667   26.1994 H   0  0  0  0  0  0
  -28.3908  -32.6851   25.0360 H   0  0  0  0  0  0
  -28.0674  -31.8519   26.5487 H   0  0  0  0  0  0
  -28.2593  -38.0071   24.7491 H   0  0  0  0  0  0
  -28.1062  -36.2598   24.6333 H   0  0  0  0  0  0
  -27.2282  -37.1471   25.8871 H   0  0  0  0  0  0
  -20.9515  -29.8747   21.6740 H   0  0  0  0  0  0
  -26.0150  -38.2796   24.1389 H   0  0  0  0  0  0
  -32.7597  -19.7138   21.4126 H   0  0  0  0  0  0
  -31.2862  -21.6030   21.0444 H   0  0  0  0  0  0
  -32.0834  -17.4054   21.1272 H   0  0  0  0  0  0
  -26.2850  -23.7065   19.2780 H   0  0  0  0  0  0
  -27.7076  -23.9335   18.2646 H   0  0  0  0  0  0
  -29.4546  -23.3046   21.7284 H   0  0  0  0  0  0
  -30.1005  -23.5412   20.1261 H   0  0  0  0  0  0
  -27.3721  -24.4097   21.2090 H   0  0  0  0  0  0
  -28.7401  -16.0815   20.4415 H   0  0  0  0  0  0
  1 25  1  0  0  0
  1 30  2  0  0  0
  1 82  1  0  0  0
  2  3  1  0  0  0
  2 25  1  0  0  0
  2 85  1  0  0  0
  2 86  1  0  0  0
  3  4  1  0  0  0
  3 87  1  0  0  0
  3 88  1  0  0  0
  4  5  1  0  0  0
  4 89  1  0  0  0
  4 90  1  0  0  0
  5  6  1  0  0  0
  5 26  1  0  0  0
  5 91  1  0  0  0
  6 25  1  0  0  0
  6 92  1  0  0  0
  6 93  1  0  0  0
  7  8  2  0  0  0
  7 26  1  0  0  0
  7 29  1  0  0  0
  8  9  1  0  0  0
  8 22  1  0  0  0
  9 10  1  0  0  0
  9 27  2  0  0  0
 10 11  2  0  0  0
 10 15  1  0  0  0
 11 12  1  0  0  0
 11 94  1  0  0  0
 12 13  2  0  0  0
 12 95  1  0  0  0
 13 14  1  0  0  0
 13 31  1  0  0  0
 14 15  2  0  0  0
 14 96  1  0  0  0
 15 97  1  0  0  0
 16 17  2  0  0  0
 16 21  1  0  0  0
 16 31  1  0  0  0
 17 18  1  0  0  0
 17 98  1  0  0  0
 18 19  2  0  0  0
 18 99  1  0  0  0
 19 20  1  0  0  0
 19 24  1  0  0  0
 20 21  2  0  0  0
 20100  1  0  0  0
 21 23  1  0  0  0
 22 28  1  0  0  0
 22 32  2  0  0  0
 26 27  1  0  0  0
 28101  1  0  0  0
 28102  1  0  0  0
 29103  1  0  0  0
 29104  1  0  0  0
 33 34  1  0  0  0
 33 66  1  0  0  0
 33 70  2  0  0  0
 34 36  1  0  0  0
 34 59  1  0  0  0
 34105  1  0  0  0
 35 44  2  0  0  0
 35 45  1  0  0  0
 35 68  1  0  0  0
 36 56  1  0  0  0
 36106  1  0  0  0
 37 39  1  0  0  0
 37 47  1  0  0  0
 37 66  1  0  0  0
 37107  1  0  0  0
 38 43  2  0  0  0
 38 46  1  0  0  0
 38 47  1  0  0  0
 39 64  1  0  0  0
 39 67  2  0  0  0
 40 52  1  0  0  0
 40 53  2  0  0  0
 40 58  1  0  0  0
 41108  1  0  0  0
 41109  1  0  0  0
 41110  1  0  0  0
 41 48  1  0  0  0
 42 43  1  0  0  0
 42 66  1  0  0  0
 42111  1  0  0  0
 42112  1  0  0  0
 43 44  1  0  0  0
 44113  1  0  0  0
 45 46  2  0  0  0
 45114  1  0  0  0
 46115  1  0  0  0
 47116  1  0  0  0
 47117  1  0  0  0
 48 56  1  0  0  0
 48 65  1  0  0  0
 48118  1  0  0  0
 49 50  1  0  0  0
 49 53  1  0  0  0
 49 64  1  0  0  0
 49119  1  0  0  0
 50 51  1  0  0  0
 50120  1  0  0  0
 50121  1  0  0  0
 51 52  1  0  0  0
 51122  1  0  0  0
 51123  1  0  0  0
 52124  1  0  0  0
 52125  1  0  0  0
 53 54  1  0  0  0
 54 55  2  0  0  0
 54126  1  0  0  0
 55 57  1  0  0  0
 55127  1  0  0  0
 56 69  2  0  0  0
 57 58  2  0  0  0
 57128  1  0  0  0
 58129  1  0  0  0
 59 60  1  0  0  0
 59 61  1  0  0  0
 59 62  1  0  0  0
 60130  1  0  0  0
 60131  1  0  0  0
 60132  1  0  0  0
 61133  1  0  0  0
 61134  1  0  0  0
 61135  1  0  0  0
 62136  1  0  0  0
 62137  1  0  0  0
 62138  1  0  0  0
 63 65  1  0  0  0
 63139  1  0  0  0
 63140  1  0  0  0
 63141  1  0  0  0
 64142  1  0  0  0
 65143  1  0  0  0
 68 80  1  0  0  0
 71 72  2  0  0  0
 71 73  1  0  0  0
 71144  1  0  0  0
 72 74  1  0  0  0
 72145  1  0  0  0
 73 75  2  0  0  0
 73146  1  0  0  0
 74 76  2  0  0  0
 74 81  1  0  0  0
 75 76  1  0  0  0
 75 82  1  0  0  0
 76 84  1  0  0  0
 77 78  1  0  0  0
 77 81  1  0  0  0
 77 83  2  0  0  0
 78 80  1  0  0  0
 78147  1  0  0  0
 78148  1  0  0  0
 79 80  1  0  0  0
 79 81  1  0  0  0
 79149  1  0  0  0
 79150  1  0  0  0
 80151  1  0  0  0
 82152  1  0  0  0
M  ISO  4   1 100  68 101  80 101  82 100
M  END
> <chiral flag>
0

> <version>
0

> <s_m_source_file>
/data/baiqing/PycharmProjects/Reinvent-master-3.2/result/LINK_invent/BTK/process_docking_weight1_custom_product_contain_oxygen_bond_distance_aromatic_linkinvent_7_9_3/rearranged_h_0026.sdf

> <i_m_source_file_index>
41

> <r_mmod_Potential_Energy-OPLS-2005>
695.407897949219

> <r_mmod_Stretch_Energy-OPLS-2005>
333.488525390625

> <r_mmod_Bend_Energy-OPLS-2005>
323.994934082031

> <r_mmod_Torsional_Energy-OPLS-2005>
260.513427734375

> <r_mmod_Improper_Torsional_Energy-OPLS-2005>
5.68145275115967

> <r_mmod_Van_der_Waal_Energy-OPLS-2005>
124.243728637695

> <r_mmod_Electrostatic_Energy-OPLS-2005>
-400.752136230469

> <r_mmod_Solvation_Energy-OPLS-2005>
-221.850524902344

> <b_mmod_Minimization_Converged-OPLS-2005>
0

> <r_mmod_RMS_Derivative-OPLS-2005>
0.130830407142639

$$$$
41
                    3D
 Structure written by MMmdl.
163173  0  0  1  0            999 V2000
  -30.7347  -14.3874   20.6790 C   0  0  0  0  0  0
  -30.4280  -12.2962   19.3963 C   0  0  0  0  0  0
  -29.4914  -12.5346   18.1952 C   0  0  0  0  0  0
  -28.0146  -12.3826   18.6081 C   0  0  0  0  0  0
  -27.6702  -13.1986   19.8803 C   0  0  2  0  0  0
  -28.7058  -12.9248   20.9936 C   0  0  0  0  0  0
  -25.2624  -13.8147   20.5668 C   0  0  0  0  0  0
  -24.1856  -13.0438   20.9151 C   0  0  0  0  0  0
  -24.6389  -11.6899   20.8703 C   0  0  0  0  0  0
  -23.9046  -10.4293   21.0391 C   0  0  0  0  0  0
  -24.3603   -9.4217   21.9177 C   0  0  0  0  0  0
  -23.6284   -8.2249   22.0751 C   0  0  0  0  0  0
  -22.4268   -8.0278   21.3544 C   0  0  0  0  0  0
  -21.9897   -9.0250   20.4647 C   0  0  0  0  0  0
  -22.7217  -10.2135   20.3046 C   0  0  0  0  0  0
  -21.6849   -6.0737   22.5279 C   0  0  0  0  0  0
  -21.4017   -6.5642   23.8217 C   0  0  0  0  0  0
  -21.3658   -5.6788   24.9174 C   0  0  0  0  0  0
  -21.6043   -4.3051   24.7218 C   0  0  0  0  0  0
  -21.8821   -3.8147   23.4335 C   0  0  0  0  0  0
  -21.9195   -4.6966   22.3395 C   0  0  0  0  0  0
  -22.7881  -13.5248   21.1823 C   0  0  0  0  0  0
  -22.1662   -4.2157   21.0973 F   0  0  0  0  0  0
  -21.5625   -3.4534   25.7728 F   0  0  0  0  0  0
  -30.0539  -13.2289   20.4692 N   0  0  0  0  0  0
  -26.3059  -12.9303   20.3353 N   0  0  0  0  0  0
  -25.9312  -11.6465   20.5723 N   0  0  0  0  0  0
  -22.0505  -12.8253   22.0380 N   0  0  0  0  0  0
  -25.4379  -15.1863   20.4117 N   0  0  0  0  0  0
  -31.7506  -14.7027   20.0507 O   0  0  0  0  0  0
  -21.6632   -6.8878   21.4241 O   0  0  0  0  0  0
  -22.3573  -14.5560   20.6681 O   0  0  0  0  0  0
  -24.6123  -31.8695   23.2118 C   0  0  0  0  0  0
  -25.9024  -32.4827   23.8414 C   0  0  1  0  0  0
  -27.2437  -27.4599   20.0715 C   0  0  0  0  0  0
  -25.5890  -33.8626   24.2346 N   0  0  0  0  0  0
  -23.3998  -30.4924   21.5521 C   0  0  2  0  0  0
  -24.8457  -28.9570   20.1162 C   0  0  0  0  0  0
  -22.7400  -29.4664   22.5006 C   0  0  0  0  0  0
  -18.0268  -28.1371   22.8502 C   0  0  0  0  0  0
  -24.1481  -36.7312   23.2635 C   0  0  0  0  0  0
  -25.9263  -30.8361   21.3646 C   0  0  0  0  0  0
  -26.0026  -29.4704   20.7147 C   0  0  0  0  0  0
  -27.1991  -28.7218   20.7028 C   0  0  0  0  0  0
  -26.0619  -26.9424   19.4938 C   0  0  0  0  0  0
  -24.8671  -27.6880   19.5110 C   0  0  0  0  0  0
  -23.6074  -29.8233   20.1667 C   0  0  0  0  0  0
  -25.4096  -36.3114   24.0348 C   0  0  1  0  0  0
  -20.5858  -28.3655   23.1324 C   0  0  2  0  0  0
  -20.6759  -26.9399   22.5404 C   0  0  0  0  0  0
  -19.5727  -26.6386   21.5210 C   0  0  0  0  0  0
  -18.1917  -26.7914   22.1644 C   0  0  0  0  0  0
  -19.1519  -28.8830   23.2909 C   0  0  0  0  0  0
  -18.9448  -30.1440   23.8915 C   0  0  0  0  0  0
  -17.6450  -30.6585   24.0559 C   0  0  0  0  0  0
  -25.9030  -34.9478   23.5144 C   0  0  0  0  0  0
  -16.5340  -29.9087   23.6321 C   0  0  0  0  0  0
  -16.7259  -28.6498   23.0357 C   0  0  0  0  0  0
  -26.4462  -31.6599   25.0734 C   0  0  0  0  0  0
  -25.3753  -31.3727   26.1517 C   0  0  0  0  0  0
  -27.0254  -30.3033   24.6093 C   0  0  0  0  0  0
  -27.6088  -32.4285   25.7452 C   0  0  0  0  0  0
  -27.5583  -37.1795   24.8463 C   0  0  0  0  0  0
  -21.4132  -29.3028   22.3738 N   0  0  0  0  0  0
  -26.4279  -37.3803   23.9433 N   0  0  0  0  0  0
  -24.6642  -31.0805   22.1013 N   0  0  0  0  0  0
  -23.4180  -28.8210   23.3044 O   0  0  0  0  0  0
  -28.4328  -26.7645   20.0668 O   0  0  0  0  0  0
  -26.5593  -34.8926   22.4706 O   0  0  0  0  0  0
  -23.5321  -32.1443   23.7520 O   0  0  0  0  0  0
  -29.5724  -24.1090   20.3828 C   0  0  0  0  0  0
  -30.1198  -19.2762   22.5186 C   0  0  0  0  0  0
  -29.9039  -22.7473   20.5857 C   0  0  0  0  0  0
  -29.6649  -18.3228   23.4467 C   0  0  0  0  0  0
  -28.9031  -23.6343   18.0787 C   0  0  0  0  0  0
  -30.7476  -17.4828   20.9792 C   0  0  0  0  0  0
  -29.2338  -22.2857   18.3040 C   0  0  0  0  0  0
  -29.0718  -24.5595   19.1345 C   0  0  0  0  0  0
  -30.6583  -18.8629   21.2826 C   0  0  0  0  0  0
  -29.7278  -21.8370   19.5230 C   0  0  0  0  0  0
  -30.2880  -16.5211   21.9152 C   0  0  0  0  0  0
  -29.7430  -16.9530   23.1413 C   0  0  0  0  0  0
  -29.1425  -21.1600   17.3247 C   0  0  0  0  0  0
  -29.7375  -19.9918   18.1349 C   0  0  0  0  0  0
  -31.1036  -19.9156   20.2821 C   0  0  0  0  0  0
  -28.7859  -26.0362   18.8871 C   0  0  0  0  0  0
  -29.9870  -20.4573   19.5083 N   0  0  0  0  0  0
  -30.2559  -15.1186   21.6930 N   0  0  0  0  0  0
  -29.2755  -16.0382   24.0258 F   0  0  0  0  0  0
  -31.4702  -12.4120   19.0926 H   0  0  0  0  0  0
  -30.3347  -11.2690   19.7521 H   0  0  0  0  0  0
  -29.7298  -11.8402   17.3888 H   0  0  0  0  0  0
  -29.6571  -13.5365   17.7952 H   0  0  0  0  0  0
  -27.8213  -11.3234   18.7826 H   0  0  0  0  0  0
  -27.3621  -12.6787   17.7859 H   0  0  0  0  0  0
  -27.7332  -14.2545   19.6151 H   0  0  0  0  0  0
  -28.6673  -11.8754   21.2890 H   0  0  0  0  0  0
  -28.4384  -13.4784   21.8938 H   0  0  0  0  0  0
  -25.2747   -9.5704   22.4748 H   0  0  0  0  0  0
  -24.0003   -7.4639   22.7467 H   0  0  0  0  0  0
  -21.0825   -8.8763   19.8953 H   0  0  0  0  0  0
  -22.3667  -10.9671   19.6154 H   0  0  0  0  0  0
  -21.2016   -7.6151   23.9723 H   0  0  0  0  0  0
  -21.1476   -6.0516   25.9082 H   0  0  0  0  0  0
  -22.0602   -2.7608   23.2824 H   0  0  0  0  0  0
  -22.4091  -11.9908   22.4778 H   0  0  0  0  0  0
  -21.1135  -13.1321   22.2577 H   0  0  0  0  0  0
  -24.6825  -15.8499   20.5446 H   0  0  0  0  0  0
  -26.3035  -15.6240   20.1197 H   0  0  0  0  0  0
  -26.7096  -32.5549   23.1184 H   0  0  0  0  0  0
  -25.0040  -33.9788   25.0490 H   0  0  0  0  0  0
  -22.6878  -31.3087   21.4141 H   0  0  0  0  0  0
  -23.3763  -35.9621   23.3251 H   0  0  0  0  0  0
  -24.3592  -36.8970   22.2061 H   0  0  0  0  0  0
  -23.7193  -37.6489   23.6671 H   0  0  0  0  0  0
  -26.0371  -31.6011   20.5949 H   0  0  0  0  0  0
  -26.8154  -30.8910   21.9807 H   0  0  0  0  0  0
  -28.0947  -29.1168   21.1622 H   0  0  0  0  0  0
  -26.0529  -25.9625   19.0380 H   0  0  0  0  0  0
  -23.9729  -27.2814   19.0592 H   0  0  0  0  0  0
  -23.7137  -30.5975   19.4059 H   0  0  0  0  0  0
  -22.7314  -29.2421   19.8731 H   0  0  0  0  0  0
  -25.1258  -36.1982   25.0838 H   0  0  0  0  0  0
  -20.9952  -28.3205   24.1443 H   0  0  0  0  0  0
  -20.5682  -26.2257   23.3581 H   0  0  0  0  0  0
  -21.6624  -26.7456   22.1176 H   0  0  0  0  0  0
  -19.6886  -25.6303   21.1224 H   0  0  0  0  0  0
  -19.6651  -27.3208   20.6747 H   0  0  0  0  0  0
  -17.4173  -26.6646   21.4064 H   0  0  0  0  0  0
  -18.0343  -26.0061   22.9051 H   0  0  0  0  0  0
  -19.7924  -30.7249   24.2298 H   0  0  0  0  0  0
  -17.5007  -31.6271   24.5149 H   0  0  0  0  0  0
  -15.5342  -30.2997   23.7629 H   0  0  0  0  0  0
  -15.8659  -28.0818   22.7071 H   0  0  0  0  0  0
  -24.5796  -30.7241   25.7833 H   0  0  0  0  0  0
  -24.9115  -32.2910   26.5132 H   0  0  0  0  0  0
  -25.8094  -30.8709   27.0175 H   0  0  0  0  0  0
  -26.2757  -29.6802   24.1202 H   0  0  0  0  0  0
  -27.4076  -29.7271   25.4531 H   0  0  0  0  0  0
  -27.8588  -30.4337   23.9185 H   0  0  0  0  0  0
  -27.2795  -33.3649   26.1969 H   0  0  0  0  0  0
  -28.3915  -32.6722   25.0252 H   0  0  0  0  0  0
  -28.0719  -31.8419   26.5397 H   0  0  0  0  0  0
  -28.2576  -38.0118   24.7563 H   0  0  0  0  0  0
  -28.1100  -36.2654   24.6211 H   0  0  0  0  0  0
  -27.2315  -37.1358   25.8867 H   0  0  0  0  0  0
  -20.9293  -29.8742   21.6953 H   0  0  0  0  0  0
  -26.0170  -38.2876   24.1468 H   0  0  0  0  0  0
  -29.7136  -24.8134   21.1905 H   0  0  0  0  0  0
  -30.0426  -20.3287   22.7517 H   0  0  0  0  0  0
  -30.2802  -22.4242   21.5452 H   0  0  0  0  0  0
  -29.2417  -18.6411   24.3883 H   0  0  0  0  0  0
  -28.5404  -23.9549   17.1121 H   0  0  0  0  0  0
  -31.1419  -17.1798   20.0197 H   0  0  0  0  0  0
  -29.7184  -21.3691   16.4224 H   0  0  0  0  0  0
  -28.1029  -20.9771   17.0512 H   0  0  0  0  0  0
  -30.6708  -19.6593   17.6783 H   0  0  0  0  0  0
  -29.0592  -19.1377   18.1415 H   0  0  0  0  0  0
  -31.8408  -19.4750   19.6087 H   0  0  0  0  0  0
  -31.6365  -20.7058   20.8129 H   0  0  0  0  0  0
  -28.0696  -26.1484   18.0725 H   0  0  0  0  0  0
  -29.7084  -26.4782   18.5102 H   0  0  0  0  0  0
  -29.6130  -14.6276   22.2977 H   0  0  0  0  0  0
  1 25  1  0  0  0
  1 30  2  0  0  0
  1 88  1  0  0  0
  2  3  1  0  0  0
  2 25  1  0  0  0
  2 90  1  0  0  0
  2 91  1  0  0  0
  3  4  1  0  0  0
  3 92  1  0  0  0
  3 93  1  0  0  0
  4  5  1  0  0  0
  4 94  1  0  0  0
  4 95  1  0  0  0
  5  6  1  0  0  0
  5 26  1  0  0  0
  5 96  1  0  0  0
  6 25  1  0  0  0
  6 97  1  0  0  0
  6 98  1  0  0  0
  7  8  2  0  0  0
  7 26  1  0  0  0
  7 29  1  0  0  0
  8  9  1  0  0  0
  8 22  1  0  0  0
  9 10  1  0  0  0
  9 27  2  0  0  0
 10 11  2  0  0  0
 10 15  1  0  0  0
 11 12  1  0  0  0
 11 99  1  0  0  0
 12 13  2  0  0  0
 12100  1  0  0  0
 13 14  1  0  0  0
 13 31  1  0  0  0
 14 15  2  0  0  0
 14101  1  0  0  0
 15102  1  0  0  0
 16 17  2  0  0  0
 16 21  1  0  0  0
 16 31  1  0  0  0
 17 18  1  0  0  0
 17103  1  0  0  0
 18 19  2  0  0  0
 18104  1  0  0  0
 19 20  1  0  0  0
 19 24  1  0  0  0
 20 21  2  0  0  0
 20105  1  0  0  0
 21 23  1  0  0  0
 22 28  1  0  0  0
 22 32  2  0  0  0
 26 27  1  0  0  0
 28106  1  0  0  0
 28107  1  0  0  0
 29108  1  0  0  0
 29109  1  0  0  0
 33 34  1  0  0  0
 33 66  1  0  0  0
 33 70  2  0  0  0
 34 36  1  0  0  0
 34 59  1  0  0  0
 34110  1  0  0  0
 35 44  2  0  0  0
 35 45  1  0  0  0
 35 68  1  0  0  0
 36 56  1  0  0  0
 36111  1  0  0  0
 37 39  1  0  0  0
 37 47  1  0  0  0
 37 66  1  0  0  0
 37112  1  0  0  0
 38 43  2  0  0  0
 38 46  1  0  0  0
 38 47  1  0  0  0
 39 64  1  0  0  0
 39 67  2  0  0  0
 40 52  1  0  0  0
 40 53  2  0  0  0
 40 58  1  0  0  0
 41113  1  0  0  0
 41114  1  0  0  0
 41115  1  0  0  0
 41 48  1  0  0  0
 42 43  1  0  0  0
 42 66  1  0  0  0
 42116  1  0  0  0
 42117  1  0  0  0
 43 44  1  0  0  0
 44118  1  0  0  0
 45 46  2  0  0  0
 45119  1  0  0  0
 46120  1  0  0  0
 47121  1  0  0  0
 47122  1  0  0  0
 48 56  1  0  0  0
 48 65  1  0  0  0
 48123  1  0  0  0
 49 50  1  0  0  0
 49 53  1  0  0  0
 49 64  1  0  0  0
 49124  1  0  0  0
 50 51  1  0  0  0
 50125  1  0  0  0
 50126  1  0  0  0
 51 52  1  0  0  0
 51127  1  0  0  0
 51128  1  0  0  0
 52129  1  0  0  0
 52130  1  0  0  0
 53 54  1  0  0  0
 54 55  2  0  0  0
 54131  1  0  0  0
 55 57  1  0  0  0
 55132  1  0  0  0
 56 69  2  0  0  0
 57 58  2  0  0  0
 57133  1  0  0  0
 58134  1  0  0  0
 59 60  1  0  0  0
 59 61  1  0  0  0
 59 62  1  0  0  0
 60135  1  0  0  0
 60136  1  0  0  0
 60137  1  0  0  0
 61138  1  0  0  0
 61139  1  0  0  0
 61140  1  0  0  0
 62141  1  0  0  0
 62142  1  0  0  0
 62143  1  0  0  0
 63 65  1  0  0  0
 63144  1  0  0  0
 63145  1  0  0  0
 63146  1  0  0  0
 64147  1  0  0  0
 65148  1  0  0  0
 68 86  1  0  0  0
 71 73  2  0  0  0
 71 78  1  0  0  0
 71149  1  0  0  0
 72 74  2  0  0  0
 72 79  1  0  0  0
 72150  1  0  0  0
 73 80  1  0  0  0
 73151  1  0  0  0
 74 82  1  0  0  0
 74152  1  0  0  0
 75 77  1  0  0  0
 75 78  2  0  0  0
 75153  1  0  0  0
 76 79  2  0  0  0
 76 81  1  0  0  0
 76154  1  0  0  0
 77 80  2  0  0  0
 77 83  1  0  0  0
 78 86  1  0  0  0
 79 85  1  0  0  0
 80 87  1  0  0  0
 81 82  2  0  0  0
 81 88  1  0  0  0
 82 89  1  0  0  0
 83 84  1  0  0  0
 83155  1  0  0  0
 83156  1  0  0  0
 84 87  1  0  0  0
 84157  1  0  0  0
 84158  1  0  0  0
 85 87  1  0  0  0
 85159  1  0  0  0
 85160  1  0  0  0
 86161  1  0  0  0
 86162  1  0  0  0
 88163  1  0  0  0
M  ISO  4   1 100  68 101  86 101  88 100
M  END
> <chiral flag>
0

> <version>
0

> <s_m_source_file>
/data/baiqing/PycharmProjects/Reinvent-master-3.2/result/LINK_invent/BTK/process_docking_weight1_custom_product_contain_oxygen_bond_distance_aromatic_linkinvent_7_9_3/rearranged_h_0026.sdf

> <i_m_source_file_index>
42

> <r_mmod_Potential_Energy-OPLS-2005>
-39.3671913146973

> <r_mmod_Stretch_Energy-OPLS-2005>
36.4613761901855

> <r_mmod_Bend_Energy-OPLS-2005>
141.444702148438

> <r_mmod_Torsional_Energy-OPLS-2005>
240.555419921875

> <r_mmod_Improper_Torsional_Energy-OPLS-2005>
6.31826066970825

> <r_mmod_Van_der_Waal_Energy-OPLS-2005>
167.156036376953

> <r_mmod_Electrostatic_Energy-OPLS-2005>
-424.493927001953

> <r_mmod_Solvation_Energy-OPLS-2005>
-214.748977661133

> <b_mmod_Minimization_Converged-OPLS-2005>
0

> <r_mmod_RMS_Derivative-OPLS-2005>
1.05887997150421

$$$$
42
                    3D
 Structure written by MMmdl.
163172  0  0  1  0            999 V2000
  -30.5901  -14.7846   20.4477 C   0  0  0  0  0  0
  -30.4347  -12.4798   19.4792 C   0  0  0  0  0  0
  -29.5125  -12.5103   18.2398 C   0  0  0  0  0  0
  -28.0394  -12.3273   18.6533 C   0  0  0  0  0  0
  -27.6389  -13.2333   19.8481 C   0  0  2  0  0  0
  -28.6826  -13.1845   20.9851 C   0  0  0  0  0  0
  -25.2502  -13.8196   20.5694 C   0  0  0  0  0  0
  -24.1799  -13.0441   20.9217 C   0  0  0  0  0  0
  -24.6391  -11.6919   20.8752 C   0  0  0  0  0  0
  -23.9069  -10.4295   21.0408 C   0  0  0  0  0  0
  -24.3623   -9.4209   21.9183 C   0  0  0  0  0  0
  -23.6299   -8.2244   22.0752 C   0  0  0  0  0  0
  -22.4280   -8.0281   21.3544 C   0  0  0  0  0  0
  -21.9914   -9.0255   20.4646 C   0  0  0  0  0  0
  -22.7241  -10.2135   20.3057 C   0  0  0  0  0  0
  -21.6856   -6.0736   22.5277 C   0  0  0  0  0  0
  -21.4015   -6.5640   23.8210 C   0  0  0  0  0  0
  -21.3660   -5.6792   24.9173 C   0  0  0  0  0  0
  -21.6046   -4.3056   24.7223 C   0  0  0  0  0  0
  -21.8820   -3.8147   23.4345 C   0  0  0  0  0  0
  -21.9195   -4.6964   22.3401 C   0  0  0  0  0  0
  -22.7820  -13.5222   21.1873 C   0  0  0  0  0  0
  -22.1663   -4.2150   21.0978 F   0  0  0  0  0  0
  -21.5629   -3.4539   25.7736 F   0  0  0  0  0  0
  -29.9785  -13.5486   20.4006 N   0  0  0  0  0  0
  -26.2922  -12.9403   20.3268 N   0  0  0  0  0  0
  -25.9321  -11.6546   20.5749 N   0  0  0  0  0  0
  -22.0469  -12.8210   22.0428 N   0  0  0  0  0  0
  -25.4187  -15.1920   20.4090 N   0  0  0  0  0  0
  -31.7813  -14.8808   20.1403 O   0  0  0  0  0  0
  -21.6645   -6.8878   21.4238 O   0  0  0  0  0  0
  -22.3507  -14.5526   20.6715 O   0  0  0  0  0  0
  -24.6332  -31.8516   23.1940 C   0  0  0  0  0  0
  -25.9145  -32.4735   23.8303 C   0  0  1  0  0  0
  -27.2230  -27.2347   20.1448 C   0  0  0  0  0  0
  -25.5928  -33.8539   24.2226 N   0  0  0  0  0  0
  -23.4315  -30.4708   21.5377 C   0  0  2  0  0  0
  -24.8796  -28.9056   20.1128 C   0  0  0  0  0  0
  -22.7510  -29.4581   22.4905 C   0  0  0  0  0  0
  -18.0291  -28.1388   22.8484 C   0  0  0  0  0  0
  -24.1489  -36.7278   23.2643 C   0  0  0  0  0  0
  -25.9774  -30.7575   21.3747 C   0  0  0  0  0  0
  -26.0506  -29.3756   20.7204 C   0  0  0  0  0  0
  -27.2254  -28.5548   20.7172 C   0  0  0  0  0  0
  -26.0304  -26.8313   19.5095 C   0  0  0  0  0  0
  -24.8759  -27.6435   19.4945 C   0  0  0  0  0  0
  -23.6514  -29.7969   20.1564 C   0  0  0  0  0  0
  -25.4119  -36.3059   24.0322 C   0  0  1  0  0  0
  -20.5895  -28.3701   23.1267 C   0  0  2  0  0  0
  -20.6778  -26.9415   22.5410 C   0  0  0  0  0  0
  -19.5754  -26.6381   21.5214 C   0  0  0  0  0  0
  -18.1934  -26.7930   22.1624 C   0  0  0  0  0  0
  -19.1545  -28.8862   23.2870 C   0  0  0  0  0  0
  -18.9466  -30.1462   23.8890 C   0  0  0  0  0  0
  -17.6465  -30.6590   24.0560 C   0  0  0  0  0  0
  -25.9060  -34.9430   23.5081 C   0  0  0  0  0  0
  -16.5356  -29.9085   23.6332 C   0  0  0  0  0  0
  -16.7277  -28.6502   23.0355 C   0  0  0  0  0  0
  -26.4504  -31.6578   25.0711 C   0  0  0  0  0  0
  -25.3717  -31.3738   26.1427 C   0  0  0  0  0  0
  -27.0360  -30.2993   24.6220 C   0  0  0  0  0  0
  -27.6049  -32.4330   25.7488 C   0  0  0  0  0  0
  -27.5575  -37.1797   24.8467 C   0  0  0  0  0  0
  -21.4214  -29.3041   22.3652 N   0  0  0  0  0  0
  -26.4291  -37.3761   23.9404 N   0  0  0  0  0  0
  -24.7000  -31.0458   22.0921 N   0  0  0  0  0  0
  -23.4198  -28.8133   23.3024 O   0  0  0  0  0  0
  -28.3351  -26.3573   20.1853 O   0  0  0  0  0  0
  -26.5641  -34.8913   22.4657 O   0  0  0  0  0  0
  -23.5477  -32.1346   23.7224 O   0  0  0  0  0  0
  -29.3675  -24.2089   16.7621 C   0  0  0  0  0  0
  -29.0577  -24.7251   18.0227 C   0  0  0  0  0  0
  -29.0159  -21.9924   17.6475 C   0  0  0  0  0  0
  -29.2994  -22.8328   16.5613 C   0  0  0  0  0  0
  -28.7300  -23.9162   19.1434 C   0  0  0  0  0  0
  -28.8379  -22.4286   18.9892 C   0  0  0  0  0  0
  -30.5425  -17.8315   18.9951 C   0  0  0  0  0  0
  -29.9560  -19.2525   18.7310 C   0  0  0  0  0  0
  -29.1629  -18.6333   20.7995 C   0  0  0  0  0  0
  -30.1659  -17.4219   20.4279 C   0  0  1  0  0  0
  -29.5267  -22.2482   15.1809 C   0  0  0  0  0  0
  -28.6635  -21.1898   20.0275 C   0  0  0  0  0  0
  -28.2074  -24.8437   20.3258 C   0  0  0  0  0  0
  -29.8069  -15.9279   20.6171 N   0  0  0  0  0  0
  -29.5659  -19.8901   20.0194 N   0  3  2  0  0  0
  -31.4740  -12.6136   19.1745 H   0  0  0  0  0  0
  -30.3906  -11.5073   19.9721 H   0  0  0  0  0  0
  -29.8026  -11.7314   17.5334 H   0  0  0  0  0  0
  -29.6316  -13.4600   17.7159 H   0  0  0  0  0  0
  -27.9033  -11.2794   18.9236 H   0  0  0  0  0  0
  -27.3814  -12.5089   17.8027 H   0  0  0  0  0  0
  -27.6273  -14.2511   19.4582 H   0  0  0  0  0  0
  -28.7281  -12.1900   21.4312 H   0  0  0  0  0  0
  -28.4109  -13.8701   21.7895 H   0  0  0  0  0  0
  -25.2766   -9.5688   22.4758 H   0  0  0  0  0  0
  -24.0012   -7.4635   22.7470 H   0  0  0  0  0  0
  -21.0845   -8.8773   19.8950 H   0  0  0  0  0  0
  -22.3696  -10.9677   19.6171 H   0  0  0  0  0  0
  -21.2005   -7.6148   23.9712 H   0  0  0  0  0  0
  -21.1481   -6.0523   25.9075 H   0  0  0  0  0  0
  -22.0599   -2.7609   23.2844 H   0  0  0  0  0  0
  -22.4094  -11.9876   22.4820 H   0  0  0  0  0  0
  -21.1080  -13.1223   22.2626 H   0  0  0  0  0  0
  -24.6448  -15.8402   20.5075 H   0  0  0  0  0  0
  -26.2512  -15.6263   20.0335 H   0  0  0  0  0  0
  -26.7211  -32.5375   23.1041 H   0  0  0  0  0  0
  -25.0056  -33.9668   25.0359 H   0  0  0  0  0  0
  -22.7294  -31.2934   21.3869 H   0  0  0  0  0  0
  -23.3749  -35.9614   23.3310 H   0  0  0  0  0  0
  -24.3572  -36.8901   22.2056 H   0  0  0  0  0  0
  -23.7250  -37.6481   23.6671 H   0  0  0  0  0  0
  -26.1169  -31.5151   20.6023 H   0  0  0  0  0  0
  -26.8543  -30.8098   22.0086 H   0  0  0  0  0  0
  -28.1252  -28.9126   21.1979 H   0  0  0  0  0  0
  -25.9802  -25.8649   19.0282 H   0  0  0  0  0  0
  -23.9795  -27.2794   19.0114 H   0  0  0  0  0  0
  -23.7784  -30.5695   19.3972 H   0  0  0  0  0  0
  -22.7690  -29.2307   19.8527 H   0  0  0  0  0  0
  -25.1306  -36.1900   25.0815 H   0  0  0  0  0  0
  -20.9987  -28.3282   24.1389 H   0  0  0  0  0  0
  -20.5675  -26.2313   23.3618 H   0  0  0  0  0  0
  -21.6647  -26.7435   22.1207 H   0  0  0  0  0  0
  -19.6916  -25.6289   21.1253 H   0  0  0  0  0  0
  -19.6694  -27.3185   20.6739 H   0  0  0  0  0  0
  -17.4204  -26.6676   21.4025 H   0  0  0  0  0  0
  -18.0333  -26.0072   22.9021 H   0  0  0  0  0  0
  -19.7941  -30.7279   24.2257 H   0  0  0  0  0  0
  -17.5018  -31.6269   24.5162 H   0  0  0  0  0  0
  -15.5356  -30.2985   23.7661 H   0  0  0  0  0  0
  -15.8677  -28.0819   22.7077 H   0  0  0  0  0  0
  -24.5890  -30.7092   25.7751 H   0  0  0  0  0  0
  -24.8912  -32.2911   26.4839 H   0  0  0  0  0  0
  -25.8024  -30.8919   27.0214 H   0  0  0  0  0  0
  -26.2952  -29.6728   24.1237 H   0  0  0  0  0  0
  -27.4025  -29.7272   25.4755 H   0  0  0  0  0  0
  -27.8834  -30.4264   23.9479 H   0  0  0  0  0  0
  -27.2648  -33.3635   26.2048 H   0  0  0  0  0  0
  -28.3867  -32.6886   25.0324 H   0  0  0  0  0  0
  -28.0710  -31.8471   26.5420 H   0  0  0  0  0  0
  -28.2600  -38.0085   24.7494 H   0  0  0  0  0  0
  -28.1062  -36.2615   24.6317 H   0  0  0  0  0  0
  -27.2290  -37.1476   25.8869 H   0  0  0  0  0  0
  -20.9408  -29.8756   21.6843 H   0  0  0  0  0  0
  -26.0166  -38.2836   24.1393 H   0  0  0  0  0  0
  -29.5921  -24.8793   15.9433 H   0  0  0  0  0  0
  -29.0395  -25.8023   18.0887 H   0  0  0  0  0  0
  -28.9045  -20.9632   17.3801 H   0  0  0  0  0  0
  -31.6276  -17.8357   18.8810 H   0  0  0  0  0  0
  -30.1537  -17.1263   18.2591 H   0  0  0  0  0  0
  -29.0553  -19.0921   18.1380 H   0  0  0  0  0  0
  -30.6571  -19.8642   18.1619 H   0  0  0  0  0  0
  -29.1565  -18.8315   21.8718 H   0  0  0  0  0  0
  -28.1431  -18.3643   20.5202 H   0  0  0  0  0  0
  -31.0555  -17.5772   21.0416 H   0  0  0  0  0  0
  -29.3901  -23.0014   14.4041 H   0  0  0  0  0  0
  -28.8280  -21.4348   14.9823 H   0  0  0  0  0  0
  -30.5405  -21.8553   15.0985 H   0  0  0  0  0  0
  -27.6352  -20.8497   19.9029 H   0  0  0  0  0  0
  -28.7028  -21.6030   21.0354 H   0  0  0  0  0  0
  -28.7682  -24.5624   21.2171 H   0  0  0  0  0  0
  -27.1741  -24.5714   20.5417 H   0  0  0  0  0  0
  -28.8431  -15.7398   20.8501 H   0  0  0  0  0  0
  -30.4344  -20.1952   20.4323 H   0  0  0  0  0  0
  1 25  1  0  0  0
  1 30  2  0  0  0
  1 84  1  0  0  0
  2  3  1  0  0  0
  2 25  1  0  0  0
  2 86  1  0  0  0
  2 87  1  0  0  0
  3  4  1  0  0  0
  3 88  1  0  0  0
  3 89  1  0  0  0
  4  5  1  0  0  0
  4 90  1  0  0  0
  4 91  1  0  0  0
  5  6  1  0  0  0
  5 26  1  0  0  0
  5 92  1  0  0  0
  6 25  1  0  0  0
  6 93  1  0  0  0
  6 94  1  0  0  0
  7  8  2  0  0  0
  7 26  1  0  0  0
  7 29  1  0  0  0
  8  9  1  0  0  0
  8 22  1  0  0  0
  9 10  1  0  0  0
  9 27  2  0  0  0
 10 11  2  0  0  0
 10 15  1  0  0  0
 11 12  1  0  0  0
 11 95  1  0  0  0
 12 13  2  0  0  0
 12 96  1  0  0  0
 13 14  1  0  0  0
 13 31  1  0  0  0
 14 15  2  0  0  0
 14 97  1  0  0  0
 15 98  1  0  0  0
 16 17  2  0  0  0
 16 21  1  0  0  0
 16 31  1  0  0  0
 17 18  1  0  0  0
 17 99  1  0  0  0
 18 19  2  0  0  0
 18100  1  0  0  0
 19 20  1  0  0  0
 19 24  1  0  0  0
 20 21  2  0  0  0
 20101  1  0  0  0
 21 23  1  0  0  0
 22 28  1  0  0  0
 22 32  2  0  0  0
 26 27  1  0  0  0
 28102  1  0  0  0
 28103  1  0  0  0
 29104  1  0  0  0
 29105  1  0  0  0
 33 34  1  0  0  0
 33 66  1  0  0  0
 33 70  2  0  0  0
 34 36  1  0  0  0
 34 59  1  0  0  0
 34106  1  0  0  0
 35 44  2  0  0  0
 35 45  1  0  0  0
 35 68  1  0  0  0
 36 56  1  0  0  0
 36107  1  0  0  0
 37 39  1  0  0  0
 37 47  1  0  0  0
 37 66  1  0  0  0
 37108  1  0  0  0
 38 43  2  0  0  0
 38 46  1  0  0  0
 38 47  1  0  0  0
 39 64  1  0  0  0
 39 67  2  0  0  0
 40 52  1  0  0  0
 40 53  2  0  0  0
 40 58  1  0  0  0
 41109  1  0  0  0
 41110  1  0  0  0
 41111  1  0  0  0
 41 48  1  0  0  0
 42 43  1  0  0  0
 42 66  1  0  0  0
 42112  1  0  0  0
 42113  1  0  0  0
 43 44  1  0  0  0
 44114  1  0  0  0
 45 46  2  0  0  0
 45115  1  0  0  0
 46116  1  0  0  0
 47117  1  0  0  0
 47118  1  0  0  0
 48 56  1  0  0  0
 48 65  1  0  0  0
 48119  1  0  0  0
 49 50  1  0  0  0
 49 53  1  0  0  0
 49 64  1  0  0  0
 49120  1  0  0  0
 50 51  1  0  0  0
 50121  1  0  0  0
 50122  1  0  0  0
 51 52  1  0  0  0
 51123  1  0  0  0
 51124  1  0  0  0
 52125  1  0  0  0
 52126  1  0  0  0
 53 54  1  0  0  0
 54 55  2  0  0  0
 54127  1  0  0  0
 55 57  1  0  0  0
 55128  1  0  0  0
 56 69  2  0  0  0
 57 58  2  0  0  0
 57129  1  0  0  0
 58130  1  0  0  0
 59 60  1  0  0  0
 59 61  1  0  0  0
 59 62  1  0  0  0
 60131  1  0  0  0
 60132  1  0  0  0
 60133  1  0  0  0
 61134  1  0  0  0
 61135  1  0  0  0
 61136  1  0  0  0
 62137  1  0  0  0
 62138  1  0  0  0
 62139  1  0  0  0
 63 65  1  0  0  0
 63140  1  0  0  0
 63141  1  0  0  0
 63142  1  0  0  0
 64143  1  0  0  0
 65144  1  0  0  0
 68 83  1  0  0  0
 71 72  2  0  0  0
 71 74  1  0  0  0
 71145  1  0  0  0
 72 75  1  0  0  0
 72146  1  0  0  0
 73 74  2  0  0  0
 73 76  1  0  0  0
 73147  1  0  0  0
 74 81  1  0  0  0
 75 76  2  0  0  0
 75 83  1  0  0  0
 76 82  1  0  0  0
 77 78  1  0  0  0
 77 80  1  0  0  0
 77148  1  0  0  0
 77149  1  0  0  0
 78 85  1  0  0  0
 78150  1  0  0  0
 78151  1  0  0  0
 79 80  1  0  0  0
 79 85  1  0  0  0
 79152  1  0  0  0
 79153  1  0  0  0
 80 84  1  0  0  0
 80154  1  0  0  0
 81155  1  0  0  0
 81156  1  0  0  0
 81157  1  0  0  0
 82158  1  0  0  0
 82159  1  0  0  0
 82 85  1  0  0  0
 83160  1  0  0  0
 83161  1  0  0  0
 84162  1  0  0  0
 85163  1  0  0  0
M  CHG  1  85   1
M  ISO  4   1 100  68 101  83 101  84 100
M  END
> <chiral flag>
0

> <version>
0

> <s_m_source_file>
/data/baiqing/PycharmProjects/Reinvent-master-3.2/result/LINK_invent/BTK/process_docking_weight1_custom_product_contain_oxygen_bond_distance_aromatic_linkinvent_7_9_3/rearranged_h_0026.sdf

> <i_m_source_file_index>
43

> <r_mmod_Potential_Energy-OPLS-2005>
210.5244140625

> <r_mmod_Stretch_Energy-OPLS-2005>
167.359420776367

> <r_mmod_Bend_Energy-OPLS-2005>
258.224761962891

> <r_mmod_Torsional_Energy-OPLS-2005>
282.090423583984

> <r_mmod_Improper_Torsional_Energy-OPLS-2005>
5.84853982925415

> <r_mmod_Van_der_Waal_Energy-OPLS-2005>
141.783645629883

> <r_mmod_Electrostatic_Energy-OPLS-2005>
-278.426391601562

> <r_mmod_Solvation_Energy-OPLS-2005>
-466.550476074219

> <b_mmod_Minimization_Converged-OPLS-2005>
0

> <r_mmod_RMS_Derivative-OPLS-2005>
0.356425821781158

$$$$
43
                    3D
 Structure written by MMmdl.
156165  0  0  1  0            999 V2000
  -30.6706  -14.6627   20.5061 C   0  0  0  0  0  0
  -30.4267  -12.4284   19.4310 C   0  0  0  0  0  0
  -29.4903  -12.5199   18.2078 C   0  0  0  0  0  0
  -28.0138  -12.3649   18.6277 C   0  0  0  0  0  0
  -27.6480  -13.2225   19.8715 C   0  0  2  0  0  0
  -28.7089  -13.0420   20.9785 C   0  0  0  0  0  0
  -25.2517  -13.8166   20.5717 C   0  0  0  0  0  0
  -24.1796  -13.0425   20.9218 C   0  0  0  0  0  0
  -24.6384  -11.6903   20.8770 C   0  0  0  0  0  0
  -23.9061  -10.4283   21.0414 C   0  0  0  0  0  0
  -24.3616   -9.4199   21.9189 C   0  0  0  0  0  0
  -23.6292   -8.2235   22.0755 C   0  0  0  0  0  0
  -22.4274   -8.0276   21.3546 C   0  0  0  0  0  0
  -21.9911   -9.0248   20.4647 C   0  0  0  0  0  0
  -22.7237  -10.2127   20.3058 C   0  0  0  0  0  0
  -21.6851   -6.0736   22.5281 C   0  0  0  0  0  0
  -21.4012   -6.5639   23.8215 C   0  0  0  0  0  0
  -21.3660   -5.6792   24.9176 C   0  0  0  0  0  0
  -21.6045   -4.3055   24.7226 C   0  0  0  0  0  0
  -21.8819   -3.8149   23.4348 C   0  0  0  0  0  0
  -21.9192   -4.6964   22.3404 C   0  0  0  0  0  0
  -22.7817  -13.5216   21.1860 C   0  0  0  0  0  0
  -22.1659   -4.2150   21.0981 F   0  0  0  0  0  0
  -21.5630   -3.4540   25.7740 F   0  0  0  0  0  0
  -29.9885  -13.4673   20.3948 N   0  0  0  0  0  0
  -26.2969  -12.9370   20.3419 N   0  0  0  0  0  0
  -25.9322  -11.6516   20.5820 N   0  0  0  0  0  0
  -22.0456  -12.8214   22.0416 N   0  0  0  0  0  0
  -25.4186  -15.1875   20.4064 N   0  0  0  0  0  0
  -31.8631  -14.6739   20.1805 O   0  0  0  0  0  0
  -21.6637   -6.8876   21.4242 O   0  0  0  0  0  0
  -22.3506  -14.5521   20.6698 O   0  0  0  0  0  0
  -24.6253  -31.8605   23.2038 C   0  0  0  0  0  0
  -25.9104  -32.4783   23.8361 C   0  0  1  0  0  0
  -27.2213  -27.3283   20.1186 C   0  0  0  0  0  0
  -25.5925  -33.8584   24.2290 N   0  0  0  0  0  0
  -23.4187  -30.4844   21.5461 C   0  0  2  0  0  0
  -24.8658  -28.9417   20.1108 C   0  0  0  0  0  0
  -22.7468  -29.4626   22.4940 C   0  0  0  0  0  0
  -18.0286  -28.1381   22.8487 C   0  0  0  0  0  0
  -24.1489  -36.7296   23.2637 C   0  0  0  0  0  0
  -25.9591  -30.7937   21.3744 C   0  0  0  0  0  0
  -26.0341  -29.4217   20.7177 C   0  0  0  0  0  0
  -27.2176  -28.6261   20.7129 C   0  0  0  0  0  0
  -26.0382  -26.9070   19.4731 C   0  0  0  0  0  0
  -24.8691  -27.6891   19.4789 C   0  0  0  0  0  0
  -23.6332  -29.8203   20.1609 C   0  0  0  0  0  0
  -25.4113  -36.3088   24.0331 C   0  0  1  0  0  0
  -20.5885  -28.3685   23.1285 C   0  0  2  0  0  0
  -20.6776  -26.9409   22.5409 C   0  0  0  0  0  0
  -19.5752  -26.6382   21.5211 C   0  0  0  0  0  0
  -18.1932  -26.7925   22.1624 C   0  0  0  0  0  0
  -19.1538  -28.8849   23.2883 C   0  0  0  0  0  0
  -18.9458  -30.1452   23.8901 C   0  0  0  0  0  0
  -17.6458  -30.6586   24.0562 C   0  0  0  0  0  0
  -25.9047  -34.9455   23.5110 C   0  0  0  0  0  0
  -16.5350  -29.9083   23.6328 C   0  0  0  0  0  0
  -16.7273  -28.6499   23.0353 C   0  0  0  0  0  0
  -26.4496  -31.6585   25.0724 C   0  0  0  0  0  0
  -25.3733  -31.3711   26.1451 C   0  0  0  0  0  0
  -27.0338  -30.3014   24.6164 C   0  0  0  0  0  0
  -27.6061  -32.4313   25.7493 C   0  0  0  0  0  0
  -27.5581  -37.1802   24.8464 C   0  0  0  0  0  0
  -21.4182  -29.3042   22.3681 N   0  0  0  0  0  0
  -26.4293  -37.3779   23.9409 N   0  0  0  0  0  0
  -24.6863  -31.0622   22.0986 N   0  0  0  0  0  0
  -23.4195  -28.8163   23.3015 O   0  0  0  0  0  0
  -28.3252  -26.4667   20.1459 O   0  0  0  0  0  0
  -26.5612  -34.8920   22.4675 O   0  0  0  0  0  0
  -23.5419  -32.1399   23.7371 O   0  0  0  0  0  0
  -28.3439  -20.0679   20.8819 C   0  0  0  0  0  0
  -30.3064  -20.9997   19.8357 C   0  0  0  0  0  0
  -28.8733  -18.7463   20.7408 C   0  0  0  0  0  0
  -30.1306  -18.5361   20.1536 C   0  0  0  0  0  0
  -29.0435  -21.2302   20.4371 C   0  0  0  0  0  0
  -30.8380  -19.6835   19.7003 C   0  0  0  0  0  0
  -28.0988  -17.5153   21.1782 C   0  0  0  0  0  0
  -30.7225  -17.1013   20.0053 C   0  0  0  0  0  0
  -28.9761  -16.2855   21.5577 C   0  0  0  0  0  0
  -28.9394  -23.8550   20.1220 C   0  0  0  0  0  0
  -28.0754  -25.0920   20.6374 C   0  0  0  0  0  0
  -30.0069  -15.8934   20.5654 N   0  0  0  0  0  0
  -28.4587  -22.5275   20.6223 N   0  0  0  0  0  0
  -32.0531  -19.5233   19.1226 F   0  0  0  0  0  0
  -31.4617  -12.5499   19.1079 H   0  0  0  0  0  0
  -30.3828  -11.4341   19.8787 H   0  0  0  0  0  0
  -29.7521  -11.7581   17.4723 H   0  0  0  0  0  0
  -29.6289  -13.4826   17.7130 H   0  0  0  0  0  0
  -27.8438  -11.3096   18.8448 H   0  0  0  0  0  0
  -27.3564  -12.6103   17.7930 H   0  0  0  0  0  0
  -27.6696  -14.2646   19.5527 H   0  0  0  0  0  0
  -28.7566  -11.9889   21.2598 H   0  0  0  0  0  0
  -28.4707  -13.5302   21.9170 H   0  0  0  0  0  0
  -25.2759   -9.5678   22.4766 H   0  0  0  0  0  0
  -24.0004   -7.4625   22.7472 H   0  0  0  0  0  0
  -21.0845   -8.8765   19.8950 H   0  0  0  0  0  0
  -22.3696  -10.9669   19.6170 H   0  0  0  0  0  0
  -21.2001   -7.6147   23.9721 H   0  0  0  0  0  0
  -21.1483   -6.0520   25.9078 H   0  0  0  0  0  0
  -22.0598   -2.7612   23.2848 H   0  0  0  0  0  0
  -22.4072  -11.9879   22.4813 H   0  0  0  0  0  0
  -21.1071  -13.1238   22.2612 H   0  0  0  0  0  0
  -24.6465  -15.8384   20.4976 H   0  0  0  0  0  0
  -26.2625  -15.6169   20.0524 H   0  0  0  0  0  0
  -26.7170  -32.5460   23.1110 H   0  0  0  0  0  0
  -25.0085  -33.9730   25.0444 H   0  0  0  0  0  0
  -22.7126  -31.3050   21.4037 H   0  0  0  0  0  0
  -23.3753  -35.9627   23.3299 H   0  0  0  0  0  0
  -24.3583  -36.8914   22.2052 H   0  0  0  0  0  0
  -23.7240  -37.6498   23.6656 H   0  0  0  0  0  0
  -26.0882  -31.5570   20.6059 H   0  0  0  0  0  0
  -26.8404  -30.8438   22.0019 H   0  0  0  0  0  0
  -28.1138  -28.9872   21.1976 H   0  0  0  0  0  0
  -26.0063  -25.9548   18.9633 H   0  0  0  0  0  0
  -23.9774  -27.3195   18.9913 H   0  0  0  0  0  0
  -23.7510  -30.5973   19.4048 H   0  0  0  0  0  0
  -22.7536  -29.2488   19.8588 H   0  0  0  0  0  0
  -25.1293  -36.1944   25.0824 H   0  0  0  0  0  0
  -20.9980  -28.3258   24.1404 H   0  0  0  0  0  0
  -20.5679  -26.2292   23.3606 H   0  0  0  0  0  0
  -21.6644  -26.7443   22.1199 H   0  0  0  0  0  0
  -19.6915  -25.6294   21.1240 H   0  0  0  0  0  0
  -19.6693  -27.3194   20.6742 H   0  0  0  0  0  0
  -17.4201  -26.6673   21.4027 H   0  0  0  0  0  0
  -18.0335  -26.0066   22.9019 H   0  0  0  0  0  0
  -19.7933  -30.7267   24.2275 H   0  0  0  0  0  0
  -17.5011  -31.6268   24.5158 H   0  0  0  0  0  0
  -15.5351  -30.2986   23.7648 H   0  0  0  0  0  0
  -15.8672  -28.0817   22.7070 H   0  0  0  0  0  0
  -24.5918  -30.7050   25.7776 H   0  0  0  0  0  0
  -24.8913  -32.2871   26.4878 H   0  0  0  0  0  0
  -25.8064  -30.8888   27.0224 H   0  0  0  0  0  0
  -26.2907  -29.6763   24.1200 H   0  0  0  0  0  0
  -27.4058  -29.7269   25.4658 H   0  0  0  0  0  0
  -27.8767  -30.4308   23.9371 H   0  0  0  0  0  0
  -27.2682  -33.3615   26.2072 H   0  0  0  0  0  0
  -28.3873  -32.6865   25.0319 H   0  0  0  0  0  0
  -28.0727  -31.8432   26.5406 H   0  0  0  0  0  0
  -28.2595  -38.0103   24.7519 H   0  0  0  0  0  0
  -28.1082  -36.2636   24.6283 H   0  0  0  0  0  0
  -27.2299  -37.1441   25.8867 H   0  0  0  0  0  0
  -20.9355  -29.8767   21.6896 H   0  0  0  0  0  0
  -26.0178  -38.2855   24.1412 H   0  0  0  0  0  0
  -27.3712  -20.1835   21.3397 H   0  0  0  0  0  0
  -30.8925  -21.8313   19.4739 H   0  0  0  0  0  0
  -27.4329  -17.2471   20.3580 H   0  0  0  0  0  0
  -27.4553  -17.7755   22.0198 H   0  0  0  0  0  0
  -31.7163  -17.1539   20.4542 H   0  0  0  0  0  0
  -30.8858  -16.9303   18.9399 H   0  0  0  0  0  0
  -28.2674  -15.4996   21.7669 H   0  0  0  0  0  0
  -29.4906  -16.4883   22.4979 H   0  0  0  0  0  0
  -29.9819  -23.9963   20.4100 H   0  0  0  0  0  0
  -28.9197  -23.8371   19.0315 H   0  0  0  0  0  0
  -28.1947  -25.1443   21.7204 H   0  0  0  0  0  0
  -27.0317  -24.8141   20.5013 H   0  0  0  0  0  0
  -27.5497  -22.5487   21.0786 H   0  0  0  0  0  0
  1 25  1  0  0  0
  1 30  2  0  0  0
  1 82  1  0  0  0
  2  3  1  0  0  0
  2 25  1  0  0  0
  2 85  1  0  0  0
  2 86  1  0  0  0
  3  4  1  0  0  0
  3 87  1  0  0  0
  3 88  1  0  0  0
  4  5  1  0  0  0
  4 89  1  0  0  0
  4 90  1  0  0  0
  5  6  1  0  0  0
  5 26  1  0  0  0
  5 91  1  0  0  0
  6 25  1  0  0  0
  6 92  1  0  0  0
  6 93  1  0  0  0
  7  8  2  0  0  0
  7 26  1  0  0  0
  7 29  1  0  0  0
  8  9  1  0  0  0
  8 22  1  0  0  0
  9 10  1  0  0  0
  9 27  2  0  0  0
 10 11  2  0  0  0
 10 15  1  0  0  0
 11 12  1  0  0  0
 11 94  1  0  0  0
 12 13  2  0  0  0
 12 95  1  0  0  0
 13 14  1  0  0  0
 13 31  1  0  0  0
 14 15  2  0  0  0
 14 96  1  0  0  0
 15 97  1  0  0  0
 16 17  2  0  0  0
 16 21  1  0  0  0
 16 31  1  0  0  0
 17 18  1  0  0  0
 17 98  1  0  0  0
 18 19  2  0  0  0
 18 99  1  0  0  0
 19 20  1  0  0  0
 19 24  1  0  0  0
 20 21  2  0  0  0
 20100  1  0  0  0
 21 23  1  0  0  0
 22 28  1  0  0  0
 22 32  2  0  0  0
 26 27  1  0  0  0
 28101  1  0  0  0
 28102  1  0  0  0
 29103  1  0  0  0
 29104  1  0  0  0
 33 34  1  0  0  0
 33 66  1  0  0  0
 33 70  2  0  0  0
 34 36  1  0  0  0
 34 59  1  0  0  0
 34105  1  0  0  0
 35 44  2  0  0  0
 35 45  1  0  0  0
 35 68  1  0  0  0
 36 56  1  0  0  0
 36106  1  0  0  0
 37 39  1  0  0  0
 37 47  1  0  0  0
 37 66  1  0  0  0
 37107  1  0  0  0
 38 43  2  0  0  0
 38 46  1  0  0  0
 38 47  1  0  0  0
 39 64  1  0  0  0
 39 67  2  0  0  0
 40 52  1  0  0  0
 40 53  2  0  0  0
 40 58  1  0  0  0
 41108  1  0  0  0
 41109  1  0  0  0
 41110  1  0  0  0
 41 48  1  0  0  0
 42 43  1  0  0  0
 42 66  1  0  0  0
 42111  1  0  0  0
 42112  1  0  0  0
 43 44  1  0  0  0
 44113  1  0  0  0
 45 46  2  0  0  0
 45114  1  0  0  0
 46115  1  0  0  0
 47116  1  0  0  0
 47117  1  0  0  0
 48 56  1  0  0  0
 48 65  1  0  0  0
 48118  1  0  0  0
 49 50  1  0  0  0
 49 53  1  0  0  0
 49 64  1  0  0  0
 49119  1  0  0  0
 50 51  1  0  0  0
 50120  1  0  0  0
 50121  1  0  0  0
 51 52  1  0  0  0
 51122  1  0  0  0
 51123  1  0  0  0
 52124  1  0  0  0
 52125  1  0  0  0
 53 54  1  0  0  0
 54 55  2  0  0  0
 54126  1  0  0  0
 55 57  1  0  0  0
 55127  1  0  0  0
 56 69  2  0  0  0
 57 58  2  0  0  0
 57128  1  0  0  0
 58129  1  0  0  0
 59 60  1  0  0  0
 59 61  1  0  0  0
 59 62  1  0  0  0
 60130  1  0  0  0
 60131  1  0  0  0
 60132  1  0  0  0
 61133  1  0  0  0
 61134  1  0  0  0
 61135  1  0  0  0
 62136  1  0  0  0
 62137  1  0  0  0
 62138  1  0  0  0
 63 65  1  0  0  0
 63139  1  0  0  0
 63140  1  0  0  0
 63141  1  0  0  0
 64142  1  0  0  0
 65143  1  0  0  0
 68 81  1  0  0  0
 71 73  2  0  0  0
 71 75  1  0  0  0
 71144  1  0  0  0
 72 75  2  0  0  0
 72 76  1  0  0  0
 72145  1  0  0  0
 73 74  1  0  0  0
 73 77  1  0  0  0
 74 76  2  0  0  0
 74 78  1  0  0  0
 75 83  1  0  0  0
 76 84  1  0  0  0
 77 79  1  0  0  0
 77146  1  0  0  0
 77147  1  0  0  0
 78 82  1  0  0  0
 78148  1  0  0  0
 78149  1  0  0  0
 79 82  1  0  0  0
 79150  1  0  0  0
 79151  1  0  0  0
 80 81  1  0  0  0
 80 83  1  0  0  0
 80152  1  0  0  0
 80153  1  0  0  0
 81154  1  0  0  0
 81155  1  0  0  0
 83156  1  0  0  0
M  ISO  4   1 100  68 101  81 101  82 100
M  END
> <chiral flag>
0

> <version>
0

> <s_m_source_file>
/data/baiqing/PycharmProjects/Reinvent-master-3.2/result/LINK_invent/BTK/process_docking_weight1_custom_product_contain_oxygen_bond_distance_aromatic_linkinvent_7_9_3/rearranged_h_0026.sdf

> <i_m_source_file_index>
44

> <r_mmod_Potential_Energy-OPLS-2005>
253.557907104492

> <r_mmod_Stretch_Energy-OPLS-2005>
84.0246429443359

> <r_mmod_Bend_Energy-OPLS-2005>
171.706283569336

> <r_mmod_Torsional_Energy-OPLS-2005>
272.878997802734

> <r_mmod_Improper_Torsional_Energy-OPLS-2005>
13.5731935501099

> <r_mmod_Van_der_Waal_Energy-OPLS-2005>
156.408874511719

> <r_mmod_Electrostatic_Energy-OPLS-2005>
-285.28857421875

> <r_mmod_Solvation_Energy-OPLS-2005>
-210.432678222656

> <b_mmod_Minimization_Converged-OPLS-2005>
0

> <r_mmod_RMS_Derivative-OPLS-2005>
0.351655632257462

$$$$
44
                    3D
 Structure written by MMmdl.
180190  0  0  1  0            999 V2000
  -30.6704  -14.5318   20.5494 C   0  0  0  0  0  0
  -30.4175  -12.3419   19.4250 C   0  0  0  0  0  0
  -29.4881  -12.5056   18.2023 C   0  0  0  0  0  0
  -28.0100  -12.3562   18.6094 C   0  0  0  0  0  0
  -27.6497  -13.1950   19.8641 C   0  0  2  0  0  0
  -28.6897  -12.9909   20.9784 C   0  0  0  0  0  0
  -25.2540  -13.8107   20.5694 C   0  0  0  0  0  0
  -24.1792  -13.0403   20.9214 C   0  0  0  0  0  0
  -24.6353  -11.6875   20.8739 C   0  0  0  0  0  0
  -23.9037  -10.4275   21.0408 C   0  0  0  0  0  0
  -24.3610   -9.4201   21.9181 C   0  0  0  0  0  0
  -23.6285   -8.2247   22.0746 C   0  0  0  0  0  0
  -22.4267   -8.0272   21.3545 C   0  0  0  0  0  0
  -21.9903   -9.0252   20.4652 C   0  0  0  0  0  0
  -22.7221  -10.2128   20.3045 C   0  0  0  0  0  0
  -21.6877   -6.0710   22.5263 C   0  0  0  0  0  0
  -21.4037   -6.5621   23.8195 C   0  0  0  0  0  0
  -21.3663   -5.6765   24.9156 C   0  0  0  0  0  0
  -21.6058   -4.3036   24.7211 C   0  0  0  0  0  0
  -21.8828   -3.8122   23.4334 C   0  0  0  0  0  0
  -21.9199   -4.6940   22.3387 C   0  0  0  0  0  0
  -22.7818  -13.5244   21.1867 C   0  0  0  0  0  0
  -22.1677   -4.2133   21.0962 F   0  0  0  0  0  0
  -21.5633   -3.4509   25.7727 F   0  0  0  0  0  0
  -30.0056  -13.3416   20.4281 N   0  0  0  0  0  0
  -26.2942  -12.9266   20.3294 N   0  0  0  0  0  0
  -25.9261  -11.6434   20.5712 N   0  0  0  0  0  0
  -22.0455  -12.8228   22.0410 N   0  0  0  0  0  0
  -25.4170  -15.1799   20.4107 N   0  0  0  0  0  0
  -31.8186  -14.6592   20.1025 O   0  0  0  0  0  0
  -21.6658   -6.8857   21.4230 O   0  0  0  0  0  0
  -22.3495  -14.5538   20.6700 O   0  0  0  0  0  0
  -24.6139  -31.8686   23.2127 C   0  0  0  0  0  0
  -25.9039  -32.4822   23.8414 C   0  0  1  0  0  0
  -27.2240  -27.4345   20.0941 C   0  0  0  0  0  0
  -25.5892  -33.8624   24.2347 N   0  0  0  0  0  0
  -23.4014  -30.4952   21.5492 C   0  0  2  0  0  0
  -24.8483  -28.9619   20.1126 C   0  0  0  0  0  0
  -22.7392  -29.4682   22.4959 C   0  0  0  0  0  0
  -18.0286  -28.1409   22.8487 C   0  0  0  0  0  0
  -24.1487  -36.7326   23.2645 C   0  0  0  0  0  0
  -25.9301  -30.8350   21.3661 C   0  0  0  0  0  0
  -26.0073  -29.4698   20.7112 C   0  0  0  0  0  0
  -27.2003  -28.7124   20.7006 C   0  0  0  0  0  0
  -26.0488  -26.9434   19.4834 C   0  0  0  0  0  0
  -24.8619  -27.6996   19.4957 C   0  0  0  0  0  0
  -23.6129  -29.8321   20.1605 C   0  0  0  0  0  0
  -25.4106  -36.3118   24.0340 C   0  0  1  0  0  0
  -20.5861  -28.3667   23.1306 C   0  0  2  0  0  0
  -20.6783  -26.9409   22.5411 C   0  0  0  0  0  0
  -19.5747  -26.6369   21.5229 C   0  0  0  0  0  0
  -18.1920  -26.7955   22.1631 C   0  0  0  0  0  0
  -19.1534  -28.8836   23.2918 C   0  0  0  0  0  0
  -18.9491  -30.1431   23.8948 C   0  0  0  0  0  0
  -17.6499  -30.6600   24.0593 C   0  0  0  0  0  0
  -25.9024  -34.9478   23.5148 C   0  0  0  0  0  0
  -16.5365  -29.9130   23.6328 C   0  0  0  0  0  0
  -16.7274  -28.6555   23.0335 C   0  0  0  0  0  0
  -26.4491  -31.6601   25.0733 C   0  0  0  0  0  0
  -25.3774  -31.3682   26.1480 C   0  0  0  0  0  0
  -27.0344  -30.3061   24.6111 C   0  0  0  0  0  0
  -27.6075  -32.4326   25.7478 C   0  0  0  0  0  0
  -27.5588  -37.1816   24.8467 C   0  0  0  0  0  0
  -21.4119  -29.3056   22.3703 N   0  0  0  0  0  0
  -26.4308  -37.3794   23.9401 N   0  0  0  0  0  0
  -24.6666  -31.0800   22.1005 N   0  0  0  0  0  0
  -23.4160  -28.8224   23.3004 O   0  0  0  0  0  0
  -28.3731  -26.6769   20.0943 O   0  0  0  0  0  0
  -26.5569  -34.8925   22.4702 O   0  0  0  0  0  0
  -23.5329  -32.1400   23.7538 O   0  0  0  0  0  0
  -29.6043  -19.3726   19.9805 C   0  0  0  0  0  0
  -27.0191  -18.8216   19.0826 C   0  0  0  0  0  0
  -29.2042  -18.0154   19.8579 C   0  0  0  0  0  0
  -27.4196  -20.1729   19.2008 C   0  0  0  0  0  0
  -28.7455  -20.4561   19.6500 C   0  0  0  0  0  0
  -27.9044  -17.7632   19.3714 C   0  0  0  0  0  0
  -28.1415  -17.3480   23.5984 C   0  0  0  0  0  0
  -29.5111  -18.0061   23.4511 C   0  0  0  0  0  0
  -24.8547  -21.9227   17.2912 C   0  0  0  0  0  0
  -24.1653  -21.3980   18.5468 C   0  0  0  0  0  0
  -28.1197  -16.2185   22.5660 C   0  0  0  0  0  0
  -30.4538  -16.8595   23.0866 C   0  0  0  0  0  0
  -26.2169  -21.2338   17.3727 C   0  0  0  0  0  0
  -25.3082  -21.3643   19.5658 C   0  0  0  0  0  0
  -29.5945  -15.8339   22.3168 C   0  0  0  0  0  0
  -30.2421  -16.8854   20.0736 C   0  0  0  0  0  0
  -28.7504  -24.2251   19.7846 C   0  0  0  0  0  0
  -28.6322  -22.8294   20.4553 C   0  0  0  0  0  0
  -28.2362  -25.3726   20.6844 C   0  0  0  0  0  0
  -26.5428  -21.2031   18.7968 N   0  0  0  0  0  0
  -29.2892  -21.7608   19.6895 N   0  0  0  0  0  0
  -29.9418  -15.6500   20.8795 N   0  0  0  0  0  0
  -27.5076  -16.4930   19.1350 F   0  0  0  0  0  0
  -31.4601  -12.4515   19.1197 H   0  0  0  0  0  0
  -30.3376  -11.3366   19.8377 H   0  0  0  0  0  0
  -29.7301  -11.7641   17.4385 H   0  0  0  0  0  0
  -29.6437  -13.4812   17.7393 H   0  0  0  0  0  0
  -27.8195  -11.3007   18.8064 H   0  0  0  0  0  0
  -27.3632  -12.6312   17.7769 H   0  0  0  0  0  0
  -27.6924  -14.2366   19.5656 H   0  0  0  0  0  0
  -28.6919  -11.9519   21.3103 H   0  0  0  0  0  0
  -28.4157  -13.5618   21.8562 H   0  0  0  0  0  0
  -25.2760   -9.5725   22.4757 H   0  0  0  0  0  0
  -24.0016   -7.4641   22.7467 H   0  0  0  0  0  0
  -21.0830   -8.8773   19.8957 H   0  0  0  0  0  0
  -22.3674  -10.9684   19.6164 H   0  0  0  0  0  0
  -21.2041   -7.6126   23.9704 H   0  0  0  0  0  0
  -21.1493   -6.0486   25.9062 H   0  0  0  0  0  0
  -22.0608   -2.7584   23.2825 H   0  0  0  0  0  0
  -22.4073  -11.9939   22.4872 H   0  0  0  0  0  0
  -21.1070  -13.1254   22.2614 H   0  0  0  0  0  0
  -24.6435  -15.8249   20.5219 H   0  0  0  0  0  0
  -26.2539  -15.6127   20.0285 H   0  0  0  0  0  0
  -26.7116  -32.5567   23.1187 H   0  0  0  0  0  0
  -25.0082  -33.9804   25.0519 H   0  0  0  0  0  0
  -22.6919  -31.3127   21.4139 H   0  0  0  0  0  0
  -23.3751  -35.9663   23.3324 H   0  0  0  0  0  0
  -24.3586  -36.8920   22.2058 H   0  0  0  0  0  0
  -23.7226  -37.6538   23.6641 H   0  0  0  0  0  0
  -26.0426  -31.6044   20.6021 H   0  0  0  0  0  0
  -26.8175  -30.8881   21.9855 H   0  0  0  0  0  0
  -28.0938  -29.0948   21.1758 H   0  0  0  0  0  0
  -26.0518  -25.9775   18.9974 H   0  0  0  0  0  0
  -23.9674  -27.3109   19.0271 H   0  0  0  0  0  0
  -23.7260  -30.6098   19.4038 H   0  0  0  0  0  0
  -22.7341  -29.2601   19.8573 H   0  0  0  0  0  0
  -25.1288  -36.2005   25.0833 H   0  0  0  0  0  0
  -20.9974  -28.3233   24.1416 H   0  0  0  0  0  0
  -20.5762  -26.2278   23.3602 H   0  0  0  0  0  0
  -21.6654  -26.7538   22.1168 H   0  0  0  0  0  0
  -19.6918  -25.6275   21.1276 H   0  0  0  0  0  0
  -19.6665  -27.3147   20.6726 H   0  0  0  0  0  0
  -17.4187  -26.6714   21.4022 H   0  0  0  0  0  0
  -18.0298  -26.0129   22.9054 H   0  0  0  0  0  0
  -19.7983  -30.7211   24.2341 H   0  0  0  0  0  0
  -17.5083  -31.6274   24.5221 H   0  0  0  0  0  0
  -15.5382  -30.3065   23.7666 H   0  0  0  0  0  0
  -15.8674  -28.0920   22.7011 H   0  0  0  0  0  0
  -24.5935  -30.7048   25.7811 H   0  0  0  0  0  0
  -24.8987  -32.2828   26.4996 H   0  0  0  0  0  0
  -25.8134  -30.8796   27.0197 H   0  0  0  0  0  0
  -26.2874  -29.6776   24.1241 H   0  0  0  0  0  0
  -27.4215  -29.7348   25.4565 H   0  0  0  0  0  0
  -27.8669  -30.4433   23.9197 H   0  0  0  0  0  0
  -27.2706  -33.3616   26.2092 H   0  0  0  0  0  0
  -28.3844  -32.6880   25.0259 H   0  0  0  0  0  0
  -28.0783  -31.8419   26.5356 H   0  0  0  0  0  0
  -28.2605  -38.0109   24.7505 H   0  0  0  0  0  0
  -28.1065  -36.2640   24.6302 H   0  0  0  0  0  0
  -27.2298  -37.1481   25.8865 H   0  0  0  0  0  0
  -20.9257  -29.8752   21.6911 H   0  0  0  0  0  0
  -26.0202  -38.2876   24.1420 H   0  0  0  0  0  0
  -30.6143  -19.5810   20.2997 H   0  0  0  0  0  0
  -26.0355  -18.5817   18.7089 H   0  0  0  0  0  0
  -27.3199  -18.0526   23.4575 H   0  0  0  0  0  0
  -28.0452  -16.9263   24.6014 H   0  0  0  0  0  0
  -29.8260  -18.5296   24.3552 H   0  0  0  0  0  0
  -29.4836  -18.7370   22.6444 H   0  0  0  0  0  0
  -24.9734  -23.0067   17.3563 H   0  0  0  0  0  0
  -24.3081  -21.6992   16.3749 H   0  0  0  0  0  0
  -23.7862  -20.3890   18.3676 H   0  0  0  0  0  0
  -23.3248  -22.0158   18.8666 H   0  0  0  0  0  0
  -27.6373  -16.5710   21.6593 H   0  0  0  0  0  0
  -27.5210  -15.3782   22.9176 H   0  0  0  0  0  0
  -30.8031  -16.3984   24.0138 H   0  0  0  0  0  0
  -31.3522  -17.1967   22.5726 H   0  0  0  0  0  0
  -26.9738  -21.7672   16.7965 H   0  0  0  0  0  0
  -26.1400  -20.2248   16.9593 H   0  0  0  0  0  0
  -25.1545  -20.5988   20.3258 H   0  0  0  0  0  0
  -25.3563  -22.3251   20.0807 H   0  0  0  0  0  0
  -29.7644  -14.8938   22.8449 H   0  0  0  0  0  0
  -30.4703  -16.5725   19.0528 H   0  0  0  0  0  0
  -31.1789  -17.3220   20.4210 H   0  0  0  0  0  0
  -28.2009  -24.2272   18.8425 H   0  0  0  0  0  0
  -29.7902  -24.4294   19.5293 H   0  0  0  0  0  0
  -27.5864  -22.6033   20.6512 H   0  0  0  0  0  0
  -29.1092  -22.8720   21.4350 H   0  0  0  0  0  0
  -28.8164  -25.3777   21.6083 H   0  0  0  0  0  0
  -27.2114  -25.1577   20.9936 H   0  0  0  0  0  0
  -30.2969  -21.7647   19.8044 H   0  0  0  0  0  0
  1 25  1  0  0  0
  1 30  2  0  0  0
  1 92  1  0  0  0
  2  3  1  0  0  0
  2 25  1  0  0  0
  2 94  1  0  0  0
  2 95  1  0  0  0
  3  4  1  0  0  0
  3 96  1  0  0  0
  3 97  1  0  0  0
  4  5  1  0  0  0
  4 98  1  0  0  0
  4 99  1  0  0  0
  5  6  1  0  0  0
  5 26  1  0  0  0
  5100  1  0  0  0
  6 25  1  0  0  0
  6101  1  0  0  0
  6102  1  0  0  0
  7  8  2  0  0  0
  7 26  1  0  0  0
  7 29  1  0  0  0
  8  9  1  0  0  0
  8 22  1  0  0  0
  9 10  1  0  0  0
  9 27  2  0  0  0
 10 11  2  0  0  0
 10 15  1  0  0  0
 11 12  1  0  0  0
 11103  1  0  0  0
 12 13  2  0  0  0
 12104  1  0  0  0
 13 14  1  0  0  0
 13 31  1  0  0  0
 14 15  2  0  0  0
 14105  1  0  0  0
 15106  1  0  0  0
 16 17  2  0  0  0
 16 21  1  0  0  0
 16 31  1  0  0  0
 17 18  1  0  0  0
 17107  1  0  0  0
 18 19  2  0  0  0
 18108  1  0  0  0
 19 20  1  0  0  0
 19 24  1  0  0  0
 20 21  2  0  0  0
 20109  1  0  0  0
 21 23  1  0  0  0
 22 28  1  0  0  0
 22 32  2  0  0  0
 26 27  1  0  0  0
 28110  1  0  0  0
 28111  1  0  0  0
 29112  1  0  0  0
 29113  1  0  0  0
 33 34  1  0  0  0
 33 66  1  0  0  0
 33 70  2  0  0  0
 34 36  1  0  0  0
 34 59  1  0  0  0
 34114  1  0  0  0
 35 44  2  0  0  0
 35 45  1  0  0  0
 35 68  1  0  0  0
 36 56  1  0  0  0
 36115  1  0  0  0
 37 39  1  0  0  0
 37 47  1  0  0  0
 37 66  1  0  0  0
 37116  1  0  0  0
 38 43  2  0  0  0
 38 46  1  0  0  0
 38 47  1  0  0  0
 39 64  1  0  0  0
 39 67  2  0  0  0
 40 52  1  0  0  0
 40 53  2  0  0  0
 40 58  1  0  0  0
 41117  1  0  0  0
 41118  1  0  0  0
 41119  1  0  0  0
 41 48  1  0  0  0
 42 43  1  0  0  0
 42 66  1  0  0  0
 42120  1  0  0  0
 42121  1  0  0  0
 43 44  1  0  0  0
 44122  1  0  0  0
 45 46  2  0  0  0
 45123  1  0  0  0
 46124  1  0  0  0
 47125  1  0  0  0
 47126  1  0  0  0
 48 56  1  0  0  0
 48 65  1  0  0  0
 48127  1  0  0  0
 49 50  1  0  0  0
 49 53  1  0  0  0
 49 64  1  0  0  0
 49128  1  0  0  0
 50 51  1  0  0  0
 50129  1  0  0  0
 50130  1  0  0  0
 51 52  1  0  0  0
 51131  1  0  0  0
 51132  1  0  0  0
 52133  1  0  0  0
 52134  1  0  0  0
 53 54  1  0  0  0
 54 55  2  0  0  0
 54135  1  0  0  0
 55 57  1  0  0  0
 55136  1  0  0  0
 56 69  2  0  0  0
 57 58  2  0  0  0
 57137  1  0  0  0
 58138  1  0  0  0
 59 60  1  0  0  0
 59 61  1  0  0  0
 59 62  1  0  0  0
 60139  1  0  0  0
 60140  1  0  0  0
 60141  1  0  0  0
 61142  1  0  0  0
 61143  1  0  0  0
 61144  1  0  0  0
 62145  1  0  0  0
 62146  1  0  0  0
 62147  1  0  0  0
 63 65  1  0  0  0
 63148  1  0  0  0
 63149  1  0  0  0
 63150  1  0  0  0
 64151  1  0  0  0
 65152  1  0  0  0
 68 89  1  0  0  0
 71 73  2  0  0  0
 71 75  1  0  0  0
 71153  1  0  0  0
 72 74  1  0  0  0
 72 76  2  0  0  0
 72154  1  0  0  0
 73 76  1  0  0  0
 73 86  1  0  0  0
 74 75  2  0  0  0
 74 90  1  0  0  0
 75 91  1  0  0  0
 76 93  1  0  0  0
 77 78  1  0  0  0
 77 81  1  0  0  0
 77155  1  0  0  0
 77156  1  0  0  0
 78 82  1  0  0  0
 78157  1  0  0  0
 78158  1  0  0  0
 79 80  1  0  0  0
 79 83  1  0  0  0
 79159  1  0  0  0
 79160  1  0  0  0
 80 84  1  0  0  0
 80161  1  0  0  0
 80162  1  0  0  0
 81 85  1  0  0  0
 81163  1  0  0  0
 81164  1  0  0  0
 82 85  1  0  0  0
 82165  1  0  0  0
 82166  1  0  0  0
 83 90  1  0  0  0
 83167  1  0  0  0
 83168  1  0  0  0
 84 90  1  0  0  0
 84169  1  0  0  0
 84170  1  0  0  0
 85 92  1  0  0  0
 85171  1  0  0  0
 86 92  1  0  0  0
 86172  1  0  0  0
 86173  1  0  0  0
 87 88  1  0  0  0
 87 89  1  0  0  0
 87174  1  0  0  0
 87175  1  0  0  0
 88 91  1  0  0  0
 88176  1  0  0  0
 88177  1  0  0  0
 89178  1  0  0  0
 89179  1  0  0  0
 91180  1  0  0  0
M  ISO  4   1 100  68 101  89 101  92 100
M  END
> <chiral flag>
0

> <version>
0

> <s_m_source_file>
/data/baiqing/PycharmProjects/Reinvent-master-3.2/result/LINK_invent/BTK/process_docking_weight1_custom_product_contain_oxygen_bond_distance_aromatic_linkinvent_7_9_3/rearranged_h_0026.sdf

> <i_m_source_file_index>
45

> <r_mmod_Potential_Energy-OPLS-2005>
346.980743408203

> <r_mmod_Stretch_Energy-OPLS-2005>
52.0496597290039

> <r_mmod_Bend_Energy-OPLS-2005>
179.97004699707

> <r_mmod_Torsional_Energy-OPLS-2005>
436.603729248047

> <r_mmod_Improper_Torsional_Energy-OPLS-2005>
20.5240688323975

> <r_mmod_Van_der_Waal_Energy-OPLS-2005>
142.569107055664

> <r_mmod_Electrostatic_Energy-OPLS-2005>
-304.300323486328

> <r_mmod_Solvation_Energy-OPLS-2005>
-198.055252075195

> <b_mmod_Minimization_Converged-OPLS-2005>
0

> <r_mmod_RMS_Derivative-OPLS-2005>
4.00921630859375

$$$$
45
                    3D
 Structure written by MMmdl.
156165  0  0  1  0            999 V2000
  -30.5231  -14.8986   20.4401 C   0  0  0  0  0  0
  -30.4517  -12.5535   19.4895 C   0  0  0  0  0  0
  -29.5248  -12.5288   18.2511 C   0  0  0  0  0  0
  -28.0537  -12.3245   18.6629 C   0  0  0  0  0  0
  -27.6396  -13.2369   19.8467 C   0  0  2  0  0  0
  -28.6833  -13.2103   20.9846 C   0  0  0  0  0  0
  -25.2522  -13.8195   20.5705 C   0  0  0  0  0  0
  -24.1819  -13.0440   20.9230 C   0  0  0  0  0  0
  -24.6411  -11.6917   20.8748 C   0  0  0  0  0  0
  -23.9075  -10.4293   21.0395 C   0  0  0  0  0  0
  -24.3623   -9.4204   21.9172 C   0  0  0  0  0  0
  -23.6292   -8.2242   22.0738 C   0  0  0  0  0  0
  -22.4272   -8.0283   21.3533 C   0  0  0  0  0  0
  -21.9913   -9.0259   20.4635 C   0  0  0  0  0  0
  -22.7246  -10.2139   20.3044 C   0  0  0  0  0  0
  -21.6852   -6.0734   22.5269 C   0  0  0  0  0  0
  -21.4016   -6.5632   23.8207 C   0  0  0  0  0  0
  -21.3662   -5.6780   24.9166 C   0  0  0  0  0  0
  -21.6044   -4.3045   24.7213 C   0  0  0  0  0  0
  -21.8821   -3.8142   23.4334 C   0  0  0  0  0  0
  -21.9194   -4.6962   22.3392 C   0  0  0  0  0  0
  -22.7840  -13.5225   21.1873 C   0  0  0  0  0  0
  -22.1661   -4.2145   21.0968 F   0  0  0  0  0  0
  -21.5628   -3.4528   25.7729 F   0  0  0  0  0  0
  -29.9688  -13.6234   20.4032 N   0  0  0  0  0  0
  -26.2936  -12.9404   20.3250 N   0  0  0  0  0  0
  -25.9340  -11.6546   20.5733 N   0  0  0  0  0  0
  -22.0472  -12.8224   22.0422 N   0  0  0  0  0  0
  -25.4217  -15.1919   20.4105 N   0  0  0  0  0  0
  -31.7106  -15.0205   20.1277 O   0  0  0  0  0  0
  -21.6631   -6.8885   21.4235 O   0  0  0  0  0  0
  -22.3531  -14.5524   20.6701 O   0  0  0  0  0  0
  -24.6416  -31.8464   23.1903 C   0  0  0  0  0  0
  -25.9199  -32.4705   23.8286 C   0  0  1  0  0  0
  -27.2178  -27.1636   20.1456 C   0  0  0  0  0  0
  -25.5950  -33.8509   24.2203 N   0  0  0  0  0  0
  -23.4426  -30.4675   21.5364 C   0  0  2  0  0  0
  -24.8911  -28.8995   20.1133 C   0  0  0  0  0  0
  -22.7553  -29.4558   22.4873 C   0  0  0  0  0  0
  -18.0301  -28.1388   22.8487 C   0  0  0  0  0  0
  -24.1489  -36.7260   23.2638 C   0  0  0  0  0  0
  -25.9973  -30.7303   21.3836 C   0  0  0  0  0  0
  -26.0692  -29.3432   20.7273 C   0  0  0  0  0  0
  -27.2353  -28.4929   20.7238 C   0  0  0  0  0  0
  -26.0138  -26.8188   19.4918 C   0  0  0  0  0  0
  -24.8748  -27.6494   19.4805 C   0  0  0  0  0  0
  -23.6664  -29.7984   20.1556 C   0  0  0  0  0  0
  -25.4119  -36.3037   24.0316 C   0  0  1  0  0  0
  -20.5915  -28.3708   23.1247 C   0  0  2  0  0  0
  -20.6784  -26.9414   22.5403 C   0  0  0  0  0  0
  -19.5756  -26.6375   21.5213 C   0  0  0  0  0  0
  -18.1940  -26.7929   22.1629 C   0  0  0  0  0  0
  -19.1557  -28.8866   23.2865 C   0  0  0  0  0  0
  -18.9469  -30.1459   23.8893 C   0  0  0  0  0  0
  -17.6467  -30.6588   24.0556 C   0  0  0  0  0  0
  -25.9070  -34.9412   23.5069 C   0  0  0  0  0  0
  -16.5360  -29.9084   23.6326 C   0  0  0  0  0  0
  -16.7286  -28.6497   23.0363 C   0  0  0  0  0  0
  -26.4527  -31.6557   25.0716 C   0  0  0  0  0  0
  -25.3706  -31.3747   26.1404 C   0  0  0  0  0  0
  -27.0383  -30.2954   24.6275 C   0  0  0  0  0  0
  -27.6067  -32.4305   25.7510 C   0  0  0  0  0  0
  -27.5573  -37.1786   24.8466 C   0  0  0  0  0  0
  -21.4247  -29.3044   22.3623 N   0  0  0  0  0  0
  -26.4286  -37.3744   23.9407 N   0  0  0  0  0  0
  -24.7139  -31.0351   22.0921 N   0  0  0  0  0  0
  -23.4211  -28.8098   23.3000 O   0  0  0  0  0  0
  -28.2856  -26.2010   20.1823 O   0  0  0  0  0  0
  -26.5659  -34.8908   22.4649 O   0  0  0  0  0  0
  -23.5541  -32.1324   23.7146 O   0  0  0  0  0  0
  -28.4417  -18.1506   21.1991 C   0  0  0  0  0  0
  -29.0332  -20.5774   20.6565 C   0  0  0  0  0  0
  -29.5848  -17.5187   20.6226 C   0  0  0  0  0  0
  -28.1713  -19.5667   21.2152 C   0  0  0  0  0  0
  -30.1789  -19.9555   20.0217 C   0  0  0  0  0  0
  -30.4425  -18.5052   20.0039 C   0  0  0  0  0  0
  -30.2155  -23.1374   22.3833 C   0  0  0  0  0  0
  -30.3469  -23.8070   21.0117 C   0  0  0  0  0  0
  -28.9273  -22.3143   22.3027 C   0  0  0  0  0  0
  -29.0776  -23.4005   20.2507 C   0  0  2  0  0  0
  -27.9992  -24.6872   20.3594 C   0  0  0  0  0  0
  -28.7156  -22.0283   20.8840 N   0  0  0  0  0  0
  -29.6557  -15.9849   20.6940 N   0  0  0  0  0  0
  -26.6853  -20.0414   21.9705 Cl  0  0  0  0  0  0
  -31.3247  -20.9913   19.2385 Cl  0  0  0  0  0  0
  -31.8533  -17.9507   19.1706 Cl  0  0  0  0  0  0
  -31.4829  -12.7236   19.1760 H   0  0  0  0  0  0
  -30.4496  -11.5866   19.9951 H   0  0  0  0  0  0
  -29.8349  -11.7426   17.5616 H   0  0  0  0  0  0
  -29.6226  -13.4693   17.7064 H   0  0  0  0  0  0
  -27.9350  -11.2789   18.9489 H   0  0  0  0  0  0
  -27.3949  -12.4838   17.8079 H   0  0  0  0  0  0
  -27.6187  -14.2501   19.4453 H   0  0  0  0  0  0
  -28.7575  -12.2153   21.4269 H   0  0  0  0  0  0
  -28.3876  -13.8796   21.7938 H   0  0  0  0  0  0
  -25.2765   -9.5681   22.4751 H   0  0  0  0  0  0
  -23.9999   -7.4628   22.7455 H   0  0  0  0  0  0
  -21.0846   -8.8776   19.8938 H   0  0  0  0  0  0
  -22.3698  -10.9674   19.6154 H   0  0  0  0  0  0
  -21.2005   -7.6137   23.9715 H   0  0  0  0  0  0
  -21.1486   -6.0501   25.9069 H   0  0  0  0  0  0
  -22.0603   -2.7604   23.2823 H   0  0  0  0  0  0
  -22.4096  -11.9906   22.4839 H   0  0  0  0  0  0
  -21.1077  -13.1237   22.2596 H   0  0  0  0  0  0
  -24.6461  -15.8376   20.5090 H   0  0  0  0  0  0
  -26.2425  -15.6202   20.0034 H   0  0  0  0  0  0
  -26.7269  -32.5328   23.1022 H   0  0  0  0  0  0
  -25.0057  -33.9625   25.0324 H   0  0  0  0  0  0
  -22.7442  -31.2930   21.3853 H   0  0  0  0  0  0
  -23.3751  -35.9592   23.3295 H   0  0  0  0  0  0
  -24.3564  -36.8895   22.2051 H   0  0  0  0  0  0
  -23.7249  -37.6459   23.6675 H   0  0  0  0  0  0
  -26.1477  -31.4840   20.6094 H   0  0  0  0  0  0
  -26.8701  -30.7818   22.0228 H   0  0  0  0  0  0
  -28.1371  -28.8324   21.2139 H   0  0  0  0  0  0
  -25.9182  -25.8756   18.9779 H   0  0  0  0  0  0
  -23.9776  -27.3072   18.9830 H   0  0  0  0  0  0
  -23.8001  -30.5731   19.4001 H   0  0  0  0  0  0
  -22.7821  -29.2383   19.8457 H   0  0  0  0  0  0
  -25.1304  -36.1867   25.0808 H   0  0  0  0  0  0
  -21.0019  -28.3291   24.1365 H   0  0  0  0  0  0
  -20.5673  -26.2320   23.3616 H   0  0  0  0  0  0
  -21.6649  -26.7416   22.1200 H   0  0  0  0  0  0
  -19.6913  -25.6279   21.1258 H   0  0  0  0  0  0
  -19.6697  -27.3174   20.6733 H   0  0  0  0  0  0
  -17.4207  -26.6673   21.4036 H   0  0  0  0  0  0
  -18.0342  -26.0073   22.9029 H   0  0  0  0  0  0
  -19.7941  -30.7272   24.2276 H   0  0  0  0  0  0
  -17.5015  -31.6271   24.5149 H   0  0  0  0  0  0
  -15.5358  -30.2984   23.7641 H   0  0  0  0  0  0
  -15.8687  -28.0799   22.7102 H   0  0  0  0  0  0
  -24.5902  -30.7084   25.7715 H   0  0  0  0  0  0
  -24.8879  -32.2931   26.4755 H   0  0  0  0  0  0
  -25.7971  -30.8963   27.0229 H   0  0  0  0  0  0
  -26.2992  -29.6690   24.1271 H   0  0  0  0  0  0
  -27.3991  -29.7241   25.4837 H   0  0  0  0  0  0
  -27.8903  -30.4196   23.9590 H   0  0  0  0  0  0
  -27.2674  -33.3622   26.2050 H   0  0  0  0  0  0
  -28.3910  -32.6826   25.0363 H   0  0  0  0  0  0
  -28.0701  -31.8448   26.5459 H   0  0  0  0  0  0
  -28.2588  -38.0084   24.7495 H   0  0  0  0  0  0
  -28.1069  -36.2607   24.6312 H   0  0  0  0  0  0
  -27.2284  -37.1462   25.8868 H   0  0  0  0  0  0
  -20.9444  -29.8770   21.6822 H   0  0  0  0  0  0
  -26.0155  -38.2815   24.1403 H   0  0  0  0  0  0
  -27.7044  -17.5167   21.6684 H   0  0  0  0  0  0
  -30.1744  -23.8620   23.1978 H   0  0  0  0  0  0
  -31.0715  -22.4858   22.5653 H   0  0  0  0  0  0
  -31.2362  -23.4387   20.5009 H   0  0  0  0  0  0
  -30.4596  -24.8894   21.0907 H   0  0  0  0  0  0
  -28.0833  -22.8910   22.6844 H   0  0  0  0  0  0
  -29.0062  -21.4293   22.9371 H   0  0  0  0  0  0
  -29.3214  -23.2551   19.1969 H   0  0  0  0  0  0
  -27.5479  -24.6332   21.3496 H   0  0  0  0  0  0
  -27.1969  -24.4072   19.6816 H   0  0  0  0  0  0
  -28.7788  -15.5997   21.0087 H   0  0  0  0  0  0
  1 25  1  0  0  0
  1 30  2  0  0  0
  1 83  1  0  0  0
  2  3  1  0  0  0
  2 25  1  0  0  0
  2 87  1  0  0  0
  2 88  1  0  0  0
  3  4  1  0  0  0
  3 89  1  0  0  0
  3 90  1  0  0  0
  4  5  1  0  0  0
  4 91  1  0  0  0
  4 92  1  0  0  0
  5  6  1  0  0  0
  5 26  1  0  0  0
  5 93  1  0  0  0
  6 25  1  0  0  0
  6 94  1  0  0  0
  6 95  1  0  0  0
  7  8  2  0  0  0
  7 26  1  0  0  0
  7 29  1  0  0  0
  8  9  1  0  0  0
  8 22  1  0  0  0
  9 10  1  0  0  0
  9 27  2  0  0  0
 10 11  2  0  0  0
 10 15  1  0  0  0
 11 12  1  0  0  0
 11 96  1  0  0  0
 12 13  2  0  0  0
 12 97  1  0  0  0
 13 14  1  0  0  0
 13 31  1  0  0  0
 14 15  2  0  0  0
 14 98  1  0  0  0
 15 99  1  0  0  0
 16 17  2  0  0  0
 16 21  1  0  0  0
 16 31  1  0  0  0
 17 18  1  0  0  0
 17100  1  0  0  0
 18 19  2  0  0  0
 18101  1  0  0  0
 19 20  1  0  0  0
 19 24  1  0  0  0
 20 21  2  0  0  0
 20102  1  0  0  0
 21 23  1  0  0  0
 22 28  1  0  0  0
 22 32  2  0  0  0
 26 27  1  0  0  0
 28103  1  0  0  0
 28104  1  0  0  0
 29105  1  0  0  0
 29106  1  0  0  0
 33 34  1  0  0  0
 33 66  1  0  0  0
 33 70  2  0  0  0
 34 36  1  0  0  0
 34 59  1  0  0  0
 34107  1  0  0  0
 35 44  2  0  0  0
 35 45  1  0  0  0
 35 68  1  0  0  0
 36 56  1  0  0  0
 36108  1  0  0  0
 37 39  1  0  0  0
 37 47  1  0  0  0
 37 66  1  0  0  0
 37109  1  0  0  0
 38 43  2  0  0  0
 38 46  1  0  0  0
 38 47  1  0  0  0
 39 64  1  0  0  0
 39 67  2  0  0  0
 40 52  1  0  0  0
 40 53  2  0  0  0
 40 58  1  0  0  0
 41110  1  0  0  0
 41111  1  0  0  0
 41112  1  0  0  0
 41 48  1  0  0  0
 42 43  1  0  0  0
 42 66  1  0  0  0
 42113  1  0  0  0
 42114  1  0  0  0
 43 44  1  0  0  0
 44115  1  0  0  0
 45 46  2  0  0  0
 45116  1  0  0  0
 46117  1  0  0  0
 47118  1  0  0  0
 47119  1  0  0  0
 48 56  1  0  0  0
 48 65  1  0  0  0
 48120  1  0  0  0
 49 50  1  0  0  0
 49 53  1  0  0  0
 49 64  1  0  0  0
 49121  1  0  0  0
 50 51  1  0  0  0
 50122  1  0  0  0
 50123  1  0  0  0
 51 52  1  0  0  0
 51124  1  0  0  0
 51125  1  0  0  0
 52126  1  0  0  0
 52127  1  0  0  0
 53 54  1  0  0  0
 54 55  2  0  0  0
 54128  1  0  0  0
 55 57  1  0  0  0
 55129  1  0  0  0
 56 69  2  0  0  0
 57 58  2  0  0  0
 57130  1  0  0  0
 58131  1  0  0  0
 59 60  1  0  0  0
 59 61  1  0  0  0
 59 62  1  0  0  0
 60132  1  0  0  0
 60133  1  0  0  0
 60134  1  0  0  0
 61135  1  0  0  0
 61136  1  0  0  0
 61137  1  0  0  0
 62138  1  0  0  0
 62139  1  0  0  0
 62140  1  0  0  0
 63 65  1  0  0  0
 63141  1  0  0  0
 63142  1  0  0  0
 63143  1  0  0  0
 64144  1  0  0  0
 65145  1  0  0  0
 68 81  1  0  0  0
 71 73  2  0  0  0
 71 74  1  0  0  0
 71146  1  0  0  0
 72 74  2  0  0  0
 72 75  1  0  0  0
 72 82  1  0  0  0
 73 76  1  0  0  0
 73 83  1  0  0  0
 74 84  1  0  0  0
 75 76  2  0  0  0
 75 85  1  0  0  0
 76 86  1  0  0  0
 77 78  1  0  0  0
 77 79  1  0  0  0
 77147  1  0  0  0
 77148  1  0  0  0
 78 80  1  0  0  0
 78149  1  0  0  0
 78150  1  0  0  0
 79 82  1  0  0  0
 79151  1  0  0  0
 79152  1  0  0  0
 80 81  1  0  0  0
 80 82  1  0  0  0
 80153  1  0  0  0
 81154  1  0  0  0
 81155  1  0  0  0
 83156  1  0  0  0
M  ISO  4   1 100  68 101  81 101  83 100
M  END
> <chiral flag>
0

> <version>
0

> <s_m_source_file>
/data/baiqing/PycharmProjects/Reinvent-master-3.2/result/LINK_invent/BTK/process_docking_weight1_custom_product_contain_oxygen_bond_distance_aromatic_linkinvent_7_9_3/rearranged_h_0026.sdf

> <i_m_source_file_index>
46

> <r_mmod_Potential_Energy-OPLS-2005>
622.874694824219

> <r_mmod_Stretch_Energy-OPLS-2005>
220.299163818359

> <r_mmod_Bend_Energy-OPLS-2005>
321.941802978516

> <r_mmod_Torsional_Energy-OPLS-2005>
299.432006835938

> <r_mmod_Improper_Torsional_Energy-OPLS-2005>
8.7952995300293

> <r_mmod_Van_der_Waal_Energy-OPLS-2005>
134.621765136719

> <r_mmod_Electrostatic_Energy-OPLS-2005>
-293.443115234375

> <r_mmod_Solvation_Energy-OPLS-2005>
-229.559265136719

> <b_mmod_Minimization_Converged-OPLS-2005>
0

> <r_mmod_RMS_Derivative-OPLS-2005>
1.2444384098053

$$$$
46
                    3D
 Structure written by MMmdl.
162171  0  0  1  0            999 V2000
  -30.6351  -14.6570   20.4935 C   0  0  0  0  0  0
  -30.4396  -12.4049   19.4515 C   0  0  0  0  0  0
  -29.5072  -12.5069   18.2238 C   0  0  0  0  0  0
  -28.0311  -12.3406   18.6376 C   0  0  0  0  0  0
  -27.6488  -13.2174   19.8594 C   0  0  2  0  0  0
  -28.6989  -13.0951   20.9882 C   0  0  0  0  0  0
  -25.2439  -13.8036   20.5612 C   0  0  0  0  0  0
  -24.1770  -13.0320   20.9219 C   0  0  0  0  0  0
  -24.6396  -11.6826   20.8777 C   0  0  0  0  0  0
  -23.9072  -10.4228   21.0423 C   0  0  0  0  0  0
  -24.3619   -9.4151   21.9201 C   0  0  0  0  0  0
  -23.6283   -8.2199   22.0763 C   0  0  0  0  0  0
  -22.4265   -8.0255   21.3548 C   0  0  0  0  0  0
  -21.9907   -9.0229   20.4649 C   0  0  0  0  0  0
  -22.7248  -10.2096   20.3062 C   0  0  0  0  0  0
  -21.6841   -6.0725   22.5283 C   0  0  0  0  0  0
  -21.4004   -6.5633   23.8215 C   0  0  0  0  0  0
  -21.3656   -5.6788   24.9178 C   0  0  0  0  0  0
  -21.6042   -4.3052   24.7229 C   0  0  0  0  0  0
  -21.8821   -3.8141   23.4352 C   0  0  0  0  0  0
  -21.9189   -4.6955   22.3407 C   0  0  0  0  0  0
  -22.7798  -13.5139   21.1867 C   0  0  0  0  0  0
  -22.1660   -4.2143   21.0985 F   0  0  0  0  0  0
  -21.5629   -3.4538   25.7743 F   0  0  0  0  0  0
  -30.0136  -13.4354   20.4191 N   0  0  0  0  0  0
  -26.2955  -12.9302   20.3308 N   0  0  0  0  0  0
  -25.9336  -11.6457   20.5797 N   0  0  0  0  0  0
  -22.0442  -12.8160   22.0441 N   0  0  0  0  0  0
  -25.3866  -15.1703   20.3830 N   0  0  0  0  0  0
  -31.8092  -14.7994   20.1413 O   0  0  0  0  0  0
  -21.6621   -6.8862   21.4243 O   0  0  0  0  0  0
  -22.3498  -14.5458   20.6716 O   0  0  0  0  0  0
  -24.6250  -31.8604   23.2037 C   0  0  0  0  0  0
  -25.9104  -32.4782   23.8361 C   0  0  1  0  0  0
  -27.2318  -27.3337   20.1132 C   0  0  0  0  0  0
  -25.5928  -33.8582   24.2293 N   0  0  0  0  0  0
  -23.4179  -30.4845   21.5461 C   0  0  2  0  0  0
  -24.8650  -28.9417   20.1114 C   0  0  0  0  0  0
  -22.7467  -29.4627   22.4945 C   0  0  0  0  0  0
  -18.0283  -28.1375   22.8487 C   0  0  0  0  0  0
  -24.1490  -36.7293   23.2638 C   0  0  0  0  0  0
  -25.9582  -30.7963   21.3721 C   0  0  0  0  0  0
  -26.0333  -29.4253   20.7133 C   0  0  0  0  0  0
  -27.2186  -28.6339   20.7030 C   0  0  0  0  0  0
  -26.0370  -26.8985   19.4915 C   0  0  0  0  0  0
  -24.8686  -27.6829   19.4920 C   0  0  0  0  0  0
  -23.6313  -29.8190   20.1615 C   0  0  0  0  0  0
  -25.4110  -36.3087   24.0336 C   0  0  1  0  0  0
  -20.5883  -28.3678   23.1288 C   0  0  2  0  0  0
  -20.6772  -26.9402   22.5413 C   0  0  0  0  0  0
  -19.5751  -26.6376   21.5215 C   0  0  0  0  0  0
  -18.1928  -26.7921   22.1621 C   0  0  0  0  0  0
  -19.1535  -28.8842   23.2886 C   0  0  0  0  0  0
  -18.9459  -30.1445   23.8899 C   0  0  0  0  0  0
  -17.6461  -30.6579   24.0562 C   0  0  0  0  0  0
  -25.9046  -34.9457   23.5112 C   0  0  0  0  0  0
  -16.5352  -29.9079   23.6329 C   0  0  0  0  0  0
  -16.7271  -28.6495   23.0351 C   0  0  0  0  0  0
  -26.4493  -31.6584   25.0723 C   0  0  0  0  0  0
  -25.3740  -31.3718   26.1462 C   0  0  0  0  0  0
  -27.0326  -30.3011   24.6156 C   0  0  0  0  0  0
  -27.6058  -32.4311   25.7489 C   0  0  0  0  0  0
  -27.5584  -37.1793   24.8460 C   0  0  0  0  0  0
  -21.4180  -29.3042   22.3688 N   0  0  0  0  0  0
  -26.4288  -37.3784   23.9418 N   0  0  0  0  0  0
  -24.6859  -31.0631   22.0978 N   0  0  0  0  0  0
  -23.4195  -28.8166   23.3017 O   0  0  0  0  0  0
  -28.3631  -26.5039   20.1585 O   0  0  0  0  0  0
  -26.5611  -34.8921   22.4677 O   0  0  0  0  0  0
  -23.5420  -32.1391   23.7376 O   0  0  0  0  0  0
  -31.2173  -17.8588   20.8886 C   0  0  0  0  0  0
  -28.9631  -19.4434   20.3856 C   0  0  0  0  0  0
  -31.3088  -19.2860   20.8737 C   0  0  0  0  0  0
  -28.8694  -18.0200   20.4179 C   0  0  0  0  0  0
  -30.1768  -20.1316   20.6227 C   0  0  0  0  0  0
  -29.9937  -17.1790   20.6705 C   0  0  0  0  0  0
  -32.6689  -19.8922   21.1756 C   0  0  0  0  0  0
  -32.7347  -21.3786   20.8292 C   0  0  0  0  0  0
  -31.4668  -22.0935   21.2985 C   0  0  0  0  0  0
  -27.5112  -17.4049   20.1834 C   0  0  0  0  0  0
  -29.3751  -24.0768   20.3877 C   0  0  0  0  0  0
  -29.0994  -22.4990   20.4264 C   0  0  0  0  0  0
  -28.1597  -25.0424   20.0656 C   0  0  0  0  0  0
  -30.2724  -21.5769   20.6234 N   0  0  0  0  0  0
  -29.8198  -15.7241   20.7735 N   0  0  0  0  0  0
  -31.4797  -12.5313   19.1457 H   0  0  0  0  0  0
  -30.3787  -11.4133   19.9027 H   0  0  0  0  0  0
  -29.7746  -11.7510   17.4841 H   0  0  0  0  0  0
  -29.6443  -13.4733   17.7358 H   0  0  0  0  0  0
  -27.8736  -11.2881   18.8759 H   0  0  0  0  0  0
  -27.3751  -12.5610   17.7947 H   0  0  0  0  0  0
  -27.6559  -14.2479   19.5069 H   0  0  0  0  0  0
  -28.7153  -12.0805   21.3887 H   0  0  0  0  0  0
  -28.4447  -13.7436   21.8281 H   0  0  0  0  0  0
  -25.2764   -9.5622   22.4779 H   0  0  0  0  0  0
  -23.9982   -7.4585   22.7482 H   0  0  0  0  0  0
  -21.0837   -8.8758   19.8954 H   0  0  0  0  0  0
  -22.3723  -10.9643   19.6172 H   0  0  0  0  0  0
  -21.1995   -7.6141   23.9716 H   0  0  0  0  0  0
  -21.1475   -6.0520   25.9080 H   0  0  0  0  0  0
  -22.0605   -2.7604   23.2855 H   0  0  0  0  0  0
  -22.4052  -11.9821   22.4834 H   0  0  0  0  0  0
  -21.1069  -13.1204   22.2653 H   0  0  0  0  0  0
  -24.5900  -15.7936   20.4560 H   0  0  0  0  0  0
  -26.1914  -15.6041   19.9554 H   0  0  0  0  0  0
  -26.7170  -32.5451   23.1108 H   0  0  0  0  0  0
  -25.0098  -33.9733   25.0453 H   0  0  0  0  0  0
  -22.7119  -31.3052   21.4037 H   0  0  0  0  0  0
  -23.3761  -35.9618   23.3286 H   0  0  0  0  0  0
  -24.3594  -36.8925   22.2058 H   0  0  0  0  0  0
  -23.7229  -37.6487   23.6661 H   0  0  0  0  0  0
  -26.0885  -31.5610   20.6053 H   0  0  0  0  0  0
  -26.8395  -30.8437   22.0001 H   0  0  0  0  0  0
  -28.1150  -29.0036   21.1804 H   0  0  0  0  0  0
  -25.9772  -25.9382   19.0025 H   0  0  0  0  0  0
  -23.9734  -27.3066   19.0161 H   0  0  0  0  0  0
  -23.7467  -30.5951   19.4043 H   0  0  0  0  0  0
  -22.7521  -29.2464   19.8607 H   0  0  0  0  0  0
  -25.1287  -36.1942   25.0829 H   0  0  0  0  0  0
  -20.9974  -28.3246   24.1409 H   0  0  0  0  0  0
  -20.5670  -26.2288   23.3610 H   0  0  0  0  0  0
  -21.6640  -26.7427   22.1207 H   0  0  0  0  0  0
  -19.6915  -25.6290   21.1236 H   0  0  0  0  0  0
  -19.6691  -27.3190   20.6750 H   0  0  0  0  0  0
  -17.4201  -26.6675   21.4017 H   0  0  0  0  0  0
  -18.0320  -26.0057   22.9009 H   0  0  0  0  0  0
  -19.7940  -30.7259   24.2265 H   0  0  0  0  0  0
  -17.5019  -31.6261   24.5159 H   0  0  0  0  0  0
  -15.5352  -30.2984   23.7652 H   0  0  0  0  0  0
  -15.8670  -28.0815   22.7068 H   0  0  0  0  0  0
  -24.5921  -30.7052   25.7806 H   0  0  0  0  0  0
  -24.8923  -32.2882   26.4884 H   0  0  0  0  0  0
  -25.8084  -30.8909   27.0237 H   0  0  0  0  0  0
  -26.2884  -29.6770   24.1193 H   0  0  0  0  0  0
  -27.4051  -29.7255   25.4641 H   0  0  0  0  0  0
  -27.8746  -30.4308   23.9353 H   0  0  0  0  0  0
  -27.2676  -33.3619   26.2056 H   0  0  0  0  0  0
  -28.3873  -32.6855   25.0316 H   0  0  0  0  0  0
  -28.0717  -31.8440   26.5415 H   0  0  0  0  0  0
  -28.2578  -38.0113   24.7539 H   0  0  0  0  0  0
  -28.1103  -36.2645   24.6237 H   0  0  0  0  0  0
  -27.2312  -37.1386   25.8865 H   0  0  0  0  0  0
  -20.9349  -29.8784   21.6921 H   0  0  0  0  0  0
  -26.0170  -38.2856   24.1438 H   0  0  0  0  0  0
  -32.1057  -17.2833   21.1065 H   0  0  0  0  0  0
  -28.0660  -20.0132   20.1919 H   0  0  0  0  0  0
  -33.4503  -19.3477   20.6442 H   0  0  0  0  0  0
  -32.8606  -19.7586   22.2409 H   0  0  0  0  0  0
  -32.8385  -21.5033   19.7503 H   0  0  0  0  0  0
  -33.6214  -21.8284   21.2785 H   0  0  0  0  0  0
  -31.6046  -23.1564   21.1086 H   0  0  0  0  0  0
  -31.3472  -21.9859   22.3778 H   0  0  0  0  0  0
  -26.7729  -18.1457   19.8746 H   0  0  0  0  0  0
  -27.1639  -16.9497   21.1107 H   0  0  0  0  0  0
  -27.5703  -16.6510   19.3989 H   0  0  0  0  0  0
  -30.1599  -24.2809   19.6590 H   0  0  0  0  0  0
  -29.7723  -24.3815   21.3560 H   0  0  0  0  0  0
  -28.6183  -22.2201   19.4876 H   0  0  0  0  0  0
  -28.3674  -22.2916   21.2085 H   0  0  0  0  0  0
  -27.3412  -24.7721   20.7350 H   0  0  0  0  0  0
  -27.8287  -24.8037   19.0545 H   0  0  0  0  0  0
  -28.8732  -15.4338   20.9597 H   0  0  0  0  0  0
  1 25  1  0  0  0
  1 30  2  0  0  0
  1 85  1  0  0  0
  2  3  1  0  0  0
  2 25  1  0  0  0
  2 86  1  0  0  0
  2 87  1  0  0  0
  3  4  1  0  0  0
  3 88  1  0  0  0
  3 89  1  0  0  0
  4  5  1  0  0  0
  4 90  1  0  0  0
  4 91  1  0  0  0
  5  6  1  0  0  0
  5 26  1  0  0  0
  5 92  1  0  0  0
  6 25  1  0  0  0
  6 93  1  0  0  0
  6 94  1  0  0  0
  7  8  2  0  0  0
  7 26  1  0  0  0
  7 29  1  0  0  0
  8  9  1  0  0  0
  8 22  1  0  0  0
  9 10  1  0  0  0
  9 27  2  0  0  0
 10 11  2  0  0  0
 10 15  1  0  0  0
 11 12  1  0  0  0
 11 95  1  0  0  0
 12 13  2  0  0  0
 12 96  1  0  0  0
 13 14  1  0  0  0
 13 31  1  0  0  0
 14 15  2  0  0  0
 14 97  1  0  0  0
 15 98  1  0  0  0
 16 17  2  0  0  0
 16 21  1  0  0  0
 16 31  1  0  0  0
 17 18  1  0  0  0
 17 99  1  0  0  0
 18 19  2  0  0  0
 18100  1  0  0  0
 19 20  1  0  0  0
 19 24  1  0  0  0
 20 21  2  0  0  0
 20101  1  0  0  0
 21 23  1  0  0  0
 22 28  1  0  0  0
 22 32  2  0  0  0
 26 27  1  0  0  0
 28102  1  0  0  0
 28103  1  0  0  0
 29104  1  0  0  0
 29105  1  0  0  0
 33 34  1  0  0  0
 33 66  1  0  0  0
 33 70  2  0  0  0
 34 36  1  0  0  0
 34 59  1  0  0  0
 34106  1  0  0  0
 35 44  2  0  0  0
 35 45  1  0  0  0
 35 68  1  0  0  0
 36 56  1  0  0  0
 36107  1  0  0  0
 37 39  1  0  0  0
 37 47  1  0  0  0
 37 66  1  0  0  0
 37108  1  0  0  0
 38 43  2  0  0  0
 38 46  1  0  0  0
 38 47  1  0  0  0
 39 64  1  0  0  0
 39 67  2  0  0  0
 40 52  1  0  0  0
 40 53  2  0  0  0
 40 58  1  0  0  0
 41109  1  0  0  0
 41110  1  0  0  0
 41111  1  0  0  0
 41 48  1  0  0  0
 42 43  1  0  0  0
 42 66  1  0  0  0
 42112  1  0  0  0
 42113  1  0  0  0
 43 44  1  0  0  0
 44114  1  0  0  0
 45 46  2  0  0  0
 45115  1  0  0  0
 46116  1  0  0  0
 47117  1  0  0  0
 47118  1  0  0  0
 48 56  1  0  0  0
 48 65  1  0  0  0
 48119  1  0  0  0
 49 50  1  0  0  0
 49 53  1  0  0  0
 49 64  1  0  0  0
 49120  1  0  0  0
 50 51  1  0  0  0
 50121  1  0  0  0
 50122  1  0  0  0
 51 52  1  0  0  0
 51123  1  0  0  0
 51124  1  0  0  0
 52125  1  0  0  0
 52126  1  0  0  0
 53 54  1  0  0  0
 54 55  2  0  0  0
 54127  1  0  0  0
 55 57  1  0  0  0
 55128  1  0  0  0
 56 69  2  0  0  0
 57 58  2  0  0  0
 57129  1  0  0  0
 58130  1  0  0  0
 59 60  1  0  0  0
 59 61  1  0  0  0
 59 62  1  0  0  0
 60131  1  0  0  0
 60132  1  0  0  0
 60133  1  0  0  0
 61134  1  0  0  0
 61135  1  0  0  0
 61136  1  0  0  0
 62137  1  0  0  0
 62138  1  0  0  0
 62139  1  0  0  0
 63 65  1  0  0  0
 63140  1  0  0  0
 63141  1  0  0  0
 63142  1  0  0  0
 64143  1  0  0  0
 65144  1  0  0  0
 68 83  1  0  0  0
 71 73  2  0  0  0
 71 76  1  0  0  0
 71145  1  0  0  0
 72 74  1  0  0  0
 72 75  2  0  0  0
 72146  1  0  0  0
 73 75  1  0  0  0
 73 77  1  0  0  0
 74 76  2  0  0  0
 74 80  1  0  0  0
 75 84  1  0  0  0
 76 85  1  0  0  0
 77 78  1  0  0  0
 77147  1  0  0  0
 77148  1  0  0  0
 78 79  1  0  0  0
 78149  1  0  0  0
 78150  1  0  0  0
 79 84  1  0  0  0
 79151  1  0  0  0
 79152  1  0  0  0
 80153  1  0  0  0
 80154  1  0  0  0
 80155  1  0  0  0
 81 82  1  0  0  0
 81 83  1  0  0  0
 81156  1  0  0  0
 81157  1  0  0  0
 82 84  1  0  0  0
 82158  1  0  0  0
 82159  1  0  0  0
 83160  1  0  0  0
 83161  1  0  0  0
 85162  1  0  0  0
M  ISO  4   1 100  68 101  83 101  85 100
M  END
> <chiral flag>
0

> <version>
0

> <s_m_source_file>
/data/baiqing/PycharmProjects/Reinvent-master-3.2/result/LINK_invent/BTK/process_docking_weight1_custom_product_contain_oxygen_bond_distance_aromatic_linkinvent_7_9_3/rearranged_h_0026.sdf

> <i_m_source_file_index>
47

> <r_mmod_Potential_Energy-OPLS-2005>
19.2383708953857

> <r_mmod_Stretch_Energy-OPLS-2005>
82.144660949707

> <r_mmod_Bend_Energy-OPLS-2005>
142.252059936523

> <r_mmod_Torsional_Energy-OPLS-2005>
217.326034545898

> <r_mmod_Improper_Torsional_Energy-OPLS-2005>
6.77196931838989

> <r_mmod_Van_der_Waal_Energy-OPLS-2005>
158.959945678711

> <r_mmod_Electrostatic_Energy-OPLS-2005>
-410.803009033203

> <r_mmod_Solvation_Energy-OPLS-2005>
-226.077926635742

> <b_mmod_Minimization_Converged-OPLS-2005>
0

> <r_mmod_RMS_Derivative-OPLS-2005>
0.607882142066956

$$$$
47
                    3D
 Structure written by MMmdl.
158167  0  0  1  0            999 V2000
  -30.6207  -14.7381   20.4601 C   0  0  0  0  0  0
  -30.4330  -12.4467   19.4805 C   0  0  0  0  0  0
  -29.5125  -12.4924   18.2423 C   0  0  0  0  0  0
  -28.0407  -12.3131   18.6588 C   0  0  0  0  0  0
  -27.6406  -13.2265   19.8480 C   0  0  2  0  0  0
  -28.6839  -13.1751   20.9857 C   0  0  0  0  0  0
  -25.2517  -13.8192   20.5703 C   0  0  0  0  0  0
  -24.1803  -13.0442   20.9221 C   0  0  0  0  0  0
  -24.6382  -11.6917   20.8757 C   0  0  0  0  0  0
  -23.9053  -10.4296   21.0410 C   0  0  0  0  0  0
  -24.3606   -9.4213   21.9188 C   0  0  0  0  0  0
  -23.6294   -8.2241   22.0752 C   0  0  0  0  0  0
  -22.4277   -8.0269   21.3547 C   0  0  0  0  0  0
  -21.9897   -9.0239   20.4650 C   0  0  0  0  0  0
  -22.7216  -10.2133   20.3066 C   0  0  0  0  0  0
  -21.6854   -6.0729   22.5280 C   0  0  0  0  0  0
  -21.4007   -6.5636   23.8209 C   0  0  0  0  0  0
  -21.3672   -5.6796   24.9178 C   0  0  0  0  0  0
  -21.6047   -4.3058   24.7229 C   0  0  0  0  0  0
  -21.8818   -3.8144   23.4352 C   0  0  0  0  0  0
  -21.9194   -4.6958   22.3406 C   0  0  0  0  0  0
  -22.7830  -13.5229   21.1881 C   0  0  0  0  0  0
  -22.1661   -4.2139   21.0983 F   0  0  0  0  0  0
  -21.5648   -3.4541   25.7748 F   0  0  0  0  0  0
  -29.9862  -13.5176   20.4009 N   0  0  0  0  0  0
  -26.2927  -12.9385   20.3278 N   0  0  0  0  0  0
  -25.9311  -11.6534   20.5753 N   0  0  0  0  0  0
  -22.0468  -12.8225   22.0440 N   0  0  0  0  0  0
  -25.4235  -15.1909   20.4105 N   0  0  0  0  0  0
  -31.8137  -14.8100   20.1526 O   0  0  0  0  0  0
  -21.6644   -6.8861   21.4240 O   0  0  0  0  0  0
  -22.3512  -14.5532   20.6733 O   0  0  0  0  0  0
  -24.6312  -31.8558   23.1992 C   0  0  0  0  0  0
  -25.9130  -32.4754   23.8345 C   0  0  1  0  0  0
  -27.2125  -27.2590   20.1350 C   0  0  0  0  0  0
  -25.5923  -33.8560   24.2264 N   0  0  0  0  0  0
  -23.4276  -30.4790   21.5422 C   0  0  2  0  0  0
  -24.8753  -28.9252   20.1107 C   0  0  0  0  0  0
  -22.7498  -29.4613   22.4911 C   0  0  0  0  0  0
  -18.0292  -28.1390   22.8487 C   0  0  0  0  0  0
  -24.1488  -36.7288   23.2640 C   0  0  0  0  0  0
  -25.9744  -30.7663   21.3816 C   0  0  0  0  0  0
  -26.0477  -29.3886   20.7240 C   0  0  0  0  0  0
  -27.2224  -28.5677   20.7249 C   0  0  0  0  0  0
  -26.0249  -26.8702   19.4818 C   0  0  0  0  0  0
  -24.8691  -27.6725   19.4790 C   0  0  0  0  0  0
  -23.6467  -29.8128   20.1589 C   0  0  0  0  0  0
  -25.4113  -36.3069   24.0330 C   0  0  1  0  0  0
  -20.5893  -28.3702   23.1262 C   0  0  2  0  0  0
  -20.6779  -26.9420   22.5397 C   0  0  0  0  0  0
  -19.5754  -26.6383   21.5207 C   0  0  0  0  0  0
  -18.1939  -26.7929   22.1627 C   0  0  0  0  0  0
  -19.1546  -28.8864   23.2868 C   0  0  0  0  0  0
  -18.9470  -30.1465   23.8885 C   0  0  0  0  0  0
  -17.6470  -30.6592   24.0561 C   0  0  0  0  0  0
  -25.9059  -34.9436   23.5104 C   0  0  0  0  0  0
  -16.5361  -29.9089   23.6333 C   0  0  0  0  0  0
  -16.7280  -28.6505   23.0359 C   0  0  0  0  0  0
  -26.4487  -31.6581   25.0738 C   0  0  0  0  0  0
  -25.3718  -31.3750   26.1471 C   0  0  0  0  0  0
  -27.0333  -30.2987   24.6252 C   0  0  0  0  0  0
  -27.6048  -32.4314   25.7503 C   0  0  0  0  0  0
  -27.5576  -37.1799   24.8462 C   0  0  0  0  0  0
  -21.4205  -29.3049   22.3647 N   0  0  0  0  0  0
  -26.4288  -37.3764   23.9401 N   0  0  0  0  0  0
  -24.6966  -31.0521   22.0965 N   0  0  0  0  0  0
  -23.4193  -28.8157   23.3014 O   0  0  0  0  0  0
  -28.2862  -26.3401   20.1632 O   0  0  0  0  0  0
  -26.5633  -34.8912   22.4674 O   0  0  0  0  0  0
  -23.5462  -32.1384   23.7283 O   0  0  0  0  0  0
  -31.5224  -17.7045   21.0530 C   0  0  0  0  0  0
  -31.9172  -19.0580   21.1081 C   0  0  0  0  0  0
  -29.3178  -18.4297   20.3491 C   0  0  0  0  0  0
  -29.7018  -19.8379   20.3942 C   0  0  0  0  0  0
  -30.2186  -17.3257   20.6576 C   0  0  0  0  0  0
  -31.0349  -20.1043   20.7730 C   0  0  0  0  0  0
  -28.5893  -23.6660   19.9218 C   0  0  0  0  0  0
  -28.0199  -23.4987   22.7540 C   0  0  0  0  0  0
  -28.3486  -24.8874   22.1853 C   0  0  0  0  0  0
  -28.8248  -22.3929   22.0477 C   0  0  0  0  0  0
  -28.0045  -24.9524   20.6914 C   0  0  1  0  0  0
  -28.7696  -21.0494   19.9255 C   0  0  0  0  0  0
  -28.7546  -22.4403   20.5783 N   0  0  0  0  0  0
  -29.8455  -15.8834   20.6246 N   0  0  0  0  0  0
  -28.7657  -23.7588   18.7029 O   0  0  0  0  0  0
  -31.4960  -21.3772   20.7933 F   0  0  0  0  0  0
  -31.4741  -12.5666   19.1766 H   0  0  0  0  0  0
  -30.3760  -11.4738   19.9730 H   0  0  0  0  0  0
  -29.7957  -11.7145   17.5321 H   0  0  0  0  0  0
  -29.6386  -13.4446   17.7248 H   0  0  0  0  0  0
  -27.9108  -11.2685   18.9418 H   0  0  0  0  0  0
  -27.3785  -12.4781   17.8087 H   0  0  0  0  0  0
  -27.6323  -14.2433   19.4548 H   0  0  0  0  0  0
  -28.7172  -12.1831   21.4392 H   0  0  0  0  0  0
  -28.4166  -13.8680   21.7862 H   0  0  0  0  0  0
  -25.2755   -9.5707   22.4753 H   0  0  0  0  0  0
  -24.0021   -7.4631   22.7463 H   0  0  0  0  0  0
  -21.0831   -8.8753   19.8941 H   0  0  0  0  0  0
  -22.3668  -10.9671   19.6177 H   0  0  0  0  0  0
  -21.1978   -7.6136   23.9708 H   0  0  0  0  0  0
  -21.1503   -6.0531   25.9086 H   0  0  0  0  0  0
  -22.0582   -2.7602   23.2863 H   0  0  0  0  0  0
  -22.4097  -11.9893   22.4830 H   0  0  0  0  0  0
  -21.1089  -13.1254   22.2637 H   0  0  0  0  0  0
  -24.6605  -15.8496   20.5252 H   0  0  0  0  0  0
  -26.2659  -15.6246   20.0579 H   0  0  0  0  0  0
  -26.7194  -32.5396   23.1089 H   0  0  0  0  0  0
  -25.0044  -33.9694   25.0390 H   0  0  0  0  0  0
  -22.7248  -31.3018   21.3957 H   0  0  0  0  0  0
  -23.3731  -35.9644   23.3342 H   0  0  0  0  0  0
  -24.3568  -36.8865   22.2044 H   0  0  0  0  0  0
  -23.7274  -37.6519   23.6634 H   0  0  0  0  0  0
  -26.1178  -31.5277   20.6139 H   0  0  0  0  0  0
  -26.8492  -30.8137   22.0176 H   0  0  0  0  0  0
  -28.1179  -28.9163   21.2200 H   0  0  0  0  0  0
  -25.9785  -25.9151   18.9788 H   0  0  0  0  0  0
  -23.9744  -27.3140   18.9893 H   0  0  0  0  0  0
  -23.7729  -30.5892   19.4043 H   0  0  0  0  0  0
  -22.7645  -29.2486   19.8513 H   0  0  0  0  0  0
  -25.1294  -36.1927   25.0824 H   0  0  0  0  0  0
  -20.9993  -28.3286   24.1382 H   0  0  0  0  0  0
  -20.5692  -26.2317   23.3608 H   0  0  0  0  0  0
  -21.6651  -26.7452   22.1191 H   0  0  0  0  0  0
  -19.6921  -25.6293   21.1249 H   0  0  0  0  0  0
  -19.6688  -27.3185   20.6734 H   0  0  0  0  0  0
  -17.4201  -26.6666   21.4037 H   0  0  0  0  0  0
  -18.0353  -26.0075   22.9034 H   0  0  0  0  0  0
  -19.7951  -30.7280   24.2249 H   0  0  0  0  0  0
  -17.5032  -31.6277   24.5161 H   0  0  0  0  0  0
  -15.5369  -30.2993   23.7664 H   0  0  0  0  0  0
  -15.8678  -28.0821   22.7087 H   0  0  0  0  0  0
  -24.5870  -30.7122   25.7804 H   0  0  0  0  0  0
  -24.8945  -32.2938   26.4898 H   0  0  0  0  0  0
  -25.8040  -30.8921   27.0250 H   0  0  0  0  0  0
  -26.2937  -29.6738   24.1241 H   0  0  0  0  0  0
  -27.3945  -29.7244   25.4794 H   0  0  0  0  0  0
  -27.8840  -30.4225   23.9550 H   0  0  0  0  0  0
  -27.2654  -33.3597   26.2111 H   0  0  0  0  0  0
  -28.3846  -32.6911   25.0330 H   0  0  0  0  0  0
  -28.0744  -31.8436   26.5401 H   0  0  0  0  0  0
  -28.2602  -38.0088   24.7490 H   0  0  0  0  0  0
  -28.1067  -36.2620   24.6310 H   0  0  0  0  0  0
  -27.2298  -37.1475   25.8867 H   0  0  0  0  0  0
  -20.9394  -29.8762   21.6841 H   0  0  0  0  0  0
  -26.0176  -38.2844   24.1388 H   0  0  0  0  0  0
  -32.2539  -16.9594   21.3266 H   0  0  0  0  0  0
  -32.9289  -19.3008   21.3979 H   0  0  0  0  0  0
  -28.3098  -18.1958   20.0396 H   0  0  0  0  0  0
  -26.9528  -23.2990   22.6423 H   0  0  0  0  0  0
  -28.2223  -23.4723   23.8260 H   0  0  0  0  0  0
  -29.4033  -25.1202   22.3368 H   0  0  0  0  0  0
  -27.7819  -25.6440   22.7277 H   0  0  0  0  0  0
  -28.4855  -21.4208   22.4092 H   0  0  0  0  0  0
  -29.8719  -22.4765   22.3395 H   0  0  0  0  0  0
  -26.9299  -24.7776   20.6441 H   0  0  0  0  0  0
  -27.7424  -20.6854   19.9632 H   0  0  0  0  0  0
  -28.9736  -21.1814   18.8632 H   0  0  0  0  0  0
  -28.8584  -15.6945   20.7046 H   0  0  0  0  0  0
  1 25  1  0  0  0
  1 30  2  0  0  0
  1 84  1  0  0  0
  2  3  1  0  0  0
  2 25  1  0  0  0
  2 87  1  0  0  0
  2 88  1  0  0  0
  3  4  1  0  0  0
  3 89  1  0  0  0
  3 90  1  0  0  0
  4  5  1  0  0  0
  4 91  1  0  0  0
  4 92  1  0  0  0
  5  6  1  0  0  0
  5 26  1  0  0  0
  5 93  1  0  0  0
  6 25  1  0  0  0
  6 94  1  0  0  0
  6 95  1  0  0  0
  7  8  2  0  0  0
  7 26  1  0  0  0
  7 29  1  0  0  0
  8  9  1  0  0  0
  8 22  1  0  0  0
  9 10  1  0  0  0
  9 27  2  0  0  0
 10 11  2  0  0  0
 10 15  1  0  0  0
 11 12  1  0  0  0
 11 96  1  0  0  0
 12 13  2  0  0  0
 12 97  1  0  0  0
 13 14  1  0  0  0
 13 31  1  0  0  0
 14 15  2  0  0  0
 14 98  1  0  0  0
 15 99  1  0  0  0
 16 17  2  0  0  0
 16 21  1  0  0  0
 16 31  1  0  0  0
 17 18  1  0  0  0
 17100  1  0  0  0
 18 19  2  0  0  0
 18101  1  0  0  0
 19 20  1  0  0  0
 19 24  1  0  0  0
 20 21  2  0  0  0
 20102  1  0  0  0
 21 23  1  0  0  0
 22 28  1  0  0  0
 22 32  2  0  0  0
 26 27  1  0  0  0
 28103  1  0  0  0
 28104  1  0  0  0
 29105  1  0  0  0
 29106  1  0  0  0
 33 34  1  0  0  0
 33 66  1  0  0  0
 33 70  2  0  0  0
 34 36  1  0  0  0
 34 59  1  0  0  0
 34107  1  0  0  0
 35 44  2  0  0  0
 35 45  1  0  0  0
 35 68  1  0  0  0
 36 56  1  0  0  0
 36108  1  0  0  0
 37 39  1  0  0  0
 37 47  1  0  0  0
 37 66  1  0  0  0
 37109  1  0  0  0
 38 43  2  0  0  0
 38 46  1  0  0  0
 38 47  1  0  0  0
 39 64  1  0  0  0
 39 67  2  0  0  0
 40 52  1  0  0  0
 40 53  2  0  0  0
 40 58  1  0  0  0
 41110  1  0  0  0
 41111  1  0  0  0
 41112  1  0  0  0
 41 48  1  0  0  0
 42 43  1  0  0  0
 42 66  1  0  0  0
 42113  1  0  0  0
 42114  1  0  0  0
 43 44  1  0  0  0
 44115  1  0  0  0
 45 46  2  0  0  0
 45116  1  0  0  0
 46117  1  0  0  0
 47118  1  0  0  0
 47119  1  0  0  0
 48 56  1  0  0  0
 48 65  1  0  0  0
 48120  1  0  0  0
 49 50  1  0  0  0
 49 53  1  0  0  0
 49 64  1  0  0  0
 49121  1  0  0  0
 50 51  1  0  0  0
 50122  1  0  0  0
 50123  1  0  0  0
 51 52  1  0  0  0
 51124  1  0  0  0
 51125  1  0  0  0
 52126  1  0  0  0
 52127  1  0  0  0
 53 54  1  0  0  0
 54 55  2  0  0  0
 54128  1  0  0  0
 55 57  1  0  0  0
 55129  1  0  0  0
 56 69  2  0  0  0
 57 58  2  0  0  0
 57130  1  0  0  0
 58131  1  0  0  0
 59 60  1  0  0  0
 59 61  1  0  0  0
 59 62  1  0  0  0
 60132  1  0  0  0
 60133  1  0  0  0
 60134  1  0  0  0
 61135  1  0  0  0
 61136  1  0  0  0
 61137  1  0  0  0
 62138  1  0  0  0
 62139  1  0  0  0
 62140  1  0  0  0
 63 65  1  0  0  0
 63141  1  0  0  0
 63142  1  0  0  0
 63143  1  0  0  0
 64144  1  0  0  0
 65145  1  0  0  0
 68 81  1  0  0  0
 71 72  2  0  0  0
 71 75  1  0  0  0
 71146  1  0  0  0
 72 76  1  0  0  0
 72147  1  0  0  0
 73 74  1  0  0  0
 73 75  2  0  0  0
 73148  1  0  0  0
 74 76  2  0  0  0
 74 82  1  0  0  0
 75 84  1  0  0  0
 76 86  1  0  0  0
 77 81  1  0  0  0
 77 83  1  0  0  0
 77 85  2  0  0  0
 78 79  1  0  0  0
 78 80  1  0  0  0
 78149  1  0  0  0
 78150  1  0  0  0
 79 81  1  0  0  0
 79151  1  0  0  0
 79152  1  0  0  0
 80 83  1  0  0  0
 80153  1  0  0  0
 80154  1  0  0  0
 81155  1  0  0  0
 82 83  1  0  0  0
 82156  1  0  0  0
 82157  1  0  0  0
 84158  1  0  0  0
M  ISO  4   1 100  68 101  81 101  84 100
M  END
> <chiral flag>
0

> <version>
0

> <s_m_source_file>
/data/baiqing/PycharmProjects/Reinvent-master-3.2/result/LINK_invent/BTK/process_docking_weight1_custom_product_contain_oxygen_bond_distance_aromatic_linkinvent_7_9_3/rearranged_h_0026.sdf

> <i_m_source_file_index>
48

> <r_mmod_Potential_Energy-OPLS-2005>
215.656936645508

> <r_mmod_Stretch_Energy-OPLS-2005>
129.491241455078

> <r_mmod_Bend_Energy-OPLS-2005>
157.750137329102

> <r_mmod_Torsional_Energy-OPLS-2005>
256.628570556641

> <r_mmod_Improper_Torsional_Energy-OPLS-2005>
7.29631090164185

> <r_mmod_Van_der_Waal_Energy-OPLS-2005>
146.152481079102

> <r_mmod_Electrostatic_Energy-OPLS-2005>
-340.001770019531

> <r_mmod_Solvation_Energy-OPLS-2005>
-228.717788696289

> <b_mmod_Minimization_Converged-OPLS-2005>
0

> <r_mmod_RMS_Derivative-OPLS-2005>
1.89205372333527

$$$$
48
                    3D
 Structure written by MMmdl.
171179  0  0  1  0            999 V2000
  -30.6928  -14.5211   20.5470 C   0  0  0  0  0  0
  -30.4317  -12.3333   19.4330 C   0  0  0  0  0  0
  -29.5035  -12.4988   18.2097 C   0  0  0  0  0  0
  -28.0223  -12.3608   18.6183 C   0  0  0  0  0  0
  -27.6619  -13.2090   19.8678 C   0  0  2  0  0  0
  -28.7074  -13.0297   20.9934 C   0  0  0  0  0  0
  -25.2577  -13.8154   20.5585 C   0  0  0  0  0  0
  -24.1855  -13.0420   20.9202 C   0  0  0  0  0  0
  -24.6433  -11.6910   20.8773 C   0  0  0  0  0  0
  -23.9078  -10.4300   21.0439 C   0  0  0  0  0  0
  -24.3618   -9.4225   21.9220 C   0  0  0  0  0  0
  -23.6305   -8.2259   22.0774 C   0  0  0  0  0  0
  -22.4284   -8.0306   21.3558 C   0  0  0  0  0  0
  -21.9924   -9.0296   20.4672 C   0  0  0  0  0  0
  -22.7250  -10.2168   20.3099 C   0  0  0  0  0  0
  -21.6860   -6.0780   22.5295 C   0  0  0  0  0  0
  -21.4032   -6.5696   23.8240 C   0  0  0  0  0  0
  -21.3632   -5.6826   24.9188 C   0  0  0  0  0  0
  -21.6017   -4.3096   24.7211 C   0  0  0  0  0  0
  -21.8817   -3.8194   23.4339 C   0  0  0  0  0  0
  -21.9204   -4.7011   22.3403 C   0  0  0  0  0  0
  -22.7895  -13.5262   21.1836 C   0  0  0  0  0  0
  -22.1669   -4.2226   21.0972 F   0  0  0  0  0  0
  -21.5588   -3.4564   25.7712 F   0  0  0  0  0  0
  -30.0305  -13.3387   20.4272 N   0  0  0  0  0  0
  -26.3045  -12.9336   20.3354 N   0  0  0  0  0  0
  -25.9359  -11.6504   20.5804 N   0  0  0  0  0  0
  -22.0509  -12.8252   22.0375 N   0  0  0  0  0  0
  -25.4224  -15.1837   20.3798 N   0  0  0  0  0  0
  -31.8476  -14.6801   20.1421 O   0  0  0  0  0  0
  -21.6639   -6.8900   21.4258 O   0  0  0  0  0  0
  -22.3609  -14.5590   20.6714 O   0  0  0  0  0  0
  -24.6143  -31.8715   23.2046 C   0  0  0  0  0  0
  -25.9085  -32.4796   23.8321 C   0  0  1  0  0  0
  -27.2462  -27.4370   20.0904 C   0  0  0  0  0  0
  -25.5978  -33.8594   24.2279 N   0  0  0  0  0  0
  -23.4020  -30.4901   21.5493 C   0  0  2  0  0  0
  -24.8458  -28.9466   20.1199 C   0  0  0  0  0  0
  -22.7393  -29.4731   22.5019 C   0  0  0  0  0  0
  -18.0295  -28.1402   22.8487 C   0  0  0  0  0  0
  -24.1496  -36.7263   23.2642 C   0  0  0  0  0  0
  -25.9283  -30.8301   21.3608 C   0  0  0  0  0  0
  -26.0056  -29.4634   20.7102 C   0  0  0  0  0  0
  -27.2085  -28.7174   20.6900 C   0  0  0  0  0  0
  -26.0656  -26.9295   19.5076 C   0  0  0  0  0  0
  -24.8702  -27.6792   19.5176 C   0  0  0  0  0  0
  -23.6027  -29.8105   20.1692 C   0  0  0  0  0  0
  -25.4111  -36.3053   24.0334 C   0  0  1  0  0  0
  -20.5881  -28.3701   23.1368 C   0  0  2  0  0  0
  -20.6869  -26.9437   22.5476 C   0  0  0  0  0  0
  -19.5847  -26.6359   21.5270 C   0  0  0  0  0  0
  -18.2020  -26.7934   22.1643 C   0  0  0  0  0  0
  -19.1531  -28.8867   23.2911 C   0  0  0  0  0  0
  -18.9462  -30.1489   23.8889 C   0  0  0  0  0  0
  -17.6453  -30.6624   24.0544 C   0  0  0  0  0  0
  -25.9075  -34.9460   23.5075 C   0  0  0  0  0  0
  -16.5353  -29.9088   23.6362 C   0  0  0  0  0  0
  -16.7291  -28.6495   23.0360 C   0  0  0  0  0  0
  -26.4531  -31.6556   25.0654 C   0  0  0  0  0  0
  -25.3836  -31.3685   26.1420 C   0  0  0  0  0  0
  -27.0390  -30.2981   24.6091 C   0  0  0  0  0  0
  -27.6079  -32.4267   25.7446 C   0  0  0  0  0  0
  -27.5556  -37.1775   24.8470 C   0  0  0  0  0  0
  -21.4128  -29.3097   22.3743 N   0  0  0  0  0  0
  -26.4274  -37.3749   23.9419 N   0  0  0  0  0  0
  -24.6635  -31.0808   22.0945 N   0  0  0  0  0  0
  -23.4175  -28.8292   23.3066 O   0  0  0  0  0  0
  -28.4297  -26.7342   20.0041 O   0  0  0  0  0  0
  -26.5605  -34.8924   22.4617 O   0  0  0  0  0  0
  -23.5356  -32.1542   23.7468 O   0  0  0  0  0  0
  -27.3647  -20.0474   20.4575 C   0  0  0  0  0  0
  -27.0019  -18.8796   21.1441 C   0  0  0  0  0  0
  -29.6783  -19.3100   20.4642 C   0  0  0  0  0  0
  -28.7203  -20.3393   20.2321 C   0  0  0  0  0  0
  -27.9711  -17.9213   21.5099 C   0  0  0  0  0  0
  -29.3103  -18.0579   21.0410 C   0  0  0  0  0  0
  -26.9666  -16.5719   24.9314 C   0  0  0  0  0  0
  -28.7629  -18.1256   24.3060 C   0  0  0  0  0  0
  -27.9686  -22.7399   21.7427 C   0  0  0  0  0  0
  -30.3918  -16.9564   21.2005 C   0  0  0  0  0  0
  -29.0906  -21.7377   19.6856 C   0  0  0  0  0  0
  -27.5225  -16.8958   22.5510 C   0  0  0  0  0  0
  -28.6116  -24.2173   19.8399 C   0  0  0  0  0  0
  -28.5112  -25.4964   20.7284 C   0  0  0  0  0  0
  -29.9534  -15.5606   20.9842 N   0  0  0  0  0  0
  -27.4772  -17.5056   23.9028 N   0  3  0  0  0  0
  -28.8868  -22.9377   20.5883 N   0  3  1  0  0  0
  -31.4765  -12.4365   19.1315 H   0  0  0  0  0  0
  -30.3416  -11.3329   19.8617 H   0  0  0  0  0  0
  -29.7534  -11.7680   17.4375 H   0  0  0  0  0  0
  -29.6622  -13.4838   17.7656 H   0  0  0  0  0  0
  -27.8255  -11.3063   18.8079 H   0  0  0  0  0  0
  -27.3851  -12.6402   17.7805 H   0  0  0  0  0  0
  -27.6911  -14.2517   19.5498 H   0  0  0  0  0  0
  -28.7036  -12.0055   21.3759 H   0  0  0  0  0  0
  -28.4684  -13.6594   21.8515 H   0  0  0  0  0  0
  -25.2752   -9.5721   22.4795 H   0  0  0  0  0  0
  -24.0034   -7.4660   22.7486 H   0  0  0  0  0  0
  -21.0860   -8.8815   19.8988 H   0  0  0  0  0  0
  -22.3721  -10.9711   19.6221 H   0  0  0  0  0  0
  -21.2063   -7.6223   23.9759 H   0  0  0  0  0  0
  -21.1420   -6.0562   25.9085 H   0  0  0  0  0  0
  -22.0612   -2.7671   23.2813 H   0  0  0  0  0  0
  -22.4089  -11.9881   22.4721 H   0  0  0  0  0  0
  -21.1188  -13.1399   22.2627 H   0  0  0  0  0  0
  -24.6150  -15.7970   20.4071 H   0  0  0  0  0  0
  -26.1962  -15.5761   19.8602 H   0  0  0  0  0  0
  -26.7165  -32.5442   23.1073 H   0  0  0  0  0  0
  -25.0170  -33.9785   25.0446 H   0  0  0  0  0  0
  -22.6998  -31.3129   21.4081 H   0  0  0  0  0  0
  -23.3732  -35.9619   23.3311 H   0  0  0  0  0  0
  -24.3605  -36.8865   22.2059 H   0  0  0  0  0  0
  -23.7306  -37.6496   23.6640 H   0  0  0  0  0  0
  -26.0658  -31.6023   20.5987 H   0  0  0  0  0  0
  -26.8033  -30.8614   21.9967 H   0  0  0  0  0  0
  -28.1019  -29.1260   21.1394 H   0  0  0  0  0  0
  -26.0717  -25.9696   19.0180 H   0  0  0  0  0  0
  -23.9788  -27.2885   19.0483 H   0  0  0  0  0  0
  -23.6858  -30.5743   19.3949 H   0  0  0  0  0  0
  -22.7256  -29.2207   19.8921 H   0  0  0  0  0  0
  -25.1283  -36.1893   25.0830 H   0  0  0  0  0  0
  -20.9945  -28.3303   24.1488 H   0  0  0  0  0  0
  -20.5877  -26.2256   23.3646 H   0  0  0  0  0  0
  -21.6739  -26.7583   22.1238 H   0  0  0  0  0  0
  -19.6974  -25.6235   21.1397 H   0  0  0  0  0  0
  -19.6825  -27.3117   20.6744 H   0  0  0  0  0  0
  -17.4309  -26.6671   21.4030 H   0  0  0  0  0  0
  -18.0371  -26.0056   22.9006 H   0  0  0  0  0  0
  -19.7907  -30.7361   24.2196 H   0  0  0  0  0  0
  -17.4982  -31.6347   24.5054 H   0  0  0  0  0  0
  -15.5355  -30.2970   23.7789 H   0  0  0  0  0  0
  -15.8673  -28.0861   22.7049 H   0  0  0  0  0  0
  -24.5943  -30.7107   25.7761 H   0  0  0  0  0  0
  -24.9164  -32.2898   26.4903 H   0  0  0  0  0  0
  -25.8244  -30.8812   27.0135 H   0  0  0  0  0  0
  -26.2980  -29.6655   24.1204 H   0  0  0  0  0  0
  -27.4201  -29.7297   25.4584 H   0  0  0  0  0  0
  -27.8772  -30.4226   23.9224 H   0  0  0  0  0  0
  -27.2635  -33.3489   26.2117 H   0  0  0  0  0  0
  -28.3856  -32.6957   25.0280 H   0  0  0  0  0  0
  -28.0778  -31.8355   26.5315 H   0  0  0  0  0  0
  -28.2589  -38.0054   24.7443 H   0  0  0  0  0  0
  -28.1050  -36.2584   24.6339 H   0  0  0  0  0  0
  -27.2289  -37.1444   25.8886 H   0  0  0  0  0  0
  -20.9299  -29.8697   21.6836 H   0  0  0  0  0  0
  -26.0135  -38.2826   24.1382 H   0  0  0  0  0  0
  -26.6033  -20.7716   20.2033 H   0  0  0  0  0  0
  -25.9688  -18.7619   21.4455 H   0  0  0  0  0  0
  -30.7117  -19.4816   20.1919 H   0  0  0  0  0  0
  -26.8423  -17.0886   25.8834 H   0  0  0  0  0  0
  -27.6517  -15.7363   25.0852 H   0  0  0  0  0  0
  -25.9986  -16.1595   24.6459 H   0  0  0  0  0  0
  -28.6935  -18.5794   25.2937 H   0  0  0  0  0  0
  -29.0627  -18.9171   23.6169 H   0  0  0  0  0  0
  -29.5468  -17.3689   24.3192 H   0  0  0  0  0  0
  -28.0572  -23.5519   22.4573 H   0  0  0  0  0  0
  -28.2428  -21.8568   22.3222 H   0  0  0  0  0  0
  -26.9231  -22.6829   21.4297 H   0  0  0  0  0  0
  -30.8254  -17.0221   22.1988 H   0  0  0  0  0  0
  -31.2119  -17.1843   20.5152 H   0  0  0  0  0  0
  -28.5209  -21.8732   18.7637 H   0  0  0  0  0  0
  -30.1401  -21.7339   19.3949 H   0  0  0  0  0  0
  -26.5165  -16.5707   22.2975 H   0  0  0  0  0  0
  -28.1392  -16.0036   22.5847 H   0  0  0  0  0  0
  -29.4171  -24.3581   19.1152 H   0  0  0  0  0  0
  -27.6806  -24.1267   19.2811 H   0  0  0  0  0  0
  -29.4102  -25.5675   21.3395 H   0  0  0  0  0  0
  -27.6674  -25.4311   21.4169 H   0  0  0  0  0  0
  -28.9862  -15.3567   21.1711 H   0  0  0  0  0  0
  -26.8029  -18.2567   23.8591 H   0  0  0  0  0  0
  -29.7892  -23.0592   21.0246 H   0  0  0  0  0  0
  1 25  1  0  0  0
  1 30  2  0  0  0
  1 85  1  0  0  0
  2  3  1  0  0  0
  2 25  1  0  0  0
  2 88  1  0  0  0
  2 89  1  0  0  0
  3  4  1  0  0  0
  3 90  1  0  0  0
  3 91  1  0  0  0
  4  5  1  0  0  0
  4 92  1  0  0  0
  4 93  1  0  0  0
  5  6  1  0  0  0
  5 26  1  0  0  0
  5 94  1  0  0  0
  6 25  1  0  0  0
  6 95  1  0  0  0
  6 96  1  0  0  0
  7  8  2  0  0  0
  7 26  1  0  0  0
  7 29  1  0  0  0
  8  9  1  0  0  0
  8 22  1  0  0  0
  9 10  1  0  0  0
  9 27  2  0  0  0
 10 11  2  0  0  0
 10 15  1  0  0  0
 11 12  1  0  0  0
 11 97  1  0  0  0
 12 13  2  0  0  0
 12 98  1  0  0  0
 13 14  1  0  0  0
 13 31  1  0  0  0
 14 15  2  0  0  0
 14 99  1  0  0  0
 15100  1  0  0  0
 16 17  2  0  0  0
 16 21  1  0  0  0
 16 31  1  0  0  0
 17 18  1  0  0  0
 17101  1  0  0  0
 18 19  2  0  0  0
 18102  1  0  0  0
 19 20  1  0  0  0
 19 24  1  0  0  0
 20 21  2  0  0  0
 20103  1  0  0  0
 21 23  1  0  0  0
 22 28  1  0  0  0
 22 32  2  0  0  0
 26 27  1  0  0  0
 28104  1  0  0  0
 28105  1  0  0  0
 29106  1  0  0  0
 29107  1  0  0  0
 33 34  1  0  0  0
 33 66  1  0  0  0
 33 70  2  0  0  0
 34 36  1  0  0  0
 34 59  1  0  0  0
 34108  1  0  0  0
 35 44  2  0  0  0
 35 45  1  0  0  0
 35 68  1  0  0  0
 36 56  1  0  0  0
 36109  1  0  0  0
 37 39  1  0  0  0
 37 47  1  0  0  0
 37 66  1  0  0  0
 37110  1  0  0  0
 38 43  2  0  0  0
 38 46  1  0  0  0
 38 47  1  0  0  0
 39 64  1  0  0  0
 39 67  2  0  0  0
 40 52  1  0  0  0
 40 53  2  0  0  0
 40 58  1  0  0  0
 41111  1  0  0  0
 41112  1  0  0  0
 41113  1  0  0  0
 41 48  1  0  0  0
 42 43  1  0  0  0
 42 66  1  0  0  0
 42114  1  0  0  0
 42115  1  0  0  0
 43 44  1  0  0  0
 44116  1  0  0  0
 45 46  2  0  0  0
 45117  1  0  0  0
 46118  1  0  0  0
 47119  1  0  0  0
 47120  1  0  0  0
 48 56  1  0  0  0
 48 65  1  0  0  0
 48121  1  0  0  0
 49 50  1  0  0  0
 49 53  1  0  0  0
 49 64  1  0  0  0
 49122  1  0  0  0
 50 51  1  0  0  0
 50123  1  0  0  0
 50124  1  0  0  0
 51 52  1  0  0  0
 51125  1  0  0  0
 51126  1  0  0  0
 52127  1  0  0  0
 52128  1  0  0  0
 53 54  1  0  0  0
 54 55  2  0  0  0
 54129  1  0  0  0
 55 57  1  0  0  0
 55130  1  0  0  0
 56 69  2  0  0  0
 57 58  2  0  0  0
 57131  1  0  0  0
 58132  1  0  0  0
 59 60  1  0  0  0
 59 61  1  0  0  0
 59 62  1  0  0  0
 60133  1  0  0  0
 60134  1  0  0  0
 60135  1  0  0  0
 61136  1  0  0  0
 61137  1  0  0  0
 61138  1  0  0  0
 62139  1  0  0  0
 62140  1  0  0  0
 62141  1  0  0  0
 63 65  1  0  0  0
 63142  1  0  0  0
 63143  1  0  0  0
 63144  1  0  0  0
 64145  1  0  0  0
 65146  1  0  0  0
 68 84  1  0  0  0
 71 72  2  0  0  0
 71 74  1  0  0  0
 71147  1  0  0  0
 72 75  1  0  0  0
 72148  1  0  0  0
 73 74  2  0  0  0
 73 76  1  0  0  0
 73149  1  0  0  0
 74 81  1  0  0  0
 75 76  2  0  0  0
 75 82  1  0  0  0
 76 80  1  0  0  0
 77150  1  0  0  0
 77151  1  0  0  0
 77152  1  0  0  0
 77 86  1  0  0  0
 78 86  1  0  0  0
 78153  1  0  0  0
 78154  1  0  0  0
 78155  1  0  0  0
 79156  1  0  0  0
 79157  1  0  0  0
 79158  1  0  0  0
 79 87  1  0  0  0
 80 85  1  0  0  0
 80159  1  0  0  0
 80160  1  0  0  0
 81 87  1  0  0  0
 81161  1  0  0  0
 81162  1  0  0  0
 82 86  1  0  0  0
 82163  1  0  0  0
 82164  1  0  0  0
 83 84  1  0  0  0
 83 87  1  0  0  0
 83165  1  0  0  0
 83166  1  0  0  0
 84167  1  0  0  0
 84168  1  0  0  0
 85169  1  0  0  0
 86170  1  0  0  0
 87171  1  0  0  0
M  CHG  2  86   1  87   1
M  ISO  4   1 100  68 101  84 101  85 100
M  END
> <chiral flag>
0

> <version>
0

> <s_m_source_file>
/data/baiqing/PycharmProjects/Reinvent-master-3.2/result/LINK_invent/BTK/process_docking_weight1_custom_product_contain_oxygen_bond_distance_aromatic_linkinvent_7_9_3/rearranged_h_0026.sdf

> <i_m_source_file_index>
49

> <r_mmod_Potential_Energy-OPLS-2005>
-299.990600585938

> <r_mmod_Stretch_Energy-OPLS-2005>
48.2437057495117

> <r_mmod_Bend_Energy-OPLS-2005>
112.233070373535

> <r_mmod_Torsional_Energy-OPLS-2005>
236.096221923828

> <r_mmod_Improper_Torsional_Energy-OPLS-2005>
6.3101487159729

> <r_mmod_Van_der_Waal_Energy-OPLS-2005>
155.150436401367

> <r_mmod_Electrostatic_Energy-OPLS-2005>
3.62560725212097

> <r_mmod_Solvation_Energy-OPLS-2005>
-878.408081054688

> <b_mmod_Minimization_Converged-OPLS-2005>
0

> <r_mmod_RMS_Derivative-OPLS-2005>
7.30278825759888

$$$$
49
                    3D
 Structure written by MMmdl.
158168  0  0  1  0            999 V2000
  -30.5885  -14.8581   20.4585 C   0  0  0  0  0  0
  -30.4272  -12.5278   19.5125 C   0  0  0  0  0  0
  -29.5342  -12.5313   18.2526 C   0  0  0  0  0  0
  -28.0509  -12.3557   18.6376 C   0  0  0  0  0  0
  -27.6296  -13.2573   19.8312 C   0  0  2  0  0  0
  -28.6634  -13.2545   20.9786 C   0  0  0  0  0  0
  -25.2436  -13.8252   20.5669 C   0  0  0  0  0  0
  -24.1756  -13.0452   20.9173 C   0  0  0  0  0  0
  -24.6406  -11.6955   20.8670 C   0  0  0  0  0  0
  -23.9084  -10.4308   21.0313 C   0  0  0  0  0  0
  -24.3627   -9.4232   21.9109 C   0  0  0  0  0  0
  -23.6323   -8.2251   22.0706 C   0  0  0  0  0  0
  -22.4306   -8.0267   21.3498 C   0  0  0  0  0  0
  -21.9928   -9.0223   20.4605 C   0  0  0  0  0  0
  -22.7228  -10.2125   20.2998 C   0  0  0  0  0  0
  -21.6880   -6.0724   22.5265 C   0  0  0  0  0  0
  -21.4031   -6.5617   23.8208 C   0  0  0  0  0  0
  -21.3680   -5.6781   24.9154 C   0  0  0  0  0  0
  -21.6052   -4.3034   24.7211 C   0  0  0  0  0  0
  -21.8792   -3.8128   23.4318 C   0  0  0  0  0  0
  -21.9184   -4.6936   22.3396 C   0  0  0  0  0  0
  -22.7766  -13.5190   21.1849 C   0  0  0  0  0  0
  -22.1633   -4.2143   21.0961 F   0  0  0  0  0  0
  -21.5659   -3.4516   25.7696 F   0  0  0  0  0  0
  -29.9546  -13.6256   20.3963 N   0  0  0  0  0  0
  -26.2856  -12.9513   20.3122 N   0  0  0  0  0  0
  -25.9334  -11.6626   20.5618 N   0  0  0  0  0  0
  -22.0429  -12.8225   22.0435 N   0  0  0  0  0  0
  -25.4092  -15.1997   20.4226 N   0  0  0  0  0  0
  -31.7970  -14.8882   20.2014 O   0  0  0  0  0  0
  -21.6651   -6.8855   21.4230 O   0  0  0  0  0  0
  -22.3417  -14.5459   20.6641 O   0  0  0  0  0  0
  -24.6373  -31.8491   23.1984 C   0  0  0  0  0  0
  -25.9165  -32.4708   23.8370 C   0  0  1  0  0  0
  -27.2119  -27.2017   20.1857 C   0  0  0  0  0  0
  -25.5917  -33.8520   24.2264 N   0  0  0  0  0  0
  -23.4379  -30.4748   21.5363 C   0  0  2  0  0  0
  -24.8886  -28.9122   20.1187 C   0  0  0  0  0  0
  -22.7534  -29.4569   22.4838 C   0  0  0  0  0  0
  -18.0316  -28.1399   22.8472 C   0  0  0  0  0  0
  -24.1483  -36.7298   23.2624 C   0  0  0  0  0  0
  -25.9851  -30.7488   21.3849 C   0  0  0  0  0  0
  -26.0584  -29.3610   20.7457 C   0  0  0  0  0  0
  -27.2242  -28.5211   20.7672 C   0  0  0  0  0  0
  -26.0338  -26.8499   19.4939 C   0  0  0  0  0  0
  -24.8869  -27.6676   19.4729 C   0  0  0  0  0  0
  -23.6671  -29.8148   20.1504 C   0  0  0  0  0  0
  -25.4068  -36.3050   24.0341 C   0  0  1  0  0  0
  -20.5919  -28.3726   23.1240 C   0  0  2  0  0  0
  -20.6803  -26.9440   22.5393 C   0  0  0  0  0  0
  -19.5779  -26.6376   21.5205 C   0  0  0  0  0  0
  -18.1956  -26.7944   22.1608 C   0  0  0  0  0  0
  -19.1566  -28.8875   23.2863 C   0  0  0  0  0  0
  -18.9454  -30.1446   23.8930 C   0  0  0  0  0  0
  -17.6452  -30.6586   24.0552 C   0  0  0  0  0  0
  -25.9013  -34.9418   23.5101 C   0  0  0  0  0  0
  -16.5354  -29.9068   23.6324 C   0  0  0  0  0  0
  -16.7295  -28.6484   23.0357 C   0  0  0  0  0  0
  -26.4538  -31.6538   25.0775 C   0  0  0  0  0  0
  -25.3736  -31.3685   26.1472 C   0  0  0  0  0  0
  -27.0341  -30.2944   24.6222 C   0  0  0  0  0  0
  -27.6126  -32.4240   25.7548 C   0  0  0  0  0  0
  -27.5589  -37.1758   24.8421 C   0  0  0  0  0  0
  -21.4240  -29.3044   22.3601 N   0  0  0  0  0  0
  -26.4242  -37.3757   23.9454 N   0  0  0  0  0  0
  -24.7058  -31.0444   22.0960 N   0  0  0  0  0  0
  -23.4217  -28.8101   23.2947 O   0  0  0  0  0  0
  -28.2925  -26.2768   20.2045 O   0  0  0  0  0  0
  -26.5579  -34.8930   22.4668 O   0  0  0  0  0  0
  -23.5508  -32.1314   23.7242 O   0  0  0  0  0  0
  -28.6891  -19.4950   22.4714 C   0  0  0  0  0  0
  -28.5154  -18.2742   23.2134 C   0  0  0  0  0  0
  -29.5572  -18.2151   20.6768 C   0  0  0  0  0  0
  -29.2038  -19.5657   21.1382 C   0  0  0  0  0  0
  -29.3690  -16.9619   21.4195 C   0  0  0  0  0  0
  -28.8351  -16.9807   22.7079 C   0  0  0  0  0  0
  -30.1478  -17.3269   19.5640 C   0  0  0  0  0  0
  -26.9473  -23.9794   20.5175 C   0  0  0  0  0  0
  -27.2858  -22.5117   20.9622 C   0  0  0  0  0  0
  -29.2727  -23.7131   20.5071 C   0  0  0  0  0  0
  -28.1821  -24.8639   20.7938 C   0  0  1  0  0  0
  -29.3377  -21.0026   20.3953 C   0  0  0  0  0  0
  -29.8460  -16.0571   20.3916 N   0  0  0  0  0  0
  -28.7644  -22.3394   20.9818 N   0  3  2  0  0  0
  -28.6254  -15.8517   23.4230 F   0  0  0  0  0  0
  -31.4750  -12.6460   19.2333 H   0  0  0  0  0  0
  -30.3640  -11.5704   20.0338 H   0  0  0  0  0  0
  -29.8526  -11.7432   17.5659 H   0  0  0  0  0  0
  -29.6605  -13.4760   17.7203 H   0  0  0  0  0  0
  -27.8956  -11.3059   18.8900 H   0  0  0  0  0  0
  -27.4160  -12.5537   17.7705 H   0  0  0  0  0  0
  -27.6034  -14.2740   19.4338 H   0  0  0  0  0  0
  -28.7197  -12.2805   21.4689 H   0  0  0  0  0  0
  -28.3725  -13.9740   21.7430 H   0  0  0  0  0  0
  -25.2753   -9.5747   22.4685 H   0  0  0  0  0  0
  -24.0032   -7.4661   22.7460 H   0  0  0  0  0  0
  -21.0834   -8.8702   19.8962 H   0  0  0  0  0  0
  -22.3605  -10.9625   19.6120 H   0  0  0  0  0  0
  -21.2048   -7.6127   23.9699 H   0  0  0  0  0  0
  -21.1548   -6.0501   25.9062 H   0  0  0  0  0  0
  -22.0578   -2.7591   23.2795 H   0  0  0  0  0  0
  -22.4048  -11.9936   22.4939 H   0  0  0  0  0  0
  -21.0993  -13.1197   22.2489 H   0  0  0  0  0  0
  -24.6596  -15.8562   20.6037 H   0  0  0  0  0  0
  -26.2761  -15.6500   20.1630 H   0  0  0  0  0  0
  -26.7229  -32.5415   23.1133 H   0  0  0  0  0  0
  -25.0134  -33.9638   25.0457 H   0  0  0  0  0  0
  -22.7412  -31.3022   21.3894 H   0  0  0  0  0  0
  -23.3781  -35.9592   23.3143 H   0  0  0  0  0  0
  -24.3621  -36.9050   22.2074 H   0  0  0  0  0  0
  -23.7207  -37.6449   23.6724 H   0  0  0  0  0  0
  -26.1065  -31.4985   20.6025 H   0  0  0  0  0  0
  -26.8695  -30.8204   22.0055 H   0  0  0  0  0  0
  -28.1184  -28.8587   21.2735 H   0  0  0  0  0  0
  -25.9877  -25.9211   18.9504 H   0  0  0  0  0  0
  -24.0068  -27.3368   18.9401 H   0  0  0  0  0  0
  -23.8187  -30.5981   19.4041 H   0  0  0  0  0  0
  -22.7839  -29.2593   19.8292 H   0  0  0  0  0  0
  -25.1242  -36.1883   25.0832 H   0  0  0  0  0  0
  -21.0018  -28.3299   24.1350 H   0  0  0  0  0  0
  -20.5699  -26.2314   23.3573 H   0  0  0  0  0  0
  -21.6659  -26.7432   22.1181 H   0  0  0  0  0  0
  -19.6920  -25.6262   21.1262 H   0  0  0  0  0  0
  -19.6752  -27.3156   20.6711 H   0  0  0  0  0  0
  -17.4222  -26.6692   21.4013 H   0  0  0  0  0  0
  -18.0372  -26.0086   22.9011 H   0  0  0  0  0  0
  -19.7914  -30.7243   24.2353 H   0  0  0  0  0  0
  -17.4994  -31.6289   24.5100 H   0  0  0  0  0  0
  -15.5351  -30.2964   23.7613 H   0  0  0  0  0  0
  -15.8702  -28.0784   22.7071 H   0  0  0  0  0  0
  -24.5919  -30.7025   25.7807 H   0  0  0  0  0  0
  -24.8925  -32.2835   26.4940 H   0  0  0  0  0  0
  -25.8047  -30.8847   27.0241 H   0  0  0  0  0  0
  -26.2877  -29.6723   24.1243 H   0  0  0  0  0  0
  -27.4004  -29.7212   25.4763 H   0  0  0  0  0  0
  -27.8825  -30.4237   23.9480 H   0  0  0  0  0  0
  -27.2784  -33.3559   26.2149 H   0  0  0  0  0  0
  -28.3979  -32.6702   25.0374 H   0  0  0  0  0  0
  -28.0745  -31.8286   26.5448 H   0  0  0  0  0  0
  -28.2439  -38.0213   24.7640 H   0  0  0  0  0  0
  -28.1242  -36.2746   24.5987 H   0  0  0  0  0  0
  -27.2353  -37.1122   25.8824 H   0  0  0  0  0  0
  -20.9393  -29.8776   21.6840 H   0  0  0  0  0  0
  -26.0117  -38.2801   24.1577 H   0  0  0  0  0  0
  -28.4054  -20.4067   22.9791 H   0  0  0  0  0  0
  -28.1011  -18.3377   24.2116 H   0  0  0  0  0  0
  -31.2103  -17.5231   19.4054 H   0  0  0  0  0  0
  -29.5888  -17.4015   18.6297 H   0  0  0  0  0  0
  -26.0562  -24.3533   21.0238 H   0  0  0  0  0  0
  -26.7472  -23.9671   19.4467 H   0  0  0  0  0  0
  -26.7965  -21.7815   20.3192 H   0  0  0  0  0  0
  -26.9160  -22.3318   21.9704 H   0  0  0  0  0  0
  -30.2225  -23.9515   20.9864 H   0  0  0  0  0  0
  -29.4693  -23.6650   19.4355 H   0  0  0  0  0  0
  -28.2026  -25.0292   21.8733 H   0  0  0  0  0  0
  -28.9425  -20.8808   19.3875 H   0  0  0  0  0  0
  -30.4038  -21.1677   20.2545 H   0  0  0  0  0  0
  -29.0044  -22.3114   21.9617 H   0  0  0  0  0  0
  1 25  1  0  0  0
  1 30  2  0  0  0
  1 83  1  0  0  0
  2  3  1  0  0  0
  2 25  1  0  0  0
  2 86  1  0  0  0
  2 87  1  0  0  0
  3  4  1  0  0  0
  3 88  1  0  0  0
  3 89  1  0  0  0
  4  5  1  0  0  0
  4 90  1  0  0  0
  4 91  1  0  0  0
  5  6  1  0  0  0
  5 26  1  0  0  0
  5 92  1  0  0  0
  6 25  1  0  0  0
  6 93  1  0  0  0
  6 94  1  0  0  0
  7  8  2  0  0  0
  7 26  1  0  0  0
  7 29  1  0  0  0
  8  9  1  0  0  0
  8 22  1  0  0  0
  9 10  1  0  0  0
  9 27  2  0  0  0
 10 11  2  0  0  0
 10 15  1  0  0  0
 11 12  1  0  0  0
 11 95  1  0  0  0
 12 13  2  0  0  0
 12 96  1  0  0  0
 13 14  1  0  0  0
 13 31  1  0  0  0
 14 15  2  0  0  0
 14 97  1  0  0  0
 15 98  1  0  0  0
 16 17  2  0  0  0
 16 21  1  0  0  0
 16 31  1  0  0  0
 17 18  1  0  0  0
 17 99  1  0  0  0
 18 19  2  0  0  0
 18100  1  0  0  0
 19 20  1  0  0  0
 19 24  1  0  0  0
 20 21  2  0  0  0
 20101  1  0  0  0
 21 23  1  0  0  0
 22 28  1  0  0  0
 22 32  2  0  0  0
 26 27  1  0  0  0
 28102  1  0  0  0
 28103  1  0  0  0
 29104  1  0  0  0
 29105  1  0  0  0
 33 34  1  0  0  0
 33 66  1  0  0  0
 33 70  2  0  0  0
 34 36  1  0  0  0
 34 59  1  0  0  0
 34106  1  0  0  0
 35 44  2  0  0  0
 35 45  1  0  0  0
 35 68  1  0  0  0
 36 56  1  0  0  0
 36107  1  0  0  0
 37 39  1  0  0  0
 37 47  1  0  0  0
 37 66  1  0  0  0
 37108  1  0  0  0
 38 43  2  0  0  0
 38 46  1  0  0  0
 38 47  1  0  0  0
 39 64  1  0  0  0
 39 67  2  0  0  0
 40 52  1  0  0  0
 40 53  2  0  0  0
 40 58  1  0  0  0
 41109  1  0  0  0
 41110  1  0  0  0
 41111  1  0  0  0
 41 48  1  0  0  0
 42 43  1  0  0  0
 42 66  1  0  0  0
 42112  1  0  0  0
 42113  1  0  0  0
 43 44  1  0  0  0
 44114  1  0  0  0
 45 46  2  0  0  0
 45115  1  0  0  0
 46116  1  0  0  0
 47117  1  0  0  0
 47118  1  0  0  0
 48 56  1  0  0  0
 48 65  1  0  0  0
 48119  1  0  0  0
 49 50  1  0  0  0
 49 53  1  0  0  0
 49 64  1  0  0  0
 49120  1  0  0  0
 50 51  1  0  0  0
 50121  1  0  0  0
 50122  1  0  0  0
 51 52  1  0  0  0
 51123  1  0  0  0
 51124  1  0  0  0
 52125  1  0  0  0
 52126  1  0  0  0
 53 54  1  0  0  0
 54 55  2  0  0  0
 54127  1  0  0  0
 55 57  1  0  0  0
 55128  1  0  0  0
 56 69  2  0  0  0
 57 58  2  0  0  0
 57129  1  0  0  0
 58130  1  0  0  0
 59 60  1  0  0  0
 59 61  1  0  0  0
 59 62  1  0  0  0
 60131  1  0  0  0
 60132  1  0  0  0
 60133  1  0  0  0
 61134  1  0  0  0
 61135  1  0  0  0
 61136  1  0  0  0
 62137  1  0  0  0
 62138  1  0  0  0
 62139  1  0  0  0
 63 65  1  0  0  0
 63140  1  0  0  0
 63141  1  0  0  0
 63142  1  0  0  0
 64143  1  0  0  0
 65144  1  0  0  0
 68 81  1  0  0  0
 71 72  2  0  0  0
 71 74  1  0  0  0
 71145  1  0  0  0
 72 76  1  0  0  0
 72146  1  0  0  0
 73 74  2  0  0  0
 73 75  1  0  0  0
 73 77  1  0  0  0
 74 82  1  0  0  0
 75 76  2  0  0  0
 75 83  1  0  0  0
 76 85  1  0  0  0
 77 83  1  0  0  0
 77147  1  0  0  0
 77148  1  0  0  0
 78 79  1  0  0  0
 78 81  1  0  0  0
 78149  1  0  0  0
 78150  1  0  0  0
 79 84  1  0  0  0
 79151  1  0  0  0
 79152  1  0  0  0
 80 81  1  0  0  0
 80 84  1  0  0  0
 80153  1  0  0  0
 80154  1  0  0  0
 81155  1  0  0  0
 82156  1  0  0  0
 82157  1  0  0  0
 82 84  1  0  0  0
 84158  1  0  0  0
M  CHG  1  84   1
M  ISO  4   1 100  68 101  81 101  83 100
M  END
> <chiral flag>
0

> <version>
0

> <s_m_source_file>
/data/baiqing/PycharmProjects/Reinvent-master-3.2/result/LINK_invent/BTK/process_docking_weight1_custom_product_contain_oxygen_bond_distance_aromatic_linkinvent_7_9_3/rearranged_h_0026.sdf

> <i_m_source_file_index>
50

> <r_mmod_Potential_Energy-OPLS-2005>
730.116760253906

> <r_mmod_Stretch_Energy-OPLS-2005>
165.664749145508

> <r_mmod_Bend_Energy-OPLS-2005>
660.843444824219

> <r_mmod_Torsional_Energy-OPLS-2005>
322.850891113281

> <r_mmod_Improper_Torsional_Energy-OPLS-2005>
17.1231002807617

> <r_mmod_Van_der_Waal_Energy-OPLS-2005>
117.356994628906

> <r_mmod_Electrostatic_Energy-OPLS-2005>
-249.759094238281

> <r_mmod_Solvation_Energy-OPLS-2005>
-439.316589355469

> <b_mmod_Minimization_Converged-OPLS-2005>
0

> <r_mmod_RMS_Derivative-OPLS-2005>
5.96155548095703

$$$$
50
                    3D
 Structure written by MMmdl.
150159  0  0  1  0            999 V2000
  -30.4600  -15.1709   20.3724 C   0  0  0  0  0  0
  -30.4380  -12.7321   19.5422 C   0  0  0  0  0  0
  -29.5406  -12.5694   18.2902 C   0  0  0  0  0  0
  -28.0801  -12.3139   18.7029 C   0  0  0  0  0  0
  -27.6197  -13.2703   19.8324 C   0  0  2  0  0  0
  -28.6492  -13.3962   20.9767 C   0  0  0  0  0  0
  -25.2419  -13.8246   20.5736 C   0  0  0  0  0  0
  -24.1756  -13.0444   20.9241 C   0  0  0  0  0  0
  -24.6398  -11.6938   20.8747 C   0  0  0  0  0  0
  -23.9087  -10.4301   21.0398 C   0  0  0  0  0  0
  -24.3635   -9.4216   21.9176 C   0  0  0  0  0  0
  -23.6307   -8.2253   22.0751 C   0  0  0  0  0  0
  -22.4285   -8.0288   21.3547 C   0  0  0  0  0  0
  -21.9924   -9.0262   20.4647 C   0  0  0  0  0  0
  -22.7257  -10.2135   20.3052 C   0  0  0  0  0  0
  -21.6857   -6.0738   22.5281 C   0  0  0  0  0  0
  -21.4016   -6.5639   23.8211 C   0  0  0  0  0  0
  -21.3665   -5.6788   24.9172 C   0  0  0  0  0  0
  -21.6045   -4.3051   24.7222 C   0  0  0  0  0  0
  -21.8818   -3.8148   23.4341 C   0  0  0  0  0  0
  -21.9196   -4.6969   22.3400 C   0  0  0  0  0  0
  -22.7774  -13.5205   21.1891 C   0  0  0  0  0  0
  -22.1667   -4.2154   21.0978 F   0  0  0  0  0  0
  -21.5630   -3.4533   25.7735 F   0  0  0  0  0  0
  -29.9045  -13.8681   20.3744 N   0  0  0  0  0  0
  -26.2844  -12.9511   20.3216 N   0  0  0  0  0  0
  -25.9333  -11.6619   20.5701 N   0  0  0  0  0  0
  -22.0426  -12.8193   22.0443 N   0  0  0  0  0  0
  -25.4076  -15.1979   20.4177 N   0  0  0  0  0  0
  -31.6626  -15.1968   20.0727 O   0  0  0  0  0  0
  -21.6646   -6.8885   21.4244 O   0  0  0  0  0  0
  -22.3462  -14.5508   20.6732 O   0  0  0  0  0  0
  -24.6563  -31.8269   23.1717 C   0  0  0  0  0  0
  -25.9268  -32.4598   23.8176 C   0  0  1  0  0  0
  -27.2249  -26.9941   20.1758 C   0  0  0  0  0  0
  -25.5949  -33.8411   24.2089 N   0  0  0  0  0  0
  -23.4675  -30.4377   21.5198 C   0  0  2  0  0  0
  -24.9206  -28.8330   20.1023 C   0  0  0  0  0  0
  -22.7633  -29.4449   22.4803 C   0  0  0  0  0  0
  -18.0314  -28.1393   22.8468 C   0  0  0  0  0  0
  -24.1501  -36.7226   23.2651 C   0  0  0  0  0  0
  -26.0293  -30.6550   21.3916 C   0  0  0  0  0  0
  -26.0970  -29.2517   20.7345 C   0  0  0  0  0  0
  -27.2394  -28.3480   20.7526 C   0  0  0  0  0  0
  -26.0278  -26.7068   19.4877 C   0  0  0  0  0  0
  -24.9076  -27.5807   19.4598 C   0  0  0  0  0  0
  -23.6998  -29.7494   20.1444 C   0  0  0  0  0  0
  -25.4135  -36.2981   24.0309 C   0  0  1  0  0  0
  -20.5938  -28.3734   23.1200 C   0  0  2  0  0  0
  -20.6789  -26.9419   22.5406 C   0  0  0  0  0  0
  -19.5760  -26.6365   21.5218 C   0  0  0  0  0  0
  -18.1942  -26.7923   22.1624 C   0  0  0  0  0  0
  -19.1574  -28.8886   23.2818 C   0  0  0  0  0  0
  -18.9485  -30.1482   23.8842 C   0  0  0  0  0  0
  -17.6476  -30.6581   24.0558 C   0  0  0  0  0  0
  -25.9087  -34.9356   23.5026 C   0  0  0  0  0  0
  -16.5368  -29.9072   23.6335 C   0  0  0  0  0  0
  -16.7298  -28.6495   23.0352 C   0  0  0  0  0  0
  -26.4539  -31.6531   25.0692 C   0  0  0  0  0  0
  -25.3679  -31.3774   26.1364 C   0  0  0  0  0  0
  -27.0436  -30.2903   24.6393 C   0  0  0  0  0  0
  -27.6029  -32.4350   25.7488 C   0  0  0  0  0  0
  -27.5574  -37.1771   24.8462 C   0  0  0  0  0  0
  -21.4313  -29.3030   22.3556 N   0  0  0  0  0  0
  -26.4283  -37.3713   23.9405 N   0  0  0  0  0  0
  -24.7384  -30.9993   22.0814 N   0  0  0  0  0  0
  -23.4206  -28.8029   23.3034 O   0  0  0  0  0  0
  -28.2600  -25.9603   20.3459 O   0  0  0  0  0  0
  -26.5706  -34.8887   22.4626 O   0  0  0  0  0  0
  -23.5649  -32.1206   23.6848 O   0  0  0  0  0  0
  -29.1687  -19.2487   20.5929 C   0  0  0  0  0  0
  -30.5721  -18.1611   18.9612 C   0  0  0  0  0  0
  -29.2526  -20.6744   20.0176 C   0  0  0  0  0  0
  -29.8015  -17.9359   20.1139 C   0  0  0  0  0  0
  -30.6538  -19.4211   18.3274 C   0  0  0  0  0  0
  -30.0124  -20.6031   18.8056 C   0  0  0  0  0  0
  -29.5329  -23.4196   20.5588 C   0  0  0  0  0  0
  -27.5870  -23.0081   20.0196 C   0  0  0  0  0  0
  -28.4247  -24.4038   19.8954 C   0  0  0  0  0  0
  -28.7376  -22.1218   20.4984 N   0  0  0  0  0  0
  -29.6975  -16.4107   20.5799 N   0  0  0  0  0  0
  -31.5905  -19.4830   16.8720 Cl  0  0  0  0  0  0
  -30.1709  -22.0194   17.8142 Cl  0  0  0  0  0  0
  -31.4697  -12.9056   19.2339 H   0  0  0  0  0  0
  -30.4610  -11.8082   20.1226 H   0  0  0  0  0  0
  -29.9049  -11.7551   17.6625 H   0  0  0  0  0  0
  -29.5979  -13.4742   17.6828 H   0  0  0  0  0  0
  -28.0102  -11.2810   19.0458 H   0  0  0  0  0  0
  -27.4206  -12.3945   17.8382 H   0  0  0  0  0  0
  -27.5529  -14.2510   19.3595 H   0  0  0  0  0  0
  -28.7828  -12.4476   21.4987 H   0  0  0  0  0  0
  -28.3029  -14.1142   21.7219 H   0  0  0  0  0  0
  -25.2781   -9.5695   22.4747 H   0  0  0  0  0  0
  -24.0023   -7.4643   22.7466 H   0  0  0  0  0  0
  -21.0858   -8.8778   19.8950 H   0  0  0  0  0  0
  -22.3719  -10.9670   19.6159 H   0  0  0  0  0  0
  -21.2004   -7.6144   23.9719 H   0  0  0  0  0  0
  -21.1489   -6.0513   25.9073 H   0  0  0  0  0  0
  -22.0592   -2.7613   23.2834 H   0  0  0  0  0  0
  -22.4056  -11.9877   22.4863 H   0  0  0  0  0  0
  -21.1036  -13.1201   22.2622 H   0  0  0  0  0  0
  -24.6346  -15.8462   20.5213 H   0  0  0  0  0  0
  -26.2459  -15.6381   20.0617 H   0  0  0  0  0  0
  -26.7338  -32.5161   23.0898 H   0  0  0  0  0  0
  -25.0051  -33.9491   25.0209 H   0  0  0  0  0  0
  -22.7776  -31.2678   21.3525 H   0  0  0  0  0  0
  -23.3770  -35.9551   23.3282 H   0  0  0  0  0  0
  -24.3583  -36.8891   22.2070 H   0  0  0  0  0  0
  -23.7249  -37.6405   23.6721 H   0  0  0  0  0  0
  -26.2041  -31.4014   20.6156 H   0  0  0  0  0  0
  -26.8912  -30.7073   22.0453 H   0  0  0  0  0  0
  -28.1262  -28.6578   21.2873 H   0  0  0  0  0  0
  -25.9264  -25.7418   19.0124 H   0  0  0  0  0  0
  -24.0109  -27.2555   18.9500 H   0  0  0  0  0  0
  -23.8369  -30.5154   19.3802 H   0  0  0  0  0  0
  -22.8121  -29.1917   19.8401 H   0  0  0  0  0  0
  -25.1333  -36.1791   25.0802 H   0  0  0  0  0  0
  -21.0027  -28.3346   24.1325 H   0  0  0  0  0  0
  -20.5666  -26.2359   23.3649 H   0  0  0  0  0  0
  -21.6653  -26.7390   22.1218 H   0  0  0  0  0  0
  -19.6920  -25.6268   21.1267 H   0  0  0  0  0  0
  -19.6685  -27.3164   20.6741 H   0  0  0  0  0  0
  -17.4213  -26.6677   21.4023 H   0  0  0  0  0  0
  -18.0323  -26.0068   22.9021 H   0  0  0  0  0  0
  -19.7963  -30.7322   24.2168 H   0  0  0  0  0  0
  -17.5024  -31.6246   24.5188 H   0  0  0  0  0  0
  -15.5363  -30.2955   23.7680 H   0  0  0  0  0  0
  -15.8704  -28.0798   22.7086 H   0  0  0  0  0  0
  -24.5855  -30.7126   25.7685 H   0  0  0  0  0  0
  -24.8871  -32.2972   26.4703 H   0  0  0  0  0  0
  -25.7915  -30.8992   27.0202 H   0  0  0  0  0  0
  -26.3092  -29.6579   24.1387 H   0  0  0  0  0  0
  -27.3977  -29.7265   25.5035 H   0  0  0  0  0  0
  -27.9026  -30.4105   23.9789 H   0  0  0  0  0  0
  -27.2581  -33.3683   26.1961 H   0  0  0  0  0  0
  -28.3882  -32.6862   25.0346 H   0  0  0  0  0  0
  -28.0655  -31.8549   26.5484 H   0  0  0  0  0  0
  -28.2580  -38.0079   24.7511 H   0  0  0  0  0  0
  -28.1078  -36.2603   24.6289 H   0  0  0  0  0  0
  -27.2285  -37.1416   25.8862 H   0  0  0  0  0  0
  -20.9570  -29.8716   21.6682 H   0  0  0  0  0  0
  -26.0139  -38.2780   24.1385 H   0  0  0  0  0  0
  -28.5736  -19.1646   21.4911 H   0  0  0  0  0  0
  -31.0906  -17.3342   18.4999 H   0  0  0  0  0  0
  -29.7292  -23.6878   21.5979 H   0  0  0  0  0  0
  -30.4760  -23.4041   20.0139 H   0  0  0  0  0  0
  -27.1843  -22.6804   19.0598 H   0  0  0  0  0  0
  -26.7885  -23.0634   20.7600 H   0  0  0  0  0  0
  -28.6759  -24.4923   18.8382 H   0  0  0  0  0  0
  -28.8220  -16.2112   21.0427 H   0  0  0  0  0  0
  1 25  1  0  0  0
  1 30  2  0  0  0
  1 81  1  0  0  0
  2  3  1  0  0  0
  2 25  1  0  0  0
  2 84  1  0  0  0
  2 85  1  0  0  0
  3  4  1  0  0  0
  3 86  1  0  0  0
  3 87  1  0  0  0
  4  5  1  0  0  0
  4 88  1  0  0  0
  4 89  1  0  0  0
  5  6  1  0  0  0
  5 26  1  0  0  0
  5 90  1  0  0  0
  6 25  1  0  0  0
  6 91  1  0  0  0
  6 92  1  0  0  0
  7  8  2  0  0  0
  7 26  1  0  0  0
  7 29  1  0  0  0
  8  9  1  0  0  0
  8 22  1  0  0  0
  9 10  1  0  0  0
  9 27  2  0  0  0
 10 11  2  0  0  0
 10 15  1  0  0  0
 11 12  1  0  0  0
 11 93  1  0  0  0
 12 13  2  0  0  0
 12 94  1  0  0  0
 13 14  1  0  0  0
 13 31  1  0  0  0
 14 15  2  0  0  0
 14 95  1  0  0  0
 15 96  1  0  0  0
 16 17  2  0  0  0
 16 21  1  0  0  0
 16 31  1  0  0  0
 17 18  1  0  0  0
 17 97  1  0  0  0
 18 19  2  0  0  0
 18 98  1  0  0  0
 19 20  1  0  0  0
 19 24  1  0  0  0
 20 21  2  0  0  0
 20 99  1  0  0  0
 21 23  1  0  0  0
 22 28  1  0  0  0
 22 32  2  0  0  0
 26 27  1  0  0  0
 28100  1  0  0  0
 28101  1  0  0  0
 29102  1  0  0  0
 29103  1  0  0  0
 33 34  1  0  0  0
 33 66  1  0  0  0
 33 70  2  0  0  0
 34 36  1  0  0  0
 34 59  1  0  0  0
 34104  1  0  0  0
 35 44  2  0  0  0
 35 45  1  0  0  0
 35 68  1  0  0  0
 36 56  1  0  0  0
 36105  1  0  0  0
 37 39  1  0  0  0
 37 47  1  0  0  0
 37 66  1  0  0  0
 37106  1  0  0  0
 38 43  2  0  0  0
 38 46  1  0  0  0
 38 47  1  0  0  0
 39 64  1  0  0  0
 39 67  2  0  0  0
 40 52  1  0  0  0
 40 53  2  0  0  0
 40 58  1  0  0  0
 41107  1  0  0  0
 41108  1  0  0  0
 41109  1  0  0  0
 41 48  1  0  0  0
 42 43  1  0  0  0
 42 66  1  0  0  0
 42110  1  0  0  0
 42111  1  0  0  0
 43 44  1  0  0  0
 44112  1  0  0  0
 45 46  2  0  0  0
 45113  1  0  0  0
 46114  1  0  0  0
 47115  1  0  0  0
 47116  1  0  0  0
 48 56  1  0  0  0
 48 65  1  0  0  0
 48117  1  0  0  0
 49 50  1  0  0  0
 49 53  1  0  0  0
 49 64  1  0  0  0
 49118  1  0  0  0
 50 51  1  0  0  0
 50119  1  0  0  0
 50120  1  0  0  0
 51 52  1  0  0  0
 51121  1  0  0  0
 51122  1  0  0  0
 52123  1  0  0  0
 52124  1  0  0  0
 53 54  1  0  0  0
 54 55  2  0  0  0
 54125  1  0  0  0
 55 57  1  0  0  0
 55126  1  0  0  0
 56 69  2  0  0  0
 57 58  2  0  0  0
 57127  1  0  0  0
 58128  1  0  0  0
 59 60  1  0  0  0
 59 61  1  0  0  0
 59 62  1  0  0  0
 60129  1  0  0  0
 60130  1  0  0  0
 60131  1  0  0  0
 61132  1  0  0  0
 61133  1  0  0  0
 61134  1  0  0  0
 62135  1  0  0  0
 62136  1  0  0  0
 62137  1  0  0  0
 63 65  1  0  0  0
 63138  1  0  0  0
 63139  1  0  0  0
 63140  1  0  0  0
 64141  1  0  0  0
 65142  1  0  0  0
 68 79  1  0  0  0
 71 73  2  0  0  0
 71 74  1  0  0  0
 71143  1  0  0  0
 72 74  2  0  0  0
 72 75  1  0  0  0
 72144  1  0  0  0
 73 76  1  0  0  0
 73 80  1  0  0  0
 74 81  1  0  0  0
 75 76  2  0  0  0
 75 82  1  0  0  0
 76 83  1  0  0  0
 77 79  1  0  0  0
 77 80  1  0  0  0
 77145  1  0  0  0
 77146  1  0  0  0
 78 79  1  0  0  0
 78 80  1  0  0  0
 78147  1  0  0  0
 78148  1  0  0  0
 79149  1  0  0  0
 81150  1  0  0  0
M  ISO  4   1 100  68 101  79 101  81 100
M  END
> <chiral flag>
0

> <version>
0

> <s_m_source_file>
/data/baiqing/PycharmProjects/Reinvent-master-3.2/result/LINK_invent/BTK/process_docking_weight1_custom_product_contain_oxygen_bond_distance_aromatic_linkinvent_7_9_3/rearranged_h_0026.sdf

> <i_m_source_file_index>
51

> <r_mmod_Potential_Energy-OPLS-2005>
1135.72509765625

> <r_mmod_Stretch_Energy-OPLS-2005>
431.655822753906

> <r_mmod_Bend_Energy-OPLS-2005>
451.087982177734

> <r_mmod_Torsional_Energy-OPLS-2005>
273.041961669922

> <r_mmod_Improper_Torsional_Energy-OPLS-2005>
9.27402591705322

> <r_mmod_Van_der_Waal_Energy-OPLS-2005>
129.461563110352

> <r_mmod_Electrostatic_Energy-OPLS-2005>
-284.433532714844

> <r_mmod_Solvation_Energy-OPLS-2005>
-238.801132202148

> <b_mmod_Minimization_Converged-OPLS-2005>
0

> <r_mmod_RMS_Derivative-OPLS-2005>
1.25200963020325

$$$$
51
                    3D
 Structure written by MMmdl.
158167  0  0  1  0            999 V2000
  -30.6349  -14.7279   20.4328 C   0  0  0  0  0  0
  -30.4270  -12.4391   19.4702 C   0  0  0  0  0  0
  -29.5030  -12.4926   18.2342 C   0  0  0  0  0  0
  -28.0316  -12.3207   18.6543 C   0  0  0  0  0  0
  -27.6411  -13.2301   19.8490 C   0  0  2  0  0  0
  -28.6884  -13.1750   20.9830 C   0  0  0  0  0  0
  -25.2517  -13.8200   20.5698 C   0  0  0  0  0  0
  -24.1802  -13.0447   20.9218 C   0  0  0  0  0  0
  -24.6387  -11.6924   20.8761 C   0  0  0  0  0  0
  -23.9070  -10.4298   21.0412 C   0  0  0  0  0  0
  -24.3615   -9.4214   21.9195 C   0  0  0  0  0  0
  -23.6290   -8.2243   22.0758 C   0  0  0  0  0  0
  -22.4278   -8.0272   21.3543 C   0  0  0  0  0  0
  -21.9915   -9.0251   20.4646 C   0  0  0  0  0  0
  -22.7240  -10.2134   20.3061 C   0  0  0  0  0  0
  -21.6852   -6.0725   22.5278 C   0  0  0  0  0  0
  -21.4012   -6.5634   23.8210 C   0  0  0  0  0  0
  -21.3663   -5.6794   24.9176 C   0  0  0  0  0  0
  -21.6043   -4.3056   24.7233 C   0  0  0  0  0  0
  -21.8819   -3.8143   23.4355 C   0  0  0  0  0  0
  -21.9193   -4.6951   22.3404 C   0  0  0  0  0  0
  -22.7827  -13.5231   21.1876 C   0  0  0  0  0  0
  -22.1663   -4.2138   21.0981 F   0  0  0  0  0  0
  -21.5633   -3.4540   25.7749 F   0  0  0  0  0  0
  -29.9915  -13.5107   20.3944 N   0  0  0  0  0  0
  -26.2937  -12.9403   20.3293 N   0  0  0  0  0  0
  -25.9324  -11.6553   20.5780 N   0  0  0  0  0  0
  -22.0473  -12.8191   22.0411 N   0  0  0  0  0  0
  -25.4225  -15.1913   20.4078 N   0  0  0  0  0  0
  -31.8347  -14.7753   20.1518 O   0  0  0  0  0  0
  -21.6638   -6.8867   21.4239 O   0  0  0  0  0  0
  -22.3518  -14.5543   20.6740 O   0  0  0  0  0  0
  -24.6320  -31.8544   23.2019 C   0  0  0  0  0  0
  -25.9146  -32.4758   23.8351 C   0  0  1  0  0  0
  -27.2167  -27.2706   20.1227 C   0  0  0  0  0  0
  -25.5948  -33.8559   24.2258 N   0  0  0  0  0  0
  -23.4266  -30.4786   21.5461 C   0  0  2  0  0  0
  -24.8740  -28.9343   20.1052 C   0  0  0  0  0  0
  -22.7504  -29.4581   22.4928 C   0  0  0  0  0  0
  -18.0281  -28.1378   22.8460 C   0  0  0  0  0  0
  -24.1489  -36.7273   23.2639 C   0  0  0  0  0  0
  -25.9733  -30.7718   21.3795 C   0  0  0  0  0  0
  -26.0457  -29.3974   20.7176 C   0  0  0  0  0  0
  -27.2200  -28.5782   20.7139 C   0  0  0  0  0  0
  -26.0274  -26.8852   19.4633 C   0  0  0  0  0  0
  -24.8711  -27.6867   19.4648 C   0  0  0  0  0  0
  -23.6438  -29.8188   20.1594 C   0  0  0  0  0  0
  -25.4117  -36.3061   24.0325 C   0  0  1  0  0  0
  -20.5883  -28.3677   23.1267 C   0  0  2  0  0  0
  -20.6774  -26.9396   22.5393 C   0  0  0  0  0  0
  -19.5754  -26.6372   21.5190 C   0  0  0  0  0  0
  -18.1926  -26.7911   22.1597 C   0  0  0  0  0  0
  -19.1538  -28.8839   23.2851 C   0  0  0  0  0  0
  -18.9462  -30.1433   23.8885 C   0  0  0  0  0  0
  -17.6464  -30.6572   24.0548 C   0  0  0  0  0  0
  -25.9063  -34.9440   23.5088 C   0  0  0  0  0  0
  -16.5351  -29.9067   23.6334 C   0  0  0  0  0  0
  -16.7274  -28.6491   23.0342 C   0  0  0  0  0  0
  -26.4517  -31.6588   25.0742 C   0  0  0  0  0  0
  -25.3739  -31.3698   26.1457 C   0  0  0  0  0  0
  -27.0382  -30.3032   24.6188 C   0  0  0  0  0  0
  -27.6062  -32.4347   25.7513 C   0  0  0  0  0  0
  -27.5572  -37.1795   24.8460 C   0  0  0  0  0  0
  -21.4209  -29.3036   22.3684 N   0  0  0  0  0  0
  -26.4274  -37.3777   23.9419 N   0  0  0  0  0  0
  -24.6968  -31.0519   22.0996 N   0  0  0  0  0  0
  -23.4202  -28.8101   23.3006 O   0  0  0  0  0  0
  -28.3071  -26.3714   20.2049 O   0  0  0  0  0  0
  -26.5626  -34.8910   22.4652 O   0  0  0  0  0  0
  -23.5477  -32.1366   23.7341 O   0  0  0  0  0  0
  -31.6141  -18.9935   19.1820 C   0  0  0  0  0  0
  -30.8034  -20.0636   19.6066 C   0  0  0  0  0  0
  -31.3017  -17.6578   19.5022 C   0  0  0  0  0  0
  -29.6415  -19.8381   20.3695 C   0  0  0  0  0  0
  -29.3534  -18.4443   20.7240 C   0  0  0  0  0  0
  -30.1778  -17.3176   20.2946 C   0  0  0  0  0  0
  -28.5472  -22.7935   18.9133 C   0  0  0  0  0  0
  -28.3103  -24.3004   18.6816 C   0  0  0  0  0  0
  -28.8564  -23.8049   20.9437 C   0  0  0  0  0  0
  -28.0720  -24.8867   20.0839 C   0  0  1  0  0  0
  -28.1437  -18.1324   21.5936 C   0  0  0  0  0  0
  -28.7907  -21.1085   20.8311 C   0  0  0  0  0  0
  -28.8679  -22.4994   20.1883 N   0  0  0  0  0  0
  -29.8790  -15.8842   20.5985 N   0  0  0  0  0  0
  -28.3962  -21.9684   18.0084 O   0  0  0  0  0  0
  -31.4677  -12.5482   19.1606 H   0  0  0  0  0  0
  -30.3643  -11.4660   19.9599 H   0  0  0  0  0  0
  -29.7790  -11.7155   17.5213 H   0  0  0  0  0  0
  -29.6270  -13.4451   17.7153 H   0  0  0  0  0  0
  -27.8929  -11.2735   18.9277 H   0  0  0  0  0  0
  -27.3690  -12.5025   17.8073 H   0  0  0  0  0  0
  -27.6342  -14.2483   19.4602 H   0  0  0  0  0  0
  -28.7196  -12.1835   21.4364 H   0  0  0  0  0  0
  -28.4307  -13.8707   21.7833 H   0  0  0  0  0  0
  -25.2755   -9.5682   22.4779 H   0  0  0  0  0  0
  -23.9999   -7.4629   22.7475 H   0  0  0  0  0  0
  -21.0852   -8.8765   19.8942 H   0  0  0  0  0  0
  -22.3702  -10.9672   19.6166 H   0  0  0  0  0  0
  -21.2000   -7.6139   23.9710 H   0  0  0  0  0  0
  -21.1488   -6.0524   25.9079 H   0  0  0  0  0  0
  -22.0594   -2.7603   23.2863 H   0  0  0  0  0  0
  -22.4100  -11.9828   22.4748 H   0  0  0  0  0  0
  -21.1094  -13.1199   22.2649 H   0  0  0  0  0  0
  -24.6509  -15.8421   20.5049 H   0  0  0  0  0  0
  -26.2560  -15.6213   20.0309 H   0  0  0  0  0  0
  -26.7204  -32.5425   23.1087 H   0  0  0  0  0  0
  -25.0132  -33.9702   25.0429 H   0  0  0  0  0  0
  -22.7230  -31.3016   21.4040 H   0  0  0  0  0  0
  -23.3759  -35.9590   23.3280 H   0  0  0  0  0  0
  -24.3582  -36.8932   22.2054 H   0  0  0  0  0  0
  -23.7221  -37.6460   23.6692 H   0  0  0  0  0  0
  -26.1090  -31.5331   20.6103 H   0  0  0  0  0  0
  -26.8518  -30.8198   22.0110 H   0  0  0  0  0  0
  -28.1141  -28.9262   21.2098 H   0  0  0  0  0  0
  -25.9593  -25.9411   18.9465 H   0  0  0  0  0  0
  -23.9804  -27.3303   18.9643 H   0  0  0  0  0  0
  -23.7660  -30.6004   19.4089 H   0  0  0  0  0  0
  -22.7633  -29.2520   19.8521 H   0  0  0  0  0  0
  -25.1293  -36.1897   25.0813 H   0  0  0  0  0  0
  -20.9957  -28.3253   24.1393 H   0  0  0  0  0  0
  -20.5681  -26.2282   23.3595 H   0  0  0  0  0  0
  -21.6638  -26.7445   22.1169 H   0  0  0  0  0  0
  -19.6928  -25.6288   21.1217 H   0  0  0  0  0  0
  -19.6689  -27.3177   20.6711 H   0  0  0  0  0  0
  -17.4194  -26.6644   21.3994 H   0  0  0  0  0  0
  -18.0322  -26.0055   22.8995 H   0  0  0  0  0  0
  -19.7947  -30.7230   24.2266 H   0  0  0  0  0  0
  -17.5029  -31.6264   24.5125 H   0  0  0  0  0  0
  -15.5355  -30.2958   23.7684 H   0  0  0  0  0  0
  -15.8667  -28.0821   22.7061 H   0  0  0  0  0  0
  -24.5938  -30.7027   25.7776 H   0  0  0  0  0  0
  -24.8892  -32.2838   26.4906 H   0  0  0  0  0  0
  -25.8052  -30.8869   27.0233 H   0  0  0  0  0  0
  -26.2959  -29.6775   24.1220 H   0  0  0  0  0  0
  -27.4113  -29.7302   25.4685 H   0  0  0  0  0  0
  -27.8811  -30.4359   23.9397 H   0  0  0  0  0  0
  -27.2682  -33.3688   26.2015 H   0  0  0  0  0  0
  -28.3905  -32.6842   25.0353 H   0  0  0  0  0  0
  -28.0683  -31.8515   26.5494 H   0  0  0  0  0  0
  -28.2550  -38.0132   24.7569 H   0  0  0  0  0  0
  -28.1102  -36.2666   24.6210 H   0  0  0  0  0  0
  -27.2299  -37.1355   25.8863 H   0  0  0  0  0  0
  -20.9403  -29.8831   21.6952 H   0  0  0  0  0  0
  -26.0144  -38.2837   24.1462 H   0  0  0  0  0  0
  -32.4980  -19.1992   18.5938 H   0  0  0  0  0  0
  -31.0897  -21.0713   19.3413 H   0  0  0  0  0  0
  -31.9633  -16.9023   19.1076 H   0  0  0  0  0  0
  -27.4686  -24.4653   18.0090 H   0  0  0  0  0  0
  -29.2008  -24.7316   18.2239 H   0  0  0  0  0  0
  -28.4058  -23.6868   21.9305 H   0  0  0  0  0  0
  -29.8896  -24.1235   21.0914 H   0  0  0  0  0  0
  -27.0318  -24.6951   20.3519 H   0  0  0  0  0  0
  -27.7891  -19.0015   22.1453 H   0  0  0  0  0  0
  -28.3913  -17.3749   22.3375 H   0  0  0  0  0  0
  -27.3221  -17.7556   20.9833 H   0  0  0  0  0  0
  -28.9948  -21.2412   21.8938 H   0  0  0  0  0  0
  -27.7405  -20.8232   20.7717 H   0  0  0  0  0  0
  -28.9292  -15.7030   20.8838 H   0  0  0  0  0  0
  1 25  1  0  0  0
  1 30  2  0  0  0
  1 84  1  0  0  0
  2  3  1  0  0  0
  2 25  1  0  0  0
  2 86  1  0  0  0
  2 87  1  0  0  0
  3  4  1  0  0  0
  3 88  1  0  0  0
  3 89  1  0  0  0
  4  5  1  0  0  0
  4 90  1  0  0  0
  4 91  1  0  0  0
  5  6  1  0  0  0
  5 26  1  0  0  0
  5 92  1  0  0  0
  6 25  1  0  0  0
  6 93  1  0  0  0
  6 94  1  0  0  0
  7  8  2  0  0  0
  7 26  1  0  0  0
  7 29  1  0  0  0
  8  9  1  0  0  0
  8 22  1  0  0  0
  9 10  1  0  0  0
  9 27  2  0  0  0
 10 11  2  0  0  0
 10 15  1  0  0  0
 11 12  1  0  0  0
 11 95  1  0  0  0
 12 13  2  0  0  0
 12 96  1  0  0  0
 13 14  1  0  0  0
 13 31  1  0  0  0
 14 15  2  0  0  0
 14 97  1  0  0  0
 15 98  1  0  0  0
 16 17  2  0  0  0
 16 21  1  0  0  0
 16 31  1  0  0  0
 17 18  1  0  0  0
 17 99  1  0  0  0
 18 19  2  0  0  0
 18100  1  0  0  0
 19 20  1  0  0  0
 19 24  1  0  0  0
 20 21  2  0  0  0
 20101  1  0  0  0
 21 23  1  0  0  0
 22 28  1  0  0  0
 22 32  2  0  0  0
 26 27  1  0  0  0
 28102  1  0  0  0
 28103  1  0  0  0
 29104  1  0  0  0
 29105  1  0  0  0
 33 34  1  0  0  0
 33 66  1  0  0  0
 33 70  2  0  0  0
 34 36  1  0  0  0
 34 59  1  0  0  0
 34106  1  0  0  0
 35 44  2  0  0  0
 35 45  1  0  0  0
 35 68  1  0  0  0
 36 56  1  0  0  0
 36107  1  0  0  0
 37 39  1  0  0  0
 37 47  1  0  0  0
 37 66  1  0  0  0
 37108  1  0  0  0
 38 43  2  0  0  0
 38 46  1  0  0  0
 38 47  1  0  0  0
 39 64  1  0  0  0
 39 67  2  0  0  0
 40 52  1  0  0  0
 40 53  2  0  0  0
 40 58  1  0  0  0
 41109  1  0  0  0
 41110  1  0  0  0
 41111  1  0  0  0
 41 48  1  0  0  0
 42 43  1  0  0  0
 42 66  1  0  0  0
 42112  1  0  0  0
 42113  1  0  0  0
 43 44  1  0  0  0
 44114  1  0  0  0
 45 46  2  0  0  0
 45115  1  0  0  0
 46116  1  0  0  0
 47117  1  0  0  0
 47118  1  0  0  0
 48 56  1  0  0  0
 48 65  1  0  0  0
 48119  1  0  0  0
 49 50  1  0  0  0
 49 53  1  0  0  0
 49 64  1  0  0  0
 49120  1  0  0  0
 50 51  1  0  0  0
 50121  1  0  0  0
 50122  1  0  0  0
 51 52  1  0  0  0
 51123  1  0  0  0
 51124  1  0  0  0
 52125  1  0  0  0
 52126  1  0  0  0
 53 54  1  0  0  0
 54 55  2  0  0  0
 54127  1  0  0  0
 55 57  1  0  0  0
 55128  1  0  0  0
 56 69  2  0  0  0
 57 58  2  0  0  0
 57129  1  0  0  0
 58130  1  0  0  0
 59 60  1  0  0  0
 59 61  1  0  0  0
 59 62  1  0  0  0
 60131  1  0  0  0
 60132  1  0  0  0
 60133  1  0  0  0
 61134  1  0  0  0
 61135  1  0  0  0
 61136  1  0  0  0
 62137  1  0  0  0
 62138  1  0  0  0
 62139  1  0  0  0
 63 65  1  0  0  0
 63140  1  0  0  0
 63141  1  0  0  0
 63142  1  0  0  0
 64143  1  0  0  0
 65144  1  0  0  0
 68 80  1  0  0  0
 71 72  2  0  0  0
 71 73  1  0  0  0
 71145  1  0  0  0
 72 74  1  0  0  0
 72146  1  0  0  0
 73 76  2  0  0  0
 73147  1  0  0  0
 74 75  2  0  0  0
 74 82  1  0  0  0
 75 76  1  0  0  0
 75 81  1  0  0  0
 76 84  1  0  0  0
 77 78  1  0  0  0
 77 83  1  0  0  0
 77 85  2  0  0  0
 78 80  1  0  0  0
 78148  1  0  0  0
 78149  1  0  0  0
 79 80  1  0  0  0
 79 83  1  0  0  0
 79150  1  0  0  0
 79151  1  0  0  0
 80152  1  0  0  0
 81153  1  0  0  0
 81154  1  0  0  0
 81155  1  0  0  0
 82 83  1  0  0  0
 82156  1  0  0  0
 82157  1  0  0  0
 84158  1  0  0  0
M  ISO  4   1 100  68 101  80 101  84 100
M  END
> <chiral flag>
0

> <version>
0

> <s_m_source_file>
/data/baiqing/PycharmProjects/Reinvent-master-3.2/result/LINK_invent/BTK/process_docking_weight1_custom_product_contain_oxygen_bond_distance_aromatic_linkinvent_7_9_3/rearranged_h_0026.sdf

> <i_m_source_file_index>
52

> <r_mmod_Potential_Energy-OPLS-2005>
133.281021118164

> <r_mmod_Stretch_Energy-OPLS-2005>
121.759918212891

> <r_mmod_Bend_Energy-OPLS-2005>
193.184173583984

> <r_mmod_Torsional_Energy-OPLS-2005>
235.649948120117

> <r_mmod_Improper_Torsional_Energy-OPLS-2005>
5.56194591522217

> <r_mmod_Van_der_Waal_Energy-OPLS-2005>
139.952941894531

> <r_mmod_Electrostatic_Energy-OPLS-2005>
-408.910308837891

> <r_mmod_Solvation_Energy-OPLS-2005>
-235.988159179688

> <b_mmod_Minimization_Converged-OPLS-2005>
0

> <r_mmod_RMS_Derivative-OPLS-2005>
2.21932482719421

$$$$
52
                    3D
 Structure written by MMmdl.
161170  0  0  1  0            999 V2000
  -30.7525  -14.4563   20.6136 C   0  0  0  0  0  0
  -30.4172  -12.3197   19.4147 C   0  0  0  0  0  0
  -29.4879  -12.5082   18.2004 C   0  0  0  0  0  0
  -28.0140  -12.3485   18.6184 C   0  0  0  0  0  0
  -27.6562  -13.1963   19.8661 C   0  0  2  0  0  0
  -28.7025  -13.0068   20.9897 C   0  0  0  0  0  0
  -25.2587  -13.8128   20.5676 C   0  0  0  0  0  0
  -24.1837  -13.0423   20.9190 C   0  0  0  0  0  0
  -24.6376  -11.6885   20.8741 C   0  0  0  0  0  0
  -23.9038  -10.4283   21.0410 C   0  0  0  0  0  0
  -24.3597   -9.4201   21.9185 C   0  0  0  0  0  0
  -23.6280   -8.2236   22.0754 C   0  0  0  0  0  0
  -22.4264   -8.0274   21.3545 C   0  0  0  0  0  0
  -21.9894   -9.0244   20.4645 C   0  0  0  0  0  0
  -22.7214  -10.2124   20.3056 C   0  0  0  0  0  0
  -21.6847   -6.0730   22.5279 C   0  0  0  0  0  0
  -21.4007   -6.5633   23.8211 C   0  0  0  0  0  0
  -21.3661   -5.6788   24.9174 C   0  0  0  0  0  0
  -21.6047   -4.3050   24.7227 C   0  0  0  0  0  0
  -21.8820   -3.8141   23.4347 C   0  0  0  0  0  0
  -21.9190   -4.6957   22.3403 C   0  0  0  0  0  0
  -22.7865  -13.5239   21.1847 C   0  0  0  0  0  0
  -22.1662   -4.2144   21.0979 F   0  0  0  0  0  0
  -21.5634   -3.4535   25.7742 F   0  0  0  0  0  0
  -30.0347  -13.3087   20.4373 N   0  0  0  0  0  0
  -26.3000  -12.9269   20.3335 N   0  0  0  0  0  0
  -25.9297  -11.6446   20.5759 N   0  0  0  0  0  0
  -22.0496  -12.8240   22.0401 N   0  0  0  0  0  0
  -25.4306  -15.1847   20.4069 N   0  0  0  0  0  0
  -31.8550  -14.6308   20.0844 O   0  0  0  0  0  0
  -21.6629   -6.8873   21.4241 O   0  0  0  0  0  0
  -22.3562  -14.5547   20.6690 O   0  0  0  0  0  0
  -24.6143  -31.8688   23.2115 C   0  0  0  0  0  0
  -25.9031  -32.4827   23.8414 C   0  0  1  0  0  0
  -27.2288  -27.4286   20.0931 C   0  0  0  0  0  0
  -25.5887  -33.8625   24.2341 N   0  0  0  0  0  0
  -23.4029  -30.4943   21.5525 C   0  0  2  0  0  0
  -24.8483  -28.9664   20.1127 C   0  0  0  0  0  0
  -22.7408  -29.4663   22.4985 C   0  0  0  0  0  0
  -18.0266  -28.1382   22.8494 C   0  0  0  0  0  0
  -24.1485  -36.7319   23.2638 C   0  0  0  0  0  0
  -25.9342  -30.8339   21.3660 C   0  0  0  0  0  0
  -26.0114  -29.4704   20.7081 C   0  0  0  0  0  0
  -27.2058  -28.7106   20.6928 C   0  0  0  0  0  0
  -26.0444  -26.9504   19.4815 C   0  0  0  0  0  0
  -24.8602  -27.7064   19.4957 C   0  0  0  0  0  0
  -23.6109  -29.8327   20.1653 C   0  0  0  0  0  0
  -25.4106  -36.3115   24.0340 C   0  0  1  0  0  0
  -20.5858  -28.3672   23.1315 C   0  0  2  0  0  0
  -20.6763  -26.9409   22.5416 C   0  0  0  0  0  0
  -19.5739  -26.6392   21.5214 C   0  0  0  0  0  0
  -18.1916  -26.7932   22.1624 C   0  0  0  0  0  0
  -19.1516  -28.8839   23.2904 C   0  0  0  0  0  0
  -18.9442  -30.1449   23.8913 C   0  0  0  0  0  0
  -17.6446  -30.6587   24.0567 C   0  0  0  0  0  0
  -25.9032  -34.9475   23.5139 C   0  0  0  0  0  0
  -16.5337  -29.9090   23.6325 C   0  0  0  0  0  0
  -16.7257  -28.6512   23.0346 C   0  0  0  0  0  0
  -26.4461  -31.6602   25.0737 C   0  0  0  0  0  0
  -25.3720  -31.3688   26.1478 C   0  0  0  0  0  0
  -27.0305  -30.3049   24.6121 C   0  0  0  0  0  0
  -27.6047  -32.4317   25.7475 C   0  0  0  0  0  0
  -27.5584  -37.1810   24.8464 C   0  0  0  0  0  0
  -21.4133  -29.3039   22.3723 N   0  0  0  0  0  0
  -26.4298  -37.3795   23.9408 N   0  0  0  0  0  0
  -24.6689  -31.0790   22.1018 N   0  0  0  0  0  0
  -23.4179  -28.8197   23.3021 O   0  0  0  0  0  0
  -28.3836  -26.6656   20.1298 O   0  0  0  0  0  0
  -26.5595  -34.8916   22.4703 O   0  0  0  0  0  0
  -23.5336  -32.1438   23.7506 O   0  0  0  0  0  0
  -30.0359  -18.3375   19.8430 C   0  0  0  0  0  0
  -30.1670  -19.7390   19.7142 C   0  0  0  0  0  0
  -29.1047  -20.0353   21.8709 C   0  0  0  0  0  0
  -29.4089  -17.7729   20.9741 C   0  0  0  0  0  0
  -29.6733  -20.6230   20.7096 C   0  0  0  0  0  0
  -28.9647  -18.6368   21.9985 C   0  0  0  0  0  0
  -29.0235  -23.0198   21.1233 C   0  0  0  0  0  0
  -30.5029  -24.1817   19.6309 C   0  0  0  0  0  0
  -30.6345  -22.6537   19.5095 C   0  0  0  0  0  0
  -29.4017  -24.4342   20.6641 C   0  0  1  0  0  0
  -31.1381  -15.9569   22.4818 C   0  0  0  0  0  0
  -29.1388  -16.2632   21.0481 C   0  0  0  0  0  0
  -28.1884  -25.2364   20.1278 C   0  0  0  0  0  0
  -29.7646  -22.0580   20.5243 N   0  0  0  0  0  0
  -30.2519  -15.3844   21.4650 N   0  0  0  0  0  0
  -28.1290  -22.8420   21.9568 O   0  0  0  0  0  0
  -28.3796  -18.1270   23.1088 F   0  0  0  0  0  0
  -31.4606  -12.4117   19.1079 H   0  0  0  0  0  0
  -30.3191  -11.3107   19.8183 H   0  0  0  0  0  0
  -29.7351  -11.7855   17.4217 H   0  0  0  0  0  0
  -29.6445  -13.4959   17.7635 H   0  0  0  0  0  0
  -27.8410  -11.2919   18.8271 H   0  0  0  0  0  0
  -27.3567  -12.6047   17.7866 H   0  0  0  0  0  0
  -27.6791  -14.2305   19.5366 H   0  0  0  0  0  0
  -28.6858  -11.9776   21.3515 H   0  0  0  0  0  0
  -28.4548  -13.6206   21.8561 H   0  0  0  0  0  0
  -25.2743   -9.5681   22.4753 H   0  0  0  0  0  0
  -23.9996   -7.4627   22.7470 H   0  0  0  0  0  0
  -21.0830   -8.8755   19.8947 H   0  0  0  0  0  0
  -22.3675  -10.9663   19.6163 H   0  0  0  0  0  0
  -21.1992   -7.6141   23.9716 H   0  0  0  0  0  0
  -21.1487   -6.0515   25.9078 H   0  0  0  0  0  0
  -22.0597   -2.7605   23.2847 H   0  0  0  0  0  0
  -22.4107  -11.9909   22.4808 H   0  0  0  0  0  0
  -21.1107  -13.1266   22.2578 H   0  0  0  0  0  0
  -24.6612  -15.8367   20.5153 H   0  0  0  0  0  0
  -26.2758  -15.6253   20.0692 H   0  0  0  0  0  0
  -26.7106  -32.5540   23.1187 H   0  0  0  0  0  0
  -25.0013  -33.9790   25.0470 H   0  0  0  0  0  0
  -22.6915  -31.3113   21.4162 H   0  0  0  0  0  0
  -23.3738  -35.9662   23.3310 H   0  0  0  0  0  0
  -24.3577  -36.8929   22.2051 H   0  0  0  0  0  0
  -23.7248  -37.6532   23.6646 H   0  0  0  0  0  0
  -26.0481  -31.6030   20.6006 H   0  0  0  0  0  0
  -26.8210  -30.8850   21.9860 H   0  0  0  0  0  0
  -28.1027  -29.0936   21.1603 H   0  0  0  0  0  0
  -26.0121  -25.9902   18.9884 H   0  0  0  0  0  0
  -23.9669  -27.3148   19.0282 H   0  0  0  0  0  0
  -23.7202  -30.6105   19.4084 H   0  0  0  0  0  0
  -22.7338  -29.2550   19.8680 H   0  0  0  0  0  0
  -25.1282  -36.1989   25.0834 H   0  0  0  0  0  0
  -20.9949  -28.3246   24.1436 H   0  0  0  0  0  0
  -20.5679  -26.2277   23.3601 H   0  0  0  0  0  0
  -21.6634  -26.7462   22.1198 H   0  0  0  0  0  0
  -19.6900  -25.6307   21.1234 H   0  0  0  0  0  0
  -19.6674  -27.3209   20.6751 H   0  0  0  0  0  0
  -17.4185  -26.6669   21.4026 H   0  0  0  0  0  0
  -18.0319  -26.0076   22.9023 H   0  0  0  0  0  0
  -19.7918  -30.7262   24.2291 H   0  0  0  0  0  0
  -17.5000  -31.6264   24.5174 H   0  0  0  0  0  0
  -15.5343  -30.2999   23.7645 H   0  0  0  0  0  0
  -15.8655  -28.0846   22.7042 H   0  0  0  0  0  0
  -24.5895  -30.7043   25.7798 H   0  0  0  0  0  0
  -24.8894  -32.2829   26.4947 H   0  0  0  0  0  0
  -25.8064  -30.8831   27.0226 H   0  0  0  0  0  0
  -26.2866  -29.6792   24.1181 H   0  0  0  0  0  0
  -27.4094  -29.7302   25.4586 H   0  0  0  0  0  0
  -27.8686  -30.4381   23.9274 H   0  0  0  0  0  0
  -27.2698  -33.3622   26.2072 H   0  0  0  0  0  0
  -28.3826  -32.6877   25.0265 H   0  0  0  0  0  0
  -28.0755  -31.8429   26.5360 H   0  0  0  0  0  0
  -28.2605  -38.0105   24.7521 H   0  0  0  0  0  0
  -28.1084  -36.2640   24.6289 H   0  0  0  0  0  0
  -27.2299  -37.1464   25.8866 H   0  0  0  0  0  0
  -20.9292  -29.8781   21.6963 H   0  0  0  0  0  0
  -26.0191  -38.2878   24.1406 H   0  0  0  0  0  0
  -30.3895  -17.6967   19.0467 H   0  0  0  0  0  0
  -30.6300  -20.1180   18.8142 H   0  0  0  0  0  0
  -28.7501  -20.6408   22.6901 H   0  0  0  0  0  0
  -30.2671  -24.6292   18.6644 H   0  0  0  0  0  0
  -31.4412  -24.6254   19.9652 H   0  0  0  0  0  0
  -31.6681  -22.3355   19.6525 H   0  0  0  0  0  0
  -30.3135  -22.3351   18.5166 H   0  0  0  0  0  0
  -29.8133  -24.9467   21.5337 H   0  0  0  0  0  0
  -30.5649  -16.4459   23.2697 H   0  0  0  0  0  0
  -31.8130  -16.6920   22.0407 H   0  0  0  0  0  0
  -31.7460  -15.1836   22.9548 H   0  0  0  0  0  0
  -28.7948  -15.9842   20.0532 H   0  0  0  0  0  0
  -28.2931  -16.0796   21.7114 H   0  0  0  0  0  0
  -27.3208  -25.0023   20.7484 H   0  0  0  0  0  0
  -27.9515  -24.8993   19.1178 H   0  0  0  0  0  0
  1 25  1  0  0  0
  1 30  2  0  0  0
  1 85  1  0  0  0
  2  3  1  0  0  0
  2 25  1  0  0  0
  2 88  1  0  0  0
  2 89  1  0  0  0
  3  4  1  0  0  0
  3 90  1  0  0  0
  3 91  1  0  0  0
  4  5  1  0  0  0
  4 92  1  0  0  0
  4 93  1  0  0  0
  5  6  1  0  0  0
  5 26  1  0  0  0
  5 94  1  0  0  0
  6 25  1  0  0  0
  6 95  1  0  0  0
  6 96  1  0  0  0
  7  8  2  0  0  0
  7 26  1  0  0  0
  7 29  1  0  0  0
  8  9  1  0  0  0
  8 22  1  0  0  0
  9 10  1  0  0  0
  9 27  2  0  0  0
 10 11  2  0  0  0
 10 15  1  0  0  0
 11 12  1  0  0  0
 11 97  1  0  0  0
 12 13  2  0  0  0
 12 98  1  0  0  0
 13 14  1  0  0  0
 13 31  1  0  0  0
 14 15  2  0  0  0
 14 99  1  0  0  0
 15100  1  0  0  0
 16 17  2  0  0  0
 16 21  1  0  0  0
 16 31  1  0  0  0
 17 18  1  0  0  0
 17101  1  0  0  0
 18 19  2  0  0  0
 18102  1  0  0  0
 19 20  1  0  0  0
 19 24  1  0  0  0
 20 21  2  0  0  0
 20103  1  0  0  0
 21 23  1  0  0  0
 22 28  1  0  0  0
 22 32  2  0  0  0
 26 27  1  0  0  0
 28104  1  0  0  0
 28105  1  0  0  0
 29106  1  0  0  0
 29107  1  0  0  0
 33 34  1  0  0  0
 33 66  1  0  0  0
 33 70  2  0  0  0
 34 36  1  0  0  0
 34 59  1  0  0  0
 34108  1  0  0  0
 35 44  2  0  0  0
 35 45  1  0  0  0
 35 68  1  0  0  0
 36 56  1  0  0  0
 36109  1  0  0  0
 37 39  1  0  0  0
 37 47  1  0  0  0
 37 66  1  0  0  0
 37110  1  0  0  0
 38 43  2  0  0  0
 38 46  1  0  0  0
 38 47  1  0  0  0
 39 64  1  0  0  0
 39 67  2  0  0  0
 40 52  1  0  0  0
 40 53  2  0  0  0
 40 58  1  0  0  0
 41111  1  0  0  0
 41112  1  0  0  0
 41113  1  0  0  0
 41 48  1  0  0  0
 42 43  1  0  0  0
 42 66  1  0  0  0
 42114  1  0  0  0
 42115  1  0  0  0
 43 44  1  0  0  0
 44116  1  0  0  0
 45 46  2  0  0  0
 45117  1  0  0  0
 46118  1  0  0  0
 47119  1  0  0  0
 47120  1  0  0  0
 48 56  1  0  0  0
 48 65  1  0  0  0
 48121  1  0  0  0
 49 50  1  0  0  0
 49 53  1  0  0  0
 49 64  1  0  0  0
 49122  1  0  0  0
 50 51  1  0  0  0
 50123  1  0  0  0
 50124  1  0  0  0
 51 52  1  0  0  0
 51125  1  0  0  0
 51126  1  0  0  0
 52127  1  0  0  0
 52128  1  0  0  0
 53 54  1  0  0  0
 54 55  2  0  0  0
 54129  1  0  0  0
 55 57  1  0  0  0
 55130  1  0  0  0
 56 69  2  0  0  0
 57 58  2  0  0  0
 57131  1  0  0  0
 58132  1  0  0  0
 59 60  1  0  0  0
 59 61  1  0  0  0
 59 62  1  0  0  0
 60133  1  0  0  0
 60134  1  0  0  0
 60135  1  0  0  0
 61136  1  0  0  0
 61137  1  0  0  0
 61138  1  0  0  0
 62139  1  0  0  0
 62140  1  0  0  0
 62141  1  0  0  0
 63 65  1  0  0  0
 63142  1  0  0  0
 63143  1  0  0  0
 63144  1  0  0  0
 64145  1  0  0  0
 65146  1  0  0  0
 68 83  1  0  0  0
 71 72  2  0  0  0
 71 74  1  0  0  0
 71147  1  0  0  0
 72 75  1  0  0  0
 72148  1  0  0  0
 73 75  2  0  0  0
 73 76  1  0  0  0
 73149  1  0  0  0
 74 76  2  0  0  0
 74 82  1  0  0  0
 75 84  1  0  0  0
 76 87  1  0  0  0
 77 80  1  0  0  0
 77 84  1  0  0  0
 77 86  2  0  0  0
 78 79  1  0  0  0
 78 80  1  0  0  0
 78150  1  0  0  0
 78151  1  0  0  0
 79 84  1  0  0  0
 79152  1  0  0  0
 79153  1  0  0  0
 80 83  1  0  0  0
 80154  1  0  0  0
 81 85  1  0  0  0
 81155  1  0  0  0
 81156  1  0  0  0
 81157  1  0  0  0
 82 85  1  0  0  0
 82158  1  0  0  0
 82159  1  0  0  0
 83160  1  0  0  0
 83161  1  0  0  0
M  ISO  4   1 100  68 101  83 101  85 100
M  END
> <chiral flag>
0

> <version>
0

> <s_m_source_file>
/data/baiqing/PycharmProjects/Reinvent-master-3.2/result/LINK_invent/BTK/process_docking_weight1_custom_product_contain_oxygen_bond_distance_aromatic_linkinvent_7_9_3/rearranged_h_0026.sdf

> <i_m_source_file_index>
53

> <r_mmod_Potential_Energy-OPLS-2005>
182.762313842773

> <r_mmod_Stretch_Energy-OPLS-2005>
43.021556854248

> <r_mmod_Bend_Energy-OPLS-2005>
118.348907470703

> <r_mmod_Torsional_Energy-OPLS-2005>
325.863372802734

> <r_mmod_Improper_Torsional_Energy-OPLS-2005>
4.27722358703613

> <r_mmod_Van_der_Waal_Energy-OPLS-2005>
162.970443725586

> <r_mmod_Electrostatic_Energy-OPLS-2005>
-281.097045898438

> <r_mmod_Solvation_Energy-OPLS-2005>
-204.325057983398

> <b_mmod_Minimization_Converged-OPLS-2005>
0

> <r_mmod_RMS_Derivative-OPLS-2005>
0.936352014541626

$$$$
53
                    3D
 Structure written by MMmdl.
162171  0  0  1  0            999 V2000
  -30.6244  -14.6429   20.4906 C   0  0  0  0  0  0
  -30.4420  -12.3946   19.4481 C   0  0  0  0  0  0
  -29.5105  -12.4992   18.2199 C   0  0  0  0  0  0
  -28.0315  -12.3439   18.6293 C   0  0  0  0  0  0
  -27.6516  -13.2148   19.8563 C   0  0  2  0  0  0
  -28.6978  -13.0764   20.9861 C   0  0  0  0  0  0
  -25.2493  -13.8105   20.5534 C   0  0  0  0  0  0
  -24.1810  -13.0397   20.9215 C   0  0  0  0  0  0
  -24.6408  -11.6890   20.8794 C   0  0  0  0  0  0
  -23.9069  -10.4281   21.0451 C   0  0  0  0  0  0
  -24.3622   -9.4187   21.9209 C   0  0  0  0  0  0
  -23.6302   -8.2220   22.0753 C   0  0  0  0  0  0
  -22.4279   -8.0272   21.3547 C   0  0  0  0  0  0
  -21.9927   -9.0251   20.4641 C   0  0  0  0  0  0
  -22.7262  -10.2126   20.3071 C   0  0  0  0  0  0
  -21.6833   -6.0736   22.5289 C   0  0  0  0  0  0
  -21.3997   -6.5640   23.8225 C   0  0  0  0  0  0
  -21.3659   -5.6787   24.9184 C   0  0  0  0  0  0
  -21.6046   -4.3050   24.7226 C   0  0  0  0  0  0
  -21.8822   -3.8147   23.4344 C   0  0  0  0  0  0
  -21.9195   -4.6967   22.3408 C   0  0  0  0  0  0
  -22.7834  -13.5203   21.1880 C   0  0  0  0  0  0
  -22.1661   -4.2156   21.0984 F   0  0  0  0  0  0
  -21.5645   -3.4529   25.7740 F   0  0  0  0  0  0
  -30.0143  -13.4167   20.4227 N   0  0  0  0  0  0
  -26.2971  -12.9317   20.3261 N   0  0  0  0  0  0
  -25.9336  -11.6489   20.5790 N   0  0  0  0  0  0
  -22.0456  -12.8223   22.0436 N   0  0  0  0  0  0
  -25.4051  -15.1766   20.3587 N   0  0  0  0  0  0
  -31.7894  -14.7991   20.1161 O   0  0  0  0  0  0
  -21.6633   -6.8873   21.4246 O   0  0  0  0  0  0
  -22.3548  -14.5522   20.6724 O   0  0  0  0  0  0
  -24.6275  -31.8604   23.2053 C   0  0  0  0  0  0
  -25.9119  -32.4785   23.8382 C   0  0  1  0  0  0
  -27.2200  -27.3261   20.1071 C   0  0  0  0  0  0
  -25.5943  -33.8586   24.2332 N   0  0  0  0  0  0
  -23.4216  -30.4898   21.5441 C   0  0  2  0  0  0
  -24.8648  -28.9493   20.1103 C   0  0  0  0  0  0
  -22.7481  -29.4650   22.4889 C   0  0  0  0  0  0
  -18.0289  -28.1403   22.8505 C   0  0  0  0  0  0
  -24.1487  -36.7267   23.2638 C   0  0  0  0  0  0
  -25.9639  -30.7953   21.3738 C   0  0  0  0  0  0
  -26.0362  -29.4250   20.7129 C   0  0  0  0  0  0
  -27.2187  -28.6272   20.6984 C   0  0  0  0  0  0
  -26.0188  -26.9022   19.4896 C   0  0  0  0  0  0
  -24.8575  -27.6922   19.4909 C   0  0  0  0  0  0
  -23.6363  -29.8316   20.1565 C   0  0  0  0  0  0
  -25.4113  -36.3088   24.0352 C   0  0  1  0  0  0
  -20.5895  -28.3718   23.1260 C   0  0  2  0  0  0
  -20.6787  -26.9440   22.5398 C   0  0  0  0  0  0
  -19.5764  -26.6404   21.5206 C   0  0  0  0  0  0
  -18.1940  -26.7968   22.1611 C   0  0  0  0  0  0
  -19.1545  -28.8874   23.2894 C   0  0  0  0  0  0
  -18.9472  -30.1468   23.8926 C   0  0  0  0  0  0
  -17.6478  -30.6614   24.0580 C   0  0  0  0  0  0
  -25.9048  -34.9458   23.5137 C   0  0  0  0  0  0
  -16.5362  -29.9128   23.6334 C   0  0  0  0  0  0
  -16.7281  -28.6532   23.0376 C   0  0  0  0  0  0
  -26.4508  -31.6583   25.0739 C   0  0  0  0  0  0
  -25.3758  -31.3703   26.1474 C   0  0  0  0  0  0
  -27.0334  -30.3017   24.6153 C   0  0  0  0  0  0
  -27.6100  -32.4278   25.7496 C   0  0  0  0  0  0
  -27.5592  -37.1792   24.8470 C   0  0  0  0  0  0
  -21.4184  -29.3083   22.3652 N   0  0  0  0  0  0
  -26.4288  -37.3786   23.9438 N   0  0  0  0  0  0
  -24.6897  -31.0642   22.0982 N   0  0  0  0  0  0
  -23.4204  -28.8159   23.2943 O   0  0  0  0  0  0
  -28.3408  -26.4809   20.1373 O   0  0  0  0  0  0
  -26.5584  -34.8921   22.4689 O   0  0  0  0  0  0
  -23.5441  -32.1371   23.7393 O   0  0  0  0  0  0
  -28.8362  -19.3968   20.9540 C   0  0  0  0  0  0
  -31.0506  -17.8457   20.2301 C   0  0  0  0  0  0
  -28.7935  -17.9729   21.0649 C   0  0  0  0  0  0
  -29.9908  -20.0941   20.5209 C   0  0  0  0  0  0
  -29.9053  -17.1489   20.7024 C   0  0  0  0  0  0
  -31.0963  -19.2695   20.1509 C   0  0  0  0  0  0
  -31.4048  -23.4199   21.5425 C   0  0  0  0  0  0
  -30.1841  -24.3529   21.4896 C   0  0  0  0  0  0
  -30.9933  -21.9400   21.6404 C   0  0  0  0  0  0
  -28.9342  -22.4506   20.3492 C   0  0  0  0  0  0
  -29.3067  -24.0057   20.2807 C   0  0  1  0  0  0
  -27.5061  -17.3771   21.6114 C   0  0  0  0  0  0
  -28.0922  -25.0205   20.1496 C   0  0  0  0  0  0
  -30.1017  -21.5324   20.5486 N   0  0  0  0  0  0
  -29.8046  -15.6895   20.8267 N   0  0  0  0  0  0
  -32.2438  -19.8487   19.7170 F   0  0  0  0  0  0
  -31.4810  -12.5275   19.1420 H   0  0  0  0  0  0
  -30.3885  -11.3996   19.8942 H   0  0  0  0  0  0
  -29.7768  -11.7390   17.4842 H   0  0  0  0  0  0
  -29.6545  -13.4626   17.7275 H   0  0  0  0  0  0
  -27.8650  -11.2907   18.8575 H   0  0  0  0  0  0
  -27.3801  -12.5765   17.7853 H   0  0  0  0  0  0
  -27.6658  -14.2495   19.5135 H   0  0  0  0  0  0
  -28.7097  -12.0575   21.3778 H   0  0  0  0  0  0
  -28.4412  -13.7149   21.8322 H   0  0  0  0  0  0
  -25.2763   -9.5660   22.4793 H   0  0  0  0  0  0
  -24.0014   -7.4590   22.7456 H   0  0  0  0  0  0
  -21.0866   -8.8776   19.8930 H   0  0  0  0  0  0
  -22.3744  -10.9670   19.6178 H   0  0  0  0  0  0
  -21.1964   -7.6147   23.9735 H   0  0  0  0  0  0
  -21.1478   -6.0509   25.9092 H   0  0  0  0  0  0
  -22.0600   -2.7611   23.2839 H   0  0  0  0  0  0
  -22.4030  -11.9877   22.4850 H   0  0  0  0  0  0
  -21.1073  -13.1270   22.2610 H   0  0  0  0  0  0
  -24.5945  -15.7854   20.3699 H   0  0  0  0  0  0
  -26.1829  -15.5682   19.8446 H   0  0  0  0  0  0
  -26.7188  -32.5450   23.1134 H   0  0  0  0  0  0
  -25.0185  -33.9734   25.0539 H   0  0  0  0  0  0
  -22.7183  -31.3130   21.4034 H   0  0  0  0  0  0
  -23.3775  -35.9566   23.3274 H   0  0  0  0  0  0
  -24.3603  -36.8889   22.2057 H   0  0  0  0  0  0
  -23.7195  -37.6459   23.6640 H   0  0  0  0  0  0
  -26.0987  -31.5612   20.6095 H   0  0  0  0  0  0
  -26.8440  -30.8395   22.0026 H   0  0  0  0  0  0
  -28.1200  -28.9951   21.1691 H   0  0  0  0  0  0
  -25.9388  -25.9485   18.9910 H   0  0  0  0  0  0
  -23.9612  -27.3257   19.0095 H   0  0  0  0  0  0
  -23.7633  -30.6113   19.4037 H   0  0  0  0  0  0
  -22.7567  -29.2631   19.8487 H   0  0  0  0  0  0
  -25.1294  -36.1943   25.0842 H   0  0  0  0  0  0
  -21.0014  -28.3293   24.1367 H   0  0  0  0  0  0
  -20.5680  -26.2332   23.3600 H   0  0  0  0  0  0
  -21.6654  -26.7478   22.1175 H   0  0  0  0  0  0
  -19.6912  -25.6306   21.1255 H   0  0  0  0  0  0
  -19.6706  -27.3202   20.6726 H   0  0  0  0  0  0
  -17.4214  -26.6732   21.4001 H   0  0  0  0  0  0
  -18.0329  -26.0118   22.9006 H   0  0  0  0  0  0
  -19.7947  -30.7277   24.2309 H   0  0  0  0  0  0
  -17.5038  -31.6305   24.5170 H   0  0  0  0  0  0
  -15.5368  -30.3050   23.7641 H   0  0  0  0  0  0
  -15.8673  -28.0852   22.7089 H   0  0  0  0  0  0
  -24.5971  -30.7000   25.7813 H   0  0  0  0  0  0
  -24.8897  -32.2848   26.4880 H   0  0  0  0  0  0
  -25.8118  -30.8923   27.0252 H   0  0  0  0  0  0
  -26.2882  -29.6774   24.1208 H   0  0  0  0  0  0
  -27.4094  -29.7267   25.4622 H   0  0  0  0  0  0
  -27.8732  -30.4335   23.9332 H   0  0  0  0  0  0
  -27.2777  -33.3618   26.2034 H   0  0  0  0  0  0
  -28.3938  -32.6742   25.0322 H   0  0  0  0  0  0
  -28.0716  -31.8390   26.5436 H   0  0  0  0  0  0
  -28.2586  -38.0111   24.7577 H   0  0  0  0  0  0
  -28.1116  -36.2662   24.6227 H   0  0  0  0  0  0
  -27.2326  -37.1347   25.8870 H   0  0  0  0  0  0
  -20.9331  -29.8861   21.6924 H   0  0  0  0  0  0
  -26.0173  -38.2851   24.1471 H   0  0  0  0  0  0
  -27.9658  -19.9607   21.2559 H   0  0  0  0  0  0
  -31.9335  -17.3018   19.9341 H   0  0  0  0  0  0
  -32.0284  -23.6826   22.3987 H   0  0  0  0  0  0
  -32.0244  -23.5714   20.6569 H   0  0  0  0  0  0
  -30.5136  -25.3904   21.4253 H   0  0  0  0  0  0
  -29.6012  -24.2684   22.4091 H   0  0  0  0  0  0
  -30.4926  -21.7585   22.5941 H   0  0  0  0  0  0
  -31.9007  -21.3341   21.6513 H   0  0  0  0  0  0
  -28.4172  -22.1624   19.4320 H   0  0  0  0  0  0
  -28.2193  -22.2922   21.1585 H   0  0  0  0  0  0
  -29.9181  -24.1460   19.3868 H   0  0  0  0  0  0
  -27.2045  -17.8966   22.5220 H   0  0  0  0  0  0
  -27.5806  -16.3196   21.8586 H   0  0  0  0  0  0
  -26.7040  -17.5063   20.8850 H   0  0  0  0  0  0
  -27.3873  -24.8166   20.9579 H   0  0  0  0  0  0
  -27.5941  -24.7347   19.2254 H   0  0  0  0  0  0
  -28.8980  -15.3689   21.1271 H   0  0  0  0  0  0
  1 25  1  0  0  0
  1 30  2  0  0  0
  1 85  1  0  0  0
  2  3  1  0  0  0
  2 25  1  0  0  0
  2 87  1  0  0  0
  2 88  1  0  0  0
  3  4  1  0  0  0
  3 89  1  0  0  0
  3 90  1  0  0  0
  4  5  1  0  0  0
  4 91  1  0  0  0
  4 92  1  0  0  0
  5  6  1  0  0  0
  5 26  1  0  0  0
  5 93  1  0  0  0
  6 25  1  0  0  0
  6 94  1  0  0  0
  6 95  1  0  0  0
  7  8  2  0  0  0
  7 26  1  0  0  0
  7 29  1  0  0  0
  8  9  1  0  0  0
  8 22  1  0  0  0
  9 10  1  0  0  0
  9 27  2  0  0  0
 10 11  2  0  0  0
 10 15  1  0  0  0
 11 12  1  0  0  0
 11 96  1  0  0  0
 12 13  2  0  0  0
 12 97  1  0  0  0
 13 14  1  0  0  0
 13 31  1  0  0  0
 14 15  2  0  0  0
 14 98  1  0  0  0
 15 99  1  0  0  0
 16 17  2  0  0  0
 16 21  1  0  0  0
 16 31  1  0  0  0
 17 18  1  0  0  0
 17100  1  0  0  0
 18 19  2  0  0  0
 18101  1  0  0  0
 19 20  1  0  0  0
 19 24  1  0  0  0
 20 21  2  0  0  0
 20102  1  0  0  0
 21 23  1  0  0  0
 22 28  1  0  0  0
 22 32  2  0  0  0
 26 27  1  0  0  0
 28103  1  0  0  0
 28104  1  0  0  0
 29105  1  0  0  0
 29106  1  0  0  0
 33 34  1  0  0  0
 33 66  1  0  0  0
 33 70  2  0  0  0
 34 36  1  0  0  0
 34 59  1  0  0  0
 34107  1  0  0  0
 35 44  2  0  0  0
 35 45  1  0  0  0
 35 68  1  0  0  0
 36 56  1  0  0  0
 36108  1  0  0  0
 37 39  1  0  0  0
 37 47  1  0  0  0
 37 66  1  0  0  0
 37109  1  0  0  0
 38 43  2  0  0  0
 38 46  1  0  0  0
 38 47  1  0  0  0
 39 64  1  0  0  0
 39 67  2  0  0  0
 40 52  1  0  0  0
 40 53  2  0  0  0
 40 58  1  0  0  0
 41110  1  0  0  0
 41111  1  0  0  0
 41112  1  0  0  0
 41 48  1  0  0  0
 42 43  1  0  0  0
 42 66  1  0  0  0
 42113  1  0  0  0
 42114  1  0  0  0
 43 44  1  0  0  0
 44115  1  0  0  0
 45 46  2  0  0  0
 45116  1  0  0  0
 46117  1  0  0  0
 47118  1  0  0  0
 47119  1  0  0  0
 48 56  1  0  0  0
 48 65  1  0  0  0
 48120  1  0  0  0
 49 50  1  0  0  0
 49 53  1  0  0  0
 49 64  1  0  0  0
 49121  1  0  0  0
 50 51  1  0  0  0
 50122  1  0  0  0
 50123  1  0  0  0
 51 52  1  0  0  0
 51124  1  0  0  0
 51125  1  0  0  0
 52126  1  0  0  0
 52127  1  0  0  0
 53 54  1  0  0  0
 54 55  2  0  0  0
 54128  1  0  0  0
 55 57  1  0  0  0
 55129  1  0  0  0
 56 69  2  0  0  0
 57 58  2  0  0  0
 57130  1  0  0  0
 58131  1  0  0  0
 59 60  1  0  0  0
 59 61  1  0  0  0
 59 62  1  0  0  0
 60132  1  0  0  0
 60133  1  0  0  0
 60134  1  0  0  0
 61135  1  0  0  0
 61136  1  0  0  0
 61137  1  0  0  0
 62138  1  0  0  0
 62139  1  0  0  0
 62140  1  0  0  0
 63 65  1  0  0  0
 63141  1  0  0  0
 63142  1  0  0  0
 63143  1  0  0  0
 64144  1  0  0  0
 65145  1  0  0  0
 68 83  1  0  0  0
 71 73  2  0  0  0
 71 74  1  0  0  0
 71146  1  0  0  0
 72 75  2  0  0  0
 72 76  1  0  0  0
 72147  1  0  0  0
 73 75  1  0  0  0
 73 82  1  0  0  0
 74 76  2  0  0  0
 74 84  1  0  0  0
 75 85  1  0  0  0
 76 86  1  0  0  0
 77 78  1  0  0  0
 77 79  1  0  0  0
 77148  1  0  0  0
 77149  1  0  0  0
 78 81  1  0  0  0
 78150  1  0  0  0
 78151  1  0  0  0
 79 84  1  0  0  0
 79152  1  0  0  0
 79153  1  0  0  0
 80 81  1  0  0  0
 80 84  1  0  0  0
 80154  1  0  0  0
 80155  1  0  0  0
 81 83  1  0  0  0
 81156  1  0  0  0
 82157  1  0  0  0
 82158  1  0  0  0
 82159  1  0  0  0
 83160  1  0  0  0
 83161  1  0  0  0
 85162  1  0  0  0
M  ISO  4   1 100  68 101  83 101  85 100
M  END
> <chiral flag>
0

> <version>
0

> <s_m_source_file>
/data/baiqing/PycharmProjects/Reinvent-master-3.2/result/LINK_invent/BTK/process_docking_weight1_custom_product_contain_oxygen_bond_distance_aromatic_linkinvent_7_9_3/rearranged_h_0026.sdf

> <i_m_source_file_index>
54

> <r_mmod_Potential_Energy-OPLS-2005>
132.766906738281

> <r_mmod_Stretch_Energy-OPLS-2005>
80.7034683227539

> <r_mmod_Bend_Energy-OPLS-2005>
138.797119140625

> <r_mmod_Torsional_Energy-OPLS-2005>
254.953247070312

> <r_mmod_Improper_Torsional_Energy-OPLS-2005>
9.65787982940674

> <r_mmod_Van_der_Waal_Energy-OPLS-2005>
153.396713256836

> <r_mmod_Electrostatic_Energy-OPLS-2005>
-338.335754394531

> <r_mmod_Solvation_Energy-OPLS-2005>
-214.400680541992

> <b_mmod_Minimization_Converged-OPLS-2005>
0

> <r_mmod_RMS_Derivative-OPLS-2005>
2.40901875495911

$$$$
54
                    3D
 Structure written by MMmdl.
158167  0  0  1  0            999 V2000
  -30.6249  -14.5584   20.4878 C   0  0  0  0  0  0
  -30.4415  -12.3418   19.4238 C   0  0  0  0  0  0
  -29.4943  -12.4858   18.2119 C   0  0  0  0  0  0
  -28.0140  -12.3388   18.6242 C   0  0  0  0  0  0
  -27.6519  -13.1914   19.8646 C   0  0  2  0  0  0
  -28.7039  -13.0042   20.9820 C   0  0  0  0  0  0
  -25.2543  -13.8108   20.5694 C   0  0  0  0  0  0
  -24.1767  -13.0422   20.9233 C   0  0  0  0  0  0
  -24.6333  -11.6888   20.8816 C   0  0  0  0  0  0
  -23.9044  -10.4254   21.0416 C   0  0  0  0  0  0
  -24.3595   -9.4135   21.9160 C   0  0  0  0  0  0
  -23.6266   -8.2168   22.0739 C   0  0  0  0  0  0
  -22.4268   -8.0229   21.3504 C   0  0  0  0  0  0
  -21.9929   -9.0216   20.4598 C   0  0  0  0  0  0
  -22.7257  -10.2108   20.3026 C   0  0  0  0  0  0
  -21.6792   -6.0715   22.5257 C   0  0  0  0  0  0
  -21.3977   -6.5611   23.8205 C   0  0  0  0  0  0
  -21.3653   -5.6775   24.9169 C   0  0  0  0  0  0
  -21.6052   -4.3045   24.7216 C   0  0  0  0  0  0
  -21.8792   -3.8136   23.4328 C   0  0  0  0  0  0
  -21.9166   -4.6947   22.3385 C   0  0  0  0  0  0
  -22.7781  -13.5231   21.1828 C   0  0  0  0  0  0
  -22.1625   -4.2132   21.0959 F   0  0  0  0  0  0
  -21.5679   -3.4544   25.7743 F   0  0  0  0  0  0
  -30.0264  -13.3355   20.4184 N   0  0  0  0  0  0
  -26.2957  -12.9241   20.3318 N   0  0  0  0  0  0
  -25.9242  -11.6433   20.5783 N   0  0  0  0  0  0
  -22.0415  -12.8246   22.0390 N   0  0  0  0  0  0
  -25.4278  -15.1811   20.3961 N   0  0  0  0  0  0
  -31.7995  -14.7609   20.1690 O   0  0  0  0  0  0
  -21.6594   -6.8838   21.4217 O   0  0  0  0  0  0
  -22.3456  -14.5521   20.6633 O   0  0  0  0  0  0
  -24.6159  -31.8706   23.2144 C   0  0  0  0  0  0
  -25.9044  -32.4812   23.8427 C   0  0  1  0  0  0
  -27.2274  -27.4151   20.1063 C   0  0  0  0  0  0
  -25.5947  -33.8609   24.2375 N   0  0  0  0  0  0
  -23.4024  -30.4929   21.5595 C   0  0  2  0  0  0
  -24.8398  -28.9561   20.1237 C   0  0  0  0  0  0
  -22.7501  -29.4620   22.5079 C   0  0  0  0  0  0
  -18.0297  -28.1476   22.8657 C   0  0  0  0  0  0
  -24.1504  -36.7267   23.2649 C   0  0  0  0  0  0
  -25.9363  -30.8270   21.3770 C   0  0  0  0  0  0
  -26.0051  -29.4645   20.7107 C   0  0  0  0  0  0
  -27.2000  -28.7059   20.6922 C   0  0  0  0  0  0
  -26.0264  -26.9065   19.5565 C   0  0  0  0  0  0
  -24.8460  -27.6721   19.5501 C   0  0  0  0  0  0
  -23.6053  -29.8309   20.1713 C   0  0  0  0  0  0
  -25.4132  -36.3097   24.0359 C   0  0  1  0  0  0
  -20.5937  -28.3623   23.1333 C   0  0  2  0  0  0
  -20.6857  -26.9467   22.5132 C   0  0  0  0  0  0
  -19.5563  -26.6539   21.5196 C   0  0  0  0  0  0
  -18.1918  -26.7912   22.2034 C   0  0  0  0  0  0
  -19.1602  -28.8931   23.2936 C   0  0  0  0  0  0
  -18.9594  -30.1652   23.8785 C   0  0  0  0  0  0
  -17.6595  -30.6769   24.0490 C   0  0  0  0  0  0
  -25.9071  -34.9442   23.5150 C   0  0  0  0  0  0
  -16.5432  -29.9216   23.6519 C   0  0  0  0  0  0
  -16.7304  -28.6620   23.0614 C   0  0  0  0  0  0
  -26.4495  -31.6623   25.0783 C   0  0  0  0  0  0
  -25.3783  -31.3653   26.1555 C   0  0  0  0  0  0
  -27.0324  -30.3059   24.6208 C   0  0  0  0  0  0
  -27.6077  -32.4333   25.7544 C   0  0  0  0  0  0
  -27.5585  -37.1793   24.8485 C   0  0  0  0  0  0
  -21.4247  -29.3014   22.3868 N   0  0  0  0  0  0
  -26.4306  -37.3786   23.9419 N   0  0  0  0  0  0
  -24.6702  -31.0791   22.1057 N   0  0  0  0  0  0
  -23.4342  -28.8141   23.3039 O   0  0  0  0  0  0
  -28.4218  -26.7146   20.0975 O   0  0  0  0  0  0
  -26.5599  -34.8863   22.4697 O   0  0  0  0  0  0
  -23.5356  -32.1503   23.7501 O   0  0  0  0  0  0
  -30.0860  -18.9469   22.1590 C   0  0  0  0  0  0
  -30.3738  -17.5937   21.8752 C   0  0  0  0  0  0
  -28.8757  -19.1490   20.0644 C   0  0  0  0  0  0
  -29.2741  -19.7196   21.2954 C   0  0  0  0  0  0
  -29.1470  -17.7840   19.7735 C   0  0  0  0  0  0
  -29.8412  -16.9777   20.7222 C   0  0  0  0  0  0
  -29.4479  -23.3101   20.8595 C   0  0  0  0  0  0
  -27.4585  -23.0056   20.4173 C   0  0  0  0  0  0
  -28.2721  -24.2886   20.6413 C   0  0  2  0  0  0
  -28.6190  -17.1965   18.4696 C   0  0  0  0  0  0
  -28.6888  -21.0434   21.8232 C   0  0  0  0  0  0
  -28.5009  -25.3750   19.5631 C   0  0  0  0  0  0
  -28.5970  -22.2329   20.9600 N   0  0  0  0  0  0
  -29.7274  -15.5516   20.6753 N   0  0  0  0  0  0
  -30.6507  -23.3962   21.0302 O   0  0  0  0  0  0
  -31.4776  -12.4911   19.1244 H   0  0  0  0  0  0
  -30.3882  -11.3354   19.8428 H   0  0  0  0  0  0
  -29.7371  -11.7281   17.4679 H   0  0  0  0  0  0
  -29.6531  -13.4542   17.7358 H   0  0  0  0  0  0
  -27.8343  -11.2854   18.8394 H   0  0  0  0  0  0
  -27.3560  -12.6012   17.7915 H   0  0  0  0  0  0
  -27.6779  -14.2251   19.5313 H   0  0  0  0  0  0
  -28.6947  -11.9753   21.3472 H   0  0  0  0  0  0
  -28.4654  -13.6283   21.8437 H   0  0  0  0  0  0
  -25.2709   -9.5635   22.4745 H   0  0  0  0  0  0
  -23.9909   -7.4581   22.7522 H   0  0  0  0  0  0
  -21.0832   -8.8753   19.8933 H   0  0  0  0  0  0
  -22.3669  -10.9662   19.6157 H   0  0  0  0  0  0
  -21.1950   -7.6111   23.9712 H   0  0  0  0  0  0
  -21.1511   -6.0496   25.9082 H   0  0  0  0  0  0
  -22.0594   -2.7610   23.2827 H   0  0  0  0  0  0
  -22.4152  -12.0004   22.4826 H   0  0  0  0  0  0
  -21.1024  -13.1253   22.2616 H   0  0  0  0  0  0
  -24.6531  -15.8275   20.4770 H   0  0  0  0  0  0
  -26.2695  -15.6245   20.0474 H   0  0  0  0  0  0
  -26.7108  -32.5517   23.1167 H   0  0  0  0  0  0
  -25.0140  -33.9832   25.0544 H   0  0  0  0  0  0
  -22.6892  -31.3104   21.4279 H   0  0  0  0  0  0
  -23.3780  -35.9585   23.3341 H   0  0  0  0  0  0
  -24.3586  -36.8858   22.2059 H   0  0  0  0  0  0
  -23.7219  -37.6470   23.6615 H   0  0  0  0  0  0
  -26.0783  -31.6095   20.6297 H   0  0  0  0  0  0
  -26.8084  -30.8445   22.0228 H   0  0  0  0  0  0
  -28.1007  -29.1117   21.1303 H   0  0  0  0  0  0
  -25.9598  -25.9103   19.1509 H   0  0  0  0  0  0
  -23.9443  -27.2493   19.1305 H   0  0  0  0  0  0
  -23.7191  -30.6122   19.4173 H   0  0  0  0  0  0
  -22.7247  -29.2591   19.8699 H   0  0  0  0  0  0
  -25.1285  -36.1983   25.0849 H   0  0  0  0  0  0
  -20.9946  -28.3053   24.1499 H   0  0  0  0  0  0
  -20.6205  -26.2098   23.3143 H   0  0  0  0  0  0
  -21.6578  -26.7734   22.0456 H   0  0  0  0  0  0
  -19.6626  -25.6478   21.1203 H   0  0  0  0  0  0
  -19.6223  -27.3384   20.6693 H   0  0  0  0  0  0
  -17.3884  -26.6225   21.4811 H   0  0  0  0  0  0
  -18.0749  -26.0251   22.9725 H   0  0  0  0  0  0
  -19.8115  -30.7540   24.1932 H   0  0  0  0  0  0
  -17.5129  -31.6586   24.4768 H   0  0  0  0  0  0
  -15.5447  -30.3157   23.7944 H   0  0  0  0  0  0
  -15.8652  -28.0977   22.7487 H   0  0  0  0  0  0
  -24.5951  -30.7031   25.7874 H   0  0  0  0  0  0
  -24.8998  -32.2764   26.5135 H   0  0  0  0  0  0
  -25.8212  -30.8728   27.0234 H   0  0  0  0  0  0
  -26.2881  -29.6813   24.1299 H   0  0  0  0  0  0
  -27.4097  -29.7308   25.4680 H   0  0  0  0  0  0
  -27.8706  -30.4358   23.9366 H   0  0  0  0  0  0
  -27.2716  -33.3602   26.2189 H   0  0  0  0  0  0
  -28.3854  -32.6993   25.0361 H   0  0  0  0  0  0
  -28.0800  -31.8443   26.5433 H   0  0  0  0  0  0
  -28.2635  -38.0071   24.7510 H   0  0  0  0  0  0
  -28.1051  -36.2593   24.6325 H   0  0  0  0  0  0
  -27.2273  -37.1427   25.8886 H   0  0  0  0  0  0
  -20.9346  -29.9030   21.7388 H   0  0  0  0  0  0
  -26.0211  -38.2878   24.1385 H   0  0  0  0  0  0
  -30.4102  -19.3553   23.1103 H   0  0  0  0  0  0
  -30.9030  -17.0072   22.6148 H   0  0  0  0  0  0
  -28.2757  -19.7416   19.3879 H   0  0  0  0  0  0
  -27.2432  -22.8024   19.3636 H   0  0  0  0  0  0
  -26.5459  -22.9662   21.0111 H   0  0  0  0  0  0
  -27.9782  -24.7355   21.5926 H   0  0  0  0  0  0
  -29.2705  -17.4578   17.6322 H   0  0  0  0  0  0
  -27.6280  -17.5909   18.2439 H   0  0  0  0  0  0
  -28.5536  -16.1111   18.4863 H   0  0  0  0  0  0
  -29.2264  -21.3387   22.7275 H   0  0  0  0  0  0
  -27.6774  -20.8191   22.1706 H   0  0  0  0  0  0
  -27.8830  -25.2292   18.6766 H   0  0  0  0  0  0
  -29.5196  -25.2938   19.1826 H   0  0  0  0  0  0
  -28.7798  -15.2059   20.7404 H   0  0  0  0  0  0
  1 25  1  0  0  0
  1 30  2  0  0  0
  1 84  1  0  0  0
  2  3  1  0  0  0
  2 25  1  0  0  0
  2 86  1  0  0  0
  2 87  1  0  0  0
  3  4  1  0  0  0
  3 88  1  0  0  0
  3 89  1  0  0  0
  4  5  1  0  0  0
  4 90  1  0  0  0
  4 91  1  0  0  0
  5  6  1  0  0  0
  5 26  1  0  0  0
  5 92  1  0  0  0
  6 25  1  0  0  0
  6 93  1  0  0  0
  6 94  1  0  0  0
  7  8  2  0  0  0
  7 26  1  0  0  0
  7 29  1  0  0  0
  8  9  1  0  0  0
  8 22  1  0  0  0
  9 10  1  0  0  0
  9 27  2  0  0  0
 10 11  2  0  0  0
 10 15  1  0  0  0
 11 12  1  0  0  0
 11 95  1  0  0  0
 12 13  2  0  0  0
 12 96  1  0  0  0
 13 14  1  0  0  0
 13 31  1  0  0  0
 14 15  2  0  0  0
 14 97  1  0  0  0
 15 98  1  0  0  0
 16 17  2  0  0  0
 16 21  1  0  0  0
 16 31  1  0  0  0
 17 18  1  0  0  0
 17 99  1  0  0  0
 18 19  2  0  0  0
 18100  1  0  0  0
 19 20  1  0  0  0
 19 24  1  0  0  0
 20 21  2  0  0  0
 20101  1  0  0  0
 21 23  1  0  0  0
 22 28  1  0  0  0
 22 32  2  0  0  0
 26 27  1  0  0  0
 28102  1  0  0  0
 28103  1  0  0  0
 29104  1  0  0  0
 29105  1  0  0  0
 33 34  1  0  0  0
 33 66  1  0  0  0
 33 70  2  0  0  0
 34 36  1  0  0  0
 34 59  1  0  0  0
 34106  1  0  0  0
 35 44  2  0  0  0
 35 45  1  0  0  0
 35 68  1  0  0  0
 36 56  1  0  0  0
 36107  1  0  0  0
 37 39  1  0  0  0
 37 47  1  0  0  0
 37 66  1  0  0  0
 37108  1  0  0  0
 38 43  2  0  0  0
 38 46  1  0  0  0
 38 47  1  0  0  0
 39 64  1  0  0  0
 39 67  2  0  0  0
 40 52  1  0  0  0
 40 53  2  0  0  0
 40 58  1  0  0  0
 41109  1  0  0  0
 41110  1  0  0  0
 41111  1  0  0  0
 41 48  1  0  0  0
 42 43  1  0  0  0
 42 66  1  0  0  0
 42112  1  0  0  0
 42113  1  0  0  0
 43 44  1  0  0  0
 44114  1  0  0  0
 45 46  2  0  0  0
 45115  1  0  0  0
 46116  1  0  0  0
 47117  1  0  0  0
 47118  1  0  0  0
 48 56  1  0  0  0
 48 65  1  0  0  0
 48119  1  0  0  0
 49 50  1  0  0  0
 49 53  1  0  0  0
 49 64  1  0  0  0
 49120  1  0  0  0
 50 51  1  0  0  0
 50121  1  0  0  0
 50122  1  0  0  0
 51 52  1  0  0  0
 51123  1  0  0  0
 51124  1  0  0  0
 52125  1  0  0  0
 52126  1  0  0  0
 53 54  1  0  0  0
 54 55  2  0  0  0
 54127  1  0  0  0
 55 57  1  0  0  0
 55128  1  0  0  0
 56 69  2  0  0  0
 57 58  2  0  0  0
 57129  1  0  0  0
 58130  1  0  0  0
 59 60  1  0  0  0
 59 61  1  0  0  0
 59 62  1  0  0  0
 60131  1  0  0  0
 60132  1  0  0  0
 60133  1  0  0  0
 61134  1  0  0  0
 61135  1  0  0  0
 61136  1  0  0  0
 62137  1  0  0  0
 62138  1  0  0  0
 62139  1  0  0  0
 63 65  1  0  0  0
 63140  1  0  0  0
 63141  1  0  0  0
 63142  1  0  0  0
 64143  1  0  0  0
 65144  1  0  0  0
 68 82  1  0  0  0
 71 72  2  0  0  0
 71 74  1  0  0  0
 71145  1  0  0  0
 72 76  1  0  0  0
 72146  1  0  0  0
 73 74  2  0  0  0
 73 75  1  0  0  0
 73147  1  0  0  0
 74 81  1  0  0  0
 75 76  2  0  0  0
 75 80  1  0  0  0
 76 84  1  0  0  0
 77 79  1  0  0  0
 77 83  1  0  0  0
 77 85  2  0  0  0
 78 79  1  0  0  0
 78 83  1  0  0  0
 78148  1  0  0  0
 78149  1  0  0  0
 79 82  1  0  0  0
 79150  1  0  0  0
 80151  1  0  0  0
 80152  1  0  0  0
 80153  1  0  0  0
 81 83  1  0  0  0
 81154  1  0  0  0
 81155  1  0  0  0
 82156  1  0  0  0
 82157  1  0  0  0
 84158  1  0  0  0
M  ISO  4   1 100  68 101  82 101  84 100
M  END
> <chiral flag>
0

> <version>
0

> <s_m_source_file>
/data/baiqing/PycharmProjects/Reinvent-master-3.2/result/LINK_invent/BTK/process_docking_weight1_custom_product_contain_oxygen_bond_distance_aromatic_linkinvent_7_9_3/rearranged_h_0026.sdf

> <i_m_source_file_index>
55

> <r_mmod_Potential_Energy-OPLS-2005>
-12.7039670944214

> <r_mmod_Stretch_Energy-OPLS-2005>
41.9452056884766

> <r_mmod_Bend_Energy-OPLS-2005>
123.365829467773

> <r_mmod_Torsional_Energy-OPLS-2005>
284.855926513672

> <r_mmod_Improper_Torsional_Energy-OPLS-2005>
12.6350803375244

> <r_mmod_Van_der_Waal_Energy-OPLS-2005>
141.861907958984

> <r_mmod_Electrostatic_Energy-OPLS-2005>
-405.978240966797

> <r_mmod_Solvation_Energy-OPLS-2005>
-237.071868896484

> <b_mmod_Minimization_Converged-OPLS-2005>
0

> <r_mmod_RMS_Derivative-OPLS-2005>
7.50317144393921

$$$$
55
                    3D
 Structure written by MMmdl.
161170  0  0  1  0            999 V2000
  -30.5685  -15.0614   20.4097 C   0  0  0  0  0  0
  -30.4251  -12.6725   19.5018 C   0  0  0  0  0  0
  -29.5201  -12.5378   18.2576 C   0  0  0  0  0  0
  -28.0598  -12.3059   18.6845 C   0  0  0  0  0  0
  -27.6163  -13.2633   19.8208 C   0  0  2  0  0  0
  -28.6596  -13.3812   20.9537 C   0  0  0  0  0  0
  -25.2408  -13.8243   20.5706 C   0  0  0  0  0  0
  -24.1753  -13.0452   20.9259 C   0  0  0  0  0  0
  -24.6396  -11.6939   20.8767 C   0  0  0  0  0  0
  -23.9084  -10.4296   21.0405 C   0  0  0  0  0  0
  -24.3641   -9.4216   21.9182 C   0  0  0  0  0  0
  -23.6334   -8.2235   22.0740 C   0  0  0  0  0  0
  -22.4312   -8.0268   21.3534 C   0  0  0  0  0  0
  -21.9941   -9.0241   20.4640 C   0  0  0  0  0  0
  -22.7254  -10.2133   20.3056 C   0  0  0  0  0  0
  -21.6855   -6.0747   22.5289 C   0  0  0  0  0  0
  -21.3999   -6.5644   23.8223 C   0  0  0  0  0  0
  -21.3665   -5.6792   24.9181 C   0  0  0  0  0  0
  -21.6073   -4.3060   24.7223 C   0  0  0  0  0  0
  -21.8819   -3.8151   23.4339 C   0  0  0  0  0  0
  -21.9182   -4.6974   22.3404 C   0  0  0  0  0  0
  -22.7764  -13.5210   21.1917 C   0  0  0  0  0  0
  -22.1659   -4.2166   21.0978 F   0  0  0  0  0  0
  -21.5647   -3.4538   25.7727 F   0  0  0  0  0  0
  -29.9159  -13.8166   20.3293 N   0  0  0  0  0  0
  -26.2836  -12.9498   20.3204 N   0  0  0  0  0  0
  -25.9333  -11.6614   20.5719 N   0  0  0  0  0  0
  -22.0405  -12.8195   22.0475 N   0  0  0  0  0  0
  -25.4042  -15.1972   20.4083 N   0  0  0  0  0  0
  -31.7782  -15.0167   20.1561 O   0  0  0  0  0  0
  -21.6660   -6.8884   21.4248 O   0  0  0  0  0  0
  -22.3433  -14.5505   20.6737 O   0  0  0  0  0  0
  -24.6507  -31.8369   23.1834 C   0  0  0  0  0  0
  -25.9243  -32.4658   23.8245 C   0  0  1  0  0  0
  -27.2071  -27.0450   20.1651 C   0  0  0  0  0  0
  -25.5962  -33.8469   24.2155 N   0  0  0  0  0  0
  -23.4591  -30.4543   21.5310 C   0  0  2  0  0  0
  -24.9111  -28.8723   20.1062 C   0  0  0  0  0  0
  -22.7612  -29.4499   22.4829 C   0  0  0  0  0  0
  -18.0308  -28.1397   22.8477 C   0  0  0  0  0  0
  -24.1500  -36.7236   23.2641 C   0  0  0  0  0  0
  -26.0219  -30.6792   21.4002 C   0  0  0  0  0  0
  -26.0906  -29.2833   20.7407 C   0  0  0  0  0  0
  -27.2363  -28.3862   20.7541 C   0  0  0  0  0  0
  -26.0119  -26.7773   19.4586 C   0  0  0  0  0  0
  -24.8911  -27.6361   19.4463 C   0  0  0  0  0  0
  -23.6919  -29.7840   20.1508 C   0  0  0  0  0  0
  -25.4133  -36.3011   24.0312 C   0  0  1  0  0  0
  -20.5932  -28.3726   23.1234 C   0  0  2  0  0  0
  -20.6797  -26.9426   22.5411 C   0  0  0  0  0  0
  -19.5770  -26.6373   21.5221 C   0  0  0  0  0  0
  -18.1948  -26.7931   22.1631 C   0  0  0  0  0  0
  -19.1571  -28.8881   23.2842 C   0  0  0  0  0  0
  -18.9478  -30.1473   23.8868 C   0  0  0  0  0  0
  -17.6475  -30.6596   24.0551 C   0  0  0  0  0  0
  -25.9085  -34.9389   23.5047 C   0  0  0  0  0  0
  -16.5365  -29.9078   23.6344 C   0  0  0  0  0  0
  -16.7288  -28.6495   23.0365 C   0  0  0  0  0  0
  -26.4534  -31.6551   25.0715 C   0  0  0  0  0  0
  -25.3700  -31.3769   26.1396 C   0  0  0  0  0  0
  -27.0398  -30.2927   24.6363 C   0  0  0  0  0  0
  -27.6061  -32.4329   25.7499 C   0  0  0  0  0  0
  -27.5588  -37.1771   24.8457 C   0  0  0  0  0  0
  -21.4294  -29.3030   22.3580 N   0  0  0  0  0  0
  -26.4286  -37.3736   23.9415 N   0  0  0  0  0  0
  -24.7307  -31.0143   22.0918 N   0  0  0  0  0  0
  -23.4219  -28.8049   23.3009 O   0  0  0  0  0  0
  -28.2065  -25.9764   20.2677 O   0  0  0  0  0  0
  -26.5680  -34.8899   22.4631 O   0  0  0  0  0  0
  -23.5607  -32.1284   23.7003 O   0  0  0  0  0  0
  -28.1283  -18.6720   17.3515 C   0  0  0  0  0  0
  -28.3329  -17.2981   17.3904 C   0  0  0  0  0  0
  -28.5102  -19.4552   18.4423 C   0  0  0  0  0  0
  -28.9313  -16.7147   18.5104 C   0  0  0  0  0  0
  -29.1093  -18.9587   19.6317 C   0  0  0  0  0  0
  -29.3653  -17.4202   19.6700 C   0  0  0  0  0  0
  -28.9397  -23.1179   20.2157 C   0  0  0  0  0  0
  -26.1875  -22.6020   20.7531 C   0  0  0  0  0  0
  -26.6949  -24.0198   21.0820 C   0  0  0  0  0  0
  -27.2355  -21.5005   21.0253 C   0  0  0  0  0  0
  -27.8504  -24.4164   20.1435 C   0  0  1  0  0  0
  -30.3754  -16.9584   21.9181 C   0  0  0  0  0  0
  -29.3954  -20.3263   20.5467 C   0  0  0  0  0  0
  -28.5756  -21.7315   20.4561 N   0  0  0  0  0  0
  -29.9470  -16.3663   20.6536 N   0  0  0  0  0  0
  -30.1241  -23.3862   19.9983 O   0  0  0  0  0  0
  -31.4585  -12.8170   19.1844 H   0  0  0  0  0  0
  -30.4249  -11.7444   20.0764 H   0  0  0  0  0  0
  -29.8645  -11.7172   17.6269 H   0  0  0  0  0  0
  -29.5901  -13.4405   17.6499 H   0  0  0  0  0  0
  -27.9862  -11.2738   19.0292 H   0  0  0  0  0  0
  -27.3902  -12.3888   17.8260 H   0  0  0  0  0  0
  -27.5459  -14.2440   19.3535 H   0  0  0  0  0  0
  -28.7796  -12.4380   21.4866 H   0  0  0  0  0  0
  -28.3369  -14.1202   21.6875 H   0  0  0  0  0  0
  -25.2771   -9.5720   22.4765 H   0  0  0  0  0  0
  -24.0062   -7.4628   22.7457 H   0  0  0  0  0  0
  -21.0867   -8.8754   19.8953 H   0  0  0  0  0  0
  -22.3687  -10.9671   19.6178 H   0  0  0  0  0  0
  -21.1978   -7.6147   23.9739 H   0  0  0  0  0  0
  -21.1496   -6.0511   25.9092 H   0  0  0  0  0  0
  -22.0591   -2.7614   23.2828 H   0  0  0  0  0  0
  -22.3990  -11.9844   22.4854 H   0  0  0  0  0  0
  -21.1003  -13.1200   22.2622 H   0  0  0  0  0  0
  -24.6311  -15.8462   20.5000 H   0  0  0  0  0  0
  -26.2530  -15.6393   20.0779 H   0  0  0  0  0  0
  -26.7298  -32.5233   23.0957 H   0  0  0  0  0  0
  -25.0076  -33.9573   25.0279 H   0  0  0  0  0  0
  -22.7643  -31.2818   21.3739 H   0  0  0  0  0  0
  -23.3780  -35.9552   23.3274 H   0  0  0  0  0  0
  -24.3585  -36.8900   22.2063 H   0  0  0  0  0  0
  -23.7238  -37.6414   23.6696 H   0  0  0  0  0  0
  -26.1926  -31.4298   20.6273 H   0  0  0  0  0  0
  -26.8865  -30.7294   22.0498 H   0  0  0  0  0  0
  -28.1249  -28.6897   21.2901 H   0  0  0  0  0  0
  -25.8974  -25.8396   18.9383 H   0  0  0  0  0  0
  -23.9978  -27.3220   18.9244 H   0  0  0  0  0  0
  -23.8340  -30.5598   19.3978 H   0  0  0  0  0  0
  -22.8044  -29.2327   19.8357 H   0  0  0  0  0  0
  -25.1324  -36.1829   25.0802 H   0  0  0  0  0  0
  -21.0017  -28.3318   24.1363 H   0  0  0  0  0  0
  -20.5712  -26.2333   23.3627 H   0  0  0  0  0  0
  -21.6653  -26.7434   22.1202 H   0  0  0  0  0  0
  -19.6931  -25.6274   21.1271 H   0  0  0  0  0  0
  -19.6712  -27.3170   20.6743 H   0  0  0  0  0  0
  -17.4223  -26.6682   21.4026 H   0  0  0  0  0  0
  -18.0337  -26.0080   22.9034 H   0  0  0  0  0  0
  -19.7947  -30.7293   24.2238 H   0  0  0  0  0  0
  -17.5020  -31.6278   24.5144 H   0  0  0  0  0  0
  -15.5362  -30.2966   23.7676 H   0  0  0  0  0  0
  -15.8688  -28.0791   22.7109 H   0  0  0  0  0  0
  -24.5867  -30.7138   25.7702 H   0  0  0  0  0  0
  -24.8899  -32.2959   26.4767 H   0  0  0  0  0  0
  -25.7953  -30.8958   27.0210 H   0  0  0  0  0  0
  -26.3019  -29.6643   24.1357 H   0  0  0  0  0  0
  -27.3944  -29.7248   25.4972 H   0  0  0  0  0  0
  -27.8968  -30.4123   23.9736 H   0  0  0  0  0  0
  -27.2649  -33.3656   26.2006 H   0  0  0  0  0  0
  -28.3902  -32.6852   25.0348 H   0  0  0  0  0  0
  -28.0692  -31.8499   26.5470 H   0  0  0  0  0  0
  -28.2569  -38.0107   24.7546 H   0  0  0  0  0  0
  -28.1123  -36.2633   24.6227 H   0  0  0  0  0  0
  -27.2308  -37.1348   25.8859 H   0  0  0  0  0  0
  -20.9515  -29.8719   21.6734 H   0  0  0  0  0  0
  -26.0149  -38.2799   24.1434 H   0  0  0  0  0  0
  -27.6807  -19.1326   16.4815 H   0  0  0  0  0  0
  -28.0349  -16.6831   16.5531 H   0  0  0  0  0  0
  -28.3348  -20.5133   18.3187 H   0  0  0  0  0  0
  -29.0418  -15.6464   18.4260 H   0  0  0  0  0  0
  -25.8788  -22.5567   19.7072 H   0  0  0  0  0  0
  -25.2872  -22.3909   21.3319 H   0  0  0  0  0  0
  -27.0207  -24.0822   22.1212 H   0  0  0  0  0  0
  -25.8541  -24.7035   20.9915 H   0  0  0  0  0  0
  -26.8446  -20.5461   20.6686 H   0  0  0  0  0  0
  -27.3535  -21.3858   22.1050 H   0  0  0  0  0  0
  -27.4774  -24.3267   19.1233 H   0  0  0  0  0  0
  -29.6405  -17.6800   22.2739 H   0  0  0  0  0  0
  -31.3266  -17.4772   21.7888 H   0  0  0  0  0  0
  -30.5014  -16.2107   22.7033 H   0  0  0  0  0  0
  -30.4373  -20.5882   20.3639 H   0  0  0  0  0  0
  -29.3813  -20.0141   21.5914 H   0  0  0  0  0  0
  1 25  1  0  0  0
  1 30  2  0  0  0
  1 85  1  0  0  0
  2  3  1  0  0  0
  2 25  1  0  0  0
  2 87  1  0  0  0
  2 88  1  0  0  0
  3  4  1  0  0  0
  3 89  1  0  0  0
  3 90  1  0  0  0
  4  5  1  0  0  0
  4 91  1  0  0  0
  4 92  1  0  0  0
  5  6  1  0  0  0
  5 26  1  0  0  0
  5 93  1  0  0  0
  6 25  1  0  0  0
  6 94  1  0  0  0
  6 95  1  0  0  0
  7  8  2  0  0  0
  7 26  1  0  0  0
  7 29  1  0  0  0
  8  9  1  0  0  0
  8 22  1  0  0  0
  9 10  1  0  0  0
  9 27  2  0  0  0
 10 11  2  0  0  0
 10 15  1  0  0  0
 11 12  1  0  0  0
 11 96  1  0  0  0
 12 13  2  0  0  0
 12 97  1  0  0  0
 13 14  1  0  0  0
 13 31  1  0  0  0
 14 15  2  0  0  0
 14 98  1  0  0  0
 15 99  1  0  0  0
 16 17  2  0  0  0
 16 21  1  0  0  0
 16 31  1  0  0  0
 17 18  1  0  0  0
 17100  1  0  0  0
 18 19  2  0  0  0
 18101  1  0  0  0
 19 20  1  0  0  0
 19 24  1  0  0  0
 20 21  2  0  0  0
 20102  1  0  0  0
 21 23  1  0  0  0
 22 28  1  0  0  0
 22 32  2  0  0  0
 26 27  1  0  0  0
 28103  1  0  0  0
 28104  1  0  0  0
 29105  1  0  0  0
 29106  1  0  0  0
 33 34  1  0  0  0
 33 66  1  0  0  0
 33 70  2  0  0  0
 34 36  1  0  0  0
 34 59  1  0  0  0
 34107  1  0  0  0
 35 44  2  0  0  0
 35 45  1  0  0  0
 35 68  1  0  0  0
 36 56  1  0  0  0
 36108  1  0  0  0
 37 39  1  0  0  0
 37 47  1  0  0  0
 37 66  1  0  0  0
 37109  1  0  0  0
 38 43  2  0  0  0
 38 46  1  0  0  0
 38 47  1  0  0  0
 39 64  1  0  0  0
 39 67  2  0  0  0
 40 52  1  0  0  0
 40 53  2  0  0  0
 40 58  1  0  0  0
 41110  1  0  0  0
 41111  1  0  0  0
 41112  1  0  0  0
 41 48  1  0  0  0
 42 43  1  0  0  0
 42 66  1  0  0  0
 42113  1  0  0  0
 42114  1  0  0  0
 43 44  1  0  0  0
 44115  1  0  0  0
 45 46  2  0  0  0
 45116  1  0  0  0
 46117  1  0  0  0
 47118  1  0  0  0
 47119  1  0  0  0
 48 56  1  0  0  0
 48 65  1  0  0  0
 48120  1  0  0  0
 49 50  1  0  0  0
 49 53  1  0  0  0
 49 64  1  0  0  0
 49121  1  0  0  0
 50 51  1  0  0  0
 50122  1  0  0  0
 50123  1  0  0  0
 51 52  1  0  0  0
 51124  1  0  0  0
 51125  1  0  0  0
 52126  1  0  0  0
 52127  1  0  0  0
 53 54  1  0  0  0
 54 55  2  0  0  0
 54128  1  0  0  0
 55 57  1  0  0  0
 55129  1  0  0  0
 56 69  2  0  0  0
 57 58  2  0  0  0
 57130  1  0  0  0
 58131  1  0  0  0
 59 60  1  0  0  0
 59 61  1  0  0  0
 59 62  1  0  0  0
 60132  1  0  0  0
 60133  1  0  0  0
 60134  1  0  0  0
 61135  1  0  0  0
 61136  1  0  0  0
 61137  1  0  0  0
 62138  1  0  0  0
 62139  1  0  0  0
 62140  1  0  0  0
 63 65  1  0  0  0
 63141  1  0  0  0
 63142  1  0  0  0
 63143  1  0  0  0
 64144  1  0  0  0
 65145  1  0  0  0
 68 81  1  0  0  0
 71 72  2  0  0  0
 71 73  1  0  0  0
 71146  1  0  0  0
 72 74  1  0  0  0
 72147  1  0  0  0
 73 75  2  0  0  0
 73148  1  0  0  0
 74 76  2  0  0  0
 74149  1  0  0  0
 75 76  1  0  0  0
 75 83  1  0  0  0
 76 85  1  0  0  0
 77 81  1  0  0  0
 77 84  1  0  0  0
 77 86  2  0  0  0
 78 79  1  0  0  0
 78 80  1  0  0  0
 78150  1  0  0  0
 78151  1  0  0  0
 79 81  1  0  0  0
 79152  1  0  0  0
 79153  1  0  0  0
 80 84  1  0  0  0
 80154  1  0  0  0
 80155  1  0  0  0
 81156  1  0  0  0
 82 85  1  0  0  0
 82157  1  0  0  0
 82158  1  0  0  0
 82159  1  0  0  0
 83 84  1  0  0  0
 83160  1  0  0  0
 83161  1  0  0  0
M  ISO  4   1 100  68 101  81 101  85 100
M  END
> <chiral flag>
0

> <version>
0

> <s_m_source_file>
/data/baiqing/PycharmProjects/Reinvent-master-3.2/result/LINK_invent/BTK/process_docking_weight1_custom_product_contain_oxygen_bond_distance_aromatic_linkinvent_7_9_3/rearranged_h_0026.sdf

> <i_m_source_file_index>
56

> <r_mmod_Potential_Energy-OPLS-2005>
1048.1259765625

> <r_mmod_Stretch_Energy-OPLS-2005>
404.389587402344

> <r_mmod_Bend_Energy-OPLS-2005>
388.846832275391

> <r_mmod_Torsional_Energy-OPLS-2005>
292.150024414062

> <r_mmod_Improper_Torsional_Energy-OPLS-2005>
4.72033071517944

> <r_mmod_Van_der_Waal_Energy-OPLS-2005>
142.095687866211

> <r_mmod_Electrostatic_Energy-OPLS-2005>
-250.760437011719

> <r_mmod_Solvation_Energy-OPLS-2005>
-220.267929077148

> <b_mmod_Minimization_Converged-OPLS-2005>
0

> <r_mmod_RMS_Derivative-OPLS-2005>
2.37966680526733

$$$$
56
                    3D
 Structure written by MMmdl.
157166  0  0  1  0            999 V2000
  -30.6104  -14.7473   20.4698 C   0  0  0  0  0  0
  -30.4352  -12.4616   19.4623 C   0  0  0  0  0  0
  -29.5070  -12.5034   18.2287 C   0  0  0  0  0  0
  -28.0345  -12.3244   18.6482 C   0  0  0  0  0  0
  -27.6396  -13.2283   19.8462 C   0  0  2  0  0  0
  -28.6874  -13.1681   20.9781 C   0  0  0  0  0  0
  -25.2507  -13.8188   20.5694 C   0  0  0  0  0  0
  -24.1800  -13.0434   20.9212 C   0  0  0  0  0  0
  -24.6390  -11.6912   20.8756 C   0  0  0  0  0  0
  -23.9068  -10.4291   21.0412 C   0  0  0  0  0  0
  -24.3618   -9.4204   21.9187 C   0  0  0  0  0  0
  -23.6293   -8.2241   22.0756 C   0  0  0  0  0  0
  -22.4276   -8.0281   21.3546 C   0  0  0  0  0  0
  -21.9912   -9.0253   20.4647 C   0  0  0  0  0  0
  -22.7241  -10.2133   20.3058 C   0  0  0  0  0  0
  -21.6851   -6.0735   22.5278 C   0  0  0  0  0  0
  -21.4015   -6.5640   23.8211 C   0  0  0  0  0  0
  -21.3658   -5.6794   24.9174 C   0  0  0  0  0  0
  -21.6044   -4.3056   24.7226 C   0  0  0  0  0  0
  -21.8819   -3.8146   23.4347 C   0  0  0  0  0  0
  -21.9194   -4.6963   22.3402 C   0  0  0  0  0  0
  -22.7822  -13.5218   21.1871 C   0  0  0  0  0  0
  -22.1661   -4.2149   21.0980 F   0  0  0  0  0  0
  -21.5629   -3.4539   25.7738 F   0  0  0  0  0  0
  -29.9824  -13.5250   20.3866 N   0  0  0  0  0  0
  -26.2927  -12.9386   20.3270 N   0  0  0  0  0  0
  -25.9319  -11.6533   20.5753 N   0  0  0  0  0  0
  -22.0469  -12.8205   22.0427 N   0  0  0  0  0  0
  -25.4183  -15.1913   20.4100 N   0  0  0  0  0  0
  -31.8120  -14.8348   20.2005 O   0  0  0  0  0  0
  -21.6640   -6.8878   21.4240 O   0  0  0  0  0  0
  -22.3509  -14.5525   20.6720 O   0  0  0  0  0  0
  -24.6319  -31.8552   23.1993 C   0  0  0  0  0  0
  -25.9148  -32.4751   23.8333 C   0  0  1  0  0  0
  -27.2135  -27.2472   20.1407 C   0  0  0  0  0  0
  -25.5941  -33.8554   24.2251 N   0  0  0  0  0  0
  -23.4284  -30.4778   21.5441 C   0  0  2  0  0  0
  -24.8751  -28.9207   20.1187 C   0  0  0  0  0  0
  -22.7508  -29.4595   22.4929 C   0  0  0  0  0  0
  -18.0290  -28.1380   22.8482 C   0  0  0  0  0  0
  -24.1495  -36.7284   23.2641 C   0  0  0  0  0  0
  -25.9756  -30.7623   21.3842 C   0  0  0  0  0  0
  -26.0470  -29.3811   20.7329 C   0  0  0  0  0  0
  -27.2204  -28.5574   20.7327 C   0  0  0  0  0  0
  -26.0270  -26.8710   19.4775 C   0  0  0  0  0  0
  -24.8704  -27.6730   19.4796 C   0  0  0  0  0  0
  -23.6481  -29.8112   20.1613 C   0  0  0  0  0  0
  -25.4121  -36.3068   24.0323 C   0  0  1  0  0  0
  -20.5889  -28.3691   23.1270 C   0  0  2  0  0  0
  -20.6778  -26.9410   22.5405 C   0  0  0  0  0  0
  -19.5755  -26.6375   21.5209 C   0  0  0  0  0  0
  -18.1934  -26.7920   22.1619 C   0  0  0  0  0  0
  -19.1543  -28.8855   23.2867 C   0  0  0  0  0  0
  -18.9464  -30.1454   23.8884 C   0  0  0  0  0  0
  -17.6464  -30.6584   24.0559 C   0  0  0  0  0  0
  -25.9063  -34.9438   23.5092 C   0  0  0  0  0  0
  -16.5354  -29.9075   23.6334 C   0  0  0  0  0  0
  -16.7275  -28.6495   23.0352 C   0  0  0  0  0  0
  -26.4507  -31.6582   25.0728 C   0  0  0  0  0  0
  -25.3719  -31.3735   26.1442 C   0  0  0  0  0  0
  -27.0360  -30.2998   24.6230 C   0  0  0  0  0  0
  -27.6055  -32.4331   25.7502 C   0  0  0  0  0  0
  -27.5581  -37.1799   24.8464 C   0  0  0  0  0  0
  -21.4215  -29.3040   22.3669 N   0  0  0  0  0  0
  -26.4294  -37.3766   23.9405 N   0  0  0  0  0  0
  -24.6977  -31.0504   22.0982 N   0  0  0  0  0  0
  -23.4209  -28.8130   23.3024 O   0  0  0  0  0  0
  -28.3205  -26.3664   20.1048 O   0  0  0  0  0  0
  -26.5634  -34.8912   22.4660 O   0  0  0  0  0  0
  -23.5469  -32.1380   23.7286 O   0  0  0  0  0  0
  -31.2454  -17.5785   21.7100 C   0  0  0  0  0  0
  -31.5967  -18.8996   22.0508 C   0  0  0  0  0  0
  -29.4613  -18.4768   20.3243 C   0  0  0  0  0  0
  -29.8245  -19.8592   20.6345 C   0  0  0  0  0  0
  -30.1724  -17.3073   20.8354 C   0  0  0  0  0  0
  -30.9167  -20.0174   21.5236 C   0  0  0  0  0  0
  -26.9928  -24.0891   20.5402 C   0  0  0  0  0  0
  -27.3998  -22.6482   20.9787 C   0  0  0  0  0  0
  -29.2665  -23.8227   20.1216 C   0  0  0  0  0  0
  -28.2642  -24.9495   20.6453 C   0  0  1  0  0  0
  -29.2126  -21.1563   19.9128 C   0  0  0  0  0  0
  -29.8176  -15.8871   20.5764 N   0  0  0  0  0  0
  -28.8430  -22.4572   20.6694 N   0  3  2  0  0  0
  -31.4845  -21.5859   21.9758 Cl  0  0  0  0  0  0
  -31.4736  -12.5962   19.1552 H   0  0  0  0  0  0
  -30.3895  -11.4867   19.9507 H   0  0  0  0  0  0
  -29.7898  -11.7272   17.5163 H   0  0  0  0  0  0
  -29.6278  -13.4551   17.7086 H   0  0  0  0  0  0
  -27.8962  -11.2767   18.9170 H   0  0  0  0  0  0
  -27.3740  -12.5092   17.8000 H   0  0  0  0  0  0
  -27.6302  -14.2471   19.4592 H   0  0  0  0  0  0
  -28.7285  -12.1717   21.4206 H   0  0  0  0  0  0
  -28.4247  -13.8529   21.7861 H   0  0  0  0  0  0
  -25.2761   -9.5680   22.4763 H   0  0  0  0  0  0
  -24.0000   -7.4632   22.7476 H   0  0  0  0  0  0
  -21.0843   -8.8774   19.8951 H   0  0  0  0  0  0
  -22.3700  -10.9673   19.6170 H   0  0  0  0  0  0
  -21.2007   -7.6148   23.9714 H   0  0  0  0  0  0
  -21.1479   -6.0524   25.9077 H   0  0  0  0  0  0
  -22.0599   -2.7609   23.2847 H   0  0  0  0  0  0
  -22.4088  -11.9865   22.4804 H   0  0  0  0  0  0
  -21.1086  -13.1227   22.2637 H   0  0  0  0  0  0
  -24.6467  -15.8405   20.5195 H   0  0  0  0  0  0
  -26.2575  -15.6339   20.0595 H   0  0  0  0  0  0
  -26.7217  -32.5398   23.1076 H   0  0  0  0  0  0
  -25.0067  -33.9683   25.0384 H   0  0  0  0  0  0
  -22.7247  -31.2998   21.3978 H   0  0  0  0  0  0
  -23.3754  -35.9621   23.3300 H   0  0  0  0  0  0
  -24.3581  -36.8911   22.2056 H   0  0  0  0  0  0
  -23.7255  -37.6485   23.6670 H   0  0  0  0  0  0
  -26.1158  -31.5208   20.6127 H   0  0  0  0  0  0
  -26.8530  -30.8127   22.0173 H   0  0  0  0  0  0
  -28.1219  -28.9107   21.2132 H   0  0  0  0  0  0
  -25.9783  -25.9447   18.9295 H   0  0  0  0  0  0
  -23.9809  -27.3238   18.9735 H   0  0  0  0  0  0
  -23.7773  -30.5869   19.4054 H   0  0  0  0  0  0
  -22.7655  -29.2465   19.8553 H   0  0  0  0  0  0
  -25.1306  -36.1914   25.0815 H   0  0  0  0  0  0
  -20.9970  -28.3266   24.1394 H   0  0  0  0  0  0
  -20.5681  -26.2298   23.3607 H   0  0  0  0  0  0
  -21.6647  -26.7435   22.1198 H   0  0  0  0  0  0
  -19.6920  -25.6285   21.1242 H   0  0  0  0  0  0
  -19.6694  -27.3186   20.6738 H   0  0  0  0  0  0
  -17.4202  -26.6664   21.4021 H   0  0  0  0  0  0
  -18.0333  -26.0064   22.9015 H   0  0  0  0  0  0
  -19.7944  -30.7271   24.2244 H   0  0  0  0  0  0
  -17.5020  -31.6265   24.5157 H   0  0  0  0  0  0
  -15.5353  -30.2973   23.7669 H   0  0  0  0  0  0
  -15.8672  -28.0814   22.7067 H   0  0  0  0  0  0
  -24.5904  -30.7071   25.7765 H   0  0  0  0  0  0
  -24.8895  -32.2902   26.4839 H   0  0  0  0  0  0
  -25.8027  -30.8931   27.0235 H   0  0  0  0  0  0
  -26.2950  -29.6735   24.1249 H   0  0  0  0  0  0
  -27.4022  -29.7272   25.4760 H   0  0  0  0  0  0
  -27.8838  -30.4257   23.9492 H   0  0  0  0  0  0
  -27.2663  -33.3646   26.2043 H   0  0  0  0  0  0
  -28.3883  -32.6865   25.0337 H   0  0  0  0  0  0
  -28.0705  -31.8479   26.5443 H   0  0  0  0  0  0
  -28.2592  -38.0101   24.7509 H   0  0  0  0  0  0
  -28.1081  -36.2629   24.6296 H   0  0  0  0  0  0
  -27.2292  -37.1450   25.8865 H   0  0  0  0  0  0
  -20.9403  -29.8766   21.6881 H   0  0  0  0  0  0
  -26.0173  -38.2838   24.1405 H   0  0  0  0  0  0
  -31.8101  -16.7692   22.1509 H   0  0  0  0  0  0
  -32.4244  -19.0607   22.7263 H   0  0  0  0  0  0
  -28.6416  -18.3131   19.6388 H   0  0  0  0  0  0
  -26.1666  -24.4804   21.1332 H   0  0  0  0  0  0
  -26.6669  -24.0334   19.5025 H   0  0  0  0  0  0
  -26.7635  -21.9043   20.4981 H   0  0  0  0  0  0
  -27.2662  -22.5312   22.0546 H   0  0  0  0  0  0
  -30.2976  -24.0467   20.3955 H   0  0  0  0  0  0
  -29.2254  -23.7950   19.0318 H   0  0  0  0  0  0
  -28.4628  -25.0723   21.7113 H   0  0  0  0  0  0
  -28.3651  -20.8424   19.3037 H   0  0  0  0  0  0
  -29.9717  -21.4389   19.1826 H   0  0  0  0  0  0
  -28.8294  -15.7007   20.5084 H   0  0  0  0  0  0
  -29.3151  -22.3717   21.5597 H   0  0  0  0  0  0
  1 25  1  0  0  0
  1 30  2  0  0  0
  1 82  1  0  0  0
  2  3  1  0  0  0
  2 25  1  0  0  0
  2 85  1  0  0  0
  2 86  1  0  0  0
  3  4  1  0  0  0
  3 87  1  0  0  0
  3 88  1  0  0  0
  4  5  1  0  0  0
  4 89  1  0  0  0
  4 90  1  0  0  0
  5  6  1  0  0  0
  5 26  1  0  0  0
  5 91  1  0  0  0
  6 25  1  0  0  0
  6 92  1  0  0  0
  6 93  1  0  0  0
  7  8  2  0  0  0
  7 26  1  0  0  0
  7 29  1  0  0  0
  8  9  1  0  0  0
  8 22  1  0  0  0
  9 10  1  0  0  0
  9 27  2  0  0  0
 10 11  2  0  0  0
 10 15  1  0  0  0
 11 12  1  0  0  0
 11 94  1  0  0  0
 12 13  2  0  0  0
 12 95  1  0  0  0
 13 14  1  0  0  0
 13 31  1  0  0  0
 14 15  2  0  0  0
 14 96  1  0  0  0
 15 97  1  0  0  0
 16 17  2  0  0  0
 16 21  1  0  0  0
 16 31  1  0  0  0
 17 18  1  0  0  0
 17 98  1  0  0  0
 18 19  2  0  0  0
 18 99  1  0  0  0
 19 20  1  0  0  0
 19 24  1  0  0  0
 20 21  2  0  0  0
 20100  1  0  0  0
 21 23  1  0  0  0
 22 28  1  0  0  0
 22 32  2  0  0  0
 26 27  1  0  0  0
 28101  1  0  0  0
 28102  1  0  0  0
 29103  1  0  0  0
 29104  1  0  0  0
 33 34  1  0  0  0
 33 66  1  0  0  0
 33 70  2  0  0  0
 34 36  1  0  0  0
 34 59  1  0  0  0
 34105  1  0  0  0
 35 44  2  0  0  0
 35 45  1  0  0  0
 35 68  1  0  0  0
 36 56  1  0  0  0
 36106  1  0  0  0
 37 39  1  0  0  0
 37 47  1  0  0  0
 37 66  1  0  0  0
 37107  1  0  0  0
 38 43  2  0  0  0
 38 46  1  0  0  0
 38 47  1  0  0  0
 39 64  1  0  0  0
 39 67  2  0  0  0
 40 52  1  0  0  0
 40 53  2  0  0  0
 40 58  1  0  0  0
 41108  1  0  0  0
 41109  1  0  0  0
 41110  1  0  0  0
 41 48  1  0  0  0
 42 43  1  0  0  0
 42 66  1  0  0  0
 42111  1  0  0  0
 42112  1  0  0  0
 43 44  1  0  0  0
 44113  1  0  0  0
 45 46  2  0  0  0
 45114  1  0  0  0
 46115  1  0  0  0
 47116  1  0  0  0
 47117  1  0  0  0
 48 56  1  0  0  0
 48 65  1  0  0  0
 48118  1  0  0  0
 49 50  1  0  0  0
 49 53  1  0  0  0
 49 64  1  0  0  0
 49119  1  0  0  0
 50 51  1  0  0  0
 50120  1  0  0  0
 50121  1  0  0  0
 51 52  1  0  0  0
 51122  1  0  0  0
 51123  1  0  0  0
 52124  1  0  0  0
 52125  1  0  0  0
 53 54  1  0  0  0
 54 55  2  0  0  0
 54126  1  0  0  0
 55 57  1  0  0  0
 55127  1  0  0  0
 56 69  2  0  0  0
 57 58  2  0  0  0
 57128  1  0  0  0
 58129  1  0  0  0
 59 60  1  0  0  0
 59 61  1  0  0  0
 59 62  1  0  0  0
 60130  1  0  0  0
 60131  1  0  0  0
 60132  1  0  0  0
 61133  1  0  0  0
 61134  1  0  0  0
 61135  1  0  0  0
 62136  1  0  0  0
 62137  1  0  0  0
 62138  1  0  0  0
 63 65  1  0  0  0
 63139  1  0  0  0
 63140  1  0  0  0
 63141  1  0  0  0
 64142  1  0  0  0
 65143  1  0  0  0
 68 80  1  0  0  0
 71 72  2  0  0  0
 71 75  1  0  0  0
 71144  1  0  0  0
 72 76  1  0  0  0
 72145  1  0  0  0
 73 74  1  0  0  0
 73 75  2  0  0  0
 73146  1  0  0  0
 74 76  2  0  0  0
 74 81  1  0  0  0
 75 82  1  0  0  0
 76 84  1  0  0  0
 77 78  1  0  0  0
 77 80  1  0  0  0
 77147  1  0  0  0
 77148  1  0  0  0
 78 83  1  0  0  0
 78149  1  0  0  0
 78150  1  0  0  0
 79 80  1  0  0  0
 79 83  1  0  0  0
 79151  1  0  0  0
 79152  1  0  0  0
 80153  1  0  0  0
 81154  1  0  0  0
 81155  1  0  0  0
 81 83  1  0  0  0
 82156  1  0  0  0
 83157  1  0  0  0
M  CHG  1  83   1
M  ISO  4   1 100  68 101  80 101  82 100
M  END
> <chiral flag>
0

> <version>
0

> <s_m_source_file>
/data/baiqing/PycharmProjects/Reinvent-master-3.2/result/LINK_invent/BTK/process_docking_weight1_custom_product_contain_oxygen_bond_distance_aromatic_linkinvent_7_9_3/rearranged_h_0026.sdf

> <i_m_source_file_index>
57

> <r_mmod_Potential_Energy-OPLS-2005>
114.75749206543

> <r_mmod_Stretch_Energy-OPLS-2005>
125.109817504883

> <r_mmod_Bend_Energy-OPLS-2005>
207.772323608398

> <r_mmod_Torsional_Energy-OPLS-2005>
295.950134277344

> <r_mmod_Improper_Torsional_Energy-OPLS-2005>
7.6183032989502

> <r_mmod_Van_der_Waal_Energy-OPLS-2005>
135.942642211914

> <r_mmod_Electrostatic_Energy-OPLS-2005>
-304.759521484375

> <r_mmod_Solvation_Energy-OPLS-2005>
-439.812347412109

> <b_mmod_Minimization_Converged-OPLS-2005>
0

> <r_mmod_RMS_Derivative-OPLS-2005>
0.649895310401917

$$$$
57
                    3D
 Structure written by MMmdl.
168177  0  0  1  0            999 V2000
  -30.6112  -14.6428   20.5013 C   0  0  0  0  0  0
  -30.4381  -12.3952   19.4509 C   0  0  0  0  0  0
  -29.5048  -12.5101   18.2243 C   0  0  0  0  0  0
  -28.0265  -12.3513   18.6338 C   0  0  0  0  0  0
  -27.6526  -13.2134   19.8683 C   0  0  2  0  0  0
  -28.6981  -13.0614   20.9961 C   0  0  0  0  0  0
  -25.2532  -13.8062   20.5659 C   0  0  0  0  0  0
  -24.1843  -13.0367   20.9305 C   0  0  0  0  0  0
  -24.6419  -11.6850   20.8838 C   0  0  0  0  0  0
  -23.9083  -10.4248   21.0462 C   0  0  0  0  0  0
  -24.3622   -9.4154   21.9226 C   0  0  0  0  0  0
  -23.6285   -8.2195   22.0766 C   0  0  0  0  0  0
  -22.4273   -8.0258   21.3541 C   0  0  0  0  0  0
  -21.9923   -9.0246   20.4656 C   0  0  0  0  0  0
  -22.7263  -10.2122   20.3091 C   0  0  0  0  0  0
  -21.6838   -6.0728   22.5281 C   0  0  0  0  0  0
  -21.4010   -6.5636   23.8217 C   0  0  0  0  0  0
  -21.3659   -5.6790   24.9181 C   0  0  0  0  0  0
  -21.6044   -4.3053   24.7230 C   0  0  0  0  0  0
  -21.8817   -3.8144   23.4351 C   0  0  0  0  0  0
  -21.9186   -4.6959   22.3405 C   0  0  0  0  0  0
  -22.7878  -13.5214   21.1883 C   0  0  0  0  0  0
  -22.1657   -4.2146   21.0982 F   0  0  0  0  0  0
  -21.5628   -3.4535   25.7745 F   0  0  0  0  0  0
  -30.0117  -13.4117   20.4332 N   0  0  0  0  0  0
  -26.2994  -12.9286   20.3365 N   0  0  0  0  0  0
  -25.9352  -11.6455   20.5848 N   0  0  0  0  0  0
  -22.0449  -12.8246   22.0399 N   0  0  0  0  0  0
  -25.4046  -15.1719   20.3594 N   0  0  0  0  0  0
  -31.7716  -14.8091   20.1166 O   0  0  0  0  0  0
  -21.6619   -6.8867   21.4239 O   0  0  0  0  0  0
  -22.3702  -14.5566   20.6712 O   0  0  0  0  0  0
  -24.6247  -31.8609   23.2050 C   0  0  0  0  0  0
  -25.9098  -32.4790   23.8381 C   0  0  1  0  0  0
  -27.2288  -27.3283   20.1217 C   0  0  0  0  0  0
  -25.5927  -33.8589   24.2291 N   0  0  0  0  0  0
  -23.4191  -30.4817   21.5478 C   0  0  2  0  0  0
  -24.8666  -28.9410   20.1120 C   0  0  0  0  0  0
  -22.7494  -29.4589   22.4960 C   0  0  0  0  0  0
  -18.0284  -28.1377   22.8469 C   0  0  0  0  0  0
  -24.1490  -36.7282   23.2635 C   0  0  0  0  0  0
  -25.9588  -30.7949   21.3758 C   0  0  0  0  0  0
  -26.0343  -29.4230   20.7178 C   0  0  0  0  0  0
  -27.2182  -28.6289   20.7119 C   0  0  0  0  0  0
  -26.0356  -26.8985   19.4915 C   0  0  0  0  0  0
  -24.8691  -27.6847   19.4890 C   0  0  0  0  0  0
  -23.6349  -29.8207   20.1603 C   0  0  0  0  0  0
  -25.4111  -36.3081   24.0329 C   0  0  1  0  0  0
  -20.5888  -28.3671   23.1308 C   0  0  2  0  0  0
  -20.6776  -26.9397   22.5413 C   0  0  0  0  0  0
  -19.5754  -26.6378   21.5205 C   0  0  0  0  0  0
  -18.1932  -26.7919   22.1610 C   0  0  0  0  0  0
  -19.1535  -28.8842   23.2877 C   0  0  0  0  0  0
  -18.9463  -30.1454   23.8880 C   0  0  0  0  0  0
  -17.6461  -30.6581   24.0554 C   0  0  0  0  0  0
  -25.9051  -34.9454   23.5107 C   0  0  0  0  0  0
  -16.5354  -29.9069   23.6336 C   0  0  0  0  0  0
  -16.7272  -28.6498   23.0330 C   0  0  0  0  0  0
  -26.4496  -31.6602   25.0743 C   0  0  0  0  0  0
  -25.3727  -31.3722   26.1466 C   0  0  0  0  0  0
  -27.0328  -30.3034   24.6168 C   0  0  0  0  0  0
  -27.6080  -32.4325   25.7506 C   0  0  0  0  0  0
  -27.5595  -37.1777   24.8451 C   0  0  0  0  0  0
  -21.4206  -29.3024   22.3720 N   0  0  0  0  0  0
  -26.4276  -37.3788   23.9440 N   0  0  0  0  0  0
  -24.6859  -31.0623   22.1005 N   0  0  0  0  0  0
  -23.4228  -28.8135   23.3033 O   0  0  0  0  0  0
  -28.3518  -26.4874   20.1804 O   0  0  0  0  0  0
  -26.5614  -34.8918   22.4671 O   0  0  0  0  0  0
  -23.5418  -32.1402   23.7386 O   0  0  0  0  0  0
  -28.9637  -19.4310   21.2229 C   0  0  0  0  0  0
  -30.9226  -17.8183   20.0532 C   0  0  0  0  0  0
  -28.8669  -18.0070   21.3017 C   0  0  0  0  0  0
  -29.9924  -20.0878   20.5141 C   0  0  0  0  0  0
  -29.8763  -17.1473   20.7457 C   0  0  0  0  0  0
  -30.9748  -19.2391   19.9307 C   0  0  0  0  0  0
  -24.9101  -18.5773   19.5625 C   0  0  0  0  0  0
  -24.3270  -19.0007   20.9164 C   0  0  0  0  0  0
  -26.3565  -18.1926   19.8702 C   0  0  0  0  0  0
  -25.3288  -18.5182   21.9803 C   0  0  0  0  0  0
  -27.6156  -17.4641   21.9958 C   0  0  0  0  0  0
  -29.2925  -24.0135   20.4197 C   0  0  0  0  0  0
  -28.9312  -22.4620   20.3499 C   0  0  0  0  0  0
  -28.1247  -25.0299   20.0759 C   0  0  0  0  0  0
  -29.7876  -15.6808   20.8685 N   0  0  0  0  0  0
  -30.0838  -21.5148   20.3932 N   0  0  0  0  0  0
  -26.3316  -17.6988   21.2680 N   0  3  0  0  0  0
  -32.2758  -19.9424   19.0347 Cl  0  0  0  0  0  0
  -31.4777  -12.5281   19.1465 H   0  0  0  0  0  0
  -30.3787  -11.3984   19.8902 H   0  0  0  0  0  0
  -29.7676  -11.7584   17.4794 H   0  0  0  0  0  0
  -29.6473  -13.4795   17.7439 H   0  0  0  0  0  0
  -27.8544  -11.2974   18.8533 H   0  0  0  0  0  0
  -27.3745  -12.5947   17.7942 H   0  0  0  0  0  0
  -27.6710  -14.2514   19.5364 H   0  0  0  0  0  0
  -28.7141  -12.0367   21.3714 H   0  0  0  0  0  0
  -28.4437  -13.6859   21.8529 H   0  0  0  0  0  0
  -25.2763   -9.5607   22.4815 H   0  0  0  0  0  0
  -23.9975   -7.4576   22.7486 H   0  0  0  0  0  0
  -21.0851   -8.8787   19.8961 H   0  0  0  0  0  0
  -22.3739  -10.9676   19.6210 H   0  0  0  0  0  0
  -21.2007   -7.6147   23.9724 H   0  0  0  0  0  0
  -21.1487   -6.0520   25.9085 H   0  0  0  0  0  0
  -22.0598   -2.7607   23.2856 H   0  0  0  0  0  0
  -22.3991  -11.9876   22.4772 H   0  0  0  0  0  0
  -21.1092  -13.1344   22.2588 H   0  0  0  0  0  0
  -24.4612  -15.5190   20.2025 H   0  0  0  0  0  0
  -25.9487  -15.2744   19.5092 H   0  0  0  0  0  0
  -26.7161  -32.5465   23.1138 H   0  0  0  0  0  0
  -25.0086  -33.9741   25.0443 H   0  0  0  0  0  0
  -22.7095  -31.2993   21.4066 H   0  0  0  0  0  0
  -23.3765  -35.9596   23.3247 H   0  0  0  0  0  0
  -24.3600  -36.8949   22.2064 H   0  0  0  0  0  0
  -23.7206  -37.6453   23.6681 H   0  0  0  0  0  0
  -26.0890  -31.5625   20.6109 H   0  0  0  0  0  0
  -26.8399  -30.8442   22.0037 H   0  0  0  0  0  0
  -28.1140  -28.9908   21.1975 H   0  0  0  0  0  0
  -25.9732  -25.9391   19.0006 H   0  0  0  0  0  0
  -23.9753  -27.3115   19.0076 H   0  0  0  0  0  0
  -23.7601  -30.6005   19.4086 H   0  0  0  0  0  0
  -22.7552  -29.2520   19.8546 H   0  0  0  0  0  0
  -25.1279  -36.1928   25.0812 H   0  0  0  0  0  0
  -20.9957  -28.3226   24.1441 H   0  0  0  0  0  0
  -20.5713  -26.2263   23.3602 H   0  0  0  0  0  0
  -21.6644  -26.7455   22.1189 H   0  0  0  0  0  0
  -19.6927  -25.6288   21.1234 H   0  0  0  0  0  0
  -19.6696  -27.3193   20.6740 H   0  0  0  0  0  0
  -17.4202  -26.6652   21.4011 H   0  0  0  0  0  0
  -18.0329  -26.0074   22.9022 H   0  0  0  0  0  0
  -19.7945  -30.7265   24.2244 H   0  0  0  0  0  0
  -17.5014  -31.6267   24.5151 H   0  0  0  0  0  0
  -15.5345  -30.2957   23.7682 H   0  0  0  0  0  0
  -15.8673  -28.0827   22.7033 H   0  0  0  0  0  0
  -24.5927  -30.7042   25.7792 H   0  0  0  0  0  0
  -24.8873  -32.2865   26.4890 H   0  0  0  0  0  0
  -25.8059  -30.8912   27.0243 H   0  0  0  0  0  0
  -26.2885  -29.6805   24.1191 H   0  0  0  0  0  0
  -27.4036  -29.7285   25.4666 H   0  0  0  0  0  0
  -27.8760  -30.4328   23.9375 H   0  0  0  0  0  0
  -27.2725  -33.3647   26.2068 H   0  0  0  0  0  0
  -28.3906  -32.6854   25.0335 H   0  0  0  0  0  0
  -28.0723  -31.8437   26.5428 H   0  0  0  0  0  0
  -28.2534  -38.0161   24.7626 H   0  0  0  0  0  0
  -28.1167  -36.2694   24.6101 H   0  0  0  0  0  0
  -27.2331  -37.1220   25.8852 H   0  0  0  0  0  0
  -20.9385  -29.8743   21.6928 H   0  0  0  0  0  0
  -26.0144  -38.2833   24.1532 H   0  0  0  0  0  0
  -28.1949  -20.0267   21.6929 H   0  0  0  0  0  0
  -31.7066  -17.2487   19.5784 H   0  0  0  0  0  0
  -24.8493  -19.3694   18.8144 H   0  0  0  0  0  0
  -24.3668  -17.7144   19.1746 H   0  0  0  0  0  0
  -23.3436  -18.5543   21.0672 H   0  0  0  0  0  0
  -24.2055  -20.0840   20.9707 H   0  0  0  0  0  0
  -26.9487  -19.0984   19.7606 H   0  0  0  0  0  0
  -26.7531  -17.4530   19.1744 H   0  0  0  0  0  0
  -24.8452  -17.9460   22.7728 H   0  0  0  0  0  0
  -25.8093  -19.3839   22.4404 H   0  0  0  0  0  0
  -27.5664  -17.8923   22.9978 H   0  0  0  0  0  0
  -27.6998  -16.3925   22.1667 H   0  0  0  0  0  0
  -30.1249  -24.2228   19.7472 H   0  0  0  0  0  0
  -29.6599  -24.2346   21.4224 H   0  0  0  0  0  0
  -28.3887  -22.2747   19.4219 H   0  0  0  0  0  0
  -28.2338  -22.2244   21.1547 H   0  0  0  0  0  0
  -27.8285  -24.8113   19.0493 H   0  0  0  0  0  0
  -27.2721  -24.7741   20.7096 H   0  0  0  0  0  0
  -28.9121  -15.3310   21.2221 H   0  0  0  0  0  0
  -30.9050  -21.8151   19.8721 H   0  0  0  0  0  0
  -25.9161  -16.7711   21.1888 H   0  0  0  0  0  0
  1 25  1  0  0  0
  1 30  2  0  0  0
  1 85  1  0  0  0
  2  3  1  0  0  0
  2 25  1  0  0  0
  2 89  1  0  0  0
  2 90  1  0  0  0
  3  4  1  0  0  0
  3 91  1  0  0  0
  3 92  1  0  0  0
  4  5  1  0  0  0
  4 93  1  0  0  0
  4 94  1  0  0  0
  5  6  1  0  0  0
  5 26  1  0  0  0
  5 95  1  0  0  0
  6 25  1  0  0  0
  6 96  1  0  0  0
  6 97  1  0  0  0
  7  8  2  0  0  0
  7 26  1  0  0  0
  7 29  1  0  0  0
  8  9  1  0  0  0
  8 22  1  0  0  0
  9 10  1  0  0  0
  9 27  2  0  0  0
 10 11  2  0  0  0
 10 15  1  0  0  0
 11 12  1  0  0  0
 11 98  1  0  0  0
 12 13  2  0  0  0
 12 99  1  0  0  0
 13 14  1  0  0  0
 13 31  1  0  0  0
 14 15  2  0  0  0
 14100  1  0  0  0
 15101  1  0  0  0
 16 17  2  0  0  0
 16 21  1  0  0  0
 16 31  1  0  0  0
 17 18  1  0  0  0
 17102  1  0  0  0
 18 19  2  0  0  0
 18103  1  0  0  0
 19 20  1  0  0  0
 19 24  1  0  0  0
 20 21  2  0  0  0
 20104  1  0  0  0
 21 23  1  0  0  0
 22 28  1  0  0  0
 22 32  2  0  0  0
 26 27  1  0  0  0
 28105  1  0  0  0
 28106  1  0  0  0
 29107  1  0  0  0
 29108  1  0  0  0
 33 34  1  0  0  0
 33 66  1  0  0  0
 33 70  2  0  0  0
 34 36  1  0  0  0
 34 59  1  0  0  0
 34109  1  0  0  0
 35 44  2  0  0  0
 35 45  1  0  0  0
 35 68  1  0  0  0
 36 56  1  0  0  0
 36110  1  0  0  0
 37 39  1  0  0  0
 37 47  1  0  0  0
 37 66  1  0  0  0
 37111  1  0  0  0
 38 43  2  0  0  0
 38 46  1  0  0  0
 38 47  1  0  0  0
 39 64  1  0  0  0
 39 67  2  0  0  0
 40 52  1  0  0  0
 40 53  2  0  0  0
 40 58  1  0  0  0
 41112  1  0  0  0
 41113  1  0  0  0
 41114  1  0  0  0
 41 48  1  0  0  0
 42 43  1  0  0  0
 42 66  1  0  0  0
 42115  1  0  0  0
 42116  1  0  0  0
 43 44  1  0  0  0
 44117  1  0  0  0
 45 46  2  0  0  0
 45118  1  0  0  0
 46119  1  0  0  0
 47120  1  0  0  0
 47121  1  0  0  0
 48 56  1  0  0  0
 48 65  1  0  0  0
 48122  1  0  0  0
 49 50  1  0  0  0
 49 53  1  0  0  0
 49 64  1  0  0  0
 49123  1  0  0  0
 50 51  1  0  0  0
 50124  1  0  0  0
 50125  1  0  0  0
 51 52  1  0  0  0
 51126  1  0  0  0
 51127  1  0  0  0
 52128  1  0  0  0
 52129  1  0  0  0
 53 54  1  0  0  0
 54 55  2  0  0  0
 54130  1  0  0  0
 55 57  1  0  0  0
 55131  1  0  0  0
 56 69  2  0  0  0
 57 58  2  0  0  0
 57132  1  0  0  0
 58133  1  0  0  0
 59 60  1  0  0  0
 59 61  1  0  0  0
 59 62  1  0  0  0
 60134  1  0  0  0
 60135  1  0  0  0
 60136  1  0  0  0
 61137  1  0  0  0
 61138  1  0  0  0
 61139  1  0  0  0
 62140  1  0  0  0
 62141  1  0  0  0
 62142  1  0  0  0
 63 65  1  0  0  0
 63143  1  0  0  0
 63144  1  0  0  0
 63145  1  0  0  0
 64146  1  0  0  0
 65147  1  0  0  0
 68 84  1  0  0  0
 71 73  2  0  0  0
 71 74  1  0  0  0
 71148  1  0  0  0
 72 75  2  0  0  0
 72 76  1  0  0  0
 72149  1  0  0  0
 73 75  1  0  0  0
 73 81  1  0  0  0
 74 76  2  0  0  0
 74 86  1  0  0  0
 75 85  1  0  0  0
 76 88  1  0  0  0
 77 78  1  0  0  0
 77 79  1  0  0  0
 77150  1  0  0  0
 77151  1  0  0  0
 78 80  1  0  0  0
 78152  1  0  0  0
 78153  1  0  0  0
 79 87  1  0  0  0
 79154  1  0  0  0
 79155  1  0  0  0
 80 87  1  0  0  0
 80156  1  0  0  0
 80157  1  0  0  0
 81158  1  0  0  0
 81159  1  0  0  0
 81 87  1  0  0  0
 82 83  1  0  0  0
 82 84  1  0  0  0
 82160  1  0  0  0
 82161  1  0  0  0
 83 86  1  0  0  0
 83162  1  0  0  0
 83163  1  0  0  0
 84164  1  0  0  0
 84165  1  0  0  0
 85166  1  0  0  0
 86167  1  0  0  0
 87168  1  0  0  0
M  CHG  1  87   1
M  ISO  4   1 100  68 101  84 101  85 100
M  END
> <chiral flag>
0

> <version>
0

> <s_m_source_file>
/data/baiqing/PycharmProjects/Reinvent-master-3.2/result/LINK_invent/BTK/process_docking_weight1_custom_product_contain_oxygen_bond_distance_aromatic_linkinvent_7_9_3/rearranged_h_0026.sdf

> <i_m_source_file_index>
58

> <r_mmod_Potential_Energy-OPLS-2005>
19.2119636535645

> <r_mmod_Stretch_Energy-OPLS-2005>
79.7626037597656

> <r_mmod_Bend_Energy-OPLS-2005>
170.772308349609

> <r_mmod_Torsional_Energy-OPLS-2005>
288.353698730469

> <r_mmod_Improper_Torsional_Energy-OPLS-2005>
12.7694301605225

> <r_mmod_Van_der_Waal_Energy-OPLS-2005>
148.786224365234

> <r_mmod_Electrostatic_Energy-OPLS-2005>
-267.123382568359

> <r_mmod_Solvation_Energy-OPLS-2005>
-461.700439453125

> <b_mmod_Minimization_Converged-OPLS-2005>
0

> <r_mmod_RMS_Derivative-OPLS-2005>
1.99229192733765

$$$$
58
                    3D
 Structure written by MMmdl.
154163  0  0  1  0            999 V2000
  -30.6619  -14.7653   20.5157 C   0  0  0  0  0  0
  -30.4333  -12.4906   19.4850 C   0  0  0  0  0  0
  -29.5152  -12.5121   18.2465 C   0  0  0  0  0  0
  -28.0417  -12.3377   18.6577 C   0  0  0  0  0  0
  -27.6394  -13.2428   19.8518 C   0  0  2  0  0  0
  -28.6844  -13.2236   20.9873 C   0  0  0  0  0  0
  -25.2503  -13.8213   20.5707 C   0  0  0  0  0  0
  -24.1800  -13.0446   20.9202 C   0  0  0  0  0  0
  -24.6427  -11.6937   20.8762 C   0  0  0  0  0  0
  -23.9085  -10.4306   21.0417 C   0  0  0  0  0  0
  -24.3635   -9.4220   21.9191 C   0  0  0  0  0  0
  -23.6323   -8.2244   22.0761 C   0  0  0  0  0  0
  -22.4293   -8.0292   21.3545 C   0  0  0  0  0  0
  -21.9928   -9.0262   20.4643 C   0  0  0  0  0  0
  -22.7255  -10.2144   20.3066 C   0  0  0  0  0  0
  -21.6853   -6.0748   22.5275 C   0  0  0  0  0  0
  -21.4010   -6.5651   23.8209 C   0  0  0  0  0  0
  -21.3656   -5.6796   24.9169 C   0  0  0  0  0  0
  -21.6055   -4.3067   24.7220 C   0  0  0  0  0  0
  -21.8813   -3.8163   23.4346 C   0  0  0  0  0  0
  -21.9196   -4.6974   22.3403 C   0  0  0  0  0  0
  -22.7829  -13.5225   21.1875 C   0  0  0  0  0  0
  -22.1663   -4.2171   21.0980 F   0  0  0  0  0  0
  -21.5626   -3.4547   25.7731 F   0  0  0  0  0  0
  -29.9818  -13.5701   20.3982 N   0  0  0  0  0  0
  -26.2948  -12.9447   20.3316 N   0  0  0  0  0  0
  -25.9362  -11.6574   20.5778 N   0  0  0  0  0  0
  -22.0482  -12.8189   22.0429 N   0  0  0  0  0  0
  -25.4179  -15.1928   20.4121 N   0  0  0  0  0  0
  -31.8656  -14.8165   20.2523 O   0  0  0  0  0  0
  -21.6641   -6.8897   21.4249 O   0  0  0  0  0  0
  -22.3512  -14.5535   20.6734 O   0  0  0  0  0  0
  -24.6354  -31.8549   23.1934 C   0  0  0  0  0  0
  -25.9170  -32.4739   23.8310 C   0  0  1  0  0  0
  -27.2230  -27.2311   20.1544 C   0  0  0  0  0  0
  -25.5949  -33.8538   24.2232 N   0  0  0  0  0  0
  -23.4319  -30.4735   21.5398 C   0  0  2  0  0  0
  -24.8826  -28.9152   20.1167 C   0  0  0  0  0  0
  -22.7502  -29.4584   22.4912 C   0  0  0  0  0  0
  -18.0297  -28.1392   22.8492 C   0  0  0  0  0  0
  -24.1483  -36.7261   23.2622 C   0  0  0  0  0  0
  -25.9817  -30.7581   21.3818 C   0  0  0  0  0  0
  -26.0560  -29.3790   20.7255 C   0  0  0  0  0  0
  -27.2297  -28.5523   20.7253 C   0  0  0  0  0  0
  -26.0231  -26.8443   19.5149 C   0  0  0  0  0  0
  -24.8730  -27.6565   19.5005 C   0  0  0  0  0  0
  -23.6522  -29.8032   20.1584 C   0  0  0  0  0  0
  -25.4110  -36.3043   24.0295 C   0  0  1  0  0  0
  -20.5896  -28.3692   23.1270 C   0  0  2  0  0  0
  -20.6796  -26.9413   22.5413 C   0  0  0  0  0  0
  -19.5769  -26.6386   21.5217 C   0  0  0  0  0  0
  -18.1943  -26.7933   22.1623 C   0  0  0  0  0  0
  -19.1543  -28.8860   23.2867 C   0  0  0  0  0  0
  -18.9462  -30.1474   23.8864 C   0  0  0  0  0  0
  -17.6477  -30.6609   24.0555 C   0  0  0  0  0  0
  -25.9067  -34.9422   23.5056 C   0  0  0  0  0  0
  -16.5371  -29.9093   23.6358 C   0  0  0  0  0  0
  -16.7287  -28.6512   23.0360 C   0  0  0  0  0  0
  -26.4476  -31.6602   25.0749 C   0  0  0  0  0  0
  -25.3675  -31.3931   26.1498 C   0  0  0  0  0  0
  -27.0220  -30.2946   24.6338 C   0  0  0  0  0  0
  -27.6082  -32.4313   25.7487 C   0  0  0  0  0  0
  -27.5566  -37.1777   24.8456 C   0  0  0  0  0  0
  -21.4215  -29.3016   22.3647 N   0  0  0  0  0  0
  -26.4272  -37.3764   23.9406 N   0  0  0  0  0  0
  -24.7019  -31.0462   22.0949 N   0  0  0  0  0  0
  -23.4176  -28.8143   23.3040 O   0  0  0  0  0  0
  -28.3098  -26.3186   20.2184 O   0  0  0  0  0  0
  -26.5630  -34.8916   22.4635 O   0  0  0  0  0  0
  -23.5484  -32.1373   23.7220 O   0  0  0  0  0  0
  -28.8918  -19.2984   18.9360 C   0  0  0  0  0  0
  -28.8256  -20.6422   19.4081 C   0  0  0  0  0  0
  -29.6432  -19.9071   21.5755 C   0  0  0  0  0  0
  -29.3358  -18.2603   19.7906 C   0  0  0  0  0  0
  -29.7282  -18.5422   21.0777 C   0  0  0  0  0  0
  -29.1736  -21.0067   20.7369 C   0  0  0  0  0  0
  -29.5138  -16.8074   19.5433 C   0  0  0  0  0  0
  -30.2004  -17.1786   21.6756 C   0  0  0  0  0  0
  -29.1932  -23.6909   20.4492 C   0  0  0  0  0  0
  -28.0325  -24.8440   20.4314 C   0  0  0  0  0  0
  -29.9396  -16.0861   20.6322 N   0  0  0  0  0  0
  -28.9931  -22.3742   21.2051 N   0  0  0  0  0  0
  -29.2826  -16.3013   18.3274 N   0  3  0  0  0  0
  -31.4710  -12.6194   19.1778 H   0  0  0  0  0  0
  -30.3882  -11.5244   19.9884 H   0  0  0  0  0  0
  -29.8054  -11.7281   17.5465 H   0  0  0  0  0  0
  -29.6381  -13.4536   17.7107 H   0  0  0  0  0  0
  -27.8997  -11.2912   18.9251 H   0  0  0  0  0  0
  -27.3867  -12.5256   17.8047 H   0  0  0  0  0  0
  -27.6173  -14.2568   19.4575 H   0  0  0  0  0  0
  -28.7263  -12.2473   21.4723 H   0  0  0  0  0  0
  -28.4161  -13.9420   21.7624 H   0  0  0  0  0  0
  -25.2786   -9.5688   22.4757 H   0  0  0  0  0  0
  -24.0030   -7.4635   22.7489 H   0  0  0  0  0  0
  -21.0849   -8.8792   19.8954 H   0  0  0  0  0  0
  -22.3732  -10.9682   19.6174 H   0  0  0  0  0  0
  -21.1996   -7.6156   23.9720 H   0  0  0  0  0  0
  -21.1481   -6.0527   25.9065 H   0  0  0  0  0  0
  -22.0591   -2.7634   23.2833 H   0  0  0  0  0  0
  -22.4124  -11.9846   22.4790 H   0  0  0  0  0  0
  -21.1112  -13.1223   22.2652 H   0  0  0  0  0  0
  -24.6461  -15.8426   20.5076 H   0  0  0  0  0  0
  -26.2577  -15.6314   20.0617 H   0  0  0  0  0  0
  -26.7249  -32.5355   23.1063 H   0  0  0  0  0  0
  -25.0085  -33.9699   25.0377 H   0  0  0  0  0  0
  -22.7294  -31.2962   21.3881 H   0  0  0  0  0  0
  -23.3775  -35.9565   23.3233 H   0  0  0  0  0  0
  -24.3581  -36.8954   22.2054 H   0  0  0  0  0  0
  -23.7215  -37.6424   23.6715 H   0  0  0  0  0  0
  -26.1278  -31.5181   20.6139 H   0  0  0  0  0  0
  -26.8564  -30.8062   22.0187 H   0  0  0  0  0  0
  -28.1260  -28.9006   21.2173 H   0  0  0  0  0  0
  -25.9342  -25.8862   19.0298 H   0  0  0  0  0  0
  -23.9727  -27.2934   19.0254 H   0  0  0  0  0  0
  -23.7756  -30.5757   19.3973 H   0  0  0  0  0  0
  -22.7716  -29.2293   19.8590 H   0  0  0  0  0  0
  -25.1307  -36.1862   25.0792 H   0  0  0  0  0  0
  -20.9983  -28.3287   24.1398 H   0  0  0  0  0  0
  -20.5722  -26.2293   23.3610 H   0  0  0  0  0  0
  -21.6652  -26.7466   22.1184 H   0  0  0  0  0  0
  -19.6927  -25.6287   21.1268 H   0  0  0  0  0  0
  -19.6722  -27.3185   20.6730 H   0  0  0  0  0  0
  -17.4210  -26.6686   21.4020 H   0  0  0  0  0  0
  -18.0339  -26.0083   22.9032 H   0  0  0  0  0  0
  -19.7929  -30.7312   24.2181 H   0  0  0  0  0  0
  -17.5027  -31.6288   24.5175 H   0  0  0  0  0  0
  -15.5371  -30.2982   23.7717 H   0  0  0  0  0  0
  -15.8679  -28.0854   22.7069 H   0  0  0  0  0  0
  -24.5643  -30.7532   25.7840 H   0  0  0  0  0  0
  -24.9129  -32.3195   26.4998 H   0  0  0  0  0  0
  -25.7887  -30.8959   27.0237 H   0  0  0  0  0  0
  -26.2766  -29.6742   24.1335 H   0  0  0  0  0  0
  -27.3738  -29.7223   25.4930 H   0  0  0  0  0  0
  -27.8764  -30.4087   23.9672 H   0  0  0  0  0  0
  -27.2812  -33.3779   26.1802 H   0  0  0  0  0  0
  -28.4018  -32.6555   25.0354 H   0  0  0  0  0  0
  -28.0550  -31.8545   26.5588 H   0  0  0  0  0  0
  -28.2576  -38.0079   24.7504 H   0  0  0  0  0  0
  -28.1080  -36.2604   24.6299 H   0  0  0  0  0  0
  -27.2287  -37.1460   25.8862 H   0  0  0  0  0  0
  -20.9428  -29.8706   21.6820 H   0  0  0  0  0  0
  -26.0132  -38.2834   24.1428 H   0  0  0  0  0  0
  -28.6043  -19.0807   17.9175 H   0  0  0  0  0  0
  -28.4629  -21.4044   18.7359 H   0  0  0  0  0  0
  -29.9332  -20.1027   22.5983 H   0  0  0  0  0  0
  -29.6633  -16.9596   22.6003 H   0  0  0  0  0  0
  -31.2640  -17.2292   21.9225 H   0  0  0  0  0  0
  -30.0588  -24.1494   20.9304 H   0  0  0  0  0  0
  -29.5212  -23.4824   19.4335 H   0  0  0  0  0  0
  -27.4818  -24.7778   21.3725 H   0  0  0  0  0  0
  -27.3338  -24.5036   19.6694 H   0  0  0  0  0  0
  -29.2250  -22.4759   22.1912 H   0  0  0  0  0  0
  -28.9752  -16.9275   17.5991 H   0  0  0  0  0  0
  -29.4915  -15.3501   18.0788 H   0  0  0  0  0  0
  1 25  1  0  0  0
  1 30  2  0  0  0
  1 81  1  0  0  0
  2  3  1  0  0  0
  2 25  1  0  0  0
  2 84  1  0  0  0
  2 85  1  0  0  0
  3  4  1  0  0  0
  3 86  1  0  0  0
  3 87  1  0  0  0
  4  5  1  0  0  0
  4 88  1  0  0  0
  4 89  1  0  0  0
  5  6  1  0  0  0
  5 26  1  0  0  0
  5 90  1  0  0  0
  6 25  1  0  0  0
  6 91  1  0  0  0
  6 92  1  0  0  0
  7  8  2  0  0  0
  7 26  1  0  0  0
  7 29  1  0  0  0
  8  9  1  0  0  0
  8 22  1  0  0  0
  9 10  1  0  0  0
  9 27  2  0  0  0
 10 11  2  0  0  0
 10 15  1  0  0  0
 11 12  1  0  0  0
 11 93  1  0  0  0
 12 13  2  0  0  0
 12 94  1  0  0  0
 13 14  1  0  0  0
 13 31  1  0  0  0
 14 15  2  0  0  0
 14 95  1  0  0  0
 15 96  1  0  0  0
 16 17  2  0  0  0
 16 21  1  0  0  0
 16 31  1  0  0  0
 17 18  1  0  0  0
 17 97  1  0  0  0
 18 19  2  0  0  0
 18 98  1  0  0  0
 19 20  1  0  0  0
 19 24  1  0  0  0
 20 21  2  0  0  0
 20 99  1  0  0  0
 21 23  1  0  0  0
 22 28  1  0  0  0
 22 32  2  0  0  0
 26 27  1  0  0  0
 28100  1  0  0  0
 28101  1  0  0  0
 29102  1  0  0  0
 29103  1  0  0  0
 33 34  1  0  0  0
 33 66  1  0  0  0
 33 70  2  0  0  0
 34 36  1  0  0  0
 34 59  1  0  0  0
 34104  1  0  0  0
 35 44  2  0  0  0
 35 45  1  0  0  0
 35 68  1  0  0  0
 36 56  1  0  0  0
 36105  1  0  0  0
 37 39  1  0  0  0
 37 47  1  0  0  0
 37 66  1  0  0  0
 37106  1  0  0  0
 38 43  2  0  0  0
 38 46  1  0  0  0
 38 47  1  0  0  0
 39 64  1  0  0  0
 39 67  2  0  0  0
 40 52  1  0  0  0
 40 53  2  0  0  0
 40 58  1  0  0  0
 41107  1  0  0  0
 41108  1  0  0  0
 41109  1  0  0  0
 41 48  1  0  0  0
 42 43  1  0  0  0
 42 66  1  0  0  0
 42110  1  0  0  0
 42111  1  0  0  0
 43 44  1  0  0  0
 44112  1  0  0  0
 45 46  2  0  0  0
 45113  1  0  0  0
 46114  1  0  0  0
 47115  1  0  0  0
 47116  1  0  0  0
 48 56  1  0  0  0
 48 65  1  0  0  0
 48117  1  0  0  0
 49 50  1  0  0  0
 49 53  1  0  0  0
 49 64  1  0  0  0
 49118  1  0  0  0
 50 51  1  0  0  0
 50119  1  0  0  0
 50120  1  0  0  0
 51 52  1  0  0  0
 51121  1  0  0  0
 51122  1  0  0  0
 52123  1  0  0  0
 52124  1  0  0  0
 53 54  1  0  0  0
 54 55  2  0  0  0
 54125  1  0  0  0
 55 57  1  0  0  0
 55126  1  0  0  0
 56 69  2  0  0  0
 57 58  2  0  0  0
 57127  1  0  0  0
 58128  1  0  0  0
 59 60  1  0  0  0
 59 61  1  0  0  0
 59 62  1  0  0  0
 60129  1  0  0  0
 60130  1  0  0  0
 60131  1  0  0  0
 61132  1  0  0  0
 61133  1  0  0  0
 61134  1  0  0  0
 62135  1  0  0  0
 62136  1  0  0  0
 62137  1  0  0  0
 63 65  1  0  0  0
 63138  1  0  0  0
 63139  1  0  0  0
 63140  1  0  0  0
 64141  1  0  0  0
 65142  1  0  0  0
 68 80  1  0  0  0
 71 72  2  0  0  0
 71 74  1  0  0  0
 71143  1  0  0  0
 72 76  1  0  0  0
 72144  1  0  0  0
 73 75  1  0  0  0
 73 76  2  0  0  0
 73145  1  0  0  0
 74 75  2  0  0  0
 74 77  1  0  0  0
 75 78  1  0  0  0
 76 82  1  0  0  0
 77 81  1  0  0  0
 77 83  2  0  0  0
 78 81  1  0  0  0
 78146  1  0  0  0
 78147  1  0  0  0
 79 80  1  0  0  0
 79 82  1  0  0  0
 79148  1  0  0  0
 79149  1  0  0  0
 80150  1  0  0  0
 80151  1  0  0  0
 82152  1  0  0  0
 83153  1  0  0  0
 83154  1  0  0  0
M  CHG  1  83   1
M  ISO  4   1 100  68 101  80 101  81 100
M  END
> <chiral flag>
0

> <version>
0

> <s_m_source_file>
/data/baiqing/PycharmProjects/Reinvent-master-3.2/result/LINK_invent/BTK/process_docking_weight1_custom_product_contain_oxygen_bond_distance_aromatic_linkinvent_7_9_3/rearranged_h_0026.sdf

> <i_m_source_file_index>
59

> <r_mmod_Potential_Energy-OPLS-2005>
193.615768432617

> <r_mmod_Stretch_Energy-OPLS-2005>
135.517547607422

> <r_mmod_Bend_Energy-OPLS-2005>
256.530029296875

> <r_mmod_Torsional_Energy-OPLS-2005>
300.171264648438

> <r_mmod_Improper_Torsional_Energy-OPLS-2005>
12.7983846664429

> <r_mmod_Van_der_Waal_Energy-OPLS-2005>
126.974433898926

> <r_mmod_Electrostatic_Energy-OPLS-2005>
-318.134033203125

> <r_mmod_Solvation_Energy-OPLS-2005>
-425.214965820312

> <b_mmod_Minimization_Converged-OPLS-2005>
0

> <r_mmod_RMS_Derivative-OPLS-2005>
5.06428241729736

$$$$
59
                    3D
 Structure written by MMmdl.
157166  0  0  1  0            999 V2000
  -30.6106  -14.7479   20.4709 C   0  0  0  0  0  0
  -30.4350  -12.4625   19.4624 C   0  0  0  0  0  0
  -29.5072  -12.5045   18.2288 C   0  0  0  0  0  0
  -28.0346  -12.3252   18.6481 C   0  0  0  0  0  0
  -27.6394  -13.2291   19.8461 C   0  0  2  0  0  0
  -28.6870  -13.1685   20.9781 C   0  0  0  0  0  0
  -25.2507  -13.8190   20.5693 C   0  0  0  0  0  0
  -24.1801  -13.0435   20.9211 C   0  0  0  0  0  0
  -24.6392  -11.6913   20.8755 C   0  0  0  0  0  0
  -23.9069  -10.4291   21.0412 C   0  0  0  0  0  0
  -24.3620   -9.4205   21.9187 C   0  0  0  0  0  0
  -23.6294   -8.2242   22.0755 C   0  0  0  0  0  0
  -22.4277   -8.0281   21.3546 C   0  0  0  0  0  0
  -21.9914   -9.0255   20.4647 C   0  0  0  0  0  0
  -22.7243  -10.2133   20.3058 C   0  0  0  0  0  0
  -21.6852   -6.0735   22.5277 C   0  0  0  0  0  0
  -21.4015   -6.5641   23.8211 C   0  0  0  0  0  0
  -21.3658   -5.6794   24.9174 C   0  0  0  0  0  0
  -21.6044   -4.3056   24.7226 C   0  0  0  0  0  0
  -21.8819   -3.8147   23.4347 C   0  0  0  0  0  0
  -21.9194   -4.6963   22.3402 C   0  0  0  0  0  0
  -22.7823  -13.5217   21.1872 C   0  0  0  0  0  0
  -22.1661   -4.2149   21.0980 F   0  0  0  0  0  0
  -21.5629   -3.4539   25.7739 F   0  0  0  0  0  0
  -29.9823  -13.5257   20.3870 N   0  0  0  0  0  0
  -26.2927  -12.9389   20.3267 N   0  0  0  0  0  0
  -25.9319  -11.6536   20.5750 N   0  0  0  0  0  0
  -22.0470  -12.8206   22.0427 N   0  0  0  0  0  0
  -25.4179  -15.1918   20.4098 N   0  0  0  0  0  0
  -31.8115  -14.8353   20.1991 O   0  0  0  0  0  0
  -21.6641   -6.8879   21.4240 O   0  0  0  0  0  0
  -22.3508  -14.5525   20.6720 O   0  0  0  0  0  0
  -24.6321  -31.8552   23.1992 C   0  0  0  0  0  0
  -25.9148  -32.4752   23.8331 C   0  0  1  0  0  0
  -27.2134  -27.2459   20.1410 C   0  0  0  0  0  0
  -25.5941  -33.8553   24.2252 N   0  0  0  0  0  0
  -23.4285  -30.4776   21.5438 C   0  0  2  0  0  0
  -24.8751  -28.9198   20.1188 C   0  0  0  0  0  0
  -22.7508  -29.4596   22.4928 C   0  0  0  0  0  0
  -18.0290  -28.1381   22.8483 C   0  0  0  0  0  0
  -24.1494  -36.7282   23.2641 C   0  0  0  0  0  0
  -25.9758  -30.7616   21.3842 C   0  0  0  0  0  0
  -26.0473  -29.3803   20.7330 C   0  0  0  0  0  0
  -27.2204  -28.5564   20.7326 C   0  0  0  0  0  0
  -26.0268  -26.8694   19.4783 C   0  0  0  0  0  0
  -24.8705  -27.6717   19.4801 C   0  0  0  0  0  0
  -23.6485  -29.8106   20.1612 C   0  0  0  0  0  0
  -25.4121  -36.3068   24.0323 C   0  0  1  0  0  0
  -20.5890  -28.3694   23.1269 C   0  0  2  0  0  0
  -20.6778  -26.9411   22.5405 C   0  0  0  0  0  0
  -19.5755  -26.6376   21.5208 C   0  0  0  0  0  0
  -18.1934  -26.7922   22.1619 C   0  0  0  0  0  0
  -19.1544  -28.8855   23.2867 C   0  0  0  0  0  0
  -18.9465  -30.1456   23.8886 C   0  0  0  0  0  0
  -17.6465  -30.6584   24.0559 C   0  0  0  0  0  0
  -25.9062  -34.9438   23.5091 C   0  0  0  0  0  0
  -16.5353  -29.9077   23.6335 C   0  0  0  0  0  0
  -16.7275  -28.6495   23.0353 C   0  0  0  0  0  0
  -26.4507  -31.6582   25.0727 C   0  0  0  0  0  0
  -25.3719  -31.3736   26.1441 C   0  0  0  0  0  0
  -27.0360  -30.2997   24.6230 C   0  0  0  0  0  0
  -27.6055  -32.4331   25.7500 C   0  0  0  0  0  0
  -27.5580  -37.1799   24.8464 C   0  0  0  0  0  0
  -21.4216  -29.3040   22.3669 N   0  0  0  0  0  0
  -26.4293  -37.3764   23.9406 N   0  0  0  0  0  0
  -24.6978  -31.0502   22.0981 N   0  0  0  0  0  0
  -23.4208  -28.8134   23.3025 O   0  0  0  0  0  0
  -28.3205  -26.3653   20.1035 O   0  0  0  0  0  0
  -26.5634  -34.8913   22.4659 O   0  0  0  0  0  0
  -23.5470  -32.1381   23.7284 O   0  0  0  0  0  0
  -31.2829  -17.5860   21.6715 C   0  0  0  0  0  0
  -31.6401  -18.9100   21.9915 C   0  0  0  0  0  0
  -29.8199  -19.8521   20.6240 C   0  0  0  0  0  0
  -30.1846  -17.3072   20.8319 C   0  0  0  0  0  0
  -29.4520  -18.4667   20.3304 C   0  0  0  0  0  0
  -30.9393  -20.0206   21.4774 C   0  0  0  0  0  0
  -26.9904  -24.0961   20.5806 C   0  0  0  0  0  0
  -27.4012  -22.6544   21.0149 C   0  0  0  0  0  0
  -29.2510  -23.8129   20.1023 C   0  0  0  0  0  0
  -28.2695  -24.9489   20.6471 C   0  0  1  0  0  0
  -29.1800  -21.1419   19.9154 C   0  0  0  0  0  0
  -29.8214  -15.8865   20.5878 N   0  0  0  0  0  0
  -28.8356  -22.4529   20.6707 N   0  3  2  0  0  0
  -28.3923  -18.2387   19.5173 F   0  0  0  0  0  0
  -31.5162  -21.5943   21.9013 Cl  0  0  0  0  0  0
  -31.4735  -12.5966   19.1554 H   0  0  0  0  0  0
  -30.3892  -11.4875   19.9505 H   0  0  0  0  0  0
  -29.7899  -11.7285   17.5161 H   0  0  0  0  0  0
  -29.6279  -13.4564   17.7091 H   0  0  0  0  0  0
  -27.8964  -11.2774   18.9168 H   0  0  0  0  0  0
  -27.3741  -12.5100   17.7998 H   0  0  0  0  0  0
  -27.6301  -14.2481   19.4594 H   0  0  0  0  0  0
  -28.7280  -12.1720   21.4202 H   0  0  0  0  0  0
  -28.4240  -13.8528   21.7865 H   0  0  0  0  0  0
  -25.2762   -9.5681   22.4762 H   0  0  0  0  0  0
  -24.0001   -7.4633   22.7475 H   0  0  0  0  0  0
  -21.0844   -8.8776   19.8951 H   0  0  0  0  0  0
  -22.3702  -10.9674   19.6170 H   0  0  0  0  0  0
  -21.2008   -7.6148   23.9715 H   0  0  0  0  0  0
  -21.1479   -6.0524   25.9077 H   0  0  0  0  0  0
  -22.0599   -2.7609   23.2847 H   0  0  0  0  0  0
  -22.4089  -11.9865   22.4806 H   0  0  0  0  0  0
  -21.1087  -13.1226   22.2637 H   0  0  0  0  0  0
  -24.6448  -15.8392   20.5182 H   0  0  0  0  0  0
  -26.2545  -15.6358   20.0549 H   0  0  0  0  0  0
  -26.7217  -32.5397   23.1073 H   0  0  0  0  0  0
  -25.0067  -33.9682   25.0383 H   0  0  0  0  0  0
  -22.7248  -31.2997   21.3972 H   0  0  0  0  0  0
  -23.3754  -35.9619   23.3300 H   0  0  0  0  0  0
  -24.3580  -36.8910   22.2056 H   0  0  0  0  0  0
  -23.7254  -37.6484   23.6670 H   0  0  0  0  0  0
  -26.1160  -31.5202   20.6128 H   0  0  0  0  0  0
  -26.8532  -30.8122   22.0174 H   0  0  0  0  0  0
  -28.1222  -28.9097   21.2126 H   0  0  0  0  0  0
  -25.9789  -25.9425   18.9309 H   0  0  0  0  0  0
  -23.9809  -27.3221   18.9744 H   0  0  0  0  0  0
  -23.7778  -30.5860   19.4050 H   0  0  0  0  0  0
  -22.7658  -29.2459   19.8553 H   0  0  0  0  0  0
  -25.1306  -36.1913   25.0815 H   0  0  0  0  0  0
  -20.9972  -28.3268   24.1394 H   0  0  0  0  0  0
  -20.5680  -26.2301   23.3608 H   0  0  0  0  0  0
  -21.6647  -26.7437   22.1198 H   0  0  0  0  0  0
  -19.6920  -25.6286   21.1243 H   0  0  0  0  0  0
  -19.6692  -27.3186   20.6737 H   0  0  0  0  0  0
  -17.4203  -26.6666   21.4021 H   0  0  0  0  0  0
  -18.0334  -26.0064   22.9015 H   0  0  0  0  0  0
  -19.7944  -30.7271   24.2245 H   0  0  0  0  0  0
  -17.5021  -31.6266   24.5158 H   0  0  0  0  0  0
  -15.5355  -30.2974   23.7669 H   0  0  0  0  0  0
  -15.8674  -28.0814   22.7069 H   0  0  0  0  0  0
  -24.5904  -30.7071   25.7764 H   0  0  0  0  0  0
  -24.8894  -32.2903   26.4837 H   0  0  0  0  0  0
  -25.8027  -30.8933   27.0235 H   0  0  0  0  0  0
  -26.2950  -29.6734   24.1249 H   0  0  0  0  0  0
  -27.4022  -29.7274   25.4762 H   0  0  0  0  0  0
  -27.8839  -30.4256   23.9492 H   0  0  0  0  0  0
  -27.2664  -33.3647   26.2040 H   0  0  0  0  0  0
  -28.3884  -32.6863   25.0337 H   0  0  0  0  0  0
  -28.0702  -31.8478   26.5443 H   0  0  0  0  0  0
  -28.2593  -38.0099   24.7510 H   0  0  0  0  0  0
  -28.1081  -36.2629   24.6297 H   0  0  0  0  0  0
  -27.2293  -37.1449   25.8865 H   0  0  0  0  0  0
  -20.9405  -29.8766   21.6877 H   0  0  0  0  0  0
  -26.0172  -38.2838   24.1406 H   0  0  0  0  0  0
  -31.8622  -16.7807   22.0998 H   0  0  0  0  0  0
  -32.4883  -19.0789   22.6397 H   0  0  0  0  0  0
  -26.1827  -24.4959   21.1934 H   0  0  0  0  0  0
  -26.6359  -24.0372   19.5527 H   0  0  0  0  0  0
  -26.7485  -21.9128   20.5531 H   0  0  0  0  0  0
  -27.2934  -22.5423   22.0942 H   0  0  0  0  0  0
  -30.2904  -24.0333   20.3462 H   0  0  0  0  0  0
  -29.1793  -23.7790   19.0143 H   0  0  0  0  0  0
  -28.4970  -25.0741   21.7071 H   0  0  0  0  0  0
  -28.3106  -20.8211   19.3416 H   0  0  0  0  0  0
  -29.9099  -21.4162   19.1531 H   0  0  0  0  0  0
  -28.8316  -15.7143   20.5132 H   0  0  0  0  0  0
  -29.3295  -22.3749   21.5501 H   0  0  0  0  0  0
  1 25  1  0  0  0
  1 30  2  0  0  0
  1 82  1  0  0  0
  2  3  1  0  0  0
  2 25  1  0  0  0
  2 86  1  0  0  0
  2 87  1  0  0  0
  3  4  1  0  0  0
  3 88  1  0  0  0
  3 89  1  0  0  0
  4  5  1  0  0  0
  4 90  1  0  0  0
  4 91  1  0  0  0
  5  6  1  0  0  0
  5 26  1  0  0  0
  5 92  1  0  0  0
  6 25  1  0  0  0
  6 93  1  0  0  0
  6 94  1  0  0  0
  7  8  2  0  0  0
  7 26  1  0  0  0
  7 29  1  0  0  0
  8  9  1  0  0  0
  8 22  1  0  0  0
  9 10  1  0  0  0
  9 27  2  0  0  0
 10 11  2  0  0  0
 10 15  1  0  0  0
 11 12  1  0  0  0
 11 95  1  0  0  0
 12 13  2  0  0  0
 12 96  1  0  0  0
 13 14  1  0  0  0
 13 31  1  0  0  0
 14 15  2  0  0  0
 14 97  1  0  0  0
 15 98  1  0  0  0
 16 17  2  0  0  0
 16 21  1  0  0  0
 16 31  1  0  0  0
 17 18  1  0  0  0
 17 99  1  0  0  0
 18 19  2  0  0  0
 18100  1  0  0  0
 19 20  1  0  0  0
 19 24  1  0  0  0
 20 21  2  0  0  0
 20101  1  0  0  0
 21 23  1  0  0  0
 22 28  1  0  0  0
 22 32  2  0  0  0
 26 27  1  0  0  0
 28102  1  0  0  0
 28103  1  0  0  0
 29104  1  0  0  0
 29105  1  0  0  0
 33 34  1  0  0  0
 33 66  1  0  0  0
 33 70  2  0  0  0
 34 36  1  0  0  0
 34 59  1  0  0  0
 34106  1  0  0  0
 35 44  2  0  0  0
 35 45  1  0  0  0
 35 68  1  0  0  0
 36 56  1  0  0  0
 36107  1  0  0  0
 37 39  1  0  0  0
 37 47  1  0  0  0
 37 66  1  0  0  0
 37108  1  0  0  0
 38 43  2  0  0  0
 38 46  1  0  0  0
 38 47  1  0  0  0
 39 64  1  0  0  0
 39 67  2  0  0  0
 40 52  1  0  0  0
 40 53  2  0  0  0
 40 58  1  0  0  0
 41109  1  0  0  0
 41110  1  0  0  0
 41111  1  0  0  0
 41 48  1  0  0  0
 42 43  1  0  0  0
 42 66  1  0  0  0
 42112  1  0  0  0
 42113  1  0  0  0
 43 44  1  0  0  0
 44114  1  0  0  0
 45 46  2  0  0  0
 45115  1  0  0  0
 46116  1  0  0  0
 47117  1  0  0  0
 47118  1  0  0  0
 48 56  1  0  0  0
 48 65  1  0  0  0
 48119  1  0  0  0
 49 50  1  0  0  0
 49 53  1  0  0  0
 49 64  1  0  0  0
 49120  1  0  0  0
 50 51  1  0  0  0
 50121  1  0  0  0
 50122  1  0  0  0
 51 52  1  0  0  0
 51123  1  0  0  0
 51124  1  0  0  0
 52125  1  0  0  0
 52126  1  0  0  0
 53 54  1  0  0  0
 54 55  2  0  0  0
 54127  1  0  0  0
 55 57  1  0  0  0
 55128  1  0  0  0
 56 69  2  0  0  0
 57 58  2  0  0  0
 57129  1  0  0  0
 58130  1  0  0  0
 59 60  1  0  0  0
 59 61  1  0  0  0
 59 62  1  0  0  0
 60131  1  0  0  0
 60132  1  0  0  0
 60133  1  0  0  0
 61134  1  0  0  0
 61135  1  0  0  0
 61136  1  0  0  0
 62137  1  0  0  0
 62138  1  0  0  0
 62139  1  0  0  0
 63 65  1  0  0  0
 63140  1  0  0  0
 63141  1  0  0  0
 63142  1  0  0  0
 64143  1  0  0  0
 65144  1  0  0  0
 68 80  1  0  0  0
 71 72  2  0  0  0
 71 74  1  0  0  0
 71145  1  0  0  0
 72 76  1  0  0  0
 72146  1  0  0  0
 73 75  1  0  0  0
 73 76  2  0  0  0
 73 81  1  0  0  0
 74 75  2  0  0  0
 74 82  1  0  0  0
 75 84  1  0  0  0
 76 85  1  0  0  0
 77 78  1  0  0  0
 77 80  1  0  0  0
 77147  1  0  0  0
 77148  1  0  0  0
 78 83  1  0  0  0
 78149  1  0  0  0
 78150  1  0  0  0
 79 80  1  0  0  0
 79 83  1  0  0  0
 79151  1  0  0  0
 79152  1  0  0  0
 80153  1  0  0  0
 81154  1  0  0  0
 81155  1  0  0  0
 81 83  1  0  0  0
 82156  1  0  0  0
 83157  1  0  0  0
M  CHG  1  83   1
M  ISO  4   1 100  68 101  80 101  82 100
M  END
> <chiral flag>
0

> <version>
0

> <s_m_source_file>
/data/baiqing/PycharmProjects/Reinvent-master-3.2/result/LINK_invent/BTK/process_docking_weight1_custom_product_contain_oxygen_bond_distance_aromatic_linkinvent_7_9_3/rearranged_h_0026.sdf

> <i_m_source_file_index>
60

> <r_mmod_Potential_Energy-OPLS-2005>
67.5874786376953

> <r_mmod_Stretch_Energy-OPLS-2005>
125.345260620117

> <r_mmod_Bend_Energy-OPLS-2005>
208.228530883789

> <r_mmod_Torsional_Energy-OPLS-2005>
295.527618408203

> <r_mmod_Improper_Torsional_Energy-OPLS-2005>
7.41134357452393

> <r_mmod_Van_der_Waal_Energy-OPLS-2005>
135.610778808594

> <r_mmod_Electrostatic_Energy-OPLS-2005>
-359.118835449219

> <r_mmod_Solvation_Energy-OPLS-2005>
-432.669189453125

> <b_mmod_Minimization_Converged-OPLS-2005>
0

> <r_mmod_RMS_Derivative-OPLS-2005>
0.650242924690247

$$$$
60
                    3D
 Structure written by MMmdl.
163172  0  0  1  0            999 V2000
  -30.7130  -14.5144   20.6420 C   0  0  0  0  0  0
  -30.4348  -12.3682   19.4304 C   0  0  0  0  0  0
  -29.5084  -12.5408   18.2144 C   0  0  0  0  0  0
  -28.0285  -12.3848   18.6155 C   0  0  0  0  0  0
  -27.6682  -13.2141   19.8808 C   0  0  2  0  0  0
  -28.7118  -12.9971   20.9996 C   0  0  0  0  0  0
  -25.2588  -13.8108   20.5480 C   0  0  0  0  0  0
  -24.1875  -13.0394   20.9133 C   0  0  0  0  0  0
  -24.6462  -11.6868   20.8749 C   0  0  0  0  0  0
  -23.9122  -10.4257   21.0402 C   0  0  0  0  0  0
  -24.3667   -9.4151   21.9169 C   0  0  0  0  0  0
  -23.6297   -8.2212   22.0739 C   0  0  0  0  0  0
  -22.4272   -8.0276   21.3541 C   0  0  0  0  0  0
  -21.9922   -9.0271   20.4662 C   0  0  0  0  0  0
  -22.7278  -10.2136   20.3047 C   0  0  0  0  0  0
  -21.6846   -6.0718   22.5293 C   0  0  0  0  0  0
  -21.4024   -6.5631   23.8235 C   0  0  0  0  0  0
  -21.3669   -5.6783   24.9196 C   0  0  0  0  0  0
  -21.6041   -4.3043   24.7261 C   0  0  0  0  0  0
  -21.8827   -3.8131   23.4380 C   0  0  0  0  0  0
  -21.9203   -4.6942   22.3423 C   0  0  0  0  0  0
  -22.7917  -13.5211   21.1797 C   0  0  0  0  0  0
  -22.1665   -4.2129   21.1006 F   0  0  0  0  0  0
  -21.5613   -3.4526   25.7771 F   0  0  0  0  0  0
  -30.0295  -13.3466   20.4548 N   0  0  0  0  0  0
  -26.3085  -12.9320   20.3357 N   0  0  0  0  0  0
  -25.9415  -11.6487   20.5834 N   0  0  0  0  0  0
  -22.0608  -12.8262   22.0469 N   0  0  0  0  0  0
  -25.4148  -15.1749   20.3505 N   0  0  0  0  0  0
  -31.7859  -14.7365   20.0709 O   0  0  0  0  0  0
  -21.6621   -6.8871   21.4247 O   0  0  0  0  0  0
  -22.3546  -14.5466   20.6590 O   0  0  0  0  0  0
  -24.6193  -31.8617   23.2076 C   0  0  0  0  0  0
  -25.9086  -32.4784   23.8356 C   0  0  1  0  0  0
  -27.2310  -27.3694   20.0680 C   0  0  0  0  0  0
  -25.5923  -33.8596   24.2236 N   0  0  0  0  0  0
  -23.4072  -30.4831   21.5567 C   0  0  2  0  0  0
  -24.8499  -28.9481   20.1122 C   0  0  0  0  0  0
  -22.7387  -29.4611   22.5047 C   0  0  0  0  0  0
  -18.0292  -28.1354   22.8542 C   0  0  0  0  0  0
  -24.1470  -36.7277   23.2627 C   0  0  0  0  0  0
  -25.9503  -30.7983   21.3834 C   0  0  0  0  0  0
  -26.0200  -29.4406   20.7021 C   0  0  0  0  0  0
  -27.2111  -28.6650   20.6644 C   0  0  0  0  0  0
  -26.0254  -26.9032   19.4965 C   0  0  0  0  0  0
  -24.8516  -27.6800   19.5089 C   0  0  0  0  0  0
  -23.6092  -29.8113   20.1753 C   0  0  0  0  0  0
  -25.4115  -36.3068   24.0284 C   0  0  1  0  0  0
  -20.5869  -28.3601   23.1369 C   0  0  2  0  0  0
  -20.6792  -26.9345   22.5433 C   0  0  0  0  0  0
  -19.5758  -26.6362   21.5247 C   0  0  0  0  0  0
  -18.1930  -26.7917   22.1647 C   0  0  0  0  0  0
  -19.1536  -28.8814   23.2933 C   0  0  0  0  0  0
  -18.9450  -30.1449   23.8865 C   0  0  0  0  0  0
  -17.6444  -30.6562   24.0565 C   0  0  0  0  0  0
  -25.9058  -34.9447   23.5051 C   0  0  0  0  0  0
  -16.5340  -29.9010   23.6409 C   0  0  0  0  0  0
  -16.7277  -28.6450   23.0410 C   0  0  0  0  0  0
  -26.4461  -31.6672   25.0796 C   0  0  0  0  0  0
  -25.3704  -31.3893   26.1554 C   0  0  0  0  0  0
  -27.0336  -30.3059   24.6407 C   0  0  0  0  0  0
  -27.5946  -32.4493   25.7591 C   0  0  0  0  0  0
  -27.5550  -37.1790   24.8443 C   0  0  0  0  0  0
  -21.4125  -29.2938   22.3743 N   0  0  0  0  0  0
  -26.4273  -37.3776   23.9379 N   0  0  0  0  0  0
  -24.6772  -31.0611   22.1032 N   0  0  0  0  0  0
  -23.4135  -28.8198   23.3153 O   0  0  0  0  0  0
  -28.4039  -26.6051   20.0821 O   0  0  0  0  0  0
  -26.5600  -34.8898   22.4597 O   0  0  0  0  0  0
  -23.5378  -32.1429   23.7408 O   0  0  0  0  0  0
  -29.7542  -17.7693   20.8321 C   0  0  0  0  0  0
  -28.0901  -16.4182   21.9710 C   0  0  0  0  0  0
  -28.8845  -18.9133   20.8217 C   0  0  0  0  0  0
  -27.5962  -18.7626   21.4142 C   0  0  0  0  0  0
  -29.3613  -16.5078   21.3818 C   0  0  0  0  0  0
  -27.2210  -17.5230   22.0026 C   0  0  0  0  0  0
  -29.7520  -23.8340   21.2119 C   0  0  0  0  0  0
  -29.9369  -22.3115   21.4531 C   0  0  0  0  0  0
  -28.4421  -22.6138   19.6446 C   0  0  0  0  0  0
  -28.4930  -24.0122   20.3430 C   0  0  2  0  0  0
  -26.6209  -19.9318   21.4478 C   0  0  0  0  0  0
  -29.3292  -20.2336   20.0909 C   0  0  0  0  0  0
  -28.5075  -25.2978   19.4218 C   0  0  0  0  0  0
  -30.2625  -15.3950   21.5670 N   0  0  0  0  0  0
  -28.9265  -21.5954   20.6355 N   0  3  1  0  0  0
  -25.7103  -17.3134   22.8213 Cl  0  0  0  0  0  0
  -31.4762  -12.4868   19.1315 H   0  0  0  0  0  0
  -30.3618  -11.3545   19.8292 H   0  0  0  0  0  0
  -29.7717  -11.8135   17.4450 H   0  0  0  0  0  0
  -29.6702  -13.5261   17.7738 H   0  0  0  0  0  0
  -27.8422  -11.3252   18.8031 H   0  0  0  0  0  0
  -27.3826  -12.6697   17.7819 H   0  0  0  0  0  0
  -27.7075  -14.2643   19.5959 H   0  0  0  0  0  0
  -28.7206  -11.9536   21.3149 H   0  0  0  0  0  0
  -28.4657  -13.5627   21.8931 H   0  0  0  0  0  0
  -25.2849   -9.5560   22.4718 H   0  0  0  0  0  0
  -23.9972   -7.4596   22.7472 H   0  0  0  0  0  0
  -21.0825   -8.8838   19.9033 H   0  0  0  0  0  0
  -22.3761  -10.9669   19.6137 H   0  0  0  0  0  0
  -21.1997   -7.6136   23.9732 H   0  0  0  0  0  0
  -21.1482   -6.0505   25.9101 H   0  0  0  0  0  0
  -22.0594   -2.7582   23.2895 H   0  0  0  0  0  0
  -22.4288  -12.0105   22.5149 H   0  0  0  0  0  0
  -21.1243  -13.1373   22.2641 H   0  0  0  0  0  0
  -24.6583  -15.8266   20.5177 H   0  0  0  0  0  0
  -26.2559  -15.6226   20.0130 H   0  0  0  0  0  0
  -26.7145  -32.5396   23.1081 H   0  0  0  0  0  0
  -25.0127  -33.9800   25.0411 H   0  0  0  0  0  0
  -22.7021  -31.3045   21.4166 H   0  0  0  0  0  0
  -23.3737  -35.9605   23.3330 H   0  0  0  0  0  0
  -24.3543  -36.8895   22.2038 H   0  0  0  0  0  0
  -23.7260  -37.6481   23.6664 H   0  0  0  0  0  0
  -26.1116  -31.5893   20.6495 H   0  0  0  0  0  0
  -26.8130  -30.8007   22.0390 H   0  0  0  0  0  0
  -28.1151  -29.0572   21.1062 H   0  0  0  0  0  0
  -25.9400  -25.9297   19.0436 H   0  0  0  0  0  0
  -23.9465  -27.2801   19.0728 H   0  0  0  0  0  0
  -23.6878  -30.5804   19.4067 H   0  0  0  0  0  0
  -22.7334  -29.2117   19.9074 H   0  0  0  0  0  0
  -25.1317  -36.1883   25.0776 H   0  0  0  0  0  0
  -20.9969  -28.3129   24.1489 H   0  0  0  0  0  0
  -20.5791  -26.2142   23.3582 H   0  0  0  0  0  0
  -21.6647  -26.7454   22.1146 H   0  0  0  0  0  0
  -19.6893  -25.6270   21.1252 H   0  0  0  0  0  0
  -19.6724  -27.3202   20.6808 H   0  0  0  0  0  0
  -17.4221  -26.6754   21.4005 H   0  0  0  0  0  0
  -18.0249  -26.0024   22.8996 H   0  0  0  0  0  0
  -19.7921  -30.7343   24.2115 H   0  0  0  0  0  0
  -17.4986  -31.6270   24.5110 H   0  0  0  0  0  0
  -15.5322  -30.2876   23.7793 H   0  0  0  0  0  0
  -15.8695  -28.0761   22.7123 H   0  0  0  0  0  0
  -24.5766  -30.7366   25.7926 H   0  0  0  0  0  0
  -24.9067  -32.3129   26.5006 H   0  0  0  0  0  0
  -25.8038  -30.9037   27.0316 H   0  0  0  0  0  0
  -26.3026  -29.6836   24.1250 H   0  0  0  0  0  0
  -27.3732  -29.7309   25.5035 H   0  0  0  0  0  0
  -27.8986  -30.4264   23.9896 H   0  0  0  0  0  0
  -27.2414  -33.3720   26.2190 H   0  0  0  0  0  0
  -28.3732  -32.7233   25.0474 H   0  0  0  0  0  0
  -28.0652  -31.8702   26.5533 H   0  0  0  0  0  0
  -28.2564  -38.0084   24.7489 H   0  0  0  0  0  0
  -28.1057  -36.2621   24.6286 H   0  0  0  0  0  0
  -27.2256  -37.1445   25.8841 H   0  0  0  0  0  0
  -20.9255  -29.8494   21.6856 H   0  0  0  0  0  0
  -26.0131  -38.2812   24.1476 H   0  0  0  0  0  0
  -30.7501  -17.8608   20.4232 H   0  0  0  0  0  0
  -27.7783  -15.5076   22.4573 H   0  0  0  0  0  0
  -30.6255  -24.2046   20.6728 H   0  0  0  0  0  0
  -29.6929  -24.4000   22.1437 H   0  0  0  0  0  0
  -29.8254  -22.0448   22.5015 H   0  0  0  0  0  0
  -30.9497  -22.0357   21.1543 H   0  0  0  0  0  0
  -29.1065  -22.6123   18.7780 H   0  0  0  0  0  0
  -27.4384  -22.3797   19.2809 H   0  0  0  0  0  0
  -27.6195  -24.0866   20.9923 H   0  0  0  0  0  0
  -26.5319  -20.3803   20.4565 H   0  0  0  0  0  0
  -26.9744  -20.6752   22.1640 H   0  0  0  0  0  0
  -25.6115  -19.6607   21.7515 H   0  0  0  0  0  0
  -28.9511  -20.1540   19.0705 H   0  0  0  0  0  0
  -30.4155  -20.2053   19.9944 H   0  0  0  0  0  0
  -27.8037  -25.1851   18.5992 H   0  0  0  0  0  0
  -29.4660  -25.3064   18.8998 H   0  0  0  0  0  0
  -31.0568  -15.6866   22.1147 H   0  0  0  0  0  0
  -28.1484  -21.4240   21.2590 H   0  0  0  0  0  0
  1 25  1  0  0  0
  1 30  2  0  0  0
  1 84  1  0  0  0
  2  3  1  0  0  0
  2 25  1  0  0  0
  2 87  1  0  0  0
  2 88  1  0  0  0
  3  4  1  0  0  0
  3 89  1  0  0  0
  3 90  1  0  0  0
  4  5  1  0  0  0
  4 91  1  0  0  0
  4 92  1  0  0  0
  5  6  1  0  0  0
  5 26  1  0  0  0
  5 93  1  0  0  0
  6 25  1  0  0  0
  6 94  1  0  0  0
  6 95  1  0  0  0
  7  8  2  0  0  0
  7 26  1  0  0  0
  7 29  1  0  0  0
  8  9  1  0  0  0
  8 22  1  0  0  0
  9 10  1  0  0  0
  9 27  2  0  0  0
 10 11  2  0  0  0
 10 15  1  0  0  0
 11 12  1  0  0  0
 11 96  1  0  0  0
 12 13  2  0  0  0
 12 97  1  0  0  0
 13 14  1  0  0  0
 13 31  1  0  0  0
 14 15  2  0  0  0
 14 98  1  0  0  0
 15 99  1  0  0  0
 16 17  2  0  0  0
 16 21  1  0  0  0
 16 31  1  0  0  0
 17 18  1  0  0  0
 17100  1  0  0  0
 18 19  2  0  0  0
 18101  1  0  0  0
 19 20  1  0  0  0
 19 24  1  0  0  0
 20 21  2  0  0  0
 20102  1  0  0  0
 21 23  1  0  0  0
 22 28  1  0  0  0
 22 32  2  0  0  0
 26 27  1  0  0  0
 28103  1  0  0  0
 28104  1  0  0  0
 29105  1  0  0  0
 29106  1  0  0  0
 33 34  1  0  0  0
 33 66  1  0  0  0
 33 70  2  0  0  0
 34 36  1  0  0  0
 34 59  1  0  0  0
 34107  1  0  0  0
 35 44  2  0  0  0
 35 45  1  0  0  0
 35 68  1  0  0  0
 36 56  1  0  0  0
 36108  1  0  0  0
 37 39  1  0  0  0
 37 47  1  0  0  0
 37 66  1  0  0  0
 37109  1  0  0  0
 38 43  2  0  0  0
 38 46  1  0  0  0
 38 47  1  0  0  0
 39 64  1  0  0  0
 39 67  2  0  0  0
 40 52  1  0  0  0
 40 53  2  0  0  0
 40 58  1  0  0  0
 41110  1  0  0  0
 41111  1  0  0  0
 41112  1  0  0  0
 41 48  1  0  0  0
 42 43  1  0  0  0
 42 66  1  0  0  0
 42113  1  0  0  0
 42114  1  0  0  0
 43 44  1  0  0  0
 44115  1  0  0  0
 45 46  2  0  0  0
 45116  1  0  0  0
 46117  1  0  0  0
 47118  1  0  0  0
 47119  1  0  0  0
 48 56  1  0  0  0
 48 65  1  0  0  0
 48120  1  0  0  0
 49 50  1  0  0  0
 49 53  1  0  0  0
 49 64  1  0  0  0
 49121  1  0  0  0
 50 51  1  0  0  0
 50122  1  0  0  0
 50123  1  0  0  0
 51 52  1  0  0  0
 51124  1  0  0  0
 51125  1  0  0  0
 52126  1  0  0  0
 52127  1  0  0  0
 53 54  1  0  0  0
 54 55  2  0  0  0
 54128  1  0  0  0
 55 57  1  0  0  0
 55129  1  0  0  0
 56 69  2  0  0  0
 57 58  2  0  0  0
 57130  1  0  0  0
 58131  1  0  0  0
 59 60  1  0  0  0
 59 61  1  0  0  0
 59 62  1  0  0  0
 60132  1  0  0  0
 60133  1  0  0  0
 60134  1  0  0  0
 61135  1  0  0  0
 61136  1  0  0  0
 61137  1  0  0  0
 62138  1  0  0  0
 62139  1  0  0  0
 62140  1  0  0  0
 63 65  1  0  0  0
 63141  1  0  0  0
 63142  1  0  0  0
 63143  1  0  0  0
 64144  1  0  0  0
 65145  1  0  0  0
 68 83  1  0  0  0
 71 73  2  0  0  0
 71 75  1  0  0  0
 71146  1  0  0  0
 72 75  2  0  0  0
 72 76  1  0  0  0
 72147  1  0  0  0
 73 74  1  0  0  0
 73 82  1  0  0  0
 74 76  2  0  0  0
 74 81  1  0  0  0
 75 84  1  0  0  0
 76 86  1  0  0  0
 77 78  1  0  0  0
 77 80  1  0  0  0
 77148  1  0  0  0
 77149  1  0  0  0
 78 85  1  0  0  0
 78150  1  0  0  0
 78151  1  0  0  0
 79 80  1  0  0  0
 79 85  1  0  0  0
 79152  1  0  0  0
 79153  1  0  0  0
 80 83  1  0  0  0
 80154  1  0  0  0
 81155  1  0  0  0
 81156  1  0  0  0
 81157  1  0  0  0
 82158  1  0  0  0
 82159  1  0  0  0
 82 85  1  0  0  0
 83160  1  0  0  0
 83161  1  0  0  0
 84162  1  0  0  0
 85163  1  0  0  0
M  CHG  1  85   1
M  ISO  4   1 100  68 101  83 101  84 100
M  END
> <chiral flag>
0

> <version>
0

> <s_m_source_file>
/data/baiqing/PycharmProjects/Reinvent-master-3.2/result/LINK_invent/BTK/process_docking_weight1_custom_product_contain_oxygen_bond_distance_aromatic_linkinvent_7_9_3/rearranged_h_0026.sdf

> <i_m_source_file_index>
61

> <r_mmod_Potential_Energy-OPLS-2005>
17.6369438171387

> <r_mmod_Stretch_Energy-OPLS-2005>
65.3373794555664

> <r_mmod_Bend_Energy-OPLS-2005>
170.046249389648

> <r_mmod_Torsional_Energy-OPLS-2005>
326.697296142578

> <r_mmod_Improper_Torsional_Energy-OPLS-2005>
8.19948673248291

> <r_mmod_Van_der_Waal_Energy-OPLS-2005>
140.284271240234

> <r_mmod_Electrostatic_Energy-OPLS-2005>
-265.227478027344

> <r_mmod_Solvation_Energy-OPLS-2005>
-450.187927246094

> <b_mmod_Minimization_Converged-OPLS-2005>
0

> <r_mmod_RMS_Derivative-OPLS-2005>
6.27492570877075

$$$$
61
                    3D
 Structure written by MMmdl.
169177  0  0  1  0            999 V2000
  -30.5809  -14.7861   20.4619 C   0  0  0  0  0  0
  -30.4422  -12.4811   19.4826 C   0  0  0  0  0  0
  -29.5193  -12.5153   18.2439 C   0  0  0  0  0  0
  -28.0441  -12.3340   18.6550 C   0  0  0  0  0  0
  -27.6436  -13.2313   19.8571 C   0  0  2  0  0  0
  -28.6898  -13.1666   20.9915 C   0  0  0  0  0  0
  -25.2495  -13.8144   20.5653 C   0  0  0  0  0  0
  -24.1798  -13.0394   20.9213 C   0  0  0  0  0  0
  -24.6395  -11.6886   20.8756 C   0  0  0  0  0  0
  -23.9068  -10.4284   21.0413 C   0  0  0  0  0  0
  -24.3615   -9.4199   21.9189 C   0  0  0  0  0  0
  -23.6287   -8.2233   22.0766 C   0  0  0  0  0  0
  -22.4271   -8.0270   21.3543 C   0  0  0  0  0  0
  -21.9905   -9.0251   20.4655 C   0  0  0  0  0  0
  -22.7242  -10.2126   20.3056 C   0  0  0  0  0  0
  -21.6853   -6.0726   22.5275 C   0  0  0  0  0  0
  -21.4036   -6.5631   23.8207 C   0  0  0  0  0  0
  -21.3666   -5.6775   24.9162 C   0  0  0  0  0  0
  -21.6041   -4.3040   24.7215 C   0  0  0  0  0  0
  -21.8825   -3.8141   23.4337 C   0  0  0  0  0  0
  -21.9195   -4.6957   22.3390 C   0  0  0  0  0  0
  -22.7835  -13.5215   21.1850 C   0  0  0  0  0  0
  -22.1629   -4.2131   21.0967 F   0  0  0  0  0  0
  -21.5617   -3.4541   25.7742 F   0  0  0  0  0  0
  -29.9854  -13.5428   20.4109 N   0  0  0  0  0  0
  -26.2949  -12.9367   20.3321 N   0  0  0  0  0  0
  -25.9335  -11.6509   20.5797 N   0  0  0  0  0  0
  -22.0438  -12.8264   22.0422 N   0  0  0  0  0  0
  -25.4074  -15.1847   20.3954 N   0  0  0  0  0  0
  -31.7650  -14.9095   20.1382 O   0  0  0  0  0  0
  -21.6623   -6.8875   21.4238 O   0  0  0  0  0  0
  -22.3536  -14.5504   20.6671 O   0  0  0  0  0  0
  -24.6327  -31.8518   23.1934 C   0  0  0  0  0  0
  -25.9146  -32.4736   23.8280 C   0  0  1  0  0  0
  -27.2375  -27.2467   20.1172 C   0  0  0  0  0  0
  -25.5927  -33.8533   24.2214 N   0  0  0  0  0  0
  -23.4310  -30.4705   21.5368 C   0  0  2  0  0  0
  -24.8807  -28.9128   20.1051 C   0  0  0  0  0  0
  -22.7495  -29.4577   22.4890 C   0  0  0  0  0  0
  -18.0289  -28.1370   22.8487 C   0  0  0  0  0  0
  -24.1499  -36.7281   23.2635 C   0  0  0  0  0  0
  -25.9764  -30.7589   21.3755 C   0  0  0  0  0  0
  -26.0503  -29.3798   20.7158 C   0  0  0  0  0  0
  -27.2262  -28.5598   20.7086 C   0  0  0  0  0  0
  -26.0374  -26.8470   19.4852 C   0  0  0  0  0  0
  -24.8812  -27.6561   19.4779 C   0  0  0  0  0  0
  -23.6479  -29.7977   20.1553 C   0  0  0  0  0  0
  -25.4126  -36.3055   24.0307 C   0  0  1  0  0  0
  -20.5887  -28.3695   23.1263 C   0  0  2  0  0  0
  -20.6784  -26.9414   22.5410 C   0  0  0  0  0  0
  -19.5758  -26.6368   21.5214 C   0  0  0  0  0  0
  -18.1931  -26.7919   22.1618 C   0  0  0  0  0  0
  -19.1538  -28.8850   23.2872 C   0  0  0  0  0  0
  -18.9463  -30.1451   23.8890 C   0  0  0  0  0  0
  -17.6458  -30.6578   24.0550 C   0  0  0  0  0  0
  -25.9058  -34.9426   23.5061 C   0  0  0  0  0  0
  -16.5348  -29.9070   23.6328 C   0  0  0  0  0  0
  -16.7274  -28.6483   23.0362 C   0  0  0  0  0  0
  -26.4499  -31.6568   25.0689 C   0  0  0  0  0  0
  -25.3707  -31.3744   26.1400 C   0  0  0  0  0  0
  -27.0359  -30.2975   24.6215 C   0  0  0  0  0  0
  -27.6040  -32.4321   25.7471 C   0  0  0  0  0  0
  -27.5582  -37.1791   24.8446 C   0  0  0  0  0  0
  -21.4193  -29.3037   22.3638 N   0  0  0  0  0  0
  -26.4300  -37.3758   23.9388 N   0  0  0  0  0  0
  -24.6990  -31.0471   22.0912 N   0  0  0  0  0  0
  -23.4183  -28.8111   23.2995 O   0  0  0  0  0  0
  -28.3612  -26.3827   20.2092 O   0  0  0  0  0  0
  -26.5642  -34.8913   22.4643 O   0  0  0  0  0  0
  -23.5474  -32.1332   23.7227 O   0  0  0  0  0  0
  -26.0760  -19.3960   20.3306 C   0  0  0  0  0  0
  -26.3030  -18.4192   21.3039 C   0  0  0  0  0  0
  -28.7120  -18.4246   20.7643 C   0  0  0  0  0  0
  -27.1625  -20.0517   19.7270 C   0  0  0  0  0  0
  -28.5010  -19.7721   20.1644 C   0  0  0  0  0  0
  -27.5949  -17.9072   21.4891 C   0  0  0  0  0  0
  -27.9084  -21.2814   16.3776 C   0  0  0  0  0  0
  -24.6301  -21.9101   18.1187 C   0  0  0  0  0  0
  -29.9777  -17.4334   20.6373 C   0  0  0  0  0  0
  -28.6697  -23.5955   20.4024 C   0  0  0  0  0  0
  -27.1349  -20.3476   17.3211 C   0  0  0  0  0  0
  -25.9627  -22.0368   18.8677 C   0  0  0  0  0  0
  -29.2928  -22.3158   19.5961 C   0  0  0  0  0  0
  -28.4833  -25.0083   19.5891 C   0  0  0  0  0  0
  -29.4458  -20.8835   20.1446 N   0  0  0  0  0  0
  -29.7675  -15.8941   20.6790 N   0  0  0  0  0  0
  -26.8799  -20.9170   18.6500 N   0  0  0  0  0  0
  -27.7410  -16.6344   22.6556 Cl  0  0  0  0  0  0
  -31.4819  -12.6226   19.1830 H   0  0  0  0  0  0
  -30.4019  -11.5052   19.9706 H   0  0  0  0  0  0
  -29.8105  -11.7358   17.5383 H   0  0  0  0  0  0
  -29.6422  -13.4626   17.7176 H   0  0  0  0  0  0
  -27.9061  -11.2857   18.9197 H   0  0  0  0  0  0
  -27.3860  -12.5221   17.8059 H   0  0  0  0  0  0
  -27.6377  -14.2547   19.4816 H   0  0  0  0  0  0
  -28.7432  -12.1636   21.4163 H   0  0  0  0  0  0
  -28.4196  -13.8317   21.8131 H   0  0  0  0  0  0
  -25.2758   -9.5684   22.4759 H   0  0  0  0  0  0
  -23.9994   -7.4644   22.7502 H   0  0  0  0  0  0
  -21.0825   -8.8788   19.8979 H   0  0  0  0  0  0
  -22.3696  -10.9660   19.6167 H   0  0  0  0  0  0
  -21.2033   -7.6134   23.9714 H   0  0  0  0  0  0
  -21.1480   -6.0491   25.9061 H   0  0  0  0  0  0
  -22.0608   -2.7603   23.2833 H   0  0  0  0  0  0
  -22.3997  -11.9949   22.4895 H   0  0  0  0  0  0
  -21.1049  -13.1342   22.2512 H   0  0  0  0  0  0
  -24.6289  -15.8243   20.5006 H   0  0  0  0  0  0
  -26.2577  -15.6400   20.0963 H   0  0  0  0  0  0
  -26.7198  -32.5392   23.1006 H   0  0  0  0  0  0
  -25.0085  -33.9665   25.0363 H   0  0  0  0  0  0
  -22.7294  -31.2934   21.3875 H   0  0  0  0  0  0
  -23.3770  -35.9605   23.3279 H   0  0  0  0  0  0
  -24.3592  -36.8934   22.2056 H   0  0  0  0  0  0
  -23.7253  -37.6467   23.6685 H   0  0  0  0  0  0
  -26.1189  -31.5218   20.6096 H   0  0  0  0  0  0
  -26.8526  -30.8033   22.0109 H   0  0  0  0  0  0
  -28.1257  -28.9189   21.1903 H   0  0  0  0  0  0
  -25.9476  -25.8822   19.0134 H   0  0  0  0  0  0
  -23.9828  -27.2913   18.9976 H   0  0  0  0  0  0
  -23.7627  -30.5703   19.3935 H   0  0  0  0  0  0
  -22.7682  -29.2232   19.8580 H   0  0  0  0  0  0
  -25.1319  -36.1893   25.0799 H   0  0  0  0  0  0
  -20.9990  -28.3298   24.1380 H   0  0  0  0  0  0
  -20.5689  -26.2315   23.3622 H   0  0  0  0  0  0
  -21.6655  -26.7443   22.1201 H   0  0  0  0  0  0
  -19.6931  -25.6276   21.1257 H   0  0  0  0  0  0
  -19.6704  -27.3177   20.6736 H   0  0  0  0  0  0
  -17.4218  -26.6675   21.4006 H   0  0  0  0  0  0
  -18.0326  -26.0052   22.8996 H   0  0  0  0  0  0
  -19.7938  -30.7260   24.2270 H   0  0  0  0  0  0
  -17.5012  -31.6263   24.5142 H   0  0  0  0  0  0
  -15.5351  -30.2962   23.7656 H   0  0  0  0  0  0
  -15.8675  -28.0784   22.7098 H   0  0  0  0  0  0
  -24.5865  -30.7121   25.7711 H   0  0  0  0  0  0
  -24.8930  -32.2934   26.4795 H   0  0  0  0  0  0
  -25.7996  -30.8915   27.0189 H   0  0  0  0  0  0
  -26.2955  -29.6700   24.1244 H   0  0  0  0  0  0
  -27.4011  -29.7256   25.4753 H   0  0  0  0  0  0
  -27.8831  -30.4207   23.9473 H   0  0  0  0  0  0
  -27.2618  -33.3607   26.2037 H   0  0  0  0  0  0
  -28.3855  -32.6900   25.0318 H   0  0  0  0  0  0
  -28.0698  -31.8465   26.5402 H   0  0  0  0  0  0
  -28.2572  -38.0110   24.7525 H   0  0  0  0  0  0
  -28.1104  -36.2645   24.6243 H   0  0  0  0  0  0
  -27.2298  -37.1402   25.8844 H   0  0  0  0  0  0
  -20.9384  -29.8773   21.6851 H   0  0  0  0  0  0
  -26.0172  -38.2819   24.1423 H   0  0  0  0  0  0
  -25.0610  -19.6563   20.0714 H   0  0  0  0  0  0
  -25.4697  -17.9816   21.8354 H   0  0  0  0  0  0
  -27.9571  -20.8480   15.3789 H   0  0  0  0  0  0
  -28.9410  -21.4151   16.6985 H   0  0  0  0  0  0
  -27.4406  -22.2622   16.2850 H   0  0  0  0  0  0
  -23.9854  -22.7557   18.3583 H   0  0  0  0  0  0
  -24.0934  -20.9979   18.3794 H   0  0  0  0  0  0
  -24.7764  -21.9267   17.0381 H   0  0  0  0  0  0
  -30.6786  -17.6921   21.4307 H   0  0  0  0  0  0
  -30.4829  -17.6724   19.7004 H   0  0  0  0  0  0
  -29.3110  -23.7817   21.2644 H   0  0  0  0  0  0
  -27.7003  -23.3218   20.8171 H   0  0  0  0  0  0
  -27.6950  -19.4149   17.4104 H   0  0  0  0  0  0
  -26.1856  -20.0744   16.8598 H   0  0  0  0  0  0
  -25.7632  -22.1473   19.9354 H   0  0  0  0  0  0
  -26.4626  -22.9557   18.5646 H   0  0  0  0  0  0
  -30.3144  -22.6105   19.3545 H   0  0  0  0  0  0
  -28.8307  -22.2902   18.6190 H   0  0  0  0  0  0
  -27.7291  -24.8574   18.8214 H   0  0  0  0  0  0
  -29.3966  -25.1030   19.0011 H   0  0  0  0  0  0
  -30.3809  -20.6620   20.4739 H   0  0  0  0  0  0
  -28.8304  -15.6333   20.9447 H   0  0  0  0  0  0
  1 25  1  0  0  0
  1 30  2  0  0  0
  1 86  1  0  0  0
  2  3  1  0  0  0
  2 25  1  0  0  0
  2 89  1  0  0  0
  2 90  1  0  0  0
  3  4  1  0  0  0
  3 91  1  0  0  0
  3 92  1  0  0  0
  4  5  1  0  0  0
  4 93  1  0  0  0
  4 94  1  0  0  0
  5  6  1  0  0  0
  5 26  1  0  0  0
  5 95  1  0  0  0
  6 25  1  0  0  0
  6 96  1  0  0  0
  6 97  1  0  0  0
  7  8  2  0  0  0
  7 26  1  0  0  0
  7 29  1  0  0  0
  8  9  1  0  0  0
  8 22  1  0  0  0
  9 10  1  0  0  0
  9 27  2  0  0  0
 10 11  2  0  0  0
 10 15  1  0  0  0
 11 12  1  0  0  0
 11 98  1  0  0  0
 12 13  2  0  0  0
 12 99  1  0  0  0
 13 14  1  0  0  0
 13 31  1  0  0  0
 14 15  2  0  0  0
 14100  1  0  0  0
 15101  1  0  0  0
 16 17  2  0  0  0
 16 21  1  0  0  0
 16 31  1  0  0  0
 17 18  1  0  0  0
 17102  1  0  0  0
 18 19  2  0  0  0
 18103  1  0  0  0
 19 20  1  0  0  0
 19 24  1  0  0  0
 20 21  2  0  0  0
 20104  1  0  0  0
 21 23  1  0  0  0
 22 28  1  0  0  0
 22 32  2  0  0  0
 26 27  1  0  0  0
 28105  1  0  0  0
 28106  1  0  0  0
 29107  1  0  0  0
 29108  1  0  0  0
 33 34  1  0  0  0
 33 66  1  0  0  0
 33 70  2  0  0  0
 34 36  1  0  0  0
 34 59  1  0  0  0
 34109  1  0  0  0
 35 44  2  0  0  0
 35 45  1  0  0  0
 35 68  1  0  0  0
 36 56  1  0  0  0
 36110  1  0  0  0
 37 39  1  0  0  0
 37 47  1  0  0  0
 37 66  1  0  0  0
 37111  1  0  0  0
 38 43  2  0  0  0
 38 46  1  0  0  0
 38 47  1  0  0  0
 39 64  1  0  0  0
 39 67  2  0  0  0
 40 52  1  0  0  0
 40 53  2  0  0  0
 40 58  1  0  0  0
 41112  1  0  0  0
 41113  1  0  0  0
 41114  1  0  0  0
 41 48  1  0  0  0
 42 43  1  0  0  0
 42 66  1  0  0  0
 42115  1  0  0  0
 42116  1  0  0  0
 43 44  1  0  0  0
 44117  1  0  0  0
 45 46  2  0  0  0
 45118  1  0  0  0
 46119  1  0  0  0
 47120  1  0  0  0
 47121  1  0  0  0
 48 56  1  0  0  0
 48 65  1  0  0  0
 48122  1  0  0  0
 49 50  1  0  0  0
 49 53  1  0  0  0
 49 64  1  0  0  0
 49123  1  0  0  0
 50 51  1  0  0  0
 50124  1  0  0  0
 50125  1  0  0  0
 51 52  1  0  0  0
 51126  1  0  0  0
 51127  1  0  0  0
 52128  1  0  0  0
 52129  1  0  0  0
 53 54  1  0  0  0
 54 55  2  0  0  0
 54130  1  0  0  0
 55 57  1  0  0  0
 55131  1  0  0  0
 56 69  2  0  0  0
 57 58  2  0  0  0
 57132  1  0  0  0
 58133  1  0  0  0
 59 60  1  0  0  0
 59 61  1  0  0  0
 59 62  1  0  0  0
 60134  1  0  0  0
 60135  1  0  0  0
 60136  1  0  0  0
 61137  1  0  0  0
 61138  1  0  0  0
 61139  1  0  0  0
 62140  1  0  0  0
 62141  1  0  0  0
 62142  1  0  0  0
 63 65  1  0  0  0
 63143  1  0  0  0
 63144  1  0  0  0
 63145  1  0  0  0
 64146  1  0  0  0
 65147  1  0  0  0
 68 84  1  0  0  0
 71 72  2  0  0  0
 71 74  1  0  0  0
 71148  1  0  0  0
 72 76  1  0  0  0
 72149  1  0  0  0
 73 75  1  0  0  0
 73 76  2  0  0  0
 73 79  1  0  0  0
 74 75  2  0  0  0
 74 87  1  0  0  0
 75 85  1  0  0  0
 76 88  1  0  0  0
 77 81  1  0  0  0
 77150  1  0  0  0
 77151  1  0  0  0
 77152  1  0  0  0
 78 82  1  0  0  0
 78153  1  0  0  0
 78154  1  0  0  0
 78155  1  0  0  0
 79 86  1  0  0  0
 79156  1  0  0  0
 79157  1  0  0  0
 80 83  1  0  0  0
 80 84  1  0  0  0
 80158  1  0  0  0
 80159  1  0  0  0
 81 87  1  0  0  0
 81160  1  0  0  0
 81161  1  0  0  0
 82 87  1  0  0  0
 82162  1  0  0  0
 82163  1  0  0  0
 83 85  1  0  0  0
 83164  1  0  0  0
 83165  1  0  0  0
 84166  1  0  0  0
 84167  1  0  0  0
 85168  1  0  0  0
 86169  1  0  0  0
M  ISO  4   1 100  68 101  84 101  86 100
M  END
> <chiral flag>
0

> <version>
0

> <s_m_source_file>
/data/baiqing/PycharmProjects/Reinvent-master-3.2/result/LINK_invent/BTK/process_docking_weight1_custom_product_contain_oxygen_bond_distance_aromatic_linkinvent_7_9_3/rearranged_h_0026.sdf

> <i_m_source_file_index>
62

> <r_mmod_Potential_Energy-OPLS-2005>
374.441131591797

> <r_mmod_Stretch_Energy-OPLS-2005>
167.425888061523

> <r_mmod_Bend_Energy-OPLS-2005>
247.052154541016

> <r_mmod_Torsional_Energy-OPLS-2005>
322.539093017578

> <r_mmod_Improper_Torsional_Energy-OPLS-2005>
6.95337200164795

> <r_mmod_Van_der_Waal_Energy-OPLS-2005>
140.096374511719

> <r_mmod_Electrostatic_Energy-OPLS-2005>
-389.988891601562

> <r_mmod_Solvation_Energy-OPLS-2005>
-216.866546630859

> <b_mmod_Minimization_Converged-OPLS-2005>
0

> <r_mmod_RMS_Derivative-OPLS-2005>
2.87270712852478

$$$$
62
                    3D
 Structure written by MMmdl.
155164  0  0  1  0            999 V2000
  -30.5984  -14.7714   20.4641 C   0  0  0  0  0  0
  -30.4412  -12.4762   19.4625 C   0  0  0  0  0  0
  -29.5092  -12.5095   18.2311 C   0  0  0  0  0  0
  -28.0387  -12.3240   18.6547 C   0  0  0  0  0  0
  -27.6426  -13.2304   19.8505 C   0  0  2  0  0  0
  -28.6905  -13.1724   20.9812 C   0  0  0  0  0  0
  -25.2530  -13.8203   20.5727 C   0  0  0  0  0  0
  -24.1819  -13.0440   20.9235 C   0  0  0  0  0  0
  -24.6412  -11.6924   20.8773 C   0  0  0  0  0  0
  -23.9100  -10.4301   21.0426 C   0  0  0  0  0  0
  -24.3648   -9.4213   21.9201 C   0  0  0  0  0  0
  -23.6312   -8.2244   22.0759 C   0  0  0  0  0  0
  -22.4290   -8.0296   21.3545 C   0  0  0  0  0  0
  -21.9941   -9.0279   20.4647 C   0  0  0  0  0  0
  -22.7282  -10.2153   20.3068 C   0  0  0  0  0  0
  -21.6845   -6.0759   22.5282 C   0  0  0  0  0  0
  -21.4009   -6.5660   23.8220 C   0  0  0  0  0  0
  -21.3660   -5.6801   24.9178 C   0  0  0  0  0  0
  -21.6040   -4.3070   24.7217 C   0  0  0  0  0  0
  -21.8819   -3.8167   23.4338 C   0  0  0  0  0  0
  -21.9194   -4.6985   22.3400 C   0  0  0  0  0  0
  -22.7843  -13.5219   21.1886 C   0  0  0  0  0  0
  -22.1660   -4.2182   21.0975 F   0  0  0  0  0  0
  -21.5629   -3.4548   25.7726 F   0  0  0  0  0  0
  -29.9839  -13.5390   20.3883 N   0  0  0  0  0  0
  -26.2949  -12.9390   20.3311 N   0  0  0  0  0  0
  -25.9341  -11.6542   20.5785 N   0  0  0  0  0  0
  -22.0485  -12.8193   22.0423 N   0  0  0  0  0  0
  -25.4219  -15.1916   20.4162 N   0  0  0  0  0  0
  -31.7973  -14.8767   20.1910 O   0  0  0  0  0  0
  -21.6638   -6.8903   21.4244 O   0  0  0  0  0  0
  -22.3522  -14.5525   20.6750 O   0  0  0  0  0  0
  -24.6360  -31.8526   23.1962 C   0  0  0  0  0  0
  -25.9193  -32.4740   23.8315 C   0  0  1  0  0  0
  -27.2233  -27.2269   20.1327 C   0  0  0  0  0  0
  -25.5981  -33.8545   24.2235 N   0  0  0  0  0  0
  -23.4333  -30.4732   21.5431 C   0  0  2  0  0  0
  -24.8790  -28.9047   20.1228 C   0  0  0  0  0  0
  -22.7514  -29.4587   22.4923 C   0  0  0  0  0  0
  -18.0288  -28.1395   22.8470 C   0  0  0  0  0  0
  -24.1486  -36.7257   23.2628 C   0  0  0  0  0  0
  -25.9811  -30.7522   21.3792 C   0  0  0  0  0  0
  -26.0536  -29.3670   20.7308 C   0  0  0  0  0  0
  -27.2299  -28.5427   20.7206 C   0  0  0  0  0  0
  -26.0261  -26.8348   19.5031 C   0  0  0  0  0  0
  -24.8704  -27.6459   19.5009 C   0  0  0  0  0  0
  -23.6551  -29.8030   20.1614 C   0  0  0  0  0  0
  -25.4108  -36.3042   24.0316 C   0  0  1  0  0  0
  -20.5901  -28.3714   23.1259 C   0  0  2  0  0  0
  -20.6782  -26.9430   22.5397 C   0  0  0  0  0  0
  -19.5758  -26.6385   21.5203 C   0  0  0  0  0  0
  -18.1937  -26.7938   22.1600 C   0  0  0  0  0  0
  -19.1544  -28.8867   23.2845 C   0  0  0  0  0  0
  -18.9466  -30.1462   23.8868 C   0  0  0  0  0  0
  -17.6474  -30.6595   24.0564 C   0  0  0  0  0  0
  -25.9065  -34.9439   23.5069 C   0  0  0  0  0  0
  -16.5362  -29.9107   23.6345 C   0  0  0  0  0  0
  -16.7275  -28.6524   23.0353 C   0  0  0  0  0  0
  -26.4532  -31.6593   25.0732 C   0  0  0  0  0  0
  -25.3722  -31.3817   26.1435 C   0  0  0  0  0  0
  -27.0371  -30.2993   24.6257 C   0  0  0  0  0  0
  -27.6094  -32.4339   25.7490 C   0  0  0  0  0  0
  -27.5577  -37.1765   24.8451 C   0  0  0  0  0  0
  -21.4222  -29.3058   22.3649 N   0  0  0  0  0  0
  -26.4262  -37.3765   23.9432 N   0  0  0  0  0  0
  -24.7037  -31.0438   22.0965 N   0  0  0  0  0  0
  -23.4188  -28.8129   23.3043 O   0  0  0  0  0  0
  -28.3395  -26.3565   20.0497 O   0  0  0  0  0  0
  -26.5624  -34.8918   22.4625 O   0  0  0  0  0  0
  -23.5503  -32.1360   23.7225 O   0  0  0  0  0  0
  -29.8335  -19.6457   17.8876 C   0  0  0  0  0  0
  -30.0033  -18.5268   18.7294 C   0  0  0  0  0  0
  -29.4445  -20.9086   18.3900 C   0  0  0  0  0  0
  -29.3461  -19.9339   20.6071 C   0  0  0  0  0  0
  -29.7737  -18.6202   20.1146 C   0  0  0  0  0  0
  -29.1841  -21.1208   19.7657 C   0  0  0  0  0  0
  -29.0577  -23.7607   19.7568 C   0  0  0  0  0  0
  -27.1477  -24.1310   21.0624 C   0  0  0  0  0  0
  -27.6947  -22.6750   21.2317 C   0  0  0  0  0  0
  -28.3663  -24.9288   20.5845 C   0  0  2  0  0  0
  -30.1382  -17.3496   21.0182 C   0  0  0  0  0  0
  -28.7265  -22.4859   20.2074 N   0  0  0  0  0  0
  -29.8026  -15.8928   20.6665 N   0  0  0  0  0  0
  -29.8236  -24.0051   18.8170 O   0  0  0  0  0  0
  -31.4775  -12.6225   19.1500 H   0  0  0  0  0  0
  -30.4077  -11.5023   19.9527 H   0  0  0  0  0  0
  -29.7940  -11.7326   17.5218 H   0  0  0  0  0  0
  -29.6216  -13.4609   17.7082 H   0  0  0  0  0  0
  -27.9074  -11.2763   18.9293 H   0  0  0  0  0  0
  -27.3735  -12.5019   17.8094 H   0  0  0  0  0  0
  -27.6332  -14.2494   19.4631 H   0  0  0  0  0  0
  -28.7387  -12.1755   21.4219 H   0  0  0  0  0  0
  -28.4251  -13.8525   21.7916 H   0  0  0  0  0  0
  -25.2795   -9.5674   22.4795 H   0  0  0  0  0  0
  -24.0022   -7.4623   22.7476 H   0  0  0  0  0  0
  -21.0881   -8.8817   19.8937 H   0  0  0  0  0  0
  -22.3764  -10.9709   19.6192 H   0  0  0  0  0  0
  -21.1999   -7.6173   23.9735 H   0  0  0  0  0  0
  -21.1473   -6.0532   25.9084 H   0  0  0  0  0  0
  -22.0598   -2.7632   23.2824 H   0  0  0  0  0  0
  -22.4087  -11.9832   22.4762 H   0  0  0  0  0  0
  -21.1113  -13.1210   22.2660 H   0  0  0  0  0  0
  -24.6540  -15.8456   20.5299 H   0  0  0  0  0  0
  -26.2678  -15.6354   20.0793 H   0  0  0  0  0  0
  -26.7266  -32.5369   23.1052 H   0  0  0  0  0  0
  -25.0216  -33.9694   25.0439 H   0  0  0  0  0  0
  -22.7312  -31.2948   21.3935 H   0  0  0  0  0  0
  -23.3767  -35.9571   23.3273 H   0  0  0  0  0  0
  -24.3562  -36.8889   22.2046 H   0  0  0  0  0  0
  -23.7234  -37.6443   23.6670 H   0  0  0  0  0  0
  -26.1147  -31.5066   20.6024 H   0  0  0  0  0  0
  -26.8606  -30.8093   22.0086 H   0  0  0  0  0  0
  -28.1370  -28.9030   21.1883 H   0  0  0  0  0  0
  -25.9837  -25.8854   18.9897 H   0  0  0  0  0  0
  -23.9718  -27.2861   19.0193 H   0  0  0  0  0  0
  -23.7886  -30.5784   19.4064 H   0  0  0  0  0  0
  -22.7696  -29.2424   19.8572 H   0  0  0  0  0  0
  -25.1282  -36.1857   25.0806 H   0  0  0  0  0  0
  -20.9949  -28.3307   24.1395 H   0  0  0  0  0  0
  -20.5702  -26.2324   23.3603 H   0  0  0  0  0  0
  -21.6660  -26.7475   22.1174 H   0  0  0  0  0  0
  -19.6937  -25.6287   21.1253 H   0  0  0  0  0  0
  -19.6722  -27.3179   20.6724 H   0  0  0  0  0  0
  -17.4212  -26.6677   21.3997 H   0  0  0  0  0  0
  -18.0313  -26.0071   22.8984 H   0  0  0  0  0  0
  -19.7951  -30.7257   24.2235 H   0  0  0  0  0  0
  -17.5055  -31.6276   24.5161 H   0  0  0  0  0  0
  -15.5363  -30.3018   23.7699 H   0  0  0  0  0  0
  -15.8658  -28.0856   22.7098 H   0  0  0  0  0  0
  -24.5936  -30.7095   25.7801 H   0  0  0  0  0  0
  -24.8850  -32.3007   26.4710 H   0  0  0  0  0  0
  -25.7997  -30.9134   27.0307 H   0  0  0  0  0  0
  -26.2969  -29.6719   24.1254 H   0  0  0  0  0  0
  -27.4021  -29.7276   25.4796 H   0  0  0  0  0  0
  -27.8870  -30.4245   23.9530 H   0  0  0  0  0  0
  -27.2785  -33.3759   26.1864 H   0  0  0  0  0  0
  -28.4011  -32.6671   25.0366 H   0  0  0  0  0  0
  -28.0616  -31.8557   26.5545 H   0  0  0  0  0  0
  -28.2542  -38.0120   24.7574 H   0  0  0  0  0  0
  -28.1127  -36.2648   24.6174 H   0  0  0  0  0  0
  -27.2290  -37.1277   25.8848 H   0  0  0  0  0  0
  -20.9412  -29.8822   21.6887 H   0  0  0  0  0  0
  -26.0118  -38.2812   24.1524 H   0  0  0  0  0  0
  -30.0202  -19.5352   16.8271 H   0  0  0  0  0  0
  -30.3473  -17.5904   18.3087 H   0  0  0  0  0  0
  -29.3260  -21.7191   17.6854 H   0  0  0  0  0  0
  -29.1708  -20.0378   21.6683 H   0  0  0  0  0  0
  -26.7175  -24.5213   21.9849 H   0  0  0  0  0  0
  -26.3667  -24.1333   20.3040 H   0  0  0  0  0  0
  -26.9033  -21.9298   21.1489 H   0  0  0  0  0  0
  -28.1629  -22.5517   22.2088 H   0  0  0  0  0  0
  -29.0103  -25.0239   21.4593 H   0  0  0  0  0  0
  -29.6961  -17.5274   21.9984 H   0  0  0  0  0  0
  -31.2150  -17.3961   21.1907 H   0  0  0  0  0  0
  -28.8276  -15.6672   20.7861 H   0  0  0  0  0  0
  1 25  1  0  0  0
  1 30  2  0  0  0
  1 83  1  0  0  0
  2  3  1  0  0  0
  2 25  1  0  0  0
  2 85  1  0  0  0
  2 86  1  0  0  0
  3  4  1  0  0  0
  3 87  1  0  0  0
  3 88  1  0  0  0
  4  5  1  0  0  0
  4 89  1  0  0  0
  4 90  1  0  0  0
  5  6  1  0  0  0
  5 26  1  0  0  0
  5 91  1  0  0  0
  6 25  1  0  0  0
  6 92  1  0  0  0
  6 93  1  0  0  0
  7  8  2  0  0  0
  7 26  1  0  0  0
  7 29  1  0  0  0
  8  9  1  0  0  0
  8 22  1  0  0  0
  9 10  1  0  0  0
  9 27  2  0  0  0
 10 11  2  0  0  0
 10 15  1  0  0  0
 11 12  1  0  0  0
 11 94  1  0  0  0
 12 13  2  0  0  0
 12 95  1  0  0  0
 13 14  1  0  0  0
 13 31  1  0  0  0
 14 15  2  0  0  0
 14 96  1  0  0  0
 15 97  1  0  0  0
 16 17  2  0  0  0
 16 21  1  0  0  0
 16 31  1  0  0  0
 17 18  1  0  0  0
 17 98  1  0  0  0
 18 19  2  0  0  0
 18 99  1  0  0  0
 19 20  1  0  0  0
 19 24  1  0  0  0
 20 21  2  0  0  0
 20100  1  0  0  0
 21 23  1  0  0  0
 22 28  1  0  0  0
 22 32  2  0  0  0
 26 27  1  0  0  0
 28101  1  0  0  0
 28102  1  0  0  0
 29103  1  0  0  0
 29104  1  0  0  0
 33 34  1  0  0  0
 33 66  1  0  0  0
 33 70  2  0  0  0
 34 36  1  0  0  0
 34 59  1  0  0  0
 34105  1  0  0  0
 35 44  2  0  0  0
 35 45  1  0  0  0
 35 68  1  0  0  0
 36 56  1  0  0  0
 36106  1  0  0  0
 37 39  1  0  0  0
 37 47  1  0  0  0
 37 66  1  0  0  0
 37107  1  0  0  0
 38 43  2  0  0  0
 38 46  1  0  0  0
 38 47  1  0  0  0
 39 64  1  0  0  0
 39 67  2  0  0  0
 40 52  1  0  0  0
 40 53  2  0  0  0
 40 58  1  0  0  0
 41108  1  0  0  0
 41109  1  0  0  0
 41110  1  0  0  0
 41 48  1  0  0  0
 42 43  1  0  0  0
 42 66  1  0  0  0
 42111  1  0  0  0
 42112  1  0  0  0
 43 44  1  0  0  0
 44113  1  0  0  0
 45 46  2  0  0  0
 45114  1  0  0  0
 46115  1  0  0  0
 47116  1  0  0  0
 47117  1  0  0  0
 48 56  1  0  0  0
 48 65  1  0  0  0
 48118  1  0  0  0
 49 50  1  0  0  0
 49 53  1  0  0  0
 49 64  1  0  0  0
 49119  1  0  0  0
 50 51  1  0  0  0
 50120  1  0  0  0
 50121  1  0  0  0
 51 52  1  0  0  0
 51122  1  0  0  0
 51123  1  0  0  0
 52124  1  0  0  0
 52125  1  0  0  0
 53 54  1  0  0  0
 54 55  2  0  0  0
 54126  1  0  0  0
 55 57  1  0  0  0
 55127  1  0  0  0
 56 69  2  0  0  0
 57 58  2  0  0  0
 57128  1  0  0  0
 58129  1  0  0  0
 59 60  1  0  0  0
 59 61  1  0  0  0
 59 62  1  0  0  0
 60130  1  0  0  0
 60131  1  0  0  0
 60132  1  0  0  0
 61133  1  0  0  0
 61134  1  0  0  0
 61135  1  0  0  0
 62136  1  0  0  0
 62137  1  0  0  0
 62138  1  0  0  0
 63 65  1  0  0  0
 63139  1  0  0  0
 63140  1  0  0  0
 63141  1  0  0  0
 64142  1  0  0  0
 65143  1  0  0  0
 68 80  1  0  0  0
 71 72  2  0  0  0
 71 73  1  0  0  0
 71144  1  0  0  0
 72 75  1  0  0  0
 72145  1  0  0  0
 73 76  2  0  0  0
 73146  1  0  0  0
 74 75  2  0  0  0
 74 76  1  0  0  0
 74147  1  0  0  0
 75 81  1  0  0  0
 76 82  1  0  0  0
 77 80  1  0  0  0
 77 82  1  0  0  0
 77 84  2  0  0  0
 78 79  1  0  0  0
 78 80  1  0  0  0
 78148  1  0  0  0
 78149  1  0  0  0
 79 82  1  0  0  0
 79150  1  0  0  0
 79151  1  0  0  0
 80152  1  0  0  0
 81 83  1  0  0  0
 81153  1  0  0  0
 81154  1  0  0  0
 83155  1  0  0  0
M  ISO  4   1 100  68 101  80 101  83 100
M  END
> <chiral flag>
0

> <version>
0

> <s_m_source_file>
/data/baiqing/PycharmProjects/Reinvent-master-3.2/result/LINK_invent/BTK/process_docking_weight1_custom_product_contain_oxygen_bond_distance_aromatic_linkinvent_7_9_3/rearranged_h_0026.sdf

> <i_m_source_file_index>
63

> <r_mmod_Potential_Energy-OPLS-2005>
294.168853759766

> <r_mmod_Stretch_Energy-OPLS-2005>
139.379669189453

> <r_mmod_Bend_Energy-OPLS-2005>
238.425109863281

> <r_mmod_Torsional_Energy-OPLS-2005>
272.743011474609

> <r_mmod_Improper_Torsional_Energy-OPLS-2005>
5.09631681442261

> <r_mmod_Van_der_Waal_Energy-OPLS-2005>
124.878944396973

> <r_mmod_Electrostatic_Energy-OPLS-2005>
-350.512390136719

> <r_mmod_Solvation_Energy-OPLS-2005>
-232.049850463867

> <b_mmod_Minimization_Converged-OPLS-2005>
0

> <r_mmod_RMS_Derivative-OPLS-2005>
3.36178493499756

$$$$
63
                    3D
 Structure written by MMmdl.
163172  0  0  1  0            999 V2000
  -30.6350  -14.7263   20.4640 C   0  0  0  0  0  0
  -30.4225  -12.4429   19.4799 C   0  0  0  0  0  0
  -29.5053  -12.5010   18.2394 C   0  0  0  0  0  0
  -28.0317  -12.3307   18.6533 C   0  0  0  0  0  0
  -27.6384  -13.2345   19.8516 C   0  0  2  0  0  0
  -28.6817  -13.1709   20.9883 C   0  0  0  0  0  0
  -25.2470  -13.8201   20.5691 C   0  0  0  0  0  0
  -24.1776  -13.0441   20.9233 C   0  0  0  0  0  0
  -24.6378  -11.6919   20.8766 C   0  0  0  0  0  0
  -23.9072  -10.4286   21.0421 C   0  0  0  0  0  0
  -24.3624   -9.4192   21.9191 C   0  0  0  0  0  0
  -23.6286   -8.2233   22.0755 C   0  0  0  0  0  0
  -22.4265   -8.0290   21.3549 C   0  0  0  0  0  0
  -21.9917   -9.0267   20.4647 C   0  0  0  0  0  0
  -22.7252  -10.2138   20.3061 C   0  0  0  0  0  0
  -21.6846   -6.0731   22.5271 C   0  0  0  0  0  0
  -21.4021   -6.5623   23.8213 C   0  0  0  0  0  0
  -21.3667   -5.6767   24.9167 C   0  0  0  0  0  0
  -21.6060   -4.3036   24.7207 C   0  0  0  0  0  0
  -21.8820   -3.8134   23.4321 C   0  0  0  0  0  0
  -21.9196   -4.6960   22.3384 C   0  0  0  0  0  0
  -22.7793  -13.5227   21.1873 C   0  0  0  0  0  0
  -22.1658   -4.2154   21.0958 F   0  0  0  0  0  0
  -21.5641   -3.4516   25.7716 F   0  0  0  0  0  0
  -29.9846  -13.5139   20.4066 N   0  0  0  0  0  0
  -26.2911  -12.9417   20.3288 N   0  0  0  0  0  0
  -25.9312  -11.6558   20.5771 N   0  0  0  0  0  0
  -22.0424  -12.8235   22.0428 N   0  0  0  0  0  0
  -25.4120  -15.1917   20.4037 N   0  0  0  0  0  0
  -31.8228  -14.7676   20.1371 O   0  0  0  0  0  0
  -21.6630   -6.8885   21.4238 O   0  0  0  0  0  0
  -22.3486  -14.5528   20.6702 O   0  0  0  0  0  0
  -24.6308  -31.8539   23.1977 C   0  0  0  0  0  0
  -25.9138  -32.4746   23.8312 C   0  0  1  0  0  0
  -27.2234  -27.2664   20.1247 C   0  0  0  0  0  0
  -25.5941  -33.8544   24.2245 N   0  0  0  0  0  0
  -23.4269  -30.4748   21.5413 C   0  0  2  0  0  0
  -24.8741  -28.9184   20.1100 C   0  0  0  0  0  0
  -22.7497  -29.4578   22.4916 C   0  0  0  0  0  0
  -18.0301  -28.1352   22.8493 C   0  0  0  0  0  0
  -24.1484  -36.7271   23.2637 C   0  0  0  0  0  0
  -25.9706  -30.7678   21.3760 C   0  0  0  0  0  0
  -26.0409  -29.3891   20.7210 C   0  0  0  0  0  0
  -27.2137  -28.5721   20.7204 C   0  0  0  0  0  0
  -26.0360  -26.8621   19.4758 C   0  0  0  0  0  0
  -24.8764  -27.6639   19.4773 C   0  0  0  0  0  0
  -23.6440  -29.8046   20.1583 C   0  0  0  0  0  0
  -25.4117  -36.3058   24.0317 C   0  0  1  0  0  0
  -20.5899  -28.3661   23.1283 C   0  0  2  0  0  0
  -20.6782  -26.9371   22.5409 C   0  0  0  0  0  0
  -19.5760  -26.6330   21.5215 C   0  0  0  0  0  0
  -18.1951  -26.7895   22.1632 C   0  0  0  0  0  0
  -19.1547  -28.8824   23.2893 C   0  0  0  0  0  0
  -18.9461  -30.1430   23.8905 C   0  0  0  0  0  0
  -17.6459  -30.6564   24.0550 C   0  0  0  0  0  0
  -25.9057  -34.9431   23.5078 C   0  0  0  0  0  0
  -16.5357  -29.9059   23.6318 C   0  0  0  0  0  0
  -16.7283  -28.6472   23.0352 C   0  0  0  0  0  0
  -26.4512  -31.6585   25.0707 C   0  0  0  0  0  0
  -25.3736  -31.3729   26.1425 C   0  0  0  0  0  0
  -27.0361  -30.3010   24.6187 C   0  0  0  0  0  0
  -27.6067  -32.4329   25.7478 C   0  0  0  0  0  0
  -27.5574  -37.1794   24.8470 C   0  0  0  0  0  0
  -21.4201  -29.3033   22.3681 N   0  0  0  0  0  0
  -26.4291  -37.3762   23.9403 N   0  0  0  0  0  0
  -24.6949  -31.0509   22.0946 N   0  0  0  0  0  0
  -23.4206  -28.8098   23.2989 O   0  0  0  0  0  0
  -28.3479  -26.4190   20.2216 O   0  0  0  0  0  0
  -26.5625  -34.8906   22.4645 O   0  0  0  0  0  0
  -23.5469  -32.1346   23.7285 O   0  0  0  0  0  0
  -32.0017  -19.0664   20.3449 C   0  0  0  0  0  0
  -31.0771  -20.1112   20.4913 C   0  0  0  0  0  0
  -31.6034  -17.7194   20.4097 C   0  0  0  0  0  0
  -29.7077  -19.8574   20.7000 C   0  0  0  0  0  0
  -29.3038  -18.4466   20.7409 C   0  0  0  0  0  0
  -30.2525  -17.3370   20.6065 C   0  0  0  0  0  0
  -26.4111  -22.4784   19.3858 C   0  0  0  0  0  0
  -26.6500  -23.4000   20.5976 C   0  0  0  0  0  0
  -27.8013  -21.9691   18.9575 C   0  0  0  0  0  0
  -28.1596  -23.6772   20.5760 C   0  0  2  0  0  0
  -27.8414  -18.1078   20.9755 C   0  0  0  0  0  0
  -28.8277  -21.1506   21.0399 C   0  0  0  0  0  0
  -28.4387  -25.0167   19.6906 C   0  0  0  0  0  0
  -29.8933  -15.8864   20.6920 N   0  0  0  0  0  0
  -28.7196  -22.3317   20.0545 N   0  3  1  0  0  0
  -31.4673  -12.5446   19.1806 H   0  0  0  0  0  0
  -30.3515  -11.4707   19.9692 H   0  0  0  0  0  0
  -29.7837  -11.7239   17.5264 H   0  0  0  0  0  0
  -29.6370  -13.4542   17.7246 H   0  0  0  0  0  0
  -27.8883  -11.2835   18.9210 H   0  0  0  0  0  0
  -27.3740  -12.5208   17.8040 H   0  0  0  0  0  0
  -27.6328  -14.2550   19.4673 H   0  0  0  0  0  0
  -28.7119  -12.1751   21.4335 H   0  0  0  0  0  0
  -28.4202  -13.8558   21.7960 H   0  0  0  0  0  0
  -25.2780   -9.5654   22.4756 H   0  0  0  0  0  0
  -23.9993   -7.4620   22.7477 H   0  0  0  0  0  0
  -21.0854   -8.8808   19.8938 H   0  0  0  0  0  0
  -22.3742  -10.9685   19.6165 H   0  0  0  0  0  0
  -21.2012   -7.6133   23.9722 H   0  0  0  0  0  0
  -21.1491   -6.0486   25.9076 H   0  0  0  0  0  0
  -22.0594   -2.7599   23.2806 H   0  0  0  0  0  0
  -22.4021  -11.9904   22.4853 H   0  0  0  0  0  0
  -21.1049  -13.1284   22.2624 H   0  0  0  0  0  0
  -24.6327  -15.8353   20.4906 H   0  0  0  0  0  0
  -26.2353  -15.6189   20.0014 H   0  0  0  0  0  0
  -26.7201  -32.5405   23.1047 H   0  0  0  0  0  0
  -25.0108  -33.9669   25.0408 H   0  0  0  0  0  0
  -22.7223  -31.2963   21.3960 H   0  0  0  0  0  0
  -23.3740  -35.9612   23.3308 H   0  0  0  0  0  0
  -24.3577  -36.8882   22.2052 H   0  0  0  0  0  0
  -23.7233  -37.6466   23.6665 H   0  0  0  0  0  0
  -26.1091  -31.5249   20.6023 H   0  0  0  0  0  0
  -26.8481  -30.8189   22.0089 H   0  0  0  0  0  0
  -28.1064  -28.9258   21.2155 H   0  0  0  0  0  0
  -25.9650  -25.9082   18.9778 H   0  0  0  0  0  0
  -23.9818  -27.3020   18.9906 H   0  0  0  0  0  0
  -23.7686  -30.5764   19.3992 H   0  0  0  0  0  0
  -22.7631  -29.2347   19.8570 H   0  0  0  0  0  0
  -25.1299  -36.1895   25.0809 H   0  0  0  0  0  0
  -21.0012  -28.3221   24.1394 H   0  0  0  0  0  0
  -20.5682  -26.2246   23.3605 H   0  0  0  0  0  0
  -21.6643  -26.7397   22.1193 H   0  0  0  0  0  0
  -19.6916  -25.6222   21.1288 H   0  0  0  0  0  0
  -19.6705  -27.3101   20.6717 H   0  0  0  0  0  0
  -17.4219  -26.6648   21.4040 H   0  0  0  0  0  0
  -18.0346  -26.0033   22.9021 H   0  0  0  0  0  0
  -19.7929  -30.7238   24.2297 H   0  0  0  0  0  0
  -17.5006  -31.6248   24.5136 H   0  0  0  0  0  0
  -15.5351  -30.2954   23.7635 H   0  0  0  0  0  0
  -15.8687  -28.0783   22.7072 H   0  0  0  0  0  0
  -24.5915  -30.7079   25.7731 H   0  0  0  0  0  0
  -24.8931  -32.2898   26.4850 H   0  0  0  0  0  0
  -25.8051  -30.8895   27.0200 H   0  0  0  0  0  0
  -26.2939  -29.6747   24.1225 H   0  0  0  0  0  0
  -27.4049  -29.7286   25.4704 H   0  0  0  0  0  0
  -27.8813  -30.4267   23.9417 H   0  0  0  0  0  0
  -27.2674  -33.3628   26.2052 H   0  0  0  0  0  0
  -28.3880  -32.6891   25.0309 H   0  0  0  0  0  0
  -28.0740  -31.8465   26.5396 H   0  0  0  0  0  0
  -28.2599  -38.0083   24.7505 H   0  0  0  0  0  0
  -28.1062  -36.2612   24.6319 H   0  0  0  0  0  0
  -27.2298  -37.1464   25.8875 H   0  0  0  0  0  0
  -20.9377  -29.8790   21.6920 H   0  0  0  0  0  0
  -26.0160  -38.2828   24.1420 H   0  0  0  0  0  0
  -33.0479  -19.2980   20.2025 H   0  0  0  0  0  0
  -31.4452  -21.1278   20.4907 H   0  0  0  0  0  0
  -32.3967  -16.9970   20.3133 H   0  0  0  0  0  0
  -25.9359  -23.0123   18.5612 H   0  0  0  0  0  0
  -25.7581  -21.6475   19.6581 H   0  0  0  0  0  0
  -26.3830  -22.8774   21.5172 H   0  0  0  0  0  0
  -26.0401  -24.3015   20.5743 H   0  0  0  0  0  0
  -28.1262  -22.4882   18.0557 H   0  0  0  0  0  0
  -27.8107  -20.9025   18.7261 H   0  0  0  0  0  0
  -28.5443  -23.8560   21.5812 H   0  0  0  0  0  0
  -27.6301  -18.0718   22.0446 H   0  0  0  0  0  0
  -27.5826  -17.1404   20.5472 H   0  0  0  0  0  0
  -27.1789  -18.8371   20.5120 H   0  0  0  0  0  0
  -29.2726  -21.5615   21.9471 H   0  0  0  0  0  0
  -27.8254  -20.8514   21.3491 H   0  0  0  0  0  0
  -27.8970  -24.9516   18.7478 H   0  0  0  0  0  0
  -29.4808  -24.9456   19.3792 H   0  0  0  0  0  0
  -28.9265  -15.7044   20.9089 H   0  0  0  0  0  0
  -29.6463  -22.4776   19.6802 H   0  0  0  0  0  0
  1 25  1  0  0  0
  1 30  2  0  0  0
  1 84  1  0  0  0
  2  3  1  0  0  0
  2 25  1  0  0  0
  2 86  1  0  0  0
  2 87  1  0  0  0
  3  4  1  0  0  0
  3 88  1  0  0  0
  3 89  1  0  0  0
  4  5  1  0  0  0
  4 90  1  0  0  0
  4 91  1  0  0  0
  5  6  1  0  0  0
  5 26  1  0  0  0
  5 92  1  0  0  0
  6 25  1  0  0  0
  6 93  1  0  0  0
  6 94  1  0  0  0
  7  8  2  0  0  0
  7 26  1  0  0  0
  7 29  1  0  0  0
  8  9  1  0  0  0
  8 22  1  0  0  0
  9 10  1  0  0  0
  9 27  2  0  0  0
 10 11  2  0  0  0
 10 15  1  0  0  0
 11 12  1  0  0  0
 11 95  1  0  0  0
 12 13  2  0  0  0
 12 96  1  0  0  0
 13 14  1  0  0  0
 13 31  1  0  0  0
 14 15  2  0  0  0
 14 97  1  0  0  0
 15 98  1  0  0  0
 16 17  2  0  0  0
 16 21  1  0  0  0
 16 31  1  0  0  0
 17 18  1  0  0  0
 17 99  1  0  0  0
 18 19  2  0  0  0
 18100  1  0  0  0
 19 20  1  0  0  0
 19 24  1  0  0  0
 20 21  2  0  0  0
 20101  1  0  0  0
 21 23  1  0  0  0
 22 28  1  0  0  0
 22 32  2  0  0  0
 26 27  1  0  0  0
 28102  1  0  0  0
 28103  1  0  0  0
 29104  1  0  0  0
 29105  1  0  0  0
 33 34  1  0  0  0
 33 66  1  0  0  0
 33 70  2  0  0  0
 34 36  1  0  0  0
 34 59  1  0  0  0
 34106  1  0  0  0
 35 44  2  0  0  0
 35 45  1  0  0  0
 35 68  1  0  0  0
 36 56  1  0  0  0
 36107  1  0  0  0
 37 39  1  0  0  0
 37 47  1  0  0  0
 37 66  1  0  0  0
 37108  1  0  0  0
 38 43  2  0  0  0
 38 46  1  0  0  0
 38 47  1  0  0  0
 39 64  1  0  0  0
 39 67  2  0  0  0
 40 52  1  0  0  0
 40 53  2  0  0  0
 40 58  1  0  0  0
 41109  1  0  0  0
 41110  1  0  0  0
 41111  1  0  0  0
 41 48  1  0  0  0
 42 43  1  0  0  0
 42 66  1  0  0  0
 42112  1  0  0  0
 42113  1  0  0  0
 43 44  1  0  0  0
 44114  1  0  0  0
 45 46  2  0  0  0
 45115  1  0  0  0
 46116  1  0  0  0
 47117  1  0  0  0
 47118  1  0  0  0
 48 56  1  0  0  0
 48 65  1  0  0  0
 48119  1  0  0  0
 49 50  1  0  0  0
 49 53  1  0  0  0
 49 64  1  0  0  0
 49120  1  0  0  0
 50 51  1  0  0  0
 50121  1  0  0  0
 50122  1  0  0  0
 51 52  1  0  0  0
 51123  1  0  0  0
 51124  1  0  0  0
 52125  1  0  0  0
 52126  1  0  0  0
 53 54  1  0  0  0
 54 55  2  0  0  0
 54127  1  0  0  0
 55 57  1  0  0  0
 55128  1  0  0  0
 56 69  2  0  0  0
 57 58  2  0  0  0
 57129  1  0  0  0
 58130  1  0  0  0
 59 60  1  0  0  0
 59 61  1  0  0  0
 59 62  1  0  0  0
 60131  1  0  0  0
 60132  1  0  0  0
 60133  1  0  0  0
 61134  1  0  0  0
 61135  1  0  0  0
 61136  1  0  0  0
 62137  1  0  0  0
 62138  1  0  0  0
 62139  1  0  0  0
 63 65  1  0  0  0
 63140  1  0  0  0
 63141  1  0  0  0
 63142  1  0  0  0
 64143  1  0  0  0
 65144  1  0  0  0
 68 83  1  0  0  0
 71 72  2  0  0  0
 71 73  1  0  0  0
 71145  1  0  0  0
 72 74  1  0  0  0
 72146  1  0  0  0
 73 76  2  0  0  0
 73147  1  0  0  0
 74 75  2  0  0  0
 74 82  1  0  0  0
 75 76  1  0  0  0
 75 81  1  0  0  0
 76 84  1  0  0  0
 77 78  1  0  0  0
 77 79  1  0  0  0
 77148  1  0  0  0
 77149  1  0  0  0
 78 80  1  0  0  0
 78150  1  0  0  0
 78151  1  0  0  0
 79 85  1  0  0  0
 79152  1  0  0  0
 79153  1  0  0  0
 80 83  1  0  0  0
 80 85  1  0  0  0
 80154  1  0  0  0
 81155  1  0  0  0
 81156  1  0  0  0
 81157  1  0  0  0
 82158  1  0  0  0
 82159  1  0  0  0
 82 85  1  0  0  0
 83160  1  0  0  0
 83161  1  0  0  0
 84162  1  0  0  0
 85163  1  0  0  0
M  CHG  1  85   1
M  ISO  4   1 100  68 101  83 101  84 100
M  END
> <chiral flag>
0

> <version>
0

> <s_m_source_file>
/data/baiqing/PycharmProjects/Reinvent-master-3.2/result/LINK_invent/BTK/process_docking_weight1_custom_product_contain_oxygen_bond_distance_aromatic_linkinvent_7_9_3/rearranged_h_0026.sdf

> <i_m_source_file_index>
64

> <r_mmod_Potential_Energy-OPLS-2005>
164.521697998047

> <r_mmod_Stretch_Energy-OPLS-2005>
131.494506835938

> <r_mmod_Bend_Energy-OPLS-2005>
210.558883666992

> <r_mmod_Torsional_Energy-OPLS-2005>
273.676849365234

> <r_mmod_Improper_Torsional_Energy-OPLS-2005>
5.42863464355469

> <r_mmod_Van_der_Waal_Energy-OPLS-2005>
137.366241455078

> <r_mmod_Electrostatic_Energy-OPLS-2005>
-238.587066650391

> <r_mmod_Solvation_Energy-OPLS-2005>
-433.418853759766

> <b_mmod_Minimization_Converged-OPLS-2005>
0

> <r_mmod_RMS_Derivative-OPLS-2005>
2.29342842102051

$$$$
64
                    3D
 Structure written by MMmdl.
156165  0  0  1  0            999 V2000
  -30.5376  -14.9006   20.4140 C   0  0  0  0  0  0
  -30.4462  -12.5492   19.4865 C   0  0  0  0  0  0
  -29.5213  -12.5267   18.2467 C   0  0  0  0  0  0
  -28.0505  -12.3276   18.6625 C   0  0  0  0  0  0
  -27.6386  -13.2423   19.8457 C   0  0  2  0  0  0
  -28.6853  -13.2283   20.9798 C   0  0  0  0  0  0
  -25.2485  -13.8203   20.5705 C   0  0  0  0  0  0
  -24.1805  -13.0436   20.9241 C   0  0  0  0  0  0
  -24.6414  -11.6915   20.8762 C   0  0  0  0  0  0
  -23.9096  -10.4280   21.0408 C   0  0  0  0  0  0
  -24.3634   -9.4190   21.9178 C   0  0  0  0  0  0
  -23.6295   -8.2242   22.0748 C   0  0  0  0  0  0
  -22.4273   -8.0285   21.3543 C   0  0  0  0  0  0
  -21.9918   -9.0255   20.4642 C   0  0  0  0  0  0
  -22.7267  -10.2124   20.3052 C   0  0  0  0  0  0
  -21.6852   -6.0736   22.5279 C   0  0  0  0  0  0
  -21.4016   -6.5642   23.8208 C   0  0  0  0  0  0
  -21.3653   -5.6795   24.9173 C   0  0  0  0  0  0
  -21.6045   -4.3060   24.7229 C   0  0  0  0  0  0
  -21.8814   -3.8149   23.4349 C   0  0  0  0  0  0
  -21.9184   -4.6958   22.3399 C   0  0  0  0  0  0
  -22.7819  -13.5193   21.1890 C   0  0  0  0  0  0
  -22.1656   -4.2153   21.0976 F   0  0  0  0  0  0
  -21.5615   -3.4543   25.7736 F   0  0  0  0  0  0
  -29.9686  -13.6320   20.3882 N   0  0  0  0  0  0
  -26.2929  -12.9441   20.3269 N   0  0  0  0  0  0
  -25.9342  -11.6570   20.5755 N   0  0  0  0  0  0
  -22.0471  -12.8172   22.0434 N   0  0  0  0  0  0
  -25.4124  -15.1937   20.4063 N   0  0  0  0  0  0
  -31.7346  -14.9944   20.1305 O   0  0  0  0  0  0
  -21.6632   -6.8895   21.4246 O   0  0  0  0  0  0
  -22.3505  -14.5502   20.6740 O   0  0  0  0  0  0
  -24.6433  -31.8464   23.1916 C   0  0  0  0  0  0
  -25.9214  -32.4704   23.8294 C   0  0  1  0  0  0
  -27.2269  -27.1564   20.1407 C   0  0  0  0  0  0
  -25.5971  -33.8512   24.2210 N   0  0  0  0  0  0
  -23.4471  -30.4648   21.5368 C   0  0  2  0  0  0
  -24.8978  -28.8975   20.1100 C   0  0  0  0  0  0
  -22.7570  -29.4552   22.4877 C   0  0  0  0  0  0
  -18.0297  -28.1416   22.8469 C   0  0  0  0  0  0
  -24.1492  -36.7239   23.2641 C   0  0  0  0  0  0
  -26.0018  -30.7261   21.3888 C   0  0  0  0  0  0
  -26.0742  -29.3398   20.7267 C   0  0  0  0  0  0
  -27.2370  -28.4847   20.7263 C   0  0  0  0  0  0
  -26.0231  -26.8165   19.4785 C   0  0  0  0  0  0
  -24.8841  -27.6489   19.4729 C   0  0  0  0  0  0
  -23.6725  -29.7956   20.1556 C   0  0  0  0  0  0
  -25.4130  -36.3024   24.0307 C   0  0  1  0  0  0
  -20.5912  -28.3748   23.1249 C   0  0  2  0  0  0
  -20.6791  -26.9453   22.5411 C   0  0  0  0  0  0
  -19.5765  -26.6403   21.5221 C   0  0  0  0  0  0
  -18.1944  -26.7956   22.1621 C   0  0  0  0  0  0
  -19.1551  -28.8897   23.2848 C   0  0  0  0  0  0
  -18.9472  -30.1492   23.8879 C   0  0  0  0  0  0
  -17.6471  -30.6611   24.0568 C   0  0  0  0  0  0
  -25.9083  -34.9408   23.5061 C   0  0  0  0  0  0
  -16.5363  -29.9101   23.6351 C   0  0  0  0  0  0
  -16.7285  -28.6522   23.0366 C   0  0  0  0  0  0
  -26.4546  -31.6565   25.0732 C   0  0  0  0  0  0
  -25.3723  -31.3729   26.1414 C   0  0  0  0  0  0
  -27.0432  -30.2968   24.6319 C   0  0  0  0  0  0
  -27.6087  -32.4336   25.7504 C   0  0  0  0  0  0
  -27.5570  -37.1772   24.8478 C   0  0  0  0  0  0
  -21.4263  -29.3063   22.3612 N   0  0  0  0  0  0
  -26.4291  -37.3740   23.9401 N   0  0  0  0  0  0
  -24.7167  -31.0325   22.0946 N   0  0  0  0  0  0
  -23.4203  -28.8101   23.3037 O   0  0  0  0  0  0
  -28.2973  -26.1975   20.2555 O   0  0  0  0  0  0
  -26.5654  -34.8904   22.4636 O   0  0  0  0  0  0
  -23.5556  -32.1342   23.7134 O   0  0  0  0  0  0
  -30.3610  -19.8764   19.6902 C   0  0  0  0  0  0
  -28.5423  -18.2837   20.9820 C   0  0  0  0  0  0
  -29.2182  -20.6043   20.1805 C   0  0  0  0  0  0
  -29.6689  -17.5448   20.4745 C   0  0  0  0  0  0
  -28.3207  -19.7132   20.8555 C   0  0  0  0  0  0
  -30.5904  -18.4421   19.8222 C   0  0  0  0  0  0
  -29.3554  -23.3912   17.8069 C   0  0  0  0  0  0
  -28.9151  -24.7601   18.3834 C   0  0  0  0  0  0
  -28.6096  -22.1809   18.3935 C   0  0  0  0  0  0
  -28.8110  -23.3584   20.5890 C   0  0  0  0  0  0
  -28.2528  -24.7192   19.7807 C   0  0  1  0  0  0
  -28.9191  -22.0185   19.8114 N   0  0  0  0  0  0
  -29.6867  -16.0132   20.6125 N   0  0  0  0  0  0
  -27.1633  -20.2189   21.3490 F   0  0  0  0  0  0
  -32.0262  -17.8306   19.0871 Cl  0  0  0  0  0  0
  -31.4807  -12.7040   19.1743 H   0  0  0  0  0  0
  -30.4310  -11.5863   20.0002 H   0  0  0  0  0  0
  -29.8248  -11.7362   17.5589 H   0  0  0  0  0  0
  -29.6238  -13.4650   17.6993 H   0  0  0  0  0  0
  -27.9245  -11.2811   18.9418 H   0  0  0  0  0  0
  -27.3929  -12.4959   17.8089 H   0  0  0  0  0  0
  -27.6114  -14.2551   19.4407 H   0  0  0  0  0  0
  -28.7566  -12.2397   21.4346 H   0  0  0  0  0  0
  -28.3962  -13.9109   21.7805 H   0  0  0  0  0  0
  -25.2778   -9.5661   22.4759 H   0  0  0  0  0  0
  -23.9989   -7.4630   22.7469 H   0  0  0  0  0  0
  -21.0853   -8.8799   19.8942 H   0  0  0  0  0  0
  -22.3747  -10.9670   19.6167 H   0  0  0  0  0  0
  -21.2028   -7.6152   23.9728 H   0  0  0  0  0  0
  -21.1476   -6.0523   25.9084 H   0  0  0  0  0  0
  -22.0600   -2.7613   23.2857 H   0  0  0  0  0  0
  -22.4108  -11.9839   22.4822 H   0  0  0  0  0  0
  -21.1083  -13.1187   22.2644 H   0  0  0  0  0  0
  -24.6307  -15.8336   20.4989 H   0  0  0  0  0  0
  -26.2238  -15.6244   19.9825 H   0  0  0  0  0  0
  -26.7276  -32.5322   23.1020 H   0  0  0  0  0  0
  -25.0123  -33.9647   25.0357 H   0  0  0  0  0  0
  -22.7489  -31.2907   21.3824 H   0  0  0  0  0  0
  -23.3764  -35.9560   23.3303 H   0  0  0  0  0  0
  -24.3583  -36.8877   22.2058 H   0  0  0  0  0  0
  -23.7237  -37.6428   23.6682 H   0  0  0  0  0  0
  -26.1635  -31.4840   20.6204 H   0  0  0  0  0  0
  -26.8701  -30.7690   22.0351 H   0  0  0  0  0  0
  -28.1343  -28.8174   21.2285 H   0  0  0  0  0  0
  -25.9078  -25.8696   18.9757 H   0  0  0  0  0  0
  -23.9816  -27.3063   18.9848 H   0  0  0  0  0  0
  -23.8094  -30.5724   19.4030 H   0  0  0  0  0  0
  -22.7869  -29.2383   19.8433 H   0  0  0  0  0  0
  -25.1306  -36.1854   25.0792 H   0  0  0  0  0  0
  -21.0000  -28.3337   24.1375 H   0  0  0  0  0  0
  -20.5727  -26.2351   23.3622 H   0  0  0  0  0  0
  -21.6653  -26.7490   22.1180 H   0  0  0  0  0  0
  -19.6941  -25.6306   21.1271 H   0  0  0  0  0  0
  -19.6707  -27.3191   20.6729 H   0  0  0  0  0  0
  -17.4214  -26.6720   21.4016 H   0  0  0  0  0  0
  -18.0328  -26.0098   22.9015 H   0  0  0  0  0  0
  -19.7945  -30.7316   24.2249 H   0  0  0  0  0  0
  -17.5022  -31.6289   24.5170 H   0  0  0  0  0  0
  -15.5361  -30.3002   23.7700 H   0  0  0  0  0  0
  -15.8681  -28.0841   22.7112 H   0  0  0  0  0  0
  -24.5924  -30.7069   25.7699 H   0  0  0  0  0  0
  -24.8886  -32.2894   26.4790 H   0  0  0  0  0  0
  -25.7992  -30.8920   27.0225 H   0  0  0  0  0  0
  -26.3070  -29.6670   24.1314 H   0  0  0  0  0  0
  -27.4034  -29.7284   25.4898 H   0  0  0  0  0  0
  -27.8976  -30.4200   23.9665 H   0  0  0  0  0  0
  -27.2700  -33.3673   26.2008 H   0  0  0  0  0  0
  -28.3926  -32.6848   25.0340 H   0  0  0  0  0  0
  -28.0730  -31.8519   26.5475 H   0  0  0  0  0  0
  -28.2586  -38.0071   24.7527 H   0  0  0  0  0  0
  -28.1067  -36.2602   24.6306 H   0  0  0  0  0  0
  -27.2284  -37.1411   25.8882 H   0  0  0  0  0  0
  -20.9498  -29.8720   21.6731 H   0  0  0  0  0  0
  -26.0156  -38.2797   24.1432 H   0  0  0  0  0  0
  -31.0991  -20.4394   19.1401 H   0  0  0  0  0  0
  -27.7657  -17.7240   21.4798 H   0  0  0  0  0  0
  -30.4264  -23.2551   17.9716 H   0  0  0  0  0  0
  -29.2276  -23.4095   16.7236 H   0  0  0  0  0  0
  -28.2270  -25.2395   17.6867 H   0  0  0  0  0  0
  -29.7939  -25.4072   18.4164 H   0  0  0  0  0  0
  -28.8769  -21.2846   17.8319 H   0  0  0  0  0  0
  -27.5329  -22.3109   18.2683 H   0  0  0  0  0  0
  -28.1756  -23.1959   21.4599 H   0  0  0  0  0  0
  -29.8022  -23.5806   20.9877 H   0  0  0  0  0  0
  -27.2109  -24.4552   19.6284 H   0  0  0  0  0  0
  -28.7841  -15.6659   20.8958 H   0  0  0  0  0  0
  1 25  1  0  0  0
  1 30  2  0  0  0
  1 83  1  0  0  0
  2  3  1  0  0  0
  2 25  1  0  0  0
  2 86  1  0  0  0
  2 87  1  0  0  0
  3  4  1  0  0  0
  3 88  1  0  0  0
  3 89  1  0  0  0
  4  5  1  0  0  0
  4 90  1  0  0  0
  4 91  1  0  0  0
  5  6  1  0  0  0
  5 26  1  0  0  0
  5 92  1  0  0  0
  6 25  1  0  0  0
  6 93  1  0  0  0
  6 94  1  0  0  0
  7  8  2  0  0  0
  7 26  1  0  0  0
  7 29  1  0  0  0
  8  9  1  0  0  0
  8 22  1  0  0  0
  9 10  1  0  0  0
  9 27  2  0  0  0
 10 11  2  0  0  0
 10 15  1  0  0  0
 11 12  1  0  0  0
 11 95  1  0  0  0
 12 13  2  0  0  0
 12 96  1  0  0  0
 13 14  1  0  0  0
 13 31  1  0  0  0
 14 15  2  0  0  0
 14 97  1  0  0  0
 15 98  1  0  0  0
 16 17  2  0  0  0
 16 21  1  0  0  0
 16 31  1  0  0  0
 17 18  1  0  0  0
 17 99  1  0  0  0
 18 19  2  0  0  0
 18100  1  0  0  0
 19 20  1  0  0  0
 19 24  1  0  0  0
 20 21  2  0  0  0
 20101  1  0  0  0
 21 23  1  0  0  0
 22 28  1  0  0  0
 22 32  2  0  0  0
 26 27  1  0  0  0
 28102  1  0  0  0
 28103  1  0  0  0
 29104  1  0  0  0
 29105  1  0  0  0
 33 34  1  0  0  0
 33 66  1  0  0  0
 33 70  2  0  0  0
 34 36  1  0  0  0
 34 59  1  0  0  0
 34106  1  0  0  0
 35 44  2  0  0  0
 35 45  1  0  0  0
 35 68  1  0  0  0
 36 56  1  0  0  0
 36107  1  0  0  0
 37 39  1  0  0  0
 37 47  1  0  0  0
 37 66  1  0  0  0
 37108  1  0  0  0
 38 43  2  0  0  0
 38 46  1  0  0  0
 38 47  1  0  0  0
 39 64  1  0  0  0
 39 67  2  0  0  0
 40 52  1  0  0  0
 40 53  2  0  0  0
 40 58  1  0  0  0
 41109  1  0  0  0
 41110  1  0  0  0
 41111  1  0  0  0
 41 48  1  0  0  0
 42 43  1  0  0  0
 42 66  1  0  0  0
 42112  1  0  0  0
 42113  1  0  0  0
 43 44  1  0  0  0
 44114  1  0  0  0
 45 46  2  0  0  0
 45115  1  0  0  0
 46116  1  0  0  0
 47117  1  0  0  0
 47118  1  0  0  0
 48 56  1  0  0  0
 48 65  1  0  0  0
 48119  1  0  0  0
 49 50  1  0  0  0
 49 53  1  0  0  0
 49 64  1  0  0  0
 49120  1  0  0  0
 50 51  1  0  0  0
 50121  1  0  0  0
 50122  1  0  0  0
 51 52  1  0  0  0
 51123  1  0  0  0
 51124  1  0  0  0
 52125  1  0  0  0
 52126  1  0  0  0
 53 54  1  0  0  0
 54 55  2  0  0  0
 54127  1  0  0  0
 55 57  1  0  0  0
 55128  1  0  0  0
 56 69  2  0  0  0
 57 58  2  0  0  0
 57129  1  0  0  0
 58130  1  0  0  0
 59 60  1  0  0  0
 59 61  1  0  0  0
 59 62  1  0  0  0
 60131  1  0  0  0
 60132  1  0  0  0
 60133  1  0  0  0
 61134  1  0  0  0
 61135  1  0  0  0
 61136  1  0  0  0
 62137  1  0  0  0
 62138  1  0  0  0
 62139  1  0  0  0
 63 65  1  0  0  0
 63140  1  0  0  0
 63141  1  0  0  0
 63142  1  0  0  0
 64143  1  0  0  0
 65144  1  0  0  0
 68 81  1  0  0  0
 71 73  2  0  0  0
 71 76  1  0  0  0
 71145  1  0  0  0
 72 74  1  0  0  0
 72 75  2  0  0  0
 72146  1  0  0  0
 73 75  1  0  0  0
 73 82  1  0  0  0
 74 76  2  0  0  0
 74 83  1  0  0  0
 75 84  1  0  0  0
 76 85  1  0  0  0
 77 78  1  0  0  0
 77 79  1  0  0  0
 77147  1  0  0  0
 77148  1  0  0  0
 78 81  1  0  0  0
 78149  1  0  0  0
 78150  1  0  0  0
 79 82  1  0  0  0
 79151  1  0  0  0
 79152  1  0  0  0
 80 81  1  0  0  0
 80 82  1  0  0  0
 80153  1  0  0  0
 80154  1  0  0  0
 81155  1  0  0  0
 83156  1  0  0  0
M  ISO  4   1 100  68 101  81 101  83 100
M  END
> <chiral flag>
0

> <version>
0

> <s_m_source_file>
/data/baiqing/PycharmProjects/Reinvent-master-3.2/result/LINK_invent/BTK/process_docking_weight1_custom_product_contain_oxygen_bond_distance_aromatic_linkinvent_7_9_3/rearranged_h_0026.sdf

> <i_m_source_file_index>
65

> <r_mmod_Potential_Energy-OPLS-2005>
521.471008300781

> <r_mmod_Stretch_Energy-OPLS-2005>
214.249053955078

> <r_mmod_Bend_Energy-OPLS-2005>
280.461212158203

> <r_mmod_Torsional_Energy-OPLS-2005>
287.863098144531

> <r_mmod_Improper_Torsional_Energy-OPLS-2005>
5.66554307937622

> <r_mmod_Van_der_Waal_Energy-OPLS-2005>
138.299423217773

> <r_mmod_Electrostatic_Energy-OPLS-2005>
-347.017944335938

> <r_mmod_Solvation_Energy-OPLS-2005>
-224.072158813477

> <b_mmod_Minimization_Converged-OPLS-2005>
0

> <r_mmod_RMS_Derivative-OPLS-2005>
2.57370185852051

$$$$
65
                    3D
 Structure written by MMmdl.
171180  0  0  1  0            999 V2000
  -30.6865  -14.5136   20.5278 C   0  0  0  0  0  0
  -30.4316  -12.3083   19.4473 C   0  0  0  0  0  0
  -29.5052  -12.4796   18.2252 C   0  0  0  0  0  0
  -28.0230  -12.3543   18.6349 C   0  0  0  0  0  0
  -27.6620  -13.2027   19.8849 C   0  0  2  0  0  0
  -28.7120  -13.0067   21.0024 C   0  0  0  0  0  0
  -25.2599  -13.8164   20.5725 C   0  0  0  0  0  0
  -24.1819  -13.0429   20.9160 C   0  0  0  0  0  0
  -24.6377  -11.6900   20.8756 C   0  0  0  0  0  0
  -23.9054  -10.4283   21.0444 C   0  0  0  0  0  0
  -24.3595   -9.4195   21.9214 C   0  0  0  0  0  0
  -23.6254   -8.2241   22.0785 C   0  0  0  0  0  0
  -22.4239   -8.0296   21.3561 C   0  0  0  0  0  0
  -21.9880   -9.0280   20.4673 C   0  0  0  0  0  0
  -22.7240  -10.2141   20.3100 C   0  0  0  0  0  0
  -21.6849   -6.0742   22.5273 C   0  0  0  0  0  0
  -21.4028   -6.5654   23.8209 C   0  0  0  0  0  0
  -21.3642   -5.6805   24.9163 C   0  0  0  0  0  0
  -21.6016   -4.3070   24.7211 C   0  0  0  0  0  0
  -21.8787   -3.8153   23.4336 C   0  0  0  0  0  0
  -21.9177   -4.6965   22.3392 C   0  0  0  0  0  0
  -22.7835  -13.5246   21.1780 C   0  0  0  0  0  0
  -22.1635   -4.2139   21.0974 F   0  0  0  0  0  0
  -21.5616   -3.4569   25.7733 F   0  0  0  0  0  0
  -30.0373  -13.3165   20.4445 N   0  0  0  0  0  0
  -26.3029  -12.9293   20.3449 N   0  0  0  0  0  0
  -25.9306  -11.6458   20.5819 N   0  0  0  0  0  0
  -22.0450  -12.8305   22.0388 N   0  0  0  0  0  0
  -25.4320  -15.1888   20.4185 N   0  0  0  0  0  0
  -31.8511  -14.6417   20.1380 O   0  0  0  0  0  0
  -21.6613   -6.8894   21.4241 O   0  0  0  0  0  0
  -22.3515  -14.5521   20.6571 O   0  0  0  0  0  0
  -24.6137  -31.8690   23.2111 C   0  0  0  0  0  0
  -25.9033  -32.4837   23.8412 C   0  0  1  0  0  0
  -27.2400  -27.4497   20.0925 C   0  0  0  0  0  0
  -25.5895  -33.8635   24.2344 N   0  0  0  0  0  0
  -23.4024  -30.4920   21.5511 C   0  0  2  0  0  0
  -24.8513  -28.9567   20.1174 C   0  0  0  0  0  0
  -22.7414  -29.4656   22.4989 C   0  0  0  0  0  0
  -18.0268  -28.1382   22.8493 C   0  0  0  0  0  0
  -24.1486  -36.7331   23.2637 C   0  0  0  0  0  0
  -25.9283  -30.8391   21.3608 C   0  0  0  0  0  0
  -26.0090  -29.4715   20.7147 C   0  0  0  0  0  0
  -27.2087  -28.7239   20.7029 C   0  0  0  0  0  0
  -26.0706  -26.9452   19.4894 C   0  0  0  0  0  0
  -24.8752  -27.6913   19.5032 C   0  0  0  0  0  0
  -23.6119  -29.8235   20.1657 C   0  0  0  0  0  0
  -25.4105  -36.3123   24.0341 C   0  0  1  0  0  0
  -20.5856  -28.3666   23.1331 C   0  0  2  0  0  0
  -20.6754  -26.9404   22.5420 C   0  0  0  0  0  0
  -19.5726  -26.6384   21.5221 C   0  0  0  0  0  0
  -18.1908  -26.7930   22.1629 C   0  0  0  0  0  0
  -19.1516  -28.8837   23.2911 C   0  0  0  0  0  0
  -18.9448  -30.1445   23.8922 C   0  0  0  0  0  0
  -17.6452  -30.6589   24.0569 C   0  0  0  0  0  0
  -25.9029  -34.9487   23.5142 C   0  0  0  0  0  0
  -16.5344  -29.9100   23.6316 C   0  0  0  0  0  0
  -16.7261  -28.6514   23.0342 C   0  0  0  0  0  0
  -26.4462  -31.6604   25.0728 C   0  0  0  0  0  0
  -25.3734  -31.3694   26.1478 C   0  0  0  0  0  0
  -27.0297  -30.3064   24.6066 C   0  0  0  0  0  0
  -27.6034  -32.4313   25.7506 C   0  0  0  0  0  0
  -27.5586  -37.1825   24.8461 C   0  0  0  0  0  0
  -21.4133  -29.3048   22.3753 N   0  0  0  0  0  0
  -26.4294  -37.3808   23.9408 N   0  0  0  0  0  0
  -24.6668  -31.0806   22.1003 N   0  0  0  0  0  0
  -23.4192  -28.8184   23.3016 O   0  0  0  0  0  0
  -28.3910  -26.6998   20.0535 O   0  0  0  0  0  0
  -26.5584  -34.8930   22.4698 O   0  0  0  0  0  0
  -23.5328  -32.1431   23.7510 O   0  0  0  0  0  0
  -32.7821  -21.8166   20.9145 C   0  0  0  0  0  0
  -32.4164  -20.4630   20.9826 C   0  0  0  0  0  0
  -31.7945  -22.8118   20.8369 C   0  0  0  0  0  0
  -30.0526  -21.0902   20.8877 C   0  0  0  0  0  0
  -31.0607  -20.0789   20.9875 C   0  0  0  0  0  0
  -30.4222  -22.4691   20.8162 C   0  0  0  0  0  0
  -30.5326  -16.5005   22.1656 C   0  0  0  0  0  0
  -30.8738  -17.9522   19.7947 C   0  0  0  0  0  0
  -29.9137  -15.8173   20.9084 C   0  0  1  0  0  0
  -29.7897  -16.8605   19.7386 C   0  0  2  0  0  0
  -30.2535  -18.0255   22.2448 C   0  0  1  0  0  0
  -28.5720  -20.7280   20.8287 C   0  0  0  0  0  0
  -29.6594  -16.2882   18.3151 C   0  0  0  0  0  0
  -30.8012  -18.6180   23.5517 C   0  0  0  0  0  0
  -29.7615  -24.8820   21.0053 C   0  0  0  0  0  0
  -28.5268  -25.8057   21.1602 C   0  0  0  0  0  0
  -30.8057  -18.6898   21.0550 N   0  0  0  0  0  0
  -29.4379  -23.4799   20.7039 N   0  0  0  0  0  0
  -31.4764  -12.3957   19.1426 H   0  0  0  0  0  0
  -30.3299  -11.3065   19.8693 H   0  0  0  0  0  0
  -29.7448  -11.7311   17.4701 H   0  0  0  0  0  0
  -29.6835  -13.4464   17.7548 H   0  0  0  0  0  0
  -27.8349  -11.3016   18.8444 H   0  0  0  0  0  0
  -27.3745  -12.6141   17.7983 H   0  0  0  0  0  0
  -27.6912  -14.2452   19.5825 H   0  0  0  0  0  0
  -28.7004  -11.9741   21.3536 H   0  0  0  0  0  0
  -28.4841  -13.6035   21.8853 H   0  0  0  0  0  0
  -25.2734   -9.5662   22.4791 H   0  0  0  0  0  0
  -23.9939   -7.4624   22.7514 H   0  0  0  0  0  0
  -21.0801   -8.8859   19.8971 H   0  0  0  0  0  0
  -22.3742  -10.9707   19.6238 H   0  0  0  0  0  0
  -21.2089   -7.6173   23.9746 H   0  0  0  0  0  0
  -21.1498   -6.0533   25.9076 H   0  0  0  0  0  0
  -22.0595   -2.7621   23.2834 H   0  0  0  0  0  0
  -22.3988  -11.9997   22.4888 H   0  0  0  0  0  0
  -21.1107  -13.1473   22.2581 H   0  0  0  0  0  0
  -24.6571  -15.8407   20.4899 H   0  0  0  0  0  0
  -26.2983  -15.6336   20.1405 H   0  0  0  0  0  0
  -26.7105  -32.5562   23.1182 H   0  0  0  0  0  0
  -25.0068  -33.9797   25.0507 H   0  0  0  0  0  0
  -22.6897  -31.3078   21.4127 H   0  0  0  0  0  0
  -23.3745  -35.9668   23.3295 H   0  0  0  0  0  0
  -24.3586  -36.8951   22.2053 H   0  0  0  0  0  0
  -23.7235  -37.6536   23.6651 H   0  0  0  0  0  0
  -26.0288  -31.6013   20.5871 H   0  0  0  0  0  0
  -26.8198  -30.9028   21.9724 H   0  0  0  0  0  0
  -28.1064  -29.1209   21.1566 H   0  0  0  0  0  0
  -26.0881  -25.9779   19.0075 H   0  0  0  0  0  0
  -23.9863  -27.2922   19.0339 H   0  0  0  0  0  0
  -23.7197  -30.6002   19.4074 H   0  0  0  0  0  0
  -22.7352  -29.2449   19.8684 H   0  0  0  0  0  0
  -25.1274  -36.2003   25.0835 H   0  0  0  0  0  0
  -20.9942  -28.3223   24.1455 H   0  0  0  0  0  0
  -20.5667  -26.2271   23.3608 H   0  0  0  0  0  0
  -21.6628  -26.7452   22.1212 H   0  0  0  0  0  0
  -19.6890  -25.6295   21.1254 H   0  0  0  0  0  0
  -19.6672  -27.3195   20.6753 H   0  0  0  0  0  0
  -17.4182  -26.6689   21.4029 H   0  0  0  0  0  0
  -18.0300  -26.0075   22.9022 H   0  0  0  0  0  0
  -19.7926  -30.7255   24.2311 H   0  0  0  0  0  0
  -17.5012  -31.6274   24.5165 H   0  0  0  0  0  0
  -15.5352  -30.3021   23.7619 H   0  0  0  0  0  0
  -15.8658  -28.0856   22.7036 H   0  0  0  0  0  0
  -24.5897  -30.7051   25.7816 H   0  0  0  0  0  0
  -24.8929  -32.2843   26.4959 H   0  0  0  0  0  0
  -25.8090  -30.8840   27.0222 H   0  0  0  0  0  0
  -26.2842  -29.6842   24.1096 H   0  0  0  0  0  0
  -27.4079  -29.7270   25.4500 H   0  0  0  0  0  0
  -27.8665  -30.4419   23.9207 H   0  0  0  0  0  0
  -27.2657  -33.3606   26.2111 H   0  0  0  0  0  0
  -28.3848  -32.6888   25.0341 H   0  0  0  0  0  0
  -28.0700  -31.8417   26.5410 H   0  0  0  0  0  0
  -28.2589  -38.0137   24.7527 H   0  0  0  0  0  0
  -28.1095  -36.2668   24.6260 H   0  0  0  0  0  0
  -27.2303  -37.1448   25.8862 H   0  0  0  0  0  0
  -20.9280  -29.8837   21.7041 H   0  0  0  0  0  0
  -26.0187  -38.2892   24.1403 H   0  0  0  0  0  0
  -33.8264  -22.0950   20.9177 H   0  0  0  0  0  0
  -33.1904  -19.7102   21.0377 H   0  0  0  0  0  0
  -32.1235  -23.8392   20.7793 H   0  0  0  0  0  0
  -31.6149  -16.3466   22.1989 H   0  0  0  0  0  0
  -30.1407  -16.0104   23.0575 H   0  0  0  0  0  0
  -30.7397  -18.6457   18.9626 H   0  0  0  0  0  0
  -31.8663  -17.5106   19.6862 H   0  0  0  0  0  0
  -28.8844  -15.5765   21.1532 H   0  0  0  0  0  0
  -28.8440  -17.3810   19.8987 H   0  0  0  0  0  0
  -29.1719  -18.1655   22.2546 H   0  0  0  0  0  0
  -28.3779  -19.6621   20.9085 H   0  0  0  0  0  0
  -28.1476  -21.0581   19.8811 H   0  0  0  0  0  0
  -28.0313  -21.2237   21.6354 H   0  0  0  0  0  0
  -28.7800  -15.6535   18.2218 H   0  0  0  0  0  0
  -30.5361  -15.7158   18.0108 H   0  0  0  0  0  0
  -29.5476  -17.0947   17.5894 H   0  0  0  0  0  0
  -31.8851  -18.5154   23.6052 H   0  0  0  0  0  0
  -30.3767  -18.1077   24.4171 H   0  0  0  0  0  0
  -30.5540  -19.6758   23.6560 H   0  0  0  0  0  0
  -30.3136  -24.9029   21.9467 H   0  0  0  0  0  0
  -30.4334  -25.2886   20.2481 H   0  0  0  0  0  0
  -28.6628  -26.4189   22.0529 H   0  0  0  0  0  0
  -27.6160  -25.2263   21.3226 H   0  0  0  0  0  0
  -28.4591  -23.2086   20.7097 H   0  0  0  0  0  0
  1 25  1  0  0  0
  1 30  2  0  0  0
  1 79  1  0  0  0
  2  3  1  0  0  0
  2 25  1  0  0  0
  2 89  1  0  0  0
  2 90  1  0  0  0
  3  4  1  0  0  0
  3 91  1  0  0  0
  3 92  1  0  0  0
  4  5  1  0  0  0
  4 93  1  0  0  0
  4 94  1  0  0  0
  5  6  1  0  0  0
  5 26  1  0  0  0
  5 95  1  0  0  0
  6 25  1  0  0  0
  6 96  1  0  0  0
  6 97  1  0  0  0
  7  8  2  0  0  0
  7 26  1  0  0  0
  7 29  1  0  0  0
  8  9  1  0  0  0
  8 22  1  0  0  0
  9 10  1  0  0  0
  9 27  2  0  0  0
 10 11  2  0  0  0
 10 15  1  0  0  0
 11 12  1  0  0  0
 11 98  1  0  0  0
 12 13  2  0  0  0
 12 99  1  0  0  0
 13 14  1  0  0  0
 13 31  1  0  0  0
 14 15  2  0  0  0
 14100  1  0  0  0
 15101  1  0  0  0
 16 17  2  0  0  0
 16 21  1  0  0  0
 16 31  1  0  0  0
 17 18  1  0  0  0
 17102  1  0  0  0
 18 19  2  0  0  0
 18103  1  0  0  0
 19 20  1  0  0  0
 19 24  1  0  0  0
 20 21  2  0  0  0
 20104  1  0  0  0
 21 23  1  0  0  0
 22 28  1  0  0  0
 22 32  2  0  0  0
 26 27  1  0  0  0
 28105  1  0  0  0
 28106  1  0  0  0
 29107  1  0  0  0
 29108  1  0  0  0
 33 34  1  0  0  0
 33 66  1  0  0  0
 33 70  2  0  0  0
 34 36  1  0  0  0
 34 59  1  0  0  0
 34109  1  0  0  0
 35 44  2  0  0  0
 35 45  1  0  0  0
 35 68  1  0  0  0
 36 56  1  0  0  0
 36110  1  0  0  0
 37 39  1  0  0  0
 37 47  1  0  0  0
 37 66  1  0  0  0
 37111  1  0  0  0
 38 43  2  0  0  0
 38 46  1  0  0  0
 38 47  1  0  0  0
 39 64  1  0  0  0
 39 67  2  0  0  0
 40 52  1  0  0  0
 40 53  2  0  0  0
 40 58  1  0  0  0
 41112  1  0  0  0
 41113  1  0  0  0
 41114  1  0  0  0
 41 48  1  0  0  0
 42 43  1  0  0  0
 42 66  1  0  0  0
 42115  1  0  0  0
 42116  1  0  0  0
 43 44  1  0  0  0
 44117  1  0  0  0
 45 46  2  0  0  0
 45118  1  0  0  0
 46119  1  0  0  0
 47120  1  0  0  0
 47121  1  0  0  0
 48 56  1  0  0  0
 48 65  1  0  0  0
 48122  1  0  0  0
 49 50  1  0  0  0
 49 53  1  0  0  0
 49 64  1  0  0  0
 49123  1  0  0  0
 50 51  1  0  0  0
 50124  1  0  0  0
 50125  1  0  0  0
 51 52  1  0  0  0
 51126  1  0  0  0
 51127  1  0  0  0
 52128  1  0  0  0
 52129  1  0  0  0
 53 54  1  0  0  0
 54 55  2  0  0  0
 54130  1  0  0  0
 55 57  1  0  0  0
 55131  1  0  0  0
 56 69  2  0  0  0
 57 58  2  0  0  0
 57132  1  0  0  0
 58133  1  0  0  0
 59 60  1  0  0  0
 59 61  1  0  0  0
 59 62  1  0  0  0
 60134  1  0  0  0
 60135  1  0  0  0
 60136  1  0  0  0
 61137  1  0  0  0
 61138  1  0  0  0
 61139  1  0  0  0
 62140  1  0  0  0
 62141  1  0  0  0
 62142  1  0  0  0
 63 65  1  0  0  0
 63143  1  0  0  0
 63144  1  0  0  0
 63145  1  0  0  0
 64146  1  0  0  0
 65147  1  0  0  0
 68 86  1  0  0  0
 71 72  2  0  0  0
 71 73  1  0  0  0
 71148  1  0  0  0
 72 75  1  0  0  0
 72149  1  0  0  0
 73 76  2  0  0  0
 73150  1  0  0  0
 74 75  2  0  0  0
 74 76  1  0  0  0
 74 82  1  0  0  0
 75 87  1  0  0  0
 76 88  1  0  0  0
 77 79  1  0  0  0
 77 81  1  0  0  0
 77151  1  0  0  0
 77152  1  0  0  0
 78 80  1  0  0  0
 78 87  1  0  0  0
 78153  1  0  0  0
 78154  1  0  0  0
 79 80  1  0  0  0
 79155  1  0  0  0
 80 83  1  0  0  0
 80156  1  0  0  0
 81 84  1  0  0  0
 81 87  1  0  0  0
 81157  1  0  0  0
 82158  1  0  0  0
 82159  1  0  0  0
 82160  1  0  0  0
 83161  1  0  0  0
 83162  1  0  0  0
 83163  1  0  0  0
 84164  1  0  0  0
 84165  1  0  0  0
 84166  1  0  0  0
 85 86  1  0  0  0
 85 88  1  0  0  0
 85167  1  0  0  0
 85168  1  0  0  0
 86169  1  0  0  0
 86170  1  0  0  0
 88171  1  0  0  0
M  ISO  4   1 100  68 101  79 100  86 101
M  END
> <chiral flag>
0

> <version>
0

> <s_m_source_file>
/data/baiqing/PycharmProjects/Reinvent-master-3.2/result/LINK_invent/BTK/process_docking_weight1_custom_product_contain_oxygen_bond_distance_aromatic_linkinvent_7_9_3/rearranged_h_0026.sdf

> <i_m_source_file_index>
66

> <r_mmod_Potential_Energy-OPLS-2005>
49.4490242004395

> <r_mmod_Stretch_Energy-OPLS-2005>
45.1998176574707

> <r_mmod_Bend_Energy-OPLS-2005>
125.666610717773

> <r_mmod_Torsional_Energy-OPLS-2005>
276.800018310547

> <r_mmod_Improper_Torsional_Energy-OPLS-2005>
5.5895209312439

> <r_mmod_Van_der_Waal_Energy-OPLS-2005>
157.887054443359

> <r_mmod_Electrostatic_Energy-OPLS-2005>
-375.157135009766

> <r_mmod_Solvation_Energy-OPLS-2005>
-202.364074707031

> <b_mmod_Minimization_Converged-OPLS-2005>
0

> <r_mmod_RMS_Derivative-OPLS-2005>
2.94904923439026

$$$$
66
                    3D
 Structure written by MMmdl.
157166  0  0  1  0            999 V2000
  -30.6907  -14.5476   20.4948 C   0  0  0  0  0  0
  -30.4147  -12.3364   19.4413 C   0  0  0  0  0  0
  -29.4921  -12.4835   18.2138 C   0  0  0  0  0  0
  -28.0148  -12.3428   18.6299 C   0  0  0  0  0  0
  -27.6501  -13.2141   19.8627 C   0  0  2  0  0  0
  -28.6972  -13.0659   20.9896 C   0  0  0  0  0  0
  -25.2543  -13.8169   20.5687 C   0  0  0  0  0  0
  -24.1815  -13.0442   20.9210 C   0  0  0  0  0  0
  -24.6383  -11.6913   20.8764 C   0  0  0  0  0  0
  -23.9055  -10.4294   21.0418 C   0  0  0  0  0  0
  -24.3610   -9.4207   21.9189 C   0  0  0  0  0  0
  -23.6289   -8.2241   22.0751 C   0  0  0  0  0  0
  -22.4272   -8.0281   21.3541 C   0  0  0  0  0  0
  -21.9909   -9.0255   20.4646 C   0  0  0  0  0  0
  -22.7233  -10.2137   20.3063 C   0  0  0  0  0  0
  -21.6853   -6.0735   22.5280 C   0  0  0  0  0  0
  -21.4012   -6.5640   23.8210 C   0  0  0  0  0  0
  -21.3658   -5.6794   24.9173 C   0  0  0  0  0  0
  -21.6042   -4.3057   24.7224 C   0  0  0  0  0  0
  -21.8821   -3.8149   23.4345 C   0  0  0  0  0  0
  -21.9191   -4.6964   22.3402 C   0  0  0  0  0  0
  -22.7839  -13.5238   21.1864 C   0  0  0  0  0  0
  -22.1662   -4.2150   21.0979 F   0  0  0  0  0  0
  -21.5627   -3.4541   25.7735 F   0  0  0  0  0  0
  -30.0089  -13.3704   20.4089 N   0  0  0  0  0  0
  -26.2971  -12.9350   20.3344 N   0  0  0  0  0  0
  -25.9308  -11.6508   20.5793 N   0  0  0  0  0  0
  -22.0486  -12.8225   22.0419 N   0  0  0  0  0  0
  -25.4261  -15.1874   20.4034 N   0  0  0  0  0  0
  -31.8765  -14.6341   20.1765 O   0  0  0  0  0  0
  -21.6639   -6.8876   21.4239 O   0  0  0  0  0  0
  -22.3529  -14.5544   20.6710 O   0  0  0  0  0  0
  -24.6187  -31.8651   23.2070 C   0  0  0  0  0  0
  -25.9059  -32.4808   23.8383 C   0  0  1  0  0  0
  -27.2238  -27.3907   20.1092 C   0  0  0  0  0  0
  -25.5898  -33.8606   24.2314 N   0  0  0  0  0  0
  -23.4084  -30.4892   21.5482 C   0  0  2  0  0  0
  -24.8538  -28.9505   20.1141 C   0  0  0  0  0  0
  -22.7430  -29.4648   22.4967 C   0  0  0  0  0  0
  -18.0273  -28.1378   22.8487 C   0  0  0  0  0  0
  -24.1486  -36.7312   23.2639 C   0  0  0  0  0  0
  -25.9421  -30.8198   21.3653 C   0  0  0  0  0  0
  -26.0183  -29.4520   20.7099 C   0  0  0  0  0  0
  -27.2098  -28.6828   20.6963 C   0  0  0  0  0  0
  -26.0416  -26.9164   19.5023 C   0  0  0  0  0  0
  -24.8633  -27.6854   19.5037 C   0  0  0  0  0  0
  -23.6181  -29.8226   20.1630 C   0  0  0  0  0  0
  -25.4108  -36.3103   24.0336 C   0  0  1  0  0  0
  -20.5866  -28.3679   23.1307 C   0  0  2  0  0  0
  -20.6769  -26.9406   22.5426 C   0  0  0  0  0  0
  -19.5759  -26.6392   21.5214 C   0  0  0  0  0  0
  -18.1933  -26.7925   22.1622 C   0  0  0  0  0  0
  -19.1519  -28.8846   23.2892 C   0  0  0  0  0  0
  -18.9441  -30.1453   23.8902 C   0  0  0  0  0  0
  -17.6441  -30.6585   24.0559 C   0  0  0  0  0  0
  -25.9038  -34.9469   23.5124 C   0  0  0  0  0  0
  -16.5334  -29.9082   23.6323 C   0  0  0  0  0  0
  -16.7262  -28.6498   23.0347 C   0  0  0  0  0  0
  -26.4477  -31.6595   25.0725 C   0  0  0  0  0  0
  -25.3741  -31.3701   26.1473 C   0  0  0  0  0  0
  -27.0309  -30.3032   24.6116 C   0  0  0  0  0  0
  -27.6049  -32.4316   25.7488 C   0  0  0  0  0  0
  -27.5578  -37.1812   24.8467 C   0  0  0  0  0  0
  -21.4151  -29.3042   22.3708 N   0  0  0  0  0  0
  -26.4295  -37.3788   23.9405 N   0  0  0  0  0  0
  -24.6750  -31.0732   22.0981 N   0  0  0  0  0  0
  -23.4186  -28.8186   23.3018 O   0  0  0  0  0  0
  -28.3632  -26.6030   20.1255 O   0  0  0  0  0  0
  -26.5604  -34.8924   22.4690 O   0  0  0  0  0  0
  -23.5369  -32.1409   23.7446 O   0  0  0  0  0  0
  -29.9940  -18.7632   21.7812 C   0  0  0  0  0  0
  -29.8140  -20.1701   21.7587 C   0  0  0  0  0  0
  -27.9331  -18.4867   20.5472 C   0  0  0  0  0  0
  -29.0348  -17.8955   21.2112 C   0  0  0  0  0  0
  -28.6710  -20.7627   21.1623 C   0  0  0  0  0  0
  -27.7466  -19.8940   20.5240 C   0  0  0  0  0  0
  -27.8893  -24.1007   19.6608 C   0  0  0  0  0  0
  -29.5034  -24.4884   20.8741 C   0  0  0  0  0  0
  -28.1923  -25.2517   20.6389 C   0  0  1  0  0  0
  -29.1371  -16.3609   21.3852 C   0  0  0  0  0  0
  -28.3713  -22.2732   21.3764 C   0  0  0  0  0  0
  -29.9683  -15.6860   20.3823 N   0  0  0  0  0  0
  -28.8826  -23.2508   20.3544 N   0  3  1  0  0  0
  -26.3320  -20.5249   19.7576 Cl  0  0  0  0  0  0
  -31.4600  -12.4264   19.1400 H   0  0  0  0  0  0
  -30.3151  -11.3435   19.8829 H   0  0  0  0  0  0
  -29.7416  -11.7340   17.4613 H   0  0  0  0  0  0
  -29.6515  -13.4553   17.7439 H   0  0  0  0  0  0
  -27.8397  -11.2908   18.8583 H   0  0  0  0  0  0
  -27.3602  -12.5829   17.7913 H   0  0  0  0  0  0
  -27.6716  -14.2495   19.5231 H   0  0  0  0  0  0
  -28.6918  -12.0505   21.3880 H   0  0  0  0  0  0
  -28.4702  -13.7185   21.8321 H   0  0  0  0  0  0
  -25.2754   -9.5685   22.4763 H   0  0  0  0  0  0
  -24.0003   -7.4632   22.7467 H   0  0  0  0  0  0
  -21.0842   -8.8771   19.8950 H   0  0  0  0  0  0
  -22.3690  -10.9674   19.6175 H   0  0  0  0  0  0
  -21.2007   -7.6150   23.9712 H   0  0  0  0  0  0
  -21.1478   -6.0527   25.9075 H   0  0  0  0  0  0
  -22.0601   -2.7613   23.2845 H   0  0  0  0  0  0
  -22.4110  -11.9881   22.4789 H   0  0  0  0  0  0
  -21.1107  -13.1243   22.2637 H   0  0  0  0  0  0
  -24.6555  -15.8405   20.4902 H   0  0  0  0  0  0
  -26.2644  -15.6062   20.0242 H   0  0  0  0  0  0
  -26.7132  -32.5503   23.1144 H   0  0  0  0  0  0
  -25.0044  -33.9763   25.0454 H   0  0  0  0  0  0
  -22.6988  -31.3073   21.4082 H   0  0  0  0  0  0
  -23.3743  -35.9650   23.3314 H   0  0  0  0  0  0
  -24.3581  -36.8915   22.2051 H   0  0  0  0  0  0
  -23.7246  -37.6523   23.6650 H   0  0  0  0  0  0
  -26.0597  -31.5853   20.5972 H   0  0  0  0  0  0
  -26.8279  -30.8711   21.9868 H   0  0  0  0  0  0
  -28.1088  -29.0652   21.1592 H   0  0  0  0  0  0
  -26.0204  -25.9514   19.0192 H   0  0  0  0  0  0
  -23.9693  -27.2963   19.0360 H   0  0  0  0  0  0
  -23.7303  -30.5977   19.4040 H   0  0  0  0  0  0
  -22.7403  -29.2452   19.8663 H   0  0  0  0  0  0
  -25.1287  -36.1970   25.0831 H   0  0  0  0  0  0
  -20.9959  -28.3256   24.1425 H   0  0  0  0  0  0
  -20.5662  -26.2283   23.3620 H   0  0  0  0  0  0
  -21.6644  -26.7450   22.1226 H   0  0  0  0  0  0
  -19.6929  -25.6304   21.1234 H   0  0  0  0  0  0
  -19.6700  -27.3212   20.6751 H   0  0  0  0  0  0
  -17.4210  -26.6665   21.4024 H   0  0  0  0  0  0
  -18.0342  -26.0066   22.9019 H   0  0  0  0  0  0
  -19.7915  -30.7270   24.2274 H   0  0  0  0  0  0
  -17.4991  -31.6268   24.5152 H   0  0  0  0  0  0
  -15.5335  -30.2985   23.7640 H   0  0  0  0  0  0
  -15.8662  -28.0819   22.7060 H   0  0  0  0  0  0
  -24.5913  -30.7047   25.7812 H   0  0  0  0  0  0
  -24.8935  -32.2855   26.4934 H   0  0  0  0  0  0
  -25.8097  -30.8863   27.0223 H   0  0  0  0  0  0
  -26.2859  -29.6793   24.1165 H   0  0  0  0  0  0
  -27.4064  -29.7270   25.4582 H   0  0  0  0  0  0
  -27.8702  -30.4345   23.9282 H   0  0  0  0  0  0
  -27.2665  -33.3604   26.2093 H   0  0  0  0  0  0
  -28.3846  -32.6893   25.0309 H   0  0  0  0  0  0
  -28.0734  -31.8425   26.5382 H   0  0  0  0  0  0
  -28.2609  -38.0096   24.7500 H   0  0  0  0  0  0
  -28.1062  -36.2629   24.6313 H   0  0  0  0  0  0
  -27.2297  -37.1488   25.8870 H   0  0  0  0  0  0
  -20.9316  -29.8756   21.6919 H   0  0  0  0  0  0
  -26.0185  -38.2869   24.1394 H   0  0  0  0  0  0
  -30.8524  -18.3489   22.2932 H   0  0  0  0  0  0
  -30.5389  -20.7915   22.2671 H   0  0  0  0  0  0
  -27.1837  -17.8550   20.0925 H   0  0  0  0  0  0
  -28.1951  -24.3232   18.6372 H   0  0  0  0  0  0
  -26.8636  -23.7305   19.6916 H   0  0  0  0  0  0
  -29.8311  -24.4579   21.9139 H   0  0  0  0  0  0
  -30.3102  -24.8321   20.2247 H   0  0  0  0  0  0
  -27.5531  -25.2179   21.5252 H   0  0  0  0  0  0
  -28.1309  -15.9439   21.3535 H   0  0  0  0  0  0
  -29.5245  -16.1444   22.3829 H   0  0  0  0  0  0
  -28.7948  -22.5298   22.3470 H   0  0  0  0  0  0
  -27.2991  -22.4075   21.5185 H   0  0  0  0  0  0
  -30.4918  -16.3695   19.8566 H   0  0  0  0  0  0
  -29.4970  -22.7845   19.7046 H   0  0  0  0  0  0
  1 25  1  0  0  0
  1 30  2  0  0  0
  1 82  1  0  0  0
  2  3  1  0  0  0
  2 25  1  0  0  0
  2 85  1  0  0  0
  2 86  1  0  0  0
  3  4  1  0  0  0
  3 87  1  0  0  0
  3 88  1  0  0  0
  4  5  1  0  0  0
  4 89  1  0  0  0
  4 90  1  0  0  0
  5  6  1  0  0  0
  5 26  1  0  0  0
  5 91  1  0  0  0
  6 25  1  0  0  0
  6 92  1  0  0  0
  6 93  1  0  0  0
  7  8  2  0  0  0
  7 26  1  0  0  0
  7 29  1  0  0  0
  8  9  1  0  0  0
  8 22  1  0  0  0
  9 10  1  0  0  0
  9 27  2  0  0  0
 10 11  2  0  0  0
 10 15  1  0  0  0
 11 12  1  0  0  0
 11 94  1  0  0  0
 12 13  2  0  0  0
 12 95  1  0  0  0
 13 14  1  0  0  0
 13 31  1  0  0  0
 14 15  2  0  0  0
 14 96  1  0  0  0
 15 97  1  0  0  0
 16 17  2  0  0  0
 16 21  1  0  0  0
 16 31  1  0  0  0
 17 18  1  0  0  0
 17 98  1  0  0  0
 18 19  2  0  0  0
 18 99  1  0  0  0
 19 20  1  0  0  0
 19 24  1  0  0  0
 20 21  2  0  0  0
 20100  1  0  0  0
 21 23  1  0  0  0
 22 28  1  0  0  0
 22 32  2  0  0  0
 26 27  1  0  0  0
 28101  1  0  0  0
 28102  1  0  0  0
 29103  1  0  0  0
 29104  1  0  0  0
 33 34  1  0  0  0
 33 66  1  0  0  0
 33 70  2  0  0  0
 34 36  1  0  0  0
 34 59  1  0  0  0
 34105  1  0  0  0
 35 44  2  0  0  0
 35 45  1  0  0  0
 35 68  1  0  0  0
 36 56  1  0  0  0
 36106  1  0  0  0
 37 39  1  0  0  0
 37 47  1  0  0  0
 37 66  1  0  0  0
 37107  1  0  0  0
 38 43  2  0  0  0
 38 46  1  0  0  0
 38 47  1  0  0  0
 39 64  1  0  0  0
 39 67  2  0  0  0
 40 52  1  0  0  0
 40 53  2  0  0  0
 40 58  1  0  0  0
 41108  1  0  0  0
 41109  1  0  0  0
 41110  1  0  0  0
 41 48  1  0  0  0
 42 43  1  0  0  0
 42 66  1  0  0  0
 42111  1  0  0  0
 42112  1  0  0  0
 43 44  1  0  0  0
 44113  1  0  0  0
 45 46  2  0  0  0
 45114  1  0  0  0
 46115  1  0  0  0
 47116  1  0  0  0
 47117  1  0  0  0
 48 56  1  0  0  0
 48 65  1  0  0  0
 48118  1  0  0  0
 49 50  1  0  0  0
 49 53  1  0  0  0
 49 64  1  0  0  0
 49119  1  0  0  0
 50 51  1  0  0  0
 50120  1  0  0  0
 50121  1  0  0  0
 51 52  1  0  0  0
 51122  1  0  0  0
 51123  1  0  0  0
 52124  1  0  0  0
 52125  1  0  0  0
 53 54  1  0  0  0
 54 55  2  0  0  0
 54126  1  0  0  0
 55 57  1  0  0  0
 55127  1  0  0  0
 56 69  2  0  0  0
 57 58  2  0  0  0
 57128  1  0  0  0
 58129  1  0  0  0
 59 60  1  0  0  0
 59 61  1  0  0  0
 59 62  1  0  0  0
 60130  1  0  0  0
 60131  1  0  0  0
 60132  1  0  0  0
 61133  1  0  0  0
 61134  1  0  0  0
 61135  1  0  0  0
 62136  1  0  0  0
 62137  1  0  0  0
 62138  1  0  0  0
 63 65  1  0  0  0
 63139  1  0  0  0
 63140  1  0  0  0
 63141  1  0  0  0
 64142  1  0  0  0
 65143  1  0  0  0
 68 79  1  0  0  0
 71 72  2  0  0  0
 71 74  1  0  0  0
 71144  1  0  0  0
 72 75  1  0  0  0
 72145  1  0  0  0
 73 74  2  0  0  0
 73 76  1  0  0  0
 73146  1  0  0  0
 74 80  1  0  0  0
 75 76  2  0  0  0
 75 81  1  0  0  0
 76 84  1  0  0  0
 77 79  1  0  0  0
 77 83  1  0  0  0
 77147  1  0  0  0
 77148  1  0  0  0
 78 79  1  0  0  0
 78 83  1  0  0  0
 78149  1  0  0  0
 78150  1  0  0  0
 79151  1  0  0  0
 80 82  1  0  0  0
 80152  1  0  0  0
 80153  1  0  0  0
 81154  1  0  0  0
 81155  1  0  0  0
 81 83  1  0  0  0
 82156  1  0  0  0
 83157  1  0  0  0
M  CHG  1  83   1
M  ISO  4   1 100  68 101  79 101  82 100
M  END
> <chiral flag>
0

> <version>
0

> <s_m_source_file>
/data/baiqing/PycharmProjects/Reinvent-master-3.2/result/LINK_invent/BTK/process_docking_weight1_custom_product_contain_oxygen_bond_distance_aromatic_linkinvent_7_9_3/rearranged_h_0026.sdf

> <i_m_source_file_index>
67

> <r_mmod_Potential_Energy-OPLS-2005>
-194.793258666992

> <r_mmod_Stretch_Energy-OPLS-2005>
47.5663299560547

> <r_mmod_Bend_Energy-OPLS-2005>
132.006393432617

> <r_mmod_Torsional_Energy-OPLS-2005>
301.647491455078

> <r_mmod_Improper_Torsional_Energy-OPLS-2005>
23.0300712585449

> <r_mmod_Van_der_Waal_Energy-OPLS-2005>
135.447631835938

> <r_mmod_Electrostatic_Energy-OPLS-2005>
-399.012634277344

> <r_mmod_Solvation_Energy-OPLS-2005>
-463.322967529297

> <b_mmod_Minimization_Converged-OPLS-2005>
0

> <r_mmod_RMS_Derivative-OPLS-2005>
0.808524489402771

$$$$
67
                    3D
 Structure written by MMmdl.
159169  0  0  1  0            999 V2000
  -30.6101  -14.8194   20.4271 C   0  0  0  0  0  0
  -30.4298  -12.5062   19.4700 C   0  0  0  0  0  0
  -29.5066  -12.4998   18.2337 C   0  0  0  0  0  0
  -28.0378  -12.3074   18.6580 C   0  0  0  0  0  0
  -27.6298  -13.2289   19.8375 C   0  0  2  0  0  0
  -28.6795  -13.2369   20.9674 C   0  0  0  0  0  0
  -25.2490  -13.8180   20.5730 C   0  0  0  0  0  0
  -24.1773  -13.0431   20.9224 C   0  0  0  0  0  0
  -24.6364  -11.6906   20.8752 C   0  0  0  0  0  0
  -23.9041  -10.4285   21.0405 C   0  0  0  0  0  0
  -24.3600   -9.4205   21.9182 C   0  0  0  0  0  0
  -23.6288   -8.2234   22.0751 C   0  0  0  0  0  0
  -22.4270   -8.0266   21.3543 C   0  0  0  0  0  0
  -21.9894   -9.0235   20.4647 C   0  0  0  0  0  0
  -22.7213  -10.2119   20.3057 C   0  0  0  0  0  0
  -21.6850   -6.0723   22.5271 C   0  0  0  0  0  0
  -21.4019   -6.5631   23.8204 C   0  0  0  0  0  0
  -21.3662   -5.6786   24.9163 C   0  0  0  0  0  0
  -21.6048   -4.3049   24.7222 C   0  0  0  0  0  0
  -21.8821   -3.8138   23.4342 C   0  0  0  0  0  0
  -21.9195   -4.6951   22.3395 C   0  0  0  0  0  0
  -22.7797  -13.5220   21.1867 C   0  0  0  0  0  0
  -22.1667   -4.2137   21.0976 F   0  0  0  0  0  0
  -21.5620   -3.4539   25.7741 F   0  0  0  0  0  0
  -29.9631  -13.5984   20.3572 N   0  0  0  0  0  0
  -26.2886  -12.9366   20.3272 N   0  0  0  0  0  0
  -25.9291  -11.6516   20.5752 N   0  0  0  0  0  0
  -22.0436  -12.8224   22.0420 N   0  0  0  0  0  0
  -25.4221  -15.1907   20.4189 N   0  0  0  0  0  0
  -31.8235  -14.8442   20.1969 O   0  0  0  0  0  0
  -21.6640   -6.8861   21.4234 O   0  0  0  0  0  0
  -22.3500  -14.5530   20.6711 O   0  0  0  0  0  0
  -24.6347  -31.8515   23.1943 C   0  0  0  0  0  0
  -25.9166  -32.4727   23.8293 C   0  0  1  0  0  0
  -27.2178  -27.2317   20.1415 C   0  0  0  0  0  0
  -25.5952  -33.8528   24.2222 N   0  0  0  0  0  0
  -23.4323  -30.4736   21.5386 C   0  0  2  0  0  0
  -24.8781  -28.9079   20.1144 C   0  0  0  0  0  0
  -22.7517  -29.4597   22.4905 C   0  0  0  0  0  0
  -18.0295  -28.1395   22.8487 C   0  0  0  0  0  0
  -24.1489  -36.7272   23.2641 C   0  0  0  0  0  0
  -25.9795  -30.7543   21.3772 C   0  0  0  0  0  0
  -26.0511  -29.3724   20.7239 C   0  0  0  0  0  0
  -27.2262  -28.5498   20.7195 C   0  0  0  0  0  0
  -26.0236  -26.8357   19.5061 C   0  0  0  0  0  0
  -24.8707  -27.6482   19.4932 C   0  0  0  0  0  0
  -23.6519  -29.8023   20.1566 C   0  0  0  0  0  0
  -25.4117  -36.3051   24.0320 C   0  0  1  0  0  0
  -20.5900  -28.3713   23.1265 C   0  0  2  0  0  0
  -20.6789  -26.9429   22.5411 C   0  0  0  0  0  0
  -19.5759  -26.6392   21.5222 C   0  0  0  0  0  0
  -18.1936  -26.7932   22.1628 C   0  0  0  0  0  0
  -19.1551  -28.8870   23.2866 C   0  0  0  0  0  0
  -18.9470  -30.1469   23.8889 C   0  0  0  0  0  0
  -17.6471  -30.6596   24.0569 C   0  0  0  0  0  0
  -25.9065  -34.9426   23.5076 C   0  0  0  0  0  0
  -16.5365  -29.9094   23.6336 C   0  0  0  0  0  0
  -16.7281  -28.6510   23.0357 C   0  0  0  0  0  0
  -26.4519  -31.6567   25.0703 C   0  0  0  0  0  0
  -25.3738  -31.3732   26.1426 C   0  0  0  0  0  0
  -27.0375  -30.2981   24.6203 C   0  0  0  0  0  0
  -27.6052  -32.4332   25.7482 C   0  0  0  0  0  0
  -27.5573  -37.1788   24.8462 C   0  0  0  0  0  0
  -21.4222  -29.3051   22.3649 N   0  0  0  0  0  0
  -26.4283  -37.3765   23.9411 N   0  0  0  0  0  0
  -24.7014  -31.0454   22.0930 N   0  0  0  0  0  0
  -23.4201  -28.8155   23.3031 O   0  0  0  0  0  0
  -28.3094  -26.3286   20.1378 O   0  0  0  0  0  0
  -26.5646  -34.8918   22.4649 O   0  0  0  0  0  0
  -23.5497  -32.1353   23.7233 O   0  0  0  0  0  0
  -29.5651  -19.7866   21.1129 C   0  0  0  0  0  0
  -28.6328  -20.4999   18.9933 C   0  0  0  0  0  0
  -29.6058  -18.4158   20.6345 C   0  0  0  0  0  0
  -29.1677  -18.1206   19.3744 C   0  0  0  0  0  0
  -29.0825  -20.8970   20.2890 C   0  0  0  0  0  0
  -28.6699  -19.1451   18.5353 C   0  0  0  0  0  0
  -30.1020  -17.1063   21.2577 C   0  0  0  0  0  0
  -29.3348  -16.6096   19.1492 C   0  0  0  0  0  0
  -31.0713  -23.5976   20.5320 C   0  0  0  0  0  0
  -30.1468  -23.8986   19.3488 C   0  0  0  0  0  0
  -30.2557  -22.6880   21.4656 C   0  0  0  0  0  0
  -28.7576  -23.5620   19.8851 C   0  0  2  0  0  0
  -28.1299  -24.8994   20.6204 C   0  0  0  0  0  0
  -29.0525  -22.3073   20.7205 N   0  0  0  0  0  0
  -29.8728  -16.0163   20.4249 N   0  0  0  0  0  0
  -30.6376  -17.0781   22.3702 O   0  0  0  0  0  0
  -28.2334  -18.8395   17.2912 F   0  0  0  0  0  0
  -31.4669  -12.6365   19.1576 H   0  0  0  0  0  0
  -30.3915  -11.5478   19.9903 H   0  0  0  0  0  0
  -29.8049  -11.7084   17.5446 H   0  0  0  0  0  0
  -29.6146  -13.4379   17.6867 H   0  0  0  0  0  0
  -27.9163  -11.2629   18.9489 H   0  0  0  0  0  0
  -27.3747  -12.4647   17.8071 H   0  0  0  0  0  0
  -27.5952  -14.2311   19.4203 H   0  0  0  0  0  0
  -28.7385  -12.2649   21.4598 H   0  0  0  0  0  0
  -28.4039  -13.9608   21.7360 H   0  0  0  0  0  0
  -25.2736   -9.5695   22.4757 H   0  0  0  0  0  0
  -23.9994   -7.4639   22.7475 H   0  0  0  0  0  0
  -21.0816   -8.8753   19.8967 H   0  0  0  0  0  0
  -22.3659  -10.9657   19.6171 H   0  0  0  0  0  0
  -21.2022   -7.6143   23.9703 H   0  0  0  0  0  0
  -21.1481   -6.0516   25.9066 H   0  0  0  0  0  0
  -22.0603   -2.7601   23.2842 H   0  0  0  0  0  0
  -22.4060  -11.9907   22.4843 H   0  0  0  0  0  0
  -21.1054  -13.1257   22.2617 H   0  0  0  0  0  0
  -24.6586  -15.8466   20.5434 H   0  0  0  0  0  0
  -26.2776  -15.6323   20.1114 H   0  0  0  0  0  0
  -26.7227  -32.5358   23.1025 H   0  0  0  0  0  0
  -25.0092  -33.9643   25.0362 H   0  0  0  0  0  0
  -22.7303  -31.2969   21.3906 H   0  0  0  0  0  0
  -23.3758  -35.9599   23.3298 H   0  0  0  0  0  0
  -24.3577  -36.8911   22.2058 H   0  0  0  0  0  0
  -23.7243  -37.6468   23.6677 H   0  0  0  0  0  0
  -26.1205  -31.5111   20.6046 H   0  0  0  0  0  0
  -26.8562  -30.8032   22.0110 H   0  0  0  0  0  0
  -28.1273  -28.9048   21.1999 H   0  0  0  0  0  0
  -25.9765  -25.8709   19.0205 H   0  0  0  0  0  0
  -23.9749  -27.2874   19.0063 H   0  0  0  0  0  0
  -23.7815  -30.5766   19.3995 H   0  0  0  0  0  0
  -22.7677  -29.2400   19.8511 H   0  0  0  0  0  0
  -25.1301  -36.1883   25.0813 H   0  0  0  0  0  0
  -20.9983  -28.3305   24.1390 H   0  0  0  0  0  0
  -20.5698  -26.2331   23.3622 H   0  0  0  0  0  0
  -21.6655  -26.7454   22.1205 H   0  0  0  0  0  0
  -19.6922  -25.6303   21.1248 H   0  0  0  0  0  0
  -19.6692  -27.3210   20.6755 H   0  0  0  0  0  0
  -17.4209  -26.6690   21.4027 H   0  0  0  0  0  0
  -18.0331  -26.0072   22.9018 H   0  0  0  0  0  0
  -19.7953  -30.7287   24.2253 H   0  0  0  0  0  0
  -17.5030  -31.6269   24.5182 H   0  0  0  0  0  0
  -15.5365  -30.2997   23.7660 H   0  0  0  0  0  0
  -15.8681  -28.0829   22.7074 H   0  0  0  0  0  0
  -24.5894  -30.7103   25.7765 H   0  0  0  0  0  0
  -24.8960  -32.2912   26.4853 H   0  0  0  0  0  0
  -25.8059  -30.8904   27.0199 H   0  0  0  0  0  0
  -26.2961  -29.6715   24.1233 H   0  0  0  0  0  0
  -27.4065  -29.7258   25.4723 H   0  0  0  0  0  0
  -27.8833  -30.4261   23.9448 H   0  0  0  0  0  0
  -27.2626  -33.3628   26.2037 H   0  0  0  0  0  0
  -28.3866  -32.6906   25.0321 H   0  0  0  0  0  0
  -28.0711  -31.8478   26.5417 H   0  0  0  0  0  0
  -28.2587  -38.0089   24.7518 H   0  0  0  0  0  0
  -28.1071  -36.2621   24.6276 H   0  0  0  0  0  0
  -27.2288  -37.1426   25.8864 H   0  0  0  0  0  0
  -20.9425  -29.8759   21.6829 H   0  0  0  0  0  0
  -26.0152  -38.2832   24.1434 H   0  0  0  0  0  0
  -29.9090  -19.9726   22.1201 H   0  0  0  0  0  0
  -28.2503  -21.2417   18.3096 H   0  0  0  0  0  0
  -30.0166  -16.4347   18.3148 H   0  0  0  0  0  0
  -28.3690  -16.1848   18.8850 H   0  0  0  0  0  0
  -31.3531  -24.5125   21.0552 H   0  0  0  0  0  0
  -31.9890  -23.1147   20.1940 H   0  0  0  0  0  0
  -30.3851  -23.2296   18.5209 H   0  0  0  0  0  0
  -30.2399  -24.9196   18.9769 H   0  0  0  0  0  0
  -29.9648  -23.2305   22.3663 H   0  0  0  0  0  0
  -30.8767  -21.8562   21.7951 H   0  0  0  0  0  0
  -28.1045  -23.3154   19.0472 H   0  0  0  0  0  0
  -28.5461  -24.9283   21.6270 H   0  0  0  0  0  0
  -27.0701  -24.7066   20.7889 H   0  0  0  0  0  0
  1 25  1  0  0  0
  1 30  2  0  0  0
  1 85  1  0  0  0
  2  3  1  0  0  0
  2 25  1  0  0  0
  2 88  1  0  0  0
  2 89  1  0  0  0
  3  4  1  0  0  0
  3 90  1  0  0  0
  3 91  1  0  0  0
  4  5  1  0  0  0
  4 92  1  0  0  0
  4 93  1  0  0  0
  5  6  1  0  0  0
  5 26  1  0  0  0
  5 94  1  0  0  0
  6 25  1  0  0  0
  6 95  1  0  0  0
  6 96  1  0  0  0
  7  8  2  0  0  0
  7 26  1  0  0  0
  7 29  1  0  0  0
  8  9  1  0  0  0
  8 22  1  0  0  0
  9 10  1  0  0  0
  9 27  2  0  0  0
 10 11  2  0  0  0
 10 15  1  0  0  0
 11 12  1  0  0  0
 11 97  1  0  0  0
 12 13  2  0  0  0
 12 98  1  0  0  0
 13 14  1  0  0  0
 13 31  1  0  0  0
 14 15  2  0  0  0
 14 99  1  0  0  0
 15100  1  0  0  0
 16 17  2  0  0  0
 16 21  1  0  0  0
 16 31  1  0  0  0
 17 18  1  0  0  0
 17101  1  0  0  0
 18 19  2  0  0  0
 18102  1  0  0  0
 19 20  1  0  0  0
 19 24  1  0  0  0
 20 21  2  0  0  0
 20103  1  0  0  0
 21 23  1  0  0  0
 22 28  1  0  0  0
 22 32  2  0  0  0
 26 27  1  0  0  0
 28104  1  0  0  0
 28105  1  0  0  0
 29106  1  0  0  0
 29107  1  0  0  0
 33 34  1  0  0  0
 33 66  1  0  0  0
 33 70  2  0  0  0
 34 36  1  0  0  0
 34 59  1  0  0  0
 34108  1  0  0  0
 35 44  2  0  0  0
 35 45  1  0  0  0
 35 68  1  0  0  0
 36 56  1  0  0  0
 36109  1  0  0  0
 37 39  1  0  0  0
 37 47  1  0  0  0
 37 66  1  0  0  0
 37110  1  0  0  0
 38 43  2  0  0  0
 38 46  1  0  0  0
 38 47  1  0  0  0
 39 64  1  0  0  0
 39 67  2  0  0  0
 40 52  1  0  0  0
 40 53  2  0  0  0
 40 58  1  0  0  0
 41111  1  0  0  0
 41112  1  0  0  0
 41113  1  0  0  0
 41 48  1  0  0  0
 42 43  1  0  0  0
 42 66  1  0  0  0
 42114  1  0  0  0
 42115  1  0  0  0
 43 44  1  0  0  0
 44116  1  0  0  0
 45 46  2  0  0  0
 45117  1  0  0  0
 46118  1  0  0  0
 47119  1  0  0  0
 47120  1  0  0  0
 48 56  1  0  0  0
 48 65  1  0  0  0
 48121  1  0  0  0
 49 50  1  0  0  0
 49 53  1  0  0  0
 49 64  1  0  0  0
 49122  1  0  0  0
 50 51  1  0  0  0
 50123  1  0  0  0
 50124  1  0  0  0
 51 52  1  0  0  0
 51125  1  0  0  0
 51126  1  0  0  0
 52127  1  0  0  0
 52128  1  0  0  0
 53 54  1  0  0  0
 54 55  2  0  0  0
 54129  1  0  0  0
 55 57  1  0  0  0
 55130  1  0  0  0
 56 69  2  0  0  0
 57 58  2  0  0  0
 57131  1  0  0  0
 58132  1  0  0  0
 59 60  1  0  0  0
 59 61  1  0  0  0
 59 62  1  0  0  0
 60133  1  0  0  0
 60134  1  0  0  0
 60135  1  0  0  0
 61136  1  0  0  0
 61137  1  0  0  0
 61138  1  0  0  0
 62139  1  0  0  0
 62140  1  0  0  0
 62141  1  0  0  0
 63 65  1  0  0  0
 63142  1  0  0  0
 63143  1  0  0  0
 63144  1  0  0  0
 64145  1  0  0  0
 65146  1  0  0  0
 68 83  1  0  0  0
 71 73  2  0  0  0
 71 75  1  0  0  0
 71147  1  0  0  0
 72 75  2  0  0  0
 72 76  1  0  0  0
 72148  1  0  0  0
 73 74  1  0  0  0
 73 77  1  0  0  0
 74 76  2  0  0  0
 74 78  1  0  0  0
 75 84  1  0  0  0
 76 87  1  0  0  0
 77 85  1  0  0  0
 77 86  2  0  0  0
 78 85  1  0  0  0
 78149  1  0  0  0
 78150  1  0  0  0
 79 80  1  0  0  0
 79 81  1  0  0  0
 79151  1  0  0  0
 79152  1  0  0  0
 80 82  1  0  0  0
 80153  1  0  0  0
 80154  1  0  0  0
 81 84  1  0  0  0
 81155  1  0  0  0
 81156  1  0  0  0
 82 83  1  0  0  0
 82 84  1  0  0  0
 82157  1  0  0  0
 83158  1  0  0  0
 83159  1  0  0  0
M  ISO  4   1 100  68 101  83 101  85 100
M  END
> <chiral flag>
0

> <version>
0

> <s_m_source_file>
/data/baiqing/PycharmProjects/Reinvent-master-3.2/result/LINK_invent/BTK/process_docking_weight1_custom_product_contain_oxygen_bond_distance_aromatic_linkinvent_7_9_3/rearranged_h_0026.sdf

> <i_m_source_file_index>
68

> <r_mmod_Potential_Energy-OPLS-2005>
470.41064453125

> <r_mmod_Stretch_Energy-OPLS-2005>
149.014434814453

> <r_mmod_Bend_Energy-OPLS-2005>
281.466003417969

> <r_mmod_Torsional_Energy-OPLS-2005>
382.746002197266

> <r_mmod_Improper_Torsional_Energy-OPLS-2005>
15.8358068466187

> <r_mmod_Van_der_Waal_Energy-OPLS-2005>
127.341857910156

> <r_mmod_Electrostatic_Energy-OPLS-2005>
-388.029022216797

> <r_mmod_Solvation_Energy-OPLS-2005>
-212.368392944336

> <b_mmod_Minimization_Converged-OPLS-2005>
0

> <r_mmod_RMS_Derivative-OPLS-2005>
1.65665197372437

$$$$
68
                    3D
 Structure written by MMmdl.
156165  0  0  1  0            999 V2000
  -30.4995  -14.9534   20.4151 C   0  0  0  0  0  0
  -30.4490  -12.5839   19.5062 C   0  0  0  0  0  0
  -29.5270  -12.5244   18.2628 C   0  0  0  0  0  0
  -28.0598  -12.3071   18.6811 C   0  0  0  0  0  0
  -27.6336  -13.2412   19.8432 C   0  0  2  0  0  0
  -28.6737  -13.2503   20.9849 C   0  0  0  0  0  0
  -25.2471  -13.8192   20.5705 C   0  0  0  0  0  0
  -24.1780  -13.0428   20.9222 C   0  0  0  0  0  0
  -24.6392  -11.6915   20.8764 C   0  0  0  0  0  0
  -23.9074  -10.4290   21.0413 C   0  0  0  0  0  0
  -24.3624   -9.4204   21.9190 C   0  0  0  0  0  0
  -23.6299   -8.2238   22.0759 C   0  0  0  0  0  0
  -22.4281   -8.0280   21.3551 C   0  0  0  0  0  0
  -21.9917   -9.0246   20.4645 C   0  0  0  0  0  0
  -22.7250  -10.2122   20.3056 C   0  0  0  0  0  0
  -21.6841   -6.0741   22.5289 C   0  0  0  0  0  0
  -21.3998   -6.5644   23.8221 C   0  0  0  0  0  0
  -21.3656   -5.6794   24.9182 C   0  0  0  0  0  0
  -21.6043   -4.3056   24.7226 C   0  0  0  0  0  0
  -21.8820   -3.8152   23.4345 C   0  0  0  0  0  0
  -21.9190   -4.6973   22.3404 C   0  0  0  0  0  0
  -22.7803  -13.5200   21.1879 C   0  0  0  0  0  0
  -22.1663   -4.2162   21.0981 F   0  0  0  0  0  0
  -21.5628   -3.4536   25.7732 F   0  0  0  0  0  0
  -29.9549  -13.6701   20.4002 N   0  0  0  0  0  0
  -26.2897  -12.9420   20.3259 N   0  0  0  0  0  0
  -25.9324  -11.6558   20.5753 N   0  0  0  0  0  0
  -22.0452  -12.8188   22.0436 N   0  0  0  0  0  0
  -25.4125  -15.1912   20.4133 N   0  0  0  0  0  0
  -31.6831  -15.0767   20.0797 O   0  0  0  0  0  0
  -21.6637   -6.8882   21.4252 O   0  0  0  0  0  0
  -22.3493  -14.5506   20.6728 O   0  0  0  0  0  0
  -24.6421  -31.8429   23.1869 C   0  0  0  0  0  0
  -25.9210  -32.4688   23.8252 C   0  0  1  0  0  0
  -27.2241  -27.1381   20.1517 C   0  0  0  0  0  0
  -25.5981  -33.8496   24.2196 N   0  0  0  0  0  0
  -23.4431  -30.4612   21.5325 C   0  0  2  0  0  0
  -24.8917  -28.8813   20.1092 C   0  0  0  0  0  0
  -22.7549  -29.4544   22.4877 C   0  0  0  0  0  0
  -18.0303  -28.1388   22.8482 C   0  0  0  0  0  0
  -24.1479  -36.7219   23.2638 C   0  0  0  0  0  0
  -25.9956  -30.7196   21.3785 C   0  0  0  0  0  0
  -26.0655  -29.3280   20.7257 C   0  0  0  0  0  0
  -27.2270  -28.4713   20.7294 C   0  0  0  0  0  0
  -26.0239  -26.7870   19.4993 C   0  0  0  0  0  0
  -24.8828  -27.6239   19.4835 C   0  0  0  0  0  0
  -23.6660  -29.7831   20.1526 C   0  0  0  0  0  0
  -25.4119  -36.3016   24.0320 C   0  0  1  0  0  0
  -20.5913  -28.3700   23.1250 C   0  0  2  0  0  0
  -20.6783  -26.9414   22.5399 C   0  0  0  0  0  0
  -19.5760  -26.6383   21.5207 C   0  0  0  0  0  0
  -18.1940  -26.7935   22.1610 C   0  0  0  0  0  0
  -19.1559  -28.8866   23.2857 C   0  0  0  0  0  0
  -18.9476  -30.1470   23.8868 C   0  0  0  0  0  0
  -17.6472  -30.6587   24.0566 C   0  0  0  0  0  0
  -25.9077  -34.9405   23.5063 C   0  0  0  0  0  0
  -16.5364  -29.9079   23.6347 C   0  0  0  0  0  0
  -16.7285  -28.6502   23.0358 C   0  0  0  0  0  0
  -26.4558  -31.6542   25.0674 C   0  0  0  0  0  0
  -25.3768  -31.3709   26.1382 C   0  0  0  0  0  0
  -27.0429  -30.2960   24.6187 C   0  0  0  0  0  0
  -27.6099  -32.4285   25.7456 C   0  0  0  0  0  0
  -27.5562  -37.1767   24.8475 C   0  0  0  0  0  0
  -21.4250  -29.3031   22.3627 N   0  0  0  0  0  0
  -26.4271  -37.3740   23.9420 N   0  0  0  0  0  0
  -24.7139  -31.0293   22.0891 N   0  0  0  0  0  0
  -23.4202  -28.8111   23.3031 O   0  0  0  0  0  0
  -28.3334  -26.2232   20.2461 O   0  0  0  0  0  0
  -26.5638  -34.8906   22.4623 O   0  0  0  0  0  0
  -23.5553  -32.1297   23.7121 O   0  0  0  0  0  0
  -30.3633  -18.4413   19.6529 C   0  0  0  0  0  0
  -28.4304  -19.8122   21.1020 C   0  0  0  0  0  0
  -30.1520  -19.8825   19.4943 C   0  0  0  0  0  0
  -29.1548  -20.6627   20.2037 C   0  0  0  0  0  0
  -29.6028  -17.5920   20.5255 C   0  0  0  0  0  0
  -28.6263  -18.3753   21.2415 C   0  0  0  0  0  0
  -27.7855  -23.9975   18.7237 C   0  0  0  0  0  0
  -28.4302  -22.5648   18.6178 C   0  0  0  0  0  0
  -28.6870  -23.3692   20.8192 C   0  0  0  0  0  0
  -28.5032  -24.7088   19.8818 C   0  0  2  0  0  0
  -31.0647  -20.5911   18.5074 C   0  0  0  0  0  0
  -28.8551  -22.1117   19.9536 N   0  0  0  0  0  0
  -29.6491  -16.0593   20.6805 N   0  0  0  0  0  0
  -27.5771  -17.5393   22.3314 Cl  0  0  0  0  0  0
  -31.4828  -12.7539   19.2015 H   0  0  0  0  0  0
  -30.4505  -11.6286   20.0335 H   0  0  0  0  0  0
  -29.8500  -11.7263   17.5928 H   0  0  0  0  0  0
  -29.6099  -13.4524   17.6945 H   0  0  0  0  0  0
  -27.9597  -11.2674   18.9956 H   0  0  0  0  0  0
  -27.3944  -12.4277   17.8255 H   0  0  0  0  0  0
  -27.6020  -14.2452   19.4185 H   0  0  0  0  0  0
  -28.7562  -12.2669   21.4483 H   0  0  0  0  0  0
  -28.3680  -13.9355   21.7770 H   0  0  0  0  0  0
  -25.2769   -9.5670   22.4764 H   0  0  0  0  0  0
  -24.0006   -7.4617   22.7471 H   0  0  0  0  0  0
  -21.0854   -8.8763   19.8933 H   0  0  0  0  0  0
  -22.3726  -10.9659   19.6153 H   0  0  0  0  0  0
  -21.1985   -7.6156   23.9731 H   0  0  0  0  0  0
  -21.1471   -6.0519   25.9084 H   0  0  0  0  0  0
  -22.0600   -2.7617   23.2836 H   0  0  0  0  0  0
  -22.4075  -11.9840   22.4801 H   0  0  0  0  0  0
  -21.1066  -13.1193   22.2635 H   0  0  0  0  0  0
  -24.6434  -15.8382   20.5422 H   0  0  0  0  0  0
  -26.2630  -15.6444   20.1087 H   0  0  0  0  0  0
  -26.7271  -32.5287   23.0978 H   0  0  0  0  0  0
  -25.0195  -33.9619   25.0392 H   0  0  0  0  0  0
  -22.7453  -31.2873   21.3781 H   0  0  0  0  0  0
  -23.3778  -35.9510   23.3261 H   0  0  0  0  0  0
  -24.3565  -36.8876   22.2057 H   0  0  0  0  0  0
  -23.7183  -37.6385   23.6694 H   0  0  0  0  0  0
  -26.1396  -31.4700   20.5998 H   0  0  0  0  0  0
  -26.8716  -30.7766   22.0135 H   0  0  0  0  0  0
  -28.1246  -28.8125   21.2260 H   0  0  0  0  0  0
  -25.9301  -25.8327   19.0140 H   0  0  0  0  0  0
  -23.9839  -27.2738   18.9945 H   0  0  0  0  0  0
  -23.7952  -30.5553   19.3930 H   0  0  0  0  0  0
  -22.7806  -29.2222   19.8461 H   0  0  0  0  0  0
  -25.1311  -36.1828   25.0811 H   0  0  0  0  0  0
  -21.0010  -28.3253   24.1368 H   0  0  0  0  0  0
  -20.5674  -26.2309   23.3606 H   0  0  0  0  0  0
  -21.6642  -26.7424   22.1183 H   0  0  0  0  0  0
  -19.6922  -25.6297   21.1222 H   0  0  0  0  0  0
  -19.6699  -27.3210   20.6755 H   0  0  0  0  0  0
  -17.4219  -26.6702   21.3998 H   0  0  0  0  0  0
  -18.0330  -26.0075   22.8997 H   0  0  0  0  0  0
  -19.7955  -30.7306   24.2194 H   0  0  0  0  0  0
  -17.5031  -31.6263   24.5174 H   0  0  0  0  0  0
  -15.5364  -30.2969   23.7711 H   0  0  0  0  0  0
  -15.8681  -28.0829   22.7072 H   0  0  0  0  0  0
  -24.5993  -30.6996   25.7714 H   0  0  0  0  0  0
  -24.8914  -32.2884   26.4721 H   0  0  0  0  0  0
  -25.8090  -30.8957   27.0200 H   0  0  0  0  0  0
  -26.3026  -29.6663   24.1241 H   0  0  0  0  0  0
  -27.4165  -29.7249   25.4692 H   0  0  0  0  0  0
  -27.8875  -30.4243   23.9415 H   0  0  0  0  0  0
  -27.2767  -33.3692   26.1856 H   0  0  0  0  0  0
  -28.4031  -32.6639   25.0346 H   0  0  0  0  0  0
  -28.0626  -31.8484   26.5512 H   0  0  0  0  0  0
  -28.2569  -38.0073   24.7538 H   0  0  0  0  0  0
  -28.1060  -36.2601   24.6288 H   0  0  0  0  0  0
  -27.2275  -37.1391   25.8875 H   0  0  0  0  0  0
  -20.9460  -29.8741   21.6810 H   0  0  0  0  0  0
  -26.0123  -38.2792   24.1454 H   0  0  0  0  0  0
  -31.1256  -17.9725   19.0473 H   0  0  0  0  0  0
  -27.6426  -20.2620   21.6876 H   0  0  0  0  0  0
  -26.7290  -23.8742   18.9608 H   0  0  0  0  0  0
  -27.8598  -24.5472   17.7846 H   0  0  0  0  0  0
  -29.3066  -22.6214   17.9723 H   0  0  0  0  0  0
  -27.7362  -21.8566   18.1618 H   0  0  0  0  0  0
  -27.8090  -23.2423   21.4554 H   0  0  0  0  0  0
  -29.5438  -23.4907   21.4828 H   0  0  0  0  0  0
  -29.5147  -24.8124   19.4843 H   0  0  0  0  0  0
  -32.0102  -20.0604   18.3947 H   0  0  0  0  0  0
  -31.3023  -21.6013   18.8427 H   0  0  0  0  0  0
  -30.5914  -20.6528   17.5272 H   0  0  0  0  0  0
  -28.7840  -15.7218   21.0749 H   0  0  0  0  0  0
  1 25  1  0  0  0
  1 30  2  0  0  0
  1 83  1  0  0  0
  2  3  1  0  0  0
  2 25  1  0  0  0
  2 85  1  0  0  0
  2 86  1  0  0  0
  3  4  1  0  0  0
  3 87  1  0  0  0
  3 88  1  0  0  0
  4  5  1  0  0  0
  4 89  1  0  0  0
  4 90  1  0  0  0
  5  6  1  0  0  0
  5 26  1  0  0  0
  5 91  1  0  0  0
  6 25  1  0  0  0
  6 92  1  0  0  0
  6 93  1  0  0  0
  7  8  2  0  0  0
  7 26  1  0  0  0
  7 29  1  0  0  0
  8  9  1  0  0  0
  8 22  1  0  0  0
  9 10  1  0  0  0
  9 27  2  0  0  0
 10 11  2  0  0  0
 10 15  1  0  0  0
 11 12  1  0  0  0
 11 94  1  0  0  0
 12 13  2  0  0  0
 12 95  1  0  0  0
 13 14  1  0  0  0
 13 31  1  0  0  0
 14 15  2  0  0  0
 14 96  1  0  0  0
 15 97  1  0  0  0
 16 17  2  0  0  0
 16 21  1  0  0  0
 16 31  1  0  0  0
 17 18  1  0  0  0
 17 98  1  0  0  0
 18 19  2  0  0  0
 18 99  1  0  0  0
 19 20  1  0  0  0
 19 24  1  0  0  0
 20 21  2  0  0  0
 20100  1  0  0  0
 21 23  1  0  0  0
 22 28  1  0  0  0
 22 32  2  0  0  0
 26 27  1  0  0  0
 28101  1  0  0  0
 28102  1  0  0  0
 29103  1  0  0  0
 29104  1  0  0  0
 33 34  1  0  0  0
 33 66  1  0  0  0
 33 70  2  0  0  0
 34 36  1  0  0  0
 34 59  1  0  0  0
 34105  1  0  0  0
 35 44  2  0  0  0
 35 45  1  0  0  0
 35 68  1  0  0  0
 36 56  1  0  0  0
 36106  1  0  0  0
 37 39  1  0  0  0
 37 47  1  0  0  0
 37 66  1  0  0  0
 37107  1  0  0  0
 38 43  2  0  0  0
 38 46  1  0  0  0
 38 47  1  0  0  0
 39 64  1  0  0  0
 39 67  2  0  0  0
 40 52  1  0  0  0
 40 53  2  0  0  0
 40 58  1  0  0  0
 41108  1  0  0  0
 41109  1  0  0  0
 41110  1  0  0  0
 41 48  1  0  0  0
 42 43  1  0  0  0
 42 66  1  0  0  0
 42111  1  0  0  0
 42112  1  0  0  0
 43 44  1  0  0  0
 44113  1  0  0  0
 45 46  2  0  0  0
 45114  1  0  0  0
 46115  1  0  0  0
 47116  1  0  0  0
 47117  1  0  0  0
 48 56  1  0  0  0
 48 65  1  0  0  0
 48118  1  0  0  0
 49 50  1  0  0  0
 49 53  1  0  0  0
 49 64  1  0  0  0
 49119  1  0  0  0
 50 51  1  0  0  0
 50120  1  0  0  0
 50121  1  0  0  0
 51 52  1  0  0  0
 51122  1  0  0  0
 51123  1  0  0  0
 52124  1  0  0  0
 52125  1  0  0  0
 53 54  1  0  0  0
 54 55  2  0  0  0
 54126  1  0  0  0
 55 57  1  0  0  0
 55127  1  0  0  0
 56 69  2  0  0  0
 57 58  2  0  0  0
 57128  1  0  0  0
 58129  1  0  0  0
 59 60  1  0  0  0
 59 61  1  0  0  0
 59 62  1  0  0  0
 60130  1  0  0  0
 60131  1  0  0  0
 60132  1  0  0  0
 61133  1  0  0  0
 61134  1  0  0  0
 61135  1  0  0  0
 62136  1  0  0  0
 62137  1  0  0  0
 62138  1  0  0  0
 63 65  1  0  0  0
 63139  1  0  0  0
 63140  1  0  0  0
 63141  1  0  0  0
 64142  1  0  0  0
 65143  1  0  0  0
 68 80  1  0  0  0
 71 73  2  0  0  0
 71 75  1  0  0  0
 71144  1  0  0  0
 72 74  2  0  0  0
 72 76  1  0  0  0
 72145  1  0  0  0
 73 74  1  0  0  0
 73 81  1  0  0  0
 74 82  1  0  0  0
 75 76  2  0  0  0
 75 83  1  0  0  0
 76 84  1  0  0  0
 77 78  1  0  0  0
 77 80  1  0  0  0
 77146  1  0  0  0
 77147  1  0  0  0
 78 82  1  0  0  0
 78148  1  0  0  0
 78149  1  0  0  0
 79 80  1  0  0  0
 79 82  1  0  0  0
 79150  1  0  0  0
 79151  1  0  0  0
 80152  1  0  0  0
 81153  1  0  0  0
 81154  1  0  0  0
 81155  1  0  0  0
 83156  1  0  0  0
M  ISO  4   1 100  68 101  80 101  83 100
M  END
> <chiral flag>
0

> <version>
0

> <s_m_source_file>
/data/baiqing/PycharmProjects/Reinvent-master-3.2/result/LINK_invent/BTK/process_docking_weight1_custom_product_contain_oxygen_bond_distance_aromatic_linkinvent_7_9_3/rearranged_h_0026.sdf

> <i_m_source_file_index>
69

> <r_mmod_Potential_Energy-OPLS-2005>
545.845947265625

> <r_mmod_Stretch_Energy-OPLS-2005>
219.51611328125

> <r_mmod_Bend_Energy-OPLS-2005>
371.569000244141

> <r_mmod_Torsional_Energy-OPLS-2005>
273.996551513672

> <r_mmod_Improper_Torsional_Energy-OPLS-2005>
3.7221052646637

> <r_mmod_Van_der_Waal_Energy-OPLS-2005>
124.162559509277

> <r_mmod_Electrostatic_Energy-OPLS-2005>
-420.491821289062

> <r_mmod_Solvation_Energy-OPLS-2005>
-214.849502563477

> <b_mmod_Minimization_Converged-OPLS-2005>
0

> <r_mmod_RMS_Derivative-OPLS-2005>
1.98433840274811

$$$$
69
                    3D
 Structure written by MMmdl.
153162  0  0  1  0            999 V2000
  -30.6415  -14.7126   20.4721 C   0  0  0  0  0  0
  -30.4251  -12.4404   19.4650 C   0  0  0  0  0  0
  -29.5031  -12.5001   18.2290 C   0  0  0  0  0  0
  -28.0300  -12.3295   18.6466 C   0  0  0  0  0  0
  -27.6397  -13.2319   19.8480 C   0  0  2  0  0  0
  -28.6856  -13.1677   20.9816 C   0  0  0  0  0  0
  -25.2503  -13.8200   20.5699 C   0  0  0  0  0  0
  -24.1797  -13.0442   20.9211 C   0  0  0  0  0  0
  -24.6390  -11.6921   20.8753 C   0  0  0  0  0  0
  -23.9069  -10.4296   21.0411 C   0  0  0  0  0  0
  -24.3620   -9.4209   21.9187 C   0  0  0  0  0  0
  -23.6296   -8.2244   22.0754 C   0  0  0  0  0  0
  -22.4278   -8.0282   21.3544 C   0  0  0  0  0  0
  -21.9914   -9.0256   20.4646 C   0  0  0  0  0  0
  -22.7242  -10.2136   20.3058 C   0  0  0  0  0  0
  -21.6854   -6.0738   22.5280 C   0  0  0  0  0  0
  -21.4015   -6.5641   23.8213 C   0  0  0  0  0  0
  -21.3658   -5.6793   24.9174 C   0  0  0  0  0  0
  -21.6044   -4.3057   24.7225 C   0  0  0  0  0  0
  -21.8818   -3.8149   23.4345 C   0  0  0  0  0  0
  -21.9193   -4.6965   22.3403 C   0  0  0  0  0  0
  -22.7818  -13.5223   21.1871 C   0  0  0  0  0  0
  -22.1662   -4.2152   21.0980 F   0  0  0  0  0  0
  -21.5628   -3.4540   25.7737 F   0  0  0  0  0  0
  -29.9858  -13.5069   20.3926 N   0  0  0  0  0  0
  -26.2928  -12.9409   20.3281 N   0  0  0  0  0  0
  -25.9319  -11.6550   20.5758 N   0  0  0  0  0  0
  -22.0467  -12.8209   22.0426 N   0  0  0  0  0  0
  -25.4187  -15.1924   20.4113 N   0  0  0  0  0  0
  -31.8354  -14.7784   20.1702 O   0  0  0  0  0  0
  -21.6641   -6.8880   21.4241 O   0  0  0  0  0  0
  -22.3500  -14.5528   20.6719 O   0  0  0  0  0  0
  -24.6305  -31.8563   23.1989 C   0  0  0  0  0  0
  -25.9137  -32.4758   23.8331 C   0  0  1  0  0  0
  -27.2187  -27.2745   20.1190 C   0  0  0  0  0  0
  -25.5936  -33.8560   24.2256 N   0  0  0  0  0  0
  -23.4252  -30.4803   21.5429 C   0  0  2  0  0  0
  -24.8696  -28.9281   20.1112 C   0  0  0  0  0  0
  -22.7495  -29.4611   22.4918 C   0  0  0  0  0  0
  -18.0291  -28.1387   22.8485 C   0  0  0  0  0  0
  -24.1489  -36.7283   23.2640 C   0  0  0  0  0  0
  -25.9705  -30.7734   21.3755 C   0  0  0  0  0  0
  -26.0417  -29.3971   20.7167 C   0  0  0  0  0  0
  -27.2176  -28.5826   20.7092 C   0  0  0  0  0  0
  -26.0156  -26.8637   19.5002 C   0  0  0  0  0  0
  -24.8609  -27.6687   19.4946 C   0  0  0  0  0  0
  -23.6412  -29.8151   20.1586 C   0  0  0  0  0  0
  -25.4116  -36.3071   24.0326 C   0  0  1  0  0  0
  -20.5894  -28.3696   23.1272 C   0  0  2  0  0  0
  -20.6779  -26.9416   22.5407 C   0  0  0  0  0  0
  -19.5754  -26.6384   21.5212 C   0  0  0  0  0  0
  -18.1934  -26.7928   22.1624 C   0  0  0  0  0  0
  -19.1544  -28.8858   23.2873 C   0  0  0  0  0  0
  -18.9466  -30.1460   23.8892 C   0  0  0  0  0  0
  -17.6465  -30.6588   24.0565 C   0  0  0  0  0  0
  -25.9058  -34.9442   23.5093 C   0  0  0  0  0  0
  -16.5357  -29.9087   23.6332 C   0  0  0  0  0  0
  -16.7278  -28.6505   23.0353 C   0  0  0  0  0  0
  -26.4503  -31.6580   25.0719 C   0  0  0  0  0  0
  -25.3725  -31.3731   26.1438 C   0  0  0  0  0  0
  -27.0352  -30.2999   24.6199 C   0  0  0  0  0  0
  -27.6055  -32.4324   25.7494 C   0  0  0  0  0  0
  -27.5578  -37.1798   24.8466 C   0  0  0  0  0  0
  -21.4204  -29.3046   22.3664 N   0  0  0  0  0  0
  -26.4289  -37.3771   23.9410 N   0  0  0  0  0  0
  -24.6947  -31.0543   22.0956 N   0  0  0  0  0  0
  -23.4201  -28.8152   23.3013 O   0  0  0  0  0  0
  -28.3353  -26.4110   20.1697 O   0  0  0  0  0  0
  -26.5631  -34.8918   22.4662 O   0  0  0  0  0  0
  -23.5460  -32.1377   23.7296 O   0  0  0  0  0  0
  -30.5365  -19.5788   19.7037 C   0  0  0  0  0  0
  -30.1289  -20.9378   19.5236 C   0  0  0  0  0  0
  -29.8552  -18.6668   20.5535 C   0  0  0  0  0  0
  -29.0034  -21.5403   20.1563 C   0  0  0  0  0  0
  -28.7189  -19.2331   21.1984 C   0  0  0  0  0  0
  -28.3130  -20.6036   20.9984 C   0  0  0  0  0  0
  -27.6845  -23.8155   20.5912 C   0  0  0  0  0  0
  -29.5147  -24.0744   19.6529 C   0  0  0  0  0  0
  -28.2408  -24.9901   19.6998 C   0  0  0  0  0  0
  -30.5184  -17.2589   20.9106 C   0  0  0  0  0  0
  -28.5969  -22.9342   19.8359 N   0  0  0  0  0  0
  -29.9219  -15.8727   20.7060 N   0  0  0  0  0  0
  -28.0143  -18.4634   22.0627 F   0  0  0  0  0  0
  -27.2061  -21.0325   21.6523 F   0  0  0  0  0  0
  -31.4665  -12.5548   19.1596 H   0  0  0  0  0  0
  -30.3617  -11.4649   19.9497 H   0  0  0  0  0  0
  -29.7806  -11.7261   17.5121 H   0  0  0  0  0  0
  -29.6326  -13.4545   17.7162 H   0  0  0  0  0  0
  -27.8855  -11.2813   18.9113 H   0  0  0  0  0  0
  -27.3710  -12.5213   17.7991 H   0  0  0  0  0  0
  -27.6343  -14.2531   19.4663 H   0  0  0  0  0  0
  -28.7164  -12.1731   21.4288 H   0  0  0  0  0  0
  -28.4266  -13.8583   21.7857 H   0  0  0  0  0  0
  -25.2764   -9.5686   22.4763 H   0  0  0  0  0  0
  -24.0006   -7.4635   22.7473 H   0  0  0  0  0  0
  -21.0847   -8.8774   19.8950 H   0  0  0  0  0  0
  -22.3701  -10.9676   19.6168 H   0  0  0  0  0  0
  -21.2007   -7.6149   23.9717 H   0  0  0  0  0  0
  -21.1481   -6.0524   25.9078 H   0  0  0  0  0  0
  -22.0598   -2.7611   23.2845 H   0  0  0  0  0  0
  -22.4090  -11.9871   22.4810 H   0  0  0  0  0  0
  -21.1084  -13.1228   22.2635 H   0  0  0  0  0  0
  -24.6507  -15.8448   20.5256 H   0  0  0  0  0  0
  -26.2651  -15.6349   20.0774 H   0  0  0  0  0  0
  -26.7204  -32.5408   23.1072 H   0  0  0  0  0  0
  -25.0084  -33.9696   25.0402 H   0  0  0  0  0  0
  -22.7213  -31.3025   21.3986 H   0  0  0  0  0  0
  -23.3754  -35.9614   23.3301 H   0  0  0  0  0  0
  -24.3579  -36.8905   22.2054 H   0  0  0  0  0  0
  -23.7239  -37.6482   23.6666 H   0  0  0  0  0  0
  -26.1085  -31.5352   20.6069 H   0  0  0  0  0  0
  -26.8487  -30.8205   22.0079 H   0  0  0  0  0  0
  -28.1170  -28.9396   21.1910 H   0  0  0  0  0  0
  -25.9228  -25.8975   19.0300 H   0  0  0  0  0  0
  -23.9600  -27.3004   19.0233 H   0  0  0  0  0  0
  -23.7663  -30.5920   19.4034 H   0  0  0  0  0  0
  -22.7588  -29.2498   19.8532 H   0  0  0  0  0  0
  -25.1297  -36.1917   25.0818 H   0  0  0  0  0  0
  -20.9988  -28.3275   24.1392 H   0  0  0  0  0  0
  -20.5683  -26.2309   23.3611 H   0  0  0  0  0  0
  -21.6648  -26.7443   22.1199 H   0  0  0  0  0  0
  -19.6918  -25.6295   21.1243 H   0  0  0  0  0  0
  -19.6690  -27.3196   20.6743 H   0  0  0  0  0  0
  -17.4204  -26.6678   21.4027 H   0  0  0  0  0  0
  -18.0334  -26.0070   22.9019 H   0  0  0  0  0  0
  -19.7944  -30.7278   24.2257 H   0  0  0  0  0  0
  -17.5021  -31.6267   24.5170 H   0  0  0  0  0  0
  -15.5358  -30.2990   23.7657 H   0  0  0  0  0  0
  -15.8676  -28.0824   22.7070 H   0  0  0  0  0  0
  -24.5912  -30.7064   25.7768 H   0  0  0  0  0  0
  -24.8903  -32.2901   26.4836 H   0  0  0  0  0  0
  -25.8041  -30.8932   27.0230 H   0  0  0  0  0  0
  -26.2937  -29.6743   24.1218 H   0  0  0  0  0  0
  -27.4035  -29.7263   25.4715 H   0  0  0  0  0  0
  -27.8812  -30.4276   23.9441 H   0  0  0  0  0  0
  -27.2661  -33.3632   26.2050 H   0  0  0  0  0  0
  -28.3878  -32.6869   25.0331 H   0  0  0  0  0  0
  -28.0710  -31.8462   26.5427 H   0  0  0  0  0  0
  -28.2594  -38.0096   24.7514 H   0  0  0  0  0  0
  -28.1075  -36.2627   24.6291 H   0  0  0  0  0  0
  -27.2298  -37.1444   25.8869 H   0  0  0  0  0  0
  -20.9388  -29.8769   21.6869 H   0  0  0  0  0  0
  -26.0167  -38.2845   24.1412 H   0  0  0  0  0  0
  -31.4312  -19.2487   19.1941 H   0  0  0  0  0  0
  -30.7169  -21.5443   18.8494 H   0  0  0  0  0  0
  -26.6250  -23.6027   20.4428 H   0  0  0  0  0  0
  -27.9458  -23.8980   21.6481 H   0  0  0  0  0  0
  -30.1942  -24.2155   20.4958 H   0  0  0  0  0  0
  -30.0377  -24.0852   18.6958 H   0  0  0  0  0  0
  -27.8023  -24.9744   18.6997 H   0  0  0  0  0  0
  -30.7495  -17.3151   21.9750 H   0  0  0  0  0  0
  -31.4976  -17.2649   20.4298 H   0  0  0  0  0  0
  -28.9321  -15.7717   20.8700 H   0  0  0  0  0  0
  1 25  1  0  0  0
  1 30  2  0  0  0
  1 82  1  0  0  0
  2  3  1  0  0  0
  2 25  1  0  0  0
  2 85  1  0  0  0
  2 86  1  0  0  0
  3  4  1  0  0  0
  3 87  1  0  0  0
  3 88  1  0  0  0
  4  5  1  0  0  0
  4 89  1  0  0  0
  4 90  1  0  0  0
  5  6  1  0  0  0
  5 26  1  0  0  0
  5 91  1  0  0  0
  6 25  1  0  0  0
  6 92  1  0  0  0
  6 93  1  0  0  0
  7  8  2  0  0  0
  7 26  1  0  0  0
  7 29  1  0  0  0
  8  9  1  0  0  0
  8 22  1  0  0  0
  9 10  1  0  0  0
  9 27  2  0  0  0
 10 11  2  0  0  0
 10 15  1  0  0  0
 11 12  1  0  0  0
 11 94  1  0  0  0
 12 13  2  0  0  0
 12 95  1  0  0  0
 13 14  1  0  0  0
 13 31  1  0  0  0
 14 15  2  0  0  0
 14 96  1  0  0  0
 15 97  1  0  0  0
 16 17  2  0  0  0
 16 21  1  0  0  0
 16 31  1  0  0  0
 17 18  1  0  0  0
 17 98  1  0  0  0
 18 19  2  0  0  0
 18 99  1  0  0  0
 19 20  1  0  0  0
 19 24  1  0  0  0
 20 21  2  0  0  0
 20100  1  0  0  0
 21 23  1  0  0  0
 22 28  1  0  0  0
 22 32  2  0  0  0
 26 27  1  0  0  0
 28101  1  0  0  0
 28102  1  0  0  0
 29103  1  0  0  0
 29104  1  0  0  0
 33 34  1  0  0  0
 33 66  1  0  0  0
 33 70  2  0  0  0
 34 36  1  0  0  0
 34 59  1  0  0  0
 34105  1  0  0  0
 35 44  2  0  0  0
 35 45  1  0  0  0
 35 68  1  0  0  0
 36 56  1  0  0  0
 36106  1  0  0  0
 37 39  1  0  0  0
 37 47  1  0  0  0
 37 66  1  0  0  0
 37107  1  0  0  0
 38 43  2  0  0  0
 38 46  1  0  0  0
 38 47  1  0  0  0
 39 64  1  0  0  0
 39 67  2  0  0  0
 40 52  1  0  0  0
 40 53  2  0  0  0
 40 58  1  0  0  0
 41108  1  0  0  0
 41109  1  0  0  0
 41110  1  0  0  0
 41 48  1  0  0  0
 42 43  1  0  0  0
 42 66  1  0  0  0
 42111  1  0  0  0
 42112  1  0  0  0
 43 44  1  0  0  0
 44113  1  0  0  0
 45 46  2  0  0  0
 45114  1  0  0  0
 46115  1  0  0  0
 47116  1  0  0  0
 47117  1  0  0  0
 48 56  1  0  0  0
 48 65  1  0  0  0
 48118  1  0  0  0
 49 50  1  0  0  0
 49 53  1  0  0  0
 49 64  1  0  0  0
 49119  1  0  0  0
 50 51  1  0  0  0
 50120  1  0  0  0
 50121  1  0  0  0
 51 52  1  0  0  0
 51122  1  0  0  0
 51123  1  0  0  0
 52124  1  0  0  0
 52125  1  0  0  0
 53 54  1  0  0  0
 54 55  2  0  0  0
 54126  1  0  0  0
 55 57  1  0  0  0
 55127  1  0  0  0
 56 69  2  0  0  0
 57 58  2  0  0  0
 57128  1  0  0  0
 58129  1  0  0  0
 59 60  1  0  0  0
 59 61  1  0  0  0
 59 62  1  0  0  0
 60130  1  0  0  0
 60131  1  0  0  0
 60132  1  0  0  0
 61133  1  0  0  0
 61134  1  0  0  0
 61135  1  0  0  0
 62136  1  0  0  0
 62137  1  0  0  0
 62138  1  0  0  0
 63 65  1  0  0  0
 63139  1  0  0  0
 63140  1  0  0  0
 63141  1  0  0  0
 64142  1  0  0  0
 65143  1  0  0  0
 68 79  1  0  0  0
 71 72  2  0  0  0
 71 73  1  0  0  0
 71144  1  0  0  0
 72 74  1  0  0  0
 72145  1  0  0  0
 73 75  2  0  0  0
 73 80  1  0  0  0
 74 76  2  0  0  0
 74 81  1  0  0  0
 75 76  1  0  0  0
 75 83  1  0  0  0
 76 84  1  0  0  0
 77 79  1  0  0  0
 77 81  1  0  0  0
 77146  1  0  0  0
 77147  1  0  0  0
 78 79  1  0  0  0
 78 81  1  0  0  0
 78148  1  0  0  0
 78149  1  0  0  0
 79150  1  0  0  0
 80 82  1  0  0  0
 80151  1  0  0  0
 80152  1  0  0  0
 82153  1  0  0  0
M  ISO  4   1 100  68 101  79 101  82 100
M  END
> <chiral flag>
0

> <version>
0

> <s_m_source_file>
/data/baiqing/PycharmProjects/Reinvent-master-3.2/result/LINK_invent/BTK/process_docking_weight1_custom_product_contain_oxygen_bond_distance_aromatic_linkinvent_7_9_3/rearranged_h_0026.sdf

> <i_m_source_file_index>
70

> <r_mmod_Potential_Energy-OPLS-2005>
226.087768554688

> <r_mmod_Stretch_Energy-OPLS-2005>
102.442970275879

> <r_mmod_Bend_Energy-OPLS-2005>
236.168899536133

> <r_mmod_Torsional_Energy-OPLS-2005>
221.638641357422

> <r_mmod_Improper_Torsional_Energy-OPLS-2005>
11.7141971588135

> <r_mmod_Van_der_Waal_Energy-OPLS-2005>
143.469100952148

> <r_mmod_Electrostatic_Energy-OPLS-2005>
-344.43896484375

> <r_mmod_Solvation_Energy-OPLS-2005>
-219.105895996094

> <b_mmod_Minimization_Converged-OPLS-2005>
0

> <r_mmod_RMS_Derivative-OPLS-2005>
0.285893172025681

$$$$
70
                    3D
 Structure written by MMmdl.
159168  0  0  1  0            999 V2000
  -30.5188  -14.9086   20.4364 C   0  0  0  0  0  0
  -30.4510  -12.5598   19.4891 C   0  0  0  0  0  0
  -29.5250  -12.5331   18.2503 C   0  0  0  0  0  0
  -28.0548  -12.3242   18.6641 C   0  0  0  0  0  0
  -27.6384  -13.2376   19.8460 C   0  0  2  0  0  0
  -28.6824  -13.2158   20.9826 C   0  0  0  0  0  0
  -25.2510  -13.8195   20.5713 C   0  0  0  0  0  0
  -24.1807  -13.0435   20.9221 C   0  0  0  0  0  0
  -24.6401  -11.6913   20.8739 C   0  0  0  0  0  0
  -23.9077  -10.4290   21.0398 C   0  0  0  0  0  0
  -24.3627   -9.4209   21.9176 C   0  0  0  0  0  0
  -23.6305   -8.2243   22.0748 C   0  0  0  0  0  0
  -22.4286   -8.0279   21.3542 C   0  0  0  0  0  0
  -21.9923   -9.0250   20.4639 C   0  0  0  0  0  0
  -22.7247  -10.2132   20.3049 C   0  0  0  0  0  0
  -21.6858   -6.0737   22.5281 C   0  0  0  0  0  0
  -21.4016   -6.5638   23.8213 C   0  0  0  0  0  0
  -21.3661   -5.6790   24.9173 C   0  0  0  0  0  0
  -21.6047   -4.3053   24.7225 C   0  0  0  0  0  0
  -21.8816   -3.8147   23.4348 C   0  0  0  0  0  0
  -21.9197   -4.6964   22.3402 C   0  0  0  0  0  0
  -22.7826  -13.5214   21.1878 C   0  0  0  0  0  0
  -22.1661   -4.2150   21.0980 F   0  0  0  0  0  0
  -21.5631   -3.4536   25.7736 F   0  0  0  0  0  0
  -29.9667  -13.6317   20.4005 N   0  0  0  0  0  0
  -26.2927  -12.9405   20.3258 N   0  0  0  0  0  0
  -25.9334  -11.6546   20.5727 N   0  0  0  0  0  0
  -22.0468  -12.8199   22.0427 N   0  0  0  0  0  0
  -25.4194  -15.1926   20.4143 N   0  0  0  0  0  0
  -31.7078  -15.0313   20.1253 O   0  0  0  0  0  0
  -21.6647   -6.8881   21.4240 O   0  0  0  0  0  0
  -22.3505  -14.5506   20.6708 O   0  0  0  0  0  0
  -24.6408  -31.8465   23.1899 C   0  0  0  0  0  0
  -25.9186  -32.4712   23.8283 C   0  0  1  0  0  0
  -27.2235  -27.1610   20.1554 C   0  0  0  0  0  0
  -25.5948  -33.8518   24.2211 N   0  0  0  0  0  0
  -23.4442  -30.4642   21.5353 C   0  0  2  0  0  0
  -24.8953  -28.8921   20.1158 C   0  0  0  0  0  0
  -22.7558  -29.4551   22.4878 C   0  0  0  0  0  0
  -18.0301  -28.1400   22.8474 C   0  0  0  0  0  0
  -24.1489  -36.7258   23.2641 C   0  0  0  0  0  0
  -25.9973  -30.7296   21.3838 C   0  0  0  0  0  0
  -26.0714  -29.3404   20.7310 C   0  0  0  0  0  0
  -27.2386  -28.4915   20.7317 C   0  0  0  0  0  0
  -26.0243  -26.8093   19.4991 C   0  0  0  0  0  0
  -24.8829  -27.6392   19.4845 C   0  0  0  0  0  0
  -23.6702  -29.7909   20.1556 C   0  0  0  0  0  0
  -25.4124  -36.3047   24.0318 C   0  0  1  0  0  0
  -20.5911  -28.3717   23.1246 C   0  0  2  0  0  0
  -20.6789  -26.9425   22.5404 C   0  0  0  0  0  0
  -19.5764  -26.6384   21.5213 C   0  0  0  0  0  0
  -18.1946  -26.7938   22.1621 C   0  0  0  0  0  0
  -19.1558  -28.8876   23.2851 C   0  0  0  0  0  0
  -18.9473  -30.1473   23.8876 C   0  0  0  0  0  0
  -17.6469  -30.6594   24.0559 C   0  0  0  0  0  0
  -25.9068  -34.9418   23.5073 C   0  0  0  0  0  0
  -16.5361  -29.9088   23.6336 C   0  0  0  0  0  0
  -16.7285  -28.6509   23.0350 C   0  0  0  0  0  0
  -26.4524  -31.6560   25.0704 C   0  0  0  0  0  0
  -25.3713  -31.3725   26.1393 C   0  0  0  0  0  0
  -27.0387  -30.2965   24.6250 C   0  0  0  0  0  0
  -27.6067  -32.4308   25.7493 C   0  0  0  0  0  0
  -27.5578  -37.1789   24.8467 C   0  0  0  0  0  0
  -21.4252  -29.3047   22.3624 N   0  0  0  0  0  0
  -26.4291  -37.3756   23.9409 N   0  0  0  0  0  0
  -24.7139  -31.0338   22.0925 N   0  0  0  0  0  0
  -23.4209  -28.8099   23.3024 O   0  0  0  0  0  0
  -28.2939  -26.2023   20.1757 O   0  0  0  0  0  0
  -26.5648  -34.8910   22.4649 O   0  0  0  0  0  0
  -23.5531  -32.1328   23.7127 O   0  0  0  0  0  0
  -28.5561  -18.1822   21.3768 C   0  0  0  0  0  0
  -30.1076  -19.9431   19.9290 C   0  0  0  0  0  0
  -28.3048  -19.6066   21.4176 C   0  0  0  0  0  0
  -29.0721  -20.5880   20.6973 C   0  0  0  0  0  0
  -29.5952  -17.5289   20.6410 C   0  0  0  0  0  0
  -30.3627  -18.4993   19.8930 C   0  0  0  0  0  0
  -30.7659  -23.2251   21.7382 C   0  0  0  0  0  0
  -30.4489  -23.7072   20.3176 C   0  0  0  0  0  0
  -29.5469  -22.3961   22.1658 C   0  0  0  0  0  0
  -28.9728  -23.3602   20.1208 C   0  0  2  0  0  0
  -27.1607  -20.0787   22.3030 C   0  0  0  0  0  0
  -28.0506  -24.7131   20.5345 C   0  0  0  0  0  0
  -28.8397  -22.0446   20.9361 N   0  0  0  0  0  0
  -29.6508  -15.9958   20.6900 N   0  0  0  0  0  0
  -31.6424  -17.9548   18.8703 Cl  0  0  0  0  0  0
  -31.4830  -12.7303   19.1783 H   0  0  0  0  0  0
  -30.4472  -11.5933   19.9957 H   0  0  0  0  0  0
  -29.8359  -11.7464   17.5621 H   0  0  0  0  0  0
  -29.6203  -13.4718   17.7016 H   0  0  0  0  0  0
  -27.9399  -11.2774   18.9494 H   0  0  0  0  0  0
  -27.3947  -12.4814   17.8104 H   0  0  0  0  0  0
  -27.6157  -14.2498   19.4419 H   0  0  0  0  0  0
  -28.7595  -12.2198   21.4212 H   0  0  0  0  0  0
  -28.3851  -13.8827   21.7929 H   0  0  0  0  0  0
  -25.2772   -9.5688   22.4748 H   0  0  0  0  0  0
  -24.0016   -7.4634   22.7464 H   0  0  0  0  0  0
  -21.0855   -8.8761   19.8949 H   0  0  0  0  0  0
  -22.3697  -10.9666   19.6154 H   0  0  0  0  0  0
  -21.2004   -7.6145   23.9718 H   0  0  0  0  0  0
  -21.1487   -6.0518   25.9075 H   0  0  0  0  0  0
  -22.0600   -2.7610   23.2845 H   0  0  0  0  0  0
  -22.4100  -11.9882   22.4845 H   0  0  0  0  0  0
  -21.1068  -13.1194   22.2598 H   0  0  0  0  0  0
  -24.6473  -15.8407   20.5261 H   0  0  0  0  0  0
  -26.2518  -15.6339   20.0464 H   0  0  0  0  0  0
  -26.7254  -32.5339   23.1017 H   0  0  0  0  0  0
  -25.0083  -33.9640   25.0350 H   0  0  0  0  0  0
  -22.7457  -31.2890   21.3799 H   0  0  0  0  0  0
  -23.3762  -35.9576   23.3294 H   0  0  0  0  0  0
  -24.3572  -36.8897   22.2055 H   0  0  0  0  0  0
  -23.7228  -37.6448   23.6677 H   0  0  0  0  0  0
  -26.1430  -31.4833   20.6086 H   0  0  0  0  0  0
  -26.8711  -30.7859   22.0209 H   0  0  0  0  0  0
  -28.1388  -28.8326   21.2237 H   0  0  0  0  0  0
  -25.9519  -25.8577   18.9937 H   0  0  0  0  0  0
  -23.9876  -27.2945   18.9856 H   0  0  0  0  0  0
  -23.8041  -30.5630   19.3969 H   0  0  0  0  0  0
  -22.7867  -29.2286   19.8471 H   0  0  0  0  0  0
  -25.1311  -36.1887   25.0810 H   0  0  0  0  0  0
  -20.9999  -28.3306   24.1368 H   0  0  0  0  0  0
  -20.5696  -26.2330   23.3619 H   0  0  0  0  0  0
  -21.6657  -26.7445   22.1199 H   0  0  0  0  0  0
  -19.6930  -25.6291   21.1259 H   0  0  0  0  0  0
  -19.6708  -27.3180   20.6734 H   0  0  0  0  0  0
  -17.4217  -26.6673   21.4025 H   0  0  0  0  0  0
  -18.0349  -26.0089   22.9029 H   0  0  0  0  0  0
  -19.7946  -30.7296   24.2243 H   0  0  0  0  0  0
  -17.5019  -31.6273   24.5161 H   0  0  0  0  0  0
  -15.5360  -30.2981   23.7672 H   0  0  0  0  0  0
  -15.8685  -28.0821   22.7077 H   0  0  0  0  0  0
  -24.5909  -30.7062   25.7698 H   0  0  0  0  0  0
  -24.8873  -32.2892   26.4772 H   0  0  0  0  0  0
  -25.7989  -30.8925   27.0203 H   0  0  0  0  0  0
  -26.2994  -29.6693   24.1253 H   0  0  0  0  0  0
  -27.4020  -29.7258   25.4808 H   0  0  0  0  0  0
  -27.8893  -30.4223   23.9547 H   0  0  0  0  0  0
  -27.2684  -33.3628   26.2032 H   0  0  0  0  0  0
  -28.3904  -32.6832   25.0336 H   0  0  0  0  0  0
  -28.0704  -31.8448   26.5440 H   0  0  0  0  0  0
  -28.2595  -38.0088   24.7519 H   0  0  0  0  0  0
  -28.1079  -36.2618   24.6294 H   0  0  0  0  0  0
  -27.2290  -37.1435   25.8868 H   0  0  0  0  0  0
  -20.9465  -29.8749   21.6788 H   0  0  0  0  0  0
  -26.0164  -38.2826   24.1414 H   0  0  0  0  0  0
  -27.9029  -17.5506   21.9615 H   0  0  0  0  0  0
  -30.7658  -20.5757   19.3529 H   0  0  0  0  0  0
  -30.9304  -24.0559   22.4255 H   0  0  0  0  0  0
  -31.6713  -22.6163   21.7378 H   0  0  0  0  0  0
  -31.0551  -23.1531   19.5996 H   0  0  0  0  0  0
  -30.6606  -24.7670   20.1697 H   0  0  0  0  0  0
  -28.8853  -22.9863   22.8017 H   0  0  0  0  0  0
  -29.8578  -21.5349   22.7624 H   0  0  0  0  0  0
  -28.7983  -23.1441   19.0661 H   0  0  0  0  0  0
  -26.4942  -19.2599   22.5736 H   0  0  0  0  0  0
  -26.5600  -20.8336   21.7949 H   0  0  0  0  0  0
  -27.5487  -20.5144   23.2237 H   0  0  0  0  0  0
  -28.0217  -24.7378   21.6232 H   0  0  0  0  0  0
  -27.0283  -24.4565   20.2634 H   0  0  0  0  0  0
  -28.7721  -15.6162   21.0037 H   0  0  0  0  0  0
  1 25  1  0  0  0
  1 30  2  0  0  0
  1 84  1  0  0  0
  2  3  1  0  0  0
  2 25  1  0  0  0
  2 86  1  0  0  0
  2 87  1  0  0  0
  3  4  1  0  0  0
  3 88  1  0  0  0
  3 89  1  0  0  0
  4  5  1  0  0  0
  4 90  1  0  0  0
  4 91  1  0  0  0
  5  6  1  0  0  0
  5 26  1  0  0  0
  5 92  1  0  0  0
  6 25  1  0  0  0
  6 93  1  0  0  0
  6 94  1  0  0  0
  7  8  2  0  0  0
  7 26  1  0  0  0
  7 29  1  0  0  0
  8  9  1  0  0  0
  8 22  1  0  0  0
  9 10  1  0  0  0
  9 27  2  0  0  0
 10 11  2  0  0  0
 10 15  1  0  0  0
 11 12  1  0  0  0
 11 95  1  0  0  0
 12 13  2  0  0  0
 12 96  1  0  0  0
 13 14  1  0  0  0
 13 31  1  0  0  0
 14 15  2  0  0  0
 14 97  1  0  0  0
 15 98  1  0  0  0
 16 17  2  0  0  0
 16 21  1  0  0  0
 16 31  1  0  0  0
 17 18  1  0  0  0
 17 99  1  0  0  0
 18 19  2  0  0  0
 18100  1  0  0  0
 19 20  1  0  0  0
 19 24  1  0  0  0
 20 21  2  0  0  0
 20101  1  0  0  0
 21 23  1  0  0  0
 22 28  1  0  0  0
 22 32  2  0  0  0
 26 27  1  0  0  0
 28102  1  0  0  0
 28103  1  0  0  0
 29104  1  0  0  0
 29105  1  0  0  0
 33 34  1  0  0  0
 33 66  1  0  0  0
 33 70  2  0  0  0
 34 36  1  0  0  0
 34 59  1  0  0  0
 34106  1  0  0  0
 35 44  2  0  0  0
 35 45  1  0  0  0
 35 68  1  0  0  0
 36 56  1  0  0  0
 36107  1  0  0  0
 37 39  1  0  0  0
 37 47  1  0  0  0
 37 66  1  0  0  0
 37108  1  0  0  0
 38 43  2  0  0  0
 38 46  1  0  0  0
 38 47  1  0  0  0
 39 64  1  0  0  0
 39 67  2  0  0  0
 40 52  1  0  0  0
 40 53  2  0  0  0
 40 58  1  0  0  0
 41109  1  0  0  0
 41110  1  0  0  0
 41111  1  0  0  0
 41 48  1  0  0  0
 42 43  1  0  0  0
 42 66  1  0  0  0
 42112  1  0  0  0
 42113  1  0  0  0
 43 44  1  0  0  0
 44114  1  0  0  0
 45 46  2  0  0  0
 45115  1  0  0  0
 46116  1  0  0  0
 47117  1  0  0  0
 47118  1  0  0  0
 48 56  1  0  0  0
 48 65  1  0  0  0
 48119  1  0  0  0
 49 50  1  0  0  0
 49 53  1  0  0  0
 49 64  1  0  0  0
 49120  1  0  0  0
 50 51  1  0  0  0
 50121  1  0  0  0
 50122  1  0  0  0
 51 52  1  0  0  0
 51123  1  0  0  0
 51124  1  0  0  0
 52125  1  0  0  0
 52126  1  0  0  0
 53 54  1  0  0  0
 54 55  2  0  0  0
 54127  1  0  0  0
 55 57  1  0  0  0
 55128  1  0  0  0
 56 69  2  0  0  0
 57 58  2  0  0  0
 57129  1  0  0  0
 58130  1  0  0  0
 59 60  1  0  0  0
 59 61  1  0  0  0
 59 62  1  0  0  0
 60131  1  0  0  0
 60132  1  0  0  0
 60133  1  0  0  0
 61134  1  0  0  0
 61135  1  0  0  0
 61136  1  0  0  0
 62137  1  0  0  0
 62138  1  0  0  0
 62139  1  0  0  0
 63 65  1  0  0  0
 63140  1  0  0  0
 63141  1  0  0  0
 63142  1  0  0  0
 64143  1  0  0  0
 65144  1  0  0  0
 68 82  1  0  0  0
 71 73  2  0  0  0
 71 75  1  0  0  0
 71145  1  0  0  0
 72 74  2  0  0  0
 72 76  1  0  0  0
 72146  1  0  0  0
 73 74  1  0  0  0
 73 81  1  0  0  0
 74 83  1  0  0  0
 75 76  2  0  0  0
 75 84  1  0  0  0
 76 85  1  0  0  0
 77 78  1  0  0  0
 77 79  1  0  0  0
 77147  1  0  0  0
 77148  1  0  0  0
 78 80  1  0  0  0
 78149  1  0  0  0
 78150  1  0  0  0
 79 83  1  0  0  0
 79151  1  0  0  0
 79152  1  0  0  0
 80 82  1  0  0  0
 80 83  1  0  0  0
 80153  1  0  0  0
 81154  1  0  0  0
 81155  1  0  0  0
 81156  1  0  0  0
 82157  1  0  0  0
 82158  1  0  0  0
 84159  1  0  0  0
M  ISO  4   1 100  68 101  82 101  84 100
M  END
> <chiral flag>
0

> <version>
0

> <s_m_source_file>
/data/baiqing/PycharmProjects/Reinvent-master-3.2/result/LINK_invent/BTK/process_docking_weight1_custom_product_contain_oxygen_bond_distance_aromatic_linkinvent_7_9_3/rearranged_h_0026.sdf

> <i_m_source_file_index>
71

> <r_mmod_Potential_Energy-OPLS-2005>
521.452026367188

> <r_mmod_Stretch_Energy-OPLS-2005>
215.623901367188

> <r_mmod_Bend_Energy-OPLS-2005>
317.029144287109

> <r_mmod_Torsional_Energy-OPLS-2005>
310.472961425781

> <r_mmod_Improper_Torsional_Energy-OPLS-2005>
9.26522254943848

> <r_mmod_Van_der_Waal_Energy-OPLS-2005>
128.908340454102

> <r_mmod_Electrostatic_Energy-OPLS-2005>
-403.697845458984

> <r_mmod_Solvation_Energy-OPLS-2005>
-220.963455200195

> <b_mmod_Minimization_Converged-OPLS-2005>
0

> <r_mmod_RMS_Derivative-OPLS-2005>
1.16180515289307

$$$$
71
                    3D
 Structure written by MMmdl.
177187  0  0  1  0            999 V2000
  -30.7169  -14.8297   20.4156 C   0  0  0  0  0  0
  -30.3626  -12.5215   19.4740 C   0  0  0  0  0  0
  -29.4619  -12.4942   18.2295 C   0  0  0  0  0  0
  -27.9989  -12.3098   18.6559 C   0  0  0  0  0  0
  -27.5973  -13.2099   19.8562 C   0  0  2  0  0  0
  -28.6667  -13.3119   20.9641 C   0  0  0  0  0  0
  -25.2308  -13.7821   20.6021 C   0  0  0  0  0  0
  -24.1538  -13.0127   20.9384 C   0  0  0  0  0  0
  -24.6188  -11.6689   20.8829 C   0  0  0  0  0  0
  -23.8900  -10.4113   21.0424 C   0  0  0  0  0  0
  -24.3488   -9.4056   21.9184 C   0  0  0  0  0  0
  -23.6183   -8.2112   22.0717 C   0  0  0  0  0  0
  -22.4165   -8.0147   21.3537 C   0  0  0  0  0  0
  -21.9810   -9.0110   20.4636 C   0  0  0  0  0  0
  -22.7096  -10.1987   20.3057 C   0  0  0  0  0  0
  -21.6791   -6.0650   22.5301 C   0  0  0  0  0  0
  -21.3975   -6.5609   23.8193 C   0  0  0  0  0  0
  -21.3664   -5.6761   24.9191 C   0  0  0  0  0  0
  -21.6059   -4.3041   24.7233 C   0  0  0  0  0  0
  -21.8829   -3.8101   23.4386 C   0  0  0  0  0  0
  -21.9171   -4.6916   22.3404 C   0  0  0  0  0  0
  -22.7622  -13.5027   21.1970 C   0  0  0  0  0  0
  -22.1652   -4.2101   21.0994 F   0  0  0  0  0  0
  -21.5642   -3.4524   25.7766 F   0  0  0  0  0  0
  -29.9198  -13.6847   20.3046 N   0  0  0  0  0  0
  -26.2714  -12.9052   20.3607 N   0  0  0  0  0  0
  -25.9126  -11.6245   20.5934 N   0  0  0  0  0  0
  -22.0213  -12.8061   22.0556 N   0  0  0  0  0  0
  -25.3919  -15.1441   20.4738 N   0  0  0  0  0  0
  -31.9117  -14.5871   20.2164 O   0  0  0  0  0  0
  -21.6562   -6.8769   21.4220 O   0  0  0  0  0  0
  -22.3470  -14.5337   20.6806 O   0  0  0  0  0  0
  -24.6360  -31.8629   23.2025 C   0  0  0  0  0  0
  -25.9226  -32.4785   23.8381 C   0  0  1  0  0  0
  -27.1328  -27.2678   20.0797 C   0  0  0  0  0  0
  -25.6043  -33.8617   24.2245 N   0  0  0  0  0  0
  -23.4234  -30.5146   21.5345 C   0  0  2  0  0  0
  -24.8847  -29.0047   20.0341 C   0  0  0  0  0  0
  -22.7397  -29.4989   22.4789 C   0  0  0  0  0  0
  -18.0460  -28.1297   22.8276 C   0  0  0  0  0  0
  -24.1508  -36.7311   23.2620 C   0  0  0  0  0  0
  -25.9764  -30.7628   21.4177 C   0  0  0  0  0  0
  -26.0287  -29.4002   20.7325 C   0  0  0  0  0  0
  -27.1435  -28.5078   20.7997 C   0  0  0  0  0  0
  -26.0849  -27.0883   19.1577 C   0  0  0  0  0  0
  -24.9242  -27.8712   19.2128 C   0  0  0  0  0  0
  -23.6377  -29.8641   20.1417 C   0  0  0  0  0  0
  -25.4109  -36.3090   24.0307 C   0  0  1  0  0  0
  -20.5858  -28.4173   23.1099 C   0  0  2  0  0  0
  -20.7340  -26.9923   22.5309 C   0  0  0  0  0  0
  -19.6112  -26.6193   21.5610 C   0  0  0  0  0  0
  -18.2567  -26.7489   22.2415 C   0  0  0  0  0  0
  -19.1368  -28.9085   23.2753 C   0  0  0  0  0  0
  -18.8956  -30.1735   23.8761 C   0  0  0  0  0  0
  -17.5797  -30.6508   24.0339 C   0  0  0  0  0  0
  -25.9035  -34.9491   23.5045 C   0  0  0  0  0  0
  -16.5018  -29.8734   23.5835 C   0  0  0  0  0  0
  -16.7311  -28.6195   22.9880 C   0  0  0  0  0  0
  -26.4552  -31.6649   25.0758 C   0  0  0  0  0  0
  -25.3767  -31.3875   26.1415 C   0  0  0  0  0  0
  -27.0423  -30.3077   24.6339 C   0  0  0  0  0  0
  -27.6082  -32.4355   25.7577 C   0  0  0  0  0  0
  -27.5577  -37.1838   24.8471 C   0  0  0  0  0  0
  -21.4058  -29.3765   22.3696 N   0  0  0  0  0  0
  -26.4274  -37.3783   23.9439 N   0  0  0  0  0  0
  -24.6902  -31.0790   22.0917 N   0  0  0  0  0  0
  -23.4150  -28.8269   23.2657 O   0  0  0  0  0  0
  -27.8680  -26.1034   20.4306 O   0  0  0  0  0  0
  -26.5612  -34.8924   22.4596 O   0  0  0  0  0  0
  -23.5536  -32.1448   23.7271 O   0  0  0  0  0  0
  -26.9181  -17.5046   19.3658 C   0  0  0  0  0  0
  -28.0974  -16.7323   19.4680 C   0  0  0  0  0  0
  -29.0228  -18.4639   20.8782 C   0  0  0  0  0  0
  -26.7665  -18.7362   20.0454 C   0  0  0  0  0  0
  -29.1362  -17.0999   20.3440 C   0  0  0  0  0  0
  -27.8926  -19.3474   20.6577 C   0  0  0  0  0  0
  -25.4846  -23.1338   22.7293 C   0  0  0  0  0  0
  -24.8734  -24.4695   22.3546 C   0  0  0  0  0  0
  -23.0939  -19.0837   20.3600 C   0  0  0  0  0  0
  -23.4633  -20.3256   19.5532 C   0  0  0  0  0  0
  -27.0201  -23.2278   22.6183 C   0  0  0  0  0  0
  -25.5914  -25.2221   21.2080 C   0  0  0  0  0  0
  -24.4425  -18.4501   20.7261 C   0  0  0  0  0  0
  -24.8939  -20.0328   19.0906 C   0  0  0  0  0  0
  -27.3084  -23.2953   21.1024 C   0  0  1  0  0  0
  -27.0035  -24.8185   20.5336 C   0  0  2  0  0  0
  -31.5495  -17.0986   20.6337 C   0  0  0  0  0  0
  -28.2319  -22.0302   20.6402 C   0  0  0  0  0  0
  -25.4909  -19.3370   20.2083 N   0  0  0  0  0  0
  -27.6857  -20.6923   21.1564 N   0  0  0  0  0  0
  -30.3546  -16.2166   20.5330 N   0  0  0  0  0  0
  -31.4015  -12.5706   19.1497 H   0  0  0  0  0  0
  -30.2894  -11.5848   20.0373 H   0  0  0  0  0  0
  -29.7647  -11.6932   17.5545 H   0  0  0  0  0  0
  -29.5745  -13.4304   17.6848 H   0  0  0  0  0  0
  -27.8451  -11.2570   18.9015 H   0  0  0  0  0  0
  -27.3438  -12.5142   17.8100 H   0  0  0  0  0  0
  -27.4970  -14.1805   19.4149 H   0  0  0  0  0  0
  -28.7751  -12.3672   21.4983 H   0  0  0  0  0  0
  -28.3924  -14.0514   21.7158 H   0  0  0  0  0  0
  -25.2611   -9.5593   22.4792 H   0  0  0  0  0  0
  -23.9904   -7.4515   22.7428 H   0  0  0  0  0  0
  -21.0737   -8.8592   19.8957 H   0  0  0  0  0  0
  -22.3496  -10.9531   19.6201 H   0  0  0  0  0  0
  -21.1950   -7.6104   23.9699 H   0  0  0  0  0  0
  -21.1488   -6.0505   25.9085 H   0  0  0  0  0  0
  -22.0604   -2.7574   23.2882 H   0  0  0  0  0  0
  -22.3777  -11.9710   22.4936 H   0  0  0  0  0  0
  -21.0862  -13.1158   22.2709 H   0  0  0  0  0  0
  -24.6111  -15.7656   20.6248 H   0  0  0  0  0  0
  -26.2602  -15.6204   20.2772 H   0  0  0  0  0  0
  -26.7252  -32.5438   23.1088 H   0  0  0  0  0  0
  -25.0336  -33.9687   25.0494 H   0  0  0  0  0  0
  -22.7220  -31.3383   21.3841 H   0  0  0  0  0  0
  -23.3747  -35.9675   23.3275 H   0  0  0  0  0  0
  -24.3597  -36.8960   22.2047 H   0  0  0  0  0  0
  -23.7279  -37.6508   23.6637 H   0  0  0  0  0  0
  -26.1472  -31.5144   20.6502 H   0  0  0  0  0  0
  -26.8549  -30.7869   22.0622 H   0  0  0  0  0  0
  -27.9408  -28.7073   21.5135 H   0  0  0  0  0  0
  -26.0375  -26.2259   18.5128 H   0  0  0  0  0  0
  -24.0513  -27.6330   18.6110 H   0  0  0  0  0  0
  -23.7200  -30.6407   19.3826 H   0  0  0  0  0  0
  -22.7695  -29.2726   19.8425 H   0  0  0  0  0  0
  -25.1295  -36.1889   25.0802 H   0  0  0  0  0  0
  -20.9863  -28.4297   24.1112 H   0  0  0  0  0  0
  -20.7292  -26.2494   23.3164 H   0  0  0  0  0  0
  -21.7032  -26.8681   22.0320 H   0  0  0  0  0  0
  -19.8338  -25.6422   21.1394 H   0  0  0  0  0  0
  -19.6155  -27.3006   20.7299 H   0  0  0  0  0  0
  -17.4577  -26.4723   21.5610 H   0  0  0  0  0  0
  -18.1523  -26.0626   23.0728 H   0  0  0  0  0  0
  -19.7081  -30.7881   24.2194 H   0  0  0  0  0  0
  -17.3742  -31.6284   24.4584 H   0  0  0  0  0  0
  -15.4893  -30.2308   23.6560 H   0  0  0  0  0  0
  -15.9008  -28.0180   22.6450 H   0  0  0  0  0  0
  -24.5930  -30.7200   25.7782 H   0  0  0  0  0  0
  -24.8936  -32.3085   26.4714 H   0  0  0  0  0  0
  -25.8040  -30.9163   27.0279 H   0  0  0  0  0  0
  -26.3094  -29.6793   24.1259 H   0  0  0  0  0  0
  -27.3965  -29.7319   25.4911 H   0  0  0  0  0  0
  -27.8997  -30.4309   23.9711 H   0  0  0  0  0  0
  -27.2707  -33.3655   26.2155 H   0  0  0  0  0  0
  -28.3987  -32.6932   25.0517 H   0  0  0  0  0  0
  -28.0654  -31.8481   26.5550 H   0  0  0  0  0  0
  -28.2581  -38.0136   24.7482 H   0  0  0  0  0  0
  -28.1059  -36.2677   24.6302 H   0  0  0  0  0  0
  -27.2312  -37.1516   25.8867 H   0  0  0  0  0  0
  -20.9331  -29.9958   21.7279 H   0  0  0  0  0  0
  -26.0136  -38.2839   24.1452 H   0  0  0  0  0  0
  -26.0856  -17.1130   18.7980 H   0  0  0  0  0  0
  -28.2222  -15.8881   18.8247 H   0  0  0  0  0  0
  -29.8036  -18.8527   21.5121 H   0  0  0  0  0  0
  -25.0213  -22.3551   22.1323 H   0  0  0  0  0  0
  -25.1624  -22.8406   23.7272 H   0  0  0  0  0  0
  -24.8577  -25.0985   23.2576 H   0  0  0  0  0  0
  -23.8063  -24.3236   22.1365 H   0  0  0  0  0  0
  -22.5148  -18.3879   19.7447 H   0  0  0  0  0  0
  -22.4847  -19.3098   21.2374 H   0  0  0  0  0  0
  -23.4509  -21.2012   20.1999 H   0  0  0  0  0  0
  -22.7806  -20.5190   18.7282 H   0  0  0  0  0  0
  -27.5190  -22.3894   23.1132 H   0  0  0  0  0  0
  -27.3701  -24.1257   23.1499 H   0  0  0  0  0  0
  -25.6254  -26.2189   21.6592 H   0  0  0  0  0  0
  -24.8543  -25.3047   20.4106 H   0  0  0  0  0  0
  -24.4755  -17.4734   20.2504 H   0  0  0  0  0  0
  -24.5299  -18.2904   21.8049 H   0  0  0  0  0  0
  -25.4433  -20.9405   18.8351 H   0  0  0  0  0  0
  -24.8768  -19.3812   18.2161 H   0  0  0  0  0  0
  -26.4152  -22.8544   20.6389 H   0  0  0  0  0  0
  -26.7794  -24.5748   19.5033 H   0  0  0  0  0  0
  -31.3971  -18.0894   20.2150 H   0  0  0  0  0  0
  -32.4212  -16.7876   20.0628 H   0  0  0  0  0  0
  -31.8641  -17.2109   21.6706 H   0  0  0  0  0  0
  -29.2402  -22.1551   21.0453 H   0  0  0  0  0  0
  -28.3427  -22.0016   19.5553 H   0  0  0  0  0  0
  -26.6669  -20.7454   21.0931 H   0  0  0  0  0  0
  1 25  1  0  0  0
  1 30  2  0  0  0
  1 91  1  0  0  0
  2  3  1  0  0  0
  2 25  1  0  0  0
  2 92  1  0  0  0
  2 93  1  0  0  0
  3  4  1  0  0  0
  3 94  1  0  0  0
  3 95  1  0  0  0
  4  5  1  0  0  0
  4 96  1  0  0  0
  4 97  1  0  0  0
  5  6  1  0  0  0
  5 26  1  0  0  0
  5 98  1  0  0  0
  6 25  1  0  0  0
  6 99  1  0  0  0
  6100  1  0  0  0
  7  8  2  0  0  0
  7 26  1  0  0  0
  7 29  1  0  0  0
  8  9  1  0  0  0
  8 22  1  0  0  0
  9 10  1  0  0  0
  9 27  2  0  0  0
 10 11  2  0  0  0
 10 15  1  0  0  0
 11 12  1  0  0  0
 11101  1  0  0  0
 12 13  2  0  0  0
 12102  1  0  0  0
 13 14  1  0  0  0
 13 31  1  0  0  0
 14 15  2  0  0  0
 14103  1  0  0  0
 15104  1  0  0  0
 16 17  2  0  0  0
 16 21  1  0  0  0
 16 31  1  0  0  0
 17 18  1  0  0  0
 17105  1  0  0  0
 18 19  2  0  0  0
 18106  1  0  0  0
 19 20  1  0  0  0
 19 24  1  0  0  0
 20 21  2  0  0  0
 20107  1  0  0  0
 21 23  1  0  0  0
 22 28  1  0  0  0
 22 32  2  0  0  0
 26 27  1  0  0  0
 28108  1  0  0  0
 28109  1  0  0  0
 29110  1  0  0  0
 29111  1  0  0  0
 33 34  1  0  0  0
 33 66  1  0  0  0
 33 70  2  0  0  0
 34 36  1  0  0  0
 34 59  1  0  0  0
 34112  1  0  0  0
 35 44  2  0  0  0
 35 45  1  0  0  0
 35 68  1  0  0  0
 36 56  1  0  0  0
 36113  1  0  0  0
 37 39  1  0  0  0
 37 47  1  0  0  0
 37 66  1  0  0  0
 37114  1  0  0  0
 38 43  2  0  0  0
 38 46  1  0  0  0
 38 47  1  0  0  0
 39 64  1  0  0  0
 39 67  2  0  0  0
 40 52  1  0  0  0
 40 53  2  0  0  0
 40 58  1  0  0  0
 41115  1  0  0  0
 41116  1  0  0  0
 41117  1  0  0  0
 41 48  1  0  0  0
 42 43  1  0  0  0
 42 66  1  0  0  0
 42118  1  0  0  0
 42119  1  0  0  0
 43 44  1  0  0  0
 44120  1  0  0  0
 45 46  2  0  0  0
 45121  1  0  0  0
 46122  1  0  0  0
 47123  1  0  0  0
 47124  1  0  0  0
 48 56  1  0  0  0
 48 65  1  0  0  0
 48125  1  0  0  0
 49 50  1  0  0  0
 49 53  1  0  0  0
 49 64  1  0  0  0
 49126  1  0  0  0
 50 51  1  0  0  0
 50127  1  0  0  0
 50128  1  0  0  0
 51 52  1  0  0  0
 51129  1  0  0  0
 51130  1  0  0  0
 52131  1  0  0  0
 52132  1  0  0  0
 53 54  1  0  0  0
 54 55  2  0  0  0
 54133  1  0  0  0
 55 57  1  0  0  0
 55134  1  0  0  0
 56 69  2  0  0  0
 57 58  2  0  0  0
 57135  1  0  0  0
 58136  1  0  0  0
 59 60  1  0  0  0
 59 61  1  0  0  0
 59 62  1  0  0  0
 60137  1  0  0  0
 60138  1  0  0  0
 60139  1  0  0  0
 61140  1  0  0  0
 61141  1  0  0  0
 61142  1  0  0  0
 62143  1  0  0  0
 62144  1  0  0  0
 62145  1  0  0  0
 63 65  1  0  0  0
 63146  1  0  0  0
 63147  1  0  0  0
 63148  1  0  0  0
 64149  1  0  0  0
 65150  1  0  0  0
 68 86  1  0  0  0
 71 72  2  0  0  0
 71 74  1  0  0  0
 71151  1  0  0  0
 72 75  1  0  0  0
 72152  1  0  0  0
 73 75  2  0  0  0
 73 76  1  0  0  0
 73153  1  0  0  0
 74 76  2  0  0  0
 74 89  1  0  0  0
 75 91  1  0  0  0
 76 90  1  0  0  0
 77 78  1  0  0  0
 77 81  1  0  0  0
 77154  1  0  0  0
 77155  1  0  0  0
 78 82  1  0  0  0
 78156  1  0  0  0
 78157  1  0  0  0
 79 80  1  0  0  0
 79 83  1  0  0  0
 79158  1  0  0  0
 79159  1  0  0  0
 80 84  1  0  0  0
 80160  1  0  0  0
 80161  1  0  0  0
 81 85  1  0  0  0
 81162  1  0  0  0
 81163  1  0  0  0
 82 86  1  0  0  0
 82164  1  0  0  0
 82165  1  0  0  0
 83 89  1  0  0  0
 83166  1  0  0  0
 83167  1  0  0  0
 84 89  1  0  0  0
 84168  1  0  0  0
 84169  1  0  0  0
 85 86  1  0  0  0
 85 88  1  0  0  0
 85170  1  0  0  0
 86171  1  0  0  0
 87 91  1  0  0  0
 87172  1  0  0  0
 87173  1  0  0  0
 87174  1  0  0  0
 88 90  1  0  0  0
 88175  1  0  0  0
 88176  1  0  0  0
 90177  1  0  0  0
M  ISO  4   1 100  68 101  86 101  91 100
M  END
> <chiral flag>
0

> <version>
0

> <s_m_source_file>
/data/baiqing/PycharmProjects/Reinvent-master-3.2/result/LINK_invent/BTK/process_docking_weight1_custom_product_contain_oxygen_bond_distance_aromatic_linkinvent_7_9_3/rearranged_h_0026.sdf

> <i_m_source_file_index>
72

> <r_mmod_Potential_Energy-OPLS-2005>
1086.76318359375

> <r_mmod_Stretch_Energy-OPLS-2005>
194.306411743164

> <r_mmod_Bend_Energy-OPLS-2005>
457.427978515625

> <r_mmod_Torsional_Energy-OPLS-2005>
472.481811523438

> <r_mmod_Improper_Torsional_Energy-OPLS-2005>
21.5241546630859

> <r_mmod_Van_der_Waal_Energy-OPLS-2005>
227.245758056641

> <r_mmod_Electrostatic_Energy-OPLS-2005>
-328.818328857422

> <r_mmod_Solvation_Energy-OPLS-2005>
-186.976791381836

> <b_mmod_Minimization_Converged-OPLS-2005>
0

> <r_mmod_RMS_Derivative-OPLS-2005>
25.0825500488281

$$$$
72
                    3D
 Structure written by MMmdl.
168177  0  0  1  0            999 V2000
  -30.6176  -14.6463   20.5133 C   0  0  0  0  0  0
  -30.4438  -12.4000   19.4528 C   0  0  0  0  0  0
  -29.5108  -12.5171   18.2266 C   0  0  0  0  0  0
  -28.0334  -12.3483   18.6369 C   0  0  0  0  0  0
  -27.6542  -13.2150   19.8669 C   0  0  2  0  0  0
  -28.7003  -13.0640   20.9939 C   0  0  0  0  0  0
  -25.2562  -13.8156   20.5683 C   0  0  0  0  0  0
  -24.1825  -13.0423   20.9179 C   0  0  0  0  0  0
  -24.6389  -11.6897   20.8726 C   0  0  0  0  0  0
  -23.9057  -10.4281   21.0381 C   0  0  0  0  0  0
  -24.3613   -9.4205   21.9169 C   0  0  0  0  0  0
  -23.6289   -8.2241   22.0757 C   0  0  0  0  0  0
  -22.4272   -8.0275   21.3538 C   0  0  0  0  0  0
  -21.9895   -9.0248   20.4643 C   0  0  0  0  0  0
  -22.7222  -10.2126   20.3045 C   0  0  0  0  0  0
  -21.6862   -6.0718   22.5269 C   0  0  0  0  0  0
  -21.4018   -6.5621   23.8200 C   0  0  0  0  0  0
  -21.3675   -5.6776   24.9168 C   0  0  0  0  0  0
  -21.6061   -4.3039   24.7224 C   0  0  0  0  0  0
  -21.8826   -3.8131   23.4346 C   0  0  0  0  0  0
  -21.9199   -4.6945   22.3397 C   0  0  0  0  0  0
  -22.7848  -13.5223   21.1858 C   0  0  0  0  0  0
  -22.1663   -4.2135   21.0973 F   0  0  0  0  0  0
  -21.5642   -3.4529   25.7739 F   0  0  0  0  0  0
  -30.0148  -13.4166   20.4327 N   0  0  0  0  0  0
  -26.2993  -12.9334   20.3338 N   0  0  0  0  0  0
  -25.9319  -11.6489   20.5751 N   0  0  0  0  0  0
  -22.0502  -12.8200   22.0420 N   0  0  0  0  0  0
  -25.4285  -15.1874   20.4093 N   0  0  0  0  0  0
  -31.7821  -14.8198   20.1428 O   0  0  0  0  0  0
  -21.6647   -6.8861   21.4231 O   0  0  0  0  0  0
  -22.3527  -14.5542   20.6726 O   0  0  0  0  0  0
  -24.6244  -31.8604   23.2034 C   0  0  0  0  0  0
  -25.9088  -32.4778   23.8361 C   0  0  1  0  0  0
  -27.2209  -27.3224   20.1262 C   0  0  0  0  0  0
  -25.5920  -33.8586   24.2284 N   0  0  0  0  0  0
  -23.4195  -30.4834   21.5463 C   0  0  2  0  0  0
  -24.8645  -28.9393   20.1150 C   0  0  0  0  0  0
  -22.7462  -29.4628   22.4949 C   0  0  0  0  0  0
  -18.0288  -28.1388   22.8478 C   0  0  0  0  0  0
  -24.1498  -36.7308   23.2639 C   0  0  0  0  0  0
  -25.9601  -30.7913   21.3762 C   0  0  0  0  0  0
  -26.0344  -29.4188   20.7201 C   0  0  0  0  0  0
  -27.2168  -28.6225   20.7155 C   0  0  0  0  0  0
  -26.0343  -26.9002   19.4828 C   0  0  0  0  0  0
  -24.8672  -27.6846   19.4877 C   0  0  0  0  0  0
  -23.6325  -29.8188   20.1627 C   0  0  0  0  0  0
  -25.4118  -36.3080   24.0326 C   0  0  1  0  0  0
  -20.5883  -28.3692   23.1288 C   0  0  2  0  0  0
  -20.6781  -26.9415   22.5412 C   0  0  0  0  0  0
  -19.5757  -26.6379   21.5218 C   0  0  0  0  0  0
  -18.1932  -26.7933   22.1614 C   0  0  0  0  0  0
  -19.1536  -28.8858   23.2881 C   0  0  0  0  0  0
  -18.9446  -30.1462   23.8889 C   0  0  0  0  0  0
  -17.6442  -30.6582   24.0564 C   0  0  0  0  0  0
  -25.9051  -34.9448   23.5109 C   0  0  0  0  0  0
  -16.5337  -29.9073   23.6347 C   0  0  0  0  0  0
  -16.7277  -28.6507   23.0349 C   0  0  0  0  0  0
  -26.4478  -31.6600   25.0747 C   0  0  0  0  0  0
  -25.3731  -31.3724   26.1490 C   0  0  0  0  0  0
  -27.0321  -30.3013   24.6223 C   0  0  0  0  0  0
  -27.6033  -32.4358   25.7514 C   0  0  0  0  0  0
  -27.5587  -37.1805   24.8454 C   0  0  0  0  0  0
  -21.4177  -29.3049   22.3690 N   0  0  0  0  0  0
  -26.4296  -37.3768   23.9407 N   0  0  0  0  0  0
  -24.6867  -31.0620   22.0991 N   0  0  0  0  0  0
  -23.4190  -28.8168   23.3020 O   0  0  0  0  0  0
  -28.3319  -26.4711   20.1625 O   0  0  0  0  0  0
  -26.5598  -34.8897   22.4661 O   0  0  0  0  0  0
  -23.5407  -32.1410   23.7352 O   0  0  0  0  0  0
  -28.8698  -17.8125   19.9624 C   0  0  0  0  0  0
  -28.8545  -19.2293   19.8257 C   0  0  0  0  0  0
  -30.8724  -17.9510   21.2869 C   0  0  0  0  0  0
  -30.8433  -19.3839   21.1919 C   0  0  0  0  0  0
  -29.8925  -17.1286   20.6674 C   0  0  0  0  0  0
  -29.8372  -20.0542   20.4218 C   0  0  0  0  0  0
  -34.0451  -22.4344   19.8960 C   0  0  0  0  0  0
  -33.8236  -23.2912   21.1522 C   0  0  0  0  0  0
  -33.4763  -21.0575   20.2509 C   0  0  0  0  0  0
  -32.8789  -22.4765   22.0513 C   0  0  0  0  0  0
  -31.8887  -20.1764   21.9842 C   0  0  0  0  0  0
  -29.1912  -23.9673   20.2120 C   0  0  0  0  0  0
  -28.9015  -22.4522   20.6307 C   0  0  0  0  0  0
  -28.0952  -25.0613   20.5574 C   0  0  0  0  0  0
  -29.7879  -15.6817   20.8493 N   0  0  0  0  0  0
  -29.8905  -21.4580   20.1213 N   0  0  0  0  0  0
  -32.4183  -21.3367   21.2354 N   0  3  0  0  0  0
  -31.4848  -12.5312   19.1513 H   0  0  0  0  0  0
  -30.3800  -11.4011   19.8883 H   0  0  0  0  0  0
  -29.7741  -11.7702   17.4773 H   0  0  0  0  0  0
  -29.6537  -13.4897   17.7531 H   0  0  0  0  0  0
  -27.8707  -11.2920   18.8584 H   0  0  0  0  0  0
  -27.3812  -12.5858   17.7958 H   0  0  0  0  0  0
  -27.6705  -14.2518   19.5301 H   0  0  0  0  0  0
  -28.7173  -12.0373   21.3608 H   0  0  0  0  0  0
  -28.4434  -13.6807   21.8575 H   0  0  0  0  0  0
  -25.2766   -9.5680   22.4741 H   0  0  0  0  0  0
  -24.0008   -7.4622   22.7468 H   0  0  0  0  0  0
  -21.0833   -8.8757   19.8931 H   0  0  0  0  0  0
  -22.3688  -10.9659   19.6155 H   0  0  0  0  0  0
  -21.2002   -7.6133   23.9697 H   0  0  0  0  0  0
  -21.1491   -6.0508   25.9066 H   0  0  0  0  0  0
  -22.0595   -2.7596   23.2849 H   0  0  0  0  0  0
  -22.4133  -11.9854   22.4774 H   0  0  0  0  0  0
  -21.1119  -13.1210   22.2649 H   0  0  0  0  0  0
  -24.6641  -15.8438   20.5208 H   0  0  0  0  0  0
  -26.2750  -15.6245   20.0704 H   0  0  0  0  0  0
  -26.7162  -32.5430   23.1112 H   0  0  0  0  0  0
  -25.0093  -33.9772   25.0441 H   0  0  0  0  0  0
  -22.7129  -31.3027   21.4010 H   0  0  0  0  0  0
  -23.3761  -35.9651   23.3287 H   0  0  0  0  0  0
  -24.3595  -36.8950   22.2062 H   0  0  0  0  0  0
  -23.7263  -37.6507   23.6673 H   0  0  0  0  0  0
  -26.0944  -31.5547   20.6090 H   0  0  0  0  0  0
  -26.8398  -30.8343   22.0077 H   0  0  0  0  0  0
  -28.1152  -28.9845   21.1964 H   0  0  0  0  0  0
  -25.9902  -25.9505   18.9704 H   0  0  0  0  0  0
  -23.9720  -27.3176   19.0038 H   0  0  0  0  0  0
  -23.7499  -30.5954   19.4063 H   0  0  0  0  0  0
  -22.7534  -29.2469   19.8616 H   0  0  0  0  0  0
  -25.1300  -36.1934   25.0824 H   0  0  0  0  0  0
  -20.9976  -28.3261   24.1411 H   0  0  0  0  0  0
  -20.5710  -26.2287   23.3607 H   0  0  0  0  0  0
  -21.6643  -26.7459   22.1182 H   0  0  0  0  0  0
  -19.6930  -25.6289   21.1261 H   0  0  0  0  0  0
  -19.6712  -27.3183   20.6745 H   0  0  0  0  0  0
  -17.4210  -26.6699   21.4006 H   0  0  0  0  0  0
  -18.0318  -26.0065   22.8999 H   0  0  0  0  0  0
  -19.7915  -30.7299   24.2242 H   0  0  0  0  0  0
  -17.4987  -31.6264   24.5157 H   0  0  0  0  0  0
  -15.5338  -30.2960   23.7688 H   0  0  0  0  0  0
  -15.8681  -28.0835   22.7047 H   0  0  0  0  0  0
  -24.5892  -30.7084   25.7827 H   0  0  0  0  0  0
  -24.8938  -32.2876   26.4973 H   0  0  0  0  0  0
  -25.8083  -30.8866   27.0233 H   0  0  0  0  0  0
  -26.2893  -29.6758   24.1257 H   0  0  0  0  0  0
  -27.3994  -29.7280   25.4747 H   0  0  0  0  0  0
  -27.8776  -30.4278   23.9460 H   0  0  0  0  0  0
  -27.2633  -33.3659   26.2090 H   0  0  0  0  0  0
  -28.3836  -32.6944   25.0342 H   0  0  0  0  0  0
  -28.0712  -31.8496   26.5438 H   0  0  0  0  0  0
  -28.2577  -38.0117   24.7500 H   0  0  0  0  0  0
  -28.1100  -36.2650   24.6275 H   0  0  0  0  0  0
  -27.2302  -37.1448   25.8849 H   0  0  0  0  0  0
  -20.9356  -29.8753   21.6884 H   0  0  0  0  0  0
  -26.0177  -38.2852   24.1389 H   0  0  0  0  0  0
  -28.0739  -17.2460   19.4993 H   0  0  0  0  0  0
  -28.0711  -19.6797   19.2343 H   0  0  0  0  0  0
  -31.6388  -17.4778   21.8835 H   0  0  0  0  0  0
  -35.0942  -22.3843   19.5985 H   0  0  0  0  0  0
  -33.4823  -22.8593   19.0629 H   0  0  0  0  0  0
  -33.3802  -24.2531   20.8914 H   0  0  0  0  0  0
  -34.7633  -23.4966   21.6651 H   0  0  0  0  0  0
  -34.2525  -20.4425   20.7097 H   0  0  0  0  0  0
  -33.0940  -20.5259   19.3795 H   0  0  0  0  0  0
  -32.0315  -23.0655   22.4053 H   0  0  0  0  0  0
  -33.4212  -22.1163   22.9265 H   0  0  0  0  0  0
  -32.7074  -19.5384   22.3192 H   0  0  0  0  0  0
  -31.3852  -20.5321   22.8843 H   0  0  0  0  0  0
  -29.3565  -24.0049   19.1357 H   0  0  0  0  0  0
  -30.1324  -24.2747   20.6665 H   0  0  0  0  0  0
  -27.9138  -22.1662   20.2631 H   0  0  0  0  0  0
  -28.8521  -22.3810   21.7194 H   0  0  0  0  0  0
  -27.9423  -25.0623   21.6374 H   0  0  0  0  0  0
  -27.1619  -24.6792   20.1514 H   0  0  0  0  0  0
  -28.8529  -15.3522   21.0369 H   0  0  0  0  0  0
  -29.9232  -21.5676   19.1075 H   0  0  0  0  0  0
  -31.5988  -21.6577   20.7194 H   0  0  0  0  0  0
  1 25  1  0  0  0
  1 30  2  0  0  0
  1 85  1  0  0  0
  2  3  1  0  0  0
  2 25  1  0  0  0
  2 88  1  0  0  0
  2 89  1  0  0  0
  3  4  1  0  0  0
  3 90  1  0  0  0
  3 91  1  0  0  0
  4  5  1  0  0  0
  4 92  1  0  0  0
  4 93  1  0  0  0
  5  6  1  0  0  0
  5 26  1  0  0  0
  5 94  1  0  0  0
  6 25  1  0  0  0
  6 95  1  0  0  0
  6 96  1  0  0  0
  7  8  2  0  0  0
  7 26  1  0  0  0
  7 29  1  0  0  0
  8  9  1  0  0  0
  8 22  1  0  0  0
  9 10  1  0  0  0
  9 27  2  0  0  0
 10 11  2  0  0  0
 10 15  1  0  0  0
 11 12  1  0  0  0
 11 97  1  0  0  0
 12 13  2  0  0  0
 12 98  1  0  0  0
 13 14  1  0  0  0
 13 31  1  0  0  0
 14 15  2  0  0  0
 14 99  1  0  0  0
 15100  1  0  0  0
 16 17  2  0  0  0
 16 21  1  0  0  0
 16 31  1  0  0  0
 17 18  1  0  0  0
 17101  1  0  0  0
 18 19  2  0  0  0
 18102  1  0  0  0
 19 20  1  0  0  0
 19 24  1  0  0  0
 20 21  2  0  0  0
 20103  1  0  0  0
 21 23  1  0  0  0
 22 28  1  0  0  0
 22 32  2  0  0  0
 26 27  1  0  0  0
 28104  1  0  0  0
 28105  1  0  0  0
 29106  1  0  0  0
 29107  1  0  0  0
 33 34  1  0  0  0
 33 66  1  0  0  0
 33 70  2  0  0  0
 34 36  1  0  0  0
 34 59  1  0  0  0
 34108  1  0  0  0
 35 44  2  0  0  0
 35 45  1  0  0  0
 35 68  1  0  0  0
 36 56  1  0  0  0
 36109  1  0  0  0
 37 39  1  0  0  0
 37 47  1  0  0  0
 37 66  1  0  0  0
 37110  1  0  0  0
 38 43  2  0  0  0
 38 46  1  0  0  0
 38 47  1  0  0  0
 39 64  1  0  0  0
 39 67  2  0  0  0
 40 52  1  0  0  0
 40 53  2  0  0  0
 40 58  1  0  0  0
 41111  1  0  0  0
 41112  1  0  0  0
 41113  1  0  0  0
 41 48  1  0  0  0
 42 43  1  0  0  0
 42 66  1  0  0  0
 42114  1  0  0  0
 42115  1  0  0  0
 43 44  1  0  0  0
 44116  1  0  0  0
 45 46  2  0  0  0
 45117  1  0  0  0
 46118  1  0  0  0
 47119  1  0  0  0
 47120  1  0  0  0
 48 56  1  0  0  0
 48 65  1  0  0  0
 48121  1  0  0  0
 49 50  1  0  0  0
 49 53  1  0  0  0
 49 64  1  0  0  0
 49122  1  0  0  0
 50 51  1  0  0  0
 50123  1  0  0  0
 50124  1  0  0  0
 51 52  1  0  0  0
 51125  1  0  0  0
 51126  1  0  0  0
 52127  1  0  0  0
 52128  1  0  0  0
 53 54  1  0  0  0
 54 55  2  0  0  0
 54129  1  0  0  0
 55 57  1  0  0  0
 55130  1  0  0  0
 56 69  2  0  0  0
 57 58  2  0  0  0
 57131  1  0  0  0
 58132  1  0  0  0
 59 60  1  0  0  0
 59 61  1  0  0  0
 59 62  1  0  0  0
 60133  1  0  0  0
 60134  1  0  0  0
 60135  1  0  0  0
 61136  1  0  0  0
 61137  1  0  0  0
 61138  1  0  0  0
 62139  1  0  0  0
 62140  1  0  0  0
 62141  1  0  0  0
 63 65  1  0  0  0
 63142  1  0  0  0
 63143  1  0  0  0
 63144  1  0  0  0
 64145  1  0  0  0
 65146  1  0  0  0
 68 84  1  0  0  0
 71 72  2  0  0  0
 71 75  1  0  0  0
 71147  1  0  0  0
 72 76  1  0  0  0
 72148  1  0  0  0
 73 74  1  0  0  0
 73 75  2  0  0  0
 73149  1  0  0  0
 74 76  2  0  0  0
 74 81  1  0  0  0
 75 85  1  0  0  0
 76 86  1  0  0  0
 77 78  1  0  0  0
 77 79  1  0  0  0
 77150  1  0  0  0
 77151  1  0  0  0
 78 80  1  0  0  0
 78152  1  0  0  0
 78153  1  0  0  0
 79 87  1  0  0  0
 79154  1  0  0  0
 79155  1  0  0  0
 80 87  1  0  0  0
 80156  1  0  0  0
 80157  1  0  0  0
 81158  1  0  0  0
 81159  1  0  0  0
 81 87  1  0  0  0
 82 83  1  0  0  0
 82 84  1  0  0  0
 82160  1  0  0  0
 82161  1  0  0  0
 83 86  1  0  0  0
 83162  1  0  0  0
 83163  1  0  0  0
 84164  1  0  0  0
 84165  1  0  0  0
 85166  1  0  0  0
 86167  1  0  0  0
 87168  1  0  0  0
M  CHG  1  87   1
M  ISO  4   1 100  68 101  84 101  85 100
M  END
> <chiral flag>
0

> <version>
0

> <s_m_source_file>
/data/baiqing/PycharmProjects/Reinvent-master-3.2/result/LINK_invent/BTK/process_docking_weight1_custom_product_contain_oxygen_bond_distance_aromatic_linkinvent_7_9_3/rearranged_h_0026.sdf

> <i_m_source_file_index>
73

> <r_mmod_Potential_Energy-OPLS-2005>
-3.45965957641602

> <r_mmod_Stretch_Energy-OPLS-2005>
76.139274597168

> <r_mmod_Bend_Energy-OPLS-2005>
158.441970825195

> <r_mmod_Torsional_Energy-OPLS-2005>
331.681396484375

> <r_mmod_Improper_Torsional_Energy-OPLS-2005>
11.6594934463501

> <r_mmod_Van_der_Waal_Energy-OPLS-2005>
142.617370605469

> <r_mmod_Electrostatic_Energy-OPLS-2005>
-356.120056152344

> <r_mmod_Solvation_Energy-OPLS-2005>
-417.261688232422

> <b_mmod_Minimization_Converged-OPLS-2005>
0

> <r_mmod_RMS_Derivative-OPLS-2005>
2.52358198165894

$$$$
73
                    3D
 Structure written by MMmdl.
144152  0  0  1  0            999 V2000
  -30.3021  -15.5932   20.3329 C   0  0  0  0  0  0
  -30.4326  -13.0479   19.5373 C   0  0  0  0  0  0
  -29.5520  -12.6461   18.3194 C   0  0  0  0  0  0
  -28.1210  -12.2991   18.7600 C   0  0  0  0  0  0
  -27.5995  -13.3023   19.8140 C   0  0  2  0  0  0
  -28.6192  -13.6098   20.9351 C   0  0  0  0  0  0
  -25.2337  -13.8274   20.5781 C   0  0  0  0  0  0
  -24.1722  -13.0430   20.9285 C   0  0  0  0  0  0
  -24.6417  -11.6940   20.8764 C   0  0  0  0  0  0
  -23.9117  -10.4290   21.0399 C   0  0  0  0  0  0
  -24.3652   -9.4203   21.9181 C   0  0  0  0  0  0
  -23.6312   -8.2246   22.0754 C   0  0  0  0  0  0
  -22.4292   -8.0288   21.3546 C   0  0  0  0  0  0
  -21.9939   -9.0264   20.4645 C   0  0  0  0  0  0
  -22.7284  -10.2134   20.3051 C   0  0  0  0  0  0
  -21.6858   -6.0741   22.5279 C   0  0  0  0  0  0
  -21.4018   -6.5643   23.8213 C   0  0  0  0  0  0
  -21.3661   -5.6794   24.9174 C   0  0  0  0  0  0
  -21.6044   -4.3056   24.7224 C   0  0  0  0  0  0
  -21.8818   -3.8150   23.4344 C   0  0  0  0  0  0
  -21.9194   -4.6968   22.3402 C   0  0  0  0  0  0
  -22.7734  -13.5165   21.1921 C   0  0  0  0  0  0
  -22.1661   -4.2153   21.0979 F   0  0  0  0  0  0
  -21.5627   -3.4539   25.7736 F   0  0  0  0  0  0
  -29.8007  -14.2227   20.2856 N   0  0  0  0  0  0
  -26.2785  -12.9597   20.3223 N   0  0  0  0  0  0
  -25.9362  -11.6674   20.5699 N   0  0  0  0  0  0
  -22.0396  -12.8143   22.0473 N   0  0  0  0  0  0
  -25.3915  -15.2015   20.4212 N   0  0  0  0  0  0
  -31.5371  -15.5643   20.1684 O   0  0  0  0  0  0
  -21.6647   -6.8889   21.4243 O   0  0  0  0  0  0
  -22.3409  -14.5464   20.6757 O   0  0  0  0  0  0
  -24.6831  -31.8011   23.1526 C   0  0  0  0  0  0
  -25.9415  -32.4474   23.8070 C   0  0  1  0  0  0
  -27.2274  -26.7157   20.2118 C   0  0  0  0  0  0
  -25.5996  -33.8299   24.1956 N   0  0  0  0  0  0
  -23.5088  -30.4037   21.5064 C   0  0  2  0  0  0
  -24.9668  -28.7480   20.1182 C   0  0  0  0  0  0
  -22.7764  -29.4322   22.4715 C   0  0  0  0  0  0
  -18.0338  -28.1421   22.8455 C   0  0  0  0  0  0
  -24.1496  -36.7158   23.2652 C   0  0  0  0  0  0
  -26.0894  -30.5386   21.4154 C   0  0  0  0  0  0
  -26.1562  -29.1049   20.7648 C   0  0  0  0  0  0
  -27.2730  -28.1167   20.7789 C   0  0  0  0  0  0
  -26.0047  -26.5663   19.5091 C   0  0  0  0  0  0
  -24.9293  -27.5037   19.4667 C   0  0  0  0  0  0
  -23.7624  -29.7017   20.1415 C   0  0  0  0  0  0
  -25.4146  -36.2900   24.0282 C   0  0  1  0  0  0
  -20.5974  -28.3781   23.1142 C   0  0  2  0  0  0
  -20.6805  -26.9441   22.5403 C   0  0  0  0  0  0
  -19.5781  -26.6371   21.5216 C   0  0  0  0  0  0
  -18.1964  -26.7949   22.1619 C   0  0  0  0  0  0
  -19.1605  -28.8925   23.2779 C   0  0  0  0  0  0
  -18.9510  -30.1509   23.8825 C   0  0  0  0  0  0
  -17.6500  -30.6604   24.0550 C   0  0  0  0  0  0
  -25.9124  -34.9289   23.4955 C   0  0  0  0  0  0
  -16.5389  -29.9086   23.6350 C   0  0  0  0  0  0
  -16.7318  -28.6508   23.0366 C   0  0  0  0  0  0
  -26.4594  -31.6505   25.0689 C   0  0  0  0  0  0
  -25.3661  -31.3820   26.1304 C   0  0  0  0  0  0
  -27.0525  -30.2844   24.6583 C   0  0  0  0  0  0
  -27.6042  -32.4365   25.7508 C   0  0  0  0  0  0
  -27.5564  -37.1737   24.8466 C   0  0  0  0  0  0
  -21.4412  -29.3030   22.3464 N   0  0  0  0  0  0
  -26.4273  -37.3659   23.9406 N   0  0  0  0  0  0
  -24.7838  -30.9469   22.0774 N   0  0  0  0  0  0
  -23.4211  -28.7922   23.3056 O   0  0  0  0  0  0
  -28.1833  -25.4944   20.2808 O   0  0  0  0  0  0
  -26.5764  -34.8864   22.4572 O   0  0  0  0  0  0
  -23.5852  -32.1079   23.6486 O   0  0  0  0  0  0
  -29.2152  -21.2102   21.2850 C   0  0  0  0  0  0
  -28.4680  -20.9815   19.2114 C   0  0  0  0  0  0
  -29.5547  -19.7084   21.3189 C   0  0  0  0  0  0
  -28.7956  -19.4896   19.2463 C   0  0  0  0  0  0
  -28.6202  -22.0723   20.2165 C   0  0  0  0  0  0
  -29.3952  -18.6241   20.2984 C   0  0  0  0  0  0
  -27.8596  -23.7811   20.1605 C   0  0  0  0  0  0
  -29.4728  -16.9054   20.3744 N   0  0  0  0  0  0
  -31.4270  -13.3120   19.1754 H   0  0  0  0  0  0
  -30.5883  -12.1960   20.2015 H   0  0  0  0  0  0
  -29.9972  -11.8055   17.7855 H   0  0  0  0  0  0
  -29.5208  -13.4766   17.6126 H   0  0  0  0  0  0
  -28.1388  -11.2971   19.1903 H   0  0  0  0  0  0
  -27.4518  -12.2545   17.8999 H   0  0  0  0  0  0
  -27.4696  -14.2308   19.2564 H   0  0  0  0  0  0
  -28.8689  -12.7178   21.5116 H   0  0  0  0  0  0
  -28.1952  -14.3242   21.6424 H   0  0  0  0  0  0
  -25.2792   -9.5675   22.4765 H   0  0  0  0  0  0
  -24.0012   -7.4637   22.7479 H   0  0  0  0  0  0
  -21.0869   -8.8793   19.8951 H   0  0  0  0  0  0
  -22.3745  -10.9677   19.6162 H   0  0  0  0  0  0
  -21.2013   -7.6151   23.9718 H   0  0  0  0  0  0
  -21.1483   -6.0523   25.9077 H   0  0  0  0  0  0
  -22.0595   -2.7612   23.2843 H   0  0  0  0  0  0
  -22.4036  -11.9820   22.4872 H   0  0  0  0  0  0
  -21.1003  -13.1140   22.2670 H   0  0  0  0  0  0
  -24.6148  -15.8447   20.5307 H   0  0  0  0  0  0
  -26.2216  -15.6451   20.0524 H   0  0  0  0  0  0
  -26.7498  -32.4951   23.0785 H   0  0  0  0  0  0
  -25.0053  -33.9339   25.0048 H   0  0  0  0  0  0
  -22.8336  -31.2408   21.3174 H   0  0  0  0  0  0
  -23.3775  -35.9470   23.3267 H   0  0  0  0  0  0
  -24.3564  -36.8867   22.2076 H   0  0  0  0  0  0
  -23.7240  -37.6318   23.6760 H   0  0  0  0  0  0
  -26.2912  -31.2650   20.6272 H   0  0  0  0  0  0
  -26.9406  -30.6057   22.0807 H   0  0  0  0  0  0
  -28.1680  -28.3958   21.3169 H   0  0  0  0  0  0
  -25.8372  -25.6248   19.0063 H   0  0  0  0  0  0
  -24.0317  -27.2214   18.9338 H   0  0  0  0  0  0
  -23.9365  -30.4623   19.3796 H   0  0  0  0  0  0
  -22.8675  -29.1676   19.8174 H   0  0  0  0  0  0
  -25.1355  -36.1664   25.0772 H   0  0  0  0  0  0
  -21.0055  -28.3406   24.1269 H   0  0  0  0  0  0
  -20.5670  -26.2405   23.3665 H   0  0  0  0  0  0
  -21.6667  -26.7385   22.1221 H   0  0  0  0  0  0
  -19.6938  -25.6262   21.1294 H   0  0  0  0  0  0
  -19.6725  -27.3140   20.6714 H   0  0  0  0  0  0
  -17.4233  -26.6689   21.4023 H   0  0  0  0  0  0
  -18.0354  -26.0109   22.9033 H   0  0  0  0  0  0
  -19.7985  -30.7344   24.2163 H   0  0  0  0  0  0
  -17.5050  -31.6276   24.5167 H   0  0  0  0  0  0
  -15.5386  -30.2965   23.7716 H   0  0  0  0  0  0
  -15.8719  -28.0803   22.7123 H   0  0  0  0  0  0
  -24.5869  -30.7145   25.7603 H   0  0  0  0  0  0
  -24.8823  -32.3041   26.4534 H   0  0  0  0  0  0
  -25.7838  -30.9110   27.0211 H   0  0  0  0  0  0
  -26.3240  -29.6459   24.1575 H   0  0  0  0  0  0
  -27.3954  -29.7289   25.5322 H   0  0  0  0  0  0
  -27.9220  -30.3970   24.0106 H   0  0  0  0  0  0
  -27.2581  -33.3734   26.1884 H   0  0  0  0  0  0
  -28.3957  -32.6817   25.0414 H   0  0  0  0  0  0
  -28.0596  -31.8630   26.5592 H   0  0  0  0  0  0
  -28.2551  -38.0060   24.7511 H   0  0  0  0  0  0
  -28.1090  -36.2582   24.6297 H   0  0  0  0  0  0
  -27.2278  -37.1377   25.8867 H   0  0  0  0  0  0
  -20.9716  -29.8686   21.6531 H   0  0  0  0  0  0
  -26.0101  -38.2707   24.1416 H   0  0  0  0  0  0
  -29.3875  -21.7246   22.2200 H   0  0  0  0  0  0
  -27.9811  -21.2980   18.2995 H   0  0  0  0  0  0
  -29.9269  -19.3646   22.2737 H   0  0  0  0  0  0
  -28.4989  -18.9566   18.3538 H   0  0  0  0  0  0
  -27.0553  -23.6708   20.8879 H   0  0  0  0  0  0
  -27.3414  -23.7369   19.2027 H   0  0  0  0  0  0
  -28.5226  -16.5669   20.4124 H   0  0  0  0  0  0
  1 25  1  0  0  0
  1 30  2  0  0  0
  1 78  1  0  0  0
  2  3  1  0  0  0
  2 25  1  0  0  0
  2 79  1  0  0  0
  2 80  1  0  0  0
  3  4  1  0  0  0
  3 81  1  0  0  0
  3 82  1  0  0  0
  4  5  1  0  0  0
  4 83  1  0  0  0
  4 84  1  0  0  0
  5  6  1  0  0  0
  5 26  1  0  0  0
  5 85  1  0  0  0
  6 25  1  0  0  0
  6 86  1  0  0  0
  6 87  1  0  0  0
  7  8  2  0  0  0
  7 26  1  0  0  0
  7 29  1  0  0  0
  8  9  1  0  0  0
  8 22  1  0  0  0
  9 10  1  0  0  0
  9 27  2  0  0  0
 10 11  2  0  0  0
 10 15  1  0  0  0
 11 12  1  0  0  0
 11 88  1  0  0  0
 12 13  2  0  0  0
 12 89  1  0  0  0
 13 14  1  0  0  0
 13 31  1  0  0  0
 14 15  2  0  0  0
 14 90  1  0  0  0
 15 91  1  0  0  0
 16 17  2  0  0  0
 16 21  1  0  0  0
 16 31  1  0  0  0
 17 18  1  0  0  0
 17 92  1  0  0  0
 18 19  2  0  0  0
 18 93  1  0  0  0
 19 20  1  0  0  0
 19 24  1  0  0  0
 20 21  2  0  0  0
 20 94  1  0  0  0
 21 23  1  0  0  0
 22 28  1  0  0  0
 22 32  2  0  0  0
 26 27  1  0  0  0
 28 95  1  0  0  0
 28 96  1  0  0  0
 29 97  1  0  0  0
 29 98  1  0  0  0
 33 34  1  0  0  0
 33 66  1  0  0  0
 33 70  2  0  0  0
 34 36  1  0  0  0
 34 59  1  0  0  0
 34 99  1  0  0  0
 35 44  2  0  0  0
 35 45  1  0  0  0
 35 68  1  0  0  0
 36 56  1  0  0  0
 36100  1  0  0  0
 37 39  1  0  0  0
 37 47  1  0  0  0
 37 66  1  0  0  0
 37101  1  0  0  0
 38 43  2  0  0  0
 38 46  1  0  0  0
 38 47  1  0  0  0
 39 64  1  0  0  0
 39 67  2  0  0  0
 40 52  1  0  0  0
 40 53  2  0  0  0
 40 58  1  0  0  0
 41102  1  0  0  0
 41103  1  0  0  0
 41104  1  0  0  0
 41 48  1  0  0  0
 42 43  1  0  0  0
 42 66  1  0  0  0
 42105  1  0  0  0
 42106  1  0  0  0
 43 44  1  0  0  0
 44107  1  0  0  0
 45 46  2  0  0  0
 45108  1  0  0  0
 46109  1  0  0  0
 47110  1  0  0  0
 47111  1  0  0  0
 48 56  1  0  0  0
 48 65  1  0  0  0
 48112  1  0  0  0
 49 50  1  0  0  0
 49 53  1  0  0  0
 49 64  1  0  0  0
 49113  1  0  0  0
 50 51  1  0  0  0
 50114  1  0  0  0
 50115  1  0  0  0
 51 52  1  0  0  0
 51116  1  0  0  0
 51117  1  0  0  0
 52118  1  0  0  0
 52119  1  0  0  0
 53 54  1  0  0  0
 54 55  2  0  0  0
 54120  1  0  0  0
 55 57  1  0  0  0
 55121  1  0  0  0
 56 69  2  0  0  0
 57 58  2  0  0  0
 57122  1  0  0  0
 58123  1  0  0  0
 59 60  1  0  0  0
 59 61  1  0  0  0
 59 62  1  0  0  0
 60124  1  0  0  0
 60125  1  0  0  0
 60126  1  0  0  0
 61127  1  0  0  0
 61128  1  0  0  0
 61129  1  0  0  0
 62130  1  0  0  0
 62131  1  0  0  0
 62132  1  0  0  0
 63 65  1  0  0  0
 63133  1  0  0  0
 63134  1  0  0  0
 63135  1  0  0  0
 64136  1  0  0  0
 65137  1  0  0  0
 68 77  1  0  0  0
 71 73  2  0  0  0
 71 75  1  0  0  0
 71138  1  0  0  0
 72 74  1  0  0  0
 72 75  2  0  0  0
 72139  1  0  0  0
 73 76  1  0  0  0
 73140  1  0  0  0
 74 76  2  0  0  0
 74141  1  0  0  0
 75 77  1  0  0  0
 76 78  1  0  0  0
 77142  1  0  0  0
 77143  1  0  0  0
 78144  1  0  0  0
M  ISO  4   1 100  68 101  77 101  78 100
M  END
> <chiral flag>
0

> <version>
0

> <s_m_source_file>
/data/baiqing/PycharmProjects/Reinvent-master-3.2/result/LINK_invent/BTK/process_docking_weight1_custom_product_contain_oxygen_bond_distance_aromatic_linkinvent_7_9_3/rearranged_h_0026.sdf

> <i_m_source_file_index>
74

> <r_mmod_Potential_Energy-OPLS-2005>
2267.25439453125

> <r_mmod_Stretch_Energy-OPLS-2005>
909.600280761719

> <r_mmod_Bend_Energy-OPLS-2005>
657.110290527344

> <r_mmod_Torsional_Energy-OPLS-2005>
259.846252441406

> <r_mmod_Improper_Torsional_Energy-OPLS-2005>
10.6979417800903

> <r_mmod_Van_der_Waal_Energy-OPLS-2005>
132.425323486328

> <r_mmod_Electrostatic_Energy-OPLS-2005>
-345.95654296875

> <r_mmod_Solvation_Energy-OPLS-2005>
-215.57307434082

> <b_mmod_Minimization_Converged-OPLS-2005>
0

> <r_mmod_RMS_Derivative-OPLS-2005>
0.113339096307755

$$$$
74
                    3D
 Structure written by MMmdl.
169179  0  0  1  0            999 V2000
  -30.4671  -15.0445   20.4971 C   0  0  0  0  0  0
  -30.4655  -12.6826   19.4833 C   0  0  0  0  0  0
  -29.5261  -12.5935   18.2505 C   0  0  0  0  0  0
  -28.0561  -12.3527   18.6563 C   0  0  0  0  0  0
  -27.6386  -13.2375   19.8570 C   0  0  2  0  0  0
  -28.6943  -13.1379   20.9720 C   0  0  0  0  0  0
  -25.2473  -13.8174   20.5656 C   0  0  0  0  0  0
  -24.1783  -13.0415   20.9196 C   0  0  0  0  0  0
  -24.6397  -11.6902   20.8747 C   0  0  0  0  0  0
  -23.9070  -10.4281   21.0407 C   0  0  0  0  0  0
  -24.3618   -9.4198   21.9184 C   0  0  0  0  0  0
  -23.6290   -8.2236   22.0753 C   0  0  0  0  0  0
  -22.4272   -8.0278   21.3541 C   0  0  0  0  0  0
  -21.9909   -9.0252   20.4644 C   0  0  0  0  0  0
  -22.7242  -10.2128   20.3058 C   0  0  0  0  0  0
  -21.6853   -6.0735   22.5278 C   0  0  0  0  0  0
  -21.4015   -6.5640   23.8212 C   0  0  0  0  0  0
  -21.3657   -5.6789   24.9174 C   0  0  0  0  0  0
  -21.6045   -4.3051   24.7223 C   0  0  0  0  0  0
  -21.8820   -3.8147   23.4343 C   0  0  0  0  0  0
  -21.9196   -4.6964   22.3400 C   0  0  0  0  0  0
  -22.7809  -13.5203   21.1862 C   0  0  0  0  0  0
  -22.1663   -4.2154   21.0975 F   0  0  0  0  0  0
  -21.5629   -3.4534   25.7732 F   0  0  0  0  0  0
  -29.9353  -13.7298   20.4221 N   0  0  0  0  0  0
  -26.2925  -12.9387   20.3312 N   0  0  0  0  0  0
  -25.9336  -11.6527   20.5760 N   0  0  0  0  0  0
  -22.0467  -12.8195   22.0429 N   0  0  0  0  0  0
  -25.4095  -15.1893   20.3980 N   0  0  0  0  0  0
  -31.6324  -15.1467   20.0872 O   0  0  0  0  0  0
  -21.6639   -6.8873   21.4236 O   0  0  0  0  0  0
  -22.3490  -14.5509   20.6715 O   0  0  0  0  0  0
  -24.6477  -31.8383   23.1816 C   0  0  0  0  0  0
  -25.9224  -32.4669   23.8231 C   0  0  1  0  0  0
  -27.2269  -27.0913   20.1584 C   0  0  0  0  0  0
  -25.5951  -33.8476   24.2152 N   0  0  0  0  0  0
  -23.4543  -30.4529   21.5288 C   0  0  2  0  0  0
  -24.9061  -28.8644   20.1143 C   0  0  0  0  0  0
  -22.7588  -29.4513   22.4852 C   0  0  0  0  0  0
  -18.0307  -28.1397   22.8473 C   0  0  0  0  0  0
  -24.1491  -36.7242   23.2643 C   0  0  0  0  0  0
  -26.0130  -30.6981   21.3853 C   0  0  0  0  0  0
  -26.0858  -29.3029   20.7295 C   0  0  0  0  0  0
  -27.2472  -28.4352   20.7265 C   0  0  0  0  0  0
  -26.0192  -26.7579   19.5106 C   0  0  0  0  0  0
  -24.8880  -27.6069   19.4888 C   0  0  0  0  0  0
  -23.6837  -29.7722   20.1526 C   0  0  0  0  0  0
  -25.4128  -36.3015   24.0310 C   0  0  1  0  0  0
  -20.5921  -28.3725   23.1229 C   0  0  2  0  0  0
  -20.6787  -26.9423   22.5409 C   0  0  0  0  0  0
  -19.5764  -26.6379   21.5214 C   0  0  0  0  0  0
  -18.1944  -26.7936   22.1619 C   0  0  0  0  0  0
  -19.1563  -28.8882   23.2841 C   0  0  0  0  0  0
  -18.9478  -30.1476   23.8870 C   0  0  0  0  0  0
  -17.6475  -30.6593   24.0558 C   0  0  0  0  0  0
  -25.9080  -34.9394   23.5046 C   0  0  0  0  0  0
  -16.5367  -29.9082   23.6339 C   0  0  0  0  0  0
  -16.7292  -28.6501   23.0360 C   0  0  0  0  0  0
  -26.4526  -31.6555   25.0698 C   0  0  0  0  0  0
  -25.3692  -31.3762   26.1382 C   0  0  0  0  0  0
  -27.0398  -30.2944   24.6314 C   0  0  0  0  0  0
  -27.6050  -32.4328   25.7489 C   0  0  0  0  0  0
  -27.5577  -37.1777   24.8464 C   0  0  0  0  0  0
  -21.4276  -29.3038   22.3598 N   0  0  0  0  0  0
  -26.4288  -37.3735   23.9405 N   0  0  0  0  0  0
  -24.7252  -31.0189   22.0870 N   0  0  0  0  0  0
  -23.4207  -28.8078   23.3035 O   0  0  0  0  0  0
  -28.2868  -26.0993   20.1972 O   0  0  0  0  0  0
  -26.5679  -34.8901   22.4634 O   0  0  0  0  0  0
  -23.5583  -32.1279   23.7008 O   0  0  0  0  0  0
  -30.3325  -18.7896   21.3274 C   0  0  0  0  0  0
  -28.5824  -19.8154   19.5074 C   0  0  0  0  0  0
  -30.0325  -20.2297   21.2581 C   0  0  0  0  0  0
  -29.0950  -20.8783   20.3523 C   0  0  0  0  0  0
  -29.7364  -17.7431   20.5294 C   0  0  0  0  0  0
  -28.8479  -18.3730   19.5877 C   0  0  0  0  0  0
  -28.6237  -17.3150   24.2070 C   0  0  0  0  0  0
  -28.3530  -17.1598   22.9024 C   0  0  0  0  0  0
  -32.4553  -20.9956   23.7661 C   0  0  0  0  0  0
  -31.1889  -21.4804   24.4671 C   0  0  0  0  0  0
  -32.0990  -21.0609   22.2770 C   0  0  0  0  0  0
  -30.0880  -20.9614   23.5495 C   0  0  0  0  0  0
  -28.2959  -23.3592   19.2653 C   0  0  0  0  0  0
  -29.0100  -23.5581   21.1916 C   0  0  0  0  0  0
  -28.0522  -24.5399   20.3448 C   0  0  0  0  0  0
  -28.8104  -15.9730   22.0659 C   0  0  0  0  0  0
  -30.6391  -21.0717   22.2050 N   0  0  0  0  0  0
  -28.6180  -22.3760   20.3563 N   0  0  0  0  0  0
  -29.7058  -16.2221   20.9094 N   0  0  0  0  0  0
  -28.1435  -17.5593   18.7648 F   0  0  0  0  0  0
  -31.4778  -12.9103   19.1478 H   0  0  0  0  0  0
  -30.5536  -11.7139   19.9770 H   0  0  0  0  0  0
  -29.8640  -11.8107   17.5701 H   0  0  0  0  0  0
  -29.5883  -13.5293   17.6929 H   0  0  0  0  0  0
  -27.9506  -11.3002   18.9222 H   0  0  0  0  0  0
  -27.3909  -12.5218   17.8084 H   0  0  0  0  0  0
  -27.6276  -14.2665   19.4963 H   0  0  0  0  0  0
  -28.8413  -12.0887   21.2333 H   0  0  0  0  0  0
  -28.3510  -13.5468   21.9123 H   0  0  0  0  0  0
  -25.2767   -9.5677   22.4750 H   0  0  0  0  0  0
  -24.0004   -7.4630   22.7474 H   0  0  0  0  0  0
  -21.0839   -8.8773   19.8948 H   0  0  0  0  0  0
  -22.3709  -10.9664   19.6161 H   0  0  0  0  0  0
  -21.2008   -7.6150   23.9717 H   0  0  0  0  0  0
  -21.1475   -6.0518   25.9076 H   0  0  0  0  0  0
  -22.0601   -2.7611   23.2844 H   0  0  0  0  0  0
  -22.4091  -11.9864   22.4824 H   0  0  0  0  0  0
  -21.1084  -13.1213   22.2637 H   0  0  0  0  0  0
  -24.6309  -15.8328   20.4861 H   0  0  0  0  0  0
  -26.2509  -15.6311   20.0492 H   0  0  0  0  0  0
  -26.7296  -32.5260   23.0958 H   0  0  0  0  0  0
  -25.0057  -33.9579   25.0272 H   0  0  0  0  0  0
  -22.7590  -31.2793   21.3672 H   0  0  0  0  0  0
  -23.3763  -35.9563   23.3285 H   0  0  0  0  0  0
  -24.3575  -36.8901   22.2062 H   0  0  0  0  0  0
  -23.7239  -37.6425   23.6703 H   0  0  0  0  0  0
  -26.1714  -31.4489   20.6099 H   0  0  0  0  0  0
  -26.8817  -30.7528   22.0303 H   0  0  0  0  0  0
  -28.1489  -28.7707   21.2190 H   0  0  0  0  0  0
  -25.9321  -25.7939   19.0301 H   0  0  0  0  0  0
  -23.9878  -27.2649   18.9971 H   0  0  0  0  0  0
  -23.8221  -30.5412   19.3919 H   0  0  0  0  0  0
  -22.7982  -29.2136   19.8447 H   0  0  0  0  0  0
  -25.1320  -36.1834   25.0804 H   0  0  0  0  0  0
  -21.0007  -28.3319   24.1352 H   0  0  0  0  0  0
  -20.5668  -26.2340   23.3634 H   0  0  0  0  0  0
  -21.6653  -26.7416   22.1216 H   0  0  0  0  0  0
  -19.6923  -25.6281   21.1263 H   0  0  0  0  0  0
  -19.6706  -27.3172   20.6732 H   0  0  0  0  0  0
  -17.4215  -26.6685   21.4020 H   0  0  0  0  0  0
  -18.0335  -26.0084   22.9021 H   0  0  0  0  0  0
  -19.7954  -30.7302   24.2222 H   0  0  0  0  0  0
  -17.5027  -31.6270   24.5163 H   0  0  0  0  0  0
  -15.5363  -30.2975   23.7680 H   0  0  0  0  0  0
  -15.8693  -28.0814   22.7091 H   0  0  0  0  0  0
  -24.5894  -30.7086   25.7699 H   0  0  0  0  0  0
  -24.8855  -32.2949   26.4710 H   0  0  0  0  0  0
  -25.7959  -30.9003   27.0220 H   0  0  0  0  0  0
  -26.3028  -29.6656   24.1308 H   0  0  0  0  0  0
  -27.3975  -29.7260   25.4908 H   0  0  0  0  0  0
  -27.8945  -30.4164   23.9661 H   0  0  0  0  0  0
  -27.2644  -33.3657   26.1991 H   0  0  0  0  0  0
  -28.3899  -32.6840   25.0345 H   0  0  0  0  0  0
  -28.0673  -31.8502   26.5466 H   0  0  0  0  0  0
  -28.2580  -38.0085   24.7514 H   0  0  0  0  0  0
  -28.1085  -36.2615   24.6286 H   0  0  0  0  0  0
  -27.2296  -37.1417   25.8866 H   0  0  0  0  0  0
  -20.9502  -29.8733   21.6754 H   0  0  0  0  0  0
  -26.0147  -38.2799   24.1414 H   0  0  0  0  0  0
  -30.9805  -18.4577   22.1256 H   0  0  0  0  0  0
  -27.8521  -20.1120   18.7698 H   0  0  0  0  0  0
  -28.2602  -18.1765   24.7489 H   0  0  0  0  0  0
  -29.2088  -16.5911   24.7556 H   0  0  0  0  0  0
  -27.7589  -17.9124   22.4013 H   0  0  0  0  0  0
  -32.6615  -19.9627   24.0507 H   0  0  0  0  0  0
  -33.3337  -21.5916   24.0171 H   0  0  0  0  0  0
  -31.1695  -22.5715   24.4941 H   0  0  0  0  0  0
  -31.0939  -21.1151   25.4909 H   0  0  0  0  0  0
  -32.5603  -20.2451   21.7177 H   0  0  0  0  0  0
  -32.4687  -21.9931   21.8469 H   0  0  0  0  0  0
  -29.1682  -21.5379   23.6577 H   0  0  0  0  0  0
  -29.8585  -19.9222   23.7898 H   0  0  0  0  0  0
  -29.1488  -23.5438   18.6095 H   0  0  0  0  0  0
  -27.4055  -23.1049   18.6896 H   0  0  0  0  0  0
  -28.7227  -23.4701   22.2398 H   0  0  0  0  0  0
  -30.0710  -23.7954   21.0938 H   0  0  0  0  0  0
  -27.0421  -24.4253   20.7423 H   0  0  0  0  0  0
  -27.8804  -15.5588   21.6841 H   0  0  0  0  0  0
  -29.2679  -15.2618   22.7566 H   0  0  0  0  0  0
  1 25  1  0  0  0
  1 30  2  0  0  0
  1 89  1  0  0  0
  2  3  1  0  0  0
  2 25  1  0  0  0
  2 91  1  0  0  0
  2 92  1  0  0  0
  3  4  1  0  0  0
  3 93  1  0  0  0
  3 94  1  0  0  0
  4  5  1  0  0  0
  4 95  1  0  0  0
  4 96  1  0  0  0
  5  6  1  0  0  0
  5 26  1  0  0  0
  5 97  1  0  0  0
  6 25  1  0  0  0
  6 98  1  0  0  0
  6 99  1  0  0  0
  7  8  2  0  0  0
  7 26  1  0  0  0
  7 29  1  0  0  0
  8  9  1  0  0  0
  8 22  1  0  0  0
  9 10  1  0  0  0
  9 27  2  0  0  0
 10 11  2  0  0  0
 10 15  1  0  0  0
 11 12  1  0  0  0
 11100  1  0  0  0
 12 13  2  0  0  0
 12101  1  0  0  0
 13 14  1  0  0  0
 13 31  1  0  0  0
 14 15  2  0  0  0
 14102  1  0  0  0
 15103  1  0  0  0
 16 17  2  0  0  0
 16 21  1  0  0  0
 16 31  1  0  0  0
 17 18  1  0  0  0
 17104  1  0  0  0
 18 19  2  0  0  0
 18105  1  0  0  0
 19 20  1  0  0  0
 19 24  1  0  0  0
 20 21  2  0  0  0
 20106  1  0  0  0
 21 23  1  0  0  0
 22 28  1  0  0  0
 22 32  2  0  0  0
 26 27  1  0  0  0
 28107  1  0  0  0
 28108  1  0  0  0
 29109  1  0  0  0
 29110  1  0  0  0
 33 34  1  0  0  0
 33 66  1  0  0  0
 33 70  2  0  0  0
 34 36  1  0  0  0
 34 59  1  0  0  0
 34111  1  0  0  0
 35 44  2  0  0  0
 35 45  1  0  0  0
 35 68  1  0  0  0
 36 56  1  0  0  0
 36112  1  0  0  0
 37 39  1  0  0  0
 37 47  1  0  0  0
 37 66  1  0  0  0
 37113  1  0  0  0
 38 43  2  0  0  0
 38 46  1  0  0  0
 38 47  1  0  0  0
 39 64  1  0  0  0
 39 67  2  0  0  0
 40 52  1  0  0  0
 40 53  2  0  0  0
 40 58  1  0  0  0
 41114  1  0  0  0
 41115  1  0  0  0
 41116  1  0  0  0
 41 48  1  0  0  0
 42 43  1  0  0  0
 42 66  1  0  0  0
 42117  1  0  0  0
 42118  1  0  0  0
 43 44  1  0  0  0
 44119  1  0  0  0
 45 46  2  0  0  0
 45120  1  0  0  0
 46121  1  0  0  0
 47122  1  0  0  0
 47123  1  0  0  0
 48 56  1  0  0  0
 48 65  1  0  0  0
 48124  1  0  0  0
 49 50  1  0  0  0
 49 53  1  0  0  0
 49 64  1  0  0  0
 49125  1  0  0  0
 50 51  1  0  0  0
 50126  1  0  0  0
 50127  1  0  0  0
 51 52  1  0  0  0
 51128  1  0  0  0
 51129  1  0  0  0
 52130  1  0  0  0
 52131  1  0  0  0
 53 54  1  0  0  0
 54 55  2  0  0  0
 54132  1  0  0  0
 55 57  1  0  0  0
 55133  1  0  0  0
 56 69  2  0  0  0
 57 58  2  0  0  0
 57134  1  0  0  0
 58135  1  0  0  0
 59 60  1  0  0  0
 59 61  1  0  0  0
 59 62  1  0  0  0
 60136  1  0  0  0
 60137  1  0  0  0
 60138  1  0  0  0
 61139  1  0  0  0
 61140  1  0  0  0
 61141  1  0  0  0
 62142  1  0  0  0
 62143  1  0  0  0
 62144  1  0  0  0
 63 65  1  0  0  0
 63145  1  0  0  0
 63146  1  0  0  0
 63147  1  0  0  0
 64148  1  0  0  0
 65149  1  0  0  0
 68 85  1  0  0  0
 71 73  2  0  0  0
 71 75  1  0  0  0
 71150  1  0  0  0
 72 74  2  0  0  0
 72 76  1  0  0  0
 72151  1  0  0  0
 73 74  1  0  0  0
 73 87  1  0  0  0
 74 88  1  0  0  0
 75 76  2  0  0  0
 75 89  1  0  0  0
 76 90  1  0  0  0
 77 78  2  0  0  0
 77152  1  0  0  0
 77153  1  0  0  0
 78 86  1  0  0  0
 78154  1  0  0  0
 79 80  1  0  0  0
 79 81  1  0  0  0
 79155  1  0  0  0
 79156  1  0  0  0
 80 82  1  0  0  0
 80157  1  0  0  0
 80158  1  0  0  0
 81 87  1  0  0  0
 81159  1  0  0  0
 81160  1  0  0  0
 82 87  1  0  0  0
 82161  1  0  0  0
 82162  1  0  0  0
 83 85  1  0  0  0
 83 88  1  0  0  0
 83163  1  0  0  0
 83164  1  0  0  0
 84 85  1  0  0  0
 84 88  1  0  0  0
 84165  1  0  0  0
 84166  1  0  0  0
 85167  1  0  0  0
 86 89  1  0  0  0
 86168  1  0  0  0
 86169  1  0  0  0
M  ISO  4   1 100  68 101  85 101  89 100
M  END
> <chiral flag>
0

> <version>
0

> <s_m_source_file>
/data/baiqing/PycharmProjects/Reinvent-master-3.2/result/LINK_invent/BTK/process_docking_weight1_custom_product_contain_oxygen_bond_distance_aromatic_linkinvent_7_9_3/rearranged_h_0026.sdf

> <i_m_source_file_index>
75

> <r_mmod_Potential_Energy-OPLS-2005>
1016.44732666016

> <r_mmod_Stretch_Energy-OPLS-2005>
300.349884033203

> <r_mmod_Bend_Energy-OPLS-2005>
422.330078125

> <r_mmod_Torsional_Energy-OPLS-2005>
417.854675292969

> <r_mmod_Improper_Torsional_Energy-OPLS-2005>
16.1856288909912

> <r_mmod_Van_der_Waal_Energy-OPLS-2005>
144.095886230469

> <r_mmod_Electrostatic_Energy-OPLS-2005>
-306.016540527344

> <r_mmod_Solvation_Energy-OPLS-2005>
-216.012405395508

> <b_mmod_Minimization_Converged-OPLS-2005>
0

> <r_mmod_RMS_Derivative-OPLS-2005>
0.953902721405029

$$$$
75
                    3D
 Structure written by MMmdl.
194205  0  0  1  0            999 V2000
  -30.6296  -14.8054   20.3290 C   0  0  0  0  0  0
  -30.4438  -12.4916   19.4360 C   0  0  0  0  0  0
  -29.4955  -12.4109   18.2214 C   0  0  0  0  0  0
  -28.0311  -12.2516   18.6707 C   0  0  0  0  0  0
  -27.6298  -13.2223   19.8122 C   0  0  2  0  0  0
  -28.6937  -13.2629   20.9281 C   0  0  0  0  0  0
  -25.2564  -13.8099   20.5687 C   0  0  0  0  0  0
  -24.1844  -13.0392   20.9257 C   0  0  0  0  0  0
  -24.6398  -11.6876   20.8815 C   0  0  0  0  0  0
  -23.9042  -10.4280   21.0443 C   0  0  0  0  0  0
  -24.3601   -9.4187   21.9200 C   0  0  0  0  0  0
  -23.6309   -8.2202   22.0738 C   0  0  0  0  0  0
  -22.4300   -8.0248   21.3501 C   0  0  0  0  0  0
  -21.9917   -9.0229   20.4613 C   0  0  0  0  0  0
  -22.7226  -10.2131   20.3060 C   0  0  0  0  0  0
  -21.6859   -6.0752   22.5285 C   0  0  0  0  0  0
  -21.4007   -6.5645   23.8217 C   0  0  0  0  0  0
  -21.3665   -5.6786   24.9166 C   0  0  0  0  0  0
  -21.6064   -4.3052   24.7220 C   0  0  0  0  0  0
  -21.8827   -3.8158   23.4334 C   0  0  0  0  0  0
  -21.9182   -4.6979   22.3399 C   0  0  0  0  0  0
  -22.7873  -13.5235   21.1855 C   0  0  0  0  0  0
  -22.1656   -4.2154   21.0980 F   0  0  0  0  0  0
  -21.5621   -3.4545   25.7739 F   0  0  0  0  0  0
  -29.9696  -13.5986   20.2862 N   0  0  0  0  0  0
  -26.2946  -12.9299   20.3225 N   0  0  0  0  0  0
  -25.9330  -11.6468   20.5836 N   0  0  0  0  0  0
  -22.0457  -12.8277   22.0381 N   0  0  0  0  0  0
  -25.4225  -15.1789   20.4021 N   0  0  0  0  0  0
  -31.8541  -14.8164   20.4417 O   0  0  0  0  0  0
  -21.6634   -6.8888   21.4237 O   0  0  0  0  0  0
  -22.3621  -14.5555   20.6679 O   0  0  0  0  0  0
  -24.6283  -31.8573   23.1993 C   0  0  0  0  0  0
  -25.9125  -32.4775   23.8339 C   0  0  1  0  0  0
  -27.2362  -27.2915   20.1200 C   0  0  0  0  0  0
  -25.5924  -33.8562   24.2268 N   0  0  0  0  0  0
  -23.4263  -30.4774   21.5403 C   0  0  2  0  0  0
  -24.8778  -28.9268   20.1132 C   0  0  0  0  0  0
  -22.7481  -29.4617   22.4901 C   0  0  0  0  0  0
  -18.0289  -28.1429   22.8500 C   0  0  0  0  0  0
  -24.1488  -36.7265   23.2641 C   0  0  0  0  0  0
  -25.9690  -30.7757   21.3790 C   0  0  0  0  0  0
  -26.0466  -29.4021   20.7214 C   0  0  0  0  0  0
  -27.2304  -28.5960   20.7134 C   0  0  0  0  0  0
  -26.0441  -26.8830   19.4752 C   0  0  0  0  0  0
  -24.8800  -27.6749   19.4817 C   0  0  0  0  0  0
  -23.6449  -29.8075   20.1578 C   0  0  0  0  0  0
  -25.4125  -36.3068   24.0333 C   0  0  1  0  0  0
  -20.5906  -28.3698   23.1276 C   0  0  2  0  0  0
  -20.6786  -26.9416   22.5391 C   0  0  0  0  0  0
  -19.5739  -26.6405   21.5210 C   0  0  0  0  0  0
  -18.1927  -26.7962   22.1631 C   0  0  0  0  0  0
  -19.1555  -28.8883   23.2884 C   0  0  0  0  0  0
  -18.9466  -30.1505   23.8890 C   0  0  0  0  0  0
  -17.6461  -30.6612   24.0583 C   0  0  0  0  0  0
  -25.9057  -34.9448   23.5095 C   0  0  0  0  0  0
  -16.5352  -29.9107   23.6379 C   0  0  0  0  0  0
  -16.7278  -28.6534   23.0383 C   0  0  0  0  0  0
  -26.4498  -31.6606   25.0731 C   0  0  0  0  0  0
  -25.3720  -31.3742   26.1449 C   0  0  0  0  0  0
  -27.0349  -30.3027   24.6221 C   0  0  0  0  0  0
  -27.6061  -32.4334   25.7473 C   0  0  0  0  0  0
  -27.5585  -37.1800   24.8466 C   0  0  0  0  0  0
  -21.4193  -29.3044   22.3651 N   0  0  0  0  0  0
  -26.4290  -37.3780   23.9416 N   0  0  0  0  0  0
  -24.6928  -31.0543   22.0979 N   0  0  0  0  0  0
  -23.4166  -28.8171   23.3026 O   0  0  0  0  0  0
  -28.3438  -26.4121   20.1536 O   0  0  0  0  0  0
  -26.5589  -34.8891   22.4659 O   0  0  0  0  0  0
  -23.5447  -32.1369   23.7323 O   0  0  0  0  0  0
  -28.3312  -18.3260   18.3526 C   0  0  0  0  0  0
  -27.2479  -19.0974   17.9026 C   0  0  0  0  0  0
  -28.9378  -18.5076   19.6244 C   0  0  0  0  0  0
  -28.4806  -19.7310   20.3050 C   0  0  0  0  0  0
  -27.1048  -20.0586   20.1080 C   0  0  0  0  0  0
  -26.5554  -19.9214   18.8076 C   0  0  0  0  0  0
  -23.4306  -21.0434   17.1403 C   0  0  0  0  0  0
  -23.9427  -22.3302   17.8018 C   0  0  0  0  0  0
  -22.6801  -19.3545   22.0052 C   0  0  0  0  0  0
  -23.3483  -18.0509   21.5343 C   0  0  0  0  0  0
  -31.0757  -16.8045   17.5083 C   0  0  0  0  0  0
  -31.3465  -15.3310   17.4726 C   0  0  0  0  0  0
  -24.5381  -20.0135   17.3651 C   0  0  0  0  0  0
  -25.3489  -21.9832   18.2924 C   0  0  0  0  0  0
  -23.7969  -20.4097   22.0285 C   0  0  0  0  0  0
  -24.8387  -18.3867   21.4118 C   0  0  0  0  0  0
  -30.1309  -15.8554   18.2411 C   0  0  0  0  0  0
  -27.8809  -25.0796   22.1010 C   0  0  0  0  0  0
  -29.9309  -17.3696   20.2198 C   0  0  0  0  0  0
  -26.2038  -20.4923   21.2828 C   0  0  0  0  0  0
  -29.3741  -21.0578   20.4407 C   0  0  0  0  0  0
  -29.1504  -23.7929   20.2748 C   0  0  0  0  0  0
  -28.1104  -24.9948   20.5837 C   0  0  2  0  0  0
  -25.3300  -20.5360   18.4731 N   0  0  0  0  0  0
  -30.0299  -15.9018   19.6899 N   0  0  0  0  0  0
  -24.8730  -19.8437   21.1973 N   0  3  0  0  0  0
  -28.5993  -22.3836   20.5614 N   0  3  0  0  0  0
  -31.4671  -12.6544   19.0922 H   0  0  0  0  0  0
  -30.4542  -11.5588   19.9940 H   0  0  0  0  0  0
  -29.7874  -11.5663   17.5970 H   0  0  0  0  0  0
  -29.5904  -13.2916   17.5916 H   0  0  0  0  0  0
  -27.9201  -11.2235   19.0134 H   0  0  0  0  0  0
  -27.3510  -12.3564   17.8245 H   0  0  0  0  0  0
  -27.5886  -14.2128   19.3574 H   0  0  0  0  0  0
  -28.7623  -12.3081   21.4514 H   0  0  0  0  0  0
  -28.4304  -14.0199   21.6680 H   0  0  0  0  0  0
  -25.2735   -9.5707   22.4775 H   0  0  0  0  0  0
  -24.0035   -7.4628   22.7471 H   0  0  0  0  0  0
  -21.0835   -8.8783   19.8939 H   0  0  0  0  0  0
  -22.3682  -10.9700   19.6196 H   0  0  0  0  0  0
  -21.1996   -7.6155   23.9744 H   0  0  0  0  0  0
  -21.1480   -6.0492   25.9083 H   0  0  0  0  0  0
  -22.0609   -2.7617   23.2831 H   0  0  0  0  0  0
  -22.4047  -11.9939   22.4806 H   0  0  0  0  0  0
  -21.1071  -13.1345   22.2534 H   0  0  0  0  0  0
  -24.6066  -15.7762   20.4061 H   0  0  0  0  0  0
  -26.2484  -15.6069   20.0046 H   0  0  0  0  0  0
  -26.7195  -32.5407   23.1084 H   0  0  0  0  0  0
  -25.0105  -33.9698   25.0429 H   0  0  0  0  0  0
  -22.7243  -31.3018   21.3959 H   0  0  0  0  0  0
  -23.3753  -35.9590   23.3289 H   0  0  0  0  0  0
  -24.3574  -36.8882   22.2050 H   0  0  0  0  0  0
  -23.7210  -37.6459   23.6659 H   0  0  0  0  0  0
  -26.1012  -31.5374   20.6103 H   0  0  0  0  0  0
  -26.8490  -30.8234   22.0119 H   0  0  0  0  0  0
  -28.1258  -28.9566   21.2000 H   0  0  0  0  0  0
  -25.9923  -25.9401   18.9536 H   0  0  0  0  0  0
  -23.9856  -27.3108   18.9873 H   0  0  0  0  0  0
  -23.7626  -30.5806   19.3976 H   0  0  0  0  0  0
  -22.7661  -29.2328   19.8558 H   0  0  0  0  0  0
  -25.1312  -36.1904   25.0825 H   0  0  0  0  0  0
  -21.0028  -28.3262   24.1387 H   0  0  0  0  0  0
  -20.5729  -26.2293   23.3591 H   0  0  0  0  0  0
  -21.6648  -26.7470   22.1172 H   0  0  0  0  0  0
  -19.6847  -25.6301   21.1268 H   0  0  0  0  0  0
  -19.6698  -27.3204   20.6734 H   0  0  0  0  0  0
  -17.4208  -26.6772   21.4015 H   0  0  0  0  0  0
  -18.0299  -26.0096   22.9030 H   0  0  0  0  0  0
  -19.7930  -30.7378   24.2220 H   0  0  0  0  0  0
  -17.4993  -31.6288   24.5203 H   0  0  0  0  0  0
  -15.5351  -30.3009   23.7723 H   0  0  0  0  0  0
  -15.8676  -28.0868   22.7102 H   0  0  0  0  0  0
  -24.5912  -30.7072   25.7761 H   0  0  0  0  0  0
  -24.8880  -32.2895   26.4855 H   0  0  0  0  0  0
  -25.8041  -30.8926   27.0226 H   0  0  0  0  0  0
  -26.2921  -29.6752   24.1274 H   0  0  0  0  0  0
  -27.4041  -29.7325   25.4752 H   0  0  0  0  0  0
  -27.8800  -30.4295   23.9452 H   0  0  0  0  0  0
  -27.2725  -33.3671   26.2000 H   0  0  0  0  0  0
  -28.3894  -32.6823   25.0308 H   0  0  0  0  0  0
  -28.0701  -31.8472   26.5410 H   0  0  0  0  0  0
  -28.2622  -38.0090   24.7557 H   0  0  0  0  0  0
  -28.1078  -36.2628   24.6279 H   0  0  0  0  0  0
  -27.2294  -37.1424   25.8866 H   0  0  0  0  0  0
  -20.9373  -29.8717   21.6825 H   0  0  0  0  0  0
  -26.0154  -38.2838   24.1463 H   0  0  0  0  0  0
  -28.6360  -17.5843   17.6478 H   0  0  0  0  0  0
  -26.8868  -18.9280   16.8993 H   0  0  0  0  0  0
  -23.2372  -21.1791   16.0757 H   0  0  0  0  0  0
  -22.5007  -20.7162   17.6073 H   0  0  0  0  0  0
  -23.3039  -22.5926   18.6466 H   0  0  0  0  0  0
  -23.9497  -23.1849   17.1229 H   0  0  0  0  0  0
  -22.2130  -19.2436   22.9851 H   0  0  0  0  0  0
  -21.8951  -19.6431   21.3036 H   0  0  0  0  0  0
  -22.9511  -17.7617   20.5597 H   0  0  0  0  0  0
  -23.1721  -17.2156   22.2140 H   0  0  0  0  0  0
  -30.7217  -17.2680   16.5885 H   0  0  0  0  0  0
  -31.7837  -17.3991   18.0837 H   0  0  0  0  0  0
  -32.2350  -14.9935   17.9973 H   0  0  0  0  0  0
  -31.1638  -14.8235   16.5282 H   0  0  0  0  0  0
  -25.1321  -19.9470   16.4528 H   0  0  0  0  0  0
  -24.1352  -19.0230   17.5827 H   0  0  0  0  0  0
  -25.5899  -22.5342   19.2024 H   0  0  0  0  0  0
  -26.0886  -22.2543   17.5362 H   0  0  0  0  0  0
  -24.1548  -20.5525   23.0492 H   0  0  0  0  0  0
  -23.4664  -21.3789   21.6502 H   0  0  0  0  0  0
  -25.3211  -17.8547   20.5924 H   0  0  0  0  0  0
  -25.3574  -18.1268   22.3370 H   0  0  0  0  0  0
  -29.1992  -15.5895   17.7444 H   0  0  0  0  0  0
  -27.6532  -24.1113   22.5419 H   0  0  0  0  0  0
  -27.0444  -25.7370   22.3364 H   0  0  0  0  0  0
  -28.7639  -25.4741   22.5995 H   0  0  0  0  0  0
  -29.7026  -17.2999   21.2844 H   0  0  0  0  0  0
  -30.9375  -17.7919   20.1883 H   0  0  0  0  0  0
  -26.0599  -21.5707   21.2642 H   0  0  0  0  0  0
  -26.6752  -20.2494   22.2376 H   0  0  0  0  0  0
  -29.9959  -21.1241   19.5456 H   0  0  0  0  0  0
  -30.0616  -20.9680   21.2830 H   0  0  0  0  0  0
  -30.0686  -23.9494   20.8429 H   0  0  0  0  0  0
  -29.4332  -23.8444   19.2238 H   0  0  0  0  0  0
  -27.1875  -24.6539   20.1226 H   0  0  0  0  0  0
  -24.5993  -19.9918   20.2286 H   0  0  0  0  0  0
  -28.2611  -22.4051   21.5083 H   0  0  0  0  0  0
  -27.8192  -22.2737   19.9375 H   0  0  0  0  0  0
  1 25  1  0  0  0
  1 30  2  0  0  0
  1 95  1  0  0  0
  2  3  1  0  0  0
  2 25  1  0  0  0
  2 98  1  0  0  0
  2 99  1  0  0  0
  3  4  1  0  0  0
  3100  1  0  0  0
  3101  1  0  0  0
  4  5  1  0  0  0
  4102  1  0  0  0
  4103  1  0  0  0
  5  6  1  0  0  0
  5 26  1  0  0  0
  5104  1  0  0  0
  6 25  1  0  0  0
  6105  1  0  0  0
  6106  1  0  0  0
  7  8  2  0  0  0
  7 26  1  0  0  0
  7 29  1  0  0  0
  8  9  1  0  0  0
  8 22  1  0  0  0
  9 10  1  0  0  0
  9 27  2  0  0  0
 10 11  2  0  0  0
 10 15  1  0  0  0
 11 12  1  0  0  0
 11107  1  0  0  0
 12 13  2  0  0  0
 12108  1  0  0  0
 13 14  1  0  0  0
 13 31  1  0  0  0
 14 15  2  0  0  0
 14109  1  0  0  0
 15110  1  0  0  0
 16 17  2  0  0  0
 16 21  1  0  0  0
 16 31  1  0  0  0
 17 18  1  0  0  0
 17111  1  0  0  0
 18 19  2  0  0  0
 18112  1  0  0  0
 19 20  1  0  0  0
 19 24  1  0  0  0
 20 21  2  0  0  0
 20113  1  0  0  0
 21 23  1  0  0  0
 22 28  1  0  0  0
 22 32  2  0  0  0
 26 27  1  0  0  0
 28114  1  0  0  0
 28115  1  0  0  0
 29116  1  0  0  0
 29117  1  0  0  0
 33 34  1  0  0  0
 33 66  1  0  0  0
 33 70  2  0  0  0
 34 36  1  0  0  0
 34 59  1  0  0  0
 34118  1  0  0  0
 35 44  2  0  0  0
 35 45  1  0  0  0
 35 68  1  0  0  0
 36 56  1  0  0  0
 36119  1  0  0  0
 37 39  1  0  0  0
 37 47  1  0  0  0
 37 66  1  0  0  0
 37120  1  0  0  0
 38 43  2  0  0  0
 38 46  1  0  0  0
 38 47  1  0  0  0
 39 64  1  0  0  0
 39 67  2  0  0  0
 40 52  1  0  0  0
 40 53  2  0  0  0
 40 58  1  0  0  0
 41121  1  0  0  0
 41122  1  0  0  0
 41123  1  0  0  0
 41 48  1  0  0  0
 42 43  1  0  0  0
 42 66  1  0  0  0
 42124  1  0  0  0
 42125  1  0  0  0
 43 44  1  0  0  0
 44126  1  0  0  0
 45 46  2  0  0  0
 45127  1  0  0  0
 46128  1  0  0  0
 47129  1  0  0  0
 47130  1  0  0  0
 48 56  1  0  0  0
 48 65  1  0  0  0
 48131  1  0  0  0
 49 50  1  0  0  0
 49 53  1  0  0  0
 49 64  1  0  0  0
 49132  1  0  0  0
 50 51  1  0  0  0
 50133  1  0  0  0
 50134  1  0  0  0
 51 52  1  0  0  0
 51135  1  0  0  0
 51136  1  0  0  0
 52137  1  0  0  0
 52138  1  0  0  0
 53 54  1  0  0  0
 54 55  2  0  0  0
 54139  1  0  0  0
 55 57  1  0  0  0
 55140  1  0  0  0
 56 69  2  0  0  0
 57 58  2  0  0  0
 57141  1  0  0  0
 58142  1  0  0  0
 59 60  1  0  0  0
 59 61  1  0  0  0
 59 62  1  0  0  0
 60143  1  0  0  0
 60144  1  0  0  0
 60145  1  0  0  0
 61146  1  0  0  0
 61147  1  0  0  0
 61148  1  0  0  0
 62149  1  0  0  0
 62150  1  0  0  0
 62151  1  0  0  0
 63 65  1  0  0  0
 63152  1  0  0  0
 63153  1  0  0  0
 63154  1  0  0  0
 64155  1  0  0  0
 65156  1  0  0  0
 68 93  1  0  0  0
 71 72  2  0  0  0
 71 73  1  0  0  0
 71157  1  0  0  0
 72 76  1  0  0  0
 72158  1  0  0  0
 73 74  2  0  0  0
 73 89  1  0  0  0
 74 75  1  0  0  0
 74 91  1  0  0  0
 75 76  2  0  0  0
 75 90  1  0  0  0
 76 94  1  0  0  0
 77 78  1  0  0  0
 77 83  1  0  0  0
 77159  1  0  0  0
 77160  1  0  0  0
 78 84  1  0  0  0
 78161  1  0  0  0
 78162  1  0  0  0
 79 80  1  0  0  0
 79 85  1  0  0  0
 79163  1  0  0  0
 79164  1  0  0  0
 80 86  1  0  0  0
 80165  1  0  0  0
 80166  1  0  0  0
 81 82  1  0  0  0
 81 87  1  0  0  0
 81167  1  0  0  0
 81168  1  0  0  0
 82 87  1  0  0  0
 82169  1  0  0  0
 82170  1  0  0  0
 83 94  1  0  0  0
 83171  1  0  0  0
 83172  1  0  0  0
 84 94  1  0  0  0
 84173  1  0  0  0
 84174  1  0  0  0
 85 96  1  0  0  0
 85175  1  0  0  0
 85176  1  0  0  0
 86 96  1  0  0  0
 86177  1  0  0  0
 86178  1  0  0  0
 87 95  1  0  0  0
 87179  1  0  0  0
 88180  1  0  0  0
 88181  1  0  0  0
 88182  1  0  0  0
 88 93  1  0  0  0
 89 95  1  0  0  0
 89183  1  0  0  0
 89184  1  0  0  0
 90185  1  0  0  0
 90186  1  0  0  0
 90 96  1  0  0  0
 91 97  1  0  0  0
 91187  1  0  0  0
 91188  1  0  0  0
 92 93  1  0  0  0
 92 97  1  0  0  0
 92189  1  0  0  0
 92190  1  0  0  0
 93191  1  0  0  0
 96192  1  0  0  0
 97193  1  0  0  0
 97194  1  0  0  0
M  CHG  2  96   1  97   1
M  ISO  4   1 100  68 101  93 101  95 100
M  END
> <chiral flag>
0

> <version>
0

> <s_m_source_file>
/data/baiqing/PycharmProjects/Reinvent-master-3.2/result/LINK_invent/BTK/process_docking_weight1_custom_product_contain_oxygen_bond_distance_aromatic_linkinvent_7_9_3/rearranged_h_0026.sdf

> <i_m_source_file_index>
76

> <r_mmod_Potential_Energy-OPLS-2005>
621.837768554688

> <r_mmod_Stretch_Energy-OPLS-2005>
152.194152832031

> <r_mmod_Bend_Energy-OPLS-2005>
259.158294677734

> <r_mmod_Torsional_Energy-OPLS-2005>
745.04052734375

> <r_mmod_Improper_Torsional_Energy-OPLS-2005>
39.8010215759277

> <r_mmod_Van_der_Waal_Energy-OPLS-2005>
140.438522338867

> <r_mmod_Electrostatic_Energy-OPLS-2005>
41.1759452819824

> <r_mmod_Solvation_Energy-OPLS-2005>
-877.908630371094

> <b_mmod_Minimization_Converged-OPLS-2005>
0

> <r_mmod_RMS_Derivative-OPLS-2005>
4.71269750595093

$$$$
76
                    3D
 Structure written by MMmdl.
155164  0  0  1  0            999 V2000
  -30.4862  -15.1131   20.3378 C   0  0  0  0  0  0
  -30.4490  -12.6983   19.4947 C   0  0  0  0  0  0
  -29.5317  -12.5263   18.2611 C   0  0  0  0  0  0
  -28.0703  -12.2989   18.6878 C   0  0  0  0  0  0
  -27.6165  -13.2600   19.8154 C   0  0  2  0  0  0
  -28.6611  -13.3718   20.9374 C   0  0  0  0  0  0
  -25.2430  -13.8234   20.5721 C   0  0  0  0  0  0
  -24.1748  -13.0464   20.9220 C   0  0  0  0  0  0
  -24.6380  -11.6940   20.8765 C   0  0  0  0  0  0
  -23.9064  -10.4319   21.0439 C   0  0  0  0  0  0
  -24.3615   -9.4233   21.9211 C   0  0  0  0  0  0
  -23.6295   -8.2258   22.0754 C   0  0  0  0  0  0
  -22.4274   -8.0294   21.3539 C   0  0  0  0  0  0
  -21.9921   -9.0275   20.4636 C   0  0  0  0  0  0
  -22.7246  -10.2165   20.3070 C   0  0  0  0  0  0
  -21.6857   -6.0742   22.5280 C   0  0  0  0  0  0
  -21.4014   -6.5629   23.8219 C   0  0  0  0  0  0
  -21.3646   -5.6772   24.9167 C   0  0  0  0  0  0
  -21.6037   -4.3036   24.7217 C   0  0  0  0  0  0
  -21.8820   -3.8136   23.4332 C   0  0  0  0  0  0
  -21.9194   -4.6963   22.3393 C   0  0  0  0  0  0
  -22.7762  -13.5245   21.1865 C   0  0  0  0  0  0
  -22.1669   -4.2148   21.0975 F   0  0  0  0  0  0
  -21.5626   -3.4521   25.7727 F   0  0  0  0  0  0
  -29.9111  -13.8274   20.3159 N   0  0  0  0  0  0
  -26.2833  -12.9471   20.3186 N   0  0  0  0  0  0
  -25.9317  -11.6587   20.5726 N   0  0  0  0  0  0
  -22.0365  -12.8268   22.0408 N   0  0  0  0  0  0
  -25.4173  -15.1971   20.4180 N   0  0  0  0  0  0
  -31.7212  -15.1148   20.2706 O   0  0  0  0  0  0
  -21.6624   -6.8897   21.4249 O   0  0  0  0  0  0
  -22.3510  -14.5569   20.6705 O   0  0  0  0  0  0
  -24.6549  -31.8329   23.1784 C   0  0  0  0  0  0
  -25.9261  -32.4647   23.8213 C   0  0  1  0  0  0
  -27.2098  -27.0308   20.1521 C   0  0  0  0  0  0
  -25.5947  -33.8461   24.2109 N   0  0  0  0  0  0
  -23.4634  -30.4466   21.5308 C   0  0  2  0  0  0
  -24.9086  -28.8506   20.1149 C   0  0  0  0  0  0
  -22.7628  -29.4463   22.4870 C   0  0  0  0  0  0
  -18.0326  -28.1339   22.8449 C   0  0  0  0  0  0
  -24.1485  -36.7229   23.2642 C   0  0  0  0  0  0
  -26.0270  -30.6738   21.3893 C   0  0  0  0  0  0
  -26.0949  -29.2735   20.7299 C   0  0  0  0  0  0
  -27.2472  -28.3822   20.7199 C   0  0  0  0  0  0
  -25.9912  -26.7254   19.5117 C   0  0  0  0  0  0
  -24.8752  -27.5943   19.4864 C   0  0  0  0  0  0
  -23.6954  -29.7706   20.1531 C   0  0  0  0  0  0
  -25.4127  -36.3016   24.0310 C   0  0  1  0  0  0
  -20.5945  -28.3682   23.1214 C   0  0  2  0  0  0
  -20.6838  -26.9395   22.5341 C   0  0  0  0  0  0
  -19.5785  -26.6367   21.5177 C   0  0  0  0  0  0
  -18.1986  -26.7870   22.1642 C   0  0  0  0  0  0
  -19.1574  -28.8818   23.2831 C   0  0  0  0  0  0
  -18.9469  -30.1381   23.8892 C   0  0  0  0  0  0
  -17.6454  -30.6475   24.0585 C   0  0  0  0  0  0
  -25.9079  -34.9395   23.5030 C   0  0  0  0  0  0
  -16.5361  -29.8990   23.6299 C   0  0  0  0  0  0
  -16.7298  -28.6431   23.0287 C   0  0  0  0  0  0
  -26.4541  -31.6564   25.0706 C   0  0  0  0  0  0
  -25.3674  -31.3755   26.1362 C   0  0  0  0  0  0
  -27.0414  -30.2948   24.6345 C   0  0  0  0  0  0
  -27.6027  -32.4362   25.7490 C   0  0  0  0  0  0
  -27.5573  -37.1784   24.8475 C   0  0  0  0  0  0
  -21.4306  -29.3032   22.3619 N   0  0  0  0  0  0
  -26.4289  -37.3741   23.9406 N   0  0  0  0  0  0
  -24.7371  -31.0081   22.0875 N   0  0  0  0  0  0
  -23.4232  -28.8013   23.3059 O   0  0  0  0  0  0
  -28.2523  -26.0026   20.1505 O   0  0  0  0  0  0
  -26.5695  -34.8924   22.4626 O   0  0  0  0  0  0
  -23.5632  -32.1252   23.6924 O   0  0  0  0  0  0
  -29.1288  -16.5447   18.6783 C   0  0  0  0  0  0
  -29.7202  -17.9153   20.5767 C   0  0  0  0  0  0
  -28.5976  -18.9764   18.7001 C   0  0  0  0  0  0
  -29.7298  -16.5277   19.9559 C   0  0  0  0  0  0
  -28.5989  -17.7072   18.0663 C   0  0  0  0  0  0
  -29.1298  -19.1910   19.9882 C   0  0  0  0  0  0
  -27.8687  -23.1395   19.4584 C   0  0  0  0  0  0
  -29.2198  -23.4609   20.9554 C   0  0  0  0  0  0
  -28.0527  -24.4278   20.4261 C   0  0  1  0  0  0
  -28.0416  -17.5817   16.6613 C   0  0  0  0  0  0
  -28.8434  -20.7326   20.6592 C   0  0  0  0  0  0
  -28.9689  -22.2462   20.0574 N   0  3  1  0  0  0
  -31.4691  -12.8857   19.1578 H   0  0  0  0  0  0
  -30.4965  -11.7834   20.0860 H   0  0  0  0  0  0
  -29.8802  -11.6961   17.6452 H   0  0  0  0  0  0
  -29.5891  -13.4173   17.6349 H   0  0  0  0  0  0
  -28.0015  -11.2696   19.0395 H   0  0  0  0  0  0
  -27.4051  -12.3750   17.8278 H   0  0  0  0  0  0
  -27.5517  -14.2413   19.3464 H   0  0  0  0  0  0
  -28.3353  -14.0876   21.6941 H   0  0  0  0  0  0
  -28.7974  -12.4118   21.4381 H   0  0  0  0  0  0
  -25.2773   -9.5691   22.4794 H   0  0  0  0  0  0
  -23.9987   -7.4630   22.7466 H   0  0  0  0  0  0
  -21.0853   -8.8791   19.8936 H   0  0  0  0  0  0
  -22.3716  -10.9702   19.6159 H   0  0  0  0  0  0
  -21.2006   -7.6139   23.9735 H   0  0  0  0  0  0
  -21.1470   -6.0487   25.9079 H   0  0  0  0  0  0
  -22.0617   -2.7606   23.2818 H   0  0  0  0  0  0
  -22.3960  -11.9955   22.4876 H   0  0  0  0  0  0
  -21.0970  -13.1322   22.2532 H   0  0  0  0  0  0
  -24.6632  -15.8639   20.5418 H   0  0  0  0  0  0
  -26.2796  -15.6338   20.1177 H   0  0  0  0  0  0
  -26.7333  -32.5237   23.0940 H   0  0  0  0  0  0
  -25.0108  -33.9562   25.0273 H   0  0  0  0  0  0
  -22.7710  -31.2768   21.3690 H   0  0  0  0  0  0
  -23.3777  -35.9530   23.3292 H   0  0  0  0  0  0
  -24.3556  -36.8879   22.2054 H   0  0  0  0  0  0
  -23.7221  -37.6403   23.6705 H   0  0  0  0  0  0
  -26.1995  -31.4229   20.6143 H   0  0  0  0  0  0
  -26.8913  -30.7195   22.0408 H   0  0  0  0  0  0
  -28.1601  -28.7039   21.2025 H   0  0  0  0  0  0
  -25.8903  -25.7661   19.0267 H   0  0  0  0  0  0
  -23.9731  -27.2709   18.9824 H   0  0  0  0  0  0
  -23.8490  -30.5431   19.4000 H   0  0  0  0  0  0
  -22.8037  -29.2278   19.8352 H   0  0  0  0  0  0
  -25.1330  -36.1824   25.0805 H   0  0  0  0  0  0
  -21.0038  -28.3270   24.1341 H   0  0  0  0  0  0
  -20.5804  -26.2264   23.3540 H   0  0  0  0  0  0
  -21.6669  -26.7440   22.1040 H   0  0  0  0  0  0
  -19.6959  -25.6289   21.1156 H   0  0  0  0  0  0
  -19.6715  -27.3249   20.6753 H   0  0  0  0  0  0
  -17.4206  -26.6546   21.4107 H   0  0  0  0  0  0
  -18.0465  -26.0025   22.9074 H   0  0  0  0  0  0
  -19.7929  -30.7157   24.2350 H   0  0  0  0  0  0
  -17.4968  -31.6125   24.5233 H   0  0  0  0  0  0
  -15.5347  -30.2835   23.7624 H   0  0  0  0  0  0
  -15.8713  -28.0734   22.7009 H   0  0  0  0  0  0
  -24.5870  -30.7111   25.7642 H   0  0  0  0  0  0
  -24.8867  -32.2934   26.4739 H   0  0  0  0  0  0
  -25.7924  -30.8930   27.0176 H   0  0  0  0  0  0
  -26.3060  -29.6650   24.1334 H   0  0  0  0  0  0
  -27.3966  -29.7273   25.4955 H   0  0  0  0  0  0
  -27.8990  -30.4146   23.9723 H   0  0  0  0  0  0
  -27.2603  -33.3693   26.1975 H   0  0  0  0  0  0
  -28.3886  -32.6880   25.0357 H   0  0  0  0  0  0
  -28.0655  -31.8568   26.5485 H   0  0  0  0  0  0
  -28.2598  -38.0073   24.7531 H   0  0  0  0  0  0
  -28.1073  -36.2614   24.6319 H   0  0  0  0  0  0
  -27.2299  -37.1442   25.8880 H   0  0  0  0  0  0
  -20.9569  -29.8676   21.6698 H   0  0  0  0  0  0
  -26.0147  -38.2799   24.1437 H   0  0  0  0  0  0
  -29.1288  -15.6313   18.1002 H   0  0  0  0  0  0
  -30.1777  -18.0042   21.5531 H   0  0  0  0  0  0
  -28.1465  -19.8113   18.1845 H   0  0  0  0  0  0
  -26.8826  -22.6833   19.5417 H   0  0  0  0  0  0
  -28.0795  -23.3578   18.4108 H   0  0  0  0  0  0
  -29.0997  -23.2270   22.0121 H   0  0  0  0  0  0
  -30.2150  -23.8719   20.7801 H   0  0  0  0  0  0
  -27.2498  -24.3774   21.1649 H   0  0  0  0  0  0
  -28.8576  -17.4479   15.9484 H   0  0  0  0  0  0
  -27.4889  -18.4713   16.3584 H   0  0  0  0  0  0
  -27.3690  -16.7237   16.5836 H   0  0  0  0  0  0
  -29.4809  -20.7477   21.5396 H   0  0  0  0  0  0
  -27.8323  -20.6729   21.0590 H   0  0  0  0  0  0
  -29.7386  -22.2234   19.4092 H   0  0  0  0  0  0
  1 25  1  0  0  0
  1 30  2  0  0  0
  1 74  1  0  0  0
  2  3  1  0  0  0
  2 25  1  0  0  0
  2 83  1  0  0  0
  2 84  1  0  0  0
  3  4  1  0  0  0
  3 85  1  0  0  0
  3 86  1  0  0  0
  4  5  1  0  0  0
  4 87  1  0  0  0
  4 88  1  0  0  0
  5  6  1  0  0  0
  5 26  1  0  0  0
  5 89  1  0  0  0
  6 25  1  0  0  0
  6 90  1  0  0  0
  6 91  1  0  0  0
  7  8  2  0  0  0
  7 26  1  0  0  0
  7 29  1  0  0  0
  8  9  1  0  0  0
  8 22  1  0  0  0
  9 10  1  0  0  0
  9 27  2  0  0  0
 10 11  2  0  0  0
 10 15  1  0  0  0
 11 12  1  0  0  0
 11 92  1  0  0  0
 12 13  2  0  0  0
 12 93  1  0  0  0
 13 14  1  0  0  0
 13 31  1  0  0  0
 14 15  2  0  0  0
 14 94  1  0  0  0
 15 95  1  0  0  0
 16 17  2  0  0  0
 16 21  1  0  0  0
 16 31  1  0  0  0
 17 18  1  0  0  0
 17 96  1  0  0  0
 18 19  2  0  0  0
 18 97  1  0  0  0
 19 20  1  0  0  0
 19 24  1  0  0  0
 20 21  2  0  0  0
 20 98  1  0  0  0
 21 23  1  0  0  0
 22 28  1  0  0  0
 22 32  2  0  0  0
 26 27  1  0  0  0
 28 99  1  0  0  0
 28100  1  0  0  0
 29101  1  0  0  0
 29102  1  0  0  0
 33 34  1  0  0  0
 33 66  1  0  0  0
 33 70  2  0  0  0
 34 36  1  0  0  0
 34 59  1  0  0  0
 34103  1  0  0  0
 35 44  2  0  0  0
 35 45  1  0  0  0
 35 68  1  0  0  0
 36 56  1  0  0  0
 36104  1  0  0  0
 37 39  1  0  0  0
 37 47  1  0  0  0
 37 66  1  0  0  0
 37105  1  0  0  0
 38 43  2  0  0  0
 38 46  1  0  0  0
 38 47  1  0  0  0
 39 64  1  0  0  0
 39 67  2  0  0  0
 40 52  1  0  0  0
 40 53  2  0  0  0
 40 58  1  0  0  0
 41106  1  0  0  0
 41107  1  0  0  0
 41108  1  0  0  0
 41 48  1  0  0  0
 42 43  1  0  0  0
 42 66  1  0  0  0
 42109  1  0  0  0
 42110  1  0  0  0
 43 44  1  0  0  0
 44111  1  0  0  0
 45 46  2  0  0  0
 45112  1  0  0  0
 46113  1  0  0  0
 47114  1  0  0  0
 47115  1  0  0  0
 48 56  1  0  0  0
 48 65  1  0  0  0
 48116  1  0  0  0
 49 50  1  0  0  0
 49 53  1  0  0  0
 49 64  1  0  0  0
 49117  1  0  0  0
 50 51  1  0  0  0
 50118  1  0  0  0
 50119  1  0  0  0
 51 52  1  0  0  0
 51120  1  0  0  0
 51121  1  0  0  0
 52122  1  0  0  0
 52123  1  0  0  0
 53 54  1  0  0  0
 54 55  2  0  0  0
 54124  1  0  0  0
 55 57  1  0  0  0
 55125  1  0  0  0
 56 69  2  0  0  0
 57 58  2  0  0  0
 57126  1  0  0  0
 58127  1  0  0  0
 59 60  1  0  0  0
 59 61  1  0  0  0
 59 62  1  0  0  0
 60128  1  0  0  0
 60129  1  0  0  0
 60130  1  0  0  0
 61131  1  0  0  0
 61132  1  0  0  0
 61133  1  0  0  0
 62134  1  0  0  0
 62135  1  0  0  0
 62136  1  0  0  0
 63 65  1  0  0  0
 63137  1  0  0  0
 63138  1  0  0  0
 63139  1  0  0  0
 64140  1  0  0  0
 65141  1  0  0  0
 68 79  1  0  0  0
 71 74  2  0  0  0
 71 75  1  0  0  0
 71142  1  0  0  0
 72 74  1  0  0  0
 72 76  2  0  0  0
 72143  1  0  0  0
 73 75  2  0  0  0
 73 76  1  0  0  0
 73144  1  0  0  0
 75 80  1  0  0  0
 76 81  1  0  0  0
 77 79  1  0  0  0
 77 82  1  0  0  0
 77145  1  0  0  0
 77146  1  0  0  0
 78 79  1  0  0  0
 78 82  1  0  0  0
 78147  1  0  0  0
 78148  1  0  0  0
 79149  1  0  0  0
 80150  1  0  0  0
 80151  1  0  0  0
 80152  1  0  0  0
 81153  1  0  0  0
 81154  1  0  0  0
 81 82  1  0  0  0
 82155  1  0  0  0
M  CHG  1  82   1
M  ISO  4   1 100  68 101  74 100  79 101
M  END
> <chiral flag>
0

> <version>
0

> <s_m_source_file>
/data/baiqing/PycharmProjects/Reinvent-master-3.2/result/LINK_invent/BTK/process_docking_weight1_custom_product_contain_oxygen_bond_distance_aromatic_linkinvent_7_9_3/rearranged_h_0026.sdf

> <i_m_source_file_index>
77

> <r_mmod_Potential_Energy-OPLS-2005>
746.684020996094

> <r_mmod_Stretch_Energy-OPLS-2005>
365.453247070312

> <r_mmod_Bend_Energy-OPLS-2005>
381.474761962891

> <r_mmod_Torsional_Energy-OPLS-2005>
266.477020263672

> <r_mmod_Improper_Torsional_Energy-OPLS-2005>
15.3955554962158

> <r_mmod_Van_der_Waal_Energy-OPLS-2005>
114.467483520508

> <r_mmod_Electrostatic_Energy-OPLS-2005>
-247.776809692383

> <r_mmod_Solvation_Energy-OPLS-2005>
-462.913421630859

> <b_mmod_Minimization_Converged-OPLS-2005>
0

> <r_mmod_RMS_Derivative-OPLS-2005>
4.32333326339722

$$$$
77
                    3D
 Structure written by MMmdl.
178187  0  0  1  0            999 V2000
  -30.6919  -14.5816   20.4934 C   0  0  0  0  0  0
  -30.4097  -12.3636   19.4385 C   0  0  0  0  0  0
  -29.5070  -12.5199   18.1995 C   0  0  0  0  0  0
  -28.0182  -12.3933   18.5969 C   0  0  0  0  0  0
  -27.6447  -13.2228   19.8566 C   0  0  2  0  0  0
  -28.6889  -13.0839   20.9792 C   0  0  0  0  0  0
  -25.2504  -13.8168   20.5583 C   0  0  0  0  0  0
  -24.1784  -13.0437   20.9205 C   0  0  0  0  0  0
  -24.6369  -11.6914   20.8759 C   0  0  0  0  0  0
  -23.9010  -10.4309   21.0442 C   0  0  0  0  0  0
  -24.3562   -9.4210   21.9206 C   0  0  0  0  0  0
  -23.6256   -8.2215   22.0731 C   0  0  0  0  0  0
  -22.4226   -8.0279   21.3541 C   0  0  0  0  0  0
  -21.9870   -9.0266   20.4651 C   0  0  0  0  0  0
  -22.7180  -10.2161   20.3074 C   0  0  0  0  0  0
  -21.6854   -6.0729   22.5296 C   0  0  0  0  0  0
  -21.4019   -6.5623   23.8244 C   0  0  0  0  0  0
  -21.3647   -5.6770   24.9199 C   0  0  0  0  0  0
  -21.6046   -4.3031   24.7246 C   0  0  0  0  0  0
  -21.8806   -3.8130   23.4375 C   0  0  0  0  0  0
  -21.9170   -4.6948   22.3424 C   0  0  0  0  0  0
  -22.7806  -13.5265   21.1869 C   0  0  0  0  0  0
  -22.1639   -4.2125   21.1001 F   0  0  0  0  0  0
  -21.5658   -3.4515   25.7770 F   0  0  0  0  0  0
  -29.9904  -13.4130   20.3895 N   0  0  0  0  0  0
  -26.2935  -12.9342   20.3275 N   0  0  0  0  0  0
  -25.9305  -11.6493   20.5745 N   0  0  0  0  0  0
  -22.0370  -12.8322   22.0413 N   0  0  0  0  0  0
  -25.4246  -15.1849   20.3803 N   0  0  0  0  0  0
  -31.9119  -14.5760   20.3022 O   0  0  0  0  0  0
  -21.6612   -6.8876   21.4248 O   0  0  0  0  0  0
  -22.3508  -14.5568   20.6712 O   0  0  0  0  0  0
  -24.6220  -31.8651   23.2067 C   0  0  0  0  0  0
  -25.9100  -32.4796   23.8353 C   0  0  1  0  0  0
  -27.2018  -27.3578   20.0797 C   0  0  0  0  0  0
  -25.5921  -33.8583   24.2297 N   0  0  0  0  0  0
  -23.4105  -30.4974   21.5472 C   0  0  2  0  0  0
  -24.8456  -28.9623   20.1129 C   0  0  0  0  0  0
  -22.7447  -29.4665   22.4892 C   0  0  0  0  0  0
  -18.0334  -28.1361   22.8549 C   0  0  0  0  0  0
  -24.1491  -36.7273   23.2660 C   0  0  0  0  0  0
  -25.9527  -30.8083   21.3744 C   0  0  0  0  0  0
  -26.0184  -29.4422   20.7077 C   0  0  0  0  0  0
  -27.1970  -28.6503   20.6848 C   0  0  0  0  0  0
  -25.9922  -26.9198   19.4851 C   0  0  0  0  0  0
  -24.8303  -27.7042   19.5006 C   0  0  0  0  0  0
  -23.6211  -29.8458   20.1576 C   0  0  0  0  0  0
  -25.4119  -36.3069   24.0348 C   0  0  1  0  0  0
  -20.5909  -28.3733   23.1370 C   0  0  2  0  0  0
  -20.6834  -26.9332   22.5878 C   0  0  0  0  0  0
  -19.5871  -26.5900   21.5728 C   0  0  0  0  0  0
  -18.2006  -26.7777   22.1962 C   0  0  0  0  0  0
  -19.1577  -28.8886   23.2864 C   0  0  0  0  0  0
  -18.9476  -30.1536   23.8759 C   0  0  0  0  0  0
  -17.6451  -30.6656   24.0385 C   0  0  0  0  0  0
  -25.9055  -34.9452   23.5110 C   0  0  0  0  0  0
  -16.5365  -29.9077   23.6254 C   0  0  0  0  0  0
  -16.7313  -28.6458   23.0384 C   0  0  0  0  0  0
  -26.4509  -31.6585   25.0692 C   0  0  0  0  0  0
  -25.3763  -31.3714   26.1431 C   0  0  0  0  0  0
  -27.0413  -30.3034   24.6143 C   0  0  0  0  0  0
  -27.6056  -32.4348   25.7435 C   0  0  0  0  0  0
  -27.5577  -37.1796   24.8469 C   0  0  0  0  0  0
  -21.4173  -29.2989   22.3598 N   0  0  0  0  0  0
  -26.4289  -37.3758   23.9406 N   0  0  0  0  0  0
  -24.6808  -31.0733   22.0970 N   0  0  0  0  0  0
  -23.4190  -28.8230   23.2971 O   0  0  0  0  0  0
  -28.3536  -26.5730   20.1038 O   0  0  0  0  0  0
  -26.5603  -34.8908   22.4678 O   0  0  0  0  0  0
  -23.5409  -32.1408   23.7426 O   0  0  0  0  0  0
  -27.8967  -18.5601   16.3881 C   0  0  0  0  0  0
  -29.0176  -19.2575   16.8706 C   0  0  0  0  0  0
  -28.5450  -16.6124   17.7012 C   0  0  0  0  0  0
  -29.6675  -17.3065   18.2034 C   0  0  0  0  0  0
  -27.6619  -17.2361   16.8002 C   0  0  0  0  0  0
  -29.9044  -18.6375   17.7723 C   0  0  0  0  0  0
  -25.6336  -19.2256   22.0548 C   0  0  0  0  0  0
  -26.4881  -19.9208   23.1170 C   0  0  0  0  0  0
  -26.5471  -18.3009   21.2231 C   0  0  0  0  0  0
  -27.5099  -20.8825   22.4760 C   0  0  0  0  0  0
  -27.9112  -18.9237   20.7645 C   0  0  1  0  0  0
  -27.8580  -20.5092   21.0131 C   0  0  2  0  0  0
  -30.6287  -16.6007   19.1526 C   0  0  0  0  0  0
  -29.1231  -18.0542   21.3051 C   0  0  0  0  0  0
  -28.5542  -24.0014   20.4583 C   0  0  0  0  0  0
  -29.0593  -16.4609   21.1125 C   0  0  0  0  0  0
  -28.6055  -22.6139   19.6915 C   0  0  0  0  0  0
  -28.3901  -25.2382   19.4999 C   0  0  0  0  0  0
  -30.0209  -15.7548   20.2038 N   0  0  0  0  0  0
  -28.9654  -21.3705   20.4744 N   0  3  0  0  0  0
  -26.5879  -16.5582   16.3344 F   0  0  0  0  0  0
  -31.2411  -19.5651   18.3554 Cl  0  0  0  0  0  0
  -31.4613  -12.4391   19.1574 H   0  0  0  0  0  0
  -30.2917  -11.3723   19.8770 H   0  0  0  0  0  0
  -29.7670  -11.7868   17.4352 H   0  0  0  0  0  0
  -29.6875  -13.4948   17.7431 H   0  0  0  0  0  0
  -27.8048  -11.3393   18.7596 H   0  0  0  0  0  0
  -27.3845  -12.7027   17.7678 H   0  0  0  0  0  0
  -27.6553  -14.2611   19.5387 H   0  0  0  0  0  0
  -28.6956  -12.0616   21.3626 H   0  0  0  0  0  0
  -28.4447  -13.7319   21.8205 H   0  0  0  0  0  0
  -25.2696   -9.5697   22.4808 H   0  0  0  0  0  0
  -23.9984   -7.4585   22.7424 H   0  0  0  0  0  0
  -21.0792   -8.8785   19.8978 H   0  0  0  0  0  0
  -22.3628  -10.9714   19.6204 H   0  0  0  0  0  0
  -21.2030   -7.6133   23.9773 H   0  0  0  0  0  0
  -21.1467   -6.0486   25.9105 H   0  0  0  0  0  0
  -22.0582   -2.7589   23.2904 H   0  0  0  0  0  0
  -22.3779  -11.9940   22.4883 H   0  0  0  0  0  0
  -21.1043  -13.1523   22.2567 H   0  0  0  0  0  0
  -24.6720  -15.8619   20.4564 H   0  0  0  0  0  0
  -26.2717  -15.5868   20.0044 H   0  0  0  0  0  0
  -26.7166  -32.5468   23.1104 H   0  0  0  0  0  0
  -25.0057  -33.9707   25.0431 H   0  0  0  0  0  0
  -22.7044  -31.3211   21.4122 H   0  0  0  0  0  0
  -23.3735  -35.9614   23.3311 H   0  0  0  0  0  0
  -24.3599  -36.8879   22.2069 H   0  0  0  0  0  0
  -23.7247  -37.6479   23.6673 H   0  0  0  0  0  0
  -26.1113  -31.5848   20.6206 H   0  0  0  0  0  0
  -26.8262  -30.8286   22.0148 H   0  0  0  0  0  0
  -28.1053  -29.0194   21.1425 H   0  0  0  0  0  0
  -25.8704  -25.9677   19.0021 H   0  0  0  0  0  0
  -23.9211  -27.3316   19.0497 H   0  0  0  0  0  0
  -22.7404  -29.2833   19.8452 H   0  0  0  0  0  0
  -23.7585  -30.6263   19.4080 H   0  0  0  0  0  0
  -25.1306  -36.1923   25.0834 H   0  0  0  0  0  0
  -20.9984  -28.3587   24.1486 H   0  0  0  0  0  0
  -20.5654  -26.2542   23.4339 H   0  0  0  0  0  0
  -21.6765  -26.7154   22.1928 H   0  0  0  0  0  0
  -19.6977  -25.5553   21.2463 H   0  0  0  0  0  0
  -19.7025  -27.2134   20.6867 H   0  0  0  0  0  0
  -17.4289  -26.6296   21.4394 H   0  0  0  0  0  0
  -18.0347  -26.0159   22.9614 H   0  0  0  0  0  0
  -19.7924  -30.7416   24.2089 H   0  0  0  0  0  0
  -17.5015  -31.6398   24.4836 H   0  0  0  0  0  0
  -15.5371  -30.2981   23.7609 H   0  0  0  0  0  0
  -15.8749  -28.0691   22.7218 H   0  0  0  0  0  0
  -24.5922  -30.7091   25.7749 H   0  0  0  0  0  0
  -24.9001  -32.2885   26.4882 H   0  0  0  0  0  0
  -25.8111  -30.8857   27.0181 H   0  0  0  0  0  0
  -26.2992  -29.6684   24.1300 H   0  0  0  0  0  0
  -27.4296  -29.7372   25.4620 H   0  0  0  0  0  0
  -27.8762  -30.4335   23.9264 H   0  0  0  0  0  0
  -27.2640  -33.3661   26.1956 H   0  0  0  0  0  0
  -28.3844  -32.6908   25.0243 H   0  0  0  0  0  0
  -28.0739  -31.8545   26.5375 H   0  0  0  0  0  0
  -28.2603  -38.0092   24.7506 H   0  0  0  0  0  0
  -28.1076  -36.2624   24.6307 H   0  0  0  0  0  0
  -27.2309  -37.1432   25.8881 H   0  0  0  0  0  0
  -20.9315  -29.8698   21.6805 H   0  0  0  0  0  0
  -26.0174  -38.2840   24.1384 H   0  0  0  0  0  0
  -27.2256  -19.0464   15.6931 H   0  0  0  0  0  0
  -29.1958  -20.2736   16.5484 H   0  0  0  0  0  0
  -28.3551  -15.5951   17.9949 H   0  0  0  0  0  0
  -25.1284  -19.9662   21.4337 H   0  0  0  0  0  0
  -24.8341  -18.6375   22.5136 H   0  0  0  0  0  0
  -27.0165  -19.1459   23.6755 H   0  0  0  0  0  0
  -25.8639  -20.4438   23.8434 H   0  0  0  0  0  0
  -25.9915  -17.9401   20.3576 H   0  0  0  0  0  0
  -26.7170  -17.4238   21.8505 H   0  0  0  0  0  0
  -28.4062  -20.9229   23.0948 H   0  0  0  0  0  0
  -27.0880  -21.8892   22.4885 H   0  0  0  0  0  0
  -27.9322  -18.7951   19.6833 H   0  0  0  0  0  0
  -26.9898  -20.8146   20.4278 H   0  0  0  0  0  0
  -31.3333  -17.2773   19.6292 H   0  0  0  0  0  0
  -31.2340  -15.9988   18.4706 H   0  0  0  0  0  0
  -29.1725  -18.2311   22.3813 H   0  0  0  0  0  0
  -30.0639  -18.4646   20.9414 H   0  0  0  0  0  0
  -29.4713  -24.1443   21.0324 H   0  0  0  0  0  0
  -27.7409  -24.0005   21.1850 H   0  0  0  0  0  0
  -28.0757  -16.1710   20.7609 H   0  0  0  0  0  0
  -29.1618  -16.0111   22.1013 H   0  0  0  0  0  0
  -29.3884  -22.7005   18.9340 H   0  0  0  0  0  0
  -27.6906  -22.4594   19.1111 H   0  0  0  0  0  0
  -27.5681  -25.0169   18.8299 H   0  0  0  0  0  0
  -29.2413  -25.2507   18.8192 H   0  0  0  0  0  0
  -29.5001  -20.7963   19.8410 H   0  0  0  0  0  0
  -29.5935  -21.6242   21.2212 H   0  0  0  0  0  0
  1 25  1  0  0  0
  1 30  2  0  0  0
  1 89  1  0  0  0
  2  3  1  0  0  0
  2 25  1  0  0  0
  2 93  1  0  0  0
  2 94  1  0  0  0
  3  4  1  0  0  0
  3 95  1  0  0  0
  3 96  1  0  0  0
  4  5  1  0  0  0
  4 97  1  0  0  0
  4 98  1  0  0  0
  5  6  1  0  0  0
  5 26  1  0  0  0
  5 99  1  0  0  0
  6 25  1  0  0  0
  6100  1  0  0  0
  6101  1  0  0  0
  7  8  2  0  0  0
  7 26  1  0  0  0
  7 29  1  0  0  0
  8  9  1  0  0  0
  8 22  1  0  0  0
  9 10  1  0  0  0
  9 27  2  0  0  0
 10 11  2  0  0  0
 10 15  1  0  0  0
 11 12  1  0  0  0
 11102  1  0  0  0
 12 13  2  0  0  0
 12103  1  0  0  0
 13 14  1  0  0  0
 13 31  1  0  0  0
 14 15  2  0  0  0
 14104  1  0  0  0
 15105  1  0  0  0
 16 17  2  0  0  0
 16 21  1  0  0  0
 16 31  1  0  0  0
 17 18  1  0  0  0
 17106  1  0  0  0
 18 19  2  0  0  0
 18107  1  0  0  0
 19 20  1  0  0  0
 19 24  1  0  0  0
 20 21  2  0  0  0
 20108  1  0  0  0
 21 23  1  0  0  0
 22 28  1  0  0  0
 22 32  2  0  0  0
 26 27  1  0  0  0
 28109  1  0  0  0
 28110  1  0  0  0
 29111  1  0  0  0
 29112  1  0  0  0
 33 34  1  0  0  0
 33 66  1  0  0  0
 33 70  2  0  0  0
 34 36  1  0  0  0
 34 59  1  0  0  0
 34113  1  0  0  0
 35 44  2  0  0  0
 35 45  1  0  0  0
 35 68  1  0  0  0
 36 56  1  0  0  0
 36114  1  0  0  0
 37 39  1  0  0  0
 37 47  1  0  0  0
 37 66  1  0  0  0
 37115  1  0  0  0
 38 43  2  0  0  0
 38 46  1  0  0  0
 38 47  1  0  0  0
 39 64  1  0  0  0
 39 67  2  0  0  0
 40 52  1  0  0  0
 40 53  2  0  0  0
 40 58  1  0  0  0
 41116  1  0  0  0
 41117  1  0  0  0
 41118  1  0  0  0
 41 48  1  0  0  0
 42 43  1  0  0  0
 42 66  1  0  0  0
 42119  1  0  0  0
 42120  1  0  0  0
 43 44  1  0  0  0
 44121  1  0  0  0
 45 46  2  0  0  0
 45122  1  0  0  0
 46123  1  0  0  0
 47124  1  0  0  0
 47125  1  0  0  0
 48 56  1  0  0  0
 48 65  1  0  0  0
 48126  1  0  0  0
 49 50  1  0  0  0
 49 53  1  0  0  0
 49 64  1  0  0  0
 49127  1  0  0  0
 50 51  1  0  0  0
 50128  1  0  0  0
 50129  1  0  0  0
 51 52  1  0  0  0
 51130  1  0  0  0
 51131  1  0  0  0
 52132  1  0  0  0
 52133  1  0  0  0
 53 54  1  0  0  0
 54 55  2  0  0  0
 54134  1  0  0  0
 55 57  1  0  0  0
 55135  1  0  0  0
 56 69  2  0  0  0
 57 58  2  0  0  0
 57136  1  0  0  0
 58137  1  0  0  0
 59 60  1  0  0  0
 59 61  1  0  0  0
 59 62  1  0  0  0
 60138  1  0  0  0
 60139  1  0  0  0
 60140  1  0  0  0
 61141  1  0  0  0
 61142  1  0  0  0
 61143  1  0  0  0
 62144  1  0  0  0
 62145  1  0  0  0
 62146  1  0  0  0
 63 65  1  0  0  0
 63147  1  0  0  0
 63148  1  0  0  0
 63149  1  0  0  0
 64150  1  0  0  0
 65151  1  0  0  0
 68 88  1  0  0  0
 71 72  2  0  0  0
 71 75  1  0  0  0
 71152  1  0  0  0
 72 76  1  0  0  0
 72153  1  0  0  0
 73 74  1  0  0  0
 73 75  2  0  0  0
 73154  1  0  0  0
 74 76  2  0  0  0
 74 83  1  0  0  0
 75 91  1  0  0  0
 76 92  1  0  0  0
 77 78  1  0  0  0
 77 79  1  0  0  0
 77155  1  0  0  0
 77156  1  0  0  0
 78 80  1  0  0  0
 78157  1  0  0  0
 78158  1  0  0  0
 79 81  1  0  0  0
 79159  1  0  0  0
 79160  1  0  0  0
 80 82  1  0  0  0
 80161  1  0  0  0
 80162  1  0  0  0
 81 82  1  0  0  0
 81 84  1  0  0  0
 81163  1  0  0  0
 82 90  1  0  0  0
 82164  1  0  0  0
 83 89  1  0  0  0
 83165  1  0  0  0
 83166  1  0  0  0
 84 86  1  0  0  0
 84167  1  0  0  0
 84168  1  0  0  0
 85 87  1  0  0  0
 85 88  1  0  0  0
 85169  1  0  0  0
 85170  1  0  0  0
 86 89  1  0  0  0
 86171  1  0  0  0
 86172  1  0  0  0
 87 90  1  0  0  0
 87173  1  0  0  0
 87174  1  0  0  0
 88175  1  0  0  0
 88176  1  0  0  0
 90177  1  0  0  0
 90178  1  0  0  0
M  CHG  1  90   1
M  ISO  4   1 100  68 101  88 101  89 100
M  END
> <chiral flag>
0

> <version>
0

> <s_m_source_file>
/data/baiqing/PycharmProjects/Reinvent-master-3.2/result/LINK_invent/BTK/process_docking_weight1_custom_product_contain_oxygen_bond_distance_aromatic_linkinvent_7_9_3/rearranged_h_0026.sdf

> <i_m_source_file_index>
78

> <r_mmod_Potential_Energy-OPLS-2005>
188.244262695312

> <r_mmod_Stretch_Energy-OPLS-2005>
78.8727874755859

> <r_mmod_Bend_Energy-OPLS-2005>
180.557678222656

> <r_mmod_Torsional_Energy-OPLS-2005>
366.922760009766

> <r_mmod_Improper_Torsional_Energy-OPLS-2005>
22.4331035614014

> <r_mmod_Van_der_Waal_Energy-OPLS-2005>
147.331649780273

> <r_mmod_Electrostatic_Energy-OPLS-2005>
-213.97785949707

> <r_mmod_Solvation_Energy-OPLS-2005>
-437.837921142578

> <b_mmod_Minimization_Converged-OPLS-2005>
0

> <r_mmod_RMS_Derivative-OPLS-2005>
6.06195735931396

$$$$
78
                    3D
 Structure written by MMmdl.
158167  0  0  1  0            999 V2000
  -30.4509  -15.3633   20.3645 C   0  0  0  0  0  0
  -30.4185  -12.8849   19.5215 C   0  0  0  0  0  0
  -29.5271  -12.5994   18.2866 C   0  0  0  0  0  0
  -28.0874  -12.2926   18.7263 C   0  0  0  0  0  0
  -27.6022  -13.2850   19.8112 C   0  0  2  0  0  0
  -28.6296  -13.5341   20.9387 C   0  0  0  0  0  0
  -25.2378  -13.8263   20.5744 C   0  0  0  0  0  0
  -24.1742  -13.0457   20.9226 C   0  0  0  0  0  0
  -24.6400  -11.6945   20.8742 C   0  0  0  0  0  0
  -23.9093  -10.4311   21.0391 C   0  0  0  0  0  0
  -24.3649   -9.4232   21.9169 C   0  0  0  0  0  0
  -23.6324   -8.2268   22.0743 C   0  0  0  0  0  0
  -22.4302   -8.0302   21.3538 C   0  0  0  0  0  0
  -21.9936   -9.0262   20.4627 C   0  0  0  0  0  0
  -22.7264  -10.2138   20.3042 C   0  0  0  0  0  0
  -21.6878   -6.0752   22.5278 C   0  0  0  0  0  0
  -21.4030   -6.5648   23.8216 C   0  0  0  0  0  0
  -21.3651   -5.6789   24.9170 C   0  0  0  0  0  0
  -21.6041   -4.3055   24.7223 C   0  0  0  0  0  0
  -21.8821   -3.8158   23.4346 C   0  0  0  0  0  0
  -21.9215   -4.6976   22.3407 C   0  0  0  0  0  0
  -22.7766  -13.5187   21.1897 C   0  0  0  0  0  0
  -22.1675   -4.2148   21.0990 F   0  0  0  0  0  0
  -21.5630   -3.4533   25.7737 F   0  0  0  0  0  0
  -29.8450  -14.0623   20.2935 N   0  0  0  0  0  0
  -26.2790  -12.9540   20.3202 N   0  0  0  0  0  0
  -25.9333  -11.6631   20.5692 N   0  0  0  0  0  0
  -22.0450  -12.8154   22.0443 N   0  0  0  0  0  0
  -25.4069  -15.2000   20.4179 N   0  0  0  0  0  0
  -31.6778  -15.2392   20.2255 O   0  0  0  0  0  0
  -21.6672   -6.8898   21.4236 O   0  0  0  0  0  0
  -22.3433  -14.5486   20.6745 O   0  0  0  0  0  0
  -24.6723  -31.8145   23.1695 C   0  0  0  0  0  0
  -25.9396  -32.4501   23.8172 C   0  0  1  0  0  0
  -27.2005  -26.8280   20.2081 C   0  0  0  0  0  0
  -25.6057  -33.8327   24.2085 N   0  0  0  0  0  0
  -23.4907  -30.4270   21.5176 C   0  0  2  0  0  0
  -24.9469  -28.8092   20.1123 C   0  0  0  0  0  0
  -22.7702  -29.4406   22.4758 C   0  0  0  0  0  0
  -18.0323  -28.1419   22.8446 C   0  0  0  0  0  0
  -24.1529  -36.7133   23.2646 C   0  0  0  0  0  0
  -26.0656  -30.5850   21.4254 C   0  0  0  0  0  0
  -26.1257  -29.1649   20.7773 C   0  0  0  0  0  0
  -27.2405  -28.1942   20.8111 C   0  0  0  0  0  0
  -26.0352  -26.7106   19.4113 C   0  0  0  0  0  0
  -24.9347  -27.6030   19.4019 C   0  0  0  0  0  0
  -23.7373  -29.7436   20.1453 C   0  0  0  0  0  0
  -25.4164  -36.2905   24.0303 C   0  0  1  0  0  0
  -20.5957  -28.3757   23.1152 C   0  0  2  0  0  0
  -20.6802  -26.9430   22.5393 C   0  0  0  0  0  0
  -19.5769  -26.6377   21.5215 C   0  0  0  0  0  0
  -18.1946  -26.7945   22.1620 C   0  0  0  0  0  0
  -19.1590  -28.8909   23.2790 C   0  0  0  0  0  0
  -18.9508  -30.1503   23.8820 C   0  0  0  0  0  0
  -17.6503  -30.6591   24.0563 C   0  0  0  0  0  0
  -25.9133  -34.9285   23.4998 C   0  0  0  0  0  0
  -16.5386  -29.9091   23.6349 C   0  0  0  0  0  0
  -16.7308  -28.6529   23.0340 C   0  0  0  0  0  0
  -26.4601  -31.6447   25.0728 C   0  0  0  0  0  0
  -25.3698  -31.3694   26.1363 C   0  0  0  0  0  0
  -27.0501  -30.2786   24.6531 C   0  0  0  0  0  0
  -27.6095  -32.4234   25.7545 C   0  0  0  0  0  0
  -27.5574  -37.1731   24.8488 C   0  0  0  0  0  0
  -21.4370  -29.3040   22.3494 N   0  0  0  0  0  0
  -26.4307  -37.3640   23.9394 N   0  0  0  0  0  0
  -24.7644  -30.9718   22.0899 N   0  0  0  0  0  0
  -23.4206  -28.7962   23.3023 O   0  0  0  0  0  0
  -28.1583  -25.6431   20.2658 O   0  0  0  0  0  0
  -26.5711  -34.8827   22.4572 O   0  0  0  0  0  0
  -23.5781  -32.1179   23.6725 O   0  0  0  0  0  0
  -32.6786  -19.0672   20.4508 C   0  0  0  0  0  0
  -31.6788  -18.1950   20.0170 C   0  0  0  0  0  0
  -32.3271  -20.1332   21.2676 C   0  0  0  0  0  0
  -29.9313  -19.8559   20.6561 C   0  0  0  0  0  0
  -30.3050  -18.3008   20.3730 C   0  0  0  0  0  0
  -30.9877  -20.5110   21.3609 C   0  0  0  0  0  0
  -28.9421  -22.5512   20.2996 C   0  0  0  0  0  0
  -25.7637  -22.3468   20.3025 C   0  0  0  0  0  0
  -26.3727  -21.0324   19.8124 C   0  0  0  0  0  0
  -26.4869  -23.6284   19.8655 C   0  0  0  0  0  0
  -27.4623  -20.5027   20.7526 C   0  0  0  0  0  0
  -27.8570  -23.9720   20.4910 C   0  0  2  0  0  0
  -28.7988  -21.0377   20.5103 N   0  0  0  0  0  0
  -29.7825  -16.7329   20.3926 N   0  0  0  0  0  0
  -30.0415  -22.9121   19.8685 O   0  0  0  0  0  0
  -30.7250  -21.5668   22.1734 F   0  0  0  0  0  0
  -31.4315  -13.0872   19.1709 H   0  0  0  0  0  0
  -30.5012  -11.9978   20.1526 H   0  0  0  0  0  0
  -29.9310  -11.7743   17.6965 H   0  0  0  0  0  0
  -29.5257  -13.4735   17.6333 H   0  0  0  0  0  0
  -28.0680  -11.2763   19.1225 H   0  0  0  0  0  0
  -27.4146  -12.2975   17.8686 H   0  0  0  0  0  0
  -27.4953  -14.2323   19.2806 H   0  0  0  0  0  0
  -28.8198  -12.6315   21.5222 H   0  0  0  0  0  0
  -28.2397  -14.2787   21.6347 H   0  0  0  0  0  0
  -25.2797   -9.5725   22.4733 H   0  0  0  0  0  0
  -24.0045   -7.4667   22.7466 H   0  0  0  0  0  0
  -21.0874   -8.8786   19.8928 H   0  0  0  0  0  0
  -22.3726  -10.9673   19.6156 H   0  0  0  0  0  0
  -21.2009   -7.6154   23.9716 H   0  0  0  0  0  0
  -21.1464   -6.0521   25.9068 H   0  0  0  0  0  0
  -22.0609   -2.7616   23.2855 H   0  0  0  0  0  0
  -22.4100  -11.9791   22.4770 H   0  0  0  0  0  0
  -21.1049  -13.1123   22.2661 H   0  0  0  0  0  0
  -24.6441  -15.8598   20.5219 H   0  0  0  0  0  0
  -26.2570  -15.6291   20.0767 H   0  0  0  0  0  0
  -26.7477  -32.5012   23.0889 H   0  0  0  0  0  0
  -25.0212  -33.9398   25.0252 H   0  0  0  0  0  0
  -22.8092  -31.2623   21.3433 H   0  0  0  0  0  0
  -23.3814  -35.9439   23.3284 H   0  0  0  0  0  0
  -24.3629  -36.8789   22.2071 H   0  0  0  0  0  0
  -23.7269  -37.6309   23.6707 H   0  0  0  0  0  0
  -26.2579  -31.3159   20.6376 H   0  0  0  0  0  0
  -26.9227  -30.6447   22.0840 H   0  0  0  0  0  0
  -28.1192  -28.4615   21.3819 H   0  0  0  0  0  0
  -25.9330  -25.8578   18.7612 H   0  0  0  0  0  0
  -24.0688  -27.3442   18.8091 H   0  0  0  0  0  0
  -23.8954  -30.5121   19.3864 H   0  0  0  0  0  0
  -22.8471  -29.1986   19.8278 H   0  0  0  0  0  0
  -25.1377  -36.1682   25.0796 H   0  0  0  0  0  0
  -21.0036  -28.3376   24.1283 H   0  0  0  0  0  0
  -20.5681  -26.2379   23.3648 H   0  0  0  0  0  0
  -21.6662  -26.7393   22.1200 H   0  0  0  0  0  0
  -19.6929  -25.6285   21.1261 H   0  0  0  0  0  0
  -19.6715  -27.3179   20.6739 H   0  0  0  0  0  0
  -17.4222  -26.6681   21.4026 H   0  0  0  0  0  0
  -18.0324  -26.0119   22.9044 H   0  0  0  0  0  0
  -19.7997  -30.7325   24.2160 H   0  0  0  0  0  0
  -17.5069  -31.6264   24.5189 H   0  0  0  0  0  0
  -15.5389  -30.2986   23.7717 H   0  0  0  0  0  0
  -15.8703  -28.0851   22.7067 H   0  0  0  0  0  0
  -24.5950  -30.6960   25.7663 H   0  0  0  0  0  0
  -24.8812  -32.2888   26.4592 H   0  0  0  0  0  0
  -25.7927  -30.9011   27.0264 H   0  0  0  0  0  0
  -26.3172  -29.6401   24.1597 H   0  0  0  0  0  0
  -27.4025  -29.7192   25.5204 H   0  0  0  0  0  0
  -27.9130  -30.3894   23.9962 H   0  0  0  0  0  0
  -27.2694  -33.3580   26.1988 H   0  0  0  0  0  0
  -28.4006  -32.6664   25.0448 H   0  0  0  0  0  0
  -28.0646  -31.8433   26.5581 H   0  0  0  0  0  0
  -28.2596  -38.0025   24.7515 H   0  0  0  0  0  0
  -28.1067  -36.2544   24.6376 H   0  0  0  0  0  0
  -27.2271  -37.1429   25.8888 H   0  0  0  0  0  0
  -20.9635  -29.8729   21.6629 H   0  0  0  0  0  0
  -26.0141  -38.2694   24.1381 H   0  0  0  0  0  0
  -33.7169  -18.8443   20.2529 H   0  0  0  0  0  0
  -32.0554  -17.3484   19.4719 H   0  0  0  0  0  0
  -33.0861  -20.7197   21.7628 H   0  0  0  0  0  0
  -25.6410  -22.3348   21.3866 H   0  0  0  0  0  0
  -24.7476  -22.4031   19.9063 H   0  0  0  0  0  0
  -26.7244  -21.1044   18.7823 H   0  0  0  0  0  0
  -25.5723  -20.2909   19.7957 H   0  0  0  0  0  0
  -25.7893  -24.3833   20.2138 H   0  0  0  0  0  0
  -26.5390  -23.6900   18.7776 H   0  0  0  0  0  0
  -27.4967  -19.4177   20.6424 H   0  0  0  0  0  0
  -27.1935  -20.6696   21.7963 H   0  0  0  0  0  0
  -27.6873  -23.9454   21.5674 H   0  0  0  0  0  0
  -28.7823  -16.6480   20.4926 H   0  0  0  0  0  0
  1 25  1  0  0  0
  1 30  2  0  0  0
  1 84  1  0  0  0
  2  3  1  0  0  0
  2 25  1  0  0  0
  2 87  1  0  0  0
  2 88  1  0  0  0
  3  4  1  0  0  0
  3 89  1  0  0  0
  3 90  1  0  0  0
  4  5  1  0  0  0
  4 91  1  0  0  0
  4 92  1  0  0  0
  5  6  1  0  0  0
  5 26  1  0  0  0
  5 93  1  0  0  0
  6 25  1  0  0  0
  6 94  1  0  0  0
  6 95  1  0  0  0
  7  8  2  0  0  0
  7 26  1  0  0  0
  7 29  1  0  0  0
  8  9  1  0  0  0
  8 22  1  0  0  0
  9 10  1  0  0  0
  9 27  2  0  0  0
 10 11  2  0  0  0
 10 15  1  0  0  0
 11 12  1  0  0  0
 11 96  1  0  0  0
 12 13  2  0  0  0
 12 97  1  0  0  0
 13 14  1  0  0  0
 13 31  1  0  0  0
 14 15  2  0  0  0
 14 98  1  0  0  0
 15 99  1  0  0  0
 16 17  2  0  0  0
 16 21  1  0  0  0
 16 31  1  0  0  0
 17 18  1  0  0  0
 17100  1  0  0  0
 18 19  2  0  0  0
 18101  1  0  0  0
 19 20  1  0  0  0
 19 24  1  0  0  0
 20 21  2  0  0  0
 20102  1  0  0  0
 21 23  1  0  0  0
 22 28  1  0  0  0
 22 32  2  0  0  0
 26 27  1  0  0  0
 28103  1  0  0  0
 28104  1  0  0  0
 29105  1  0  0  0
 29106  1  0  0  0
 33 34  1  0  0  0
 33 66  1  0  0  0
 33 70  2  0  0  0
 34 36  1  0  0  0
 34 59  1  0  0  0
 34107  1  0  0  0
 35 44  2  0  0  0
 35 45  1  0  0  0
 35 68  1  0  0  0
 36 56  1  0  0  0
 36108  1  0  0  0
 37 39  1  0  0  0
 37 47  1  0  0  0
 37 66  1  0  0  0
 37109  1  0  0  0
 38 43  2  0  0  0
 38 46  1  0  0  0
 38 47  1  0  0  0
 39 64  1  0  0  0
 39 67  2  0  0  0
 40 52  1  0  0  0
 40 53  2  0  0  0
 40 58  1  0  0  0
 41110  1  0  0  0
 41111  1  0  0  0
 41112  1  0  0  0
 41 48  1  0  0  0
 42 43  1  0  0  0
 42 66  1  0  0  0
 42113  1  0  0  0
 42114  1  0  0  0
 43 44  1  0  0  0
 44115  1  0  0  0
 45 46  2  0  0  0
 45116  1  0  0  0
 46117  1  0  0  0
 47118  1  0  0  0
 47119  1  0  0  0
 48 56  1  0  0  0
 48 65  1  0  0  0
 48120  1  0  0  0
 49 50  1  0  0  0
 49 53  1  0  0  0
 49 64  1  0  0  0
 49121  1  0  0  0
 50 51  1  0  0  0
 50122  1  0  0  0
 50123  1  0  0  0
 51 52  1  0  0  0
 51124  1  0  0  0
 51125  1  0  0  0
 52126  1  0  0  0
 52127  1  0  0  0
 53 54  1  0  0  0
 54 55  2  0  0  0
 54128  1  0  0  0
 55 57  1  0  0  0
 55129  1  0  0  0
 56 69  2  0  0  0
 57 58  2  0  0  0
 57130  1  0  0  0
 58131  1  0  0  0
 59 60  1  0  0  0
 59 61  1  0  0  0
 59 62  1  0  0  0
 60132  1  0  0  0
 60133  1  0  0  0
 60134  1  0  0  0
 61135  1  0  0  0
 61136  1  0  0  0
 61137  1  0  0  0
 62138  1  0  0  0
 62139  1  0  0  0
 62140  1  0  0  0
 63 65  1  0  0  0
 63141  1  0  0  0
 63142  1  0  0  0
 63143  1  0  0  0
 64144  1  0  0  0
 65145  1  0  0  0
 68 82  1  0  0  0
 71 72  2  0  0  0
 71 73  1  0  0  0
 71146  1  0  0  0
 72 75  1  0  0  0
 72147  1  0  0  0
 73 76  2  0  0  0
 73148  1  0  0  0
 74 75  2  0  0  0
 74 76  1  0  0  0
 74 83  1  0  0  0
 75 84  1  0  0  0
 76 86  1  0  0  0
 77 82  1  0  0  0
 77 83  1  0  0  0
 77 85  2  0  0  0
 78 79  1  0  0  0
 78 80  1  0  0  0
 78149  1  0  0  0
 78150  1  0  0  0
 79 81  1  0  0  0
 79151  1  0  0  0
 79152  1  0  0  0
 80 82  1  0  0  0
 80153  1  0  0  0
 80154  1  0  0  0
 81 83  1  0  0  0
 81155  1  0  0  0
 81156  1  0  0  0
 82157  1  0  0  0
 84158  1  0  0  0
M  ISO  4   1 100  68 101  82 101  84 100
M  END
> <chiral flag>
0

> <version>
0

> <s_m_source_file>
/data/baiqing/PycharmProjects/Reinvent-master-3.2/result/LINK_invent/BTK/process_docking_weight1_custom_product_contain_oxygen_bond_distance_aromatic_linkinvent_7_9_3/rearranged_h_0026.sdf

> <i_m_source_file_index>
79

> <r_mmod_Potential_Energy-OPLS-2005>
2015.63940429688

> <r_mmod_Stretch_Energy-OPLS-2005>
805.78466796875

> <r_mmod_Bend_Energy-OPLS-2005>
587.294311523438

> <r_mmod_Torsional_Energy-OPLS-2005>
404.365081787109

> <r_mmod_Improper_Torsional_Energy-OPLS-2005>
4.82166242599487

> <r_mmod_Van_der_Waal_Energy-OPLS-2005>
167.224227905273

> <r_mmod_Electrostatic_Energy-OPLS-2005>
-312.648071289062

> <r_mmod_Solvation_Energy-OPLS-2005>
-227.398864746094

> <b_mmod_Minimization_Converged-OPLS-2005>
0

> <r_mmod_RMS_Derivative-OPLS-2005>
3.19539356231689

$$$$
79
                    3D
 Structure written by MMmdl.
158167  0  0  1  0            999 V2000
  -30.6704  -14.7621   20.4434 C   0  0  0  0  0  0
  -30.4129  -12.4859   19.4571 C   0  0  0  0  0  0
  -29.4854  -12.4925   18.2310 C   0  0  0  0  0  0
  -28.0162  -12.3210   18.6563 C   0  0  0  0  0  0
  -27.6224  -13.2424   19.8392 C   0  0  2  0  0  0
  -28.6834  -13.2554   20.9642 C   0  0  0  0  0  0
  -25.2407  -13.8228   20.5701 C   0  0  0  0  0  0
  -24.1747  -13.0460   20.9297 C   0  0  0  0  0  0
  -24.6407  -11.6957   20.8805 C   0  0  0  0  0  0
  -23.9093  -10.4305   21.0435 C   0  0  0  0  0  0
  -24.3581   -9.4281   21.9276 C   0  0  0  0  0  0
  -23.6271   -8.2317   22.0811 C   0  0  0  0  0  0
  -22.4293   -8.0307   21.3518 C   0  0  0  0  0  0
  -21.9988   -9.0248   20.4572 C   0  0  0  0  0  0
  -22.7280  -10.2155   20.3055 C   0  0  0  0  0  0
  -21.6826   -6.0798   22.5300 C   0  0  0  0  0  0
  -21.3956   -6.5641   23.8268 C   0  0  0  0  0  0
  -21.3620   -5.6794   24.9195 C   0  0  0  0  0  0
  -21.6043   -4.3055   24.7228 C   0  0  0  0  0  0
  -21.8829   -3.8166   23.4336 C   0  0  0  0  0  0
  -21.9221   -4.7014   22.3428 C   0  0  0  0  0  0
  -22.7738  -13.5114   21.1970 C   0  0  0  0  0  0
  -22.1703   -4.2224   21.0996 F   0  0  0  0  0  0
  -21.5630   -3.4544   25.7726 F   0  0  0  0  0  0
  -29.9667  -13.5854   20.3377 N   0  0  0  0  0  0
  -26.2839  -12.9453   20.3368 N   0  0  0  0  0  0
  -25.9346  -11.6589   20.5913 N   0  0  0  0  0  0
  -22.0595  -12.8119   22.0717 N   0  0  0  0  0  0
  -25.4113  -15.1916   20.4046 N   0  0  0  0  0  0
  -31.9002  -14.6977   20.3481 O   0  0  0  0  0  0
  -21.6605   -6.8980   21.4257 O   0  0  0  0  0  0
  -22.3278  -14.5331   20.6713 O   0  0  0  0  0  0
  -24.6346  -31.8556   23.2027 C   0  0  0  0  0  0
  -25.9164  -32.4733   23.8398 C   0  0  1  0  0  0
  -27.1871  -27.2358   20.1484 C   0  0  0  0  0  0
  -25.5941  -33.8535   24.2280 N   0  0  0  0  0  0
  -23.4283  -30.4833   21.5464 C   0  0  2  0  0  0
  -24.8701  -28.9356   20.1090 C   0  0  0  0  0  0
  -22.7504  -29.4611   22.4915 C   0  0  0  0  0  0
  -18.0298  -28.1374   22.8487 C   0  0  0  0  0  0
  -24.1472  -36.7224   23.2648 C   0  0  0  0  0  0
  -25.9809  -30.7585   21.3946 C   0  0  0  0  0  0
  -26.0467  -29.3865   20.7254 C   0  0  0  0  0  0
  -27.2112  -28.5487   20.7355 C   0  0  0  0  0  0
  -25.9987  -26.8747   19.4784 C   0  0  0  0  0  0
  -24.8550  -27.6884   19.4711 C   0  0  0  0  0  0
  -23.6473  -29.8286   20.1600 C   0  0  0  0  0  0
  -25.4110  -36.3034   24.0341 C   0  0  1  0  0  0
  -20.5914  -28.3698   23.1248 C   0  0  2  0  0  0
  -20.6786  -26.9406   22.5421 C   0  0  0  0  0  0
  -19.5764  -26.6368   21.5217 C   0  0  0  0  0  0
  -18.1937  -26.7914   22.1622 C   0  0  0  0  0  0
  -19.1555  -28.8862   23.2859 C   0  0  0  0  0  0
  -18.9478  -30.1470   23.8880 C   0  0  0  0  0  0
  -17.6478  -30.6594   24.0559 C   0  0  0  0  0  0
  -25.9058  -34.9406   23.5099 C   0  0  0  0  0  0
  -16.5369  -29.9088   23.6344 C   0  0  0  0  0  0
  -16.7287  -28.6499   23.0372 C   0  0  0  0  0  0
  -26.4507  -31.6585   25.0817 C   0  0  0  0  0  0
  -25.3722  -31.3762   26.1540 C   0  0  0  0  0  0
  -27.0396  -30.2985   24.6407 C   0  0  0  0  0  0
  -27.6041  -32.4396   25.7588 C   0  0  0  0  0  0
  -27.5563  -37.1780   24.8472 C   0  0  0  0  0  0
  -21.4220  -29.3026   22.3620 N   0  0  0  0  0  0
  -26.4271  -37.3764   23.9413 N   0  0  0  0  0  0
  -24.6995  -31.0532   22.1007 N   0  0  0  0  0  0
  -23.4176  -28.8130   23.3023 O   0  0  0  0  0  0
  -28.2473  -26.2988   20.2060 O   0  0  0  0  0  0
  -26.5653  -34.8884   22.4671 O   0  0  0  0  0  0
  -23.5509  -32.1384   23.7327 O   0  0  0  0  0  0
  -27.8061  -20.7205   18.8887 C   0  0  0  0  0  0
  -27.5539  -19.4083   18.4368 C   0  0  0  0  0  0
  -29.0565  -19.7867   20.7554 C   0  0  0  0  0  0
  -28.8715  -18.4248   20.2647 C   0  0  0  0  0  0
  -28.5154  -20.9703   20.0856 C   0  0  0  0  0  0
  -28.0393  -18.2841   19.1292 C   0  0  0  0  0  0
  -28.2203  -22.8054   21.7903 C   0  0  0  0  0  0
  -28.0552  -24.3380   21.8934 C   0  0  0  0  0  0
  -28.6943  -23.6399   19.7171 C   0  0  0  0  0  0
  -27.9350  -24.8300   20.4427 C   0  0  2  0  0  0
  -30.6657  -16.5085   18.7964 C   0  0  0  0  0  0
  -29.4772  -17.0820   20.9110 C   0  0  0  0  0  0
  -28.5736  -22.3879   20.5576 N   0  0  0  0  0  0
  -30.0584  -15.9577   20.0359 N   0  0  0  0  0  0
  -28.0326  -22.0719   22.7651 O   0  0  0  0  0  0
  -27.7159  -17.0465   18.6819 F   0  0  0  0  0  0
  -31.4473  -12.6045   19.1347 H   0  0  0  0  0  0
  -30.3645  -11.5329   19.9843 H   0  0  0  0  0  0
  -29.7698  -11.6979   17.5427 H   0  0  0  0  0  0
  -29.5992  -13.4247   17.6828 H   0  0  0  0  0  0
  -27.8845  -11.2814   18.9453 H   0  0  0  0  0  0
  -27.3483  -12.4885   17.8098 H   0  0  0  0  0  0
  -27.5869  -14.2485   19.4233 H   0  0  0  0  0  0
  -28.7516  -12.2914   21.4756 H   0  0  0  0  0  0
  -28.4331  -14.0048   21.7195 H   0  0  0  0  0  0
  -25.2678   -9.5827   22.4928 H   0  0  0  0  0  0
  -23.9918   -7.4763   22.7650 H   0  0  0  0  0  0
  -21.0955   -8.8742   19.8846 H   0  0  0  0  0  0
  -22.3738  -10.9699   19.6137 H   0  0  0  0  0  0
  -21.1862   -7.6129   23.9762 H   0  0  0  0  0  0
  -21.1404   -6.0491   25.9118 H   0  0  0  0  0  0
  -22.0642   -2.7626   23.2793 H   0  0  0  0  0  0
  -21.1187  -13.1028   22.3083 H   0  0  0  0  0  0
  -22.4528  -11.9954   22.5157 H   0  0  0  0  0  0
  -26.2350  -15.6073   19.9833 H   0  0  0  0  0  0
  -24.6276  -15.8283   20.4693 H   0  0  0  0  0  0
  -26.7214  -32.5339   23.1131 H   0  0  0  0  0  0
  -25.0081  -33.9695   25.0417 H   0  0  0  0  0  0
  -22.7284  -31.3091   21.4056 H   0  0  0  0  0  0
  -23.3769  -35.9522   23.3342 H   0  0  0  0  0  0
  -24.3541  -36.8821   22.2051 H   0  0  0  0  0  0
  -23.7195  -37.6411   23.6672 H   0  0  0  0  0  0
  -26.1465  -31.5282   20.6421 H   0  0  0  0  0  0
  -26.8441  -30.7813   22.0467 H   0  0  0  0  0  0
  -28.1066  -28.8880   21.2361 H   0  0  0  0  0  0
  -25.9305  -25.9438   18.9378 H   0  0  0  0  0  0
  -23.9576  -27.3443   18.9769 H   0  0  0  0  0  0
  -23.7838  -30.6099   19.4124 H   0  0  0  0  0  0
  -22.7630  -29.2712   19.8453 H   0  0  0  0  0  0
  -25.1297  -36.1882   25.0851 H   0  0  0  0  0  0
  -21.0010  -28.3285   24.1368 H   0  0  0  0  0  0
  -20.5649  -26.2318   23.3631 H   0  0  0  0  0  0
  -21.6646  -26.7398   22.1229 H   0  0  0  0  0  0
  -19.6903  -25.6264   21.1273 H   0  0  0  0  0  0
  -19.6698  -27.3161   20.6722 H   0  0  0  0  0  0
  -17.4207  -26.6692   21.4026 H   0  0  0  0  0  0
  -18.0320  -26.0065   22.9020 H   0  0  0  0  0  0
  -19.7966  -30.7289   24.2225 H   0  0  0  0  0  0
  -17.5041  -31.6264   24.5144 H   0  0  0  0  0  0
  -15.5367  -30.2973   23.7679 H   0  0  0  0  0  0
  -15.8692  -28.0797   22.7107 H   0  0  0  0  0  0
  -24.5910  -30.7088   25.7880 H   0  0  0  0  0  0
  -24.8906  -32.2935   26.4942 H   0  0  0  0  0  0
  -25.8043  -30.8971   27.0331 H   0  0  0  0  0  0
  -26.2983  -29.6665   24.1508 H   0  0  0  0  0  0
  -27.4065  -29.7361   25.5000 H   0  0  0  0  0  0
  -27.8876  -30.4215   23.9676 H   0  0  0  0  0  0
  -27.2591  -33.3699   26.2129 H   0  0  0  0  0  0
  -28.3850  -32.6974   25.0417 H   0  0  0  0  0  0
  -28.0710  -31.8575   26.5543 H   0  0  0  0  0  0
  -28.2593  -38.0068   24.7522 H   0  0  0  0  0  0
  -28.1056  -36.2601   24.6310 H   0  0  0  0  0  0
  -27.2283  -37.1430   25.8879 H   0  0  0  0  0  0
  -20.9411  -29.8724   21.6803 H   0  0  0  0  0  0
  -26.0140  -38.2828   24.1462 H   0  0  0  0  0  0
  -27.3813  -21.5304   18.3184 H   0  0  0  0  0  0
  -26.9778  -19.2593   17.5358 H   0  0  0  0  0  0
  -29.6150  -19.9197   21.6699 H   0  0  0  0  0  0
  -27.1743  -24.5883   22.4840 H   0  0  0  0  0  0
  -28.9280  -24.7579   22.3886 H   0  0  0  0  0  0
  -29.7551  -23.8862   19.6463 H   0  0  0  0  0  0
  -28.3325  -23.5055   18.7015 H   0  0  0  0  0  0
  -26.8928  -24.6401   20.2095 H   0  0  0  0  0  0
  -30.4030  -15.8871   17.9436 H   0  0  0  0  0  0
  -31.7560  -16.5515   18.8335 H   0  0  0  0  0  0
  -30.3812  -17.5225   18.5302 H   0  0  0  0  0  0
  -28.6641  -16.6281   21.4827 H   0  0  0  0  0  0
  -30.2308  -17.3663   21.6469 H   0  0  0  0  0  0
  1 25  1  0  0  0
  1 30  2  0  0  0
  1 84  1  0  0  0
  2  3  1  0  0  0
  2 25  1  0  0  0
  2 87  1  0  0  0
  2 88  1  0  0  0
  3  4  1  0  0  0
  3 89  1  0  0  0
  3 90  1  0  0  0
  4  5  1  0  0  0
  4 91  1  0  0  0
  4 92  1  0  0  0
  5  6  1  0  0  0
  5 26  1  0  0  0
  5 93  1  0  0  0
  6 25  1  0  0  0
  6 94  1  0  0  0
  6 95  1  0  0  0
  7  8  2  0  0  0
  7 26  1  0  0  0
  7 29  1  0  0  0
  8  9  1  0  0  0
  8 22  1  0  0  0
  9 10  1  0  0  0
  9 27  2  0  0  0
 10 11  2  0  0  0
 10 15  1  0  0  0
 11 12  1  0  0  0
 11 96  1  0  0  0
 12 13  2  0  0  0
 12 97  1  0  0  0
 13 14  1  0  0  0
 13 31  1  0  0  0
 14 15  2  0  0  0
 14 98  1  0  0  0
 15 99  1  0  0  0
 16 17  2  0  0  0
 16 21  1  0  0  0
 16 31  1  0  0  0
 17 18  1  0  0  0
 17100  1  0  0  0
 18 19  2  0  0  0
 18101  1  0  0  0
 19 20  1  0  0  0
 19 24  1  0  0  0
 20 21  2  0  0  0
 20102  1  0  0  0
 21 23  1  0  0  0
 22 28  1  0  0  0
 22 32  2  0  0  0
 26 27  1  0  0  0
 28103  1  0  0  0
 28104  1  0  0  0
 29105  1  0  0  0
 29106  1  0  0  0
 33 34  1  0  0  0
 33 66  1  0  0  0
 33 70  2  0  0  0
 34 36  1  0  0  0
 34 59  1  0  0  0
 34107  1  0  0  0
 35 44  2  0  0  0
 35 45  1  0  0  0
 35 68  1  0  0  0
 36 56  1  0  0  0
 36108  1  0  0  0
 37 39  1  0  0  0
 37 47  1  0  0  0
 37 66  1  0  0  0
 37109  1  0  0  0
 38 43  2  0  0  0
 38 46  1  0  0  0
 38 47  1  0  0  0
 39 64  1  0  0  0
 39 67  2  0  0  0
 40 52  1  0  0  0
 40 53  2  0  0  0
 40 58  1  0  0  0
 41110  1  0  0  0
 41111  1  0  0  0
 41112  1  0  0  0
 41 48  1  0  0  0
 42 43  1  0  0  0
 42 66  1  0  0  0
 42113  1  0  0  0
 42114  1  0  0  0
 43 44  1  0  0  0
 44115  1  0  0  0
 45 46  2  0  0  0
 45116  1  0  0  0
 46117  1  0  0  0
 47118  1  0  0  0
 47119  1  0  0  0
 48 56  1  0  0  0
 48 65  1  0  0  0
 48120  1  0  0  0
 49 50  1  0  0  0
 49 53  1  0  0  0
 49 64  1  0  0  0
 49121  1  0  0  0
 50 51  1  0  0  0
 50122  1  0  0  0
 50123  1  0  0  0
 51 52  1  0  0  0
 51124  1  0  0  0
 51125  1  0  0  0
 52126  1  0  0  0
 52127  1  0  0  0
 53 54  1  0  0  0
 54 55  2  0  0  0
 54128  1  0  0  0
 55 57  1  0  0  0
 55129  1  0  0  0
 56 69  2  0  0  0
 57 58  2  0  0  0
 57130  1  0  0  0
 58131  1  0  0  0
 59 60  1  0  0  0
 59 61  1  0  0  0
 59 62  1  0  0  0
 60132  1  0  0  0
 60133  1  0  0  0
 60134  1  0  0  0
 61135  1  0  0  0
 61136  1  0  0  0
 61137  1  0  0  0
 62138  1  0  0  0
 62139  1  0  0  0
 62140  1  0  0  0
 63 65  1  0  0  0
 63141  1  0  0  0
 63142  1  0  0  0
 63143  1  0  0  0
 64144  1  0  0  0
 65145  1  0  0  0
 68 80  1  0  0  0
 71 72  2  0  0  0
 71 75  1  0  0  0
 71146  1  0  0  0
 72 76  1  0  0  0
 72147  1  0  0  0
 73 74  1  0  0  0
 73 75  2  0  0  0
 73148  1  0  0  0
 74 76  2  0  0  0
 74 82  1  0  0  0
 75 83  1  0  0  0
 76 86  1  0  0  0
 77 78  1  0  0  0
 77 83  1  0  0  0
 77 85  2  0  0  0
 78 80  1  0  0  0
 78149  1  0  0  0
 78150  1  0  0  0
 79 80  1  0  0  0
 79 83  1  0  0  0
 79151  1  0  0  0
 79152  1  0  0  0
 80153  1  0  0  0
 81 84  1  0  0  0
 81154  1  0  0  0
 81155  1  0  0  0
 81156  1  0  0  0
 82 84  1  0  0  0
 82157  1  0  0  0
 82158  1  0  0  0
M  ISO  4   1 100  68 101  80 101  84 100
M  END
> <chiral flag>
0

> <version>
0

> <s_m_source_file>
/data/baiqing/PycharmProjects/Reinvent-master-3.2/result/LINK_invent/BTK/process_docking_weight1_custom_product_contain_oxygen_bond_distance_aromatic_linkinvent_7_9_3/rearranged_h_0026.sdf

> <i_m_source_file_index>
80

> <r_mmod_Potential_Energy-OPLS-2005>
457.858734130859

> <r_mmod_Stretch_Energy-OPLS-2005>
133.977691650391

> <r_mmod_Bend_Energy-OPLS-2005>
205.018112182617

> <r_mmod_Torsional_Energy-OPLS-2005>
348.960021972656

> <r_mmod_Improper_Torsional_Energy-OPLS-2005>
26.3569984436035

> <r_mmod_Van_der_Waal_Energy-OPLS-2005>
147.618957519531

> <r_mmod_Electrostatic_Energy-OPLS-2005>
-317.393920898438

> <r_mmod_Solvation_Energy-OPLS-2005>
-203.768814086914

> <b_mmod_Minimization_Converged-OPLS-2005>
0

> <r_mmod_RMS_Derivative-OPLS-2005>
8.36278533935547

$$$$
80
                    3D
 Structure written by MMmdl.
164174  0  0  1  0            999 V2000
  -30.7040  -14.6716   20.4462 C   0  0  0  0  0  0
  -30.4075  -12.4171   19.4481 C   0  0  0  0  0  0
  -29.4928  -12.4893   18.2117 C   0  0  0  0  0  0
  -28.0200  -12.3297   18.6340 C   0  0  0  0  0  0
  -27.6356  -13.2340   19.8376 C   0  0  2  0  0  0
  -28.6886  -13.1837   20.9642 C   0  0  0  0  0  0
  -25.2496  -13.8204   20.5700 C   0  0  0  0  0  0
  -24.1795  -13.0438   20.9219 C   0  0  0  0  0  0
  -24.6400  -11.6926   20.8762 C   0  0  0  0  0  0
  -23.9085  -10.4296   21.0409 C   0  0  0  0  0  0
  -24.3634   -9.4206   21.9180 C   0  0  0  0  0  0
  -23.6306   -8.2241   22.0750 C   0  0  0  0  0  0
  -22.4285   -8.0280   21.3544 C   0  0  0  0  0  0
  -21.9930   -9.0260   20.4650 C   0  0  0  0  0  0
  -22.7261  -10.2138   20.3055 C   0  0  0  0  0  0
  -21.6854   -6.0739   22.5278 C   0  0  0  0  0  0
  -21.4016   -6.5636   23.8211 C   0  0  0  0  0  0
  -21.3663   -5.6788   24.9171 C   0  0  0  0  0  0
  -21.6042   -4.3050   24.7227 C   0  0  0  0  0  0
  -21.8819   -3.8149   23.4346 C   0  0  0  0  0  0
  -21.9194   -4.6968   22.3405 C   0  0  0  0  0  0
  -22.7816  -13.5227   21.1862 C   0  0  0  0  0  0
  -22.1667   -4.2153   21.0984 F   0  0  0  0  0  0
  -21.5634   -3.4534   25.7740 F   0  0  0  0  0  0
  -29.9801  -13.5080   20.3525 N   0  0  0  0  0  0
  -26.2921  -12.9424   20.3265 N   0  0  0  0  0  0
  -25.9330  -11.6564   20.5758 N   0  0  0  0  0  0
  -22.0461  -12.8221   22.0421 N   0  0  0  0  0  0
  -25.4162  -15.1920   20.4112 N   0  0  0  0  0  0
  -31.9229  -14.6082   20.2649 O   0  0  0  0  0  0
  -21.6638   -6.8884   21.4240 O   0  0  0  0  0  0
  -22.3501  -14.5527   20.6700 O   0  0  0  0  0  0
  -24.6240  -31.8583   23.1986 C   0  0  0  0  0  0
  -25.9084  -32.4771   23.8327 C   0  0  1  0  0  0
  -27.2340  -27.3219   20.1288 C   0  0  0  0  0  0
  -25.5891  -33.8570   24.2255 N   0  0  0  0  0  0
  -23.4184  -30.4768   21.5417 C   0  0  2  0  0  0
  -24.8652  -28.9149   20.1234 C   0  0  0  0  0  0
  -22.7468  -29.4612   22.4946 C   0  0  0  0  0  0
  -18.0282  -28.1394   22.8489 C   0  0  0  0  0  0
  -24.1481  -36.7305   23.2642 C   0  0  0  0  0  0
  -25.9558  -30.7910   21.3652 C   0  0  0  0  0  0
  -26.0311  -29.4121   20.7192 C   0  0  0  0  0  0
  -27.2190  -28.6279   20.7049 C   0  0  0  0  0  0
  -26.0458  -26.8560   19.5317 C   0  0  0  0  0  0
  -24.8730  -27.6410   19.5242 C   0  0  0  0  0  0
  -23.6345  -29.7987   20.1618 C   0  0  0  0  0  0
  -25.4109  -36.3084   24.0327 C   0  0  1  0  0  0
  -20.5880  -28.3681   23.1300 C   0  0  2  0  0  0
  -20.6770  -26.9406   22.5424 C   0  0  0  0  0  0
  -19.5743  -26.6385   21.5226 C   0  0  0  0  0  0
  -18.1921  -26.7937   22.1630 C   0  0  0  0  0  0
  -19.1537  -28.8855   23.2887 C   0  0  0  0  0  0
  -18.9458  -30.1462   23.8895 C   0  0  0  0  0  0
  -17.6455  -30.6589   24.0575 C   0  0  0  0  0  0
  -25.9042  -34.9452   23.5101 C   0  0  0  0  0  0
  -16.5347  -29.9095   23.6327 C   0  0  0  0  0  0
  -16.7272  -28.6524   23.0334 C   0  0  0  0  0  0
  -26.4469  -31.6576   25.0699 C   0  0  0  0  0  0
  -25.3717  -31.3739   26.1447 C   0  0  0  0  0  0
  -27.0286  -30.2982   24.6155 C   0  0  0  0  0  0
  -27.6039  -32.4300   25.7468 C   0  0  0  0  0  0
  -27.5575  -37.1814   24.8467 C   0  0  0  0  0  0
  -21.4184  -29.3036   22.3699 N   0  0  0  0  0  0
  -26.4287  -37.3777   23.9407 N   0  0  0  0  0  0
  -24.6851  -31.0596   22.0929 N   0  0  0  0  0  0
  -23.4192  -28.8171   23.3037 O   0  0  0  0  0  0
  -28.4048  -26.5656   20.0637 O   0  0  0  0  0  0
  -26.5637  -34.8926   22.4683 O   0  0  0  0  0  0
  -23.5405  -32.1372   23.7326 O   0  0  0  0  0  0
  -29.5031  -20.8453   18.2656 C   0  0  0  0  0  0
  -30.3132  -20.1041   17.3929 C   0  0  0  0  0  0
  -29.4470  -18.9472   19.8270 C   0  0  0  0  0  0
  -30.2878  -18.2193   18.9429 C   0  0  0  0  0  0
  -29.0718  -20.3258   19.5069 C   0  0  0  0  0  0
  -30.7205  -18.8087   17.7362 C   0  0  0  0  0  0
  -29.0400  -18.1469   21.0773 C   0  0  0  0  0  0
  -30.8423  -16.8225   19.2852 C   0  0  0  0  0  0
  -27.7715  -24.7503   21.7979 C   0  0  0  0  0  0
  -28.9861  -16.5651   20.9203 C   0  0  0  0  0  0
  -28.0853  -23.2352   21.9465 C   0  0  0  0  0  0
  -28.4340  -23.8645   19.6860 C   0  0  0  0  0  0
  -28.5384  -25.1724   20.5528 C   0  0  1  0  0  0
  -28.1512  -21.2907   20.3367 C   0  0  0  0  0  0
  -30.0952  -15.8983   20.1828 N   0  0  0  0  0  0
  -28.6235  -22.7125   20.6547 N   0  3  2  0  0  0
  -31.5398  -18.1309   16.8962 F   0  0  0  0  0  0
  -31.4510  -12.5005   19.1401 H   0  0  0  0  0  0
  -30.3210  -11.4475   19.9426 H   0  0  0  0  0  0
  -29.7655  -11.7136   17.4936 H   0  0  0  0  0  0
  -29.6302  -13.4441   17.7014 H   0  0  0  0  0  0
  -27.8690  -11.2821   18.8953 H   0  0  0  0  0  0
  -27.3598  -12.5310   17.7886 H   0  0  0  0  0  0
  -27.6236  -14.2503   19.4451 H   0  0  0  0  0  0
  -28.7200  -12.1955   21.4240 H   0  0  0  0  0  0
  -28.4431  -13.8847   21.7614 H   0  0  0  0  0  0
  -25.2782   -9.5681   22.4747 H   0  0  0  0  0  0
  -24.0026   -7.4632   22.7462 H   0  0  0  0  0  0
  -21.0867   -8.8780   19.8956 H   0  0  0  0  0  0
  -22.3723  -10.9675   19.6161 H   0  0  0  0  0  0
  -21.2004   -7.6142   23.9722 H   0  0  0  0  0  0
  -21.1485   -6.0511   25.9073 H   0  0  0  0  0  0
  -22.0598   -2.7613   23.2841 H   0  0  0  0  0  0
  -22.4098  -11.9910   22.4848 H   0  0  0  0  0  0
  -21.1058  -13.1217   22.2578 H   0  0  0  0  0  0
  -24.6503  -15.8458   20.5270 H   0  0  0  0  0  0
  -26.2650  -15.6310   20.0800 H   0  0  0  0  0  0
  -26.7164  -32.5446   23.1089 H   0  0  0  0  0  0
  -24.9995  -33.9708   25.0369 H   0  0  0  0  0  0
  -22.7121  -31.2958   21.3923 H   0  0  0  0  0  0
  -23.3731  -35.9650   23.3321 H   0  0  0  0  0  0
  -24.3565  -36.8915   22.2054 H   0  0  0  0  0  0
  -23.7260  -37.6518   23.6663 H   0  0  0  0  0  0
  -26.0780  -31.5475   20.5883 H   0  0  0  0  0  0
  -26.8388  -30.8483   21.9901 H   0  0  0  0  0  0
  -28.1252  -29.0174   21.1490 H   0  0  0  0  0  0
  -26.0287  -25.8851   19.0591 H   0  0  0  0  0  0
  -23.9787  -27.2504   19.0587 H   0  0  0  0  0  0
  -23.7605  -30.5681   19.3996 H   0  0  0  0  0  0
  -22.7547  -29.2280   19.8588 H   0  0  0  0  0  0
  -25.1292  -36.1932   25.0820 H   0  0  0  0  0  0
  -20.9966  -28.3255   24.1420 H   0  0  0  0  0  0
  -20.5668  -26.2297   23.3628 H   0  0  0  0  0  0
  -21.6646  -26.7445   22.1220 H   0  0  0  0  0  0
  -19.6905  -25.6298   21.1252 H   0  0  0  0  0  0
  -19.6678  -27.3208   20.6767 H   0  0  0  0  0  0
  -17.4199  -26.6692   21.4025 H   0  0  0  0  0  0
  -18.0304  -26.0077   22.9019 H   0  0  0  0  0  0
  -19.7931  -30.7290   24.2251 H   0  0  0  0  0  0
  -17.5011  -31.6264   24.5189 H   0  0  0  0  0  0
  -15.5352  -30.3003   23.7645 H   0  0  0  0  0  0
  -15.8674  -28.0863   22.7014 H   0  0  0  0  0  0
  -24.5849  -30.7141   25.7778 H   0  0  0  0  0  0
  -24.8972  -32.2920   26.4916 H   0  0  0  0  0  0
  -25.8050  -30.8872   27.0192 H   0  0  0  0  0  0
  -26.2850  -29.6735   24.1195 H   0  0  0  0  0  0
  -27.3973  -29.7228   25.4658 H   0  0  0  0  0  0
  -27.8714  -30.4248   23.9361 H   0  0  0  0  0  0
  -27.2635  -33.3582   26.2071 H   0  0  0  0  0  0
  -28.3842  -32.6896   25.0301 H   0  0  0  0  0  0
  -28.0722  -31.8421   26.5373 H   0  0  0  0  0  0
  -28.2610  -38.0090   24.7489 H   0  0  0  0  0  0
  -28.1049  -36.2628   24.6317 H   0  0  0  0  0  0
  -27.2298  -37.1504   25.8868 H   0  0  0  0  0  0
  -20.9361  -29.8752   21.6909 H   0  0  0  0  0  0
  -26.0167  -38.2852   24.1390 H   0  0  0  0  0  0
  -29.2002  -21.8326   17.9515 H   0  0  0  0  0  0
  -30.6345  -20.5335   16.4549 H   0  0  0  0  0  0
  -28.0707  -18.4973   21.4311 H   0  0  0  0  0  0
  -29.7560  -18.3936   21.8623 H   0  0  0  0  0  0
  -31.8292  -17.0127   19.7124 H   0  0  0  0  0  0
  -31.0164  -16.2889   18.3492 H   0  0  0  0  0  0
  -28.0607  -25.3225   22.6795 H   0  0  0  0  0  0
  -26.7025  -24.8951   21.6419 H   0  0  0  0  0  0
  -28.0766  -16.3244   20.3732 H   0  0  0  0  0  0
  -28.8747  -16.1173   21.9073 H   0  0  0  0  0  0
  -27.1819  -22.7057   22.2520 H   0  0  0  0  0  0
  -28.8319  -23.0689   22.7241 H   0  0  0  0  0  0
  -29.1903  -23.8540   18.9011 H   0  0  0  0  0  0
  -27.4524  -23.8021   19.2158 H   0  0  0  0  0  0
  -29.5849  -25.1852   20.8639 H   0  0  0  0  0  0
  -27.9669  -20.7853   21.2838 H   0  0  0  0  0  0
  -27.1786  -21.3495   19.8476 H   0  0  0  0  0  0
  -29.6183  -22.6251   20.8067 H   0  0  0  0  0  0
  1 25  1  0  0  0
  1 30  2  0  0  0
  1 85  1  0  0  0
  2  3  1  0  0  0
  2 25  1  0  0  0
  2 88  1  0  0  0
  2 89  1  0  0  0
  3  4  1  0  0  0
  3 90  1  0  0  0
  3 91  1  0  0  0
  4  5  1  0  0  0
  4 92  1  0  0  0
  4 93  1  0  0  0
  5  6  1  0  0  0
  5 26  1  0  0  0
  5 94  1  0  0  0
  6 25  1  0  0  0
  6 95  1  0  0  0
  6 96  1  0  0  0
  7  8  2  0  0  0
  7 26  1  0  0  0
  7 29  1  0  0  0
  8  9  1  0  0  0
  8 22  1  0  0  0
  9 10  1  0  0  0
  9 27  2  0  0  0
 10 11  2  0  0  0
 10 15  1  0  0  0
 11 12  1  0  0  0
 11 97  1  0  0  0
 12 13  2  0  0  0
 12 98  1  0  0  0
 13 14  1  0  0  0
 13 31  1  0  0  0
 14 15  2  0  0  0
 14 99  1  0  0  0
 15100  1  0  0  0
 16 17  2  0  0  0
 16 21  1  0  0  0
 16 31  1  0  0  0
 17 18  1  0  0  0
 17101  1  0  0  0
 18 19  2  0  0  0
 18102  1  0  0  0
 19 20  1  0  0  0
 19 24  1  0  0  0
 20 21  2  0  0  0
 20103  1  0  0  0
 21 23  1  0  0  0
 22 28  1  0  0  0
 22 32  2  0  0  0
 26 27  1  0  0  0
 28104  1  0  0  0
 28105  1  0  0  0
 29106  1  0  0  0
 29107  1  0  0  0
 33 34  1  0  0  0
 33 66  1  0  0  0
 33 70  2  0  0  0
 34 36  1  0  0  0
 34 59  1  0  0  0
 34108  1  0  0  0
 35 44  2  0  0  0
 35 45  1  0  0  0
 35 68  1  0  0  0
 36 56  1  0  0  0
 36109  1  0  0  0
 37 39  1  0  0  0
 37 47  1  0  0  0
 37 66  1  0  0  0
 37110  1  0  0  0
 38 43  2  0  0  0
 38 46  1  0  0  0
 38 47  1  0  0  0
 39 64  1  0  0  0
 39 67  2  0  0  0
 40 52  1  0  0  0
 40 53  2  0  0  0
 40 58  1  0  0  0
 41111  1  0  0  0
 41112  1  0  0  0
 41113  1  0  0  0
 41 48  1  0  0  0
 42 43  1  0  0  0
 42 66  1  0  0  0
 42114  1  0  0  0
 42115  1  0  0  0
 43 44  1  0  0  0
 44116  1  0  0  0
 45 46  2  0  0  0
 45117  1  0  0  0
 46118  1  0  0  0
 47119  1  0  0  0
 47120  1  0  0  0
 48 56  1  0  0  0
 48 65  1  0  0  0
 48121  1  0  0  0
 49 50  1  0  0  0
 49 53  1  0  0  0
 49 64  1  0  0  0
 49122  1  0  0  0
 50 51  1  0  0  0
 50123  1  0  0  0
 50124  1  0  0  0
 51 52  1  0  0  0
 51125  1  0  0  0
 51126  1  0  0  0
 52127  1  0  0  0
 52128  1  0  0  0
 53 54  1  0  0  0
 54 55  2  0  0  0
 54129  1  0  0  0
 55 57  1  0  0  0
 55130  1  0  0  0
 56 69  2  0  0  0
 57 58  2  0  0  0
 57131  1  0  0  0
 58132  1  0  0  0
 59 60  1  0  0  0
 59 61  1  0  0  0
 59 62  1  0  0  0
 60133  1  0  0  0
 60134  1  0  0  0
 60135  1  0  0  0
 61136  1  0  0  0
 61137  1  0  0  0
 61138  1  0  0  0
 62139  1  0  0  0
 62140  1  0  0  0
 62141  1  0  0  0
 63 65  1  0  0  0
 63142  1  0  0  0
 63143  1  0  0  0
 63144  1  0  0  0
 64145  1  0  0  0
 65146  1  0  0  0
 68 83  1  0  0  0
 71 72  2  0  0  0
 71 75  1  0  0  0
 71147  1  0  0  0
 72 76  1  0  0  0
 72148  1  0  0  0
 73 74  1  0  0  0
 73 75  2  0  0  0
 73 77  1  0  0  0
 74 76  2  0  0  0
 74 78  1  0  0  0
 75 84  1  0  0  0
 76 87  1  0  0  0
 77 80  1  0  0  0
 77149  1  0  0  0
 77150  1  0  0  0
 78 85  1  0  0  0
 78151  1  0  0  0
 78152  1  0  0  0
 79 81  1  0  0  0
 79 83  1  0  0  0
 79153  1  0  0  0
 79154  1  0  0  0
 80 85  1  0  0  0
 80155  1  0  0  0
 80156  1  0  0  0
 81 86  1  0  0  0
 81157  1  0  0  0
 81158  1  0  0  0
 82 83  1  0  0  0
 82 86  1  0  0  0
 82159  1  0  0  0
 82160  1  0  0  0
 83161  1  0  0  0
 84162  1  0  0  0
 84163  1  0  0  0
 84 86  1  0  0  0
 86164  1  0  0  0
M  CHG  1  86   1
M  ISO  4   1 100  68 101  83 101  85 100
M  END
> <chiral flag>
0

> <version>
0

> <s_m_source_file>
/data/baiqing/PycharmProjects/Reinvent-master-3.2/result/LINK_invent/BTK/process_docking_weight1_custom_product_contain_oxygen_bond_distance_aromatic_linkinvent_7_9_3/rearranged_h_0026.sdf

> <i_m_source_file_index>
81

> <r_mmod_Potential_Energy-OPLS-2005>
247.507507324219

> <r_mmod_Stretch_Energy-OPLS-2005>
88.5499420166016

> <r_mmod_Bend_Energy-OPLS-2005>
235.726119995117

> <r_mmod_Torsional_Energy-OPLS-2005>
344.577575683594

> <r_mmod_Improper_Torsional_Energy-OPLS-2005>
20.0363616943359

> <r_mmod_Van_der_Waal_Energy-OPLS-2005>
140.417709350586

> <r_mmod_Electrostatic_Energy-OPLS-2005>
-204.744155883789

> <r_mmod_Solvation_Energy-OPLS-2005>
-437.889404296875

> <b_mmod_Minimization_Converged-OPLS-2005>
0

> <r_mmod_RMS_Derivative-OPLS-2005>
1.6406055688858

$$$$
81
                    3D
 Structure written by MMmdl.
158167  0  0  1  0            999 V2000
  -30.6130  -14.6530   20.4877 C   0  0  0  0  0  0
  -30.4416  -12.3991   19.4489 C   0  0  0  0  0  0
  -29.5081  -12.5082   18.2224 C   0  0  0  0  0  0
  -28.0314  -12.3408   18.6355 C   0  0  0  0  0  0
  -27.6511  -13.2126   19.8611 C   0  0  2  0  0  0
  -28.6993  -13.0757   20.9892 C   0  0  0  0  0  0
  -25.2539  -13.8129   20.5710 C   0  0  0  0  0  0
  -24.1815  -13.0398   20.9213 C   0  0  0  0  0  0
  -24.6391  -11.6879   20.8742 C   0  0  0  0  0  0
  -23.9060  -10.4269   21.0405 C   0  0  0  0  0  0
  -24.3612   -9.4188   21.9184 C   0  0  0  0  0  0
  -23.6286   -8.2224   22.0753 C   0  0  0  0  0  0
  -22.4268   -8.0267   21.3544 C   0  0  0  0  0  0
  -21.9902   -9.0240   20.4646 C   0  0  0  0  0  0
  -22.7231  -10.2116   20.3055 C   0  0  0  0  0  0
  -21.6846   -6.0729   22.5280 C   0  0  0  0  0  0
  -21.4009   -6.5636   23.8213 C   0  0  0  0  0  0
  -21.3659   -5.6790   24.9176 C   0  0  0  0  0  0
  -21.6045   -4.3052   24.7225 C   0  0  0  0  0  0
  -21.8819   -3.8143   23.4348 C   0  0  0  0  0  0
  -21.9191   -4.6958   22.3403 C   0  0  0  0  0  0
  -22.7840  -13.5203   21.1869 C   0  0  0  0  0  0
  -22.1660   -4.2146   21.0980 F   0  0  0  0  0  0
  -21.5632   -3.4535   25.7738 F   0  0  0  0  0  0
  -30.0127  -13.4223   20.4214 N   0  0  0  0  0  0
  -26.2974  -12.9322   20.3309 N   0  0  0  0  0  0
  -25.9317  -11.6478   20.5751 N   0  0  0  0  0  0
  -22.0477  -12.8201   22.0426 N   0  0  0  0  0  0
  -25.4163  -15.1845   20.4159 N   0  0  0  0  0  0
  -31.7861  -14.8162   20.1407 O   0  0  0  0  0  0
  -21.6630   -6.8867   21.4240 O   0  0  0  0  0  0
  -22.3528  -14.5510   20.6717 O   0  0  0  0  0  0
  -24.6245  -31.8607   23.2023 C   0  0  0  0  0  0
  -25.9097  -32.4784   23.8351 C   0  0  1  0  0  0
  -27.2284  -27.3297   20.1228 C   0  0  0  0  0  0
  -25.5920  -33.8583   24.2277 N   0  0  0  0  0  0
  -23.4181  -30.4832   21.5451 C   0  0  2  0  0  0
  -24.8655  -28.9357   20.1144 C   0  0  0  0  0  0
  -22.7468  -29.4632   22.4947 C   0  0  0  0  0  0
  -18.0286  -28.1388   22.8493 C   0  0  0  0  0  0
  -24.1491  -36.7296   23.2639 C   0  0  0  0  0  0
  -25.9572  -30.7946   21.3714 C   0  0  0  0  0  0
  -26.0327  -29.4210   20.7179 C   0  0  0  0  0  0
  -27.2183  -28.6300   20.7116 C   0  0  0  0  0  0
  -26.0426  -26.8957   19.4904 C   0  0  0  0  0  0
  -24.8714  -27.6774   19.4919 C   0  0  0  0  0  0
  -23.6324  -29.8146   20.1618 C   0  0  0  0  0  0
  -25.4115  -36.3087   24.0332 C   0  0  1  0  0  0
  -20.5885  -28.3690   23.1295 C   0  0  2  0  0  0
  -20.6778  -26.9417   22.5419 C   0  0  0  0  0  0
  -19.5754  -26.6388   21.5222 C   0  0  0  0  0  0
  -18.1930  -26.7933   22.1626 C   0  0  0  0  0  0
  -19.1537  -28.8855   23.2889 C   0  0  0  0  0  0
  -18.9457  -30.1456   23.8905 C   0  0  0  0  0  0
  -17.6459  -30.6589   24.0568 C   0  0  0  0  0  0
  -25.9050  -34.9456   23.5104 C   0  0  0  0  0  0
  -16.5349  -29.9092   23.6331 C   0  0  0  0  0  0
  -16.7273  -28.6509   23.0352 C   0  0  0  0  0  0
  -26.4483  -31.6588   25.0715 C   0  0  0  0  0  0
  -25.3722  -31.3731   26.1446 C   0  0  0  0  0  0
  -27.0315  -30.3011   24.6158 C   0  0  0  0  0  0
  -27.6047  -32.4318   25.7485 C   0  0  0  0  0  0
  -27.5580  -37.1803   24.8464 C   0  0  0  0  0  0
  -21.4183  -29.3043   22.3688 N   0  0  0  0  0  0
  -26.4291  -37.3780   23.9408 N   0  0  0  0  0  0
  -24.6853  -31.0627   22.0969 N   0  0  0  0  0  0
  -23.4197  -28.8178   23.3029 O   0  0  0  0  0  0
  -28.3585  -26.5027   20.1300 O   0  0  0  0  0  0
  -26.5619  -34.8925   22.4672 O   0  0  0  0  0  0
  -23.5412  -32.1399   23.7360 O   0  0  0  0  0  0
  -30.9318  -19.3298   21.1616 C   0  0  0  0  0  0
  -28.9536  -19.3200   19.8075 C   0  0  0  0  0  0
  -29.9565  -20.0962   20.4490 C   0  0  0  0  0  0
  -29.9104  -17.1442   20.5865 C   0  0  0  0  0  0
  -30.9137  -17.9049   21.2369 C   0  0  0  0  0  0
  -28.9305  -17.8937   19.8741 C   0  0  0  0  0  0
  -29.0080  -22.4767   20.2748 C   0  0  0  0  0  0
  -31.6705  -23.4554   19.7136 C   0  0  0  0  0  0
  -30.6702  -24.4707   20.2533 C   0  0  0  0  0  0
  -31.4470  -22.0932   20.3824 C   0  0  0  0  0  0
  -29.2364  -24.0235   19.9434 C   0  0  2  0  0  0
  -28.1925  -25.0805   20.5168 C   0  0  0  0  0  0
  -30.0642  -21.5718   20.3248 N   0  0  0  0  0  0
  -29.7652  -15.6957   20.7382 N   0  0  0  0  0  0
  -27.8437  -22.1060   20.4530 O   0  0  0  0  0  0
  -31.8532  -17.2762   21.9840 F   0  0  0  0  0  0
  -27.6695  -17.0631   19.0368 Cl  0  0  0  0  0  0
  -31.4819  -12.5313   19.1466 H   0  0  0  0  0  0
  -30.3824  -11.4046   19.8939 H   0  0  0  0  0  0
  -29.7751  -11.7573   17.4774 H   0  0  0  0  0  0
  -29.6451  -13.4780   17.7409 H   0  0  0  0  0  0
  -27.8716  -11.2878   18.8696 H   0  0  0  0  0  0
  -27.3759  -12.5673   17.7937 H   0  0  0  0  0  0
  -27.6620  -14.2439   19.5134 H   0  0  0  0  0  0
  -28.7151  -12.0558   21.3761 H   0  0  0  0  0  0
  -28.4464  -13.7116   21.8392 H   0  0  0  0  0  0
  -25.2756   -9.5664   22.4762 H   0  0  0  0  0  0
  -23.9993   -7.4615   22.7471 H   0  0  0  0  0  0
  -21.0832   -8.8760   19.8953 H   0  0  0  0  0  0
  -22.3692  -10.9659   19.6167 H   0  0  0  0  0  0
  -21.1997   -7.6146   23.9716 H   0  0  0  0  0  0
  -21.1485   -6.0520   25.9080 H   0  0  0  0  0  0
  -22.0600   -2.7606   23.2845 H   0  0  0  0  0  0
  -22.4094  -11.9862   22.4813 H   0  0  0  0  0  0
  -21.1100  -13.1238   22.2639 H   0  0  0  0  0  0
  -24.6325  -15.8197   20.5117 H   0  0  0  0  0  0
  -26.2338  -15.6318   20.0185 H   0  0  0  0  0  0
  -26.7169  -32.5462   23.1106 H   0  0  0  0  0  0
  -25.0073  -33.9732   25.0427 H   0  0  0  0  0  0
  -22.7114  -31.3031   21.4011 H   0  0  0  0  0  0
  -23.3756  -35.9625   23.3301 H   0  0  0  0  0  0
  -24.3584  -36.8915   22.2054 H   0  0  0  0  0  0
  -23.7238  -37.6498   23.6658 H   0  0  0  0  0  0
  -26.0843  -31.5560   20.6006 H   0  0  0  0  0  0
  -26.8392  -30.8462   21.9980 H   0  0  0  0  0  0
  -28.1159  -29.0003   21.1865 H   0  0  0  0  0  0
  -26.0100  -25.9426   18.9837 H   0  0  0  0  0  0
  -23.9795  -27.3021   19.0083 H   0  0  0  0  0  0
  -23.7499  -30.5892   19.4032 H   0  0  0  0  0  0
  -22.7529  -29.2415   19.8620 H   0  0  0  0  0  0
  -25.1296  -36.1941   25.0825 H   0  0  0  0  0  0
  -20.9974  -28.3264   24.1416 H   0  0  0  0  0  0
  -20.5687  -26.2301   23.3618 H   0  0  0  0  0  0
  -21.6645  -26.7456   22.1205 H   0  0  0  0  0  0
  -19.6919  -25.6301   21.1248 H   0  0  0  0  0  0
  -19.6693  -27.3207   20.6759 H   0  0  0  0  0  0
  -17.4206  -26.6692   21.4021 H   0  0  0  0  0  0
  -18.0318  -26.0071   22.9016 H   0  0  0  0  0  0
  -19.7933  -30.7271   24.2277 H   0  0  0  0  0  0
  -17.5013  -31.6271   24.5167 H   0  0  0  0  0  0
  -15.5349  -30.2993   23.7650 H   0  0  0  0  0  0
  -15.8675  -28.0831   22.7059 H   0  0  0  0  0  0
  -24.5907  -30.7062   25.7784 H   0  0  0  0  0  0
  -24.8900  -32.2899   26.4851 H   0  0  0  0  0  0
  -25.8051  -30.8932   27.0232 H   0  0  0  0  0  0
  -26.2880  -29.6772   24.1183 H   0  0  0  0  0  0
  -27.4015  -29.7253   25.4651 H   0  0  0  0  0  0
  -27.8750  -30.4293   23.9371 H   0  0  0  0  0  0
  -27.2667  -33.3632   26.2041 H   0  0  0  0  0  0
  -28.3871  -32.6853   25.0318 H   0  0  0  0  0  0
  -28.0699  -31.8452   26.5418 H   0  0  0  0  0  0
  -28.2598  -38.0099   24.7508 H   0  0  0  0  0  0
  -28.1072  -36.2630   24.6288 H   0  0  0  0  0  0
  -27.2301  -37.1454   25.8867 H   0  0  0  0  0  0
  -20.9358  -29.8755   21.6892 H   0  0  0  0  0  0
  -26.0175  -38.2858   24.1404 H   0  0  0  0  0  0
  -31.7282  -19.8314   21.6902 H   0  0  0  0  0  0
  -28.1879  -19.8144   19.2270 H   0  0  0  0  0  0
  -32.6902  -23.7972   19.8967 H   0  0  0  0  0  0
  -31.5684  -23.3633   18.6306 H   0  0  0  0  0  0
  -30.8609  -25.4438   19.7990 H   0  0  0  0  0  0
  -30.8028  -24.6005   21.3288 H   0  0  0  0  0  0
  -31.7395  -22.1618   21.4312 H   0  0  0  0  0  0
  -32.1299  -21.3833   19.9136 H   0  0  0  0  0  0
  -29.1266  -24.0668   18.8592 H   0  0  0  0  0  0
  -28.2498  -25.0525   21.6059 H   0  0  0  0  0  0
  -27.1927  -24.7167   20.2876 H   0  0  0  0  0  0
  -28.8122  -15.3947   20.8610 H   0  0  0  0  0  0
  1 25  1  0  0  0
  1 30  2  0  0  0
  1 84  1  0  0  0
  2  3  1  0  0  0
  2 25  1  0  0  0
  2 88  1  0  0  0
  2 89  1  0  0  0
  3  4  1  0  0  0
  3 90  1  0  0  0
  3 91  1  0  0  0
  4  5  1  0  0  0
  4 92  1  0  0  0
  4 93  1  0  0  0
  5  6  1  0  0  0
  5 26  1  0  0  0
  5 94  1  0  0  0
  6 25  1  0  0  0
  6 95  1  0  0  0
  6 96  1  0  0  0
  7  8  2  0  0  0
  7 26  1  0  0  0
  7 29  1  0  0  0
  8  9  1  0  0  0
  8 22  1  0  0  0
  9 10  1  0  0  0
  9 27  2  0  0  0
 10 11  2  0  0  0
 10 15  1  0  0  0
 11 12  1  0  0  0
 11 97  1  0  0  0
 12 13  2  0  0  0
 12 98  1  0  0  0
 13 14  1  0  0  0
 13 31  1  0  0  0
 14 15  2  0  0  0
 14 99  1  0  0  0
 15100  1  0  0  0
 16 17  2  0  0  0
 16 21  1  0  0  0
 16 31  1  0  0  0
 17 18  1  0  0  0
 17101  1  0  0  0
 18 19  2  0  0  0
 18102  1  0  0  0
 19 20  1  0  0  0
 19 24  1  0  0  0
 20 21  2  0  0  0
 20103  1  0  0  0
 21 23  1  0  0  0
 22 28  1  0  0  0
 22 32  2  0  0  0
 26 27  1  0  0  0
 28104  1  0  0  0
 28105  1  0  0  0
 29106  1  0  0  0
 29107  1  0  0  0
 33 34  1  0  0  0
 33 66  1  0  0  0
 33 70  2  0  0  0
 34 36  1  0  0  0
 34 59  1  0  0  0
 34108  1  0  0  0
 35 44  2  0  0  0
 35 45  1  0  0  0
 35 68  1  0  0  0
 36 56  1  0  0  0
 36109  1  0  0  0
 37 39  1  0  0  0
 37 47  1  0  0  0
 37 66  1  0  0  0
 37110  1  0  0  0
 38 43  2  0  0  0
 38 46  1  0  0  0
 38 47  1  0  0  0
 39 64  1  0  0  0
 39 67  2  0  0  0
 40 52  1  0  0  0
 40 53  2  0  0  0
 40 58  1  0  0  0
 41111  1  0  0  0
 41112  1  0  0  0
 41113  1  0  0  0
 41 48  1  0  0  0
 42 43  1  0  0  0
 42 66  1  0  0  0
 42114  1  0  0  0
 42115  1  0  0  0
 43 44  1  0  0  0
 44116  1  0  0  0
 45 46  2  0  0  0
 45117  1  0  0  0
 46118  1  0  0  0
 47119  1  0  0  0
 47120  1  0  0  0
 48 56  1  0  0  0
 48 65  1  0  0  0
 48121  1  0  0  0
 49 50  1  0  0  0
 49 53  1  0  0  0
 49 64  1  0  0  0
 49122  1  0  0  0
 50 51  1  0  0  0
 50123  1  0  0  0
 50124  1  0  0  0
 51 52  1  0  0  0
 51125  1  0  0  0
 51126  1  0  0  0
 52127  1  0  0  0
 52128  1  0  0  0
 53 54  1  0  0  0
 54 55  2  0  0  0
 54129  1  0  0  0
 55 57  1  0  0  0
 55130  1  0  0  0
 56 69  2  0  0  0
 57 58  2  0  0  0
 57131  1  0  0  0
 58132  1  0  0  0
 59 60  1  0  0  0
 59 61  1  0  0  0
 59 62  1  0  0  0
 60133  1  0  0  0
 60134  1  0  0  0
 60135  1  0  0  0
 61136  1  0  0  0
 61137  1  0  0  0
 61138  1  0  0  0
 62139  1  0  0  0
 62140  1  0  0  0
 62141  1  0  0  0
 63 65  1  0  0  0
 63142  1  0  0  0
 63143  1  0  0  0
 63144  1  0  0  0
 64145  1  0  0  0
 65146  1  0  0  0
 68 82  1  0  0  0
 71 73  2  0  0  0
 71 75  1  0  0  0
 71147  1  0  0  0
 72 73  1  0  0  0
 72 76  2  0  0  0
 72148  1  0  0  0
 73 83  1  0  0  0
 74 75  2  0  0  0
 74 76  1  0  0  0
 74 84  1  0  0  0
 75 86  1  0  0  0
 76 87  1  0  0  0
 77 81  1  0  0  0
 77 83  1  0  0  0
 77 85  2  0  0  0
 78 79  1  0  0  0
 78 80  1  0  0  0
 78149  1  0  0  0
 78150  1  0  0  0
 79 81  1  0  0  0
 79151  1  0  0  0
 79152  1  0  0  0
 80 83  1  0  0  0
 80153  1  0  0  0
 80154  1  0  0  0
 81 82  1  0  0  0
 81155  1  0  0  0
 82156  1  0  0  0
 82157  1  0  0  0
 84158  1  0  0  0
M  ISO  4   1 100  68 101  82 101  84 100
M  END
> <chiral flag>
0

> <version>
0

> <s_m_source_file>
/data/baiqing/PycharmProjects/Reinvent-master-3.2/result/LINK_invent/BTK/process_docking_weight1_custom_product_contain_oxygen_bond_distance_aromatic_linkinvent_7_9_3/rearranged_h_0026.sdf

> <i_m_source_file_index>
82

> <r_mmod_Potential_Energy-OPLS-2005>
110.680786132812

> <r_mmod_Stretch_Energy-OPLS-2005>
88.2529907226562

> <r_mmod_Bend_Energy-OPLS-2005>
137.038131713867

> <r_mmod_Torsional_Energy-OPLS-2005>
291.324951171875

> <r_mmod_Improper_Torsional_Energy-OPLS-2005>
6.97962665557861

> <r_mmod_Van_der_Waal_Energy-OPLS-2005>
152.938873291016

> <r_mmod_Electrostatic_Energy-OPLS-2005>
-401.149322509766

> <r_mmod_Solvation_Energy-OPLS-2005>
-212.324340820312

> <b_mmod_Minimization_Converged-OPLS-2005>
0

> <r_mmod_RMS_Derivative-OPLS-2005>
0.613115608692169

$$$$
82
                    3D
 Structure written by MMmdl.
163172  0  0  1  0            999 V2000
  -30.5712  -14.7613   20.5289 C   0  0  0  0  0  0
  -30.4537  -12.4774   19.4827 C   0  0  0  0  0  0
  -29.5259  -12.5338   18.2459 C   0  0  0  0  0  0
  -28.0491  -12.3481   18.6473 C   0  0  0  0  0  0
  -27.6536  -13.2232   19.8650 C   0  0  2  0  0  0
  -28.6933  -13.1085   21.0028 C   0  0  0  0  0  0
  -25.2499  -13.8084   20.5519 C   0  0  0  0  0  0
  -24.1813  -13.0390   20.9178 C   0  0  0  0  0  0
  -24.6408  -11.6876   20.8749 C   0  0  0  0  0  0
  -23.9062  -10.4269   21.0405 C   0  0  0  0  0  0
  -24.3606   -9.4189   21.9184 C   0  0  0  0  0  0
  -23.6280   -8.2229   22.0753 C   0  0  0  0  0  0
  -22.4263   -8.0266   21.3543 C   0  0  0  0  0  0
  -21.9901   -9.0238   20.4649 C   0  0  0  0  0  0
  -22.7231  -10.2117   20.3056 C   0  0  0  0  0  0
  -21.6847   -6.0719   22.5278 C   0  0  0  0  0  0
  -21.4014   -6.5628   23.8207 C   0  0  0  0  0  0
  -21.3661   -5.6781   24.9170 C   0  0  0  0  0  0
  -21.6052   -4.3044   24.7226 C   0  0  0  0  0  0
  -21.8822   -3.8131   23.4346 C   0  0  0  0  0  0
  -21.9196   -4.6948   22.3401 C   0  0  0  0  0  0
  -22.7842  -13.5206   21.1832 C   0  0  0  0  0  0
  -22.1662   -4.2133   21.0977 F   0  0  0  0  0  0
  -21.5632   -3.4531   25.7737 F   0  0  0  0  0  0
  -30.0039  -13.5023   20.4569 N   0  0  0  0  0  0
  -26.2985  -12.9322   20.3271 N   0  0  0  0  0  0
  -25.9350  -11.6483   20.5786 N   0  0  0  0  0  0
  -22.0479  -12.8228   22.0418 N   0  0  0  0  0  0
  -25.4083  -15.1733   20.3609 N   0  0  0  0  0  0
  -31.6758  -14.9717   20.0159 O   0  0  0  0  0  0
  -21.6631   -6.8860   21.4238 O   0  0  0  0  0  0
  -22.3529  -14.5500   20.6652 O   0  0  0  0  0  0
  -24.6323  -31.8543   23.1974 C   0  0  0  0  0  0
  -25.9149  -32.4745   23.8319 C   0  0  1  0  0  0
  -27.2282  -27.2550   20.1312 C   0  0  0  0  0  0
  -25.5941  -33.8546   24.2245 N   0  0  0  0  0  0
  -23.4293  -30.4768   21.5408 C   0  0  2  0  0  0
  -24.8787  -28.9197   20.1147 C   0  0  0  0  0  0
  -22.7504  -29.4603   22.4911 C   0  0  0  0  0  0
  -18.0293  -28.1392   22.8482 C   0  0  0  0  0  0
  -24.1493  -36.7281   23.2639 C   0  0  0  0  0  0
  -25.9763  -30.7652   21.3783 C   0  0  0  0  0  0
  -26.0511  -29.3856   20.7236 C   0  0  0  0  0  0
  -27.2285  -28.5673   20.7186 C   0  0  0  0  0  0
  -26.0331  -26.8645   19.4847 C   0  0  0  0  0  0
  -24.8757  -27.6670   19.4843 C   0  0  0  0  0  0
  -23.6489  -29.8074   20.1589 C   0  0  0  0  0  0
  -25.4119  -36.3060   24.0321 C   0  0  1  0  0  0
  -20.5897  -28.3705   23.1266 C   0  0  2  0  0  0
  -20.6782  -26.9422   22.5407 C   0  0  0  0  0  0
  -19.5759  -26.6384   21.5214 C   0  0  0  0  0  0
  -18.1939  -26.7934   22.1623 C   0  0  0  0  0  0
  -19.1546  -28.8864   23.2868 C   0  0  0  0  0  0
  -18.9469  -30.1463   23.8890 C   0  0  0  0  0  0
  -17.6467  -30.6590   24.0563 C   0  0  0  0  0  0
  -25.9061  -34.9433   23.5083 C   0  0  0  0  0  0
  -16.5358  -29.9087   23.6332 C   0  0  0  0  0  0
  -16.7280  -28.6505   23.0353 C   0  0  0  0  0  0
  -26.4517  -31.6566   25.0709 C   0  0  0  0  0  0
  -25.3739  -31.3722   26.1428 C   0  0  0  0  0  0
  -27.0364  -30.2973   24.6202 C   0  0  0  0  0  0
  -27.6061  -32.4314   25.7494 C   0  0  0  0  0  0
  -27.5579  -37.1795   24.8465 C   0  0  0  0  0  0
  -21.4211  -29.3048   22.3648 N   0  0  0  0  0  0
  -26.4291  -37.3763   23.9408 N   0  0  0  0  0  0
  -24.6983  -31.0502   22.0951 N   0  0  0  0  0  0
  -23.4200  -28.8144   23.3015 O   0  0  0  0  0  0
  -28.3323  -26.3644   20.1548 O   0  0  0  0  0  0
  -26.5632  -34.8913   22.4654 O   0  0  0  0  0  0
  -23.5472  -32.1373   23.7264 O   0  0  0  0  0  0
  -29.7949  -18.3676   20.5777 C   0  0  0  0  0  0
  -27.9054  -17.0790   21.3648 C   0  0  0  0  0  0
  -28.9787  -19.5937   20.5032 C   0  0  0  0  0  0
  -27.5888  -19.4465   20.7840 C   0  0  0  0  0  0
  -29.2586  -17.0650   20.9732 C   0  0  0  0  0  0
  -27.0888  -18.2195   21.2780 C   0  0  0  0  0  0
  -30.4310  -23.5483   22.2828 C   0  0  0  0  0  0
  -30.5376  -24.1447   20.8761 C   0  0  0  0  0  0
  -29.4212  -22.3902   22.1800 C   0  0  0  0  0  0
  -29.2311  -23.7396   20.1892 C   0  0  2  0  0  0
  -26.5944  -20.5866   20.5559 C   0  0  0  0  0  0
  -29.5131  -21.0504   20.0715 C   0  0  0  0  0  0
  -28.1002  -24.8947   20.4358 C   0  0  0  0  0  0
  -29.8819  -15.7318   21.2377 N   0  0  0  0  0  0
  -28.9668  -22.3260   20.7700 N   0  3  1  0  0  0
  -25.4532  -18.0878   21.8312 Cl  0  0  0  0  0  0
  -31.4909  -12.6323   19.1813 H   0  0  0  0  0  0
  -30.4261  -11.4874   19.9410 H   0  0  0  0  0  0
  -29.8173  -11.7689   17.5241 H   0  0  0  0  0  0
  -29.6506  -13.4935   17.7415 H   0  0  0  0  0  0
  -27.9015  -11.2943   18.8872 H   0  0  0  0  0  0
  -27.3963  -12.5602   17.7995 H   0  0  0  0  0  0
  -27.6637  -14.2563   19.5159 H   0  0  0  0  0  0
  -28.7360  -12.0865   21.3831 H   0  0  0  0  0  0
  -28.3992  -13.7230   21.8538 H   0  0  0  0  0  0
  -25.2751   -9.5672   22.4755 H   0  0  0  0  0  0
  -23.9993   -7.4625   22.7472 H   0  0  0  0  0  0
  -21.0831   -8.8755   19.8958 H   0  0  0  0  0  0
  -22.3685  -10.9650   19.6165 H   0  0  0  0  0  0
  -21.1995   -7.6135   23.9709 H   0  0  0  0  0  0
  -21.1488   -6.0506   25.9073 H   0  0  0  0  0  0
  -22.0599   -2.7595   23.2847 H   0  0  0  0  0  0
  -22.4089  -11.9920   22.4871 H   0  0  0  0  0  0
  -21.1097  -13.1270   22.2587 H   0  0  0  0  0  0
  -24.6419  -15.8250   20.4847 H   0  0  0  0  0  0
  -26.2331  -15.6037   19.9660 H   0  0  0  0  0  0
  -26.7215  -32.5399   23.1058 H   0  0  0  0  0  0
  -25.0082  -33.9679   25.0385 H   0  0  0  0  0  0
  -22.7261  -31.2992   21.3922 H   0  0  0  0  0  0
  -23.3751  -35.9618   23.3293 H   0  0  0  0  0  0
  -24.3580  -36.8915   22.2056 H   0  0  0  0  0  0
  -23.7253  -37.6481   23.6673 H   0  0  0  0  0  0
  -26.1146  -31.5238   20.6065 H   0  0  0  0  0  0
  -26.8535  -30.8161   22.0114 H   0  0  0  0  0  0
  -28.1266  -28.9236   21.2042 H   0  0  0  0  0  0
  -25.9675  -25.9241   18.9600 H   0  0  0  0  0  0
  -23.9819  -27.3090   18.9914 H   0  0  0  0  0  0
  -23.7742  -30.5814   19.4010 H   0  0  0  0  0  0
  -22.7674  -29.2402   19.8543 H   0  0  0  0  0  0
  -25.1302  -36.1898   25.0813 H   0  0  0  0  0  0
  -20.9994  -28.3292   24.1386 H   0  0  0  0  0  0
  -20.5689  -26.2319   23.3616 H   0  0  0  0  0  0
  -21.6651  -26.7448   22.1200 H   0  0  0  0  0  0
  -19.6921  -25.6294   21.1251 H   0  0  0  0  0  0
  -19.6696  -27.3187   20.6741 H   0  0  0  0  0  0
  -17.4209  -26.6679   21.4026 H   0  0  0  0  0  0
  -18.0337  -26.0077   22.9021 H   0  0  0  0  0  0
  -19.7946  -30.7281   24.2256 H   0  0  0  0  0  0
  -17.5024  -31.6272   24.5165 H   0  0  0  0  0  0
  -15.5360  -30.2988   23.7663 H   0  0  0  0  0  0
  -15.8680  -28.0825   22.7070 H   0  0  0  0  0  0
  -24.5910  -30.7074   25.7756 H   0  0  0  0  0  0
  -24.8939  -32.2897   26.4844 H   0  0  0  0  0  0
  -25.8056  -30.8904   27.0209 H   0  0  0  0  0  0
  -26.2948  -29.6711   24.1229 H   0  0  0  0  0  0
  -27.4037  -29.7246   25.4728 H   0  0  0  0  0  0
  -27.8832  -30.4231   23.9452 H   0  0  0  0  0  0
  -27.2651  -33.3614   26.2057 H   0  0  0  0  0  0
  -28.3886  -32.6876   25.0338 H   0  0  0  0  0  0
  -28.0714  -31.8450   26.5427 H   0  0  0  0  0  0
  -28.2586  -38.0100   24.7506 H   0  0  0  0  0  0
  -28.1080  -36.2625   24.6290 H   0  0  0  0  0  0
  -27.2293  -37.1444   25.8867 H   0  0  0  0  0  0
  -20.9399  -29.8766   21.6848 H   0  0  0  0  0  0
  -26.0160  -38.2833   24.1409 H   0  0  0  0  0  0
  -30.8479  -18.4376   20.3436 H   0  0  0  0  0  0
  -27.4559  -16.1807   21.7612 H   0  0  0  0  0  0
  -30.0681  -24.2956   22.9894 H   0  0  0  0  0  0
  -31.4028  -23.2095   22.6446 H   0  0  0  0  0  0
  -31.3811  -23.6927   20.3515 H   0  0  0  0  0  0
  -30.7052  -25.2229   20.8831 H   0  0  0  0  0  0
  -28.5606  -22.5942   22.8185 H   0  0  0  0  0  0
  -29.8487  -21.4476   22.5267 H   0  0  0  0  0  0
  -29.3872  -23.6650   19.1122 H   0  0  0  0  0  0
  -26.5142  -21.2217   21.4386 H   0  0  0  0  0  0
  -25.5954  -20.2149   20.3301 H   0  0  0  0  0  0
  -26.8581  -21.1890   19.6873 H   0  0  0  0  0  0
  -29.3071  -21.1493   19.0053 H   0  0  0  0  0  0
  -30.6001  -21.0547   20.1532 H   0  0  0  0  0  0
  -27.8141  -24.8539   21.4873 H   0  0  0  0  0  0
  -27.2202  -24.5487   19.9003 H   0  0  0  0  0  0
  -29.2830  -15.2122   21.8612 H   0  0  0  0  0  0
  -27.9675  -22.1815   20.7742 H   0  0  0  0  0  0
  1 25  1  0  0  0
  1 30  2  0  0  0
  1 84  1  0  0  0
  2  3  1  0  0  0
  2 25  1  0  0  0
  2 87  1  0  0  0
  2 88  1  0  0  0
  3  4  1  0  0  0
  3 89  1  0  0  0
  3 90  1  0  0  0
  4  5  1  0  0  0
  4 91  1  0  0  0
  4 92  1  0  0  0
  5  6  1  0  0  0
  5 26  1  0  0  0
  5 93  1  0  0  0
  6 25  1  0  0  0
  6 94  1  0  0  0
  6 95  1  0  0  0
  7  8  2  0  0  0
  7 26  1  0  0  0
  7 29  1  0  0  0
  8  9  1  0  0  0
  8 22  1  0  0  0
  9 10  1  0  0  0
  9 27  2  0  0  0
 10 11  2  0  0  0
 10 15  1  0  0  0
 11 12  1  0  0  0
 11 96  1  0  0  0
 12 13  2  0  0  0
 12 97  1  0  0  0
 13 14  1  0  0  0
 13 31  1  0  0  0
 14 15  2  0  0  0
 14 98  1  0  0  0
 15 99  1  0  0  0
 16 17  2  0  0  0
 16 21  1  0  0  0
 16 31  1  0  0  0
 17 18  1  0  0  0
 17100  1  0  0  0
 18 19  2  0  0  0
 18101  1  0  0  0
 19 20  1  0  0  0
 19 24  1  0  0  0
 20 21  2  0  0  0
 20102  1  0  0  0
 21 23  1  0  0  0
 22 28  1  0  0  0
 22 32  2  0  0  0
 26 27  1  0  0  0
 28103  1  0  0  0
 28104  1  0  0  0
 29105  1  0  0  0
 29106  1  0  0  0
 33 34  1  0  0  0
 33 66  1  0  0  0
 33 70  2  0  0  0
 34 36  1  0  0  0
 34 59  1  0  0  0
 34107  1  0  0  0
 35 44  2  0  0  0
 35 45  1  0  0  0
 35 68  1  0  0  0
 36 56  1  0  0  0
 36108  1  0  0  0
 37 39  1  0  0  0
 37 47  1  0  0  0
 37 66  1  0  0  0
 37109  1  0  0  0
 38 43  2  0  0  0
 38 46  1  0  0  0
 38 47  1  0  0  0
 39 64  1  0  0  0
 39 67  2  0  0  0
 40 52  1  0  0  0
 40 53  2  0  0  0
 40 58  1  0  0  0
 41110  1  0  0  0
 41111  1  0  0  0
 41112  1  0  0  0
 41 48  1  0  0  0
 42 43  1  0  0  0
 42 66  1  0  0  0
 42113  1  0  0  0
 42114  1  0  0  0
 43 44  1  0  0  0
 44115  1  0  0  0
 45 46  2  0  0  0
 45116  1  0  0  0
 46117  1  0  0  0
 47118  1  0  0  0
 47119  1  0  0  0
 48 56  1  0  0  0
 48 65  1  0  0  0
 48120  1  0  0  0
 49 50  1  0  0  0
 49 53  1  0  0  0
 49 64  1  0  0  0
 49121  1  0  0  0
 50 51  1  0  0  0
 50122  1  0  0  0
 50123  1  0  0  0
 51 52  1  0  0  0
 51124  1  0  0  0
 51125  1  0  0  0
 52126  1  0  0  0
 52127  1  0  0  0
 53 54  1  0  0  0
 54 55  2  0  0  0
 54128  1  0  0  0
 55 57  1  0  0  0
 55129  1  0  0  0
 56 69  2  0  0  0
 57 58  2  0  0  0
 57130  1  0  0  0
 58131  1  0  0  0
 59 60  1  0  0  0
 59 61  1  0  0  0
 59 62  1  0  0  0
 60132  1  0  0  0
 60133  1  0  0  0
 60134  1  0  0  0
 61135  1  0  0  0
 61136  1  0  0  0
 61137  1  0  0  0
 62138  1  0  0  0
 62139  1  0  0  0
 62140  1  0  0  0
 63 65  1  0  0  0
 63141  1  0  0  0
 63142  1  0  0  0
 63143  1  0  0  0
 64144  1  0  0  0
 65145  1  0  0  0
 68 83  1  0  0  0
 71 73  2  0  0  0
 71 75  1  0  0  0
 71146  1  0  0  0
 72 75  2  0  0  0
 72 76  1  0  0  0
 72147  1  0  0  0
 73 74  1  0  0  0
 73 82  1  0  0  0
 74 76  2  0  0  0
 74 81  1  0  0  0
 75 84  1  0  0  0
 76 86  1  0  0  0
 77 78  1  0  0  0
 77 79  1  0  0  0
 77148  1  0  0  0
 77149  1  0  0  0
 78 80  1  0  0  0
 78150  1  0  0  0
 78151  1  0  0  0
 79 85  1  0  0  0
 79152  1  0  0  0
 79153  1  0  0  0
 80 83  1  0  0  0
 80 85  1  0  0  0
 80154  1  0  0  0
 81155  1  0  0  0
 81156  1  0  0  0
 81157  1  0  0  0
 82158  1  0  0  0
 82159  1  0  0  0
 82 85  1  0  0  0
 83160  1  0  0  0
 83161  1  0  0  0
 84162  1  0  0  0
 85163  1  0  0  0
M  CHG  1  85   1
M  ISO  4   1 100  68 101  83 101  84 100
M  END
> <chiral flag>
0

> <version>
0

> <s_m_source_file>
/data/baiqing/PycharmProjects/Reinvent-master-3.2/result/LINK_invent/BTK/process_docking_weight1_custom_product_contain_oxygen_bond_distance_aromatic_linkinvent_7_9_3/rearranged_h_0026.sdf

> <i_m_source_file_index>
83

> <r_mmod_Potential_Energy-OPLS-2005>
278.116821289062

> <r_mmod_Stretch_Energy-OPLS-2005>
146.041976928711

> <r_mmod_Bend_Energy-OPLS-2005>
229.445861816406

> <r_mmod_Torsional_Energy-OPLS-2005>
323.269348144531

> <r_mmod_Improper_Torsional_Energy-OPLS-2005>
6.81556177139282

> <r_mmod_Van_der_Waal_Energy-OPLS-2005>
134.595520019531

> <r_mmod_Electrostatic_Energy-OPLS-2005>
-218.162658691406

> <r_mmod_Solvation_Energy-OPLS-2005>
-434.006195068359

> <b_mmod_Minimization_Converged-OPLS-2005>
0

> <r_mmod_RMS_Derivative-OPLS-2005>
1.2040923833847

$$$$
83
                    3D
 Structure written by MMmdl.
185196  0  0  1  0            999 V2000
  -30.6737  -14.5872   20.5223 C   0  0  0  0  0  0
  -30.4186  -12.3617   19.4641 C   0  0  0  0  0  0
  -29.5001  -12.5049   18.2326 C   0  0  0  0  0  0
  -28.0196  -12.3635   18.6320 C   0  0  0  0  0  0
  -27.6509  -13.2226   19.8691 C   0  0  2  0  0  0
  -28.6911  -13.0816   21.0034 C   0  0  0  0  0  0
  -25.2527  -13.8229   20.5714 C   0  0  0  0  0  0
  -24.1805  -13.0477   20.9222 C   0  0  0  0  0  0
  -24.6377  -11.6942   20.8742 C   0  0  0  0  0  0
  -23.9070  -10.4319   21.0407 C   0  0  0  0  0  0
  -24.3619   -9.4240   21.9193 C   0  0  0  0  0  0
  -23.6305   -8.2269   22.0765 C   0  0  0  0  0  0
  -22.4294   -8.0284   21.3548 C   0  0  0  0  0  0
  -21.9938   -9.0252   20.4628 C   0  0  0  0  0  0
  -22.7257  -10.2136   20.3047 C   0  0  0  0  0  0
  -21.6856   -6.0742   22.5293 C   0  0  0  0  0  0
  -21.4008   -6.5642   23.8225 C   0  0  0  0  0  0
  -21.3662   -5.6795   24.9183 C   0  0  0  0  0  0
  -21.6048   -4.3057   24.7238 C   0  0  0  0  0  0
  -21.8812   -3.8153   23.4352 C   0  0  0  0  0  0
  -21.9195   -4.6971   22.3412 C   0  0  0  0  0  0
  -22.7824  -13.5244   21.1879 C   0  0  0  0  0  0
  -22.1661   -4.2164   21.0992 F   0  0  0  0  0  0
  -21.5635   -3.4542   25.7749 F   0  0  0  0  0  0
  -30.0125  -13.3926   20.4418 N   0  0  0  0  0  0
  -26.2955  -12.9399   20.3339 N   0  0  0  0  0  0
  -25.9305  -11.6550   20.5796 N   0  0  0  0  0  0
  -22.0464  -12.8168   22.0385 N   0  0  0  0  0  0
  -25.4225  -15.1948   20.4130 N   0  0  0  0  0  0
  -31.8397  -14.6778   20.1365 O   0  0  0  0  0  0
  -21.6641   -6.8886   21.4254 O   0  0  0  0  0  0
  -22.3507  -14.5561   20.6781 O   0  0  0  0  0  0
  -24.6217  -31.8653   23.2139 C   0  0  0  0  0  0
  -25.9111  -32.4798   23.8403 C   0  0  1  0  0  0
  -27.1938  -27.3363   20.1188 C   0  0  0  0  0  0
  -25.5989  -33.8602   24.2319 N   0  0  0  0  0  0
  -23.4096  -30.4907   21.5584 C   0  0  2  0  0  0
  -24.8469  -28.9526   20.1262 C   0  0  0  0  0  0
  -22.7441  -29.4615   22.5023 C   0  0  0  0  0  0
  -18.0253  -28.1360   22.8475 C   0  0  0  0  0  0
  -24.1497  -36.7260   23.2642 C   0  0  0  0  0  0
  -25.9483  -30.7958   21.3846 C   0  0  0  0  0  0
  -26.0164  -29.4202   20.7404 C   0  0  0  0  0  0
  -27.1928  -28.6159   20.7464 C   0  0  0  0  0  0
  -26.0272  -26.9544   19.4322 C   0  0  0  0  0  0
  -24.8485  -27.7154   19.4754 C   0  0  0  0  0  0
  -23.6175  -29.8343   20.1718 C   0  0  0  0  0  0
  -25.4135  -36.3067   24.0327 C   0  0  1  0  0  0
  -20.5849  -28.3651   23.1313 C   0  0  2  0  0  0
  -20.6761  -26.9401   22.5377 C   0  0  0  0  0  0
  -19.5734  -26.6377   21.5182 C   0  0  0  0  0  0
  -18.1895  -26.7904   22.1599 C   0  0  0  0  0  0
  -19.1507  -28.8826   23.2865 C   0  0  0  0  0  0
  -18.9467  -30.1424   23.8875 C   0  0  0  0  0  0
  -17.6493  -30.6596   24.0530 C   0  0  0  0  0  0
  -25.9090  -34.9447   23.5112 C   0  0  0  0  0  0
  -16.5369  -29.9093   23.6359 C   0  0  0  0  0  0
  -16.7255  -28.6500   23.0384 C   0  0  0  0  0  0
  -26.4544  -31.6620   25.0758 C   0  0  0  0  0  0
  -25.3782  -31.3640   26.1451 C   0  0  0  0  0  0
  -27.0494  -30.3129   24.6115 C   0  0  0  0  0  0
  -27.6004  -32.4451   25.7576 C   0  0  0  0  0  0
  -27.5559  -37.1793   24.8488 C   0  0  0  0  0  0
  -21.4154  -29.3033   22.3740 N   0  0  0  0  0  0
  -26.4299  -37.3767   23.9399 N   0  0  0  0  0  0
  -24.6786  -31.0693   22.1078 N   0  0  0  0  0  0
  -23.4157  -28.8121   23.3071 O   0  0  0  0  0  0
  -28.3110  -26.5083   20.0300 O   0  0  0  0  0  0
  -26.5589  -34.8900   22.4630 O   0  0  0  0  0  0
  -23.5389  -32.1471   23.7474 O   0  0  0  0  0  0
  -30.8378  -19.8992   20.4287 C   0  0  0  0  0  0
  -31.2414  -17.5605   19.8596 C   0  0  0  0  0  0
  -31.5514  -18.9232   19.7115 C   0  0  0  0  0  0
  -29.4963  -18.1249   21.4621 C   0  0  0  0  0  0
  -29.8342  -19.5334   21.3500 C   0  0  0  0  0  0
  -30.2310  -17.1129   20.7460 C   0  0  0  0  0  0
  -29.3864  -20.4864   23.5617 C   0  0  0  0  0  0
  -32.4286  -19.1751   16.3745 C   0  0  0  0  0  0
  -28.8666  -21.7092   24.2904 C   0  0  0  0  0  0
  -32.2514  -20.1208   15.1975 C   0  0  0  0  0  0
  -28.3712  -22.5884   23.1557 C   0  0  0  0  0  0
  -32.3389  -21.5033   15.8514 C   0  0  0  0  0  0
  -26.6091  -22.3016   19.0755 C   0  0  0  0  0  0
  -26.8331  -23.7876   19.3217 C   0  0  0  0  0  0
  -32.0614  -21.2521   17.3391 C   0  0  0  0  0  0
  -27.7228  -21.5854   19.8433 C   0  0  0  0  0  0
  -27.6685  -23.8984   20.6008 C   0  0  2  0  0  0
  -29.0815  -22.0571   21.8941 C   0  0  1  0  0  0
  -28.3515  -17.6707   22.3613 C   0  0  0  0  0  0
  -32.7349  -19.3284   18.8475 C   0  0  0  0  0  0
  -28.4347  -25.2904   20.8524 C   0  0  0  0  0  0
  -29.2978  -20.5905   22.2115 N   0  0  0  0  0  0
  -32.3720  -19.8450   17.5318 N   0  0  0  0  0  0
  -29.9457  -15.6849   20.9062 N   0  0  0  0  0  0
  -28.4834  -22.6030   20.6107 N   0  3  1  0  0  0
  -29.8461  -19.5358   24.2014 O   0  0  0  0  0  0
  -32.6434  -17.9677   16.2362 O   0  0  0  0  0  0
  -31.4647  -12.4554   19.1639 H   0  0  0  0  0  0
  -30.3274  -11.3669   19.9057 H   0  0  0  0  0  0
  -29.7596  -11.7609   17.4782 H   0  0  0  0  0  0
  -29.6567  -13.4814   17.7710 H   0  0  0  0  0  0
  -27.8259  -11.3089   18.8362 H   0  0  0  0  0  0
  -27.3807  -12.6307   17.7906 H   0  0  0  0  0  0
  -27.6713  -14.2592   19.5332 H   0  0  0  0  0  0
  -28.6870  -12.0694   21.4077 H   0  0  0  0  0  0
  -28.4443  -13.7393   21.8374 H   0  0  0  0  0  0
  -25.2748   -9.5733   22.4774 H   0  0  0  0  0  0
  -24.0026   -7.4659   22.7483 H   0  0  0  0  0  0
  -21.0894   -8.8743   19.8891 H   0  0  0  0  0  0
  -22.3722  -10.9669   19.6142 H   0  0  0  0  0  0
  -21.1980   -7.6146   23.9744 H   0  0  0  0  0  0
  -21.1495   -6.0514   25.9094 H   0  0  0  0  0  0
  -22.0580   -2.7622   23.2853 H   0  0  0  0  0  0
  -22.4084  -11.9786   22.4671 H   0  0  0  0  0  0
  -21.1069  -13.1141   22.2611 H   0  0  0  0  0  0
  -24.6496  -15.8450   20.5154 H   0  0  0  0  0  0
  -26.2643  -15.6347   20.0613 H   0  0  0  0  0  0
  -26.7132  -32.5516   23.1111 H   0  0  0  0  0  0
  -25.0257  -33.9745   25.0548 H   0  0  0  0  0  0
  -22.7067  -31.3122   21.4222 H   0  0  0  0  0  0
  -23.3777  -35.9577   23.3340 H   0  0  0  0  0  0
  -24.3564  -36.8883   22.2048 H   0  0  0  0  0  0
  -23.7257  -37.6463   23.6689 H   0  0  0  0  0  0
  -26.0839  -31.5576   20.6139 H   0  0  0  0  0  0
  -26.8274  -30.8370   22.0162 H   0  0  0  0  0  0
  -28.0918  -28.9748   21.2261 H   0  0  0  0  0  0
  -26.0259  -26.1014   18.7872 H   0  0  0  0  0  0
  -23.9627  -27.3678   18.9631 H   0  0  0  0  0  0
  -23.7340  -30.6159   19.4204 H   0  0  0  0  0  0
  -22.7410  -29.2582   19.8703 H   0  0  0  0  0  0
  -25.1311  -36.1905   25.0822 H   0  0  0  0  0  0
  -20.9884  -28.3167   24.1462 H   0  0  0  0  0  0
  -20.5754  -26.2207   23.3516 H   0  0  0  0  0  0
  -21.6599  -26.7465   22.1104 H   0  0  0  0  0  0
  -19.6905  -25.6288   21.1230 H   0  0  0  0  0  0
  -19.6727  -27.3147   20.6674 H   0  0  0  0  0  0
  -17.4159  -26.6666   21.3995 H   0  0  0  0  0  0
  -18.0298  -26.0041   22.9000 H   0  0  0  0  0  0
  -19.7954  -30.7197   24.2271 H   0  0  0  0  0  0
  -17.5062  -31.6299   24.5074 H   0  0  0  0  0  0
  -15.5369  -30.2977   23.7746 H   0  0  0  0  0  0
  -15.8628  -28.0810   22.7171 H   0  0  0  0  0  0
  -24.5965  -30.7025   25.7703 H   0  0  0  0  0  0
  -24.8958  -32.2745   26.5005 H   0  0  0  0  0  0
  -25.8091  -30.8701   27.0166 H   0  0  0  0  0  0
  -26.3078  -29.6824   24.1189 H   0  0  0  0  0  0
  -27.4408  -29.7421   25.4550 H   0  0  0  0  0  0
  -27.8835  -30.4609   23.9242 H   0  0  0  0  0  0
  -27.2541  -33.3798   26.2014 H   0  0  0  0  0  0
  -28.3879  -32.6975   25.0467 H   0  0  0  0  0  0
  -28.0604  -31.8714   26.5644 H   0  0  0  0  0  0
  -28.2524  -38.0121   24.7541 H   0  0  0  0  0  0
  -28.1099  -36.2640   24.6361 H   0  0  0  0  0  0
  -27.2216  -37.1452   25.8866 H   0  0  0  0  0  0
  -20.9312  -29.8824   21.7033 H   0  0  0  0  0  0
  -26.0183  -38.2847   24.1387 H   0  0  0  0  0  0
  -31.1264  -20.9336   20.3123 H   0  0  0  0  0  0
  -31.8189  -16.8635   19.2748 H   0  0  0  0  0  0
  -29.6799  -22.1830   24.8422 H   0  0  0  0  0  0
  -28.0750  -21.4489   24.9958 H   0  0  0  0  0  0
  -31.2748  -19.9568   14.7414 H   0  0  0  0  0  0
  -33.0228  -19.9724   14.4414 H   0  0  0  0  0  0
  -28.5858  -23.6393   23.3503 H   0  0  0  0  0  0
  -27.2910  -22.4611   23.0772 H   0  0  0  0  0  0
  -31.6445  -22.2210   15.4136 H   0  0  0  0  0  0
  -33.3459  -21.9065   15.7285 H   0  0  0  0  0  0
  -26.6034  -22.0595   18.0096 H   0  0  0  0  0  0
  -25.6390  -22.0029   19.4777 H   0  0  0  0  0  0
  -25.8520  -24.2376   19.4560 H   0  0  0  0  0  0
  -27.3456  -24.2429   18.4717 H   0  0  0  0  0  0
  -31.0050  -21.4053   17.5625 H   0  0  0  0  0  0
  -32.6446  -21.9095   17.9856 H   0  0  0  0  0  0
  -28.3983  -21.0620   19.1661 H   0  0  0  0  0  0
  -27.2697  -20.8438   20.5034 H   0  0  0  0  0  0
  -26.9201  -23.8221   21.3875 H   0  0  0  0  0  0
  -30.0821  -22.4918   21.9077 H   0  0  0  0  0  0
  -27.6272  -18.4673   22.5340 H   0  0  0  0  0  0
  -28.7326  -17.3447   23.3297 H   0  0  0  0  0  0
  -27.7955  -16.8426   21.9216 H   0  0  0  0  0  0
  -33.4178  -18.4819   18.7424 H   0  0  0  0  0  0
  -33.3045  -20.0879   19.3848 H   0  0  0  0  0  0
  -29.5030  -25.0703   20.8217 H   0  0  0  0  0  0
  -28.2564  -25.5938   21.8831 H   0  0  0  0  0  0
  -29.0461  -15.4652   21.3032 H   0  0  0  0  0  0
  -29.2814  -22.7977   20.0224 H   0  0  0  0  0  0
  1 25  1  0  0  0
  1 30  2  0  0  0
  1 94  1  0  0  0
  2  3  1  0  0  0
  2 25  1  0  0  0
  2 98  1  0  0  0
  2 99  1  0  0  0
  3  4  1  0  0  0
  3100  1  0  0  0
  3101  1  0  0  0
  4  5  1  0  0  0
  4102  1  0  0  0
  4103  1  0  0  0
  5  6  1  0  0  0
  5 26  1  0  0  0
  5104  1  0  0  0
  6 25  1  0  0  0
  6105  1  0  0  0
  6106  1  0  0  0
  7  8  2  0  0  0
  7 26  1  0  0  0
  7 29  1  0  0  0
  8  9  1  0  0  0
  8 22  1  0  0  0
  9 10  1  0  0  0
  9 27  2  0  0  0
 10 11  2  0  0  0
 10 15  1  0  0  0
 11 12  1  0  0  0
 11107  1  0  0  0
 12 13  2  0  0  0
 12108  1  0  0  0
 13 14  1  0  0  0
 13 31  1  0  0  0
 14 15  2  0  0  0
 14109  1  0  0  0
 15110  1  0  0  0
 16 17  2  0  0  0
 16 21  1  0  0  0
 16 31  1  0  0  0
 17 18  1  0  0  0
 17111  1  0  0  0
 18 19  2  0  0  0
 18112  1  0  0  0
 19 20  1  0  0  0
 19 24  1  0  0  0
 20 21  2  0  0  0
 20113  1  0  0  0
 21 23  1  0  0  0
 22 28  1  0  0  0
 22 32  2  0  0  0
 26 27  1  0  0  0
 28114  1  0  0  0
 28115  1  0  0  0
 29116  1  0  0  0
 29117  1  0  0  0
 33 34  1  0  0  0
 33 66  1  0  0  0
 33 70  2  0  0  0
 34 36  1  0  0  0
 34 59  1  0  0  0
 34118  1  0  0  0
 35 44  2  0  0  0
 35 45  1  0  0  0
 35 68  1  0  0  0
 36 56  1  0  0  0
 36119  1  0  0  0
 37 39  1  0  0  0
 37 47  1  0  0  0
 37 66  1  0  0  0
 37120  1  0  0  0
 38 43  2  0  0  0
 38 46  1  0  0  0
 38 47  1  0  0  0
 39 64  1  0  0  0
 39 67  2  0  0  0
 40 52  1  0  0  0
 40 53  2  0  0  0
 40 58  1  0  0  0
 41121  1  0  0  0
 41122  1  0  0  0
 41123  1  0  0  0
 41 48  1  0  0  0
 42 43  1  0  0  0
 42 66  1  0  0  0
 42124  1  0  0  0
 42125  1  0  0  0
 43 44  1  0  0  0
 44126  1  0  0  0
 45 46  2  0  0  0
 45127  1  0  0  0
 46128  1  0  0  0
 47129  1  0  0  0
 47130  1  0  0  0
 48 56  1  0  0  0
 48 65  1  0  0  0
 48131  1  0  0  0
 49 50  1  0  0  0
 49 53  1  0  0  0
 49 64  1  0  0  0
 49132  1  0  0  0
 50 51  1  0  0  0
 50133  1  0  0  0
 50134  1  0  0  0
 51 52  1  0  0  0
 51135  1  0  0  0
 51136  1  0  0  0
 52137  1  0  0  0
 52138  1  0  0  0
 53 54  1  0  0  0
 54 55  2  0  0  0
 54139  1  0  0  0
 55 57  1  0  0  0
 55140  1  0  0  0
 56 69  2  0  0  0
 57 58  2  0  0  0
 57141  1  0  0  0
 58142  1  0  0  0
 59 60  1  0  0  0
 59 61  1  0  0  0
 59 62  1  0  0  0
 60143  1  0  0  0
 60144  1  0  0  0
 60145  1  0  0  0
 61146  1  0  0  0
 61147  1  0  0  0
 61148  1  0  0  0
 62149  1  0  0  0
 62150  1  0  0  0
 62151  1  0  0  0
 63 65  1  0  0  0
 63152  1  0  0  0
 63153  1  0  0  0
 63154  1  0  0  0
 64155  1  0  0  0
 65156  1  0  0  0
 68 91  1  0  0  0
 71 73  2  0  0  0
 71 75  1  0  0  0
 71157  1  0  0  0
 72 73  1  0  0  0
 72 76  2  0  0  0
 72158  1  0  0  0
 73 90  1  0  0  0
 74 75  2  0  0  0
 74 76  1  0  0  0
 74 89  1  0  0  0
 75 92  1  0  0  0
 76 94  1  0  0  0
 77 79  1  0  0  0
 77 92  1  0  0  0
 77 96  2  0  0  0
 78 80  1  0  0  0
 78 93  1  0  0  0
 78 97  2  0  0  0
 79 81  1  0  0  0
 79159  1  0  0  0
 79160  1  0  0  0
 80 82  1  0  0  0
 80161  1  0  0  0
 80162  1  0  0  0
 81163  1  0  0  0
 81164  1  0  0  0
 81 88  1  0  0  0
 82 85  1  0  0  0
 82165  1  0  0  0
 82166  1  0  0  0
 83 84  1  0  0  0
 83 86  1  0  0  0
 83167  1  0  0  0
 83168  1  0  0  0
 84 87  1  0  0  0
 84169  1  0  0  0
 84170  1  0  0  0
 85 93  1  0  0  0
 85171  1  0  0  0
 85172  1  0  0  0
 86173  1  0  0  0
 86174  1  0  0  0
 86 95  1  0  0  0
 87 91  1  0  0  0
 87 95  1  0  0  0
 87175  1  0  0  0
 88 92  1  0  0  0
 88 95  1  0  0  0
 88176  1  0  0  0
 89177  1  0  0  0
 89178  1  0  0  0
 89179  1  0  0  0
 90 93  1  0  0  0
 90180  1  0  0  0
 90181  1  0  0  0
 91182  1  0  0  0
 91183  1  0  0  0
 94184  1  0  0  0
 95185  1  0  0  0
M  CHG  1  95   1
M  ISO  4   1 100  68 101  91 101  94 100
M  END
> <chiral flag>
0

> <version>
0

> <s_m_source_file>
/data/baiqing/PycharmProjects/Reinvent-master-3.2/result/LINK_invent/BTK/process_docking_weight1_custom_product_contain_oxygen_bond_distance_aromatic_linkinvent_7_9_3/rearranged_h_0026.sdf

> <i_m_source_file_index>
84

> <r_mmod_Potential_Energy-OPLS-2005>
193.388732910156

> <r_mmod_Stretch_Energy-OPLS-2005>
87.6430282592773

> <r_mmod_Bend_Energy-OPLS-2005>
247.324081420898

> <r_mmod_Torsional_Energy-OPLS-2005>
435.328796386719

> <r_mmod_Improper_Torsional_Energy-OPLS-2005>
5.81628084182739

> <r_mmod_Van_der_Waal_Energy-OPLS-2005>
141.420455932617

> <r_mmod_Electrostatic_Energy-OPLS-2005>
-252.179229736328

> <r_mmod_Solvation_Energy-OPLS-2005>
-508.668426513672

> <b_mmod_Minimization_Converged-OPLS-2005>
0

> <r_mmod_RMS_Derivative-OPLS-2005>
4.74205112457275

$$$$
84
                    3D
 Structure written by MMmdl.
168178  0  0  1  0            999 V2000
  -30.7152  -14.6943   20.4739 C   0  0  0  0  0  0
  -30.4259  -12.4088   19.4931 C   0  0  0  0  0  0
  -29.5212  -12.4932   18.2441 C   0  0  0  0  0  0
  -28.0537  -12.3071   18.6668 C   0  0  0  0  0  0
  -27.6641  -13.2101   19.8706 C   0  0  2  0  0  0
  -28.7196  -13.1792   21.0101 C   0  0  0  0  0  0
  -25.2667  -13.8179   20.5758 C   0  0  0  0  0  0
  -24.1917  -13.0471   20.9122 C   0  0  0  0  0  0
  -24.6465  -11.6936   20.8688 C   0  0  0  0  0  0
  -23.9162  -10.4358   21.0396 C   0  0  0  0  0  0
  -24.3734   -9.4320   21.9193 C   0  0  0  0  0  0
  -23.6403   -8.2367   22.0803 C   0  0  0  0  0  0
  -22.4391   -8.0395   21.3572 C   0  0  0  0  0  0
  -21.9997   -9.0387   20.4701 C   0  0  0  0  0  0
  -22.7323  -10.2238   20.3071 C   0  0  0  0  0  0
  -21.6940   -6.0847   22.5268 C   0  0  0  0  0  0
  -21.4061   -6.5737   23.8188 C   0  0  0  0  0  0
  -21.3574   -5.6864   24.9115 C   0  0  0  0  0  0
  -21.5985   -4.3123   24.7172 C   0  0  0  0  0  0
  -21.8855   -3.8252   23.4287 C   0  0  0  0  0  0
  -21.9239   -4.7074   22.3367 C   0  0  0  0  0  0
  -22.7908  -13.5301   21.1750 C   0  0  0  0  0  0
  -22.1733   -4.2289   21.0934 F   0  0  0  0  0  0
  -21.5524   -3.4572   25.7651 F   0  0  0  0  0  0
  -30.0320  -13.4940   20.4251 N   0  0  0  0  0  0
  -26.3141  -12.9341   20.3492 N   0  0  0  0  0  0
  -25.9434  -11.6501   20.5856 N   0  0  0  0  0  0
  -22.0574  -12.8391   22.0335 N   0  0  0  0  0  0
  -25.4387  -15.1912   20.4227 N   0  0  0  0  0  0
  -31.8688  -14.7744   20.0632 O   0  0  0  0  0  0
  -21.6710   -6.9028   21.4264 O   0  0  0  0  0  0
  -22.3601  -14.5600   20.6556 O   0  0  0  0  0  0
  -24.6346  -31.8551   23.1925 C   0  0  0  0  0  0
  -25.9126  -32.4702   23.8282 C   0  0  1  0  0  0
  -27.1611  -27.1593   20.1225 C   0  0  0  0  0  0
  -25.5933  -33.8516   24.2248 N   0  0  0  0  0  0
  -23.4332  -30.4858   21.5320 C   0  0  2  0  0  0
  -24.8639  -28.9275   20.1046 C   0  0  0  0  0  0
  -22.7533  -29.4622   22.4744 C   0  0  0  0  0  0
  -18.0497  -28.1364   22.8042 C   0  0  0  0  0  0
  -24.1512  -36.7292   23.2635 C   0  0  0  0  0  0
  -25.9883  -30.7299   21.3913 C   0  0  0  0  0  0
  -26.0394  -29.3439   20.7387 C   0  0  0  0  0  0
  -27.1829  -28.4677   20.7469 C   0  0  0  0  0  0
  -25.9698  -26.8736   19.4202 C   0  0  0  0  0  0
  -24.8441  -27.7079   19.4290 C   0  0  0  0  0  0
  -23.6545  -29.8401   20.1384 C   0  0  0  0  0  0
  -25.4111  -36.3033   24.0337 C   0  0  1  0  0  0
  -20.5976  -28.3848   23.1295 C   0  0  2  0  0  0
  -20.6897  -26.9278   22.6070 C   0  0  0  0  0  0
  -19.6447  -26.6199   21.5367 C   0  0  0  0  0  0
  -18.2359  -26.7941   22.1215 C   0  0  0  0  0  0
  -19.1559  -28.8903   23.2714 C   0  0  0  0  0  0
  -18.9236  -30.1419   23.8853 C   0  0  0  0  0  0
  -17.6092  -30.6342   24.0492 C   0  0  0  0  0  0
  -25.9035  -34.9395   23.5112 C   0  0  0  0  0  0
  -16.5197  -29.8723   23.5967 C   0  0  0  0  0  0
  -16.7415  -28.6333   22.9738 C   0  0  0  0  0  0
  -26.4500  -31.6500   25.0669 C   0  0  0  0  0  0
  -25.3807  -31.3658   26.1452 C   0  0  0  0  0  0
  -27.0342  -30.2949   24.6103 C   0  0  0  0  0  0
  -27.6041  -32.4240   25.7429 C   0  0  0  0  0  0
  -27.5581  -37.1778   24.8465 C   0  0  0  0  0  0
  -21.4327  -29.2778   22.3163 N   0  0  0  0  0  0
  -26.4273  -37.3739   23.9415 N   0  0  0  0  0  0
  -24.7054  -31.0405   22.0981 N   0  0  0  0  0  0
  -23.4147  -28.8496   23.3194 O   0  0  0  0  0  0
  -28.2252  -26.1976   20.2153 O   0  0  0  0  0  0
  -26.5614  -34.8874   22.4667 O   0  0  0  0  0  0
  -23.5448  -32.1419   23.7113 O   0  0  0  0  0  0
  -26.7859  -18.5820   19.8723 C   0  0  0  0  0  0
  -29.1660  -18.3567   20.3266 C   0  0  0  0  0  0
  -26.7900  -19.9815   20.0469 C   0  0  0  0  0  0
  -28.0403  -20.6861   20.2004 C   0  0  0  0  0  0
  -27.9306  -17.8025   19.9736 C   0  0  0  0  0  0
  -29.2105  -19.8229   20.4130 C   0  0  0  0  0  0
  -23.4419  -21.0873   21.1243 C   0  0  0  0  0  0
  -23.2090  -20.8767   19.6253 C   0  0  0  0  0  0
  -27.1573  -24.0801   18.8580 C   0  0  0  0  0  0
  -24.9669  -20.9891   21.3231 C   0  0  0  0  0  0
  -24.4580  -20.1300   19.1782 C   0  0  0  0  0  0
  -27.5243  -22.5948   18.6793 C   0  0  0  0  0  0
  -28.6606  -23.3720   20.5966 C   0  0  0  0  0  0
  -28.2574  -24.7186   19.7429 C   0  0  1  0  0  0
  -30.3676  -17.3098   20.4797 C   0  0  0  0  0  0
  -25.5385  -20.6447   20.0248 N   0  0  0  0  0  0
  -28.0166  -22.1441   19.9801 N   0  0  0  0  0  0
  -30.0403  -15.8481   20.8043 N   0  0  0  0  0  0
  -27.8017  -16.4855   19.7050 F   0  0  0  0  0  0
  -30.3982  -20.4305   20.6533 F   0  0  0  0  0  0
  -31.4790  -12.4633   19.2158 H   0  0  0  0  0  0
  -30.2930  -11.4383   19.9763 H   0  0  0  0  0  0
  -29.8065  -11.7352   17.5128 H   0  0  0  0  0  0
  -29.6454  -13.4553   17.7427 H   0  0  0  0  0  0
  -27.9274  -11.2554   18.9328 H   0  0  0  0  0  0
  -27.3885  -12.4852   17.8233 H   0  0  0  0  0  0
  -27.6521  -14.2151   19.4648 H   0  0  0  0  0  0
  -28.7634  -12.2047   21.5031 H   0  0  0  0  0  0
  -28.4703  -13.9047   21.7894 H   0  0  0  0  0  0
  -25.2917   -9.5830   22.4709 H   0  0  0  0  0  0
  -24.0097   -7.4849   22.7612 H   0  0  0  0  0  0
  -21.0871   -8.8979   19.9127 H   0  0  0  0  0  0
  -22.3826  -10.9786   19.6180 H   0  0  0  0  0  0
  -21.2144   -7.6267   23.9701 H   0  0  0  0  0  0
  -21.1277   -6.0588   25.8987 H   0  0  0  0  0  0
  -22.0710   -2.7745   23.2714 H   0  0  0  0  0  0
  -22.4101  -12.0003   22.4711 H   0  0  0  0  0  0
  -21.1235  -13.1528   22.2544 H   0  0  0  0  0  0
  -24.6576  -15.8328   20.4630 H   0  0  0  0  0  0
  -26.3227  -15.6560   20.2364 H   0  0  0  0  0  0
  -26.7175  -32.5298   23.0951 H   0  0  0  0  0  0
  -25.0018  -33.9652   25.0362 H   0  0  0  0  0  0
  -22.7381  -31.3129   21.3879 H   0  0  0  0  0  0
  -23.3726  -35.9669   23.3262 H   0  0  0  0  0  0
  -24.3606  -36.8920   22.2050 H   0  0  0  0  0  0
  -23.7294  -37.6523   23.6653 H   0  0  0  0  0  0
  -26.1280  -31.4786   20.6085 H   0  0  0  0  0  0
  -26.8691  -30.7821   22.0175 H   0  0  0  0  0  0
  -28.0713  -28.7734   21.2811 H   0  0  0  0  0  0
  -25.8097  -25.9945   18.8418 H   0  0  0  0  0  0
  -23.9555  -27.3968   18.8957 H   0  0  0  0  0  0
  -23.8373  -30.6335   19.4091 H   0  0  0  0  0  0
  -22.7673  -29.3161   19.7931 H   0  0  0  0  0  0
  -25.1269  -36.1886   25.0836 H   0  0  0  0  0  0
  -21.0003  -28.3956   24.1396 H   0  0  0  0  0  0
  -20.5001  -26.2519   23.4548 H   0  0  0  0  0  0
  -21.6930  -26.6915   22.2603 H   0  0  0  0  0  0
  -19.7913  -25.6081   21.1448 H   0  0  0  0  0  0
  -19.8032  -27.2879   20.6898 H   0  0  0  0  0  0
  -17.4925  -26.6511   21.3320 H   0  0  0  0  0  0
  -18.0488  -26.0195   22.8630 H   0  0  0  0  0  0
  -19.7632  -30.7248   24.2463 H   0  0  0  0  0  0
  -17.4313  -31.5928   24.5187 H   0  0  0  0  0  0
  -15.5078  -30.2356   23.7122 H   0  0  0  0  0  0
  -15.9063  -28.0714   22.5826 H   0  0  0  0  0  0
  -24.6006  -30.6907   25.7935 H   0  0  0  0  0  0
  -24.8920  -32.2807   26.4860 H   0  0  0  0  0  0
  -25.8215  -30.8972   27.0256 H   0  0  0  0  0  0
  -26.2941  -29.6707   24.1088 H   0  0  0  0  0  0
  -27.4116  -29.7159   25.4532 H   0  0  0  0  0  0
  -27.8784  -30.4323   23.9324 H   0  0  0  0  0  0
  -27.2678  -33.3583   26.1949 H   0  0  0  0  0  0
  -28.3873  -32.6708   25.0259 H   0  0  0  0  0  0
  -28.0683  -31.8382   26.5376 H   0  0  0  0  0  0
  -28.2554  -38.0125   24.7477 H   0  0  0  0  0  0
  -28.1117  -36.2607   24.6311 H   0  0  0  0  0  0
  -27.2276  -37.1473   25.8874 H   0  0  0  0  0  0
  -20.9757  -29.7674   21.5535 H   0  0  0  0  0  0
  -26.0144  -38.2818   24.1409 H   0  0  0  0  0  0
  -25.8962  -18.0238   19.6407 H   0  0  0  0  0  0
  -22.9376  -20.3019   21.6874 H   0  0  0  0  0  0
  -23.0206  -22.0387   21.4632 H   0  0  0  0  0  0
  -23.1322  -21.8337   19.1106 H   0  0  0  0  0  0
  -22.2939  -20.3118   19.4131 H   0  0  0  0  0  0
  -26.1957  -24.0731   19.3745 H   0  0  0  0  0  0
  -27.0590  -24.5702   17.8926 H   0  0  0  0  0  0
  -25.2098  -20.2425   22.0829 H   0  0  0  0  0  0
  -25.3883  -21.9359   21.6660 H   0  0  0  0  0  0
  -24.6950  -20.2844   18.1222 H   0  0  0  0  0  0
  -24.2715  -19.0670   19.3309 H   0  0  0  0  0  0
  -26.6728  -22.0301   18.2930 H   0  0  0  0  0  0
  -28.3169  -22.4749   17.9374 H   0  0  0  0  0  0
  -28.3918  -23.4686   21.6461 H   0  0  0  0  0  0
  -29.7443  -23.2175   20.5722 H   0  0  0  0  0  0
  -29.1022  -24.8103   19.0567 H   0  0  0  0  0  0
  -31.1197  -17.6736   21.1839 H   0  0  0  0  0  0
  -30.8776  -17.2935   19.5141 H   0  0  0  0  0  0
  -29.1140  -15.7216   21.1777 H   0  0  0  0  0  0
  1 25  1  0  0  0
  1 30  2  0  0  0
  1 88  1  0  0  0
  2  3  1  0  0  0
  2 25  1  0  0  0
  2 91  1  0  0  0
  2 92  1  0  0  0
  3  4  1  0  0  0
  3 93  1  0  0  0
  3 94  1  0  0  0
  4  5  1  0  0  0
  4 95  1  0  0  0
  4 96  1  0  0  0
  5  6  1  0  0  0
  5 26  1  0  0  0
  5 97  1  0  0  0
  6 25  1  0  0  0
  6 98  1  0  0  0
  6 99  1  0  0  0
  7  8  2  0  0  0
  7 26  1  0  0  0
  7 29  1  0  0  0
  8  9  1  0  0  0
  8 22  1  0  0  0
  9 10  1  0  0  0
  9 27  2  0  0  0
 10 11  2  0  0  0
 10 15  1  0  0  0
 11 12  1  0  0  0
 11100  1  0  0  0
 12 13  2  0  0  0
 12101  1  0  0  0
 13 14  1  0  0  0
 13 31  1  0  0  0
 14 15  2  0  0  0
 14102  1  0  0  0
 15103  1  0  0  0
 16 17  2  0  0  0
 16 21  1  0  0  0
 16 31  1  0  0  0
 17 18  1  0  0  0
 17104  1  0  0  0
 18 19  2  0  0  0
 18105  1  0  0  0
 19 20  1  0  0  0
 19 24  1  0  0  0
 20 21  2  0  0  0
 20106  1  0  0  0
 21 23  1  0  0  0
 22 28  1  0  0  0
 22 32  2  0  0  0
 26 27  1  0  0  0
 28107  1  0  0  0
 28108  1  0  0  0
 29109  1  0  0  0
 29110  1  0  0  0
 33 34  1  0  0  0
 33 66  1  0  0  0
 33 70  2  0  0  0
 34 36  1  0  0  0
 34 59  1  0  0  0
 34111  1  0  0  0
 35 44  2  0  0  0
 35 45  1  0  0  0
 35 68  1  0  0  0
 36 56  1  0  0  0
 36112  1  0  0  0
 37 39  1  0  0  0
 37 47  1  0  0  0
 37 66  1  0  0  0
 37113  1  0  0  0
 38 43  2  0  0  0
 38 46  1  0  0  0
 38 47  1  0  0  0
 39 64  1  0  0  0
 39 67  2  0  0  0
 40 52  1  0  0  0
 40 53  2  0  0  0
 40 58  1  0  0  0
 41114  1  0  0  0
 41115  1  0  0  0
 41116  1  0  0  0
 41 48  1  0  0  0
 42 43  1  0  0  0
 42 66  1  0  0  0
 42117  1  0  0  0
 42118  1  0  0  0
 43 44  1  0  0  0
 44119  1  0  0  0
 45 46  2  0  0  0
 45120  1  0  0  0
 46121  1  0  0  0
 47122  1  0  0  0
 47123  1  0  0  0
 48 56  1  0  0  0
 48 65  1  0  0  0
 48124  1  0  0  0
 49 50  1  0  0  0
 49 53  1  0  0  0
 49 64  1  0  0  0
 49125  1  0  0  0
 50 51  1  0  0  0
 50126  1  0  0  0
 50127  1  0  0  0
 51 52  1  0  0  0
 51128  1  0  0  0
 51129  1  0  0  0
 52130  1  0  0  0
 52131  1  0  0  0
 53 54  1  0  0  0
 54 55  2  0  0  0
 54132  1  0  0  0
 55 57  1  0  0  0
 55133  1  0  0  0
 56 69  2  0  0  0
 57 58  2  0  0  0
 57134  1  0  0  0
 58135  1  0  0  0
 59 60  1  0  0  0
 59 61  1  0  0  0
 59 62  1  0  0  0
 60136  1  0  0  0
 60137  1  0  0  0
 60138  1  0  0  0
 61139  1  0  0  0
 61140  1  0  0  0
 61141  1  0  0  0
 62142  1  0  0  0
 62143  1  0  0  0
 62144  1  0  0  0
 63 65  1  0  0  0
 63145  1  0  0  0
 63146  1  0  0  0
 63147  1  0  0  0
 64148  1  0  0  0
 65149  1  0  0  0
 68 84  1  0  0  0
 71 73  2  0  0  0
 71 75  1  0  0  0
 71150  1  0  0  0
 72 75  2  0  0  0
 72 76  1  0  0  0
 72 85  1  0  0  0
 73 74  1  0  0  0
 73 86  1  0  0  0
 74 76  2  0  0  0
 74 87  1  0  0  0
 75 89  1  0  0  0
 76 90  1  0  0  0
 77 78  1  0  0  0
 77 80  1  0  0  0
 77151  1  0  0  0
 77152  1  0  0  0
 78 81  1  0  0  0
 78153  1  0  0  0
 78154  1  0  0  0
 79 82  1  0  0  0
 79 84  1  0  0  0
 79155  1  0  0  0
 79156  1  0  0  0
 80 86  1  0  0  0
 80157  1  0  0  0
 80158  1  0  0  0
 81 86  1  0  0  0
 81159  1  0  0  0
 81160  1  0  0  0
 82 87  1  0  0  0
 82161  1  0  0  0
 82162  1  0  0  0
 83 84  1  0  0  0
 83 87  1  0  0  0
 83163  1  0  0  0
 83164  1  0  0  0
 84165  1  0  0  0
 85 88  1  0  0  0
 85166  1  0  0  0
 85167  1  0  0  0
 88168  1  0  0  0
M  ISO  4   1 100  68 101  84 101  88 100
M  END
> <chiral flag>
0

> <version>
0

> <s_m_source_file>
/data/baiqing/PycharmProjects/Reinvent-master-3.2/result/LINK_invent/BTK/process_docking_weight1_custom_product_contain_oxygen_bond_distance_aromatic_linkinvent_7_9_3/rearranged_h_0026.sdf

> <i_m_source_file_index>
85

> <r_mmod_Potential_Energy-OPLS-2005>
596.270080566406

> <r_mmod_Stretch_Energy-OPLS-2005>
169.380737304688

> <r_mmod_Bend_Energy-OPLS-2005>
333.142395019531

> <r_mmod_Torsional_Energy-OPLS-2005>
356.481384277344

> <r_mmod_Improper_Torsional_Energy-OPLS-2005>
10.4869804382324

> <r_mmod_Van_der_Waal_Energy-OPLS-2005>
158.659805297852

> <r_mmod_Electrostatic_Energy-OPLS-2005>
-328.768615722656

> <r_mmod_Solvation_Energy-OPLS-2005>
-219.394424438477

> <b_mmod_Minimization_Converged-OPLS-2005>
0

> <r_mmod_RMS_Derivative-OPLS-2005>
12.5074148178101

$$$$
85
                    3D
 Structure written by MMmdl.
159168  0  0  1  0            999 V2000
  -30.6872  -14.6347   20.4884 C   0  0  0  0  0  0
  -30.4200  -12.3936   19.4707 C   0  0  0  0  0  0
  -29.5067  -12.4906   18.2338 C   0  0  0  0  0  0
  -28.0325  -12.3270   18.6475 C   0  0  0  0  0  0
  -27.6432  -13.2275   19.8509 C   0  0  2  0  0  0
  -28.6855  -13.1509   20.9888 C   0  0  0  0  0  0
  -25.2507  -13.8178   20.5668 C   0  0  0  0  0  0
  -24.1801  -13.0424   20.9194 C   0  0  0  0  0  0
  -24.6361  -11.6899   20.8736 C   0  0  0  0  0  0
  -23.9020  -10.4283   21.0374 C   0  0  0  0  0  0
  -24.3579   -9.4215   21.9157 C   0  0  0  0  0  0
  -23.6275   -8.2229   22.0744 C   0  0  0  0  0  0
  -22.4259   -8.0243   21.3528 C   0  0  0  0  0  0
  -21.9879   -9.0199   20.4630 C   0  0  0  0  0  0
  -22.7186  -10.2096   20.3027 C   0  0  0  0  0  0
  -21.6846   -6.0691   22.5257 C   0  0  0  0  0  0
  -21.4021   -6.5608   23.8191 C   0  0  0  0  0  0
  -21.3679   -5.6780   24.9163 C   0  0  0  0  0  0
  -21.6051   -4.3034   24.7224 C   0  0  0  0  0  0
  -21.8834   -3.8111   23.4354 C   0  0  0  0  0  0
  -21.9195   -4.6917   22.3406 C   0  0  0  0  0  0
  -22.7820  -13.5202   21.1839 C   0  0  0  0  0  0
  -22.1661   -4.2098   21.0979 F   0  0  0  0  0  0
  -21.5638   -3.4538   25.7749 F   0  0  0  0  0  0
  -29.9994  -13.4532   20.4110 N   0  0  0  0  0  0
  -26.2928  -12.9375   20.3255 N   0  0  0  0  0  0
  -25.9295  -11.6517   20.5742 N   0  0  0  0  0  0
  -22.0451  -12.8225   22.0403 N   0  0  0  0  0  0
  -25.4215  -15.1911   20.4108 N   0  0  0  0  0  0
  -31.8740  -14.6863   20.1544 O   0  0  0  0  0  0
  -21.6649   -6.8820   21.4213 O   0  0  0  0  0  0
  -22.3510  -14.5477   20.6635 O   0  0  0  0  0  0
  -24.6250  -31.8595   23.2017 C   0  0  0  0  0  0
  -25.9088  -32.4774   23.8355 C   0  0  1  0  0  0
  -27.2146  -27.3342   20.1198 C   0  0  0  0  0  0
  -25.5894  -33.8577   24.2268 N   0  0  0  0  0  0
  -23.4176  -30.4825   21.5451 C   0  0  2  0  0  0
  -24.8608  -28.9364   20.1121 C   0  0  0  0  0  0
  -22.7475  -29.4626   22.4962 C   0  0  0  0  0  0
  -18.0281  -28.1410   22.8486 C   0  0  0  0  0  0
  -24.1474  -36.7313   23.2638 C   0  0  0  0  0  0
  -25.9547  -30.7970   21.3649 C   0  0  0  0  0  0
  -26.0293  -29.4225   20.7144 C   0  0  0  0  0  0
  -27.2140  -28.6327   20.7065 C   0  0  0  0  0  0
  -26.0314  -26.8952   19.4897 C   0  0  0  0  0  0
  -24.8627  -27.6782   19.4889 C   0  0  0  0  0  0
  -23.6293  -29.8148   20.1610 C   0  0  0  0  0  0
  -25.4095  -36.3085   24.0330 C   0  0  1  0  0  0
  -20.5877  -28.3706   23.1300 C   0  0  2  0  0  0
  -20.6769  -26.9438   22.5416 C   0  0  0  0  0  0
  -19.5742  -26.6403   21.5220 C   0  0  0  0  0  0
  -18.1924  -26.7948   22.1632 C   0  0  0  0  0  0
  -19.1531  -28.8875   23.2885 C   0  0  0  0  0  0
  -18.9456  -30.1476   23.8906 C   0  0  0  0  0  0
  -17.6454  -30.6602   24.0571 C   0  0  0  0  0  0
  -25.9041  -34.9453   23.5112 C   0  0  0  0  0  0
  -16.5346  -29.9116   23.6313 C   0  0  0  0  0  0
  -16.7265  -28.6535   23.0328 C   0  0  0  0  0  0
  -26.4467  -31.6576   25.0723 C   0  0  0  0  0  0
  -25.3719  -31.3695   26.1464 C   0  0  0  0  0  0
  -27.0276  -30.2995   24.6145 C   0  0  0  0  0  0
  -27.6015  -32.4322   25.7502 C   0  0  0  0  0  0
  -27.5571  -37.1807   24.8463 C   0  0  0  0  0  0
  -21.4185  -29.3048   22.3695 N   0  0  0  0  0  0
  -26.4266  -37.3788   23.9429 N   0  0  0  0  0  0
  -24.6853  -31.0637   22.0950 N   0  0  0  0  0  0
  -23.4189  -28.8172   23.3046 O   0  0  0  0  0  0
  -28.3204  -26.4853   20.1372 O   0  0  0  0  0  0
  -26.5644  -34.8927   22.4697 O   0  0  0  0  0  0
  -23.5415  -32.1374   23.7353 O   0  0  0  0  0  0
  -29.3425  -18.9844   21.7003 C   0  0  0  0  0  0
  -29.7079  -20.9100   19.6968 C   0  0  0  0  0  0
  -29.9389  -18.5482   20.4920 C   0  0  0  0  0  0
  -29.2003  -21.3692   20.9368 C   0  0  0  0  0  0
  -28.9805  -20.3468   21.9181 C   0  0  0  0  0  0
  -30.0738  -19.5507   19.4777 C   0  0  0  0  0  0
  -31.0772  -23.9795   21.4081 C   0  0  0  0  0  0
  -30.4195  -24.2703   20.0548 C   0  0  0  0  0  0
  -30.0227  -23.2068   22.2111 C   0  0  0  0  0  0
  -28.9480  -23.8953   20.2605 C   0  0  2  0  0  0
  -30.6307  -17.1360   20.3561 C   0  0  0  0  0  0
  -28.1202  -25.1666   20.7691 C   0  0  0  0  0  0
  -29.0108  -22.7690   21.2468 N   0  0  0  0  0  0
  -30.0030  -15.8068   20.6934 N   0  0  0  0  0  0
  -28.3017  -20.7490   23.4584 Cl  0  0  0  0  0  0
  -30.7612  -19.1751   17.9355 Cl  0  0  0  0  0  0
  -31.4646  -12.4905   19.1692 H   0  0  0  0  0  0
  -30.3347  -11.4147   19.9434 H   0  0  0  0  0  0
  -29.7800  -11.7271   17.5042 H   0  0  0  0  0  0
  -29.6548  -13.4513   17.7381 H   0  0  0  0  0  0
  -27.8852  -11.2785   18.9101 H   0  0  0  0  0  0
  -27.3779  -12.5265   17.7997 H   0  0  0  0  0  0
  -27.6426  -14.2519   19.4744 H   0  0  0  0  0  0
  -28.6957  -12.1602   21.4477 H   0  0  0  0  0  0
  -28.4403  -13.8580   21.7824 H   0  0  0  0  0  0
  -25.2706   -9.5724   22.4750 H   0  0  0  0  0  0
  -23.9981   -7.4649   22.7485 H   0  0  0  0  0  0
  -21.0796   -8.8684   19.8968 H   0  0  0  0  0  0
  -22.3583  -10.9612   19.6148 H   0  0  0  0  0  0
  -21.2014   -7.6122   23.9673 H   0  0  0  0  0  0
  -21.1494   -6.0515   25.9061 H   0  0  0  0  0  0
  -22.0605   -2.7562   23.2874 H   0  0  0  0  0  0
  -22.4044  -11.9920   22.4874 H   0  0  0  0  0  0
  -21.1052  -13.1251   22.2511 H   0  0  0  0  0  0
  -24.6600  -15.8508   20.5285 H   0  0  0  0  0  0
  -26.2700  -15.6283   20.0754 H   0  0  0  0  0  0
  -26.7173  -32.5445   23.1122 H   0  0  0  0  0  0
  -24.9965  -33.9717   25.0359 H   0  0  0  0  0  0
  -22.7102  -31.3015   21.4015 H   0  0  0  0  0  0
  -23.3723  -35.9659   23.3283 H   0  0  0  0  0  0
  -24.3568  -36.8957   22.2058 H   0  0  0  0  0  0
  -23.7229  -37.6513   23.6674 H   0  0  0  0  0  0
  -26.0717  -31.5531   20.5871 H   0  0  0  0  0  0
  -26.8415  -30.8569   21.9845 H   0  0  0  0  0  0
  -28.1146  -28.9974   21.1821 H   0  0  0  0  0  0
  -26.0034  -25.9294   19.0058 H   0  0  0  0  0  0
  -23.9694  -27.3019   19.0074 H   0  0  0  0  0  0
  -23.7492  -30.5879   19.4015 H   0  0  0  0  0  0
  -22.7481  -29.2447   19.8607 H   0  0  0  0  0  0
  -25.1263  -36.1935   25.0820 H   0  0  0  0  0  0
  -20.9956  -28.3288   24.1425 H   0  0  0  0  0  0
  -20.5685  -26.2333   23.3621 H   0  0  0  0  0  0
  -21.6641  -26.7496   22.1198 H   0  0  0  0  0  0
  -19.6913  -25.6313   21.1259 H   0  0  0  0  0  0
  -19.6666  -27.3207   20.6746 H   0  0  0  0  0  0
  -17.4193  -26.6685   21.4042 H   0  0  0  0  0  0
  -18.0335  -26.0095   22.9042 H   0  0  0  0  0  0
  -19.7934  -30.7292   24.2274 H   0  0  0  0  0  0
  -17.5012  -31.6278   24.5191 H   0  0  0  0  0  0
  -15.5348  -30.3029   23.7623 H   0  0  0  0  0  0
  -15.8667  -28.0869   22.7018 H   0  0  0  0  0  0
  -24.5889  -30.7043   25.7808 H   0  0  0  0  0  0
  -24.8914  -32.2848   26.4935 H   0  0  0  0  0  0
  -25.8069  -30.8852   27.0218 H   0  0  0  0  0  0
  -26.2822  -29.6789   24.1157 H   0  0  0  0  0  0
  -27.3949  -29.7207   25.4632 H   0  0  0  0  0  0
  -27.8710  -30.4263   23.9351 H   0  0  0  0  0  0
  -27.2592  -33.3611   26.2079 H   0  0  0  0  0  0
  -28.3822  -32.6909   25.0338 H   0  0  0  0  0  0
  -28.0684  -31.8459   26.5427 H   0  0  0  0  0  0
  -28.2571  -38.0119   24.7523 H   0  0  0  0  0  0
  -28.1078  -36.2655   24.6248 H   0  0  0  0  0  0
  -27.2317  -37.1419   25.8872 H   0  0  0  0  0  0
  -20.9386  -29.8765   21.6891 H   0  0  0  0  0  0
  -26.0143  -38.2860   24.1442 H   0  0  0  0  0  0
  -29.2173  -18.2815   22.5118 H   0  0  0  0  0  0
  -29.8873  -21.6177   18.9014 H   0  0  0  0  0  0
  -31.3604  -24.8960   21.9248 H   0  0  0  0  0  0
  -31.9848  -23.3884   21.2773 H   0  0  0  0  0  0
  -30.8626  -23.6352   19.2869 H   0  0  0  0  0  0
  -30.5590  -25.3006   19.7255 H   0  0  0  0  0  0
  -29.5602  -23.8518   22.9604 H   0  0  0  0  0  0
  -30.4952  -22.3925   22.7626 H   0  0  0  0  0  0
  -28.5150  -23.5557   19.3173 H   0  0  0  0  0  0
  -31.5393  -17.2101   20.9578 H   0  0  0  0  0  0
  -30.9978  -17.0290   19.3377 H   0  0  0  0  0  0
  -28.3469  -25.3401   21.8204 H   0  0  0  0  0  0
  -27.0675  -24.8844   20.7683 H   0  0  0  0  0  0
  -29.0213  -15.7723   20.9247 H   0  0  0  0  0  0
  1 25  1  0  0  0
  1 30  2  0  0  0
  1 84  1  0  0  0
  2  3  1  0  0  0
  2 25  1  0  0  0
  2 87  1  0  0  0
  2 88  1  0  0  0
  3  4  1  0  0  0
  3 89  1  0  0  0
  3 90  1  0  0  0
  4  5  1  0  0  0
  4 91  1  0  0  0
  4 92  1  0  0  0
  5  6  1  0  0  0
  5 26  1  0  0  0
  5 93  1  0  0  0
  6 25  1  0  0  0
  6 94  1  0  0  0
  6 95  1  0  0  0
  7  8  2  0  0  0
  7 26  1  0  0  0
  7 29  1  0  0  0
  8  9  1  0  0  0
  8 22  1  0  0  0
  9 10  1  0  0  0
  9 27  2  0  0  0
 10 11  2  0  0  0
 10 15  1  0  0  0
 11 12  1  0  0  0
 11 96  1  0  0  0
 12 13  2  0  0  0
 12 97  1  0  0  0
 13 14  1  0  0  0
 13 31  1  0  0  0
 14 15  2  0  0  0
 14 98  1  0  0  0
 15 99  1  0  0  0
 16 17  2  0  0  0
 16 21  1  0  0  0
 16 31  1  0  0  0
 17 18  1  0  0  0
 17100  1  0  0  0
 18 19  2  0  0  0
 18101  1  0  0  0
 19 20  1  0  0  0
 19 24  1  0  0  0
 20 21  2  0  0  0
 20102  1  0  0  0
 21 23  1  0  0  0
 22 28  1  0  0  0
 22 32  2  0  0  0
 26 27  1  0  0  0
 28103  1  0  0  0
 28104  1  0  0  0
 29105  1  0  0  0
 29106  1  0  0  0
 33 34  1  0  0  0
 33 66  1  0  0  0
 33 70  2  0  0  0
 34 36  1  0  0  0
 34 59  1  0  0  0
 34107  1  0  0  0
 35 44  2  0  0  0
 35 45  1  0  0  0
 35 68  1  0  0  0
 36 56  1  0  0  0
 36108  1  0  0  0
 37 39  1  0  0  0
 37 47  1  0  0  0
 37 66  1  0  0  0
 37109  1  0  0  0
 38 43  2  0  0  0
 38 46  1  0  0  0
 38 47  1  0  0  0
 39 64  1  0  0  0
 39 67  2  0  0  0
 40 52  1  0  0  0
 40 53  2  0  0  0
 40 58  1  0  0  0
 41110  1  0  0  0
 41111  1  0  0  0
 41112  1  0  0  0
 41 48  1  0  0  0
 42 43  1  0  0  0
 42 66  1  0  0  0
 42113  1  0  0  0
 42114  1  0  0  0
 43 44  1  0  0  0
 44115  1  0  0  0
 45 46  2  0  0  0
 45116  1  0  0  0
 46117  1  0  0  0
 47118  1  0  0  0
 47119  1  0  0  0
 48 56  1  0  0  0
 48 65  1  0  0  0
 48120  1  0  0  0
 49 50  1  0  0  0
 49 53  1  0  0  0
 49 64  1  0  0  0
 49121  1  0  0  0
 50 51  1  0  0  0
 50122  1  0  0  0
 50123  1  0  0  0
 51 52  1  0  0  0
 51124  1  0  0  0
 51125  1  0  0  0
 52126  1  0  0  0
 52127  1  0  0  0
 53 54  1  0  0  0
 54 55  2  0  0  0
 54128  1  0  0  0
 55 57  1  0  0  0
 55129  1  0  0  0
 56 69  2  0  0  0
 57 58  2  0  0  0
 57130  1  0  0  0
 58131  1  0  0  0
 59 60  1  0  0  0
 59 61  1  0  0  0
 59 62  1  0  0  0
 60132  1  0  0  0
 60133  1  0  0  0
 60134  1  0  0  0
 61135  1  0  0  0
 61136  1  0  0  0
 61137  1  0  0  0
 62138  1  0  0  0
 62139  1  0  0  0
 62140  1  0  0  0
 63 65  1  0  0  0
 63141  1  0  0  0
 63142  1  0  0  0
 63143  1  0  0  0
 64144  1  0  0  0
 65145  1  0  0  0
 68 82  1  0  0  0
 71 73  2  0  0  0
 71 75  1  0  0  0
 71146  1  0  0  0
 72 74  1  0  0  0
 72 76  2  0  0  0
 72147  1  0  0  0
 73 76  1  0  0  0
 73 81  1  0  0  0
 74 75  2  0  0  0
 74 83  1  0  0  0
 75 85  1  0  0  0
 76 86  1  0  0  0
 77 78  1  0  0  0
 77 79  1  0  0  0
 77148  1  0  0  0
 77149  1  0  0  0
 78 80  1  0  0  0
 78150  1  0  0  0
 78151  1  0  0  0
 79 83  1  0  0  0
 79152  1  0  0  0
 79153  1  0  0  0
 80 82  1  0  0  0
 80 83  1  0  0  0
 80154  1  0  0  0
 81 84  1  0  0  0
 81155  1  0  0  0
 81156  1  0  0  0
 82157  1  0  0  0
 82158  1  0  0  0
 84159  1  0  0  0
M  ISO  4   1 100  68 101  82 101  84 100
M  END
> <chiral flag>
0

> <version>
0

> <s_m_source_file>
/data/baiqing/PycharmProjects/Reinvent-master-3.2/result/LINK_invent/BTK/process_docking_weight1_custom_product_contain_oxygen_bond_distance_aromatic_linkinvent_7_9_3/rearranged_h_0026.sdf

> <i_m_source_file_index>
86

> <r_mmod_Potential_Energy-OPLS-2005>
195.232147216797

> <r_mmod_Stretch_Energy-OPLS-2005>
78.3052825927734

> <r_mmod_Bend_Energy-OPLS-2005>
178.180908203125

> <r_mmod_Torsional_Energy-OPLS-2005>
309.768218994141

> <r_mmod_Improper_Torsional_Energy-OPLS-2005>
12.928560256958

> <r_mmod_Van_der_Waal_Energy-OPLS-2005>
150.100311279297

> <r_mmod_Electrostatic_Energy-OPLS-2005>
-367.348876953125

> <r_mmod_Solvation_Energy-OPLS-2005>
-216.706787109375

> <b_mmod_Minimization_Converged-OPLS-2005>
0

> <r_mmod_RMS_Derivative-OPLS-2005>
2.58469557762146

$$$$
86
                    3D
 Structure written by MMmdl.
156165  0  0  1  0            999 V2000
  -30.5330  -14.9180   20.4189 C   0  0  0  0  0  0
  -30.4447  -12.5604   19.4980 C   0  0  0  0  0  0
  -29.5178  -12.5290   18.2582 C   0  0  0  0  0  0
  -28.0556  -12.3038   18.6823 C   0  0  0  0  0  0
  -27.6351  -13.2370   19.8476 C   0  0  2  0  0  0
  -28.6797  -13.2430   20.9857 C   0  0  0  0  0  0
  -25.2472  -13.8206   20.5681 C   0  0  0  0  0  0
  -24.1775  -13.0445   20.9202 C   0  0  0  0  0  0
  -24.6378  -11.6920   20.8752 C   0  0  0  0  0  0
  -23.9054  -10.4296   21.0405 C   0  0  0  0  0  0
  -24.3600   -9.4210   21.9184 C   0  0  0  0  0  0
  -23.6282   -8.2249   22.0755 C   0  0  0  0  0  0
  -22.4274   -8.0274   21.3535 C   0  0  0  0  0  0
  -21.9896   -9.0246   20.4642 C   0  0  0  0  0  0
  -22.7217  -10.2133   20.3052 C   0  0  0  0  0  0
  -21.6850   -6.0718   22.5265 C   0  0  0  0  0  0
  -21.4013   -6.5627   23.8195 C   0  0  0  0  0  0
  -21.3666   -5.6784   24.9162 C   0  0  0  0  0  0
  -21.6053   -4.3042   24.7222 C   0  0  0  0  0  0
  -21.8820   -3.8128   23.4338 C   0  0  0  0  0  0
  -21.9188   -4.6946   22.3390 C   0  0  0  0  0  0
  -22.7797  -13.5214   21.1860 C   0  0  0  0  0  0
  -22.1659   -4.2124   21.0964 F   0  0  0  0  0  0
  -21.5632   -3.4532   25.7741 F   0  0  0  0  0  0
  -29.9665  -13.6453   20.3995 N   0  0  0  0  0  0
  -26.2905  -12.9416   20.3293 N   0  0  0  0  0  0
  -25.9310  -11.6550   20.5772 N   0  0  0  0  0  0
  -22.0452  -12.8220   22.0424 N   0  0  0  0  0  0
  -25.4176  -15.1925   20.4049 N   0  0  0  0  0  0
  -31.7220  -15.0281   20.0991 O   0  0  0  0  0  0
  -21.6637   -6.8867   21.4232 O   0  0  0  0  0  0
  -22.3483  -14.5519   20.6700 O   0  0  0  0  0  0
  -24.6408  -31.8446   23.1870 C   0  0  0  0  0  0
  -25.9204  -32.4698   23.8255 C   0  0  1  0  0  0
  -27.2420  -27.1569   20.1445 C   0  0  0  0  0  0
  -25.5964  -33.8493   24.2183 N   0  0  0  0  0  0
  -23.4458  -30.4577   21.5347 C   0  0  2  0  0  0
  -24.8986  -28.8836   20.1106 C   0  0  0  0  0  0
  -22.7568  -29.4515   22.4882 C   0  0  0  0  0  0
  -18.0309  -28.1367   22.8459 C   0  0  0  0  0  0
  -24.1500  -36.7238   23.2640 C   0  0  0  0  0  0
  -25.9963  -30.7258   21.3824 C   0  0  0  0  0  0
  -26.0733  -29.3368   20.7234 C   0  0  0  0  0  0
  -27.2392  -28.4880   20.7237 C   0  0  0  0  0  0
  -26.0341  -26.7921   19.5043 C   0  0  0  0  0  0
  -24.8899  -27.6231   19.4891 C   0  0  0  0  0  0
  -23.6722  -29.7829   20.1545 C   0  0  0  0  0  0
  -25.4128  -36.3019   24.0322 C   0  0  1  0  0  0
  -20.5908  -28.3689   23.1221 C   0  0  2  0  0  0
  -20.6784  -26.9391   22.5395 C   0  0  0  0  0  0
  -19.5774  -26.6363   21.5183 C   0  0  0  0  0  0
  -18.1947  -26.7925   22.1577 C   0  0  0  0  0  0
  -19.1559  -28.8849   23.2835 C   0  0  0  0  0  0
  -18.9475  -30.1444   23.8857 C   0  0  0  0  0  0
  -17.6474  -30.6567   24.0527 C   0  0  0  0  0  0
  -25.9076  -34.9401   23.5058 C   0  0  0  0  0  0
  -16.5377  -29.9049   23.6315 C   0  0  0  0  0  0
  -16.7297  -28.6469   23.0343 C   0  0  0  0  0  0
  -26.4554  -31.6573   25.0705 C   0  0  0  0  0  0
  -25.3731  -31.3733   26.1404 C   0  0  0  0  0  0
  -27.0436  -30.2977   24.6273 C   0  0  0  0  0  0
  -27.6088  -32.4342   25.7476 C   0  0  0  0  0  0
  -27.5591  -37.1754   24.8457 C   0  0  0  0  0  0
  -21.4262  -29.3017   22.3611 N   0  0  0  0  0  0
  -26.4292  -37.3740   23.9421 N   0  0  0  0  0  0
  -24.7133  -31.0298   22.0916 N   0  0  0  0  0  0
  -23.4206  -28.8047   23.3023 O   0  0  0  0  0  0
  -28.3326  -26.2239   20.2609 O   0  0  0  0  0  0
  -26.5649  -34.8911   22.4636 O   0  0  0  0  0  0
  -23.5534  -32.1323   23.7098 O   0  0  0  0  0  0
  -28.5510  -19.8447   20.7502 C   0  0  0  0  0  0
  -28.6260  -18.3957   20.8885 C   0  0  0  0  0  0
  -30.7635  -18.3703   19.9145 C   0  0  0  0  0  0
  -30.6891  -19.8175   19.7528 C   0  0  0  0  0  0
  -29.5777  -20.6627   20.1735 C   0  0  0  0  0  0
  -29.7322  -17.5636   20.4848 C   0  0  0  0  0  0
  -31.8945  -20.4512   19.0701 C   0  0  0  0  0  0
  -31.6034  -21.8653   18.5807 C   0  0  0  0  0  0
  -30.9095  -22.6479   19.6954 C   0  0  0  0  0  0
  -28.6663  -23.3153   20.5298 C   0  0  0  0  0  0
  -28.4218  -24.7770   19.7048 C   0  0  0  0  0  0
  -29.5566  -22.1552   19.9748 N   0  0  0  0  0  0
  -29.6950  -16.0384   20.6414 N   0  0  0  0  0  0
  -31.4784  -12.7156   19.1883 H   0  0  0  0  0  0
  -30.4309  -11.6007   20.0182 H   0  0  0  0  0  0
  -29.8342  -11.7473   17.5663 H   0  0  0  0  0  0
  -29.5985  -13.4721   17.7175 H   0  0  0  0  0  0
  -27.9628  -11.2635   18.9980 H   0  0  0  0  0  0
  -27.3851  -12.4246   17.8315 H   0  0  0  0  0  0
  -27.6076  -14.2407   19.4235 H   0  0  0  0  0  0
  -28.7559  -12.2604   21.4549 H   0  0  0  0  0  0
  -28.3825  -13.9327   21.7774 H   0  0  0  0  0  0
  -25.2742   -9.5691   22.4756 H   0  0  0  0  0  0
  -23.9977   -7.4642   22.7488 H   0  0  0  0  0  0
  -21.0817   -8.8764   19.8949 H   0  0  0  0  0  0
  -22.3665  -10.9669   19.6159 H   0  0  0  0  0  0
  -21.2011   -7.6139   23.9690 H   0  0  0  0  0  0
  -21.1491   -6.0519   25.9068 H   0  0  0  0  0  0
  -22.0596   -2.7591   23.2845 H   0  0  0  0  0  0
  -22.4067  -11.9875   22.4808 H   0  0  0  0  0  0
  -21.1071  -13.1261   22.2657 H   0  0  0  0  0  0
  -24.6420  -15.8412   20.4788 H   0  0  0  0  0  0
  -26.2614  -15.6258   20.0527 H   0  0  0  0  0  0
  -26.7284  -32.5322   23.0988 H   0  0  0  0  0  0
  -25.0130  -33.9593   25.0338 H   0  0  0  0  0  0
  -22.7502  -31.2840   21.3813 H   0  0  0  0  0  0
  -23.3789  -35.9541   23.3263 H   0  0  0  0  0  0
  -24.3587  -36.8908   22.2064 H   0  0  0  0  0  0
  -23.7215  -37.6403   23.6708 H   0  0  0  0  0  0
  -26.1440  -31.4855   20.6139 H   0  0  0  0  0  0
  -26.8643  -30.7798   22.0272 H   0  0  0  0  0  0
  -28.1385  -28.8310   21.2186 H   0  0  0  0  0  0
  -25.9273  -25.8219   19.0475 H   0  0  0  0  0  0
  -23.9867  -27.2647   19.0130 H   0  0  0  0  0  0
  -23.8043  -30.5579   19.3973 H   0  0  0  0  0  0
  -22.7891  -29.2204   19.8472 H   0  0  0  0  0  0
  -25.1301  -36.1856   25.0810 H   0  0  0  0  0  0
  -20.9994  -28.3307   24.1344 H   0  0  0  0  0  0
  -20.5642  -26.2312   23.3620 H   0  0  0  0  0  0
  -21.6658  -26.7369   22.1223 H   0  0  0  0  0  0
  -19.6935  -25.6261   21.1246 H   0  0  0  0  0  0
  -19.6741  -27.3131   20.6687 H   0  0  0  0  0  0
  -17.4224  -26.6660   21.3982 H   0  0  0  0  0  0
  -18.0320  -26.0055   22.8953 H   0  0  0  0  0  0
  -19.7973  -30.7220   24.2244 H   0  0  0  0  0  0
  -17.5052  -31.6261   24.5122 H   0  0  0  0  0  0
  -15.5367  -30.2918   23.7691 H   0  0  0  0  0  0
  -15.8709  -28.0775   22.7062 H   0  0  0  0  0  0
  -24.5960  -30.7028   25.7712 H   0  0  0  0  0  0
  -24.8870  -32.2902   26.4745 H   0  0  0  0  0  0
  -25.8028  -30.8984   27.0233 H   0  0  0  0  0  0
  -26.3052  -29.6671   24.1319 H   0  0  0  0  0  0
  -27.4102  -29.7311   25.4838 H   0  0  0  0  0  0
  -27.8935  -30.4214   23.9554 H   0  0  0  0  0  0
  -27.2700  -33.3696   26.1936 H   0  0  0  0  0  0
  -28.3947  -32.6802   25.0315 H   0  0  0  0  0  0
  -28.0708  -31.8536   26.5478 H   0  0  0  0  0  0
  -28.2543  -38.0116   24.7570 H   0  0  0  0  0  0
  -28.1161  -36.2647   24.6205 H   0  0  0  0  0  0
  -27.2325  -37.1271   25.8861 H   0  0  0  0  0  0
  -20.9475  -29.8756   21.6807 H   0  0  0  0  0  0
  -26.0179  -38.2795   24.1495 H   0  0  0  0  0  0
  -27.6476  -20.3281   21.0971 H   0  0  0  0  0  0
  -27.7677  -17.9085   21.3308 H   0  0  0  0  0  0
  -31.6533  -17.8655   19.5631 H   0  0  0  0  0  0
  -32.2262  -19.8347   18.2329 H   0  0  0  0  0  0
  -32.7204  -20.4779   19.7833 H   0  0  0  0  0  0
  -30.9729  -21.8427   17.6926 H   0  0  0  0  0  0
  -32.5361  -22.3500   18.2861 H   0  0  0  0  0  0
  -30.9101  -23.7004   19.4242 H   0  0  0  0  0  0
  -31.5044  -22.5882   20.6083 H   0  0  0  0  0  0
  -27.6890  -22.9048   20.7899 H   0  0  0  0  0  0
  -29.1141  -23.5752   21.4910 H   0  0  0  0  0  0
  -27.6242  -24.6026   18.9871 H   0  0  0  0  0  0
  -29.2771  -24.8910   19.0442 H   0  0  0  0  0  0
  -28.7892  -15.7145   20.9404 H   0  0  0  0  0  0
  1 25  1  0  0  0
  1 30  2  0  0  0
  1 83  1  0  0  0
  2  3  1  0  0  0
  2 25  1  0  0  0
  2 84  1  0  0  0
  2 85  1  0  0  0
  3  4  1  0  0  0
  3 86  1  0  0  0
  3 87  1  0  0  0
  4  5  1  0  0  0
  4 88  1  0  0  0
  4 89  1  0  0  0
  5  6  1  0  0  0
  5 26  1  0  0  0
  5 90  1  0  0  0
  6 25  1  0  0  0
  6 91  1  0  0  0
  6 92  1  0  0  0
  7  8  2  0  0  0
  7 26  1  0  0  0
  7 29  1  0  0  0
  8  9  1  0  0  0
  8 22  1  0  0  0
  9 10  1  0  0  0
  9 27  2  0  0  0
 10 11  2  0  0  0
 10 15  1  0  0  0
 11 12  1  0  0  0
 11 93  1  0  0  0
 12 13  2  0  0  0
 12 94  1  0  0  0
 13 14  1  0  0  0
 13 31  1  0  0  0
 14 15  2  0  0  0
 14 95  1  0  0  0
 15 96  1  0  0  0
 16 17  2  0  0  0
 16 21  1  0  0  0
 16 31  1  0  0  0
 17 18  1  0  0  0
 17 97  1  0  0  0
 18 19  2  0  0  0
 18 98  1  0  0  0
 19 20  1  0  0  0
 19 24  1  0  0  0
 20 21  2  0  0  0
 20 99  1  0  0  0
 21 23  1  0  0  0
 22 28  1  0  0  0
 22 32  2  0  0  0
 26 27  1  0  0  0
 28100  1  0  0  0
 28101  1  0  0  0
 29102  1  0  0  0
 29103  1  0  0  0
 33 34  1  0  0  0
 33 66  1  0  0  0
 33 70  2  0  0  0
 34 36  1  0  0  0
 34 59  1  0  0  0
 34104  1  0  0  0
 35 44  2  0  0  0
 35 45  1  0  0  0
 35 68  1  0  0  0
 36 56  1  0  0  0
 36105  1  0  0  0
 37 39  1  0  0  0
 37 47  1  0  0  0
 37 66  1  0  0  0
 37106  1  0  0  0
 38 43  2  0  0  0
 38 46  1  0  0  0
 38 47  1  0  0  0
 39 64  1  0  0  0
 39 67  2  0  0  0
 40 52  1  0  0  0
 40 53  2  0  0  0
 40 58  1  0  0  0
 41107  1  0  0  0
 41108  1  0  0  0
 41109  1  0  0  0
 41 48  1  0  0  0
 42 43  1  0  0  0
 42 66  1  0  0  0
 42110  1  0  0  0
 42111  1  0  0  0
 43 44  1  0  0  0
 44112  1  0  0  0
 45 46  2  0  0  0
 45113  1  0  0  0
 46114  1  0  0  0
 47115  1  0  0  0
 47116  1  0  0  0
 48 56  1  0  0  0
 48 65  1  0  0  0
 48117  1  0  0  0
 49 50  1  0  0  0
 49 53  1  0  0  0
 49 64  1  0  0  0
 49118  1  0  0  0
 50 51  1  0  0  0
 50119  1  0  0  0
 50120  1  0  0  0
 51 52  1  0  0  0
 51121  1  0  0  0
 51122  1  0  0  0
 52123  1  0  0  0
 52124  1  0  0  0
 53 54  1  0  0  0
 54 55  2  0  0  0
 54125  1  0  0  0
 55 57  1  0  0  0
 55126  1  0  0  0
 56 69  2  0  0  0
 57 58  2  0  0  0
 57127  1  0  0  0
 58128  1  0  0  0
 59 60  1  0  0  0
 59 61  1  0  0  0
 59 62  1  0  0  0
 60129  1  0  0  0
 60130  1  0  0  0
 60131  1  0  0  0
 61132  1  0  0  0
 61133  1  0  0  0
 61134  1  0  0  0
 62135  1  0  0  0
 62136  1  0  0  0
 62137  1  0  0  0
 63 65  1  0  0  0
 63138  1  0  0  0
 63139  1  0  0  0
 63140  1  0  0  0
 64141  1  0  0  0
 65142  1  0  0  0
 68 81  1  0  0  0
 71 72  2  0  0  0
 71 75  1  0  0  0
 71143  1  0  0  0
 72 76  1  0  0  0
 72144  1  0  0  0
 73 74  1  0  0  0
 73 76  2  0  0  0
 73145  1  0  0  0
 74 75  2  0  0  0
 74 77  1  0  0  0
 75 82  1  0  0  0
 76 83  1  0  0  0
 77 78  1  0  0  0
 77146  1  0  0  0
 77147  1  0  0  0
 78 79  1  0  0  0
 78148  1  0  0  0
 78149  1  0  0  0
 79 82  1  0  0  0
 79150  1  0  0  0
 79151  1  0  0  0
 80 81  1  0  0  0
 80 82  1  0  0  0
 80152  1  0  0  0
 80153  1  0  0  0
 81154  1  0  0  0
 81155  1  0  0  0
 83156  1  0  0  0
M  ISO  4   1 100  68 101  81 101  83 100
M  END
> <chiral flag>
0

> <version>
0

> <s_m_source_file>
/data/baiqing/PycharmProjects/Reinvent-master-3.2/result/LINK_invent/BTK/process_docking_weight1_custom_product_contain_oxygen_bond_distance_aromatic_linkinvent_7_9_3/rearranged_h_0026.sdf

> <i_m_source_file_index>
87

> <r_mmod_Potential_Energy-OPLS-2005>
430.885925292969

> <r_mmod_Stretch_Energy-OPLS-2005>
232.21549987793

> <r_mmod_Bend_Energy-OPLS-2005>
290.126007080078

> <r_mmod_Torsional_Energy-OPLS-2005>
210.968734741211

> <r_mmod_Improper_Torsional_Energy-OPLS-2005>
6.07479476928711

> <r_mmod_Van_der_Waal_Energy-OPLS-2005>
142.663696289062

> <r_mmod_Electrostatic_Energy-OPLS-2005>
-392.462432861328

> <r_mmod_Solvation_Energy-OPLS-2005>
-229.957885742188

> <b_mmod_Minimization_Converged-OPLS-2005>
0

> <r_mmod_RMS_Derivative-OPLS-2005>
3.31041693687439

$$$$
87
                    3D
 Structure written by MMmdl.
164173  0  0  1  0            999 V2000
  -30.6556  -14.7416   20.4698 C   0  0  0  0  0  0
  -30.4352  -12.4610   19.4696 C   0  0  0  0  0  0
  -29.5117  -12.5130   18.2317 C   0  0  0  0  0  0
  -28.0406  -12.3351   18.6529 C   0  0  0  0  0  0
  -27.6525  -13.2350   19.8557 C   0  0  2  0  0  0
  -28.7010  -13.1657   20.9913 C   0  0  0  0  0  0
  -25.2609  -13.8213   20.5764 C   0  0  0  0  0  0
  -24.1843  -13.0433   20.9173 C   0  0  0  0  0  0
  -24.6443  -11.6937   20.8760 C   0  0  0  0  0  0
  -23.9121  -10.4285   21.0424 C   0  0  0  0  0  0
  -24.3653   -9.4184   21.9198 C   0  0  0  0  0  0
  -23.6285   -8.2238   22.0772 C   0  0  0  0  0  0
  -22.4256   -8.0299   21.3580 C   0  0  0  0  0  0
  -21.9924   -9.0273   20.4662 C   0  0  0  0  0  0
  -22.7296  -10.2140   20.3064 C   0  0  0  0  0  0
  -21.6838   -6.0734   22.5282 C   0  0  0  0  0  0
  -21.3992   -6.5633   23.8219 C   0  0  0  0  0  0
  -21.3655   -5.6792   24.9190 C   0  0  0  0  0  0
  -21.6052   -4.3057   24.7245 C   0  0  0  0  0  0
  -21.8820   -3.8142   23.4370 C   0  0  0  0  0  0
  -21.9182   -4.6954   22.3413 C   0  0  0  0  0  0
  -22.7875  -13.5242   21.1759 C   0  0  0  0  0  0
  -22.1650   -4.2142   21.0995 F   0  0  0  0  0  0
  -21.5638   -3.4531   25.7763 F   0  0  0  0  0  0
  -30.0113  -13.5184   20.4238 N   0  0  0  0  0  0
  -26.3017  -12.9408   20.3343 N   0  0  0  0  0  0
  -25.9380  -11.6552   20.5762 N   0  0  0  0  0  0
  -22.0487  -12.8257   22.0345 N   0  0  0  0  0  0
  -25.4314  -15.1922   20.4284 N   0  0  0  0  0  0
  -31.7929  -14.8405   20.0077 O   0  0  0  0  0  0
  -21.6633   -6.8897   21.4253 O   0  0  0  0  0  0
  -22.3551  -14.5504   20.6569 O   0  0  0  0  0  0
  -24.6358  -31.8531   23.1908 C   0  0  0  0  0  0
  -25.9144  -32.4800   23.8269 C   0  0  1  0  0  0
  -27.2043  -27.2628   20.0459 C   0  0  0  0  0  0
  -25.5843  -33.8582   24.2202 N   0  0  0  0  0  0
  -23.4344  -30.4742   21.5475 C   0  0  2  0  0  0
  -24.8644  -28.9136   20.1070 C   0  0  0  0  0  0
  -22.7502  -29.4644   22.5028 C   0  0  0  0  0  0
  -18.0239  -28.1376   22.8503 C   0  0  0  0  0  0
  -24.1468  -36.7317   23.2650 C   0  0  0  0  0  0
  -25.9815  -30.7571   21.3676 C   0  0  0  0  0  0
  -26.0422  -29.3773   20.7063 C   0  0  0  0  0  0
  -27.2154  -28.5587   20.6583 C   0  0  0  0  0  0
  -26.0041  -26.8664   19.4240 C   0  0  0  0  0  0
  -24.8492  -27.6720   19.4537 C   0  0  0  0  0  0
  -23.6449  -29.8027   20.1642 C   0  0  0  0  0  0
  -25.4091  -36.3126   24.0351 C   0  0  1  0  0  0
  -20.5843  -28.3758   23.1263 C   0  0  2  0  0  0
  -20.6604  -26.9479   22.5377 C   0  0  0  0  0  0
  -19.5633  -26.6692   21.5054 C   0  0  0  0  0  0
  -18.1899  -26.7913   22.1650 C   0  0  0  0  0  0
  -19.1467  -28.8915   23.2897 C   0  0  0  0  0  0
  -18.9320  -30.1477   23.9000 C   0  0  0  0  0  0
  -17.6302  -30.6530   24.0662 C   0  0  0  0  0  0
  -25.9004  -34.9491   23.5110 C   0  0  0  0  0  0
  -16.5255  -29.9012   23.6376 C   0  0  0  0  0  0
  -16.7221  -28.6453   23.0355 C   0  0  0  0  0  0
  -26.4513  -31.6631   25.0663 C   0  0  0  0  0  0
  -25.3745  -31.3687   26.1371 C   0  0  0  0  0  0
  -27.0312  -30.3063   24.6088 C   0  0  0  0  0  0
  -27.6098  -32.4389   25.7397 C   0  0  0  0  0  0
  -27.5579  -37.1802   24.8467 C   0  0  0  0  0  0
  -21.4206  -29.3108   22.3679 N   0  0  0  0  0  0
  -26.4280  -37.3816   23.9421 N   0  0  0  0  0  0
  -24.7078  -31.0450   22.0933 N   0  0  0  0  0  0
  -23.4088  -28.8172   23.3197 O   0  0  0  0  0  0
  -28.3276  -26.4156   20.0840 O   0  0  0  0  0  0
  -26.5654  -34.8951   22.4728 O   0  0  0  0  0  0
  -23.5488  -32.1357   23.7192 O   0  0  0  0  0  0
  -29.6685  -18.5042   20.7944 C   0  0  0  0  0  0
  -28.5058  -19.4107   18.8656 C   0  0  0  0  0  0
  -29.0873  -17.0269   18.9575 C   0  0  0  0  0  0
  -29.1442  -19.6847   20.0933 C   0  0  0  0  0  0
  -29.6541  -17.1473   20.2433 C   0  0  0  0  0  0
  -28.4934  -18.1250   18.3038 C   0  0  0  0  0  0
  -29.0456  -21.1335   20.6989 C   0  0  0  0  0  0
  -25.8316  -23.6767   21.1831 C   0  0  0  0  0  0
  -26.7848  -23.6668   22.3756 C   0  0  0  0  0  0
  -26.6767  -23.1897   20.0207 C   0  0  0  0  0  0
  -28.1684  -24.0008   21.8022 C   0  0  0  0  0  0
  -28.1531  -23.6246   20.2921 C   0  0  0  0  0  0
  -29.5061  -22.3440   18.5704 C   0  0  0  0  0  0
  -28.4262  -25.0343   19.4875 C   0  0  0  0  0  0
  -30.0165  -15.8819   20.9497 N   0  0  0  0  0  0
  -28.9731  -22.3312   19.9442 N   0  0  0  0  0  0
  -28.9537  -21.1627   21.9240 O   0  0  0  0  0  0
  -27.8449  -17.9363   17.1344 F   0  0  0  0  0  0
  -31.4702  -12.5704   19.1523 H   0  0  0  0  0  0
  -30.3721  -11.4798   19.9401 H   0  0  0  0  0  0
  -29.7812  -11.7297   17.5181 H   0  0  0  0  0  0
  -29.6379  -13.4605   17.7067 H   0  0  0  0  0  0
  -27.9101  -11.2860   18.9245 H   0  0  0  0  0  0
  -27.3739  -12.5163   17.8089 H   0  0  0  0  0  0
  -27.6501  -14.2559   19.4755 H   0  0  0  0  0  0
  -28.7319  -12.1616   21.4168 H   0  0  0  0  0  0
  -28.4353  -13.8459   21.8035 H   0  0  0  0  0  0
  -25.2779   -9.5641   22.4813 H   0  0  0  0  0  0
  -23.9954   -7.4625   22.7503 H   0  0  0  0  0  0
  -21.0850   -8.8818   19.8979 H   0  0  0  0  0  0
  -22.3732  -10.9700   19.6190 H   0  0  0  0  0  0
  -21.1973   -7.6137   23.9722 H   0  0  0  0  0  0
  -21.1474   -6.0527   25.9099 H   0  0  0  0  0  0
  -22.0599   -2.7594   23.2882 H   0  0  0  0  0  0
  -22.4022  -11.9913   22.4802 H   0  0  0  0  0  0
  -21.1105  -13.1350   22.2481 H   0  0  0  0  0  0
  -24.6803  -15.8599   20.5724 H   0  0  0  0  0  0
  -26.3119  -15.6320   20.1832 H   0  0  0  0  0  0
  -26.7238  -32.5421   23.1024 H   0  0  0  0  0  0
  -24.9979  -33.9679   25.0350 H   0  0  0  0  0  0
  -22.7286  -31.2968   21.4000 H   0  0  0  0  0  0
  -23.3744  -35.9632   23.3340 H   0  0  0  0  0  0
  -24.3586  -36.8908   22.2054 H   0  0  0  0  0  0
  -23.7140  -37.6503   23.6648 H   0  0  0  0  0  0
  -26.1033  -31.5032   20.5857 H   0  0  0  0  0  0
  -26.8761  -30.8234   21.9791 H   0  0  0  0  0  0
  -28.1385  -28.8994   21.1067 H   0  0  0  0  0  0
  -25.9291  -25.9235   18.9077 H   0  0  0  0  0  0
  -23.9429  -27.3210   18.9782 H   0  0  0  0  0  0
  -23.7845  -30.5751   19.4068 H   0  0  0  0  0  0
  -22.7577  -29.2418   19.8625 H   0  0  0  0  0  0
  -25.1257  -36.2063   25.0846 H   0  0  0  0  0  0
  -20.9935  -28.3258   24.1427 H   0  0  0  0  0  0
  -20.5288  -26.2337   23.3571 H   0  0  0  0  0  0
  -21.6502  -26.7250   22.1359 H   0  0  0  0  0  0
  -19.6794  -25.6774   21.0745 H   0  0  0  0  0  0
  -19.6456  -27.3924   20.6886 H   0  0  0  0  0  0
  -17.4032  -26.6377   21.4194 H   0  0  0  0  0  0
  -18.0700  -26.0057   22.9168 H   0  0  0  0  0  0
  -19.7777  -30.7314   24.2383 H   0  0  0  0  0  0
  -17.4715  -31.6224   24.5199 H   0  0  0  0  0  0
  -15.5236  -30.2927   23.7611 H   0  0  0  0  0  0
  -15.8566  -28.0841   22.7053 H   0  0  0  0  0  0
  -24.5966  -30.7037   25.7628 H   0  0  0  0  0  0
  -24.8869  -32.2773   26.4881 H   0  0  0  0  0  0
  -25.8028  -30.8769   27.0110 H   0  0  0  0  0  0
  -26.2788  -29.6824   24.1255 H   0  0  0  0  0  0
  -27.4160  -29.7332   25.4531 H   0  0  0  0  0  0
  -27.8621  -30.4364   23.9166 H   0  0  0  0  0  0
  -27.2768  -33.3726   26.1948 H   0  0  0  0  0  0
  -28.3852  -32.6927   25.0157 H   0  0  0  0  0  0
  -28.0872  -31.8568   26.5280 H   0  0  0  0  0  0
  -28.2624  -38.0086   24.7546 H   0  0  0  0  0  0
  -28.1053  -36.2612   24.6293 H   0  0  0  0  0  0
  -27.2309  -37.1461   25.8878 H   0  0  0  0  0  0
  -20.9511  -29.8779   21.6761 H   0  0  0  0  0  0
  -26.0214  -38.2918   24.1434 H   0  0  0  0  0  0
  -30.0652  -18.6509   21.7885 H   0  0  0  0  0  0
  -27.9784  -20.1889   18.3340 H   0  0  0  0  0  0
  -29.0236  -16.0665   18.4750 H   0  0  0  0  0  0
  -25.4835  -24.6856   20.9746 H   0  0  0  0  0  0
  -24.9513  -23.0530   21.3445 H   0  0  0  0  0  0
  -26.8123  -22.6831   22.8520 H   0  0  0  0  0  0
  -26.4763  -24.3847   23.1366 H   0  0  0  0  0  0
  -26.2904  -23.5131   19.0554 H   0  0  0  0  0  0
  -26.5887  -22.1017   19.9926 H   0  0  0  0  0  0
  -28.9859  -23.5696   22.3729 H   0  0  0  0  0  0
  -28.3336  -25.0662   21.9449 H   0  0  0  0  0  0
  -30.0779  -21.4571   18.3169 H   0  0  0  0  0  0
  -30.1803  -23.1800   18.3935 H   0  0  0  0  0  0
  -28.7003  -22.4212   17.8442 H   0  0  0  0  0  0
  -27.8993  -25.0079   18.5311 H   0  0  0  0  0  0
  -29.4778  -25.0474   19.2215 H   0  0  0  0  0  0
  -29.6392  -15.7801   21.8844 H   0  0  0  0  0  0
  1 25  1  0  0  0
  1 30  2  0  0  0
  1 85  1  0  0  0
  2  3  1  0  0  0
  2 25  1  0  0  0
  2 89  1  0  0  0
  2 90  1  0  0  0
  3  4  1  0  0  0
  3 91  1  0  0  0
  3 92  1  0  0  0
  4  5  1  0  0  0
  4 93  1  0  0  0
  4 94  1  0  0  0
  5  6  1  0  0  0
  5 26  1  0  0  0
  5 95  1  0  0  0
  6 25  1  0  0  0
  6 96  1  0  0  0
  6 97  1  0  0  0
  7  8  2  0  0  0
  7 26  1  0  0  0
  7 29  1  0  0  0
  8  9  1  0  0  0
  8 22  1  0  0  0
  9 10  1  0  0  0
  9 27  2  0  0  0
 10 11  2  0  0  0
 10 15  1  0  0  0
 11 12  1  0  0  0
 11 98  1  0  0  0
 12 13  2  0  0  0
 12 99  1  0  0  0
 13 14  1  0  0  0
 13 31  1  0  0  0
 14 15  2  0  0  0
 14100  1  0  0  0
 15101  1  0  0  0
 16 17  2  0  0  0
 16 21  1  0  0  0
 16 31  1  0  0  0
 17 18  1  0  0  0
 17102  1  0  0  0
 18 19  2  0  0  0
 18103  1  0  0  0
 19 20  1  0  0  0
 19 24  1  0  0  0
 20 21  2  0  0  0
 20104  1  0  0  0
 21 23  1  0  0  0
 22 28  1  0  0  0
 22 32  2  0  0  0
 26 27  1  0  0  0
 28105  1  0  0  0
 28106  1  0  0  0
 29107  1  0  0  0
 29108  1  0  0  0
 33 34  1  0  0  0
 33 66  1  0  0  0
 33 70  2  0  0  0
 34 36  1  0  0  0
 34 59  1  0  0  0
 34109  1  0  0  0
 35 44  2  0  0  0
 35 45  1  0  0  0
 35 68  1  0  0  0
 36 56  1  0  0  0
 36110  1  0  0  0
 37 39  1  0  0  0
 37 47  1  0  0  0
 37 66  1  0  0  0
 37111  1  0  0  0
 38 43  2  0  0  0
 38 46  1  0  0  0
 38 47  1  0  0  0
 39 64  1  0  0  0
 39 67  2  0  0  0
 40 52  1  0  0  0
 40 53  2  0  0  0
 40 58  1  0  0  0
 41112  1  0  0  0
 41113  1  0  0  0
 41114  1  0  0  0
 41 48  1  0  0  0
 42 43  1  0  0  0
 42 66  1  0  0  0
 42115  1  0  0  0
 42116  1  0  0  0
 43 44  1  0  0  0
 44117  1  0  0  0
 45 46  2  0  0  0
 45118  1  0  0  0
 46119  1  0  0  0
 47120  1  0  0  0
 47121  1  0  0  0
 48 56  1  0  0  0
 48 65  1  0  0  0
 48122  1  0  0  0
 49 50  1  0  0  0
 49 53  1  0  0  0
 49 64  1  0  0  0
 49123  1  0  0  0
 50 51  1  0  0  0
 50124  1  0  0  0
 50125  1  0  0  0
 51 52  1  0  0  0
 51126  1  0  0  0
 51127  1  0  0  0
 52128  1  0  0  0
 52129  1  0  0  0
 53 54  1  0  0  0
 54 55  2  0  0  0
 54130  1  0  0  0
 55 57  1  0  0  0
 55131  1  0  0  0
 56 69  2  0  0  0
 57 58  2  0  0  0
 57132  1  0  0  0
 58133  1  0  0  0
 59 60  1  0  0  0
 59 61  1  0  0  0
 59 62  1  0  0  0
 60134  1  0  0  0
 60135  1  0  0  0
 60136  1  0  0  0
 61137  1  0  0  0
 61138  1  0  0  0
 61139  1  0  0  0
 62140  1  0  0  0
 62141  1  0  0  0
 62142  1  0  0  0
 63 65  1  0  0  0
 63143  1  0  0  0
 63144  1  0  0  0
 63145  1  0  0  0
 64146  1  0  0  0
 65147  1  0  0  0
 68 84  1  0  0  0
 71 74  2  0  0  0
 71 75  1  0  0  0
 71148  1  0  0  0
 72 74  1  0  0  0
 72 76  2  0  0  0
 72149  1  0  0  0
 73 75  2  0  0  0
 73 76  1  0  0  0
 73150  1  0  0  0
 74 77  1  0  0  0
 75 85  1  0  0  0
 76 88  1  0  0  0
 77 86  1  0  0  0
 77 87  2  0  0  0
 78 79  1  0  0  0
 78 80  1  0  0  0
 78151  1  0  0  0
 78152  1  0  0  0
 79 81  1  0  0  0
 79153  1  0  0  0
 79154  1  0  0  0
 80 82  1  0  0  0
 80155  1  0  0  0
 80156  1  0  0  0
 81 82  1  0  0  0
 81157  1  0  0  0
 81158  1  0  0  0
 82 84  1  0  0  0
 82 86  1  0  0  0
 83 86  1  0  0  0
 83159  1  0  0  0
 83160  1  0  0  0
 83161  1  0  0  0
 84162  1  0  0  0
 84163  1  0  0  0
 85164  1  0  0  0
M  ISO  4   1 100  68 101  84 101  85 100
M  END
> <chiral flag>
0

> <version>
0

> <s_m_source_file>
/data/baiqing/PycharmProjects/Reinvent-master-3.2/result/LINK_invent/BTK/process_docking_weight1_custom_product_contain_oxygen_bond_distance_aromatic_linkinvent_7_9_3/rearranged_h_0026.sdf

> <i_m_source_file_index>
88

> <r_mmod_Potential_Energy-OPLS-2005>
418.932373046875

> <r_mmod_Stretch_Energy-OPLS-2005>
158.892868041992

> <r_mmod_Bend_Energy-OPLS-2005>
231.053131103516

> <r_mmod_Torsional_Energy-OPLS-2005>
379.916595458984

> <r_mmod_Improper_Torsional_Energy-OPLS-2005>
5.16648960113525

> <r_mmod_Van_der_Waal_Energy-OPLS-2005>
143.115997314453

> <r_mmod_Electrostatic_Energy-OPLS-2005>
-358.872650146484

> <r_mmod_Solvation_Energy-OPLS-2005>
-221.187530517578

> <b_mmod_Minimization_Converged-OPLS-2005>
0

> <r_mmod_RMS_Derivative-OPLS-2005>
9.50395965576172

$$$$
88
                    3D
 Structure written by MMmdl.
166176  0  0  1  0            999 V2000
  -30.6347  -14.7101   20.4138 C   0  0  0  0  0  0
  -30.4250  -12.4182   19.4555 C   0  0  0  0  0  0
  -29.4890  -12.4140   18.2279 C   0  0  0  0  0  0
  -28.0127  -12.2991   18.6508 C   0  0  0  0  0  0
  -27.6341  -13.2233   19.8380 C   0  0  2  0  0  0
  -28.6876  -13.1874   20.9623 C   0  0  0  0  0  0
  -25.2477  -13.8120   20.5667 C   0  0  0  0  0  0
  -24.1778  -13.0386   20.9207 C   0  0  0  0  0  0
  -24.6371  -11.6875   20.8755 C   0  0  0  0  0  0
  -23.9045  -10.4250   21.0403 C   0  0  0  0  0  0
  -24.3593   -9.4171   21.9196 C   0  0  0  0  0  0
  -23.6268   -8.2209   22.0757 C   0  0  0  0  0  0
  -22.4258   -8.0260   21.3529 C   0  0  0  0  0  0
  -21.9871   -9.0228   20.4637 C   0  0  0  0  0  0
  -22.7199  -10.2109   20.3062 C   0  0  0  0  0  0
  -21.6834   -6.0729   22.5282 C   0  0  0  0  0  0
  -21.3989   -6.5636   23.8213 C   0  0  0  0  0  0
  -21.3668   -5.6803   24.9191 C   0  0  0  0  0  0
  -21.6052   -4.3065   24.7243 C   0  0  0  0  0  0
  -21.8810   -3.8146   23.4362 C   0  0  0  0  0  0
  -21.9177   -4.6957   22.3414 C   0  0  0  0  0  0
  -22.7813  -13.5180   21.1885 C   0  0  0  0  0  0
  -22.1636   -4.2136   21.0993 F   0  0  0  0  0  0
  -21.5638   -3.4556   25.7755 F   0  0  0  0  0  0
  -29.9820  -13.5043   20.3533 N   0  0  0  0  0  0
  -26.2913  -12.9345   20.3295 N   0  0  0  0  0  0
  -25.9300  -11.6498   20.5808 N   0  0  0  0  0  0
  -22.0482  -12.8160   22.0450 N   0  0  0  0  0  0
  -25.4113  -15.1795   20.3916 N   0  0  0  0  0  0
  -31.8566  -14.7652   20.2533 O   0  0  0  0  0  0
  -21.6621   -6.8864   21.4237 O   0  0  0  0  0  0
  -22.3497  -14.5501   20.6756 O   0  0  0  0  0  0
  -24.6221  -31.8581   23.1980 C   0  0  0  0  0  0
  -25.9077  -32.4759   23.8323 C   0  0  1  0  0  0
  -27.2292  -27.3222   20.1279 C   0  0  0  0  0  0
  -25.5911  -33.8570   24.2246 N   0  0  0  0  0  0
  -23.4143  -30.4801   21.5397 C   0  0  2  0  0  0
  -24.8602  -28.9229   20.1145 C   0  0  0  0  0  0
  -22.7440  -29.4619   22.4940 C   0  0  0  0  0  0
  -18.0272  -28.1363   22.8459 C   0  0  0  0  0  0
  -24.1496  -36.7292   23.2644 C   0  0  0  0  0  0
  -25.9493  -30.7946   21.3605 C   0  0  0  0  0  0
  -26.0240  -29.4182   20.7105 C   0  0  0  0  0  0
  -27.2062  -28.6303   20.7009 C   0  0  0  0  0  0
  -26.0343  -26.8556   19.5392 C   0  0  0  0  0  0
  -24.8666  -27.6465   19.5226 C   0  0  0  0  0  0
  -23.6288  -29.8053   20.1573 C   0  0  0  0  0  0
  -25.4116  -36.3065   24.0331 C   0  0  1  0  0  0
  -20.5863  -28.3671   23.1268 C   0  0  2  0  0  0
  -20.6768  -26.9402   22.5391 C   0  0  0  0  0  0
  -19.5771  -26.6369   21.5182 C   0  0  0  0  0  0
  -18.1939  -26.7897   22.1592 C   0  0  0  0  0  0
  -19.1518  -28.8834   23.2858 C   0  0  0  0  0  0
  -18.9474  -30.1441   23.8884 C   0  0  0  0  0  0
  -17.6476  -30.6575   24.0557 C   0  0  0  0  0  0
  -25.9060  -34.9444   23.5074 C   0  0  0  0  0  0
  -16.5363  -29.9079   23.6335 C   0  0  0  0  0  0
  -16.7255  -28.6498   23.0325 C   0  0  0  0  0  0
  -26.4483  -31.6574   25.0693 C   0  0  0  0  0  0
  -25.3715  -31.3702   26.1421 C   0  0  0  0  0  0
  -27.0320  -30.3010   24.6109 C   0  0  0  0  0  0
  -27.6034  -32.4308   25.7453 C   0  0  0  0  0  0
  -27.5570  -37.1792   24.8467 C   0  0  0  0  0  0
  -21.4150  -29.3037   22.3678 N   0  0  0  0  0  0
  -26.4281  -37.3763   23.9414 N   0  0  0  0  0  0
  -24.6810  -31.0628   22.0904 N   0  0  0  0  0  0
  -23.4179  -28.8155   23.2998 O   0  0  0  0  0  0
  -28.4113  -26.5770   20.1824 O   0  0  0  0  0  0
  -26.5632  -34.8909   22.4648 O   0  0  0  0  0  0
  -23.5399  -32.1355   23.7346 O   0  0  0  0  0  0
  -30.1172  -20.9041   20.3923 C   0  0  0  0  0  0
  -28.1234  -18.9786   20.7935 C   0  0  0  0  0  0
  -29.4829  -18.5260   20.8763 C   0  0  0  0  0  0
  -28.7743  -21.3550   20.3089 C   0  0  0  0  0  0
  -30.4650  -19.5470   20.6735 C   0  0  0  0  0  0
  -27.7855  -20.3513   20.5224 C   0  0  0  0  0  0
  -30.3736  -17.2069   18.1632 C   0  0  0  0  0  0
  -30.0146  -15.8376   17.6708 C   0  0  0  0  0  0
  -28.3865  -24.6205   18.4331 C   0  0  0  0  0  0
  -28.7678  -23.1261   18.5438 C   0  0  0  0  0  0
  -28.2391  -23.9091   20.7464 C   0  0  0  0  0  0
  -29.4389  -16.3388   18.9879 C   0  0  0  0  0  0
  -28.6258  -25.1486   19.8514 C   0  0  2  0  0  0
  -26.9696  -18.0032   20.9882 C   0  0  0  0  0  0
  -29.8998  -17.0264   21.2667 C   0  0  0  0  0  0
  -28.4313  -22.6975   19.8997 N   0  0  0  0  0  0
  -29.8773  -15.8713   20.2831 N   0  0  0  0  0  0
  -32.1490  -19.1655   20.7564 Cl  0  0  0  0  0  0
  -26.1160  -20.8128   20.4186 Cl  0  0  0  0  0  0
  -31.4596  -12.5432   19.1341 H   0  0  0  0  0  0
  -30.3794  -11.4602   19.9753 H   0  0  0  0  0  0
  -29.7402  -11.5785   17.5746 H   0  0  0  0  0  0
  -29.6232  -13.3037   17.6233 H   0  0  0  0  0  0
  -27.8394  -11.2577   18.9208 H   0  0  0  0  0  0
  -27.3622  -12.5007   17.7999 H   0  0  0  0  0  0
  -27.6167  -14.2333   19.4314 H   0  0  0  0  0  0
  -28.7215  -12.2109   21.4446 H   0  0  0  0  0  0
  -28.4407  -13.9149   21.7382 H   0  0  0  0  0  0
  -25.2733   -9.5656   22.4778 H   0  0  0  0  0  0
  -23.9959   -7.4607   22.7509 H   0  0  0  0  0  0
  -21.0769   -8.8735   19.8970 H   0  0  0  0  0  0
  -22.3631  -10.9639   19.6181 H   0  0  0  0  0  0
  -21.1960   -7.6146   23.9692 H   0  0  0  0  0  0
  -21.1508   -6.0557   25.9087 H   0  0  0  0  0  0
  -22.0576   -2.7606   23.2883 H   0  0  0  0  0  0
  -22.4083  -11.9779   22.4764 H   0  0  0  0  0  0
  -21.1156  -13.1254   22.2778 H   0  0  0  0  0  0
  -24.6338  -15.8254   20.4712 H   0  0  0  0  0  0
  -26.2503  -15.6044   20.0205 H   0  0  0  0  0  0
  -26.7126  -32.5444   23.1051 H   0  0  0  0  0  0
  -25.0098  -33.9725   25.0415 H   0  0  0  0  0  0
  -22.7059  -31.2980   21.3900 H   0  0  0  0  0  0
  -23.3754  -35.9631   23.3294 H   0  0  0  0  0  0
  -24.3588  -36.8927   22.2065 H   0  0  0  0  0  0
  -23.7254  -37.6493   23.6669 H   0  0  0  0  0  0
  -26.0662  -31.5515   20.5849 H   0  0  0  0  0  0
  -26.8355  -30.8504   21.9811 H   0  0  0  0  0  0
  -28.1028  -29.0128   21.1681 H   0  0  0  0  0  0
  -25.9702  -25.8703   19.1116 H   0  0  0  0  0  0
  -23.9666  -27.2507   19.0723 H   0  0  0  0  0  0
  -23.7452  -30.5736   19.3934 H   0  0  0  0  0  0
  -22.7488  -29.2320   19.8607 H   0  0  0  0  0  0
  -25.1290  -36.1914   25.0824 H   0  0  0  0  0  0
  -20.9956  -28.3244   24.1386 H   0  0  0  0  0  0
  -20.5657  -26.2297   23.3590 H   0  0  0  0  0  0
  -21.6642  -26.7413   22.1209 H   0  0  0  0  0  0
  -19.6960  -25.6280   21.1222 H   0  0  0  0  0  0
  -19.6721  -27.3180   20.6714 H   0  0  0  0  0  0
  -17.4207  -26.6621   21.3992 H   0  0  0  0  0  0
  -18.0356  -26.0018   22.8982 H   0  0  0  0  0  0
  -19.7967  -30.7235   24.2243 H   0  0  0  0  0  0
  -17.5053  -31.6257   24.5157 H   0  0  0  0  0  0
  -15.5379  -30.2988   23.7673 H   0  0  0  0  0  0
  -15.8641  -28.0840   22.7021 H   0  0  0  0  0  0
  -24.5938  -30.6972   25.7770 H   0  0  0  0  0  0
  -24.8853  -32.2869   26.4789 H   0  0  0  0  0  0
  -25.8072  -30.8956   27.0227 H   0  0  0  0  0  0
  -26.2868  -29.6746   24.1180 H   0  0  0  0  0  0
  -27.4101  -29.7267   25.4585 H   0  0  0  0  0  0
  -27.8687  -30.4322   23.9224 H   0  0  0  0  0  0
  -27.2649  -33.3641   26.1966 H   0  0  0  0  0  0
  -28.3871  -32.6819   25.0283 H   0  0  0  0  0  0
  -28.0649  -31.8464   26.5432 H   0  0  0  0  0  0
  -28.2565  -38.0103   24.7508 H   0  0  0  0  0  0
  -28.1076  -36.2634   24.6277 H   0  0  0  0  0  0
  -27.2291  -37.1412   25.8867 H   0  0  0  0  0  0
  -20.9327  -29.8800   21.6930 H   0  0  0  0  0  0
  -26.0162  -38.2832   24.1435 H   0  0  0  0  0  0
  -30.9155  -21.6131   20.2246 H   0  0  0  0  0  0
  -29.9375  -18.0673   17.6595 H   0  0  0  0  0  0
  -31.3957  -17.3446   18.5105 H   0  0  0  0  0  0
  -30.8387  -15.1279   17.6558 H   0  0  0  0  0  0
  -29.3439  -15.7821   16.8154 H   0  0  0  0  0  0
  -27.3452  -24.6988   18.1335 H   0  0  0  0  0  0
  -28.9842  -25.1448   17.6874 H   0  0  0  0  0  0
  -29.8384  -22.9959   18.3732 H   0  0  0  0  0  0
  -28.2371  -22.5293   17.8023 H   0  0  0  0  0  0
  -27.1912  -23.9744   21.0416 H   0  0  0  0  0  0
  -28.8397  -23.8663   21.6548 H   0  0  0  0  0  0
  -28.3852  -16.6040   18.9421 H   0  0  0  0  0  0
  -29.7163  -25.1428   19.9182 H   0  0  0  0  0  0
  -26.3792  -17.9432   20.0727 H   0  0  0  0  0  0
  -26.3100  -18.3436   21.7877 H   0  0  0  0  0  0
  -27.2827  -16.9948   21.2402 H   0  0  0  0  0  0
  -29.2762  -16.7260   22.1069 H   0  0  0  0  0  0
  -30.8968  -17.0463   21.7059 H   0  0  0  0  0  0
  1 25  1  0  0  0
  1 30  2  0  0  0
  1 87  1  0  0  0
  2  3  1  0  0  0
  2 25  1  0  0  0
  2 90  1  0  0  0
  2 91  1  0  0  0
  3  4  1  0  0  0
  3 92  1  0  0  0
  3 93  1  0  0  0
  4  5  1  0  0  0
  4 94  1  0  0  0
  4 95  1  0  0  0
  5  6  1  0  0  0
  5 26  1  0  0  0
  5 96  1  0  0  0
  6 25  1  0  0  0
  6 97  1  0  0  0
  6 98  1  0  0  0
  7  8  2  0  0  0
  7 26  1  0  0  0
  7 29  1  0  0  0
  8  9  1  0  0  0
  8 22  1  0  0  0
  9 10  1  0  0  0
  9 27  2  0  0  0
 10 11  2  0  0  0
 10 15  1  0  0  0
 11 12  1  0  0  0
 11 99  1  0  0  0
 12 13  2  0  0  0
 12100  1  0  0  0
 13 14  1  0  0  0
 13 31  1  0  0  0
 14 15  2  0  0  0
 14101  1  0  0  0
 15102  1  0  0  0
 16 17  2  0  0  0
 16 21  1  0  0  0
 16 31  1  0  0  0
 17 18  1  0  0  0
 17103  1  0  0  0
 18 19  2  0  0  0
 18104  1  0  0  0
 19 20  1  0  0  0
 19 24  1  0  0  0
 20 21  2  0  0  0
 20105  1  0  0  0
 21 23  1  0  0  0
 22 28  1  0  0  0
 22 32  2  0  0  0
 26 27  1  0  0  0
 28106  1  0  0  0
 28107  1  0  0  0
 29108  1  0  0  0
 29109  1  0  0  0
 33 34  1  0  0  0
 33 66  1  0  0  0
 33 70  2  0  0  0
 34 36  1  0  0  0
 34 59  1  0  0  0
 34110  1  0  0  0
 35 44  2  0  0  0
 35 45  1  0  0  0
 35 68  1  0  0  0
 36 56  1  0  0  0
 36111  1  0  0  0
 37 39  1  0  0  0
 37 47  1  0  0  0
 37 66  1  0  0  0
 37112  1  0  0  0
 38 43  2  0  0  0
 38 46  1  0  0  0
 38 47  1  0  0  0
 39 64  1  0  0  0
 39 67  2  0  0  0
 40 52  1  0  0  0
 40 53  2  0  0  0
 40 58  1  0  0  0
 41113  1  0  0  0
 41114  1  0  0  0
 41115  1  0  0  0
 41 48  1  0  0  0
 42 43  1  0  0  0
 42 66  1  0  0  0
 42116  1  0  0  0
 42117  1  0  0  0
 43 44  1  0  0  0
 44118  1  0  0  0
 45 46  2  0  0  0
 45119  1  0  0  0
 46120  1  0  0  0
 47121  1  0  0  0
 47122  1  0  0  0
 48 56  1  0  0  0
 48 65  1  0  0  0
 48123  1  0  0  0
 49 50  1  0  0  0
 49 53  1  0  0  0
 49 64  1  0  0  0
 49124  1  0  0  0
 50 51  1  0  0  0
 50125  1  0  0  0
 50126  1  0  0  0
 51 52  1  0  0  0
 51127  1  0  0  0
 51128  1  0  0  0
 52129  1  0  0  0
 52130  1  0  0  0
 53 54  1  0  0  0
 54 55  2  0  0  0
 54131  1  0  0  0
 55 57  1  0  0  0
 55132  1  0  0  0
 56 69  2  0  0  0
 57 58  2  0  0  0
 57133  1  0  0  0
 58134  1  0  0  0
 59 60  1  0  0  0
 59 61  1  0  0  0
 59 62  1  0  0  0
 60135  1  0  0  0
 60136  1  0  0  0
 60137  1  0  0  0
 61138  1  0  0  0
 61139  1  0  0  0
 61140  1  0  0  0
 62141  1  0  0  0
 62142  1  0  0  0
 62143  1  0  0  0
 63 65  1  0  0  0
 63144  1  0  0  0
 63145  1  0  0  0
 63146  1  0  0  0
 64147  1  0  0  0
 65148  1  0  0  0
 68 83  1  0  0  0
 71 74  2  0  0  0
 71 75  1  0  0  0
 71149  1  0  0  0
 72 73  1  0  0  0
 72 76  2  0  0  0
 72 84  1  0  0  0
 73 75  2  0  0  0
 73 85  1  0  0  0
 74 76  1  0  0  0
 74 86  1  0  0  0
 75 88  1  0  0  0
 76 89  1  0  0  0
 77 78  1  0  0  0
 77 82  1  0  0  0
 77150  1  0  0  0
 77151  1  0  0  0
 78 82  1  0  0  0
 78152  1  0  0  0
 78153  1  0  0  0
 79 80  1  0  0  0
 79 83  1  0  0  0
 79154  1  0  0  0
 79155  1  0  0  0
 80 86  1  0  0  0
 80156  1  0  0  0
 80157  1  0  0  0
 81 83  1  0  0  0
 81 86  1  0  0  0
 81158  1  0  0  0
 81159  1  0  0  0
 82 87  1  0  0  0
 82160  1  0  0  0
 83161  1  0  0  0
 84162  1  0  0  0
 84163  1  0  0  0
 84164  1  0  0  0
 85 87  1  0  0  0
 85165  1  0  0  0
 85166  1  0  0  0
M  ISO  4   1 100  68 101  83 101  87 100
M  END
> <chiral flag>
0

> <version>
0

> <s_m_source_file>
/data/baiqing/PycharmProjects/Reinvent-master-3.2/result/LINK_invent/BTK/process_docking_weight1_custom_product_contain_oxygen_bond_distance_aromatic_linkinvent_7_9_3/rearranged_h_0026.sdf

> <i_m_source_file_index>
89

> <r_mmod_Potential_Energy-OPLS-2005>
552.511047363281

> <r_mmod_Stretch_Energy-OPLS-2005>
92.1663436889648

> <r_mmod_Bend_Energy-OPLS-2005>
240.583618164062

> <r_mmod_Torsional_Energy-OPLS-2005>
454.884399414062

> <r_mmod_Improper_Torsional_Energy-OPLS-2005>
13.4934597015381

> <r_mmod_Van_der_Waal_Energy-OPLS-2005>
128.552185058594

> <r_mmod_Electrostatic_Energy-OPLS-2005>
-249.849731445312

> <r_mmod_Solvation_Energy-OPLS-2005>
-195.951522827148

> <b_mmod_Minimization_Converged-OPLS-2005>
0

> <r_mmod_RMS_Derivative-OPLS-2005>
3.19045329093933

$$$$
89
                    3D
 Structure written by MMmdl.
158167  0  0  1  0            999 V2000
  -30.6408  -14.7260   20.5675 C   0  0  0  0  0  0
  -30.4412  -12.4689   19.4847 C   0  0  0  0  0  0
  -29.5172  -12.5226   18.2452 C   0  0  0  0  0  0
  -28.0412  -12.3368   18.6458 C   0  0  0  0  0  0
  -27.6465  -13.2252   19.8528 C   0  0  2  0  0  0
  -28.6795  -13.1154   20.9895 C   0  0  0  0  0  0
  -25.2534  -13.8195   20.5677 C   0  0  0  0  0  0
  -24.1810  -13.0455   20.9193 C   0  0  0  0  0  0
  -24.6390  -11.6924   20.8722 C   0  0  0  0  0  0
  -23.9071  -10.4299   21.0398 C   0  0  0  0  0  0
  -24.3631   -9.4212   21.9163 C   0  0  0  0  0  0
  -23.6301   -8.2247   22.0735 C   0  0  0  0  0  0
  -22.4274   -8.0295   21.3545 C   0  0  0  0  0  0
  -21.9923   -9.0258   20.4638 C   0  0  0  0  0  0
  -22.7250  -10.2134   20.3044 C   0  0  0  0  0  0
  -21.6844   -6.0756   22.5286 C   0  0  0  0  0  0
  -21.3989   -6.5651   23.8222 C   0  0  0  0  0  0
  -21.3644   -5.6793   24.9174 C   0  0  0  0  0  0
  -21.6046   -4.3058   24.7211 C   0  0  0  0  0  0
  -21.8823   -3.8166   23.4329 C   0  0  0  0  0  0
  -21.9188   -4.6991   22.3394 C   0  0  0  0  0  0
  -22.7835  -13.5230   21.1883 C   0  0  0  0  0  0
  -22.1661   -4.2187   21.0966 F   0  0  0  0  0  0
  -21.5629   -3.4533   25.7718 F   0  0  0  0  0  0
  -29.9937  -13.5075   20.4507 N   0  0  0  0  0  0
  -26.2941  -12.9382   20.3235 N   0  0  0  0  0  0
  -25.9314  -11.6536   20.5714 N   0  0  0  0  0  0
  -22.0492  -12.8196   22.0449 N   0  0  0  0  0  0
  -25.4277  -15.1917   20.4113 N   0  0  0  0  0  0
  -31.7655  -14.8552   20.0709 O   0  0  0  0  0  0
  -21.6634   -6.8898   21.4248 O   0  0  0  0  0  0
  -22.3503  -14.5532   20.6751 O   0  0  0  0  0  0
  -24.6324  -31.8571   23.2050 C   0  0  0  0  0  0
  -25.9153  -32.4779   23.8363 C   0  0  1  0  0  0
  -27.1964  -27.2509   20.1312 C   0  0  0  0  0  0
  -25.5965  -33.8579   24.2290 N   0  0  0  0  0  0
  -23.4284  -30.4885   21.5475 C   0  0  2  0  0  0
  -24.8722  -28.9468   20.1130 C   0  0  0  0  0  0
  -22.7514  -29.4611   22.4888 C   0  0  0  0  0  0
  -18.0292  -28.1396   22.8481 C   0  0  0  0  0  0
  -24.1471  -36.7251   23.2636 C   0  0  0  0  0  0
  -25.9797  -30.7693   21.3895 C   0  0  0  0  0  0
  -26.0482  -29.3946   20.7274 C   0  0  0  0  0  0
  -27.2159  -28.5589   20.7273 C   0  0  0  0  0  0
  -26.0031  -26.9017   19.4639 C   0  0  0  0  0  0
  -24.8533  -27.7064   19.4702 C   0  0  0  0  0  0
  -23.6499  -29.8396   20.1595 C   0  0  0  0  0  0
  -25.4093  -36.3066   24.0339 C   0  0  1  0  0  0
  -20.5909  -28.3687   23.1270 C   0  0  2  0  0  0
  -20.6794  -26.9406   22.5404 C   0  0  0  0  0  0
  -19.5763  -26.6364   21.5227 C   0  0  0  0  0  0
  -18.1932  -26.7944   22.1616 C   0  0  0  0  0  0
  -19.1551  -28.8853   23.2875 C   0  0  0  0  0  0
  -18.9475  -30.1462   23.8891 C   0  0  0  0  0  0
  -17.6474  -30.6600   24.0561 C   0  0  0  0  0  0
  -25.9034  -34.9454   23.5099 C   0  0  0  0  0  0
  -16.5360  -29.9096   23.6346 C   0  0  0  0  0  0
  -16.7273  -28.6519   23.0360 C   0  0  0  0  0  0
  -26.4515  -31.6608   25.0749 C   0  0  0  0  0  0
  -25.3739  -31.3841   26.1490 C   0  0  0  0  0  0
  -27.0321  -30.3004   24.6254 C   0  0  0  0  0  0
  -27.6085  -32.4339   25.7498 C   0  0  0  0  0  0
  -27.5571  -37.1762   24.8464 C   0  0  0  0  0  0
  -21.4215  -29.3044   22.3649 N   0  0  0  0  0  0
  -26.4254  -37.3783   23.9455 N   0  0  0  0  0  0
  -24.6992  -31.0539   22.1039 N   0  0  0  0  0  0
  -23.4226  -28.8102   23.2939 O   0  0  0  0  0  0
  -28.2566  -26.3080   20.1907 O   0  0  0  0  0  0
  -26.5569  -34.8936   22.4647 O   0  0  0  0  0  0
  -23.5469  -32.1382   23.7341 O   0  0  0  0  0  0
  -31.0948  -20.1343   22.4495 C   0  0  0  0  0  0
  -30.8954  -18.8580   21.8929 C   0  0  0  0  0  0
  -30.4096  -21.2663   21.9668 C   0  0  0  0  0  0
  -29.9567  -18.6534   20.8629 C   0  0  0  0  0  0
  -29.4938  -21.2103   20.8843 C   0  0  0  0  0  0
  -29.2807  -19.8499   20.3538 C   0  0  0  0  0  0
  -29.0129  -23.8224   20.8619 C   0  0  0  0  0  0
  -27.3930  -24.0290   19.1676 C   0  0  0  0  0  0
  -27.8327  -22.5621   19.3773 C   0  0  0  0  0  0
  -27.9048  -24.8368   20.3674 C   0  0  2  0  0  0
  -29.7615  -15.9733   22.4928 C   0  0  0  0  0  0
  -29.7695  -17.1711   20.2686 C   0  0  0  0  0  0
  -28.8460  -22.5072   20.4303 N   0  0  0  0  0  0
  -29.9573  -15.8500   21.0407 N   0  0  0  0  0  0
  -29.9307  -24.2320   21.5808 O   0  0  0  0  0  0
  -28.1843  -19.5720   19.0437 Cl  0  0  0  0  0  0
  -31.4776  -12.6065   19.1741 H   0  0  0  0  0  0
  -30.4088  -11.4819   19.9500 H   0  0  0  0  0  0
  -29.8082  -11.7525   17.5296 H   0  0  0  0  0  0
  -29.6388  -13.4796   17.7346 H   0  0  0  0  0  0
  -27.8969  -11.2860   18.8990 H   0  0  0  0  0  0
  -27.3859  -12.5371   17.7974 H   0  0  0  0  0  0
  -27.6555  -14.2558   19.4969 H   0  0  0  0  0  0
  -28.7184  -12.0972   21.3794 H   0  0  0  0  0  0
  -28.3442  -13.7268   21.8181 H   0  0  0  0  0  0
  -25.2778   -9.5683   22.4732 H   0  0  0  0  0  0
  -24.0018   -7.4624   22.7439 H   0  0  0  0  0  0
  -21.0856   -8.8772   19.8925 H   0  0  0  0  0  0
  -22.3714  -10.9672   19.6151 H   0  0  0  0  0  0
  -21.1964   -7.6157   23.9742 H   0  0  0  0  0  0
  -21.1453   -6.0510   25.9081 H   0  0  0  0  0  0
  -22.0613   -2.7635   23.2805 H   0  0  0  0  0  0
  -22.4105  -11.9842   22.4802 H   0  0  0  0  0  0
  -21.1111  -13.1208   22.2680 H   0  0  0  0  0  0
  -24.6739  -15.8575   20.5401 H   0  0  0  0  0  0
  -26.2951  -15.6261   20.1214 H   0  0  0  0  0  0
  -26.7199  -32.5439   23.1081 H   0  0  0  0  0  0
  -25.0236  -33.9724   25.0525 H   0  0  0  0  0  0
  -22.7225  -31.3106   21.4067 H   0  0  0  0  0  0
  -23.3796  -35.9519   23.3233 H   0  0  0  0  0  0
  -24.3578  -36.8930   22.2060 H   0  0  0  0  0  0
  -23.7140  -37.6403   23.6680 H   0  0  0  0  0  0
  -26.1234  -31.5346   20.6261 H   0  0  0  0  0  0
  -26.8567  -30.8136   22.0231 H   0  0  0  0  0  0
  -28.1128  -28.8940   21.2286 H   0  0  0  0  0  0
  -25.9088  -25.9920   18.9086 H   0  0  0  0  0  0
  -23.9572  -27.3626   18.9721 H   0  0  0  0  0  0
  -23.7914  -30.6269   19.4170 H   0  0  0  0  0  0
  -22.7669  -29.2863   19.8350 H   0  0  0  0  0  0
  -25.1266  -36.1877   25.0824 H   0  0  0  0  0  0
  -20.9999  -28.3260   24.1393 H   0  0  0  0  0  0
  -20.5725  -26.2286   23.3601 H   0  0  0  0  0  0
  -21.6645  -26.7442   22.1161 H   0  0  0  0  0  0
  -19.6927  -25.6274   21.1253 H   0  0  0  0  0  0
  -19.6731  -27.3173   20.6763 H   0  0  0  0  0  0
  -17.4206  -26.6706   21.3998 H   0  0  0  0  0  0
  -18.0305  -26.0100   22.9009 H   0  0  0  0  0  0
  -19.7955  -30.7277   24.2250 H   0  0  0  0  0  0
  -17.5033  -31.6284   24.5157 H   0  0  0  0  0  0
  -15.5366  -30.2997   23.7717 H   0  0  0  0  0  0
  -15.8661  -28.0840   22.7093 H   0  0  0  0  0  0
  -24.5812  -30.7309   25.7829 H   0  0  0  0  0  0
  -24.9076  -32.3071   26.4933 H   0  0  0  0  0  0
  -25.8024  -30.8945   27.0246 H   0  0  0  0  0  0
  -26.2882  -29.6762   24.1285 H   0  0  0  0  0  0
  -27.3998  -29.7253   25.4765 H   0  0  0  0  0  0
  -27.8783  -30.4257   23.9508 H   0  0  0  0  0  0
  -27.2729  -33.3708   26.1953 H   0  0  0  0  0  0
  -28.3962  -32.6768   25.0352 H   0  0  0  0  0  0
  -28.0664  -31.8518   26.5504 H   0  0  0  0  0  0
  -28.2552  -38.0097   24.7568 H   0  0  0  0  0  0
  -28.1099  -36.2627   24.6192 H   0  0  0  0  0  0
  -27.2304  -37.1301   25.8871 H   0  0  0  0  0  0
  -20.9362  -29.8801   21.6912 H   0  0  0  0  0  0
  -26.0123  -38.2832   24.1564 H   0  0  0  0  0  0
  -31.7967  -20.2529   23.2635 H   0  0  0  0  0  0
  -31.4831  -18.0345   22.2694 H   0  0  0  0  0  0
  -30.6326  -22.1907   22.4743 H   0  0  0  0  0  0
  -26.3060  -24.0298   19.1015 H   0  0  0  0  0  0
  -27.7883  -24.4285   18.2329 H   0  0  0  0  0  0
  -28.2238  -22.1668   18.4402 H   0  0  0  0  0  0
  -26.9721  -21.9601   19.6724 H   0  0  0  0  0  0
  -27.1422  -24.7964   21.1462 H   0  0  0  0  0  0
  -29.1054  -16.8078   22.7411 H   0  0  0  0  0  0
  -30.7163  -16.1252   22.9957 H   0  0  0  0  0  0
  -29.3288  -15.0942   22.9593 H   0  0  0  0  0  0
  -30.3929  -17.1289   19.3737 H   0  0  0  0  0  0
  -28.7455  -17.1079   19.9003 H   0  0  0  0  0  0
  1 25  1  0  0  0
  1 30  2  0  0  0
  1 84  1  0  0  0
  2  3  1  0  0  0
  2 25  1  0  0  0
  2 87  1  0  0  0
  2 88  1  0  0  0
  3  4  1  0  0  0
  3 89  1  0  0  0
  3 90  1  0  0  0
  4  5  1  0  0  0
  4 91  1  0  0  0
  4 92  1  0  0  0
  5  6  1  0  0  0
  5 26  1  0  0  0
  5 93  1  0  0  0
  6 25  1  0  0  0
  6 94  1  0  0  0
  6 95  1  0  0  0
  7  8  2  0  0  0
  7 26  1  0  0  0
  7 29  1  0  0  0
  8  9  1  0  0  0
  8 22  1  0  0  0
  9 10  1  0  0  0
  9 27  2  0  0  0
 10 11  2  0  0  0
 10 15  1  0  0  0
 11 12  1  0  0  0
 11 96  1  0  0  0
 12 13  2  0  0  0
 12 97  1  0  0  0
 13 14  1  0  0  0
 13 31  1  0  0  0
 14 15  2  0  0  0
 14 98  1  0  0  0
 15 99  1  0  0  0
 16 17  2  0  0  0
 16 21  1  0  0  0
 16 31  1  0  0  0
 17 18  1  0  0  0
 17100  1  0  0  0
 18 19  2  0  0  0
 18101  1  0  0  0
 19 20  1  0  0  0
 19 24  1  0  0  0
 20 21  2  0  0  0
 20102  1  0  0  0
 21 23  1  0  0  0
 22 28  1  0  0  0
 22 32  2  0  0  0
 26 27  1  0  0  0
 28103  1  0  0  0
 28104  1  0  0  0
 29105  1  0  0  0
 29106  1  0  0  0
 33 34  1  0  0  0
 33 66  1  0  0  0
 33 70  2  0  0  0
 34 36  1  0  0  0
 34 59  1  0  0  0
 34107  1  0  0  0
 35 44  2  0  0  0
 35 45  1  0  0  0
 35 68  1  0  0  0
 36 56  1  0  0  0
 36108  1  0  0  0
 37 39  1  0  0  0
 37 47  1  0  0  0
 37 66  1  0  0  0
 37109  1  0  0  0
 38 43  2  0  0  0
 38 46  1  0  0  0
 38 47  1  0  0  0
 39 64  1  0  0  0
 39 67  2  0  0  0
 40 52  1  0  0  0
 40 53  2  0  0  0
 40 58  1  0  0  0
 41110  1  0  0  0
 41111  1  0  0  0
 41112  1  0  0  0
 41 48  1  0  0  0
 42 43  1  0  0  0
 42 66  1  0  0  0
 42113  1  0  0  0
 42114  1  0  0  0
 43 44  1  0  0  0
 44115  1  0  0  0
 45 46  2  0  0  0
 45116  1  0  0  0
 46117  1  0  0  0
 47118  1  0  0  0
 47119  1  0  0  0
 48 56  1  0  0  0
 48 65  1  0  0  0
 48120  1  0  0  0
 49 50  1  0  0  0
 49 53  1  0  0  0
 49 64  1  0  0  0
 49121  1  0  0  0
 50 51  1  0  0  0
 50122  1  0  0  0
 50123  1  0  0  0
 51 52  1  0  0  0
 51124  1  0  0  0
 51125  1  0  0  0
 52126  1  0  0  0
 52127  1  0  0  0
 53 54  1  0  0  0
 54 55  2  0  0  0
 54128  1  0  0  0
 55 57  1  0  0  0
 55129  1  0  0  0
 56 69  2  0  0  0
 57 58  2  0  0  0
 57130  1  0  0  0
 58131  1  0  0  0
 59 60  1  0  0  0
 59 61  1  0  0  0
 59 62  1  0  0  0
 60132  1  0  0  0
 60133  1  0  0  0
 60134  1  0  0  0
 61135  1  0  0  0
 61136  1  0  0  0
 61137  1  0  0  0
 62138  1  0  0  0
 62139  1  0  0  0
 62140  1  0  0  0
 63 65  1  0  0  0
 63141  1  0  0  0
 63142  1  0  0  0
 63143  1  0  0  0
 64144  1  0  0  0
 65145  1  0  0  0
 68 80  1  0  0  0
 71 72  2  0  0  0
 71 73  1  0  0  0
 71146  1  0  0  0
 72 74  1  0  0  0
 72147  1  0  0  0
 73 75  2  0  0  0
 73148  1  0  0  0
 74 76  2  0  0  0
 74 82  1  0  0  0
 75 76  1  0  0  0
 75 83  1  0  0  0
 76 86  1  0  0  0
 77 80  1  0  0  0
 77 83  1  0  0  0
 77 85  2  0  0  0
 78 79  1  0  0  0
 78 80  1  0  0  0
 78149  1  0  0  0
 78150  1  0  0  0
 79 83  1  0  0  0
 79151  1  0  0  0
 79152  1  0  0  0
 80153  1  0  0  0
 81 84  1  0  0  0
 81154  1  0  0  0
 81155  1  0  0  0
 81156  1  0  0  0
 82 84  1  0  0  0
 82157  1  0  0  0
 82158  1  0  0  0
M  ISO  4   1 100  68 101  80 101  84 100
M  END
> <chiral flag>
0

> <version>
0

> <s_m_source_file>
/data/baiqing/PycharmProjects/Reinvent-master-3.2/result/LINK_invent/BTK/process_docking_weight1_custom_product_contain_oxygen_bond_distance_aromatic_linkinvent_7_9_3/rearranged_h_0026.sdf

> <i_m_source_file_index>
90

> <r_mmod_Potential_Energy-OPLS-2005>
452.820983886719

> <r_mmod_Stretch_Energy-OPLS-2005>
150.358169555664

> <r_mmod_Bend_Energy-OPLS-2005>
213.838760375977

> <r_mmod_Torsional_Energy-OPLS-2005>
318.636657714844

> <r_mmod_Improper_Torsional_Energy-OPLS-2005>
5.62250709533691

> <r_mmod_Van_der_Waal_Energy-OPLS-2005>
160.147750854492

> <r_mmod_Electrostatic_Energy-OPLS-2005>
-271.798156738281

> <r_mmod_Solvation_Energy-OPLS-2005>
-209.53141784668

> <b_mmod_Minimization_Converged-OPLS-2005>
0

> <r_mmod_RMS_Derivative-OPLS-2005>
2.77065706253052

$$$$
90
                    3D
 Structure written by MMmdl.
155164  0  0  1  0            999 V2000
  -30.6831  -14.6431   20.6444 C   0  0  0  0  0  0
  -30.4546  -12.4323   19.4844 C   0  0  0  0  0  0
  -29.5366  -12.5430   18.2430 C   0  0  0  0  0  0
  -28.0544  -12.3577   18.6293 C   0  0  0  0  0  0
  -27.6616  -13.2135   19.8580 C   0  0  2  0  0  0
  -28.6897  -13.0434   20.9922 C   0  0  0  0  0  0
  -25.2576  -13.8178   20.5610 C   0  0  0  0  0  0
  -24.1833  -13.0485   20.9139 C   0  0  0  0  0  0
  -24.6365  -11.6932   20.8667 C   0  0  0  0  0  0
  -23.9024  -10.4326   21.0355 C   0  0  0  0  0  0
  -24.3571   -9.4248   21.9150 C   0  0  0  0  0  0
  -23.6250   -8.2278   22.0753 C   0  0  0  0  0  0
  -22.4236   -8.0292   21.3545 C   0  0  0  0  0  0
  -21.9846   -9.0255   20.4649 C   0  0  0  0  0  0
  -22.7167  -10.2141   20.3037 C   0  0  0  0  0  0
  -21.6844   -6.0748   22.5270 C   0  0  0  0  0  0
  -21.4023   -6.5641   23.8212 C   0  0  0  0  0  0
  -21.3649   -5.6775   24.9166 C   0  0  0  0  0  0
  -21.6025   -4.3039   24.7193 C   0  0  0  0  0  0
  -21.8817   -3.8149   23.4306 C   0  0  0  0  0  0
  -21.9183   -4.6980   22.3378 C   0  0  0  0  0  0
  -22.7871  -13.5303   21.1867 C   0  0  0  0  0  0
  -22.1649   -4.2174   21.0957 F   0  0  0  0  0  0
  -21.5605   -3.4502   25.7698 F   0  0  0  0  0  0
  -30.0255  -13.4318   20.4997 N   0  0  0  0  0  0
  -26.3003  -12.9347   20.3176 N   0  0  0  0  0  0
  -25.9296  -11.6509   20.5641 N   0  0  0  0  0  0
  -22.0506  -12.8307   22.0427 N   0  0  0  0  0  0
  -25.4310  -15.1916   20.4082 N   0  0  0  0  0  0
  -31.7556  -14.8431   20.0648 O   0  0  0  0  0  0
  -21.6618   -6.8885   21.4233 O   0  0  0  0  0  0
  -22.3568  -14.5624   20.6741 O   0  0  0  0  0  0
  -24.6235  -31.8586   23.1994 C   0  0  0  0  0  0
  -25.9114  -32.4768   23.8302 C   0  0  1  0  0  0
  -27.2543  -27.3165   20.1454 C   0  0  0  0  0  0
  -25.5958  -33.8558   24.2248 N   0  0  0  0  0  0
  -23.4222  -30.4766   21.5374 C   0  0  2  0  0  0
  -24.8777  -28.9230   20.1149 C   0  0  0  0  0  0
  -22.7450  -29.4629   22.4897 C   0  0  0  0  0  0
  -18.0267  -28.1357   22.8437 C   0  0  0  0  0  0
  -24.1500  -36.7268   23.2618 C   0  0  0  0  0  0
  -25.9583  -30.7852   21.3761 C   0  0  0  0  0  0
  -26.0405  -29.4108   20.7239 C   0  0  0  0  0  0
  -27.2239  -28.6201   20.7250 C   0  0  0  0  0  0
  -26.0709  -26.8795   19.4993 C   0  0  0  0  0  0
  -24.8961  -27.6634   19.4926 C   0  0  0  0  0  0
  -23.6423  -29.7998   20.1558 C   0  0  0  0  0  0
  -25.4131  -36.3043   24.0279 C   0  0  1  0  0  0
  -20.5846  -28.3730   23.1258 C   0  0  2  0  0  0
  -20.6765  -26.9421   22.5506 C   0  0  0  0  0  0
  -19.5803  -26.6281   21.5273 C   0  0  0  0  0  0
  -18.1971  -26.7879   22.1618 C   0  0  0  0  0  0
  -19.1491  -28.8885   23.2814 C   0  0  0  0  0  0
  -18.9399  -30.1480   23.8829 C   0  0  0  0  0  0
  -17.6404  -30.6596   24.0499 C   0  0  0  0  0  0
  -25.9063  -34.9433   23.5061 C   0  0  0  0  0  0
  -16.5324  -29.9071   23.6269 C   0  0  0  0  0  0
  -16.7246  -28.6471   23.0310 C   0  0  0  0  0  0
  -26.4504  -31.6590   25.0667 C   0  0  0  0  0  0
  -25.3721  -31.3804   26.1381 C   0  0  0  0  0  0
  -27.0364  -30.3004   24.6178 C   0  0  0  0  0  0
  -27.6064  -32.4340   25.7454 C   0  0  0  0  0  0
  -27.5582  -37.1788   24.8448 C   0  0  0  0  0  0
  -21.4167  -29.3058   22.3635 N   0  0  0  0  0  0
  -26.4303  -37.3750   23.9374 N   0  0  0  0  0  0
  -24.6857  -31.0553   22.0953 N   0  0  0  0  0  0
  -23.4150  -28.8173   23.3005 O   0  0  0  0  0  0
  -28.4155  -26.5289   20.2503 O   0  0  0  0  0  0
  -26.5609  -34.8919   22.4607 O   0  0  0  0  0  0
  -23.5409  -32.1406   23.7323 O   0  0  0  0  0  0
  -30.7782  -18.1338   20.2784 C   0  0  0  0  0  0
  -30.5971  -19.5517   20.3665 C   0  0  0  0  0  0
  -29.2038  -19.2448   22.3040 C   0  0  0  0  0  0
  -29.5203  -15.6131   22.6436 C   0  0  0  0  0  0
  -29.4071  -17.8308   22.2746 C   0  0  0  0  0  0
  -30.1920  -17.2447   21.2238 C   0  0  0  0  0  0
  -29.7958  -20.1438   21.3799 C   0  0  0  0  0  0
  -28.9955  -16.7725   23.1414 C   0  0  0  0  0  0
  -28.9776  -24.0310   20.9975 C   0  0  0  0  0  0
  -29.4049  -22.5726   20.4976 C   0  0  0  0  0  0
  -28.4950  -25.0883   19.9048 C   0  0  0  0  0  0
  -30.1466  -15.8182   21.4094 N   0  0  0  0  0  0
  -29.6225  -21.5533   21.5681 N   0  0  0  0  0  0
  -28.2543  -16.8858   24.2850 O   0  0  0  0  0  0
  -31.4999  -12.5512   19.1941 H   0  0  0  0  0  0
  -30.3951  -11.4278   19.9037 H   0  0  0  0  0  0
  -29.8300  -11.7995   17.4992 H   0  0  0  0  0  0
  -29.6744  -13.5150   17.7640 H   0  0  0  0  0  0
  -27.8906  -11.3026   18.8530 H   0  0  0  0  0  0
  -27.4172  -12.5967   17.7776 H   0  0  0  0  0  0
  -27.6959  -14.2531   19.5334 H   0  0  0  0  0  0
  -28.7251  -12.0019   21.3156 H   0  0  0  0  0  0
  -28.3274  -13.5892   21.8500 H   0  0  0  0  0  0
  -25.2726   -9.5711   22.4697 H   0  0  0  0  0  0
  -23.9959   -7.4665   22.7460 H   0  0  0  0  0  0
  -21.0785   -8.8752   19.8945 H   0  0  0  0  0  0
  -22.3619  -10.9657   19.6114 H   0  0  0  0  0  0
  -21.2059   -7.6152   23.9721 H   0  0  0  0  0  0
  -21.1456   -6.0506   25.9065 H   0  0  0  0  0  0
  -22.0612   -2.7614   23.2795 H   0  0  0  0  0  0
  -22.4121  -11.9935   22.4753 H   0  0  0  0  0  0
  -21.1125  -13.1314   22.2683 H   0  0  0  0  0  0
  -24.6772  -15.8553   20.5551 H   0  0  0  0  0  0
  -26.2881  -15.6276   20.0927 H   0  0  0  0  0  0
  -26.7151  -32.5436   23.1021 H   0  0  0  0  0  0
  -25.0217  -33.9729   25.0466 H   0  0  0  0  0  0
  -22.7155  -31.2943   21.3802 H   0  0  0  0  0  0
  -23.3764  -35.9599   23.3306 H   0  0  0  0  0  0
  -24.3570  -36.8888   22.2026 H   0  0  0  0  0  0
  -23.7292  -37.6470   23.6649 H   0  0  0  0  0  0
  -26.0939  -31.5531   20.6127 H   0  0  0  0  0  0
  -26.8351  -30.8331   22.0108 H   0  0  0  0  0  0
  -28.1170  -28.9951   21.2080 H   0  0  0  0  0  0
  -26.0150  -25.9284   18.9993 H   0  0  0  0  0  0
  -24.0069  -27.2875   19.0051 H   0  0  0  0  0  0
  -23.7729  -30.5683   19.3933 H   0  0  0  0  0  0
  -22.7692  -29.2242   19.8485 H   0  0  0  0  0  0
  -25.1342  -36.1872   25.0771 H   0  0  0  0  0  0
  -20.9910  -28.3410   24.1395 H   0  0  0  0  0  0
  -20.5582  -26.2431   23.3834 H   0  0  0  0  0  0
  -21.6660  -26.7434   22.1358 H   0  0  0  0  0  0
  -19.7032  -25.6150   21.1465 H   0  0  0  0  0  0
  -19.6849  -27.2986   20.6699 H   0  0  0  0  0  0
  -17.4236  -26.6513   21.4052 H   0  0  0  0  0  0
  -18.0412  -26.0047   22.9062 H   0  0  0  0  0  0
  -19.7891  -30.7316   24.2189 H   0  0  0  0  0  0
  -17.4943  -31.6266   24.5084 H   0  0  0  0  0  0
  -15.5302  -30.2959   23.7567 H   0  0  0  0  0  0
  -15.8619  -28.0773   22.7057 H   0  0  0  0  0  0
  -24.5853  -30.7217   25.7712 H   0  0  0  0  0  0
  -24.8968  -32.3029   26.4741 H   0  0  0  0  0  0
  -25.8012  -30.9005   27.0200 H   0  0  0  0  0  0
  -26.2972  -29.6718   24.1205 H   0  0  0  0  0  0
  -27.4054  -29.7295   25.4712 H   0  0  0  0  0  0
  -27.8841  -30.4245   23.9432 H   0  0  0  0  0  0
  -27.2641  -33.3622   26.2054 H   0  0  0  0  0  0
  -28.3872  -32.6968   25.0298 H   0  0  0  0  0  0
  -28.0725  -31.8459   26.5363 H   0  0  0  0  0  0
  -28.2598  -38.0085   24.7479 H   0  0  0  0  0  0
  -28.1099  -36.2624   24.6322 H   0  0  0  0  0  0
  -27.2276  -37.1466   25.8843 H   0  0  0  0  0  0
  -20.9365  -29.8774   21.6826 H   0  0  0  0  0  0
  -26.0178  -38.2808   24.1445 H   0  0  0  0  0  0
  -31.3963  -17.7276   19.4900 H   0  0  0  0  0  0
  -31.1134  -20.1935   19.6652 H   0  0  0  0  0  0
  -28.5773  -19.6407   23.0904 H   0  0  0  0  0  0
  -29.4896  -14.6367   23.1057 H   0  0  0  0  0  0
  -29.8122  -24.4602   21.5528 H   0  0  0  0  0  0
  -28.1760  -23.9172   21.7284 H   0  0  0  0  0  0
  -30.3232  -22.6542   19.9135 H   0  0  0  0  0  0
  -28.6384  -22.1935   19.8219 H   0  0  0  0  0  0
  -27.5700  -24.7034   19.4895 H   0  0  0  0  0  0
  -29.2066  -25.0403   19.0783 H   0  0  0  0  0  0
  -29.3712  -21.8619   22.5060 H   0  0  0  0  0  0
  -27.9890  -17.7971   24.3723 H   0  0  0  0  0  0
  1 25  1  0  0  0
  1 30  2  0  0  0
  1 82  1  0  0  0
  2  3  1  0  0  0
  2 25  1  0  0  0
  2 85  1  0  0  0
  2 86  1  0  0  0
  3  4  1  0  0  0
  3 87  1  0  0  0
  3 88  1  0  0  0
  4  5  1  0  0  0
  4 89  1  0  0  0
  4 90  1  0  0  0
  5  6  1  0  0  0
  5 26  1  0  0  0
  5 91  1  0  0  0
  6 25  1  0  0  0
  6 92  1  0  0  0
  6 93  1  0  0  0
  7  8  2  0  0  0
  7 26  1  0  0  0
  7 29  1  0  0  0
  8  9  1  0  0  0
  8 22  1  0  0  0
  9 10  1  0  0  0
  9 27  2  0  0  0
 10 11  2  0  0  0
 10 15  1  0  0  0
 11 12  1  0  0  0
 11 94  1  0  0  0
 12 13  2  0  0  0
 12 95  1  0  0  0
 13 14  1  0  0  0
 13 31  1  0  0  0
 14 15  2  0  0  0
 14 96  1  0  0  0
 15 97  1  0  0  0
 16 17  2  0  0  0
 16 21  1  0  0  0
 16 31  1  0  0  0
 17 18  1  0  0  0
 17 98  1  0  0  0
 18 19  2  0  0  0
 18 99  1  0  0  0
 19 20  1  0  0  0
 19 24  1  0  0  0
 20 21  2  0  0  0
 20100  1  0  0  0
 21 23  1  0  0  0
 22 28  1  0  0  0
 22 32  2  0  0  0
 26 27  1  0  0  0
 28101  1  0  0  0
 28102  1  0  0  0
 29103  1  0  0  0
 29104  1  0  0  0
 33 34  1  0  0  0
 33 66  1  0  0  0
 33 70  2  0  0  0
 34 36  1  0  0  0
 34 59  1  0  0  0
 34105  1  0  0  0
 35 44  2  0  0  0
 35 45  1  0  0  0
 35 68  1  0  0  0
 36 56  1  0  0  0
 36106  1  0  0  0
 37 39  1  0  0  0
 37 47  1  0  0  0
 37 66  1  0  0  0
 37107  1  0  0  0
 38 43  2  0  0  0
 38 46  1  0  0  0
 38 47  1  0  0  0
 39 64  1  0  0  0
 39 67  2  0  0  0
 40 52  1  0  0  0
 40 53  2  0  0  0
 40 58  1  0  0  0
 41108  1  0  0  0
 41109  1  0  0  0
 41110  1  0  0  0
 41 48  1  0  0  0
 42 43  1  0  0  0
 42 66  1  0  0  0
 42111  1  0  0  0
 42112  1  0  0  0
 43 44  1  0  0  0
 44113  1  0  0  0
 45 46  2  0  0  0
 45114  1  0  0  0
 46115  1  0  0  0
 47116  1  0  0  0
 47117  1  0  0  0
 48 56  1  0  0  0
 48 65  1  0  0  0
 48118  1  0  0  0
 49 50  1  0  0  0
 49 53  1  0  0  0
 49 64  1  0  0  0
 49119  1  0  0  0
 50 51  1  0  0  0
 50120  1  0  0  0
 50121  1  0  0  0
 51 52  1  0  0  0
 51122  1  0  0  0
 51123  1  0  0  0
 52124  1  0  0  0
 52125  1  0  0  0
 53 54  1  0  0  0
 54 55  2  0  0  0
 54126  1  0  0  0
 55 57  1  0  0  0
 55127  1  0  0  0
 56 69  2  0  0  0
 57 58  2  0  0  0
 57128  1  0  0  0
 58129  1  0  0  0
 59 60  1  0  0  0
 59 61  1  0  0  0
 59 62  1  0  0  0
 60130  1  0  0  0
 60131  1  0  0  0
 60132  1  0  0  0
 61133  1  0  0  0
 61134  1  0  0  0
 61135  1  0  0  0
 62136  1  0  0  0
 62137  1  0  0  0
 62138  1  0  0  0
 63 65  1  0  0  0
 63139  1  0  0  0
 63140  1  0  0  0
 63141  1  0  0  0
 64142  1  0  0  0
 65143  1  0  0  0
 68 81  1  0  0  0
 71 72  2  0  0  0
 71 76  1  0  0  0
 71144  1  0  0  0
 72 77  1  0  0  0
 72145  1  0  0  0
 73 75  1  0  0  0
 73 77  2  0  0  0
 73146  1  0  0  0
 74 78  2  0  0  0
 74 82  1  0  0  0
 74147  1  0  0  0
 75 76  2  0  0  0
 75 78  1  0  0  0
 76 82  1  0  0  0
 77 83  1  0  0  0
 78 84  1  0  0  0
 79 80  1  0  0  0
 79 81  1  0  0  0
 79148  1  0  0  0
 79149  1  0  0  0
 80 83  1  0  0  0
 80150  1  0  0  0
 80151  1  0  0  0
 81152  1  0  0  0
 81153  1  0  0  0
 83154  1  0  0  0
 84155  1  0  0  0
M  ISO  4   1 100  68 101  81 101  82 100
M  END
> <chiral flag>
0

> <version>
0

> <s_m_source_file>
/data/baiqing/PycharmProjects/Reinvent-master-3.2/result/LINK_invent/BTK/process_docking_weight1_custom_product_contain_oxygen_bond_distance_aromatic_linkinvent_7_9_3/rearranged_h_0026.sdf

> <i_m_source_file_index>
91

> <r_mmod_Potential_Energy-OPLS-2005>
47.2888870239258

> <r_mmod_Stretch_Energy-OPLS-2005>
89.205192565918

> <r_mmod_Bend_Energy-OPLS-2005>
165.553924560547

> <r_mmod_Torsional_Energy-OPLS-2005>
188.316436767578

> <r_mmod_Improper_Torsional_Energy-OPLS-2005>
3.49753999710083

> <r_mmod_Van_der_Waal_Energy-OPLS-2005>
136.791107177734

> <r_mmod_Electrostatic_Energy-OPLS-2005>
-351.225158691406

> <r_mmod_Solvation_Energy-OPLS-2005>
-234.319305419922

> <b_mmod_Minimization_Converged-OPLS-2005>
0

> <r_mmod_RMS_Derivative-OPLS-2005>
5.60999441146851

$$$$
91
                    3D
 Structure written by MMmdl.
166176  0  0  1  0            999 V2000
  -30.5651  -15.0010   20.4252 C   0  0  0  0  0  0
  -30.4390  -12.6208   19.5332 C   0  0  0  0  0  0
  -29.5421  -12.5584   18.2783 C   0  0  0  0  0  0
  -28.0756  -12.3309   18.6862 C   0  0  0  0  0  0
  -27.6352  -13.2658   19.8441 C   0  0  2  0  0  0
  -28.6721  -13.3224   20.9891 C   0  0  0  0  0  0
  -25.2482  -13.8240   20.5733 C   0  0  0  0  0  0
  -24.1802  -13.0442   20.9222 C   0  0  0  0  0  0
  -24.6454  -11.6935   20.8731 C   0  0  0  0  0  0
  -23.9128  -10.4293   21.0390 C   0  0  0  0  0  0
  -24.3650   -9.4203   21.9183 C   0  0  0  0  0  0
  -23.6312   -8.2243   22.0757 C   0  0  0  0  0  0
  -22.4273   -8.0322   21.3578 C   0  0  0  0  0  0
  -21.9921   -9.0305   20.4659 C   0  0  0  0  0  0
  -22.7279  -10.2164   20.3050 C   0  0  0  0  0  0
  -21.6860   -6.0743   22.5282 C   0  0  0  0  0  0
  -21.4059   -6.5653   23.8225 C   0  0  0  0  0  0
  -21.3645   -5.6799   24.9180 C   0  0  0  0  0  0
  -21.6007   -4.3045   24.7228 C   0  0  0  0  0  0
  -21.8824   -3.8158   23.4356 C   0  0  0  0  0  0
  -21.9196   -4.6980   22.3405 C   0  0  0  0  0  0
  -22.7808  -13.5213   21.1832 C   0  0  0  0  0  0
  -22.1649   -4.2153   21.0976 F   0  0  0  0  0  0
  -21.5595   -3.4523   25.7737 F   0  0  0  0  0  0
  -29.9476  -13.7417   20.3950 N   0  0  0  0  0  0
  -26.2935  -12.9514   20.3268 N   0  0  0  0  0  0
  -25.9385  -11.6615   20.5689 N   0  0  0  0  0  0
  -22.0385  -12.8286   22.0378 N   0  0  0  0  0  0
  -25.4085  -15.1981   20.4168 N   0  0  0  0  0  0
  -31.7604  -15.0057   20.1227 O   0  0  0  0  0  0
  -21.6652   -6.8907   21.4251 O   0  0  0  0  0  0
  -22.3476  -14.5482   20.6626 O   0  0  0  0  0  0
  -24.6454  -31.8401   23.1798 C   0  0  0  0  0  0
  -25.9199  -32.4688   23.8238 C   0  0  1  0  0  0
  -27.2133  -27.0784   20.1971 C   0  0  0  0  0  0
  -25.5904  -33.8480   24.2145 N   0  0  0  0  0  0
  -23.4541  -30.4524   21.5288 C   0  0  2  0  0  0
  -24.9057  -28.8569   20.1220 C   0  0  0  0  0  0
  -22.7578  -29.4496   22.4860 C   0  0  0  0  0  0
  -18.0318  -28.1403   22.8475 C   0  0  0  0  0  0
  -24.1505  -36.7280   23.2648 C   0  0  0  0  0  0
  -26.0121  -30.6933   21.3901 C   0  0  0  0  0  0
  -26.0830  -29.2965   20.7423 C   0  0  0  0  0  0
  -27.2413  -28.4255   20.7535 C   0  0  0  0  0  0
  -26.0121  -26.7431   19.5426 C   0  0  0  0  0  0
  -24.8852  -27.5979   19.5050 C   0  0  0  0  0  0
  -23.6846  -29.7674   20.1537 C   0  0  0  0  0  0
  -25.4149  -36.3029   24.0294 C   0  0  1  0  0  0
  -20.5931  -28.3729   23.1236 C   0  0  2  0  0  0
  -20.6771  -26.9425   22.5404 C   0  0  0  0  0  0
  -19.5750  -26.6369   21.5212 C   0  0  0  0  0  0
  -18.1942  -26.7927   22.1623 C   0  0  0  0  0  0
  -19.1580  -28.8884   23.2841 C   0  0  0  0  0  0
  -18.9480  -30.1476   23.8872 C   0  0  0  0  0  0
  -17.6468  -30.6598   24.0565 C   0  0  0  0  0  0
  -25.9083  -34.9408   23.5060 C   0  0  0  0  0  0
  -16.5369  -29.9084   23.6350 C   0  0  0  0  0  0
  -16.7294  -28.6495   23.0369 C   0  0  0  0  0  0
  -26.4474  -31.6598   25.0734 C   0  0  0  0  0  0
  -25.3624  -31.3811   26.1431 C   0  0  0  0  0  0
  -27.0356  -30.2990   24.6344 C   0  0  0  0  0  0
  -27.6023  -32.4372   25.7483 C   0  0  0  0  0  0
  -27.5588  -37.1778   24.8448 C   0  0  0  0  0  0
  -21.4270  -29.3042   22.3586 N   0  0  0  0  0  0
  -26.4287  -37.3759   23.9393 N   0  0  0  0  0  0
  -24.7240  -31.0188   22.0880 N   0  0  0  0  0  0
  -23.4193  -28.8075   23.3063 O   0  0  0  0  0  0
  -28.2779  -26.0955   20.1818 O   0  0  0  0  0  0
  -26.5705  -34.8902   22.4657 O   0  0  0  0  0  0
  -23.5546  -32.1316   23.6961 O   0  0  0  0  0  0
  -32.3524  -18.7604   20.8217 C   0  0  0  0  0  0
  -31.5191  -17.9647   19.9983 C   0  0  0  0  0  0
  -31.8322  -19.2321   22.0500 C   0  0  0  0  0  0
  -29.6304  -18.9579   21.1246 C   0  0  0  0  0  0
  -30.1895  -17.7347   20.4362 C   0  0  0  0  0  0
  -30.4350  -19.1736   22.2652 C   0  0  0  0  0  0
  -29.3242  -23.5078   22.8640 C   0  0  0  0  0  0
  -26.7887  -20.3220   20.8441 C   0  0  0  0  0  0
  -29.1368  -24.7827   22.0163 C   0  0  0  0  0  0
  -29.8432  -22.2790   22.0787 C   0  0  0  0  0  0
  -27.4587  -21.3584   21.7587 C   0  0  0  0  0  0
  -28.5544  -23.1033   20.1342 C   0  0  0  0  0  0
  -27.8753  -19.9136   19.8374 C   0  0  0  0  0  0
  -28.1966  -24.6452   20.7983 C   0  0  2  0  0  0
  -28.8006  -21.6971   21.0822 C   0  0  1  0  0  0
  -29.1366  -20.2480   20.4848 N   0  0  0  0  0  0
  -29.8371  -16.2295   20.6292 N   0  0  0  0  0  0
  -29.7538  -19.3421   23.8508 Cl  0  0  0  0  0  0
  -31.4782  -12.7494   19.2364 H   0  0  0  0  0  0
  -30.4114  -11.6768   20.0787 H   0  0  0  0  0  0
  -29.8827  -11.7644   17.6113 H   0  0  0  0  0  0
  -29.6339  -13.4904   17.7162 H   0  0  0  0  0  0
  -27.9885  -11.2926   19.0073 H   0  0  0  0  0  0
  -27.4223  -12.4441   17.8210 H   0  0  0  0  0  0
  -27.5908  -14.2643   19.4083 H   0  0  0  0  0  0
  -28.7718  -12.3606   21.4960 H   0  0  0  0  0  0
  -28.3562  -14.0374   21.7485 H   0  0  0  0  0  0
  -25.2782   -9.5671   22.4766 H   0  0  0  0  0  0
  -24.0004   -7.4626   22.7495 H   0  0  0  0  0  0
  -21.0835   -8.8871   19.8969 H   0  0  0  0  0  0
  -22.3768  -10.9731   19.6160 H   0  0  0  0  0  0
  -21.2104   -7.6168   23.9748 H   0  0  0  0  0  0
  -21.1421   -6.0510   25.9083 H   0  0  0  0  0  0
  -22.0605   -2.7617   23.2841 H   0  0  0  0  0  0
  -22.4010  -12.0063   22.4986 H   0  0  0  0  0  0
  -21.0974  -13.1368   22.2427 H   0  0  0  0  0  0
  -24.6321  -15.8433   20.5181 H   0  0  0  0  0  0
  -26.2440  -15.6396   20.0561 H   0  0  0  0  0  0
  -26.7262  -32.5252   23.0967 H   0  0  0  0  0  0
  -24.9883  -33.9586   25.0155 H   0  0  0  0  0  0
  -22.7601  -31.2778   21.3630 H   0  0  0  0  0  0
  -23.3747  -35.9627   23.3308 H   0  0  0  0  0  0
  -24.3572  -36.8935   22.2060 H   0  0  0  0  0  0
  -23.7270  -37.6462   23.6721 H   0  0  0  0  0  0
  -26.1703  -31.4353   20.6066 H   0  0  0  0  0  0
  -26.8779  -30.7499   22.0363 H   0  0  0  0  0  0
  -28.1450  -28.7593   21.2439 H   0  0  0  0  0  0
  -25.9270  -25.7714   19.0750 H   0  0  0  0  0  0
  -23.9836  -27.2558   19.0185 H   0  0  0  0  0  0
  -23.8226  -30.5310   19.3884 H   0  0  0  0  0  0
  -22.7976  -29.2047   19.8532 H   0  0  0  0  0  0
  -25.1332  -36.1870   25.0769 H   0  0  0  0  0  0
  -21.0008  -28.3325   24.1367 H   0  0  0  0  0  0
  -20.5630  -26.2345   23.3631 H   0  0  0  0  0  0
  -21.6641  -26.7396   22.1234 H   0  0  0  0  0  0
  -19.6902  -25.6262   21.1268 H   0  0  0  0  0  0
  -19.6692  -27.3150   20.6719 H   0  0  0  0  0  0
  -17.4190  -26.6700   21.4024 H   0  0  0  0  0  0
  -18.0343  -26.0072   22.9017 H   0  0  0  0  0  0
  -19.7964  -30.7313   24.2191 H   0  0  0  0  0  0
  -17.5040  -31.6274   24.5190 H   0  0  0  0  0  0
  -15.5368  -30.2980   23.7685 H   0  0  0  0  0  0
  -15.8701  -28.0809   22.7104 H   0  0  0  0  0  0
  -24.5767  -30.7233   25.7714 H   0  0  0  0  0  0
  -24.8828  -32.2984   26.4838 H   0  0  0  0  0  0
  -25.7844  -30.8955   27.0238 H   0  0  0  0  0  0
  -26.2997  -29.6714   24.1300 H   0  0  0  0  0  0
  -27.3883  -29.7326   25.4966 H   0  0  0  0  0  0
  -27.8930  -30.4260   23.9740 H   0  0  0  0  0  0
  -27.2672  -33.3734   26.2006 H   0  0  0  0  0  0
  -28.3841  -32.6848   25.0279 H   0  0  0  0  0  0
  -28.0714  -31.8517   26.5411 H   0  0  0  0  0  0
  -28.2588  -38.0088   24.7497 H   0  0  0  0  0  0
  -28.1093  -36.2598   24.6283 H   0  0  0  0  0  0
  -27.2292  -37.1479   25.8845 H   0  0  0  0  0  0
  -20.9506  -29.8728   21.6739 H   0  0  0  0  0  0
  -26.0164  -38.2819   24.1362 H   0  0  0  0  0  0
  -33.4163  -18.8084   20.6233 H   0  0  0  0  0  0
  -32.0080  -17.3232   19.2789 H   0  0  0  0  0  0
  -32.4968  -19.5966   22.8233 H   0  0  0  0  0  0
  -28.4024  -23.2579   23.3867 H   0  0  0  0  0  0
  -30.0391  -23.7342   23.6593 H   0  0  0  0  0  0
  -25.9147  -20.7253   20.3337 H   0  0  0  0  0  0
  -26.4540  -19.4721   21.4424 H   0  0  0  0  0  0
  -30.1204  -25.1000   21.6667 H   0  0  0  0  0  0
  -28.7723  -25.5794   22.6677 H   0  0  0  0  0  0
  -30.1576  -21.5878   22.8385 H   0  0  0  0  0  0
  -30.7565  -22.5496   21.5477 H   0  0  0  0  0  0
  -27.6372  -20.9031   22.7354 H   0  0  0  0  0  0
  -26.8241  -22.2269   21.9259 H   0  0  0  0  0  0
  -29.4666  -23.2239   19.5495 H   0  0  0  0  0  0
  -27.7835  -22.8894   19.3933 H   0  0  0  0  0  0
  -27.7845  -20.4892   18.9149 H   0  0  0  0  0  0
  -27.7858  -18.8611   19.5595 H   0  0  0  0  0  0
  -27.1774  -24.5605   21.1754 H   0  0  0  0  0  0
  -28.9048  -16.0695   20.9741 H   0  0  0  0  0  0
  1 25  1  0  0  0
  1 30  2  0  0  0
  1 87  1  0  0  0
  2  3  1  0  0  0
  2 25  1  0  0  0
  2 89  1  0  0  0
  2 90  1  0  0  0
  3  4  1  0  0  0
  3 91  1  0  0  0
  3 92  1  0  0  0
  4  5  1  0  0  0
  4 93  1  0  0  0
  4 94  1  0  0  0
  5  6  1  0  0  0
  5 26  1  0  0  0
  5 95  1  0  0  0
  6 25  1  0  0  0
  6 96  1  0  0  0
  6 97  1  0  0  0
  7  8  2  0  0  0
  7 26  1  0  0  0
  7 29  1  0  0  0
  8  9  1  0  0  0
  8 22  1  0  0  0
  9 10  1  0  0  0
  9 27  2  0  0  0
 10 11  2  0  0  0
 10 15  1  0  0  0
 11 12  1  0  0  0
 11 98  1  0  0  0
 12 13  2  0  0  0
 12 99  1  0  0  0
 13 14  1  0  0  0
 13 31  1  0  0  0
 14 15  2  0  0  0
 14100  1  0  0  0
 15101  1  0  0  0
 16 17  2  0  0  0
 16 21  1  0  0  0
 16 31  1  0  0  0
 17 18  1  0  0  0
 17102  1  0  0  0
 18 19  2  0  0  0
 18103  1  0  0  0
 19 20  1  0  0  0
 19 24  1  0  0  0
 20 21  2  0  0  0
 20104  1  0  0  0
 21 23  1  0  0  0
 22 28  1  0  0  0
 22 32  2  0  0  0
 26 27  1  0  0  0
 28105  1  0  0  0
 28106  1  0  0  0
 29107  1  0  0  0
 29108  1  0  0  0
 33 34  1  0  0  0
 33 66  1  0  0  0
 33 70  2  0  0  0
 34 36  1  0  0  0
 34 59  1  0  0  0
 34109  1  0  0  0
 35 44  2  0  0  0
 35 45  1  0  0  0
 35 68  1  0  0  0
 36 56  1  0  0  0
 36110  1  0  0  0
 37 39  1  0  0  0
 37 47  1  0  0  0
 37 66  1  0  0  0
 37111  1  0  0  0
 38 43  2  0  0  0
 38 46  1  0  0  0
 38 47  1  0  0  0
 39 64  1  0  0  0
 39 67  2  0  0  0
 40 52  1  0  0  0
 40 53  2  0  0  0
 40 58  1  0  0  0
 41112  1  0  0  0
 41113  1  0  0  0
 41114  1  0  0  0
 41 48  1  0  0  0
 42 43  1  0  0  0
 42 66  1  0  0  0
 42115  1  0  0  0
 42116  1  0  0  0
 43 44  1  0  0  0
 44117  1  0  0  0
 45 46  2  0  0  0
 45118  1  0  0  0
 46119  1  0  0  0
 47120  1  0  0  0
 47121  1  0  0  0
 48 56  1  0  0  0
 48 65  1  0  0  0
 48122  1  0  0  0
 49 50  1  0  0  0
 49 53  1  0  0  0
 49 64  1  0  0  0
 49123  1  0  0  0
 50 51  1  0  0  0
 50124  1  0  0  0
 50125  1  0  0  0
 51 52  1  0  0  0
 51126  1  0  0  0
 51127  1  0  0  0
 52128  1  0  0  0
 52129  1  0  0  0
 53 54  1  0  0  0
 54 55  2  0  0  0
 54130  1  0  0  0
 55 57  1  0  0  0
 55131  1  0  0  0
 56 69  2  0  0  0
 57 58  2  0  0  0
 57132  1  0  0  0
 58133  1  0  0  0
 59 60  1  0  0  0
 59 61  1  0  0  0
 59 62  1  0  0  0
 60134  1  0  0  0
 60135  1  0  0  0
 60136  1  0  0  0
 61137  1  0  0  0
 61138  1  0  0  0
 61139  1  0  0  0
 62140  1  0  0  0
 62141  1  0  0  0
 62142  1  0  0  0
 63 65  1  0  0  0
 63143  1  0  0  0
 63144  1  0  0  0
 63145  1  0  0  0
 64146  1  0  0  0
 65147  1  0  0  0
 68 84  1  0  0  0
 71 72  2  0  0  0
 71 73  1  0  0  0
 71148  1  0  0  0
 72 75  1  0  0  0
 72149  1  0  0  0
 73 76  2  0  0  0
 73150  1  0  0  0
 74 75  2  0  0  0
 74 76  1  0  0  0
 74 86  1  0  0  0
 75 87  1  0  0  0
 76 88  1  0  0  0
 77 79  1  0  0  0
 77 80  1  0  0  0
 77151  1  0  0  0
 77152  1  0  0  0
 78 81  1  0  0  0
 78 83  1  0  0  0
 78153  1  0  0  0
 78154  1  0  0  0
 79 84  1  0  0  0
 79155  1  0  0  0
 79156  1  0  0  0
 80157  1  0  0  0
 80158  1  0  0  0
 80 85  1  0  0  0
 81 85  1  0  0  0
 81159  1  0  0  0
 81160  1  0  0  0
 82 84  1  0  0  0
 82 85  1  0  0  0
 82161  1  0  0  0
 82162  1  0  0  0
 83 86  1  0  0  0
 83163  1  0  0  0
 83164  1  0  0  0
 84165  1  0  0  0
 85 86  1  0  0  0
 87166  1  0  0  0
M  ISO  4   1 100  68 101  84 101  87 100
M  END
> <chiral flag>
0

> <version>
0

> <s_m_source_file>
/data/baiqing/PycharmProjects/Reinvent-master-3.2/result/LINK_invent/BTK/process_docking_weight1_custom_product_contain_oxygen_bond_distance_aromatic_linkinvent_7_9_3/rearranged_h_0026.sdf

> <i_m_source_file_index>
92

> <r_mmod_Potential_Energy-OPLS-2005>
1116.23034667969

> <r_mmod_Stretch_Energy-OPLS-2005>
345.608367919922

> <r_mmod_Bend_Energy-OPLS-2005>
373.848449707031

> <r_mmod_Torsional_Energy-OPLS-2005>
589.365417480469

> <r_mmod_Improper_Torsional_Energy-OPLS-2005>
34.6274261474609

> <r_mmod_Van_der_Waal_Energy-OPLS-2005>
143.585678100586

> <r_mmod_Electrostatic_Energy-OPLS-2005>
-389.849914550781

> <r_mmod_Solvation_Energy-OPLS-2005>
-210.637847900391

> <b_mmod_Minimization_Converged-OPLS-2005>
0

> <r_mmod_RMS_Derivative-OPLS-2005>
5.86348438262939

$$$$
92
                    3D
 Structure written by MMmdl.
176186  0  0  1  0            999 V2000
  -30.6433  -14.6067   20.5791 C   0  0  0  0  0  0
  -30.4418  -12.3971   19.4400 C   0  0  0  0  0  0
  -29.5061  -12.5263   18.2149 C   0  0  0  0  0  0
  -28.0222  -12.3770   18.6105 C   0  0  0  0  0  0
  -27.6553  -13.2079   19.8686 C   0  0  2  0  0  0
  -28.6960  -12.9634   20.9764 C   0  0  0  0  0  0
  -25.2531  -13.8169   20.5638 C   0  0  0  0  0  0
  -24.1797  -13.0447   20.9184 C   0  0  0  0  0  0
  -24.6360  -11.6916   20.8748 C   0  0  0  0  0  0
  -23.9027  -10.4308   21.0431 C   0  0  0  0  0  0
  -24.3600   -9.4236   21.9200 C   0  0  0  0  0  0
  -23.6289   -8.2270   22.0775 C   0  0  0  0  0  0
  -22.4276   -8.0290   21.3550 C   0  0  0  0  0  0
  -21.9888   -9.0262   20.4659 C   0  0  0  0  0  0
  -22.7197  -10.2152   20.3080 C   0  0  0  0  0  0
  -21.6845   -6.0743   22.5276 C   0  0  0  0  0  0
  -21.4016   -6.5646   23.8207 C   0  0  0  0  0  0
  -21.3649   -5.6791   24.9166 C   0  0  0  0  0  0
  -21.6052   -4.3066   24.7213 C   0  0  0  0  0  0
  -21.8817   -3.8146   23.4336 C   0  0  0  0  0  0
  -21.9197   -4.6967   22.3395 C   0  0  0  0  0  0
  -22.7807  -13.5271   21.1837 C   0  0  0  0  0  0
  -22.1665   -4.2156   21.0961 F   0  0  0  0  0  0
  -21.5622   -3.4549   25.7728 F   0  0  0  0  0  0
  -30.0130  -13.3827   20.4608 N   0  0  0  0  0  0
  -26.2972  -12.9332   20.3325 N   0  0  0  0  0  0
  -25.9286  -11.6497   20.5763 N   0  0  0  0  0  0
  -22.0430  -12.8310   22.0412 N   0  0  0  0  0  0
  -25.4206  -15.1883   20.3949 N   0  0  0  0  0  0
  -31.7499  -14.7750   20.0533 O   0  0  0  0  0  0
  -21.6634   -6.8893   21.4242 O   0  0  0  0  0  0
  -22.3517  -14.5557   20.6642 O   0  0  0  0  0  0
  -24.6218  -31.8619   23.2042 C   0  0  0  0  0  0
  -25.9103  -32.4783   23.8341 C   0  0  1  0  0  0
  -27.2333  -27.3614   20.1209 C   0  0  0  0  0  0
  -25.5933  -33.8578   24.2276 N   0  0  0  0  0  0
  -23.4120  -30.4839   21.5463 C   0  0  2  0  0  0
  -24.8582  -28.9319   20.1212 C   0  0  0  0  0  0
  -22.7443  -29.4637   22.4971 C   0  0  0  0  0  0
  -18.0287  -28.1376   22.8499 C   0  0  0  0  0  0
  -24.1484  -36.7274   23.2639 C   0  0  0  0  0  0
  -25.9480  -30.8073   21.3670 C   0  0  0  0  0  0
  -26.0245  -29.4356   20.7115 C   0  0  0  0  0  0
  -27.2169  -28.6642   20.6936 C   0  0  0  0  0  0
  -26.0456  -26.8816   19.5301 C   0  0  0  0  0  0
  -24.8658  -27.6558   19.5286 C   0  0  0  0  0  0
  -23.6249  -29.8117   20.1636 C   0  0  0  0  0  0
  -25.4114  -36.3065   24.0322 C   0  0  1  0  0  0
  -20.5881  -28.3662   23.1299 C   0  0  2  0  0  0
  -20.6769  -26.9388   22.5415 C   0  0  0  0  0  0
  -19.5739  -26.6373   21.5220 C   0  0  0  0  0  0
  -18.1919  -26.7925   22.1628 C   0  0  0  0  0  0
  -19.1537  -28.8838   23.2890 C   0  0  0  0  0  0
  -18.9468  -30.1455   23.8885 C   0  0  0  0  0  0
  -17.6466  -30.6581   24.0561 C   0  0  0  0  0  0
  -25.9052  -34.9446   23.5088 C   0  0  0  0  0  0
  -16.5358  -29.9076   23.6338 C   0  0  0  0  0  0
  -16.7274  -28.6496   23.0354 C   0  0  0  0  0  0
  -26.4508  -31.6596   25.0706 C   0  0  0  0  0  0
  -25.3777  -31.3757   26.1464 C   0  0  0  0  0  0
  -27.0359  -30.3020   24.6161 C   0  0  0  0  0  0
  -27.6045  -32.4368   25.7490 C   0  0  0  0  0  0
  -27.5574  -37.1786   24.8468 C   0  0  0  0  0  0
  -21.4165  -29.3023   22.3698 N   0  0  0  0  0  0
  -26.4289  -37.3764   23.9410 N   0  0  0  0  0  0
  -24.6788  -31.0667   22.0969 N   0  0  0  0  0  0
  -23.4185  -28.8198   23.3049 O   0  0  0  0  0  0
  -28.3909  -26.5917   20.0967 O   0  0  0  0  0  0
  -26.5605  -34.8917   22.4650 O   0  0  0  0  0  0
  -23.5392  -32.1416   23.7402 O   0  0  0  0  0  0
  -27.6523  -15.5448   24.1352 C   0  0  0  0  0  0
  -28.1637  -15.7890   22.8469 C   0  0  0  0  0  0
  -28.4803  -14.9895   25.1282 C   0  0  0  0  0  0
  -30.3346  -14.9177   23.5456 C   0  0  0  0  0  0
  -29.5078  -15.4712   22.5382 C   0  0  0  0  0  0
  -29.8216  -14.6781   24.8340 C   0  0  0  0  0  0
  -30.9625  -24.2129   18.9803 C   0  0  0  0  0  0
  -28.6485  -18.8368   19.4635 C   0  0  0  0  0  0
  -30.0845  -19.7147   21.3484 C   0  0  0  0  0  0
  -29.4253  -17.4746   19.4565 C   0  0  0  0  0  0
  -29.9005  -18.2320   21.8276 C   0  0  0  0  0  0
  -29.5844  -24.5352   18.4247 C   0  0  0  0  0  0
  -30.7405  -22.8407   19.6178 C   0  0  0  0  0  0
  -29.4658  -20.0704   19.9623 C   0  0  2  0  0  0
  -30.1941  -17.1123   20.7637 C   0  0  1  0  0  0
  -28.6380  -24.0378   19.5289 C   0  0  2  0  0  0
  -28.6469  -21.4494   19.8432 C   0  0  0  0  0  0
  -28.3583  -25.2020   20.5755 C   0  0  0  0  0  0
  -30.0003  -15.6641   21.2115 N   0  0  0  0  0  0
  -29.3292  -22.7901   20.0901 N   0  3  1  0  0  0
  -30.8314  -13.9894   26.0510 Cl  0  0  0  0  0  0
  -31.4774  -12.5392   19.1273 H   0  0  0  0  0  0
  -30.4061  -11.3865   19.8500 H   0  0  0  0  0  0
  -29.7618  -11.7774   17.4632 H   0  0  0  0  0  0
  -29.6611  -13.4979   17.7433 H   0  0  0  0  0  0
  -27.8327  -11.3189   18.7977 H   0  0  0  0  0  0
  -27.3792  -12.6544   17.7733 H   0  0  0  0  0  0
  -27.7019  -14.2597   19.5871 H   0  0  0  0  0  0
  -28.7195  -11.9024   21.2275 H   0  0  0  0  0  0
  -28.3891  -13.4185   21.9075 H   0  0  0  0  0  0
  -25.2766   -9.5717   22.4756 H   0  0  0  0  0  0
  -24.0015   -7.4667   22.7504 H   0  0  0  0  0  0
  -21.0821   -8.8759   19.8964 H   0  0  0  0  0  0
  -22.3660  -10.9690   19.6190 H   0  0  0  0  0  0
  -21.2005   -7.6147   23.9712 H   0  0  0  0  0  0
  -21.1477   -6.0522   25.9076 H   0  0  0  0  0  0
  -22.0605   -2.7611   23.2823 H   0  0  0  0  0  0
  -22.4024  -12.0008   22.4882 H   0  0  0  0  0  0
  -21.1038  -13.1361   22.2560 H   0  0  0  0  0  0
  -24.6474  -15.8363   20.5001 H   0  0  0  0  0  0
  -26.2651  -15.6279   20.0533 H   0  0  0  0  0  0
  -26.7168  -32.5462   23.1081 H   0  0  0  0  0  0
  -25.0117  -33.9730   25.0441 H   0  0  0  0  0  0
  -22.7033  -31.3026   21.4023 H   0  0  0  0  0  0
  -23.3748  -35.9606   23.3318 H   0  0  0  0  0  0
  -24.3570  -36.8881   22.2050 H   0  0  0  0  0  0
  -23.7252  -37.6478   23.6667 H   0  0  0  0  0  0
  -26.0793  -31.5768   20.6044 H   0  0  0  0  0  0
  -26.8272  -30.8491   21.9985 H   0  0  0  0  0  0
  -28.1197  -29.0565   21.1406 H   0  0  0  0  0  0
  -26.0288  -25.9052   19.0669 H   0  0  0  0  0  0
  -23.9669  -27.2559   19.0802 H   0  0  0  0  0  0
  -23.7445  -30.5869   19.4059 H   0  0  0  0  0  0
  -22.7447  -29.2406   19.8620 H   0  0  0  0  0  0
  -25.1297  -36.1890   25.0811 H   0  0  0  0  0  0
  -20.9974  -28.3236   24.1419 H   0  0  0  0  0  0
  -20.5668  -26.2268   23.3609 H   0  0  0  0  0  0
  -21.6638  -26.7414   22.1206 H   0  0  0  0  0  0
  -19.6887  -25.6284   21.1243 H   0  0  0  0  0  0
  -19.6684  -27.3190   20.6755 H   0  0  0  0  0  0
  -17.4191  -26.6700   21.4024 H   0  0  0  0  0  0
  -18.0298  -26.0064   22.9014 H   0  0  0  0  0  0
  -19.7946  -30.7283   24.2226 H   0  0  0  0  0  0
  -17.5021  -31.6261   24.5160 H   0  0  0  0  0  0
  -15.5354  -30.2964   23.7672 H   0  0  0  0  0  0
  -15.8682  -28.0809   22.7060 H   0  0  0  0  0  0
  -24.5901  -30.7146   25.7832 H   0  0  0  0  0  0
  -24.9039  -32.2945   26.4927 H   0  0  0  0  0  0
  -25.8125  -30.8916   27.0215 H   0  0  0  0  0  0
  -26.2920  -29.6758   24.1218 H   0  0  0  0  0  0
  -27.4093  -29.7287   25.4655 H   0  0  0  0  0  0
  -27.8771  -30.4305   23.9351 H   0  0  0  0  0  0
  -27.2596  -33.3645   26.2076 H   0  0  0  0  0  0
  -28.3846  -32.6990   25.0333 H   0  0  0  0  0  0
  -28.0732  -31.8520   26.5411 H   0  0  0  0  0  0
  -28.2588  -38.0078   24.7485 H   0  0  0  0  0  0
  -28.1058  -36.2603   24.6318 H   0  0  0  0  0  0
  -27.2284  -37.1460   25.8867 H   0  0  0  0  0  0
  -20.9335  -29.8720   21.6896 H   0  0  0  0  0  0
  -26.0153  -38.2824   24.1436 H   0  0  0  0  0  0
  -26.6202  -15.7763   24.3631 H   0  0  0  0  0  0
  -27.5139  -16.2026   22.0897 H   0  0  0  0  0  0
  -28.0866  -14.7979   26.1152 H   0  0  0  0  0  0
  -31.3646  -14.6623   23.3363 H   0  0  0  0  0  0
  -31.2524  -24.9453   19.7347 H   0  0  0  0  0  0
  -31.7367  -24.2062   18.2118 H   0  0  0  0  0  0
  -27.7482  -18.7263   20.0711 H   0  0  0  0  0  0
  -28.2922  -19.0293   18.4509 H   0  0  0  0  0  0
  -31.1513  -19.9409   21.3178 H   0  0  0  0  0  0
  -29.6705  -20.3733   22.1138 H   0  0  0  0  0  0
  -30.1376  -17.4760   18.6294 H   0  0  0  0  0  0
  -28.7142  -16.6827   19.2144 H   0  0  0  0  0  0
  -28.8665  -18.1577   22.1590 H   0  0  0  0  0  0
  -30.5120  -18.0687   22.7172 H   0  0  0  0  0  0
  -29.4159  -23.9645   17.5098 H   0  0  0  0  0  0
  -29.4666  -25.5874   18.1636 H   0  0  0  0  0  0
  -31.4414  -22.6384   20.4283 H   0  0  0  0  0  0
  -30.9166  -22.1041   18.8365 H   0  0  0  0  0  0
  -30.2983  -20.1166   19.2619 H   0  0  0  0  0  0
  -31.2586  -17.2216   20.5473 H   0  0  0  0  0  0
  -27.6844  -23.7709   19.0727 H   0  0  0  0  0  0
  -27.7624  -21.4026   20.4796 H   0  0  0  0  0  0
  -28.2597  -21.4873   18.8240 H   0  0  0  0  0  0
  -29.1417  -25.1620   21.3313 H   0  0  0  0  0  0
  -27.4355  -25.0015   21.1220 H   0  0  0  0  0  0
  -29.3616  -22.8991   21.0945 H   0  0  0  0  0  0
  1 25  1  0  0  0
  1 30  2  0  0  0
  1 89  1  0  0  0
  2  3  1  0  0  0
  2 25  1  0  0  0
  2 92  1  0  0  0
  2 93  1  0  0  0
  3  4  1  0  0  0
  3 94  1  0  0  0
  3 95  1  0  0  0
  4  5  1  0  0  0
  4 96  1  0  0  0
  4 97  1  0  0  0
  5  6  1  0  0  0
  5 26  1  0  0  0
  5 98  1  0  0  0
  6 25  1  0  0  0
  6 99  1  0  0  0
  6100  1  0  0  0
  7  8  2  0  0  0
  7 26  1  0  0  0
  7 29  1  0  0  0
  8  9  1  0  0  0
  8 22  1  0  0  0
  9 10  1  0  0  0
  9 27  2  0  0  0
 10 11  2  0  0  0
 10 15  1  0  0  0
 11 12  1  0  0  0
 11101  1  0  0  0
 12 13  2  0  0  0
 12102  1  0  0  0
 13 14  1  0  0  0
 13 31  1  0  0  0
 14 15  2  0  0  0
 14103  1  0  0  0
 15104  1  0  0  0
 16 17  2  0  0  0
 16 21  1  0  0  0
 16 31  1  0  0  0
 17 18  1  0  0  0
 17105  1  0  0  0
 18 19  2  0  0  0
 18106  1  0  0  0
 19 20  1  0  0  0
 19 24  1  0  0  0
 20 21  2  0  0  0
 20107  1  0  0  0
 21 23  1  0  0  0
 22 28  1  0  0  0
 22 32  2  0  0  0
 26 27  1  0  0  0
 28108  1  0  0  0
 28109  1  0  0  0
 29110  1  0  0  0
 29111  1  0  0  0
 33 34  1  0  0  0
 33 66  1  0  0  0
 33 70  2  0  0  0
 34 36  1  0  0  0
 34 59  1  0  0  0
 34112  1  0  0  0
 35 44  2  0  0  0
 35 45  1  0  0  0
 35 68  1  0  0  0
 36 56  1  0  0  0
 36113  1  0  0  0
 37 39  1  0  0  0
 37 47  1  0  0  0
 37 66  1  0  0  0
 37114  1  0  0  0
 38 43  2  0  0  0
 38 46  1  0  0  0
 38 47  1  0  0  0
 39 64  1  0  0  0
 39 67  2  0  0  0
 40 52  1  0  0  0
 40 53  2  0  0  0
 40 58  1  0  0  0
 41115  1  0  0  0
 41116  1  0  0  0
 41117  1  0  0  0
 41 48  1  0  0  0
 42 43  1  0  0  0
 42 66  1  0  0  0
 42118  1  0  0  0
 42119  1  0  0  0
 43 44  1  0  0  0
 44120  1  0  0  0
 45 46  2  0  0  0
 45121  1  0  0  0
 46122  1  0  0  0
 47123  1  0  0  0
 47124  1  0  0  0
 48 56  1  0  0  0
 48 65  1  0  0  0
 48125  1  0  0  0
 49 50  1  0  0  0
 49 53  1  0  0  0
 49 64  1  0  0  0
 49126  1  0  0  0
 50 51  1  0  0  0
 50127  1  0  0  0
 50128  1  0  0  0
 51 52  1  0  0  0
 51129  1  0  0  0
 51130  1  0  0  0
 52131  1  0  0  0
 52132  1  0  0  0
 53 54  1  0  0  0
 54 55  2  0  0  0
 54133  1  0  0  0
 55 57  1  0  0  0
 55134  1  0  0  0
 56 69  2  0  0  0
 57 58  2  0  0  0
 57135  1  0  0  0
 58136  1  0  0  0
 59 60  1  0  0  0
 59 61  1  0  0  0
 59 62  1  0  0  0
 60137  1  0  0  0
 60138  1  0  0  0
 60139  1  0  0  0
 61140  1  0  0  0
 61141  1  0  0  0
 61142  1  0  0  0
 62143  1  0  0  0
 62144  1  0  0  0
 62145  1  0  0  0
 63 65  1  0  0  0
 63146  1  0  0  0
 63147  1  0  0  0
 63148  1  0  0  0
 64149  1  0  0  0
 65150  1  0  0  0
 68 88  1  0  0  0
 71 72  2  0  0  0
 71 73  1  0  0  0
 71151  1  0  0  0
 72 75  1  0  0  0
 72152  1  0  0  0
 73 76  2  0  0  0
 73153  1  0  0  0
 74 75  2  0  0  0
 74 76  1  0  0  0
 74154  1  0  0  0
 75 89  1  0  0  0
 76 91  1  0  0  0
 77 82  1  0  0  0
 77 83  1  0  0  0
 77155  1  0  0  0
 77156  1  0  0  0
 78 80  1  0  0  0
 78 84  1  0  0  0
 78157  1  0  0  0
 78158  1  0  0  0
 79 81  1  0  0  0
 79 84  1  0  0  0
 79159  1  0  0  0
 79160  1  0  0  0
 80 85  1  0  0  0
 80161  1  0  0  0
 80162  1  0  0  0
 81 85  1  0  0  0
 81163  1  0  0  0
 81164  1  0  0  0
 82 86  1  0  0  0
 82165  1  0  0  0
 82166  1  0  0  0
 83 90  1  0  0  0
 83167  1  0  0  0
 83168  1  0  0  0
 84 87  1  0  0  0
 84169  1  0  0  0
 85 89  1  0  0  0
 85170  1  0  0  0
 86 88  1  0  0  0
 86 90  1  0  0  0
 86171  1  0  0  0
 87172  1  0  0  0
 87173  1  0  0  0
 87 90  1  0  0  0
 88174  1  0  0  0
 88175  1  0  0  0
 90176  1  0  0  0
M  CHG  1  90   1
M  ISO  4   1 100  68 101  88 101  89 100
M  END
> <chiral flag>
0

> <version>
0

> <s_m_source_file>
/data/baiqing/PycharmProjects/Reinvent-master-3.2/result/LINK_invent/BTK/process_docking_weight1_custom_product_contain_oxygen_bond_distance_aromatic_linkinvent_7_9_3/rearranged_h_0026.sdf

> <i_m_source_file_index>
93

> <r_mmod_Potential_Energy-OPLS-2005>
352.115478515625

> <r_mmod_Stretch_Energy-OPLS-2005>
90.107780456543

> <r_mmod_Bend_Energy-OPLS-2005>
181.399475097656

> <r_mmod_Torsional_Energy-OPLS-2005>
404.203857421875

> <r_mmod_Improper_Torsional_Energy-OPLS-2005>
3.59992480278015

> <r_mmod_Van_der_Waal_Energy-OPLS-2005>
151.704986572266

> <r_mmod_Electrostatic_Energy-OPLS-2005>
-108.734352111816

> <r_mmod_Solvation_Energy-OPLS-2005>
-400.40185546875

> <b_mmod_Minimization_Converged-OPLS-2005>
0

> <r_mmod_RMS_Derivative-OPLS-2005>
2.65218186378479

$$$$
93
                    3D
 Structure written by MMmdl.
171180  0  0  1  0            999 V2000
  -30.6983  -14.4962   20.6265 C   0  0  0  0  0  0
  -30.4306  -12.3287   19.4593 C   0  0  0  0  0  0
  -29.5211  -12.5384   18.2319 C   0  0  0  0  0  0
  -28.0386  -12.3868   18.6259 C   0  0  0  0  0  0
  -27.6686  -13.2162   19.8860 C   0  0  2  0  0  0
  -28.7030  -13.0029   21.0188 C   0  0  0  0  0  0
  -25.2599  -13.8174   20.5661 C   0  0  0  0  0  0
  -24.1873  -13.0446   20.9186 C   0  0  0  0  0  0
  -24.6441  -11.6915   20.8767 C   0  0  0  0  0  0
  -23.9092  -10.4308   21.0418 C   0  0  0  0  0  0
  -24.3635   -9.4222   21.9185 C   0  0  0  0  0  0
  -23.6282   -8.2264   22.0770 C   0  0  0  0  0  0
  -22.4264   -8.0293   21.3547 C   0  0  0  0  0  0
  -21.9910   -9.0290   20.4655 C   0  0  0  0  0  0
  -22.7268  -10.2166   20.3056 C   0  0  0  0  0  0
  -21.6850   -6.0727   22.5290 C   0  0  0  0  0  0
  -21.4022   -6.5628   23.8216 C   0  0  0  0  0  0
  -21.3679   -5.6788   24.9186 C   0  0  0  0  0  0
  -21.6034   -4.3045   24.7241 C   0  0  0  0  0  0
  -21.8828   -3.8136   23.4371 C   0  0  0  0  0  0
  -21.9201   -4.6953   22.3415 C   0  0  0  0  0  0
  -22.7901  -13.5251   21.1851 C   0  0  0  0  0  0
  -22.1648   -4.2141   21.0988 F   0  0  0  0  0  0
  -21.5654   -3.4513   25.7749 F   0  0  0  0  0  0
  -30.0384  -13.3129   20.4826 N   0  0  0  0  0  0
  -26.3069  -12.9373   20.3392 N   0  0  0  0  0  0
  -25.9369  -11.6525   20.5778 N   0  0  0  0  0  0
  -22.0516  -12.8272   22.0412 N   0  0  0  0  0  0
  -25.4276  -15.1900   20.4035 N   0  0  0  0  0  0
  -31.7903  -14.7092   20.0906 O   0  0  0  0  0  0
  -21.6642   -6.8887   21.4239 O   0  0  0  0  0  0
  -22.3590  -14.5536   20.6674 O   0  0  0  0  0  0
  -24.6166  -31.8660   23.2130 C   0  0  0  0  0  0
  -25.9062  -32.4805   23.8408 C   0  0  1  0  0  0
  -27.2237  -27.4107   20.1088 C   0  0  0  0  0  0
  -25.5924  -33.8590   24.2330 N   0  0  0  0  0  0
  -23.4071  -30.4902   21.5527 C   0  0  2  0  0  0
  -24.8563  -28.9617   20.1110 C   0  0  0  0  0  0
  -22.7416  -29.4639   22.4985 C   0  0  0  0  0  0
  -18.0260  -28.1372   22.8485 C   0  0  0  0  0  0
  -24.1519  -36.7330   23.2630 C   0  0  0  0  0  0
  -25.9379  -30.8275   21.3701 C   0  0  0  0  0  0
  -26.0164  -29.4615   20.7155 C   0  0  0  0  0  0
  -27.2073  -28.6921   20.7122 C   0  0  0  0  0  0
  -26.0555  -26.9479   19.4691 C   0  0  0  0  0  0
  -24.8728  -27.7062   19.4825 C   0  0  0  0  0  0
  -23.6180  -29.8269   20.1646 C   0  0  0  0  0  0
  -25.4124  -36.3098   24.0332 C   0  0  1  0  0  0
  -20.5842  -28.3642   23.1312 C   0  0  2  0  0  0
  -20.6736  -26.9373   22.5405 C   0  0  0  0  0  0
  -19.5738  -26.6383   21.5185 C   0  0  0  0  0  0
  -18.1920  -26.7912   22.1592 C   0  0  0  0  0  0
  -19.1509  -28.8819   23.2903 C   0  0  0  0  0  0
  -18.9427  -30.1410   23.8936 C   0  0  0  0  0  0
  -17.6430  -30.6580   24.0553 C   0  0  0  0  0  0
  -25.9042  -34.9451   23.5125 C   0  0  0  0  0  0
  -16.5323  -29.9084   23.6316 C   0  0  0  0  0  0
  -16.7239  -28.6490   23.0367 C   0  0  0  0  0  0
  -26.4489  -31.6568   25.0722 C   0  0  0  0  0  0
  -25.3755  -31.3684   26.1482 C   0  0  0  0  0  0
  -27.0271  -30.2988   24.6085 C   0  0  0  0  0  0
  -27.6088  -32.4267   25.7492 C   0  0  0  0  0  0
  -27.5593  -37.1816   24.8450 C   0  0  0  0  0  0
  -21.4132  -29.3051   22.3731 N   0  0  0  0  0  0
  -26.4312  -37.3764   23.9411 N   0  0  0  0  0  0
  -24.6733  -31.0730   22.1059 N   0  0  0  0  0  0
  -23.4165  -28.8140   23.3032 O   0  0  0  0  0  0
  -28.3670  -26.6363   20.0785 O   0  0  0  0  0  0
  -26.5582  -34.8888   22.4680 O   0  0  0  0  0  0
  -23.5335  -32.1426   23.7499 O   0  0  0  0  0  0
  -29.6123  -19.2968   21.7388 C   0  0  0  0  0  0
  -28.1231  -18.5112   23.9823 C   0  0  0  0  0  0
  -29.5587  -17.9170   22.0833 C   0  0  0  0  0  0
  -28.2337  -19.8907   23.6788 C   0  0  0  0  0  0
  -28.9696  -20.2880   22.5302 C   0  0  0  0  0  0
  -28.7899  -17.5387   23.2097 C   0  0  0  0  0  0
  -27.5964  -24.2801   20.5646 C   0  0  0  0  0  0
  -27.9061  -22.9579   20.5702 C   0  0  0  0  0  0
  -26.2909  -20.4370   26.3959 C   0  0  0  0  0  0
  -25.4840  -21.2936   25.4234 C   0  0  0  0  0  0
  -27.7361  -20.6714   25.9682 C   0  0  0  0  0  0
  -26.3699  -21.4212   24.1741 C   0  0  0  0  0  0
  -26.8637  -21.9357   20.1348 C   0  0  0  0  0  0
  -30.4183  -16.9069   21.2851 C   0  0  0  0  0  0
  -28.4182  -25.5105   20.9911 C   0  0  0  0  0  0
  -29.2300  -22.3316   21.0160 C   0  0  0  0  0  0
  -27.6870  -20.8901   24.5278 N   0  0  0  0  0  0
  -29.1169  -21.6735   22.3183 N   0  0  0  0  0  0
  -30.0442  -15.4755   21.2917 N   0  0  0  0  0  0
  -28.7138  -16.2378   23.5841 F   0  0  0  0  0  0
  -31.4833  -12.4163   19.1817 H   0  0  0  0  0  0
  -30.3134  -11.3184   19.8563 H   0  0  0  0  0  0
  -29.7825  -11.8246   17.4489 H   0  0  0  0  0  0
  -29.6947  -13.5351   17.8169 H   0  0  0  0  0  0
  -27.8577  -11.3290   18.8168 H   0  0  0  0  0  0
  -27.3987  -12.6643   17.7891 H   0  0  0  0  0  0
  -27.7097  -14.2661   19.5924 H   0  0  0  0  0  0
  -28.6900  -11.9739   21.3782 H   0  0  0  0  0  0
  -28.4522  -13.6134   21.8863 H   0  0  0  0  0  0
  -25.2815   -9.5653   22.4725 H   0  0  0  0  0  0
  -23.9967   -7.4673   22.7496 H   0  0  0  0  0  0
  -21.0840   -8.8837   19.8969 H   0  0  0  0  0  0
  -22.3756  -10.9693   19.6133 H   0  0  0  0  0  0
  -21.1981   -7.6130   23.9726 H   0  0  0  0  0  0
  -21.1492   -6.0504   25.9088 H   0  0  0  0  0  0
  -22.0583   -2.7585   23.2875 H   0  0  0  0  0  0
  -22.4079  -11.9923   22.4823 H   0  0  0  0  0  0
  -21.1149  -13.1361   22.2586 H   0  0  0  0  0  0
  -24.6649  -15.8456   20.5215 H   0  0  0  0  0  0
  -26.2817  -15.6322   20.0928 H   0  0  0  0  0  0
  -26.7130  -32.5514   23.1167 H   0  0  0  0  0  0
  -25.0088  -33.9778   25.0472 H   0  0  0  0  0  0
  -22.6985  -31.3099   21.4150 H   0  0  0  0  0  0
  -23.3758  -35.9688   23.3283 H   0  0  0  0  0  0
  -24.3606  -36.8937   22.2044 H   0  0  0  0  0  0
  -23.7297  -37.6549   23.6631 H   0  0  0  0  0  0
  -26.0413  -31.6020   20.6089 H   0  0  0  0  0  0
  -26.8291  -30.8836   21.9810 H   0  0  0  0  0  0
  -28.1077  -29.0724   21.1739 H   0  0  0  0  0  0
  -26.0503  -26.0082   18.9393 H   0  0  0  0  0  0
  -23.9867  -27.3308   18.9886 H   0  0  0  0  0  0
  -23.7169  -30.6094   19.4097 H   0  0  0  0  0  0
  -22.7429  -29.2416   19.8715 H   0  0  0  0  0  0
  -25.1290  -36.1979   25.0814 H   0  0  0  0  0  0
  -20.9907  -28.3205   24.1430 H   0  0  0  0  0  0
  -20.5621  -26.2224   23.3574 H   0  0  0  0  0  0
  -21.6617  -26.7429   22.1218 H   0  0  0  0  0  0
  -19.6934  -25.6307   21.1207 H   0  0  0  0  0  0
  -19.6725  -27.3207   20.6736 H   0  0  0  0  0  0
  -17.4173  -26.6638   21.4019 H   0  0  0  0  0  0
  -18.0360  -26.0054   22.8991 H   0  0  0  0  0  0
  -19.7906  -30.7213   24.2345 H   0  0  0  0  0  0
  -17.4992  -31.6265   24.5138 H   0  0  0  0  0  0
  -15.5321  -30.3002   23.7638 H   0  0  0  0  0  0
  -15.8627  -28.0813   22.7112 H   0  0  0  0  0  0
  -24.5959  -30.6989   25.7848 H   0  0  0  0  0  0
  -24.8918  -32.2819   26.4949 H   0  0  0  0  0  0
  -25.8127  -30.8879   27.0235 H   0  0  0  0  0  0
  -26.2805  -29.6845   24.1044 H   0  0  0  0  0  0
  -27.3910  -29.7150   25.4552 H   0  0  0  0  0  0
  -27.8702  -30.4293   23.9293 H   0  0  0  0  0  0
  -27.2738  -33.3546   26.2141 H   0  0  0  0  0  0
  -28.3883  -32.6860   25.0308 H   0  0  0  0  0  0
  -28.0760  -31.8335   26.5365 H   0  0  0  0  0  0
  -28.2587  -38.0128   24.7463 H   0  0  0  0  0  0
  -28.1115  -36.2653   24.6324 H   0  0  0  0  0  0
  -27.2284  -37.1487   25.8837 H   0  0  0  0  0  0
  -20.9263  -29.8768   21.6965 H   0  0  0  0  0  0
  -26.0216  -38.2845   24.1409 H   0  0  0  0  0  0
  -30.2219  -19.6024   20.9030 H   0  0  0  0  0  0
  -27.5550  -18.1766   24.8384 H   0  0  0  0  0  0
  -26.5922  -24.5152   20.2540 H   0  0  0  0  0  0
  -26.0293  -19.3886   26.2543 H   0  0  0  0  0  0
  -26.1112  -20.6928   27.4418 H   0  0  0  0  0  0
  -25.2952  -22.2787   25.8532 H   0  0  0  0  0  0
  -24.5141  -20.8475   25.1993 H   0  0  0  0  0  0
  -28.3864  -19.8485   26.2686 H   0  0  0  0  0  0
  -28.1333  -21.5721   26.4374 H   0  0  0  0  0  0
  -26.4620  -22.4705   23.8871 H   0  0  0  0  0  0
  -25.9258  -20.8915   23.3284 H   0  0  0  0  0  0
  -26.1180  -22.3687   19.4662 H   0  0  0  0  0  0
  -26.3435  -21.5468   21.0131 H   0  0  0  0  0  0
  -27.3275  -21.0990   19.6087 H   0  0  0  0  0  0
  -30.4408  -17.2388   20.2461 H   0  0  0  0  0  0
  -31.4449  -16.9978   21.6460 H   0  0  0  0  0  0
  -29.4637  -25.2392   21.1318 H   0  0  0  0  0  0
  -28.0613  -25.8300   21.9707 H   0  0  0  0  0  0
  -29.9955  -23.1039   21.0905 H   0  0  0  0  0  0
  -29.5794  -21.6344   20.2541 H   0  0  0  0  0  0
  -28.6022  -22.1837   23.0335 H   0  0  0  0  0  0
  -29.1990  -15.2227   21.7863 H   0  0  0  0  0  0
  1 25  1  0  0  0
  1 30  2  0  0  0
  1 89  1  0  0  0
  2  3  1  0  0  0
  2 25  1  0  0  0
  2 91  1  0  0  0
  2 92  1  0  0  0
  3  4  1  0  0  0
  3 93  1  0  0  0
  3 94  1  0  0  0
  4  5  1  0  0  0
  4 95  1  0  0  0
  4 96  1  0  0  0
  5  6  1  0  0  0
  5 26  1  0  0  0
  5 97  1  0  0  0
  6 25  1  0  0  0
  6 98  1  0  0  0
  6 99  1  0  0  0
  7  8  2  0  0  0
  7 26  1  0  0  0
  7 29  1  0  0  0
  8  9  1  0  0  0
  8 22  1  0  0  0
  9 10  1  0  0  0
  9 27  2  0  0  0
 10 11  2  0  0  0
 10 15  1  0  0  0
 11 12  1  0  0  0
 11100  1  0  0  0
 12 13  2  0  0  0
 12101  1  0  0  0
 13 14  1  0  0  0
 13 31  1  0  0  0
 14 15  2  0  0  0
 14102  1  0  0  0
 15103  1  0  0  0
 16 17  2  0  0  0
 16 21  1  0  0  0
 16 31  1  0  0  0
 17 18  1  0  0  0
 17104  1  0  0  0
 18 19  2  0  0  0
 18105  1  0  0  0
 19 20  1  0  0  0
 19 24  1  0  0  0
 20 21  2  0  0  0
 20106  1  0  0  0
 21 23  1  0  0  0
 22 28  1  0  0  0
 22 32  2  0  0  0
 26 27  1  0  0  0
 28107  1  0  0  0
 28108  1  0  0  0
 29109  1  0  0  0
 29110  1  0  0  0
 33 34  1  0  0  0
 33 66  1  0  0  0
 33 70  2  0  0  0
 34 36  1  0  0  0
 34 59  1  0  0  0
 34111  1  0  0  0
 35 44  2  0  0  0
 35 45  1  0  0  0
 35 68  1  0  0  0
 36 56  1  0  0  0
 36112  1  0  0  0
 37 39  1  0  0  0
 37 47  1  0  0  0
 37 66  1  0  0  0
 37113  1  0  0  0
 38 43  2  0  0  0
 38 46  1  0  0  0
 38 47  1  0  0  0
 39 64  1  0  0  0
 39 67  2  0  0  0
 40 52  1  0  0  0
 40 53  2  0  0  0
 40 58  1  0  0  0
 41114  1  0  0  0
 41115  1  0  0  0
 41116  1  0  0  0
 41 48  1  0  0  0
 42 43  1  0  0  0
 42 66  1  0  0  0
 42117  1  0  0  0
 42118  1  0  0  0
 43 44  1  0  0  0
 44119  1  0  0  0
 45 46  2  0  0  0
 45120  1  0  0  0
 46121  1  0  0  0
 47122  1  0  0  0
 47123  1  0  0  0
 48 56  1  0  0  0
 48 65  1  0  0  0
 48124  1  0  0  0
 49 50  1  0  0  0
 49 53  1  0  0  0
 49 64  1  0  0  0
 49125  1  0  0  0
 50 51  1  0  0  0
 50126  1  0  0  0
 50127  1  0  0  0
 51 52  1  0  0  0
 51128  1  0  0  0
 51129  1  0  0  0
 52130  1  0  0  0
 52131  1  0  0  0
 53 54  1  0  0  0
 54 55  2  0  0  0
 54132  1  0  0  0
 55 57  1  0  0  0
 55133  1  0  0  0
 56 69  2  0  0  0
 57 58  2  0  0  0
 57134  1  0  0  0
 58135  1  0  0  0
 59 60  1  0  0  0
 59 61  1  0  0  0
 59 62  1  0  0  0
 60136  1  0  0  0
 60137  1  0  0  0
 60138  1  0  0  0
 61139  1  0  0  0
 61140  1  0  0  0
 61141  1  0  0  0
 62142  1  0  0  0
 62143  1  0  0  0
 62144  1  0  0  0
 63 65  1  0  0  0
 63145  1  0  0  0
 63146  1  0  0  0
 63147  1  0  0  0
 64148  1  0  0  0
 65149  1  0  0  0
 68 85  1  0  0  0
 71 73  2  0  0  0
 71 75  1  0  0  0
 71150  1  0  0  0
 72 74  1  0  0  0
 72 76  2  0  0  0
 72151  1  0  0  0
 73 76  1  0  0  0
 73 84  1  0  0  0
 74 75  2  0  0  0
 74 87  1  0  0  0
 75 88  1  0  0  0
 76 90  1  0  0  0
 77 78  2  0  0  0
 77 85  1  0  0  0
 77152  1  0  0  0
 78 83  1  0  0  0
 78 86  1  0  0  0
 79 80  1  0  0  0
 79 81  1  0  0  0
 79153  1  0  0  0
 79154  1  0  0  0
 80 82  1  0  0  0
 80155  1  0  0  0
 80156  1  0  0  0
 81 87  1  0  0  0
 81157  1  0  0  0
 81158  1  0  0  0
 82 87  1  0  0  0
 82159  1  0  0  0
 82160  1  0  0  0
 83161  1  0  0  0
 83162  1  0  0  0
 83163  1  0  0  0
 84 89  1  0  0  0
 84164  1  0  0  0
 84165  1  0  0  0
 85166  1  0  0  0
 85167  1  0  0  0
 86 88  1  0  0  0
 86168  1  0  0  0
 86169  1  0  0  0
 88170  1  0  0  0
 89171  1  0  0  0
M  ISO  4   1 100  68 101  85 101  89 100
M  END
> <chiral flag>
0

> <version>
0

> <s_m_source_file>
/data/baiqing/PycharmProjects/Reinvent-master-3.2/result/LINK_invent/BTK/process_docking_weight1_custom_product_contain_oxygen_bond_distance_aromatic_linkinvent_7_9_3/rearranged_h_0026.sdf

> <i_m_source_file_index>
94

> <r_mmod_Potential_Energy-OPLS-2005>
-22.6182022094727

> <r_mmod_Stretch_Energy-OPLS-2005>
46.8801918029785

> <r_mmod_Bend_Energy-OPLS-2005>
150.527770996094

> <r_mmod_Torsional_Energy-OPLS-2005>
298.931976318359

> <r_mmod_Improper_Torsional_Energy-OPLS-2005>
11.0444164276123

> <r_mmod_Van_der_Waal_Energy-OPLS-2005>
148.850311279297

> <r_mmod_Electrostatic_Energy-OPLS-2005>
-481.705413818359

> <r_mmod_Solvation_Energy-OPLS-2005>
-212.515396118164

> <b_mmod_Minimization_Converged-OPLS-2005>
0

> <r_mmod_RMS_Derivative-OPLS-2005>
5.38971567153931

$$$$
94
                    3D
 Structure written by MMmdl.
164173  0  0  1  0            999 V2000
  -30.7175  -14.5332   20.6220 C   0  0  0  0  0  0
  -30.4156  -12.3618   19.4499 C   0  0  0  0  0  0
  -29.4997  -12.5274   18.2189 C   0  0  0  0  0  0
  -28.0168  -12.3816   18.6145 C   0  0  0  0  0  0
  -27.6533  -13.2167   19.8716 C   0  0  2  0  0  0
  -28.6881  -12.9966   20.9907 C   0  0  0  0  0  0
  -25.2561  -13.8183   20.5688 C   0  0  0  0  0  0
  -24.1805  -13.0438   20.9168 C   0  0  0  0  0  0
  -24.6374  -11.6923   20.8721 C   0  0  0  0  0  0
  -23.9059  -10.4297   21.0386 C   0  0  0  0  0  0
  -24.3625   -9.4228   21.9168 C   0  0  0  0  0  0
  -23.6308   -8.2257   22.0743 C   0  0  0  0  0  0
  -22.4282   -8.0283   21.3548 C   0  0  0  0  0  0
  -21.9915   -9.0250   20.4647 C   0  0  0  0  0  0
  -22.7237  -10.2132   20.3047 C   0  0  0  0  0  0
  -21.6854   -6.0749   22.5284 C   0  0  0  0  0  0
  -21.4012   -6.5648   23.8218 C   0  0  0  0  0  0
  -21.3659   -5.6799   24.9178 C   0  0  0  0  0  0
  -21.6041   -4.3060   24.7225 C   0  0  0  0  0  0
  -21.8822   -3.8159   23.4341 C   0  0  0  0  0  0
  -21.9190   -4.6978   22.3402 C   0  0  0  0  0  0
  -22.7836  -13.5242   21.1846 C   0  0  0  0  0  0
  -22.1661   -4.2168   21.0981 F   0  0  0  0  0  0
  -21.5625   -3.4534   25.7735 F   0  0  0  0  0  0
  -30.0084  -13.3661   20.4603 N   0  0  0  0  0  0
  -26.2975  -12.9365   20.3327 N   0  0  0  0  0  0
  -25.9300  -11.6520   20.5728 N   0  0  0  0  0  0
  -22.0492  -12.8218   22.0413 N   0  0  0  0  0  0
  -25.4274  -15.1905   20.4105 N   0  0  0  0  0  0
  -31.8407  -14.6321   20.1153 O   0  0  0  0  0  0
  -21.6631   -6.8894   21.4249 O   0  0  0  0  0  0
  -22.3522  -14.5548   20.6701 O   0  0  0  0  0  0
  -24.6173  -31.8647   23.2076 C   0  0  0  0  0  0
  -25.9040  -32.4804   23.8388 C   0  0  1  0  0  0
  -27.2129  -27.3738   20.1224 C   0  0  0  0  0  0
  -25.5885  -33.8603   24.2321 N   0  0  0  0  0  0
  -23.4082  -30.4901   21.5469 C   0  0  2  0  0  0
  -24.8554  -28.9537   20.1074 C   0  0  0  0  0  0
  -22.7405  -29.4656   22.4945 C   0  0  0  0  0  0
  -18.0275  -28.1377   22.8492 C   0  0  0  0  0  0
  -24.1479  -36.7300   23.2643 C   0  0  0  0  0  0
  -25.9425  -30.8140   21.3702 C   0  0  0  0  0  0
  -26.0204  -29.4473   20.7118 C   0  0  0  0  0  0
  -27.2060  -28.6635   20.7173 C   0  0  0  0  0  0
  -26.0384  -26.9205   19.4866 C   0  0  0  0  0  0
  -24.8646  -27.6962   19.4813 C   0  0  0  0  0  0
  -23.6194  -29.8258   20.1598 C   0  0  0  0  0  0
  -25.4100  -36.3119   24.0352 C   0  0  1  0  0  0
  -20.5860  -28.3677   23.1285 C   0  0  2  0  0  0
  -20.6774  -26.9409   22.5410 C   0  0  0  0  0  0
  -19.5755  -26.6381   21.5203 C   0  0  0  0  0  0
  -18.1922  -26.7918   22.1615 C   0  0  0  0  0  0
  -19.1528  -28.8842   23.2887 C   0  0  0  0  0  0
  -18.9461  -30.1441   23.8900 C   0  0  0  0  0  0
  -17.6473  -30.6585   24.0558 C   0  0  0  0  0  0
  -25.9032  -34.9467   23.5139 C   0  0  0  0  0  0
  -16.5355  -29.9094   23.6328 C   0  0  0  0  0  0
  -16.7265  -28.6510   23.0353 C   0  0  0  0  0  0
  -26.4466  -31.6586   25.0716 C   0  0  0  0  0  0
  -25.3736  -31.3693   26.1473 C   0  0  0  0  0  0
  -27.0309  -30.3030   24.6112 C   0  0  0  0  0  0
  -27.6043  -32.4293   25.7475 C   0  0  0  0  0  0
  -27.5581  -37.1810   24.8474 C   0  0  0  0  0  0
  -21.4125  -29.3031   22.3677 N   0  0  0  0  0  0
  -26.4292  -37.3804   23.9415 N   0  0  0  0  0  0
  -24.6752  -31.0709   22.1000 N   0  0  0  0  0  0
  -23.4172  -28.8175   23.2987 O   0  0  0  0  0  0
  -28.2946  -26.5047   20.2043 O   0  0  0  0  0  0
  -26.5596  -34.8933   22.4704 O   0  0  0  0  0  0
  -23.5346  -32.1408   23.7440 O   0  0  0  0  0  0
  -27.5971  -23.0551   22.5871 C   0  0  0  0  0  0
  -27.5000  -25.4630   22.2442 C   0  0  0  0  0  0
  -28.2895  -22.8617   21.3693 C   0  0  0  0  0  0
  -28.1151  -25.3424   20.9762 C   0  0  0  0  0  0
  -27.2325  -24.3341   23.0303 C   0  0  0  0  0  0
  -28.5227  -24.0273   20.5519 C   0  0  0  0  0  0
  -30.3524  -19.3735   21.6889 C   0  0  0  0  0  0
  -29.9643  -18.3467   20.8796 C   0  0  0  0  0  0
  -31.3870  -19.2643   22.8015 C   0  0  0  0  0  0
  -31.2500  -20.5012   23.6897 C   0  0  0  0  0  0
  -30.0343  -21.2420   23.1460 C   0  0  0  0  0  0
  -29.4639  -15.6953   22.4335 C   0  0  0  0  0  0
  -28.7008  -21.3870   21.0120 C   0  0  0  0  0  0
  -30.7289  -16.9947   20.7525 C   0  0  0  0  0  0
  -30.1070  -15.6737   21.1111 N   0  0  0  0  0  0
  -29.9116  -20.8395   21.7302 N   0  3  1  0  0  0
  -26.6170  -24.4756   24.2257 F   0  0  0  0  0  0
  -29.2833  -23.8560   19.0100 Cl  0  0  0  0  0  0
  -31.4596  -12.4568   19.1492 H   0  0  0  0  0  0
  -30.3285  -11.3537   19.8607 H   0  0  0  0  0  0
  -29.7567  -11.7959   17.4521 H   0  0  0  0  0  0
  -29.6596  -13.5084   17.7721 H   0  0  0  0  0  0
  -27.8226  -11.3241   18.8001 H   0  0  0  0  0  0
  -27.3730  -12.6644   17.7793 H   0  0  0  0  0  0
  -27.6941  -14.2655   19.5804 H   0  0  0  0  0  0
  -28.6931  -11.9458   21.2846 H   0  0  0  0  0  0
  -28.3994  -13.5146   21.8965 H   0  0  0  0  0  0
  -25.2775   -9.5683   22.4735 H   0  0  0  0  0  0
  -24.0012   -7.4637   22.7449 H   0  0  0  0  0  0
  -21.0853   -8.8788   19.8940 H   0  0  0  0  0  0
  -22.3721  -10.9673   19.6146 H   0  0  0  0  0  0
  -21.2011   -7.6154   23.9738 H   0  0  0  0  0  0
  -21.1473   -6.0517   25.9086 H   0  0  0  0  0  0
  -22.0598   -2.7619   23.2834 H   0  0  0  0  0  0
  -22.4123  -11.9883   22.4794 H   0  0  0  0  0  0
  -21.1105  -13.1230   22.2616 H   0  0  0  0  0  0
  -24.6646  -15.8507   20.5210 H   0  0  0  0  0  0
  -26.2949  -15.6296   20.1269 H   0  0  0  0  0  0
  -26.7084  -32.5503   23.1124 H   0  0  0  0  0  0
  -25.0063  -33.9782   25.0493 H   0  0  0  0  0  0
  -22.7006  -31.3100   21.4077 H   0  0  0  0  0  0
  -23.3767  -35.9613   23.3316 H   0  0  0  0  0  0
  -24.3569  -36.8897   22.2057 H   0  0  0  0  0  0
  -23.7199  -37.6494   23.6638 H   0  0  0  0  0  0
  -26.0634  -31.5832   20.6050 H   0  0  0  0  0  0
  -26.8259  -30.8640   21.9938 H   0  0  0  0  0  0
  -28.0982  -29.0267   21.2111 H   0  0  0  0  0  0
  -26.0231  -25.9434   19.0254 H   0  0  0  0  0  0
  -23.9740  -27.3163   19.0038 H   0  0  0  0  0  0
  -23.7283  -30.6040   19.4027 H   0  0  0  0  0  0
  -22.7412  -29.2509   19.8559 H   0  0  0  0  0  0
  -25.1282  -36.2007   25.0850 H   0  0  0  0  0  0
  -20.9970  -28.3266   24.1405 H   0  0  0  0  0  0
  -20.5652  -26.2295   23.3604 H   0  0  0  0  0  0
  -21.6651  -26.7438   22.1221 H   0  0  0  0  0  0
  -19.6928  -25.6293   21.1231 H   0  0  0  0  0  0
  -19.6702  -27.3197   20.6723 H   0  0  0  0  0  0
  -17.4201  -26.6649   21.4015 H   0  0  0  0  0  0
  -18.0352  -26.0048   22.8996 H   0  0  0  0  0  0
  -19.7941  -30.7232   24.2286 H   0  0  0  0  0  0
  -17.5039  -31.6271   24.5148 H   0  0  0  0  0  0
  -15.5364  -30.3007   23.7652 H   0  0  0  0  0  0
  -15.8649  -28.0818   22.7089 H   0  0  0  0  0  0
  -24.5910  -30.7039   25.7816 H   0  0  0  0  0  0
  -24.8937  -32.2844   26.4937 H   0  0  0  0  0  0
  -25.8107  -30.8853   27.0215 H   0  0  0  0  0  0
  -26.2875  -29.6777   24.1148 H   0  0  0  0  0  0
  -27.4059  -29.7274   25.4587 H   0  0  0  0  0  0
  -27.8720  -30.4354   23.9299 H   0  0  0  0  0  0
  -27.2679  -33.3589   26.2082 H   0  0  0  0  0  0
  -28.3845  -32.6848   25.0285 H   0  0  0  0  0  0
  -28.0715  -31.8382   26.5364 H   0  0  0  0  0  0
  -28.2628  -38.0086   24.7527 H   0  0  0  0  0  0
  -28.1058  -36.2621   24.6311 H   0  0  0  0  0  0
  -27.2297  -37.1474   25.8879 H   0  0  0  0  0  0
  -20.9287  -29.8761   21.6907 H   0  0  0  0  0  0
  -26.0199  -38.2892   24.1416 H   0  0  0  0  0  0
  -27.3546  -22.2190   23.2247 H   0  0  0  0  0  0
  -27.2015  -26.4302   22.6182 H   0  0  0  0  0  0
  -29.1997  -18.5181   20.1346 H   0  0  0  0  0  0
  -32.3921  -19.2002   22.3837 H   0  0  0  0  0  0
  -31.2138  -18.3641   23.3866 H   0  0  0  0  0  0
  -32.1443  -21.1227   23.6065 H   0  0  0  0  0  0
  -31.1239  -20.2546   24.7471 H   0  0  0  0  0  0
  -30.1498  -22.3200   23.2702 H   0  0  0  0  0  0
  -29.1472  -20.9191   23.6896 H   0  0  0  0  0  0
  -28.3782  -15.6583   22.3413 H   0  0  0  0  0  0
  -29.7013  -16.5941   23.0010 H   0  0  0  0  0  0
  -29.7918  -14.8588   23.0549 H   0  0  0  0  0  0
  -28.8661  -21.2863   19.9389 H   0  0  0  0  0  0
  -27.8544  -20.7342   21.2311 H   0  0  0  0  0  0
  -31.6628  -17.0626   21.3129 H   0  0  0  0  0  0
  -31.0295  -16.9606   19.7029 H   0  0  0  0  0  0
  -30.6587  -21.3466   21.2797 H   0  0  0  0  0  0
  1 25  1  0  0  0
  1 30  2  0  0  0
  1 85  1  0  0  0
  2  3  1  0  0  0
  2 25  1  0  0  0
  2 89  1  0  0  0
  2 90  1  0  0  0
  3  4  1  0  0  0
  3 91  1  0  0  0
  3 92  1  0  0  0
  4  5  1  0  0  0
  4 93  1  0  0  0
  4 94  1  0  0  0
  5  6  1  0  0  0
  5 26  1  0  0  0
  5 95  1  0  0  0
  6 25  1  0  0  0
  6 96  1  0  0  0
  6 97  1  0  0  0
  7  8  2  0  0  0
  7 26  1  0  0  0
  7 29  1  0  0  0
  8  9  1  0  0  0
  8 22  1  0  0  0
  9 10  1  0  0  0
  9 27  2  0  0  0
 10 11  2  0  0  0
 10 15  1  0  0  0
 11 12  1  0  0  0
 11 98  1  0  0  0
 12 13  2  0  0  0
 12 99  1  0  0  0
 13 14  1  0  0  0
 13 31  1  0  0  0
 14 15  2  0  0  0
 14100  1  0  0  0
 15101  1  0  0  0
 16 17  2  0  0  0
 16 21  1  0  0  0
 16 31  1  0  0  0
 17 18  1  0  0  0
 17102  1  0  0  0
 18 19  2  0  0  0
 18103  1  0  0  0
 19 20  1  0  0  0
 19 24  1  0  0  0
 20 21  2  0  0  0
 20104  1  0  0  0
 21 23  1  0  0  0
 22 28  1  0  0  0
 22 32  2  0  0  0
 26 27  1  0  0  0
 28105  1  0  0  0
 28106  1  0  0  0
 29107  1  0  0  0
 29108  1  0  0  0
 33 34  1  0  0  0
 33 66  1  0  0  0
 33 70  2  0  0  0
 34 36  1  0  0  0
 34 59  1  0  0  0
 34109  1  0  0  0
 35 44  2  0  0  0
 35 45  1  0  0  0
 35 68  1  0  0  0
 36 56  1  0  0  0
 36110  1  0  0  0
 37 39  1  0  0  0
 37 47  1  0  0  0
 37 66  1  0  0  0
 37111  1  0  0  0
 38 43  2  0  0  0
 38 46  1  0  0  0
 38 47  1  0  0  0
 39 64  1  0  0  0
 39 67  2  0  0  0
 40 52  1  0  0  0
 40 53  2  0  0  0
 40 58  1  0  0  0
 41112  1  0  0  0
 41113  1  0  0  0
 41114  1  0  0  0
 41 48  1  0  0  0
 42 43  1  0  0  0
 42 66  1  0  0  0
 42115  1  0  0  0
 42116  1  0  0  0
 43 44  1  0  0  0
 44117  1  0  0  0
 45 46  2  0  0  0
 45118  1  0  0  0
 46119  1  0  0  0
 47120  1  0  0  0
 47121  1  0  0  0
 48 56  1  0  0  0
 48 65  1  0  0  0
 48122  1  0  0  0
 49 50  1  0  0  0
 49 53  1  0  0  0
 49 64  1  0  0  0
 49123  1  0  0  0
 50 51  1  0  0  0
 50124  1  0  0  0
 50125  1  0  0  0
 51 52  1  0  0  0
 51126  1  0  0  0
 51127  1  0  0  0
 52128  1  0  0  0
 52129  1  0  0  0
 53 54  1  0  0  0
 54 55  2  0  0  0
 54130  1  0  0  0
 55 57  1  0  0  0
 55131  1  0  0  0
 56 69  2  0  0  0
 57 58  2  0  0  0
 57132  1  0  0  0
 58133  1  0  0  0
 59 60  1  0  0  0
 59 61  1  0  0  0
 59 62  1  0  0  0
 60134  1  0  0  0
 60135  1  0  0  0
 60136  1  0  0  0
 61137  1  0  0  0
 61138  1  0  0  0
 61139  1  0  0  0
 62140  1  0  0  0
 62141  1  0  0  0
 62142  1  0  0  0
 63 65  1  0  0  0
 63143  1  0  0  0
 63144  1  0  0  0
 63145  1  0  0  0
 64146  1  0  0  0
 65147  1  0  0  0
 68 74  1  0  0  0
 71 73  2  0  0  0
 71 75  1  0  0  0
 71148  1  0  0  0
 72 74  1  0  0  0
 72 75  2  0  0  0
 72149  1  0  0  0
 73 76  1  0  0  0
 73 83  1  0  0  0
 74 76  2  0  0  0
 75 87  1  0  0  0
 76 88  1  0  0  0
 77 78  2  0  0  0
 77 79  1  0  0  0
 77 86  1  0  0  0
 78 84  1  0  0  0
 78150  1  0  0  0
 79 80  1  0  0  0
 79151  1  0  0  0
 79152  1  0  0  0
 80 81  1  0  0  0
 80153  1  0  0  0
 80154  1  0  0  0
 81 86  1  0  0  0
 81155  1  0  0  0
 81156  1  0  0  0
 82 85  1  0  0  0
 82157  1  0  0  0
 82158  1  0  0  0
 82159  1  0  0  0
 83160  1  0  0  0
 83161  1  0  0  0
 83 86  1  0  0  0
 84 85  1  0  0  0
 84162  1  0  0  0
 84163  1  0  0  0
 86164  1  0  0  0
M  CHG  1  86   1
M  ISO  4   1 100  68 101  74 101  85 100
M  END
> <chiral flag>
0

> <version>
0

> <s_m_source_file>
/data/baiqing/PycharmProjects/Reinvent-master-3.2/result/LINK_invent/BTK/process_docking_weight1_custom_product_contain_oxygen_bond_distance_aromatic_linkinvent_7_9_3/rearranged_h_0026.sdf

> <i_m_source_file_index>
95

> <r_mmod_Potential_Energy-OPLS-2005>
67.1578216552734

> <r_mmod_Stretch_Energy-OPLS-2005>
71.0549240112305

> <r_mmod_Bend_Energy-OPLS-2005>
174.491882324219

> <r_mmod_Torsional_Energy-OPLS-2005>
278.224273681641

> <r_mmod_Improper_Torsional_Energy-OPLS-2005>
8.88326930999756

> <r_mmod_Van_der_Waal_Energy-OPLS-2005>
154.318557739258

> <r_mmod_Electrostatic_Energy-OPLS-2005>
-205.866134643555

> <r_mmod_Solvation_Energy-OPLS-2005>
-443.345703125

> <b_mmod_Minimization_Converged-OPLS-2005>
0

> <r_mmod_RMS_Derivative-OPLS-2005>
4.15387487411499

$$$$
95
                    3D
 Structure written by MMmdl.
158166  0  0  1  0            999 V2000
  -30.7298  -14.5260   20.5601 C   0  0  0  0  0  0
  -30.4057  -12.3446   19.4370 C   0  0  0  0  0  0
  -29.4856  -12.4909   18.2098 C   0  0  0  0  0  0
  -28.0131  -12.3201   18.6272 C   0  0  0  0  0  0
  -27.6382  -13.1941   19.8509 C   0  0  2  0  0  0
  -28.6849  -13.0798   20.9837 C   0  0  0  0  0  0
  -25.2526  -13.8125   20.5686 C   0  0  0  0  0  0
  -24.1787  -13.0413   20.9206 C   0  0  0  0  0  0
  -24.6331  -11.6877   20.8762 C   0  0  0  0  0  0
  -23.9013  -10.4278   21.0423 C   0  0  0  0  0  0
  -24.3579   -9.4198   21.9200 C   0  0  0  0  0  0
  -23.6267   -8.2228   22.0764 C   0  0  0  0  0  0
  -22.4258   -8.0274   21.3543 C   0  0  0  0  0  0
  -21.9885   -9.0241   20.4648 C   0  0  0  0  0  0
  -22.7196  -10.2124   20.3061 C   0  0  0  0  0  0
  -21.6841   -6.0733   22.5280 C   0  0  0  0  0  0
  -21.4007   -6.5635   23.8217 C   0  0  0  0  0  0
  -21.3659   -5.6790   24.9182 C   0  0  0  0  0  0
  -21.6047   -4.3055   24.7229 C   0  0  0  0  0  0
  -21.8817   -3.8147   23.4349 C   0  0  0  0  0  0
  -21.9190   -4.6965   22.3405 C   0  0  0  0  0  0
  -22.7826  -13.5237   21.1858 C   0  0  0  0  0  0
  -22.1658   -4.2154   21.0982 F   0  0  0  0  0  0
  -21.5631   -3.4540   25.7735 F   0  0  0  0  0  0
  -30.0080  -13.3746   20.4159 N   0  0  0  0  0  0
  -26.2898  -12.9236   20.3288 N   0  0  0  0  0  0
  -25.9235  -11.6421   20.5748 N   0  0  0  0  0  0
  -22.0447  -12.8243   22.0407 N   0  0  0  0  0  0
  -25.4259  -15.1838   20.4085 N   0  0  0  0  0  0
  -31.8939  -14.6045   20.1602 O   0  0  0  0  0  0
  -21.6618   -6.8871   21.4239 O   0  0  0  0  0  0
  -22.3536  -14.5552   20.6709 O   0  0  0  0  0  0
  -24.6184  -31.8657   23.2092 C   0  0  0  0  0  0
  -25.9065  -32.4810   23.8394 C   0  0  1  0  0  0
  -27.2280  -27.3999   20.0990 C   0  0  0  0  0  0
  -25.5900  -33.8607   24.2313 N   0  0  0  0  0  0
  -23.4077  -30.4906   21.5509 C   0  0  2  0  0  0
  -24.8499  -28.9486   20.1185 C   0  0  0  0  0  0
  -22.7417  -29.4662   22.4983 C   0  0  0  0  0  0
  -18.0267  -28.1398   22.8496 C   0  0  0  0  0  0
  -24.1480  -36.7316   23.2635 C   0  0  0  0  0  0
  -25.9405  -30.8208   21.3687 C   0  0  0  0  0  0
  -26.0130  -29.4540   20.7113 C   0  0  0  0  0  0
  -27.2031  -28.6869   20.6933 C   0  0  0  0  0  0
  -26.0381  -26.9102   19.5131 C   0  0  0  0  0  0
  -24.8573  -27.6779   19.5197 C   0  0  0  0  0  0
  -23.6178  -29.8222   20.1665 C   0  0  0  0  0  0
  -25.4107  -36.3107   24.0331 C   0  0  1  0  0  0
  -20.5856  -28.3688   23.1318 C   0  0  2  0  0  0
  -20.6767  -26.9428   22.5419 C   0  0  0  0  0  0
  -19.5743  -26.6411   21.5215 C   0  0  0  0  0  0
  -18.1919  -26.7950   22.1624 C   0  0  0  0  0  0
  -19.1518  -28.8860   23.2903 C   0  0  0  0  0  0
  -18.9449  -30.1463   23.8916 C   0  0  0  0  0  0
  -17.6448  -30.6612   24.0576 C   0  0  0  0  0  0
  -25.9033  -34.9468   23.5123 C   0  0  0  0  0  0
  -16.5339  -29.9121   23.6338 C   0  0  0  0  0  0
  -16.7258  -28.6525   23.0363 C   0  0  0  0  0  0
  -26.4480  -31.6616   25.0740 C   0  0  0  0  0  0
  -25.3720  -31.3724   26.1471 C   0  0  0  0  0  0
  -27.0356  -30.3056   24.6186 C   0  0  0  0  0  0
  -27.6051  -32.4355   25.7495 C   0  0  0  0  0  0
  -27.5585  -37.1806   24.8459 C   0  0  0  0  0  0
  -21.4136  -29.3047   22.3710 N   0  0  0  0  0  0
  -26.4297  -37.3797   23.9404 N   0  0  0  0  0  0
  -24.6737  -31.0733   22.1015 N   0  0  0  0  0  0
  -23.4169  -28.8200   23.3042 O   0  0  0  0  0  0
  -28.4098  -26.6777   20.1324 O   0  0  0  0  0  0
  -26.5600  -34.8920   22.4688 O   0  0  0  0  0  0
  -23.5367  -32.1430   23.7460 O   0  0  0  0  0  0
  -30.0805  -20.3868   18.8449 C   0  0  0  0  0  0
  -30.5670  -19.2059   18.2701 C   0  0  0  0  0  0
  -29.4691  -17.8556   19.9971 C   0  0  0  0  0  0
  -29.2513  -20.3524   19.9875 C   0  0  0  0  0  0
  -30.2461  -17.9543   18.8139 C   0  0  0  0  0  0
  -28.9692  -19.0728   20.5737 C   0  0  0  0  0  0
  -30.9612  -16.3547   22.1359 C   0  0  0  0  0  0
  -29.0957  -16.4434   20.5361 C   0  0  0  0  0  0
  -28.2619  -24.1292   20.3783 C   0  0  0  0  0  0
  -28.9160  -22.8430   19.7820 C   0  0  0  0  0  0
  -28.5368  -25.3884   19.4918 C   0  0  0  0  0  0
  -28.7133  -21.5655   20.5045 N   0  0  0  0  0  0
  -30.1519  -15.6039   21.1707 N   0  0  0  0  0  0
  -30.7737  -16.5622   17.9362 Cl  0  0  0  0  0  0
  -27.9757  -19.0164   21.9923 Cl  0  0  0  0  0  0
  -31.4500  -12.4281   19.1319 H   0  0  0  0  0  0
  -30.3033  -11.3508   19.8763 H   0  0  0  0  0  0
  -29.7464  -11.7492   17.4528 H   0  0  0  0  0  0
  -29.6314  -13.4691   17.7479 H   0  0  0  0  0  0
  -27.8552  -11.2673   18.8625 H   0  0  0  0  0  0
  -27.3550  -12.5455   17.7876 H   0  0  0  0  0  0
  -27.6253  -14.2085   19.4748 H   0  0  0  0  0  0
  -28.6805  -12.0727   21.4053 H   0  0  0  0  0  0
  -28.4345  -13.7522   21.8066 H   0  0  0  0  0  0
  -25.2720   -9.5697   22.4777 H   0  0  0  0  0  0
  -23.9993   -7.4620   22.7478 H   0  0  0  0  0  0
  -21.0819   -8.8739   19.8940 H   0  0  0  0  0  0
  -22.3645  -10.9663   19.6172 H   0  0  0  0  0  0
  -21.1998   -7.6144   23.9721 H   0  0  0  0  0  0
  -21.1484   -6.0521   25.9083 H   0  0  0  0  0  0
  -22.0599   -2.7610   23.2838 H   0  0  0  0  0  0
  -22.4029  -11.9887   22.4783 H   0  0  0  0  0  0
  -21.1068  -13.1282   22.2595 H   0  0  0  0  0  0
  -24.6617  -15.8393   20.5292 H   0  0  0  0  0  0
  -26.2735  -15.6219   20.0739 H   0  0  0  0  0  0
  -26.7127  -32.5510   23.1152 H   0  0  0  0  0  0
  -25.0008  -33.9761   25.0431 H   0  0  0  0  0  0
  -22.6993  -31.3089   21.4096 H   0  0  0  0  0  0
  -23.3753  -35.9641   23.3301 H   0  0  0  0  0  0
  -24.3555  -36.8950   22.2050 H   0  0  0  0  0  0
  -23.7216  -37.6511   23.6658 H   0  0  0  0  0  0
  -26.0596  -31.5877   20.6023 H   0  0  0  0  0  0
  -26.8253  -30.8696   21.9919 H   0  0  0  0  0  0
  -28.1055  -29.0746   21.1449 H   0  0  0  0  0  0
  -25.9912  -25.9309   19.0609 H   0  0  0  0  0  0
  -23.9563  -27.2781   19.0749 H   0  0  0  0  0  0
  -23.7373  -30.5981   19.4103 H   0  0  0  0  0  0
  -22.7387  -29.2494   19.8653 H   0  0  0  0  0  0
  -25.1290  -36.1976   25.0825 H   0  0  0  0  0  0
  -20.9933  -28.3271   24.1446 H   0  0  0  0  0  0
  -20.5715  -26.2288   23.3600 H   0  0  0  0  0  0
  -21.6634  -26.7501   22.1190 H   0  0  0  0  0  0
  -19.6911  -25.6327   21.1244 H   0  0  0  0  0  0
  -19.6696  -27.3216   20.6743 H   0  0  0  0  0  0
  -17.4196  -26.6709   21.4016 H   0  0  0  0  0  0
  -18.0308  -26.0092   22.9012 H   0  0  0  0  0  0
  -19.7918  -30.7271   24.2302 H   0  0  0  0  0  0
  -17.5012  -31.6286   24.5187 H   0  0  0  0  0  0
  -15.5341  -30.3034   23.7659 H   0  0  0  0  0  0
  -15.8651  -28.0861   22.7084 H   0  0  0  0  0  0
  -24.5890  -30.7096   25.7774 H   0  0  0  0  0  0
  -24.8906  -32.2876   26.4919 H   0  0  0  0  0  0
  -25.8044  -30.8868   27.0228 H   0  0  0  0  0  0
  -26.2941  -29.6763   24.1251 H   0  0  0  0  0  0
  -27.4122  -29.7356   25.4693 H   0  0  0  0  0  0
  -27.8768  -30.4389   23.9378 H   0  0  0  0  0  0
  -27.2689  -33.3670   26.2070 H   0  0  0  0  0  0
  -28.3843  -32.6903   25.0294 H   0  0  0  0  0  0
  -28.0743  -31.8488   26.5408 H   0  0  0  0  0  0
  -28.2596  -38.0114   24.7541 H   0  0  0  0  0  0
  -28.1097  -36.2644   24.6270 H   0  0  0  0  0  0
  -27.2291  -37.1436   25.8859 H   0  0  0  0  0  0
  -20.9300  -29.8755   21.6919 H   0  0  0  0  0  0
  -26.0196  -38.2876   24.1448 H   0  0  0  0  0  0
  -30.3466  -21.3124   18.3591 H   0  0  0  0  0  0
  -31.1691  -19.2615   17.3759 H   0  0  0  0  0  0
  -30.3482  -17.0413   22.7211 H   0  0  0  0  0  0
  -31.7320  -16.9370   21.6271 H   0  0  0  0  0  0
  -31.4575  -15.6821   22.8375 H   0  0  0  0  0  0
  -28.7133  -15.9262   19.6633 H   0  0  0  0  0  0
  -28.2508  -16.4922   21.2217 H   0  0  0  0  0  0
  -28.6625  -24.3044   21.3770 H   0  0  0  0  0  0
  -27.1856  -23.9947   20.4905 H   0  0  0  0  0  0
  -29.9900  -23.0246   19.7224 H   0  0  0  0  0  0
  -28.5652  -22.7255   18.7551 H   0  0  0  0  0  0
  -27.9824  -25.3378   18.5545 H   0  0  0  0  0  0
  -29.5803  -25.3439   19.1793 H   0  0  0  0  0  0
  -28.0020  -21.5021   21.2297 H   0  0  0  0  0  0
  1 25  1  0  0  0
  1 30  2  0  0  0
  1 83  1  0  0  0
  2  3  1  0  0  0
  2 25  1  0  0  0
  2 86  1  0  0  0
  2 87  1  0  0  0
  3  4  1  0  0  0
  3 88  1  0  0  0
  3 89  1  0  0  0
  4  5  1  0  0  0
  4 90  1  0  0  0
  4 91  1  0  0  0
  5  6  1  0  0  0
  5 26  1  0  0  0
  5 92  1  0  0  0
  6 25  1  0  0  0
  6 93  1  0  0  0
  6 94  1  0  0  0
  7  8  2  0  0  0
  7 26  1  0  0  0
  7 29  1  0  0  0
  8  9  1  0  0  0
  8 22  1  0  0  0
  9 10  1  0  0  0
  9 27  2  0  0  0
 10 11  2  0  0  0
 10 15  1  0  0  0
 11 12  1  0  0  0
 11 95  1  0  0  0
 12 13  2  0  0  0
 12 96  1  0  0  0
 13 14  1  0  0  0
 13 31  1  0  0  0
 14 15  2  0  0  0
 14 97  1  0  0  0
 15 98  1  0  0  0
 16 17  2  0  0  0
 16 21  1  0  0  0
 16 31  1  0  0  0
 17 18  1  0  0  0
 17 99  1  0  0  0
 18 19  2  0  0  0
 18100  1  0  0  0
 19 20  1  0  0  0
 19 24  1  0  0  0
 20 21  2  0  0  0
 20101  1  0  0  0
 21 23  1  0  0  0
 22 28  1  0  0  0
 22 32  2  0  0  0
 26 27  1  0  0  0
 28102  1  0  0  0
 28103  1  0  0  0
 29104  1  0  0  0
 29105  1  0  0  0
 33 34  1  0  0  0
 33 66  1  0  0  0
 33 70  2  0  0  0
 34 36  1  0  0  0
 34 59  1  0  0  0
 34106  1  0  0  0
 35 44  2  0  0  0
 35 45  1  0  0  0
 35 68  1  0  0  0
 36 56  1  0  0  0
 36107  1  0  0  0
 37 39  1  0  0  0
 37 47  1  0  0  0
 37 66  1  0  0  0
 37108  1  0  0  0
 38 43  2  0  0  0
 38 46  1  0  0  0
 38 47  1  0  0  0
 39 64  1  0  0  0
 39 67  2  0  0  0
 40 52  1  0  0  0
 40 53  2  0  0  0
 40 58  1  0  0  0
 41109  1  0  0  0
 41110  1  0  0  0
 41111  1  0  0  0
 41 48  1  0  0  0
 42 43  1  0  0  0
 42 66  1  0  0  0
 42112  1  0  0  0
 42113  1  0  0  0
 43 44  1  0  0  0
 44114  1  0  0  0
 45 46  2  0  0  0
 45115  1  0  0  0
 46116  1  0  0  0
 47117  1  0  0  0
 47118  1  0  0  0
 48 56  1  0  0  0
 48 65  1  0  0  0
 48119  1  0  0  0
 49 50  1  0  0  0
 49 53  1  0  0  0
 49 64  1  0  0  0
 49120  1  0  0  0
 50 51  1  0  0  0
 50121  1  0  0  0
 50122  1  0  0  0
 51 52  1  0  0  0
 51123  1  0  0  0
 51124  1  0  0  0
 52125  1  0  0  0
 52126  1  0  0  0
 53 54  1  0  0  0
 54 55  2  0  0  0
 54127  1  0  0  0
 55 57  1  0  0  0
 55128  1  0  0  0
 56 69  2  0  0  0
 57 58  2  0  0  0
 57129  1  0  0  0
 58130  1  0  0  0
 59 60  1  0  0  0
 59 61  1  0  0  0
 59 62  1  0  0  0
 60131  1  0  0  0
 60132  1  0  0  0
 60133  1  0  0  0
 61134  1  0  0  0
 61135  1  0  0  0
 61136  1  0  0  0
 62137  1  0  0  0
 62138  1  0  0  0
 62139  1  0  0  0
 63 65  1  0  0  0
 63140  1  0  0  0
 63141  1  0  0  0
 63142  1  0  0  0
 64143  1  0  0  0
 65144  1  0  0  0
 68 81  1  0  0  0
 71 72  2  0  0  0
 71 74  1  0  0  0
 71145  1  0  0  0
 72 75  1  0  0  0
 72146  1  0  0  0
 73 75  2  0  0  0
 73 76  1  0  0  0
 73 78  1  0  0  0
 74 76  2  0  0  0
 74 82  1  0  0  0
 75 84  1  0  0  0
 76 85  1  0  0  0
 77 83  1  0  0  0
 77147  1  0  0  0
 77148  1  0  0  0
 77149  1  0  0  0
 78 83  1  0  0  0
 78150  1  0  0  0
 78151  1  0  0  0
 79 80  1  0  0  0
 79 81  1  0  0  0
 79152  1  0  0  0
 79153  1  0  0  0
 80 82  1  0  0  0
 80154  1  0  0  0
 80155  1  0  0  0
 81156  1  0  0  0
 81157  1  0  0  0
 82158  1  0  0  0
M  ISO  4   1 100  68 101  81 101  83 100
M  END
> <chiral flag>
0

> <version>
0

> <s_m_source_file>
/data/baiqing/PycharmProjects/Reinvent-master-3.2/result/LINK_invent/BTK/process_docking_weight1_custom_product_contain_oxygen_bond_distance_aromatic_linkinvent_7_9_3/rearranged_h_0026.sdf

> <i_m_source_file_index>
96

> <r_mmod_Potential_Energy-OPLS-2005>
130.135940551758

> <r_mmod_Stretch_Energy-OPLS-2005>
53.1811027526855

> <r_mmod_Bend_Energy-OPLS-2005>
133.905746459961

> <r_mmod_Torsional_Energy-OPLS-2005>
250.748962402344

> <r_mmod_Improper_Torsional_Energy-OPLS-2005>
4.66464805603027

> <r_mmod_Van_der_Waal_Energy-OPLS-2005>
153.499862670898

> <r_mmod_Electrostatic_Energy-OPLS-2005>
-288.139739990234

> <r_mmod_Solvation_Energy-OPLS-2005>
-202.427444458008

> <b_mmod_Minimization_Converged-OPLS-2005>
0

> <r_mmod_RMS_Derivative-OPLS-2005>
2.15889620780945

$$$$
96
                    3D
 Structure written by MMmdl.
155164  0  0  1  0            999 V2000
  -30.6713  -14.6295   20.4631 C   0  0  0  0  0  0
  -30.4155  -12.3802   19.4613 C   0  0  0  0  0  0
  -29.4990  -12.4849   18.2249 C   0  0  0  0  0  0
  -28.0217  -12.3385   18.6374 C   0  0  0  0  0  0
  -27.6430  -13.2289   19.8526 C   0  0  2  0  0  0
  -28.6879  -13.1351   20.9862 C   0  0  0  0  0  0
  -25.2512  -13.8203   20.5689 C   0  0  0  0  0  0
  -24.1799  -13.0449   20.9202 C   0  0  0  0  0  0
  -24.6389  -11.6927   20.8755 C   0  0  0  0  0  0
  -23.9067  -10.4304   21.0418 C   0  0  0  0  0  0
  -24.3621   -9.4214   21.9188 C   0  0  0  0  0  0
  -23.6298   -8.2246   22.0750 C   0  0  0  0  0  0
  -22.4281   -8.0285   21.3540 C   0  0  0  0  0  0
  -21.9919   -9.0259   20.4640 C   0  0  0  0  0  0
  -22.7245  -10.2142   20.3057 C   0  0  0  0  0  0
  -21.6853   -6.0738   22.5274 C   0  0  0  0  0  0
  -21.4011   -6.5638   23.8209 C   0  0  0  0  0  0
  -21.3664   -5.6792   24.9167 C   0  0  0  0  0  0
  -21.6050   -4.3055   24.7221 C   0  0  0  0  0  0
  -21.8820   -3.8149   23.4339 C   0  0  0  0  0  0
  -21.9195   -4.6963   22.3398 C   0  0  0  0  0  0
  -22.7821  -13.5231   21.1869 C   0  0  0  0  0  0
  -22.1663   -4.2149   21.0976 F   0  0  0  0  0  0
  -21.5639   -3.4540   25.7733 F   0  0  0  0  0  0
  -29.9986  -13.4395   20.4029 N   0  0  0  0  0  0
  -26.2941  -12.9409   20.3297 N   0  0  0  0  0  0
  -25.9318  -11.6554   20.5768 N   0  0  0  0  0  0
  -22.0474  -12.8208   22.0421 N   0  0  0  0  0  0
  -25.4217  -15.1925   20.4099 N   0  0  0  0  0  0
  -31.8625  -14.6906   20.1496 O   0  0  0  0  0  0
  -21.6645   -6.8878   21.4239 O   0  0  0  0  0  0
  -22.3504  -14.5543   20.6728 O   0  0  0  0  0  0
  -24.6234  -31.8604   23.2032 C   0  0  0  0  0  0
  -25.9089  -32.4779   23.8351 C   0  0  1  0  0  0
  -27.2147  -27.3289   20.1318 C   0  0  0  0  0  0
  -25.5920  -33.8581   24.2279 N   0  0  0  0  0  0
  -23.4163  -30.4842   21.5444 C   0  0  2  0  0  0
  -24.8620  -28.9363   20.1133 C   0  0  0  0  0  0
  -22.7465  -29.4620   22.4931 C   0  0  0  0  0  0
  -18.0283  -28.1399   22.8494 C   0  0  0  0  0  0
  -24.1482  -36.7284   23.2641 C   0  0  0  0  0  0
  -25.9547  -30.7933   21.3730 C   0  0  0  0  0  0
  -26.0271  -29.4185   20.7244 C   0  0  0  0  0  0
  -27.2090  -28.6248   20.7279 C   0  0  0  0  0  0
  -26.0426  -26.9057   19.4734 C   0  0  0  0  0  0
  -24.8695  -27.6833   19.4793 C   0  0  0  0  0  0
  -23.6315  -29.8176   20.1591 C   0  0  0  0  0  0
  -25.4111  -36.3077   24.0326 C   0  0  1  0  0  0
  -20.5884  -28.3678   23.1294 C   0  0  2  0  0  0
  -20.6774  -26.9402   22.5411 C   0  0  0  0  0  0
  -19.5747  -26.6389   21.5216 C   0  0  0  0  0  0
  -18.1926  -26.7946   22.1622 C   0  0  0  0  0  0
  -19.1541  -28.8854   23.2893 C   0  0  0  0  0  0
  -18.9468  -30.1468   23.8894 C   0  0  0  0  0  0
  -17.6471  -30.6601   24.0573 C   0  0  0  0  0  0
  -25.9052  -34.9451   23.5100 C   0  0  0  0  0  0
  -16.5358  -29.9105   23.6345 C   0  0  0  0  0  0
  -16.7276  -28.6526   23.0354 C   0  0  0  0  0  0
  -26.4483  -31.6594   25.0713 C   0  0  0  0  0  0
  -25.3732  -31.3752   26.1451 C   0  0  0  0  0  0
  -27.0324  -30.3027   24.6147 C   0  0  0  0  0  0
  -27.6032  -32.4331   25.7494 C   0  0  0  0  0  0
  -27.5575  -37.1800   24.8473 C   0  0  0  0  0  0
  -21.4179  -29.3042   22.3690 N   0  0  0  0  0  0
  -26.4284  -37.3778   23.9417 N   0  0  0  0  0  0
  -24.6826  -31.0642   22.0966 N   0  0  0  0  0  0
  -23.4205  -28.8149   23.2986 O   0  0  0  0  0  0
  -28.3388  -26.5021   20.1132 O   0  0  0  0  0  0
  -26.5614  -34.8918   22.4667 O   0  0  0  0  0  0
  -23.5409  -32.1374   23.7389 O   0  0  0  0  0  0
  -28.7604  -18.8314   21.2311 C   0  0  0  0  0  0
  -28.2689  -20.1692   21.3402 C   0  0  0  0  0  0
  -30.3630  -19.6044   19.6292 C   0  0  0  0  0  0
  -29.8422  -18.5167   20.3793 C   0  0  0  0  0  0
  -28.8140  -21.2853   20.6172 C   0  0  0  0  0  0
  -29.8728  -20.9373   19.7316 C   0  0  0  0  0  0
  -27.3285  -23.1254   21.5647 C   0  0  0  0  0  0
  -27.0611  -24.6279   21.4417 C   0  0  0  0  0  0
  -28.8761  -23.8974   20.0613 C   0  0  0  0  0  0
  -28.3304  -25.1804   20.7899 C   0  0  1  0  0  0
  -30.5696  -17.1281   20.2861 C   0  0  0  0  0  0
  -28.3364  -22.6891   20.7681 N   0  0  0  0  0  0
  -29.9614  -15.7940   20.6185 N   0  0  0  0  0  0
  -26.6418  -22.4489   22.3353 O   0  0  0  0  0  0
  -30.4603  -21.8806   18.9587 F   0  0  0  0  0  0
  -31.4614  -12.4693   19.1612 H   0  0  0  0  0  0
  -30.3231  -11.3992   19.9298 H   0  0  0  0  0  0
  -29.7577  -11.7165   17.4946 H   0  0  0  0  0  0
  -29.6524  -13.4444   17.7293 H   0  0  0  0  0  0
  -27.8536  -11.2890   18.8814 H   0  0  0  0  0  0
  -27.3700  -12.5597   17.7915 H   0  0  0  0  0  0
  -27.6481  -14.2555   19.4861 H   0  0  0  0  0  0
  -28.6952  -12.1377   21.4285 H   0  0  0  0  0  0
  -28.4469  -13.8292   21.7932 H   0  0  0  0  0  0
  -25.2761   -9.5694   22.4761 H   0  0  0  0  0  0
  -24.0008   -7.4642   22.7467 H   0  0  0  0  0  0
  -21.0850   -8.8782   19.8943 H   0  0  0  0  0  0
  -22.3705  -10.9683   19.6166 H   0  0  0  0  0  0
  -21.1996   -7.6143   23.9705 H   0  0  0  0  0  0
  -21.1487   -6.0522   25.9070 H   0  0  0  0  0  0
  -22.0595   -2.7609   23.2837 H   0  0  0  0  0  0
  -22.4095  -11.9858   22.4785 H   0  0  0  0  0  0
  -21.1091  -13.1224   22.2647 H   0  0  0  0  0  0
  -24.6559  -15.8478   20.5197 H   0  0  0  0  0  0
  -26.2678  -15.6303   20.0707 H   0  0  0  0  0  0
  -26.7153  -32.5457   23.1101 H   0  0  0  0  0  0
  -25.0090  -33.9732   25.0434 H   0  0  0  0  0  0
  -22.7102  -31.3046   21.4031 H   0  0  0  0  0  0
  -23.3740  -35.9624   23.3315 H   0  0  0  0  0  0
  -24.3576  -36.8886   22.2054 H   0  0  0  0  0  0
  -23.7233  -37.6487   23.6654 H   0  0  0  0  0  0
  -26.0862  -31.5512   20.5993 H   0  0  0  0  0  0
  -26.8374  -30.8452   21.9988 H   0  0  0  0  0  0
  -28.1060  -28.9906   21.2093 H   0  0  0  0  0  0
  -26.0332  -25.9581   18.9544 H   0  0  0  0  0  0
  -23.9805  -27.3165   18.9831 H   0  0  0  0  0  0
  -23.7514  -30.5928   19.4014 H   0  0  0  0  0  0
  -22.7515  -29.2476   19.8563 H   0  0  0  0  0  0
  -25.1295  -36.1922   25.0818 H   0  0  0  0  0  0
  -20.9994  -28.3245   24.1404 H   0  0  0  0  0  0
  -20.5674  -26.2281   23.3603 H   0  0  0  0  0  0
  -21.6641  -26.7436   22.1196 H   0  0  0  0  0  0
  -19.6895  -25.6301   21.1234 H   0  0  0  0  0  0
  -19.6691  -27.3207   20.6757 H   0  0  0  0  0  0
  -17.4198  -26.6699   21.4023 H   0  0  0  0  0  0
  -18.0322  -26.0096   22.9027 H   0  0  0  0  0  0
  -19.7946  -30.7300   24.2230 H   0  0  0  0  0  0
  -17.5029  -31.6274   24.5193 H   0  0  0  0  0  0
  -15.5362  -30.3016   23.7672 H   0  0  0  0  0  0
  -15.8673  -28.0865   22.7048 H   0  0  0  0  0  0
  -24.5906  -30.7083   25.7810 H   0  0  0  0  0  0
  -24.8923  -32.2931   26.4844 H   0  0  0  0  0  0
  -25.8069  -30.8969   27.0245 H   0  0  0  0  0  0
  -26.2889  -29.6787   24.1163 H   0  0  0  0  0  0
  -27.4036  -29.7263   25.4632 H   0  0  0  0  0  0
  -27.8758  -30.4331   23.9358 H   0  0  0  0  0  0
  -27.2624  -33.3632   26.2060 H   0  0  0  0  0  0
  -28.3858  -32.6888   25.0336 H   0  0  0  0  0  0
  -28.0682  -31.8463   26.5427 H   0  0  0  0  0  0
  -28.2597  -38.0093   24.7512 H   0  0  0  0  0  0
  -28.1053  -36.2617   24.6298 H   0  0  0  0  0  0
  -27.2296  -37.1461   25.8877 H   0  0  0  0  0  0
  -20.9340  -29.8780   21.6924 H   0  0  0  0  0  0
  -26.0152  -38.2846   24.1427 H   0  0  0  0  0  0
  -28.3144  -18.0542   21.8372 H   0  0  0  0  0  0
  -27.4535  -20.2995   22.0314 H   0  0  0  0  0  0
  -31.1925  -19.4253   18.9594 H   0  0  0  0  0  0
  -26.8599  -25.0845   22.4103 H   0  0  0  0  0  0
  -26.1738  -24.7265   20.8232 H   0  0  0  0  0  0
  -29.9651  -23.9099   20.0634 H   0  0  0  0  0  0
  -28.5430  -23.8800   19.0226 H   0  0  0  0  0  0
  -29.0176  -25.3474   21.6224 H   0  0  0  0  0  0
  -31.4690  -17.2277   20.8964 H   0  0  0  0  0  0
  -30.9321  -17.0496   19.2590 H   0  0  0  0  0  0
  -28.9724  -15.7428   20.8062 H   0  0  0  0  0  0
  1 25  1  0  0  0
  1 30  2  0  0  0
  1 83  1  0  0  0
  2  3  1  0  0  0
  2 25  1  0  0  0
  2 86  1  0  0  0
  2 87  1  0  0  0
  3  4  1  0  0  0
  3 88  1  0  0  0
  3 89  1  0  0  0
  4  5  1  0  0  0
  4 90  1  0  0  0
  4 91  1  0  0  0
  5  6  1  0  0  0
  5 26  1  0  0  0
  5 92  1  0  0  0
  6 25  1  0  0  0
  6 93  1  0  0  0
  6 94  1  0  0  0
  7  8  2  0  0  0
  7 26  1  0  0  0
  7 29  1  0  0  0
  8  9  1  0  0  0
  8 22  1  0  0  0
  9 10  1  0  0  0
  9 27  2  0  0  0
 10 11  2  0  0  0
 10 15  1  0  0  0
 11 12  1  0  0  0
 11 95  1  0  0  0
 12 13  2  0  0  0
 12 96  1  0  0  0
 13 14  1  0  0  0
 13 31  1  0  0  0
 14 15  2  0  0  0
 14 97  1  0  0  0
 15 98  1  0  0  0
 16 17  2  0  0  0
 16 21  1  0  0  0
 16 31  1  0  0  0
 17 18  1  0  0  0
 17 99  1  0  0  0
 18 19  2  0  0  0
 18100  1  0  0  0
 19 20  1  0  0  0
 19 24  1  0  0  0
 20 21  2  0  0  0
 20101  1  0  0  0
 21 23  1  0  0  0
 22 28  1  0  0  0
 22 32  2  0  0  0
 26 27  1  0  0  0
 28102  1  0  0  0
 28103  1  0  0  0
 29104  1  0  0  0
 29105  1  0  0  0
 33 34  1  0  0  0
 33 66  1  0  0  0
 33 70  2  0  0  0
 34 36  1  0  0  0
 34 59  1  0  0  0
 34106  1  0  0  0
 35 44  2  0  0  0
 35 45  1  0  0  0
 35 68  1  0  0  0
 36 56  1  0  0  0
 36107  1  0  0  0
 37 39  1  0  0  0
 37 47  1  0  0  0
 37 66  1  0  0  0
 37108  1  0  0  0
 38 43  2  0  0  0
 38 46  1  0  0  0
 38 47  1  0  0  0
 39 64  1  0  0  0
 39 67  2  0  0  0
 40 52  1  0  0  0
 40 53  2  0  0  0
 40 58  1  0  0  0
 41109  1  0  0  0
 41110  1  0  0  0
 41111  1  0  0  0
 41 48  1  0  0  0
 42 43  1  0  0  0
 42 66  1  0  0  0
 42112  1  0  0  0
 42113  1  0  0  0
 43 44  1  0  0  0
 44114  1  0  0  0
 45 46  2  0  0  0
 45115  1  0  0  0
 46116  1  0  0  0
 47117  1  0  0  0
 47118  1  0  0  0
 48 56  1  0  0  0
 48 65  1  0  0  0
 48119  1  0  0  0
 49 50  1  0  0  0
 49 53  1  0  0  0
 49 64  1  0  0  0
 49120  1  0  0  0
 50 51  1  0  0  0
 50121  1  0  0  0
 50122  1  0  0  0
 51 52  1  0  0  0
 51123  1  0  0  0
 51124  1  0  0  0
 52125  1  0  0  0
 52126  1  0  0  0
 53 54  1  0  0  0
 54 55  2  0  0  0
 54127  1  0  0  0
 55 57  1  0  0  0
 55128  1  0  0  0
 56 69  2  0  0  0
 57 58  2  0  0  0
 57129  1  0  0  0
 58130  1  0  0  0
 59 60  1  0  0  0
 59 61  1  0  0  0
 59 62  1  0  0  0
 60131  1  0  0  0
 60132  1  0  0  0
 60133  1  0  0  0
 61134  1  0  0  0
 61135  1  0  0  0
 61136  1  0  0  0
 62137  1  0  0  0
 62138  1  0  0  0
 62139  1  0  0  0
 63 65  1  0  0  0
 63140  1  0  0  0
 63141  1  0  0  0
 63142  1  0  0  0
 64143  1  0  0  0
 65144  1  0  0  0
 68 80  1  0  0  0
 71 72  2  0  0  0
 71 74  1  0  0  0
 71145  1  0  0  0
 72 75  1  0  0  0
 72146  1  0  0  0
 73 74  2  0  0  0
 73 76  1  0  0  0
 73147  1  0  0  0
 74 81  1  0  0  0
 75 76  2  0  0  0
 75 82  1  0  0  0
 76 85  1  0  0  0
 77 78  1  0  0  0
 77 82  1  0  0  0
 77 84  2  0  0  0
 78 80  1  0  0  0
 78148  1  0  0  0
 78149  1  0  0  0
 79 80  1  0  0  0
 79 82  1  0  0  0
 79150  1  0  0  0
 79151  1  0  0  0
 80152  1  0  0  0
 81 83  1  0  0  0
 81153  1  0  0  0
 81154  1  0  0  0
 83155  1  0  0  0
M  ISO  4   1 100  68 101  80 101  83 100
M  END
> <chiral flag>
0

> <version>
0

> <s_m_source_file>
/data/baiqing/PycharmProjects/Reinvent-master-3.2/result/LINK_invent/BTK/process_docking_weight1_custom_product_contain_oxygen_bond_distance_aromatic_linkinvent_7_9_3/rearranged_h_0026.sdf

> <i_m_source_file_index>
97

> <r_mmod_Potential_Energy-OPLS-2005>
91.2709426879883

> <r_mmod_Stretch_Energy-OPLS-2005>
79.7973022460938

> <r_mmod_Bend_Energy-OPLS-2005>
193.53434753418

> <r_mmod_Torsional_Energy-OPLS-2005>
262.948608398438

> <r_mmod_Improper_Torsional_Energy-OPLS-2005>
6.54212427139282

> <r_mmod_Van_der_Waal_Energy-OPLS-2005>
151.881927490234

> <r_mmod_Electrostatic_Energy-OPLS-2005>
-436.936401367188

> <r_mmod_Solvation_Energy-OPLS-2005>
-213.777114868164

> <b_mmod_Minimization_Converged-OPLS-2005>
0

> <r_mmod_RMS_Derivative-OPLS-2005>
1.68711256980896

$$$$
