0
                    3D
 Structure written by MMmdl.
157165  0  0  1  0            999 V2000
  -30.7445  -14.4428   20.6354 C   0  0  0  0  0  0
  -30.4189  -12.3199   19.4082 C   0  0  0  0  0  0
  -29.4868  -12.5189   18.1978 C   0  0  0  0  0  0
  -28.0112  -12.3732   18.6150 C   0  0  0  0  0  0
  -27.6602  -13.2107   19.8735 C   0  0  2  0  0  0
  -28.7034  -12.9902   20.9912 C   0  0  0  0  0  0
  -25.2573  -13.8166   20.5668 C   0  0  0  0  0  0
  -24.1832  -13.0443   20.9180 C   0  0  0  0  0  0
  -24.6397  -11.6914   20.8738 C   0  0  0  0  0  0
  -23.9069  -10.4295   21.0406 C   0  0  0  0  0  0
  -24.3616   -9.4212   21.9183 C   0  0  0  0  0  0
  -23.6293   -8.2243   22.0755 C   0  0  0  0  0  0
  -22.4275   -8.0279   21.3550 C   0  0  0  0  0  0
  -21.9910   -9.0252   20.4645 C   0  0  0  0  0  0
  -22.7241  -10.2130   20.3051 C   0  0  0  0  0  0
  -21.6855   -6.0733   22.5283 C   0  0  0  0  0  0
  -21.4010   -6.5638   23.8215 C   0  0  0  0  0  0
  -21.3660   -5.6789   24.9176 C   0  0  0  0  0  0
  -21.6047   -4.3052   24.7222 C   0  0  0  0  0  0
  -21.8821   -3.8143   23.4346 C   0  0  0  0  0  0
  -21.9191   -4.6961   22.3405 C   0  0  0  0  0  0
  -22.7855  -13.5234   21.1844 C   0  0  0  0  0  0
  -22.1659   -4.2146   21.0982 F   0  0  0  0  0  0
  -21.5630   -3.4536   25.7734 F   0  0  0  0  0  0
  -30.0359  -13.2964   20.4404 N   0  0  0  0  0  0
  -26.3018  -12.9349   20.3361 N   0  0  0  0  0  0
  -25.9323  -11.6503   20.5775 N   0  0  0  0  0  0
  -22.0488  -12.8216   22.0387 N   0  0  0  0  0  0
  -25.4276  -15.1880   20.4048 N   0  0  0  0  0  0
  -31.8274  -14.6599   20.0865 O   0  0  0  0  0  0
  -21.6641   -6.8875   21.4244 O   0  0  0  0  0  0
  -22.3541  -14.5545   20.6707 O   0  0  0  0  0  0
  -24.6178  -31.8676   23.2107 C   0  0  0  0  0  0
  -25.9073  -32.4818   23.8399 C   0  0  1  0  0  0
  -27.2253  -27.4137   20.0926 C   0  0  0  0  0  0
  -25.5933  -33.8615   24.2340 N   0  0  0  0  0  0
  -23.4046  -30.4949   21.5522 C   0  0  2  0  0  0
  -24.8479  -28.9646   20.1124 C   0  0  0  0  0  0
  -22.7422  -29.4672   22.4984 C   0  0  0  0  0  0
  -18.0275  -28.1371   22.8495 C   0  0  0  0  0  0
  -24.1491  -36.7297   23.2635 C   0  0  0  0  0  0
  -25.9375  -30.8287   21.3657 C   0  0  0  0  0  0
  -26.0125  -29.4639   20.7084 C   0  0  0  0  0  0
  -27.2050  -28.6982   20.6924 C   0  0  0  0  0  0
  -26.0355  -26.9440   19.4825 C   0  0  0  0  0  0
  -24.8560  -27.7058   19.4948 C   0  0  0  0  0  0
  -23.6114  -29.8320   20.1653 C   0  0  0  0  0  0
  -25.4111  -36.3104   24.0342 C   0  0  1  0  0  0
  -20.5867  -28.3666   23.1304 C   0  0  2  0  0  0
  -20.6761  -26.9399   22.5413 C   0  0  0  0  0  0
  -19.5746  -26.6383   21.5204 C   0  0  0  0  0  0
  -18.1923  -26.7921   22.1609 C   0  0  0  0  0  0
  -19.1524  -28.8833   23.2899 C   0  0  0  0  0  0
  -18.9452  -30.1437   23.8908 C   0  0  0  0  0  0
  -17.6454  -30.6575   24.0563 C   0  0  0  0  0  0
  -25.9045  -34.9471   23.5132 C   0  0  0  0  0  0
  -16.5343  -29.9076   23.6328 C   0  0  0  0  0  0
  -16.7265  -28.6491   23.0354 C   0  0  0  0  0  0
  -26.4489  -31.6593   25.0727 C   0  0  0  0  0  0
  -25.3758  -31.3684   26.1476 C   0  0  0  0  0  0
  -27.0320  -30.3041   24.6097 C   0  0  0  0  0  0
  -27.6071  -32.4303   25.7488 C   0  0  0  0  0  0
  -27.5580  -37.1809   24.8459 C   0  0  0  0  0  0
  -21.4149  -29.3034   22.3714 N   0  0  0  0  0  0
  -26.4290  -37.3796   23.9411 N   0  0  0  0  0  0
  -24.6719  -31.0778   22.1007 N   0  0  0  0  0  0
  -23.4195  -28.8208   23.3022 O   0  0  0  0  0  0
  -28.3764  -26.6410   20.1232 O   0  0  0  0  0  0
  -26.5588  -34.8925   22.4682 O   0  0  0  0  0  0
  -23.5371  -32.1423   23.7506 O   0  0  0  0  0  0
  -29.2949  -19.8500   20.9675 C   0  0  0  0  0  0
  -31.7058  -20.0609   20.9571 C   0  0  0  0  0  0
  -29.4066  -18.4840   21.3442 C   0  0  0  0  0  0
  -30.6882  -17.8951   21.5388 C   0  0  0  0  0  0
  -30.4422  -20.6605   20.7900 C   0  0  0  0  0  0
  -31.8306  -18.7060   21.3279 C   0  0  0  0  0  0
  -29.3862  -24.3526   20.3468 C   0  0  0  0  0  0
  -28.1309  -17.6901   21.5709 C   0  0  0  0  0  0
  -30.8948  -16.4708   22.0989 C   0  0  0  0  0  0
  -29.1523  -22.8240   20.4609 C   0  0  0  0  0  0
  -28.1646  -25.2164   19.9751 C   0  0  0  0  0  0
  -30.3919  -22.0335   20.4646 N   0  0  0  0  0  0
  -30.1931  -15.3405   21.4684 N   0  0  0  0  0  0
  -30.5072  -24.8420   20.5349 O   0  0  0  0  0  0
  -33.0736  -18.1978   21.5135 F   0  0  0  0  0  0
  -31.4621  -12.4194   19.1024 H   0  0  0  0  0  0
  -30.3231  -11.3064   19.8012 H   0  0  0  0  0  0
  -29.7269  -11.7993   17.4141 H   0  0  0  0  0  0
  -29.6493  -13.5071   17.7655 H   0  0  0  0  0  0
  -27.8238  -11.3164   18.8084 H   0  0  0  0  0  0
  -27.3571  -12.6476   17.7866 H   0  0  0  0  0  0
  -27.7052  -14.2604   19.5814 H   0  0  0  0  0  0
  -28.6818  -11.9531   21.3285 H   0  0  0  0  0  0
  -28.4534  -13.5829   21.8712 H   0  0  0  0  0  0
  -25.2763   -9.5684   22.4754 H   0  0  0  0  0  0
  -24.0006   -7.4632   22.7471 H   0  0  0  0  0  0
  -21.0846   -8.8768   19.8946 H   0  0  0  0  0  0
  -22.3709  -10.9663   19.6148 H   0  0  0  0  0  0
  -21.2000   -7.6144   23.9719 H   0  0  0  0  0  0
  -21.1479   -6.0515   25.9078 H   0  0  0  0  0  0
  -22.0596   -2.7604   23.2845 H   0  0  0  0  0  0
  -22.4091  -11.9859   22.4748 H   0  0  0  0  0  0
  -21.1098  -13.1234   22.2578 H   0  0  0  0  0  0
  -24.6581  -15.8415   20.5019 H   0  0  0  0  0  0
  -26.2745  -15.6207   20.0594 H   0  0  0  0  0  0
  -26.7145  -32.5522   23.1163 H   0  0  0  0  0  0
  -25.0157  -33.9776   25.0536 H   0  0  0  0  0  0
  -22.6944  -31.3131   21.4160 H   0  0  0  0  0  0
  -23.3757  -35.9622   23.3296 H   0  0  0  0  0  0
  -24.3589  -36.8905   22.2048 H   0  0  0  0  0  0
  -23.7232  -37.6502   23.6639 H   0  0  0  0  0  0
  -26.0546  -31.5963   20.5992 H   0  0  0  0  0  0
  -26.8238  -30.8773   21.9861 H   0  0  0  0  0  0
  -28.1017  -29.0807   21.1597 H   0  0  0  0  0  0
  -25.9864  -25.9859   18.9873 H   0  0  0  0  0  0
  -23.9625  -27.3172   19.0251 H   0  0  0  0  0  0
  -23.7164  -30.6079   19.4061 H   0  0  0  0  0  0
  -22.7356  -29.2510   19.8709 H   0  0  0  0  0  0
  -25.1287  -36.1969   25.0836 H   0  0  0  0  0  0
  -20.9964  -28.3221   24.1420 H   0  0  0  0  0  0
  -20.5646  -26.2279   23.3604 H   0  0  0  0  0  0
  -21.6631  -26.7431   22.1210 H   0  0  0  0  0  0
  -19.6905  -25.6297   21.1223 H   0  0  0  0  0  0
  -19.6694  -27.3200   20.6742 H   0  0  0  0  0  0
  -17.4207  -26.6699   21.3993 H   0  0  0  0  0  0
  -18.0309  -26.0042   22.8981 H   0  0  0  0  0  0
  -19.7931  -30.7254   24.2277 H   0  0  0  0  0  0
  -17.5011  -31.6255   24.5162 H   0  0  0  0  0  0
  -15.5342  -30.2984   23.7646 H   0  0  0  0  0  0
  -15.8662  -28.0809   22.7069 H   0  0  0  0  0  0
  -24.5982  -30.6963   25.7826 H   0  0  0  0  0  0
  -24.8885  -32.2821   26.4885 H   0  0  0  0  0  0
  -25.8131  -30.8913   27.0257 H   0  0  0  0  0  0
  -26.2861  -29.6808   24.1151 H   0  0  0  0  0  0
  -27.4096  -29.7273   25.4550 H   0  0  0  0  0  0
  -27.8699  -30.4359   23.9247 H   0  0  0  0  0  0
  -27.2704  -33.3615   26.2051 H   0  0  0  0  0  0
  -28.3889  -32.6826   25.0312 H   0  0  0  0  0  0
  -28.0723  -31.8426   26.5411 H   0  0  0  0  0  0
  -28.2590  -38.0114   24.7520 H   0  0  0  0  0  0
  -28.1080  -36.2647   24.6258 H   0  0  0  0  0  0
  -27.2307  -37.1430   25.8864 H   0  0  0  0  0  0
  -20.9313  -29.8782   21.6956 H   0  0  0  0  0  0
  -26.0173  -38.2871   24.1413 H   0  0  0  0  0  0
  -28.3111  -20.2770   20.8362 H   0  0  0  0  0  0
  -32.6062  -20.6421   20.8237 H   0  0  0  0  0  0
  -27.2588  -18.3423   21.6274 H   0  0  0  0  0  0
  -28.1754  -17.1288   22.5043 H   0  0  0  0  0  0
  -27.9707  -16.9899   20.7510 H   0  0  0  0  0  0
  -30.5750  -16.4950   23.1409 H   0  0  0  0  0  0
  -31.9602  -16.2397   22.1516 H   0  0  0  0  0  0
  -28.5238  -22.5083   19.6273 H   0  0  0  0  0  0
  -28.5906  -22.6331   21.3761 H   0  0  0  0  0  0
  -27.3344  -24.8984   20.6077 H   0  0  0  0  0  0
  -27.9027  -24.9866   18.9422 H   0  0  0  0  0  0
  -31.2488  -22.5842   20.4717 H   0  0  0  0  0  0
  -29.2925  -15.0960   21.8501 H   0  0  0  0  0  0
  1 25  1  0  0  0
  1 30  2  0  0  0
  1 83  1  0  0  0
  2  3  1  0  0  0
  2 25  1  0  0  0
  2 86  1  0  0  0
  2 87  1  0  0  0
  3  4  1  0  0  0
  3 88  1  0  0  0
  3 89  1  0  0  0
  4  5  1  0  0  0
  4 90  1  0  0  0
  4 91  1  0  0  0
  5  6  1  0  0  0
  5 26  1  0  0  0
  5 92  1  0  0  0
  6 25  1  0  0  0
  6 93  1  0  0  0
  6 94  1  0  0  0
  7  8  2  0  0  0
  7 26  1  0  0  0
  7 29  1  0  0  0
  8  9  1  0  0  0
  8 22  1  0  0  0
  9 10  1  0  0  0
  9 27  2  0  0  0
 10 11  2  0  0  0
 10 15  1  0  0  0
 11 12  1  0  0  0
 11 95  1  0  0  0
 12 13  2  0  0  0
 12 96  1  0  0  0
 13 14  1  0  0  0
 13 31  1  0  0  0
 14 15  2  0  0  0
 14 97  1  0  0  0
 15 98  1  0  0  0
 16 17  2  0  0  0
 16 21  1  0  0  0
 16 31  1  0  0  0
 17 18  1  0  0  0
 17 99  1  0  0  0
 18 19  2  0  0  0
 18100  1  0  0  0
 19 20  1  0  0  0
 19 24  1  0  0  0
 20 21  2  0  0  0
 20101  1  0  0  0
 21 23  1  0  0  0
 22 28  1  0  0  0
 22 32  2  0  0  0
 26 27  1  0  0  0
 28102  1  0  0  0
 28103  1  0  0  0
 29104  1  0  0  0
 29105  1  0  0  0
 33 34  1  0  0  0
 33 66  1  0  0  0
 33 70  2  0  0  0
 34 36  1  0  0  0
 34 59  1  0  0  0
 34106  1  0  0  0
 35 44  2  0  0  0
 35 45  1  0  0  0
 35 68  1  0  0  0
 36 56  1  0  0  0
 36107  1  0  0  0
 37 39  1  0  0  0
 37 47  1  0  0  0
 37 66  1  0  0  0
 37108  1  0  0  0
 38 43  2  0  0  0
 38 46  1  0  0  0
 38 47  1  0  0  0
 39 64  1  0  0  0
 39 67  2  0  0  0
 40 52  1  0  0  0
 40 53  2  0  0  0
 40 58  1  0  0  0
 41109  1  0  0  0
 41110  1  0  0  0
 41111  1  0  0  0
 41 48  1  0  0  0
 42 43  1  0  0  0
 42 66  1  0  0  0
 42112  1  0  0  0
 42113  1  0  0  0
 43 44  1  0  0  0
 44114  1  0  0  0
 45 46  2  0  0  0
 45115  1  0  0  0
 46116  1  0  0  0
 47117  1  0  0  0
 47118  1  0  0  0
 48 56  1  0  0  0
 48 65  1  0  0  0
 48119  1  0  0  0
 49 50  1  0  0  0
 49 53  1  0  0  0
 49 64  1  0  0  0
 49120  1  0  0  0
 50 51  1  0  0  0
 50121  1  0  0  0
 50122  1  0  0  0
 51 52  1  0  0  0
 51123  1  0  0  0
 51124  1  0  0  0
 52125  1  0  0  0
 52126  1  0  0  0
 53 54  1  0  0  0
 54 55  2  0  0  0
 54127  1  0  0  0
 55 57  1  0  0  0
 55128  1  0  0  0
 56 69  2  0  0  0
 57 58  2  0  0  0
 57129  1  0  0  0
 58130  1  0  0  0
 59 60  1  0  0  0
 59 61  1  0  0  0
 59 62  1  0  0  0
 60131  1  0  0  0
 60132  1  0  0  0
 60133  1  0  0  0
 61134  1  0  0  0
 61135  1  0  0  0
 61136  1  0  0  0
 62137  1  0  0  0
 62138  1  0  0  0
 62139  1  0  0  0
 63 65  1  0  0  0
 63140  1  0  0  0
 63141  1  0  0  0
 63142  1  0  0  0
 64143  1  0  0  0
 65144  1  0  0  0
 68 81  1  0  0  0
 71 73  2  0  0  0
 71 75  1  0  0  0
 71145  1  0  0  0
 72 75  2  0  0  0
 72 76  1  0  0  0
 72146  1  0  0  0
 73 74  1  0  0  0
 73 78  1  0  0  0
 74 76  2  0  0  0
 74 79  1  0  0  0
 75 82  1  0  0  0
 76 85  1  0  0  0
 77 80  1  0  0  0
 77 81  1  0  0  0
 77 84  2  0  0  0
 78147  1  0  0  0
 78148  1  0  0  0
 78149  1  0  0  0
 79 83  1  0  0  0
 79150  1  0  0  0
 79151  1  0  0  0
 80 82  1  0  0  0
 80152  1  0  0  0
 80153  1  0  0  0
 81154  1  0  0  0
 81155  1  0  0  0
 82156  1  0  0  0
 83157  1  0  0  0
M  ISO  4   1 100  68 101  81 101  83 100
M  END
> <chiral flag>
0

> <version>
0

> <s_m_source_file>
/data/baiqing/PycharmProjects/Reinvent-master-3.2/result/LINK_invent/BTK/process_docking_weight1_custom_product_contain_oxygen_bond_distance_aromatic_linkinvent_7_9_3/rearranged_h_0100.sdf

> <i_m_source_file_index>
1

> <r_mmod_Potential_Energy-OPLS-2005>
-48.1775512695312

> <r_mmod_Stretch_Energy-OPLS-2005>
42.164966583252

> <r_mmod_Bend_Energy-OPLS-2005>
110.826919555664

> <r_mmod_Torsional_Energy-OPLS-2005>
185.49951171875

> <r_mmod_Improper_Torsional_Energy-OPLS-2005>
3.43887329101562

> <r_mmod_Van_der_Waal_Energy-OPLS-2005>
156.392364501953

> <r_mmod_Electrostatic_Energy-OPLS-2005>
-314.070434570312

> <r_mmod_Solvation_Energy-OPLS-2005>
-245.505981445312

> <b_mmod_Minimization_Converged-OPLS-2005>
0

> <r_mmod_RMS_Derivative-OPLS-2005>
1.12628698348999

$$$$
1
                    3D
 Structure written by MMmdl.
158166  0  0  1  0            999 V2000
  -30.7657  -14.3948   20.6959 C   0  0  0  0  0  0
  -30.4176  -12.3141   19.3991 C   0  0  0  0  0  0
  -29.4850  -12.5341   18.1941 C   0  0  0  0  0  0
  -28.0109  -12.3779   18.6109 C   0  0  0  0  0  0
  -27.6631  -13.2067   19.8741 C   0  0  2  0  0  0
  -28.6993  -12.9686   20.9920 C   0  0  0  0  0  0
  -25.2596  -13.8164   20.5668 C   0  0  0  0  0  0
  -24.1842  -13.0441   20.9159 C   0  0  0  0  0  0
  -24.6394  -11.6908   20.8716 C   0  0  0  0  0  0
  -23.9060  -10.4295   21.0398 C   0  0  0  0  0  0
  -24.3613   -9.4214   21.9179 C   0  0  0  0  0  0
  -23.6292   -8.2248   22.0753 C   0  0  0  0  0  0
  -22.4274   -8.0282   21.3545 C   0  0  0  0  0  0
  -21.9906   -9.0254   20.4645 C   0  0  0  0  0  0
  -22.7232  -10.2135   20.3051 C   0  0  0  0  0  0
  -21.6852   -6.0736   22.5278 C   0  0  0  0  0  0
  -21.4012   -6.5639   23.8212 C   0  0  0  0  0  0
  -21.3662   -5.6792   24.9174 C   0  0  0  0  0  0
  -21.6045   -4.3055   24.7225 C   0  0  0  0  0  0
  -21.8819   -3.8146   23.4346 C   0  0  0  0  0  0
  -21.9192   -4.6963   22.3402 C   0  0  0  0  0  0
  -22.7867  -13.5244   21.1833 C   0  0  0  0  0  0
  -22.1661   -4.2150   21.0979 F   0  0  0  0  0  0
  -21.5633   -3.4541   25.7740 F   0  0  0  0  0  0
  -30.0427  -13.2639   20.4589 N   0  0  0  0  0  0
  -26.3029  -12.9334   20.3346 N   0  0  0  0  0  0
  -25.9320  -11.6491   20.5736 N   0  0  0  0  0  0
  -22.0511  -12.8235   22.0391 N   0  0  0  0  0  0
  -25.4336  -15.1880   20.4093 N   0  0  0  0  0  0
  -31.7707  -14.6958   20.0418 O   0  0  0  0  0  0
  -21.6641   -6.8879   21.4240 O   0  0  0  0  0  0
  -22.3550  -14.5555   20.6692 O   0  0  0  0  0  0
  -24.6138  -31.8678   23.2097 C   0  0  0  0  0  0
  -25.9034  -32.4822   23.8392 C   0  0  1  0  0  0
  -27.2357  -27.4438   20.0964 C   0  0  0  0  0  0
  -25.5893  -33.8621   24.2326 N   0  0  0  0  0  0
  -23.4019  -30.4898   21.5499 C   0  0  2  0  0  0
  -24.8501  -28.9550   20.1150 C   0  0  0  0  0  0
  -22.7404  -29.4656   22.4997 C   0  0  0  0  0  0
  -18.0269  -28.1374   22.8495 C   0  0  0  0  0  0
  -24.1486  -36.7314   23.2635 C   0  0  0  0  0  0
  -25.9294  -30.8369   21.3606 C   0  0  0  0  0  0
  -26.0096  -29.4716   20.7082 C   0  0  0  0  0  0
  -27.2094  -28.7242   20.6931 C   0  0  0  0  0  0
  -26.0631  -26.9361   19.5014 C   0  0  0  0  0  0
  -24.8711  -27.6860   19.5082 C   0  0  0  0  0  0
  -23.6100  -29.8193   20.1654 C   0  0  0  0  0  0
  -25.4104  -36.3113   24.0339 C   0  0  1  0  0  0
  -20.5859  -28.3659   23.1323 C   0  0  2  0  0  0
  -20.6760  -26.9395   22.5421 C   0  0  0  0  0  0
  -19.5742  -26.6382   21.5213 C   0  0  0  0  0  0
  -18.1916  -26.7923   22.1619 C   0  0  0  0  0  0
  -19.1518  -28.8834   23.2905 C   0  0  0  0  0  0
  -18.9448  -30.1442   23.8912 C   0  0  0  0  0  0
  -17.6451  -30.6582   24.0567 C   0  0  0  0  0  0
  -25.9036  -34.9479   23.5132 C   0  0  0  0  0  0
  -16.5342  -29.9084   23.6328 C   0  0  0  0  0  0
  -16.7260  -28.6500   23.0349 C   0  0  0  0  0  0
  -26.4469  -31.6598   25.0715 C   0  0  0  0  0  0
  -25.3742  -31.3697   26.1469 C   0  0  0  0  0  0
  -27.0295  -30.3042   24.6081 C   0  0  0  0  0  0
  -27.6048  -32.4314   25.7476 C   0  0  0  0  0  0
  -27.5594  -37.1794   24.8452 C   0  0  0  0  0  0
  -21.4133  -29.3029   22.3734 N   0  0  0  0  0  0
  -26.4286  -37.3804   23.9428 N   0  0  0  0  0  0
  -24.6665  -31.0787   22.0989 N   0  0  0  0  0  0
  -23.4178  -28.8201   23.3040 O   0  0  0  0  0  0
  -28.3839  -26.6860   20.0937 O   0  0  0  0  0  0
  -26.5603  -34.8930   22.4697 O   0  0  0  0  0  0
  -23.5333  -32.1426   23.7499 O   0  0  0  0  0  0
  -29.8984  -17.2569   20.4692 C   0  0  0  0  0  0
  -29.4832  -18.6123   20.4450 C   0  0  0  0  0  0
  -29.4776  -17.1703   22.8546 C   0  0  0  0  0  0
  -29.9229  -16.5107   21.6809 C   0  0  0  0  0  0
  -29.0618  -19.2542   21.6311 C   0  0  0  0  0  0
  -29.0552  -18.5125   22.8301 C   0  0  0  0  0  0
  -30.7155  -14.5784   23.0839 C   0  0  0  0  0  0
  -28.5331  -23.0094   21.2430 C   0  0  0  0  0  0
  -28.6442  -24.2028   20.2629 C   0  0  0  0  0  0
  -28.8580  -21.6059   20.6748 C   0  0  0  0  0  0
  -28.3342  -25.5470   20.9663 C   0  0  0  0  0  0
  -28.6307  -20.5922   21.7041 N   0  0  0  0  0  0
  -30.3803  -15.1377   21.7634 N   0  0  0  0  0  0
  -28.6425  -19.1037   23.9795 F   0  0  0  0  0  0
  -31.4603  -12.4210   19.0942 H   0  0  0  0  0  0
  -30.3237  -11.2931   19.7721 H   0  0  0  0  0  0
  -29.7251  -11.8290   17.3971 H   0  0  0  0  0  0
  -29.6465  -13.5310   17.7804 H   0  0  0  0  0  0
  -27.8274  -11.3195   18.7990 H   0  0  0  0  0  0
  -27.3548  -12.6579   17.7860 H   0  0  0  0  0  0
  -27.7154  -14.2587   19.5924 H   0  0  0  0  0  0
  -28.6658  -11.9312   21.3279 H   0  0  0  0  0  0
  -28.4347  -13.5660   21.8639 H   0  0  0  0  0  0
  -25.2761   -9.5693   22.4749 H   0  0  0  0  0  0
  -24.0006   -7.4641   22.7474 H   0  0  0  0  0  0
  -21.0839   -8.8768   19.8952 H   0  0  0  0  0  0
  -22.3691  -10.9670   19.6158 H   0  0  0  0  0  0
  -21.2004   -7.6146   23.9715 H   0  0  0  0  0  0
  -21.1484   -6.0523   25.9077 H   0  0  0  0  0  0
  -22.0597   -2.7608   23.2847 H   0  0  0  0  0  0
  -22.4126  -11.9895   22.4774 H   0  0  0  0  0  0
  -21.1127  -13.1258   22.2599 H   0  0  0  0  0  0
  -24.6736  -15.8491   20.5258 H   0  0  0  0  0  0
  -26.2977  -15.6258   20.1152 H   0  0  0  0  0  0
  -26.7107  -32.5543   23.1160 H   0  0  0  0  0  0
  -25.0048  -33.9785   25.0475 H   0  0  0  0  0  0
  -22.6904  -31.3062   21.4097 H   0  0  0  0  0  0
  -23.3761  -35.9630   23.3262 H   0  0  0  0  0  0
  -24.3594  -36.8968   22.2058 H   0  0  0  0  0  0
  -23.7212  -37.6495   23.6673 H   0  0  0  0  0  0
  -26.0393  -31.6035   20.5925 H   0  0  0  0  0  0
  -26.8178  -30.8917   21.9780 H   0  0  0  0  0  0
  -28.1065  -29.1184   21.1499 H   0  0  0  0  0  0
  -26.0739  -25.9595   19.0380 H   0  0  0  0  0  0
  -23.9797  -27.2811   19.0494 H   0  0  0  0  0  0
  -23.7146  -30.5924   19.4034 H   0  0  0  0  0  0
  -22.7352  -29.2359   19.8725 H   0  0  0  0  0  0
  -25.1272  -36.1975   25.0829 H   0  0  0  0  0  0
  -20.9948  -28.3222   24.1444 H   0  0  0  0  0  0
  -20.5661  -26.2264   23.3604 H   0  0  0  0  0  0
  -21.6633  -26.7436   22.1220 H   0  0  0  0  0  0
  -19.6904  -25.6296   21.1232 H   0  0  0  0  0  0
  -19.6685  -27.3205   20.6753 H   0  0  0  0  0  0
  -17.4191  -26.6684   21.4012 H   0  0  0  0  0  0
  -18.0306  -26.0055   22.9003 H   0  0  0  0  0  0
  -19.7924  -30.7258   24.2285 H   0  0  0  0  0  0
  -17.5004  -31.6265   24.5161 H   0  0  0  0  0  0
  -15.5345  -30.2992   23.7643 H   0  0  0  0  0  0
  -15.8657  -28.0828   22.7054 H   0  0  0  0  0  0
  -24.5918  -30.7041   25.7807 H   0  0  0  0  0  0
  -24.8934  -32.2849   26.4932 H   0  0  0  0  0  0
  -25.8104  -30.8856   27.0215 H   0  0  0  0  0  0
  -26.2831  -29.6805   24.1146 H   0  0  0  0  0  0
  -27.4082  -29.7277   25.4531 H   0  0  0  0  0  0
  -27.8659  -30.4364   23.9213 H   0  0  0  0  0  0
  -27.2669  -33.3602   26.2084 H   0  0  0  0  0  0
  -28.3843  -32.6891   25.0294 H   0  0  0  0  0  0
  -28.0731  -31.8419   26.5368 H   0  0  0  0  0  0
  -28.2563  -38.0142   24.7588 H   0  0  0  0  0  0
  -28.1144  -36.2684   24.6160 H   0  0  0  0  0  0
  -27.2331  -37.1303   25.8855 H   0  0  0  0  0  0
  -20.9291  -29.8755   21.6961 H   0  0  0  0  0  0
  -26.0173  -38.2869   24.1483 H   0  0  0  0  0  0
  -30.2165  -16.8140   19.5364 H   0  0  0  0  0  0
  -29.4903  -19.1471   19.5066 H   0  0  0  0  0  0
  -29.4478  -16.6678   23.8083 H   0  0  0  0  0  0
  -31.3752  -15.2524   23.6320 H   0  0  0  0  0  0
  -31.2302  -13.6163   23.0261 H   0  0  0  0  0  0
  -29.8142  -14.4189   23.6766 H   0  0  0  0  0  0
  -27.5188  -22.9996   21.6457 H   0  0  0  0  0  0
  -29.1894  -23.2022   22.0934 H   0  0  0  0  0  0
  -27.9543  -24.0580   19.4311 H   0  0  0  0  0  0
  -29.6462  -24.2383   19.8344 H   0  0  0  0  0  0
  -29.8942  -21.5669   20.3342 H   0  0  0  0  0  0
  -28.2250  -21.3940   19.8115 H   0  0  0  0  0  0
  -29.0661  -25.7144   21.7574 H   0  0  0  0  0  0
  -27.3700  -25.4707   21.4739 H   0  0  0  0  0  0
  -28.3971  -20.9163   22.6396 H   0  0  0  0  0  0
  1 25  1  0  0  0
  1 30  2  0  0  0
  1 83  1  0  0  0
  2  3  1  0  0  0
  2 25  1  0  0  0
  2 85  1  0  0  0
  2 86  1  0  0  0
  3  4  1  0  0  0
  3 87  1  0  0  0
  3 88  1  0  0  0
  4  5  1  0  0  0
  4 89  1  0  0  0
  4 90  1  0  0  0
  5  6  1  0  0  0
  5 26  1  0  0  0
  5 91  1  0  0  0
  6 25  1  0  0  0
  6 92  1  0  0  0
  6 93  1  0  0  0
  7  8  2  0  0  0
  7 26  1  0  0  0
  7 29  1  0  0  0
  8  9  1  0  0  0
  8 22  1  0  0  0
  9 10  1  0  0  0
  9 27  2  0  0  0
 10 11  2  0  0  0
 10 15  1  0  0  0
 11 12  1  0  0  0
 11 94  1  0  0  0
 12 13  2  0  0  0
 12 95  1  0  0  0
 13 14  1  0  0  0
 13 31  1  0  0  0
 14 15  2  0  0  0
 14 96  1  0  0  0
 15 97  1  0  0  0
 16 17  2  0  0  0
 16 21  1  0  0  0
 16 31  1  0  0  0
 17 18  1  0  0  0
 17 98  1  0  0  0
 18 19  2  0  0  0
 18 99  1  0  0  0
 19 20  1  0  0  0
 19 24  1  0  0  0
 20 21  2  0  0  0
 20100  1  0  0  0
 21 23  1  0  0  0
 22 28  1  0  0  0
 22 32  2  0  0  0
 26 27  1  0  0  0
 28101  1  0  0  0
 28102  1  0  0  0
 29103  1  0  0  0
 29104  1  0  0  0
 33 34  1  0  0  0
 33 66  1  0  0  0
 33 70  2  0  0  0
 34 36  1  0  0  0
 34 59  1  0  0  0
 34105  1  0  0  0
 35 44  2  0  0  0
 35 45  1  0  0  0
 35 68  1  0  0  0
 36 56  1  0  0  0
 36106  1  0  0  0
 37 39  1  0  0  0
 37 47  1  0  0  0
 37 66  1  0  0  0
 37107  1  0  0  0
 38 43  2  0  0  0
 38 46  1  0  0  0
 38 47  1  0  0  0
 39 64  1  0  0  0
 39 67  2  0  0  0
 40 52  1  0  0  0
 40 53  2  0  0  0
 40 58  1  0  0  0
 41108  1  0  0  0
 41109  1  0  0  0
 41110  1  0  0  0
 41 48  1  0  0  0
 42 43  1  0  0  0
 42 66  1  0  0  0
 42111  1  0  0  0
 42112  1  0  0  0
 43 44  1  0  0  0
 44113  1  0  0  0
 45 46  2  0  0  0
 45114  1  0  0  0
 46115  1  0  0  0
 47116  1  0  0  0
 47117  1  0  0  0
 48 56  1  0  0  0
 48 65  1  0  0  0
 48118  1  0  0  0
 49 50  1  0  0  0
 49 53  1  0  0  0
 49 64  1  0  0  0
 49119  1  0  0  0
 50 51  1  0  0  0
 50120  1  0  0  0
 50121  1  0  0  0
 51 52  1  0  0  0
 51122  1  0  0  0
 51123  1  0  0  0
 52124  1  0  0  0
 52125  1  0  0  0
 53 54  1  0  0  0
 54 55  2  0  0  0
 54126  1  0  0  0
 55 57  1  0  0  0
 55127  1  0  0  0
 56 69  2  0  0  0
 57 58  2  0  0  0
 57128  1  0  0  0
 58129  1  0  0  0
 59 60  1  0  0  0
 59 61  1  0  0  0
 59 62  1  0  0  0
 60130  1  0  0  0
 60131  1  0  0  0
 60132  1  0  0  0
 61133  1  0  0  0
 61134  1  0  0  0
 61135  1  0  0  0
 62136  1  0  0  0
 62137  1  0  0  0
 62138  1  0  0  0
 63 65  1  0  0  0
 63139  1  0  0  0
 63140  1  0  0  0
 63141  1  0  0  0
 64142  1  0  0  0
 65143  1  0  0  0
 68 81  1  0  0  0
 71 72  2  0  0  0
 71 74  1  0  0  0
 71144  1  0  0  0
 72 75  1  0  0  0
 72145  1  0  0  0
 73 74  2  0  0  0
 73 76  1  0  0  0
 73146  1  0  0  0
 74 83  1  0  0  0
 75 76  2  0  0  0
 75 82  1  0  0  0
 76 84  1  0  0  0
 77 83  1  0  0  0
 77147  1  0  0  0
 77148  1  0  0  0
 77149  1  0  0  0
 78 79  1  0  0  0
 78 80  1  0  0  0
 78150  1  0  0  0
 78151  1  0  0  0
 79 81  1  0  0  0
 79152  1  0  0  0
 79153  1  0  0  0
 80 82  1  0  0  0
 80154  1  0  0  0
 80155  1  0  0  0
 81156  1  0  0  0
 81157  1  0  0  0
 82158  1  0  0  0
M  ISO  4   1 100  68 101  81 101  83 100
M  END
> <chiral flag>
0

> <version>
0

> <s_m_source_file>
/data/baiqing/PycharmProjects/Reinvent-master-3.2/result/LINK_invent/BTK/process_docking_weight1_custom_product_contain_oxygen_bond_distance_aromatic_linkinvent_7_9_3/rearranged_h_0100.sdf

> <i_m_source_file_index>
2

> <r_mmod_Potential_Energy-OPLS-2005>
118.578651428223

> <r_mmod_Stretch_Energy-OPLS-2005>
40.3585166931152

> <r_mmod_Bend_Energy-OPLS-2005>
108.990097045898

> <r_mmod_Torsional_Energy-OPLS-2005>
288.166259765625

> <r_mmod_Improper_Torsional_Energy-OPLS-2005>
3.34227085113525

> <r_mmod_Van_der_Waal_Energy-OPLS-2005>
156.316360473633

> <r_mmod_Electrostatic_Energy-OPLS-2005>
-299.36572265625

> <r_mmod_Solvation_Energy-OPLS-2005>
-187.911209106445

> <b_mmod_Minimization_Converged-OPLS-2005>
0

> <r_mmod_RMS_Derivative-OPLS-2005>
0.400145351886749

$$$$
2
                    3D
 Structure written by MMmdl.
160168  0  0  1  0            999 V2000
  -30.7464  -14.4236   20.6443 C   0  0  0  0  0  0
  -30.4180  -12.3049   19.4210 C   0  0  0  0  0  0
  -29.4935  -12.5297   18.2071 C   0  0  0  0  0  0
  -28.0134  -12.3851   18.6100 C   0  0  0  0  0  0
  -27.6641  -13.2035   19.8798 C   0  0  2  0  0  0
  -28.6970  -12.9474   20.9975 C   0  0  0  0  0  0
  -25.2592  -13.8154   20.5668 C   0  0  0  0  0  0
  -24.1838  -13.0436   20.9161 C   0  0  0  0  0  0
  -24.6384  -11.6902   20.8713 C   0  0  0  0  0  0
  -23.9048  -10.4295   21.0395 C   0  0  0  0  0  0
  -24.3605   -9.4218   21.9180 C   0  0  0  0  0  0
  -23.6285   -8.2251   22.0755 C   0  0  0  0  0  0
  -22.4269   -8.0281   21.3543 C   0  0  0  0  0  0
  -21.9898   -9.0251   20.4642 C   0  0  0  0  0  0
  -22.7219  -10.2134   20.3048 C   0  0  0  0  0  0
  -21.6853   -6.0737   22.5281 C   0  0  0  0  0  0
  -21.4011   -6.5639   23.8214 C   0  0  0  0  0  0
  -21.3660   -5.6792   24.9176 C   0  0  0  0  0  0
  -21.6045   -4.3053   24.7226 C   0  0  0  0  0  0
  -21.8821   -3.8145   23.4346 C   0  0  0  0  0  0
  -21.9191   -4.6962   22.3405 C   0  0  0  0  0  0
  -22.7864  -13.5238   21.1832 C   0  0  0  0  0  0
  -22.1663   -4.2147   21.0981 F   0  0  0  0  0  0
  -21.5631   -3.4539   25.7739 F   0  0  0  0  0  0
  -30.0399  -13.2653   20.4740 N   0  0  0  0  0  0
  -26.3025  -12.9315   20.3356 N   0  0  0  0  0  0
  -25.9306  -11.6476   20.5729 N   0  0  0  0  0  0
  -22.0508  -12.8237   22.0394 N   0  0  0  0  0  0
  -25.4317  -15.1874   20.4107 N   0  0  0  0  0  0
  -31.7928  -14.6649   20.0316 O   0  0  0  0  0  0
  -21.6637   -6.8875   21.4241 O   0  0  0  0  0  0
  -22.3553  -14.5551   20.6691 O   0  0  0  0  0  0
  -24.6146  -31.8678   23.2112 C   0  0  0  0  0  0
  -25.9038  -32.4814   23.8408 C   0  0  1  0  0  0
  -27.2346  -27.4296   20.0893 C   0  0  0  0  0  0
  -25.5897  -33.8616   24.2334 N   0  0  0  0  0  0
  -23.4024  -30.4919   21.5532 C   0  0  2  0  0  0
  -24.8469  -28.9582   20.1166 C   0  0  0  0  0  0
  -22.7407  -29.4659   22.5010 C   0  0  0  0  0  0
  -18.0266  -28.1380   22.8496 C   0  0  0  0  0  0
  -24.1480  -36.7311   23.2648 C   0  0  0  0  0  0
  -25.9329  -30.8304   21.3666 C   0  0  0  0  0  0
  -26.0082  -29.4657   20.7115 C   0  0  0  0  0  0
  -27.2025  -28.7081   20.6953 C   0  0  0  0  0  0
  -26.0490  -26.9386   19.4914 C   0  0  0  0  0  0
  -24.8623  -27.6939   19.5055 C   0  0  0  0  0  0
  -23.6088  -29.8243   20.1685 C   0  0  0  0  0  0
  -25.4105  -36.3109   24.0343 C   0  0  1  0  0  0
  -20.5859  -28.3663   23.1322 C   0  0  2  0  0  0
  -20.6757  -26.9400   22.5416 C   0  0  0  0  0  0
  -19.5731  -26.6386   21.5213 C   0  0  0  0  0  0
  -18.1909  -26.7932   22.1623 C   0  0  0  0  0  0
  -19.1517  -28.8838   23.2904 C   0  0  0  0  0  0
  -18.9445  -30.1448   23.8906 C   0  0  0  0  0  0
  -17.6447  -30.6584   24.0567 C   0  0  0  0  0  0
  -25.9032  -34.9473   23.5133 C   0  0  0  0  0  0
  -16.5337  -29.9083   23.6339 C   0  0  0  0  0  0
  -16.7256  -28.6500   23.0359 C   0  0  0  0  0  0
  -26.4483  -31.6599   25.0737 C   0  0  0  0  0  0
  -25.3750  -31.3681   26.1480 C   0  0  0  0  0  0
  -27.0354  -30.3052   24.6127 C   0  0  0  0  0  0
  -27.6048  -32.4344   25.7491 C   0  0  0  0  0  0
  -27.5577  -37.1810   24.8475 C   0  0  0  0  0  0
  -21.4136  -29.3031   22.3733 N   0  0  0  0  0  0
  -26.4297  -37.3788   23.9409 N   0  0  0  0  0  0
  -24.6685  -31.0775   22.1017 N   0  0  0  0  0  0
  -23.4172  -28.8197   23.3051 O   0  0  0  0  0  0
  -28.4164  -26.7095   20.1079 O   0  0  0  0  0  0
  -26.5591  -34.8921   22.4691 O   0  0  0  0  0  0
  -23.5333  -32.1440   23.7497 O   0  0  0  0  0  0
  -30.4068  -17.9883   21.8274 C   0  0  0  0  0  0
  -30.2491  -19.2981   21.3246 C   0  0  0  0  0  0
  -29.4739  -17.0821   19.7826 C   0  0  0  0  0  0
  -30.0380  -16.8563   21.0617 C   0  0  0  0  0  0
  -29.7048  -19.5115   20.0382 C   0  0  0  0  0  0
  -29.3008  -18.3942   19.2669 C   0  0  0  0  0  0
  -30.2024  -15.4728   21.6195 C   0  0  0  0  0  0
  -28.1849  -17.5760   17.2966 C   0  0  0  0  0  0
  -29.8937  -23.2381   19.3646 C   0  0  0  0  0  0
  -29.7269  -24.6373   20.0099 C   0  0  0  0  0  0
  -29.4397  -22.0317   20.2180 C   0  0  0  0  0  0
  -28.3840  -25.3328   19.7035 C   0  0  0  0  0  0
  -29.9773  -15.2273   22.8450 N   0  0  0  0  0  0
  -29.5622  -20.7864   19.4561 N   0  0  0  0  0  0
  -28.7493  -18.6580   18.0278 O   0  0  0  0  0  0
  -31.4628  -12.3993   19.1201 H   0  0  0  0  0  0
  -30.3158  -11.2844   19.7935 H   0  0  0  0  0  0
  -29.7349  -11.8212   17.4138 H   0  0  0  0  0  0
  -29.6665  -13.5243   17.7925 H   0  0  0  0  0  0
  -27.8162  -11.3266   18.7838 H   0  0  0  0  0  0
  -27.3670  -12.6806   17.7828 H   0  0  0  0  0  0
  -27.7190  -14.2579   19.6093 H   0  0  0  0  0  0
  -28.6692  -11.8999   21.3018 H   0  0  0  0  0  0
  -28.4161  -13.4996   21.8906 H   0  0  0  0  0  0
  -25.2750   -9.5706   22.4750 H   0  0  0  0  0  0
  -23.9999   -7.4650   22.7480 H   0  0  0  0  0  0
  -21.0831   -8.8762   19.8946 H   0  0  0  0  0  0
  -22.3672  -10.9669   19.6156 H   0  0  0  0  0  0
  -21.2003   -7.6148   23.9714 H   0  0  0  0  0  0
  -21.1481   -6.0523   25.9080 H   0  0  0  0  0  0
  -22.0598   -2.7606   23.2846 H   0  0  0  0  0  0
  -22.4117  -11.9891   22.4775 H   0  0  0  0  0  0
  -21.1126  -13.1268   22.2597 H   0  0  0  0  0  0
  -24.6677  -15.8431   20.5328 H   0  0  0  0  0  0
  -26.2951  -15.6335   20.1302 H   0  0  0  0  0  0
  -26.7099  -32.5533   23.1165 H   0  0  0  0  0  0
  -25.0072  -33.9786   25.0494 H   0  0  0  0  0  0
  -22.6911  -31.3092   21.4159 H   0  0  0  0  0  0
  -23.3748  -35.9640   23.3316 H   0  0  0  0  0  0
  -24.3575  -36.8925   22.2064 H   0  0  0  0  0  0
  -23.7222  -37.6508   23.6668 H   0  0  0  0  0  0
  -26.0495  -31.5979   20.6002 H   0  0  0  0  0  0
  -26.8191  -30.8789   21.9879 H   0  0  0  0  0  0
  -28.0992  -29.0975   21.1568 H   0  0  0  0  0  0
  -26.0147  -25.9741   19.0069 H   0  0  0  0  0  0
  -23.9677  -27.2970   19.0451 H   0  0  0  0  0  0
  -23.7127  -30.5982   19.4071 H   0  0  0  0  0  0
  -22.7332  -29.2415   19.8764 H   0  0  0  0  0  0
  -25.1278  -36.1983   25.0838 H   0  0  0  0  0  0
  -20.9951  -28.3229   24.1445 H   0  0  0  0  0  0
  -20.5669  -26.2264   23.3598 H   0  0  0  0  0  0
  -21.6629  -26.7455   22.1200 H   0  0  0  0  0  0
  -19.6891  -25.6296   21.1240 H   0  0  0  0  0  0
  -19.6670  -27.3205   20.6747 H   0  0  0  0  0  0
  -17.4186  -26.6687   21.4014 H   0  0  0  0  0  0
  -18.0294  -26.0062   22.9003 H   0  0  0  0  0  0
  -19.7922  -30.7260   24.2268 H   0  0  0  0  0  0
  -17.5008  -31.6269   24.5165 H   0  0  0  0  0  0
  -15.5339  -30.2986   23.7666 H   0  0  0  0  0  0
  -15.8651  -28.0824   22.7074 H   0  0  0  0  0  0
  -24.5923  -30.7034   25.7804 H   0  0  0  0  0  0
  -24.8938  -32.2824   26.4958 H   0  0  0  0  0  0
  -25.8106  -30.8822   27.0218 H   0  0  0  0  0  0
  -26.2912  -29.6753   24.1236 H   0  0  0  0  0  0
  -27.4202  -29.7338   25.4587 H   0  0  0  0  0  0
  -27.8701  -30.4395   23.9241 H   0  0  0  0  0  0
  -27.2663  -33.3651   26.2053 H   0  0  0  0  0  0
  -28.3843  -32.6892   25.0301 H   0  0  0  0  0  0
  -28.0730  -31.8489   26.5411 H   0  0  0  0  0  0
  -28.2605  -38.0097   24.7516 H   0  0  0  0  0  0
  -28.1059  -36.2629   24.6321 H   0  0  0  0  0  0
  -27.2292  -37.1481   25.8877 H   0  0  0  0  0  0
  -20.9300  -29.8743   21.6946 H   0  0  0  0  0  0
  -26.0193  -38.2869   24.1400 H   0  0  0  0  0  0
  -30.8348  -17.8576   22.8116 H   0  0  0  0  0  0
  -30.5726  -20.1227   21.9412 H   0  0  0  0  0  0
  -29.1747  -16.2255   19.1990 H   0  0  0  0  0  0
  -27.6917  -17.9613   16.4043 H   0  0  0  0  0  0
  -27.4314  -17.0449   17.8803 H   0  0  0  0  0  0
  -28.9511  -16.8711   16.9708 H   0  0  0  0  0  0
  -30.9533  -23.1010   19.1425 H   0  0  0  0  0  0
  -29.3909  -23.2290   18.3967 H   0  0  0  0  0  0
  -30.5217  -25.2756   19.6215 H   0  0  0  0  0  0
  -29.8911  -24.5833   21.0863 H   0  0  0  0  0  0
  -28.3977  -22.1576   20.5181 H   0  0  0  0  0  0
  -30.0291  -22.0013   21.1339 H   0  0  0  0  0  0
  -27.5841  -24.7959   20.2164 H   0  0  0  0  0  0
  -28.1863  -25.2881   18.6312 H   0  0  0  0  0  0
  -29.6543  -16.0569   23.3277 H   0  0  0  0  0  0
  -29.1179  -20.7659   18.5398 H   0  0  0  0  0  0
  1 25  1  0  0  0
  1 30  2  0  0  0
  1 77  1  0  0  0
  2  3  1  0  0  0
  2 25  1  0  0  0
  2 86  1  0  0  0
  2 87  1  0  0  0
  3  4  1  0  0  0
  3 88  1  0  0  0
  3 89  1  0  0  0
  4  5  1  0  0  0
  4 90  1  0  0  0
  4 91  1  0  0  0
  5  6  1  0  0  0
  5 26  1  0  0  0
  5 92  1  0  0  0
  6 25  1  0  0  0
  6 93  1  0  0  0
  6 94  1  0  0  0
  7  8  2  0  0  0
  7 26  1  0  0  0
  7 29  1  0  0  0
  8  9  1  0  0  0
  8 22  1  0  0  0
  9 10  1  0  0  0
  9 27  2  0  0  0
 10 11  2  0  0  0
 10 15  1  0  0  0
 11 12  1  0  0  0
 11 95  1  0  0  0
 12 13  2  0  0  0
 12 96  1  0  0  0
 13 14  1  0  0  0
 13 31  1  0  0  0
 14 15  2  0  0  0
 14 97  1  0  0  0
 15 98  1  0  0  0
 16 17  2  0  0  0
 16 21  1  0  0  0
 16 31  1  0  0  0
 17 18  1  0  0  0
 17 99  1  0  0  0
 18 19  2  0  0  0
 18100  1  0  0  0
 19 20  1  0  0  0
 19 24  1  0  0  0
 20 21  2  0  0  0
 20101  1  0  0  0
 21 23  1  0  0  0
 22 28  1  0  0  0
 22 32  2  0  0  0
 26 27  1  0  0  0
 28102  1  0  0  0
 28103  1  0  0  0
 29104  1  0  0  0
 29105  1  0  0  0
 33 34  1  0  0  0
 33 66  1  0  0  0
 33 70  2  0  0  0
 34 36  1  0  0  0
 34 59  1  0  0  0
 34106  1  0  0  0
 35 44  2  0  0  0
 35 45  1  0  0  0
 35 68  1  0  0  0
 36 56  1  0  0  0
 36107  1  0  0  0
 37 39  1  0  0  0
 37 47  1  0  0  0
 37 66  1  0  0  0
 37108  1  0  0  0
 38 43  2  0  0  0
 38 46  1  0  0  0
 38 47  1  0  0  0
 39 64  1  0  0  0
 39 67  2  0  0  0
 40 52  1  0  0  0
 40 53  2  0  0  0
 40 58  1  0  0  0
 41109  1  0  0  0
 41110  1  0  0  0
 41111  1  0  0  0
 41 48  1  0  0  0
 42 43  1  0  0  0
 42 66  1  0  0  0
 42112  1  0  0  0
 42113  1  0  0  0
 43 44  1  0  0  0
 44114  1  0  0  0
 45 46  2  0  0  0
 45115  1  0  0  0
 46116  1  0  0  0
 47117  1  0  0  0
 47118  1  0  0  0
 48 56  1  0  0  0
 48 65  1  0  0  0
 48119  1  0  0  0
 49 50  1  0  0  0
 49 53  1  0  0  0
 49 64  1  0  0  0
 49120  1  0  0  0
 50 51  1  0  0  0
 50121  1  0  0  0
 50122  1  0  0  0
 51 52  1  0  0  0
 51123  1  0  0  0
 51124  1  0  0  0
 52125  1  0  0  0
 52126  1  0  0  0
 53 54  1  0  0  0
 54 55  2  0  0  0
 54127  1  0  0  0
 55 57  1  0  0  0
 55128  1  0  0  0
 56 69  2  0  0  0
 57 58  2  0  0  0
 57129  1  0  0  0
 58130  1  0  0  0
 59 60  1  0  0  0
 59 61  1  0  0  0
 59 62  1  0  0  0
 60131  1  0  0  0
 60132  1  0  0  0
 60133  1  0  0  0
 61134  1  0  0  0
 61135  1  0  0  0
 61136  1  0  0  0
 62137  1  0  0  0
 62138  1  0  0  0
 62139  1  0  0  0
 63 65  1  0  0  0
 63140  1  0  0  0
 63141  1  0  0  0
 63142  1  0  0  0
 64143  1  0  0  0
 65144  1  0  0  0
 68 82  1  0  0  0
 71 72  2  0  0  0
 71 74  1  0  0  0
 71145  1  0  0  0
 72 75  1  0  0  0
 72146  1  0  0  0
 73 74  2  0  0  0
 73 76  1  0  0  0
 73147  1  0  0  0
 74 77  1  0  0  0
 75 76  2  0  0  0
 75 84  1  0  0  0
 76 85  1  0  0  0
 77 83  2  0  0  0
 78 85  1  0  0  0
 78148  1  0  0  0
 78149  1  0  0  0
 78150  1  0  0  0
 79 80  1  0  0  0
 79 81  1  0  0  0
 79151  1  0  0  0
 79152  1  0  0  0
 80 82  1  0  0  0
 80153  1  0  0  0
 80154  1  0  0  0
 81 84  1  0  0  0
 81155  1  0  0  0
 81156  1  0  0  0
 82157  1  0  0  0
 82158  1  0  0  0
 83159  1  0  0  0
 84160  1  0  0  0
M  ISO  4   1 100  68 101  77 100  82 101
M  END
> <chiral flag>
0

> <version>
0

> <s_m_source_file>
/data/baiqing/PycharmProjects/Reinvent-master-3.2/result/LINK_invent/BTK/process_docking_weight1_custom_product_contain_oxygen_bond_distance_aromatic_linkinvent_7_9_3/rearranged_h_0100.sdf

> <i_m_source_file_index>
3

> <r_mmod_Potential_Energy-OPLS-2005>
65.2870101928711

> <r_mmod_Stretch_Energy-OPLS-2005>
42.0926361083984

> <r_mmod_Bend_Energy-OPLS-2005>
121.080871582031

> <r_mmod_Torsional_Energy-OPLS-2005>
200.20491027832

> <r_mmod_Improper_Torsional_Energy-OPLS-2005>
4.10123729705811

> <r_mmod_Van_der_Waal_Energy-OPLS-2005>
163.548477172852

> <r_mmod_Electrostatic_Energy-OPLS-2005>
-263.259429931641

> <r_mmod_Solvation_Energy-OPLS-2005>
-212.208740234375

> <b_mmod_Minimization_Converged-OPLS-2005>
0

> <r_mmod_RMS_Derivative-OPLS-2005>
1.0154904127121

$$$$
3
                    3D
 Structure written by MMmdl.
154162  0  0  1  0            999 V2000
  -30.7153  -14.4620   20.6169 C   0  0  0  0  0  0
  -30.4167  -12.3156   19.4145 C   0  0  0  0  0  0
  -29.4898  -12.5582   18.2052 C   0  0  0  0  0  0
  -28.0095  -12.4170   18.6095 C   0  0  0  0  0  0
  -27.6645  -13.2203   19.8894 C   0  0  2  0  0  0
  -28.7079  -12.9679   21.0015 C   0  0  0  0  0  0
  -25.2588  -13.8200   20.5755 C   0  0  0  0  0  0
  -24.1820  -13.0438   20.9169 C   0  0  0  0  0  0
  -24.6399  -11.6922   20.8721 C   0  0  0  0  0  0
  -23.9063  -10.4305   21.0382 C   0  0  0  0  0  0
  -24.3611   -9.4226   21.9160 C   0  0  0  0  0  0
  -23.6299   -8.2255   22.0744 C   0  0  0  0  0  0
  -22.4281   -8.0287   21.3531 C   0  0  0  0  0  0
  -21.9910   -9.0258   20.4636 C   0  0  0  0  0  0
  -22.7235  -10.2142   20.3037 C   0  0  0  0  0  0
  -21.6855   -6.0744   22.5272 C   0  0  0  0  0  0
  -21.4027   -6.5644   23.8212 C   0  0  0  0  0  0
  -21.3668   -5.6794   24.9176 C   0  0  0  0  0  0
  -21.6035   -4.3053   24.7218 C   0  0  0  0  0  0
  -21.8819   -3.8148   23.4342 C   0  0  0  0  0  0
  -21.9196   -4.6970   22.3399 C   0  0  0  0  0  0
  -22.7839  -13.5228   21.1828 C   0  0  0  0  0  0
  -22.1651   -4.2163   21.0974 F   0  0  0  0  0  0
  -21.5631   -3.4529   25.7724 F   0  0  0  0  0  0
  -30.0500  -13.2777   20.4674 N   0  0  0  0  0  0
  -26.3039  -12.9391   20.3444 N   0  0  0  0  0  0
  -25.9329  -11.6528   20.5735 N   0  0  0  0  0  0
  -22.0475  -12.8222   22.0399 N   0  0  0  0  0  0
  -25.4310  -15.1937   20.4301 N   0  0  0  0  0  0
  -31.7822  -14.7089   20.0458 O   0  0  0  0  0  0
  -21.6637   -6.8887   21.4234 O   0  0  0  0  0  0
  -22.3501  -14.5518   20.6682 O   0  0  0  0  0  0
  -24.6213  -31.8643   23.2053 C   0  0  0  0  0  0
  -25.9096  -32.4790   23.8386 C   0  0  1  0  0  0
  -27.2503  -27.4085   20.1058 C   0  0  0  0  0  0
  -25.5932  -33.8597   24.2324 N   0  0  0  0  0  0
  -23.4138  -30.4868   21.5437 C   0  0  2  0  0  0
  -24.8622  -28.9498   20.1143 C   0  0  0  0  0  0
  -22.7463  -29.4651   22.4941 C   0  0  0  0  0  0
  -18.0303  -28.1357   22.8497 C   0  0  0  0  0  0
  -24.1491  -36.7305   23.2635 C   0  0  0  0  0  0
  -25.9460  -30.8231   21.3651 C   0  0  0  0  0  0
  -26.0230  -29.4573   20.7107 C   0  0  0  0  0  0
  -27.2190  -28.6973   20.6957 C   0  0  0  0  0  0
  -26.0631  -26.9221   19.5079 C   0  0  0  0  0  0
  -24.8787  -27.6829   19.5070 C   0  0  0  0  0  0
  -23.6272  -29.8207   20.1585 C   0  0  0  0  0  0
  -25.4100  -36.3087   24.0344 C   0  0  1  0  0  0
  -20.5906  -28.3691   23.1278 C   0  0  2  0  0  0
  -20.6809  -26.9414   22.5409 C   0  0  0  0  0  0
  -19.5771  -26.6372   21.5226 C   0  0  0  0  0  0
  -18.1959  -26.7894   22.1666 C   0  0  0  0  0  0
  -19.1546  -28.8844   23.2887 C   0  0  0  0  0  0
  -18.9460  -30.1435   23.8911 C   0  0  0  0  0  0
  -17.6458  -30.6577   24.0577 C   0  0  0  0  0  0
  -25.9026  -34.9458   23.5125 C   0  0  0  0  0  0
  -16.5353  -29.9076   23.6304 C   0  0  0  0  0  0
  -16.7287  -28.6481   23.0351 C   0  0  0  0  0  0
  -26.4517  -31.6571   25.0727 C   0  0  0  0  0  0
  -25.3778  -31.3720   26.1473 C   0  0  0  0  0  0
  -27.0373  -30.2996   24.6153 C   0  0  0  0  0  0
  -27.6079  -32.4300   25.7502 C   0  0  0  0  0  0
  -27.5572  -37.1804   24.8460 C   0  0  0  0  0  0
  -21.4179  -29.3055   22.3693 N   0  0  0  0  0  0
  -26.4282  -37.3769   23.9409 N   0  0  0  0  0  0
  -24.6781  -31.0742   22.0953 N   0  0  0  0  0  0
  -23.4188  -28.8196   23.3014 O   0  0  0  0  0  0
  -28.4246  -26.6664   20.1232 O   0  0  0  0  0  0
  -26.5576  -34.8925   22.4677 O   0  0  0  0  0  0
  -23.5385  -32.1431   23.7395 O   0  0  0  0  0  0
  -30.7451  -19.0579   20.7874 C   0  0  0  0  0  0
  -30.8376  -17.6459   20.6244 C   0  0  0  0  0  0
  -29.3189  -18.7331   22.7204 C   0  0  0  0  0  0
  -29.9810  -19.6191   21.8411 C   0  0  0  0  0  0
  -30.1586  -16.7707   21.5146 C   0  0  0  0  0  0
  -29.4007  -17.3378   22.5580 C   0  0  0  0  0  0
  -29.9618  -21.1002   22.1610 C   0  0  0  0  0  0
  -29.6555  -24.4631   20.3000 C   0  0  0  0  0  0
  -29.7662  -23.4713   21.5008 C   0  0  0  0  0  0
  -28.3035  -25.2238   20.1473 C   0  0  0  0  0  0
  -30.1216  -15.3397   21.4437 N   0  0  0  0  0  0
  -29.7924  -22.0225   21.1876 N   0  0  0  0  0  0
  -30.0524  -21.4363   23.3444 O   0  0  0  0  0  0
  -28.7470  -16.5259   23.4250 F   0  0  0  0  0  0
  -31.4631  -12.4013   19.1168 H   0  0  0  0  0  0
  -30.2957  -11.2955   19.7811 H   0  0  0  0  0  0
  -29.7251  -11.8678   17.3953 H   0  0  0  0  0  0
  -29.6618  -13.5614   17.8117 H   0  0  0  0  0  0
  -27.7997  -11.3585   18.7604 H   0  0  0  0  0  0
  -27.3661  -12.7420   17.7913 H   0  0  0  0  0  0
  -27.7136  -14.2780   19.6275 H   0  0  0  0  0  0
  -28.6744  -11.9258   21.3225 H   0  0  0  0  0  0
  -28.4561  -13.5442   21.8905 H   0  0  0  0  0  0
  -25.2762   -9.5707   22.4722 H   0  0  0  0  0  0
  -24.0020   -7.4651   22.7459 H   0  0  0  0  0  0
  -21.0841   -8.8777   19.8941 H   0  0  0  0  0  0
  -22.3693  -10.9675   19.6143 H   0  0  0  0  0  0
  -21.2022   -7.6151   23.9724 H   0  0  0  0  0  0
  -21.1485   -6.0518   25.9081 H   0  0  0  0  0  0
  -22.0591   -2.7611   23.2826 H   0  0  0  0  0  0
  -22.4109  -11.9925   22.4841 H   0  0  0  0  0  0
  -21.1085  -13.1258   22.2572 H   0  0  0  0  0  0
  -24.6749  -15.8535   20.5773 H   0  0  0  0  0  0
  -26.3177  -15.6452   20.2379 H   0  0  0  0  0  0
  -26.7195  -32.5507   23.1177 H   0  0  0  0  0  0
  -25.0185  -33.9765   25.0536 H   0  0  0  0  0  0
  -22.7054  -31.3049   21.4012 H   0  0  0  0  0  0
  -23.3736  -35.9656   23.3301 H   0  0  0  0  0  0
  -24.3578  -36.8890   22.2042 H   0  0  0  0  0  0
  -23.7273  -37.6528   23.6638 H   0  0  0  0  0  0
  -26.0754  -31.5855   20.5960 H   0  0  0  0  0  0
  -26.8257  -30.8659   21.9943 H   0  0  0  0  0  0
  -28.1137  -29.0885   21.1598 H   0  0  0  0  0  0
  -26.0298  -25.9561   19.0288 H   0  0  0  0  0  0
  -23.9891  -27.2835   19.0389 H   0  0  0  0  0  0
  -23.7496  -30.5969   19.4017 H   0  0  0  0  0  0
  -22.7510  -29.2442   19.8551 H   0  0  0  0  0  0
  -25.1273  -36.1945   25.0835 H   0  0  0  0  0  0
  -21.0004  -28.3270   24.1392 H   0  0  0  0  0  0
  -20.5699  -26.2309   23.3609 H   0  0  0  0  0  0
  -21.6681  -26.7442   22.1215 H   0  0  0  0  0  0
  -19.6939  -25.6296   21.1235 H   0  0  0  0  0  0
  -19.6666  -27.3217   20.6786 H   0  0  0  0  0  0
  -17.4206  -26.6575   21.4099 H   0  0  0  0  0  0
  -18.0425  -26.0060   22.9105 H   0  0  0  0  0  0
  -19.7943  -30.7252   24.2294 H   0  0  0  0  0  0
  -17.5015  -31.6235   24.5198 H   0  0  0  0  0  0
  -15.5359  -30.2984   23.7606 H   0  0  0  0  0  0
  -15.8692  -28.0785   22.7072 H   0  0  0  0  0  0
  -24.5909  -30.7120   25.7812 H   0  0  0  0  0  0
  -24.9056  -32.2919   26.4935 H   0  0  0  0  0  0
  -25.8107  -30.8859   27.0227 H   0  0  0  0  0  0
  -26.2962  -29.6713   24.1195 H   0  0  0  0  0  0
  -27.4124  -29.7258   25.4643 H   0  0  0  0  0  0
  -27.8803  -30.4299   23.9358 H   0  0  0  0  0  0
  -27.2678  -33.3570   26.2141 H   0  0  0  0  0  0
  -28.3868  -32.6896   25.0317 H   0  0  0  0  0  0
  -28.0800  -31.8401   26.5369 H   0  0  0  0  0  0
  -28.2585  -38.0099   24.7478 H   0  0  0  0  0  0
  -28.1070  -36.2626   24.6318 H   0  0  0  0  0  0
  -27.2302  -37.1493   25.8865 H   0  0  0  0  0  0
  -20.9338  -29.8793   21.6928 H   0  0  0  0  0  0
  -26.0160  -38.2848   24.1375 H   0  0  0  0  0  0
  -31.2945  -19.7102   20.1234 H   0  0  0  0  0  0
  -31.4353  -17.2534   19.8140 H   0  0  0  0  0  0
  -28.7490  -19.1221   23.5501 H   0  0  0  0  0  0
  -29.8944  -23.9542   19.3656 H   0  0  0  0  0  0
  -30.4471  -25.2038   20.4214 H   0  0  0  0  0  0
  -28.9873  -23.6764   22.2388 H   0  0  0  0  0  0
  -30.7073  -23.6878   22.0110 H   0  0  0  0  0  0
  -27.6237  -24.9457   20.9540 H   0  0  0  0  0  0
  -27.8505  -24.8727   19.2202 H   0  0  0  0  0  0
  -29.4087  -14.9301   22.0276 H   0  0  0  0  0  0
  -29.6455  -21.7213   20.2339 H   0  0  0  0  0  0
  1 25  1  0  0  0
  1 30  2  0  0  0
  1 81  1  0  0  0
  2  3  1  0  0  0
  2 25  1  0  0  0
  2 85  1  0  0  0
  2 86  1  0  0  0
  3  4  1  0  0  0
  3 87  1  0  0  0
  3 88  1  0  0  0
  4  5  1  0  0  0
  4 89  1  0  0  0
  4 90  1  0  0  0
  5  6  1  0  0  0
  5 26  1  0  0  0
  5 91  1  0  0  0
  6 25  1  0  0  0
  6 92  1  0  0  0
  6 93  1  0  0  0
  7  8  2  0  0  0
  7 26  1  0  0  0
  7 29  1  0  0  0
  8  9  1  0  0  0
  8 22  1  0  0  0
  9 10  1  0  0  0
  9 27  2  0  0  0
 10 11  2  0  0  0
 10 15  1  0  0  0
 11 12  1  0  0  0
 11 94  1  0  0  0
 12 13  2  0  0  0
 12 95  1  0  0  0
 13 14  1  0  0  0
 13 31  1  0  0  0
 14 15  2  0  0  0
 14 96  1  0  0  0
 15 97  1  0  0  0
 16 17  2  0  0  0
 16 21  1  0  0  0
 16 31  1  0  0  0
 17 18  1  0  0  0
 17 98  1  0  0  0
 18 19  2  0  0  0
 18 99  1  0  0  0
 19 20  1  0  0  0
 19 24  1  0  0  0
 20 21  2  0  0  0
 20100  1  0  0  0
 21 23  1  0  0  0
 22 28  1  0  0  0
 22 32  2  0  0  0
 26 27  1  0  0  0
 28101  1  0  0  0
 28102  1  0  0  0
 29103  1  0  0  0
 29104  1  0  0  0
 33 34  1  0  0  0
 33 66  1  0  0  0
 33 70  2  0  0  0
 34 36  1  0  0  0
 34 59  1  0  0  0
 34105  1  0  0  0
 35 44  2  0  0  0
 35 45  1  0  0  0
 35 68  1  0  0  0
 36 56  1  0  0  0
 36106  1  0  0  0
 37 39  1  0  0  0
 37 47  1  0  0  0
 37 66  1  0  0  0
 37107  1  0  0  0
 38 43  2  0  0  0
 38 46  1  0  0  0
 38 47  1  0  0  0
 39 64  1  0  0  0
 39 67  2  0  0  0
 40 52  1  0  0  0
 40 53  2  0  0  0
 40 58  1  0  0  0
 41108  1  0  0  0
 41109  1  0  0  0
 41110  1  0  0  0
 41 48  1  0  0  0
 42 43  1  0  0  0
 42 66  1  0  0  0
 42111  1  0  0  0
 42112  1  0  0  0
 43 44  1  0  0  0
 44113  1  0  0  0
 45 46  2  0  0  0
 45114  1  0  0  0
 46115  1  0  0  0
 47116  1  0  0  0
 47117  1  0  0  0
 48 56  1  0  0  0
 48 65  1  0  0  0
 48118  1  0  0  0
 49 50  1  0  0  0
 49 53  1  0  0  0
 49 64  1  0  0  0
 49119  1  0  0  0
 50 51  1  0  0  0
 50120  1  0  0  0
 50121  1  0  0  0
 51 52  1  0  0  0
 51122  1  0  0  0
 51123  1  0  0  0
 52124  1  0  0  0
 52125  1  0  0  0
 53 54  1  0  0  0
 54 55  2  0  0  0
 54126  1  0  0  0
 55 57  1  0  0  0
 55127  1  0  0  0
 56 69  2  0  0  0
 57 58  2  0  0  0
 57128  1  0  0  0
 58129  1  0  0  0
 59 60  1  0  0  0
 59 61  1  0  0  0
 59 62  1  0  0  0
 60130  1  0  0  0
 60131  1  0  0  0
 60132  1  0  0  0
 61133  1  0  0  0
 61134  1  0  0  0
 61135  1  0  0  0
 62136  1  0  0  0
 62137  1  0  0  0
 62138  1  0  0  0
 63 65  1  0  0  0
 63139  1  0  0  0
 63140  1  0  0  0
 63141  1  0  0  0
 64142  1  0  0  0
 65143  1  0  0  0
 68 80  1  0  0  0
 71 72  2  0  0  0
 71 74  1  0  0  0
 71144  1  0  0  0
 72 75  1  0  0  0
 72145  1  0  0  0
 73 74  2  0  0  0
 73 76  1  0  0  0
 73146  1  0  0  0
 74 77  1  0  0  0
 75 76  2  0  0  0
 75 81  1  0  0  0
 76 84  1  0  0  0
 77 82  1  0  0  0
 77 83  2  0  0  0
 78 79  1  0  0  0
 78 80  1  0  0  0
 78147  1  0  0  0
 78148  1  0  0  0
 79 82  1  0  0  0
 79149  1  0  0  0
 79150  1  0  0  0
 80151  1  0  0  0
 80152  1  0  0  0
 81153  1  0  0  0
 82154  1  0  0  0
M  ISO  4   1 100  68 101  80 101  81 100
M  END
> <chiral flag>
0

> <version>
0

> <s_m_source_file>
/data/baiqing/PycharmProjects/Reinvent-master-3.2/result/LINK_invent/BTK/process_docking_weight1_custom_product_contain_oxygen_bond_distance_aromatic_linkinvent_7_9_3/rearranged_h_0100.sdf

> <i_m_source_file_index>
4

> <r_mmod_Potential_Energy-OPLS-2005>
-110.166244506836

> <r_mmod_Stretch_Energy-OPLS-2005>
44.7094879150391

> <r_mmod_Bend_Energy-OPLS-2005>
118.384742736816

> <r_mmod_Torsional_Energy-OPLS-2005>
249.83251953125

> <r_mmod_Improper_Torsional_Energy-OPLS-2005>
3.07107734680176

> <r_mmod_Van_der_Waal_Energy-OPLS-2005>
157.310302734375

> <r_mmod_Electrostatic_Energy-OPLS-2005>
-470.711975097656

> <r_mmod_Solvation_Energy-OPLS-2005>
-225.940124511719

> <b_mmod_Minimization_Converged-OPLS-2005>
0

> <r_mmod_RMS_Derivative-OPLS-2005>
3.48530030250549

$$$$
4
                    3D
 Structure written by MMmdl.
155163  0  0  1  0            999 V2000
  -30.7412  -14.5154   20.5320 C   0  0  0  0  0  0
  -30.4031  -12.3183   19.4544 C   0  0  0  0  0  0
  -29.5001  -12.5151   18.2216 C   0  0  0  0  0  0
  -28.0185  -12.3853   18.6229 C   0  0  0  0  0  0
  -27.6568  -13.2318   19.8745 C   0  0  2  0  0  0
  -28.7020  -13.0757   21.0052 C   0  0  0  0  0  0
  -25.2534  -13.8222   20.5688 C   0  0  0  0  0  0
  -24.1816  -13.0451   20.9173 C   0  0  0  0  0  0
  -24.6417  -11.6938   20.8727 C   0  0  0  0  0  0
  -23.9094  -10.4302   21.0385 C   0  0  0  0  0  0
  -24.3646   -9.4209   21.9159 C   0  0  0  0  0  0
  -23.6309   -8.2254   22.0757 C   0  0  0  0  0  0
  -22.4293   -8.0287   21.3548 C   0  0  0  0  0  0
  -21.9923   -9.0253   20.4647 C   0  0  0  0  0  0
  -22.7257  -10.2126   20.3041 C   0  0  0  0  0  0
  -21.6847   -6.0733   22.5271 C   0  0  0  0  0  0
  -21.4012   -6.5638   23.8199 C   0  0  0  0  0  0
  -21.3666   -5.6788   24.9168 C   0  0  0  0  0  0
  -21.6049   -4.3049   24.7217 C   0  0  0  0  0  0
  -21.8818   -3.8146   23.4329 C   0  0  0  0  0  0
  -21.9191   -4.6962   22.3387 C   0  0  0  0  0  0
  -22.7829  -13.5204   21.1823 C   0  0  0  0  0  0
  -22.1651   -4.2147   21.0962 F   0  0  0  0  0  0
  -21.5648   -3.4530   25.7726 F   0  0  0  0  0  0
  -30.0294  -13.3511   20.4397 N   0  0  0  0  0  0
  -26.3013  -12.9443   20.3394 N   0  0  0  0  0  0
  -25.9358  -11.6581   20.5793 N   0  0  0  0  0  0
  -22.0495  -12.8199   22.0401 N   0  0  0  0  0  0
  -25.4194  -15.1948   20.4078 N   0  0  0  0  0  0
  -31.8945  -14.5631   20.0958 O   0  0  0  0  0  0
  -21.6654   -6.8880   21.4240 O   0  0  0  0  0  0
  -22.3491  -14.5491   20.6645 O   0  0  0  0  0  0
  -24.6169  -31.8682   23.2144 C   0  0  0  0  0  0
  -25.9046  -32.4826   23.8447 C   0  0  1  0  0  0
  -27.2138  -27.4043   20.0897 C   0  0  0  0  0  0
  -25.5885  -33.8643   24.2341 N   0  0  0  0  0  0
  -23.4038  -30.4952   21.5593 C   0  0  2  0  0  0
  -24.8433  -28.9752   20.1049 C   0  0  0  0  0  0
  -22.7429  -29.4650   22.5049 C   0  0  0  0  0  0
  -18.0266  -28.1364   22.8519 C   0  0  0  0  0  0
  -24.1465  -36.7315   23.2645 C   0  0  0  0  0  0
  -25.9418  -30.8204   21.3760 C   0  0  0  0  0  0
  -26.0094  -29.4611   20.7093 C   0  0  0  0  0  0
  -27.1976  -28.6862   20.6948 C   0  0  0  0  0  0
  -26.0299  -26.9643   19.4460 C   0  0  0  0  0  0
  -24.8539  -27.7313   19.4615 C   0  0  0  0  0  0
  -23.6054  -29.8423   20.1678 C   0  0  0  0  0  0
  -25.4095  -36.3129   24.0343 C   0  0  1  0  0  0
  -20.5865  -28.3629   23.1348 C   0  0  2  0  0  0
  -20.6766  -26.9361   22.5438 C   0  0  0  0  0  0
  -19.5737  -26.6358   21.5237 C   0  0  0  0  0  0
  -18.1918  -26.7921   22.1638 C   0  0  0  0  0  0
  -19.1528  -28.8821   23.2923 C   0  0  0  0  0  0
  -18.9449  -30.1451   23.8888 C   0  0  0  0  0  0
  -17.6457  -30.6575   24.0566 C   0  0  0  0  0  0
  -25.9025  -34.9490   23.5143 C   0  0  0  0  0  0
  -16.5345  -29.9071   23.6344 C   0  0  0  0  0  0
  -16.7263  -28.6494   23.0358 C   0  0  0  0  0  0
  -26.4436  -31.6633   25.0803 C   0  0  0  0  0  0
  -25.3684  -31.3780   26.1543 C   0  0  0  0  0  0
  -27.0246  -30.3064   24.6202 C   0  0  0  0  0  0
  -27.6020  -32.4355   25.7557 C   0  0  0  0  0  0
  -27.5580  -37.1816   24.8462 C   0  0  0  0  0  0
  -21.4165  -29.2999   22.3774 N   0  0  0  0  0  0
  -26.4284  -37.3807   23.9411 N   0  0  0  0  0  0
  -24.6730  -31.0768   22.1055 N   0  0  0  0  0  0
  -23.4220  -28.8186   23.3075 O   0  0  0  0  0  0
  -28.3498  -26.6044   20.1513 O   0  0  0  0  0  0
  -26.5606  -34.8946   22.4710 O   0  0  0  0  0  0
  -23.5361  -32.1453   23.7524 O   0  0  0  0  0  0
  -28.5909  -17.8923   22.2362 C   0  0  0  0  0  0
  -27.8745  -19.0103   22.7133 C   0  0  0  0  0  0
  -29.9447  -19.3903   20.8780 C   0  0  0  0  0  0
  -29.6506  -18.0638   21.3198 C   0  0  0  0  0  0
  -28.2151  -20.3198   22.3106 C   0  0  0  0  0  0
  -29.2484  -20.5300   21.3626 C   0  0  0  0  0  0
  -30.5558  -16.9097   20.9225 C   0  0  0  0  0  0
  -29.1682  -24.2224   20.6000 C   0  0  0  0  0  0
  -28.1499  -25.1833   19.9323 C   0  0  0  0  0  0
  -28.8026  -22.7194   20.3628 C   0  0  0  0  0  0
  -27.5768  -21.3936   22.9277 N   0  0  0  0  0  0
  -30.0788  -15.6294   20.9494 N   0  0  0  0  0  0
  -31.7020  -17.2151   20.5649 O   0  0  0  0  0  0
  -29.7003  -21.8038   21.0229 O   0  0  0  0  0  0
  -31.4558  -12.3542   19.1666 H   0  0  0  0  0  0
  -30.2555  -11.3222   19.8761 H   0  0  0  0  0  0
  -29.7467  -11.7877   17.4456 H   0  0  0  0  0  0
  -29.6819  -13.5026   17.7907 H   0  0  0  0  0  0
  -27.8152  -11.3311   18.8151 H   0  0  0  0  0  0
  -27.3777  -12.6746   17.7890 H   0  0  0  0  0  0
  -27.6802  -14.2733   19.5519 H   0  0  0  0  0  0
  -28.6843  -12.0636   21.4098 H   0  0  0  0  0  0
  -28.4786  -13.7350   21.8448 H   0  0  0  0  0  0
  -25.2792   -9.5685   22.4734 H   0  0  0  0  0  0
  -24.0012   -7.4650   22.7482 H   0  0  0  0  0  0
  -21.0848   -8.8766   19.8950 H   0  0  0  0  0  0
  -22.3706  -10.9669   19.6156 H   0  0  0  0  0  0
  -21.1996   -7.6145   23.9700 H   0  0  0  0  0  0
  -21.1494   -6.0521   25.9065 H   0  0  0  0  0  0
  -22.0595   -2.7617   23.2821 H   0  0  0  0  0  0
  -22.4113  -11.9868   22.4816 H   0  0  0  0  0  0
  -21.1102  -13.1216   22.2577 H   0  0  0  0  0  0
  -24.6475  -15.8452   20.5026 H   0  0  0  0  0  0
  -26.2632  -15.6383   20.0707 H   0  0  0  0  0  0
  -26.7126  -32.5458   23.1221 H   0  0  0  0  0  0
  -25.0046  -33.9831   25.0491 H   0  0  0  0  0  0
  -22.6946  -31.3155   21.4344 H   0  0  0  0  0  0
  -23.3749  -35.9619   23.3297 H   0  0  0  0  0  0
  -24.3587  -36.8932   22.2065 H   0  0  0  0  0  0
  -23.7188  -37.6514   23.6655 H   0  0  0  0  0  0
  -26.0775  -31.5919   20.6180 H   0  0  0  0  0  0
  -26.8231  -30.8543   22.0045 H   0  0  0  0  0  0
  -28.0915  -29.0631   21.1716 H   0  0  0  0  0  0
  -25.9810  -26.0247   18.9179 H   0  0  0  0  0  0
  -23.9637  -27.3666   18.9662 H   0  0  0  0  0  0
  -23.7057  -30.6282   19.4191 H   0  0  0  0  0  0
  -22.7261  -29.2651   19.8723 H   0  0  0  0  0  0
  -25.1265  -36.2022   25.0837 H   0  0  0  0  0  0
  -20.9947  -28.3133   24.1469 H   0  0  0  0  0  0
  -20.5688  -26.2200   23.3608 H   0  0  0  0  0  0
  -21.6635  -26.7409   22.1210 H   0  0  0  0  0  0
  -19.6889  -25.6272   21.1238 H   0  0  0  0  0  0
  -19.6692  -27.3199   20.6798 H   0  0  0  0  0  0
  -17.4207  -26.6697   21.4020 H   0  0  0  0  0  0
  -18.0293  -26.0059   22.9014 H   0  0  0  0  0  0
  -19.7926  -30.7289   24.2221 H   0  0  0  0  0  0
  -17.4997  -31.6255   24.5167 H   0  0  0  0  0  0
  -15.5347  -30.2958   23.7676 H   0  0  0  0  0  0
  -15.8664  -28.0809   22.7053 H   0  0  0  0  0  0
  -24.5883  -30.7064   25.7924 H   0  0  0  0  0  0
  -24.8834  -32.2950   26.4909 H   0  0  0  0  0  0
  -25.8031  -30.9052   27.0358 H   0  0  0  0  0  0
  -26.2809  -29.6900   24.1135 H   0  0  0  0  0  0
  -27.3875  -29.7226   25.4672 H   0  0  0  0  0  0
  -27.8700  -30.4387   23.9451 H   0  0  0  0  0  0
  -27.2652  -33.3693   26.2081 H   0  0  0  0  0  0
  -28.3850  -32.6855   25.0384 H   0  0  0  0  0  0
  -28.0646  -31.8507   26.5523 H   0  0  0  0  0  0
  -28.2597  -38.0117   24.7547 H   0  0  0  0  0  0
  -28.1082  -36.2670   24.6228 H   0  0  0  0  0  0
  -27.2324  -37.1382   25.8869 H   0  0  0  0  0  0
  -20.9330  -29.8729   21.6995 H   0  0  0  0  0  0
  -26.0179  -38.2881   24.1429 H   0  0  0  0  0  0
  -28.3465  -16.9149   22.6279 H   0  0  0  0  0  0
  -27.0964  -18.8581   23.4485 H   0  0  0  0  0  0
  -30.7601  -19.5490   20.1868 H   0  0  0  0  0  0
  -29.1865  -24.4258   21.6714 H   0  0  0  0  0  0
  -30.1718  -24.4306   20.2254 H   0  0  0  0  0  0
  -27.1808  -24.8786   20.3293 H   0  0  0  0  0  0
  -28.1334  -24.9961   18.8571 H   0  0  0  0  0  0
  -28.8497  -22.5126   19.2922 H   0  0  0  0  0  0
  -27.7645  -22.5518   20.6469 H   0  0  0  0  0  0
  -27.1737  -21.2254   23.8426 H   0  0  0  0  0  0
  -28.0766  -22.2750   22.8866 H   0  0  0  0  0  0
  -29.1315  -15.5057   21.2604 H   0  0  0  0  0  0
  1 25  1  0  0  0
  1 30  2  0  0  0
  1 82  1  0  0  0
  2  3  1  0  0  0
  2 25  1  0  0  0
  2 85  1  0  0  0
  2 86  1  0  0  0
  3  4  1  0  0  0
  3 87  1  0  0  0
  3 88  1  0  0  0
  4  5  1  0  0  0
  4 89  1  0  0  0
  4 90  1  0  0  0
  5  6  1  0  0  0
  5 26  1  0  0  0
  5 91  1  0  0  0
  6 25  1  0  0  0
  6 92  1  0  0  0
  6 93  1  0  0  0
  7  8  2  0  0  0
  7 26  1  0  0  0
  7 29  1  0  0  0
  8  9  1  0  0  0
  8 22  1  0  0  0
  9 10  1  0  0  0
  9 27  2  0  0  0
 10 11  2  0  0  0
 10 15  1  0  0  0
 11 12  1  0  0  0
 11 94  1  0  0  0
 12 13  2  0  0  0
 12 95  1  0  0  0
 13 14  1  0  0  0
 13 31  1  0  0  0
 14 15  2  0  0  0
 14 96  1  0  0  0
 15 97  1  0  0  0
 16 17  2  0  0  0
 16 21  1  0  0  0
 16 31  1  0  0  0
 17 18  1  0  0  0
 17 98  1  0  0  0
 18 19  2  0  0  0
 18 99  1  0  0  0
 19 20  1  0  0  0
 19 24  1  0  0  0
 20 21  2  0  0  0
 20100  1  0  0  0
 21 23  1  0  0  0
 22 28  1  0  0  0
 22 32  2  0  0  0
 26 27  1  0  0  0
 28101  1  0  0  0
 28102  1  0  0  0
 29103  1  0  0  0
 29104  1  0  0  0
 33 34  1  0  0  0
 33 66  1  0  0  0
 33 70  2  0  0  0
 34 36  1  0  0  0
 34 59  1  0  0  0
 34105  1  0  0  0
 35 44  2  0  0  0
 35 45  1  0  0  0
 35 68  1  0  0  0
 36 56  1  0  0  0
 36106  1  0  0  0
 37 39  1  0  0  0
 37 47  1  0  0  0
 37 66  1  0  0  0
 37107  1  0  0  0
 38 43  2  0  0  0
 38 46  1  0  0  0
 38 47  1  0  0  0
 39 64  1  0  0  0
 39 67  2  0  0  0
 40 52  1  0  0  0
 40 53  2  0  0  0
 40 58  1  0  0  0
 41108  1  0  0  0
 41109  1  0  0  0
 41110  1  0  0  0
 41 48  1  0  0  0
 42 43  1  0  0  0
 42 66  1  0  0  0
 42111  1  0  0  0
 42112  1  0  0  0
 43 44  1  0  0  0
 44113  1  0  0  0
 45 46  2  0  0  0
 45114  1  0  0  0
 46115  1  0  0  0
 47116  1  0  0  0
 47117  1  0  0  0
 48 56  1  0  0  0
 48 65  1  0  0  0
 48118  1  0  0  0
 49 50  1  0  0  0
 49 53  1  0  0  0
 49 64  1  0  0  0
 49119  1  0  0  0
 50 51  1  0  0  0
 50120  1  0  0  0
 50121  1  0  0  0
 51 52  1  0  0  0
 51122  1  0  0  0
 51123  1  0  0  0
 52124  1  0  0  0
 52125  1  0  0  0
 53 54  1  0  0  0
 54 55  2  0  0  0
 54126  1  0  0  0
 55 57  1  0  0  0
 55127  1  0  0  0
 56 69  2  0  0  0
 57 58  2  0  0  0
 57128  1  0  0  0
 58129  1  0  0  0
 59 60  1  0  0  0
 59 61  1  0  0  0
 59 62  1  0  0  0
 60130  1  0  0  0
 60131  1  0  0  0
 60132  1  0  0  0
 61133  1  0  0  0
 61134  1  0  0  0
 61135  1  0  0  0
 62136  1  0  0  0
 62137  1  0  0  0
 62138  1  0  0  0
 63 65  1  0  0  0
 63139  1  0  0  0
 63140  1  0  0  0
 63141  1  0  0  0
 64142  1  0  0  0
 65143  1  0  0  0
 68 79  1  0  0  0
 71 72  2  0  0  0
 71 74  1  0  0  0
 71144  1  0  0  0
 72 75  1  0  0  0
 72145  1  0  0  0
 73 74  2  0  0  0
 73 76  1  0  0  0
 73146  1  0  0  0
 74 77  1  0  0  0
 75 76  2  0  0  0
 75 81  1  0  0  0
 76 84  1  0  0  0
 77 82  1  0  0  0
 77 83  2  0  0  0
 78 79  1  0  0  0
 78 80  1  0  0  0
 78147  1  0  0  0
 78148  1  0  0  0
 79149  1  0  0  0
 79150  1  0  0  0
 80 84  1  0  0  0
 80151  1  0  0  0
 80152  1  0  0  0
 81153  1  0  0  0
 81154  1  0  0  0
 82155  1  0  0  0
M  ISO  4   1 100  68 101  79 101  82 100
M  END
> <chiral flag>
0

> <version>
0

> <s_m_source_file>
/data/baiqing/PycharmProjects/Reinvent-master-3.2/result/LINK_invent/BTK/process_docking_weight1_custom_product_contain_oxygen_bond_distance_aromatic_linkinvent_7_9_3/rearranged_h_0100.sdf

> <i_m_source_file_index>
5

> <r_mmod_Potential_Energy-OPLS-2005>
-125.486274719238

> <r_mmod_Stretch_Energy-OPLS-2005>
49.0612869262695

> <r_mmod_Bend_Energy-OPLS-2005>
111.329437255859

> <r_mmod_Torsional_Energy-OPLS-2005>
238.724075317383

> <r_mmod_Improper_Torsional_Energy-OPLS-2005>
9.44912624359131

> <r_mmod_Van_der_Waal_Energy-OPLS-2005>
170.33740234375

> <r_mmod_Electrostatic_Energy-OPLS-2005>
-492.545593261719

> <r_mmod_Solvation_Energy-OPLS-2005>
-237.43620300293

> <b_mmod_Minimization_Converged-OPLS-2005>
0

> <r_mmod_RMS_Derivative-OPLS-2005>
3.36615109443665

$$$$
5
                    3D
 Structure written by MMmdl.
157166  0  0  1  0            999 V2000
  -30.6451  -14.7372   20.4489 C   0  0  0  0  0  0
  -30.4278  -12.4517   19.4479 C   0  0  0  0  0  0
  -29.4970  -12.4668   18.2187 C   0  0  0  0  0  0
  -28.0263  -12.3003   18.6474 C   0  0  0  0  0  0
  -27.6296  -13.2359   19.8220 C   0  0  2  0  0  0
  -28.6834  -13.2071   20.9498 C   0  0  0  0  0  0
  -25.2477  -13.8211   20.5734 C   0  0  0  0  0  0
  -24.1794  -13.0410   20.9207 C   0  0  0  0  0  0
  -24.6378  -11.6904   20.8688 C   0  0  0  0  0  0
  -23.9076  -10.4286   21.0382 C   0  0  0  0  0  0
  -24.3639   -9.4220   21.9166 C   0  0  0  0  0  0
  -23.6314   -8.2264   22.0740 C   0  0  0  0  0  0
  -22.4297   -8.0282   21.3543 C   0  0  0  0  0  0
  -21.9947   -9.0266   20.4665 C   0  0  0  0  0  0
  -22.7255  -10.2138   20.3063 C   0  0  0  0  0  0
  -21.6858   -6.0741   22.5281 C   0  0  0  0  0  0
  -21.4015   -6.5649   23.8211 C   0  0  0  0  0  0
  -21.3654   -5.6811   24.9182 C   0  0  0  0  0  0
  -21.6042   -4.3079   24.7239 C   0  0  0  0  0  0
  -21.8812   -3.8161   23.4366 C   0  0  0  0  0  0
  -21.9217   -4.6970   22.3413 C   0  0  0  0  0  0
  -22.7832  -13.5177   21.1947 C   0  0  0  0  0  0
  -22.1677   -4.2140   21.0993 F   0  0  0  0  0  0
  -21.5619   -3.4581   25.7754 F   0  0  0  0  0  0
  -29.9817  -13.5361   20.3498 N   0  0  0  0  0  0
  -26.2884  -12.9425   20.3233 N   0  0  0  0  0  0
  -25.9306  -11.6536   20.5696 N   0  0  0  0  0  0
  -22.0561  -12.8101   22.0532 N   0  0  0  0  0  0
  -25.4210  -15.1939   20.4196 N   0  0  0  0  0  0
  -31.8553  -14.7909   20.2234 O   0  0  0  0  0  0
  -21.6643   -6.8894   21.4254 O   0  0  0  0  0  0
  -22.3480  -14.5484   20.6836 O   0  0  0  0  0  0
  -24.6337  -31.8472   23.1974 C   0  0  0  0  0  0
  -25.9135  -32.4711   23.8338 C   0  0  1  0  0  0
  -27.2163  -27.2213   20.1309 C   0  0  0  0  0  0
  -25.5905  -33.8538   24.2239 N   0  0  0  0  0  0
  -23.4392  -30.4681   21.5358 C   0  0  2  0  0  0
  -24.8888  -28.9096   20.1108 C   0  0  0  0  0  0
  -22.7543  -29.4534   22.4850 C   0  0  0  0  0  0
  -18.0299  -28.1413   22.8412 C   0  0  0  0  0  0
  -24.1510  -36.7277   23.2649 C   0  0  0  0  0  0
  -25.9899  -30.7412   21.3934 C   0  0  0  0  0  0
  -26.0597  -29.3628   20.7313 C   0  0  0  0  0  0
  -27.2288  -28.5272   20.7367 C   0  0  0  0  0  0
  -26.0294  -26.8631   19.4569 C   0  0  0  0  0  0
  -24.8783  -27.6701   19.4620 C   0  0  0  0  0  0
  -23.6632  -29.7987   20.1563 C   0  0  0  0  0  0
  -25.4120  -36.3056   24.0352 C   0  0  1  0  0  0
  -20.5905  -28.3724   23.1301 C   0  0  2  0  0  0
  -20.6771  -26.9375   22.5571 C   0  0  0  0  0  0
  -19.5878  -26.6314   21.5256 C   0  0  0  0  0  0
  -18.1972  -26.8023   22.1429 C   0  0  0  0  0  0
  -19.1541  -28.8893   23.2839 C   0  0  0  0  0  0
  -18.9458  -30.1496   23.8815 C   0  0  0  0  0  0
  -17.6477  -30.6632   24.0483 C   0  0  0  0  0  0
  -25.9046  -34.9431   23.5107 C   0  0  0  0  0  0
  -16.5373  -29.9082   23.6309 C   0  0  0  0  0  0
  -16.7294  -28.6500   23.0348 C   0  0  0  0  0  0
  -26.4487  -31.6562   25.0753 C   0  0  0  0  0  0
  -25.3708  -31.3754   26.1475 C   0  0  0  0  0  0
  -27.0355  -30.2976   24.6291 C   0  0  0  0  0  0
  -27.6040  -32.4314   25.7502 C   0  0  0  0  0  0
  -27.5578  -37.1789   24.8475 C   0  0  0  0  0  0
  -21.4251  -29.3096   22.3708 N   0  0  0  0  0  0
  -26.4291  -37.3744   23.9411 N   0  0  0  0  0  0
  -24.7050  -31.0404   22.0944 N   0  0  0  0  0  0
  -23.4247  -28.7987   23.2938 O   0  0  0  0  0  0
  -28.2828  -26.2838   20.1668 O   0  0  0  0  0  0
  -26.5644  -34.8895   22.4684 O   0  0  0  0  0  0
  -23.5469  -32.1319   23.7170 O   0  0  0  0  0  0
  -30.9784  -19.8877   21.9120 C   0  0  0  0  0  0
  -29.6404  -18.5130   20.4178 C   0  0  0  0  0  0
  -31.2503  -17.4427   21.8869 C   0  0  0  0  0  0
  -29.9800  -19.8434   20.9081 C   0  0  0  0  0  0
  -31.5954  -18.7124   22.3943 C   0  0  0  0  0  0
  -30.2654  -17.2832   20.8917 C   0  0  0  0  0  0
  -29.3126  -22.3818   20.9685 C   0  0  0  0  0  0
  -28.2274  -22.6215   18.9219 C   0  0  0  0  0  0
  -28.9164  -21.2383   19.0243 C   0  0  0  0  0  0
  -28.8797  -23.5413   19.9784 C   0  0  1  0  0  0
  -27.9771  -24.8225   20.4617 C   0  0  0  0  0  0
  -29.4125  -21.1242   20.3902 N   0  0  0  0  0  0
  -32.5519  -18.8047   23.4085 N   0  0  0  0  0  0
  -29.8936  -15.9047   20.4807 N   0  0  0  0  0  0
  -29.4995  -22.6182   22.1651 O   0  0  0  0  0  0
  -31.4631  -12.5729   19.1261 H   0  0  0  0  0  0
  -30.3846  -11.4904   19.9586 H   0  0  0  0  0  0
  -29.7713  -11.6671   17.5289 H   0  0  0  0  0  0
  -29.6204  -13.3998   17.6636 H   0  0  0  0  0  0
  -27.8969  -11.2590   18.9482 H   0  0  0  0  0  0
  -27.3621  -12.4528   17.7942 H   0  0  0  0  0  0
  -27.6074  -14.2455   19.4017 H   0  0  0  0  0  0
  -28.7170  -12.2274   21.4274 H   0  0  0  0  0  0
  -28.4244  -13.9326   21.7253 H   0  0  0  0  0  0
  -25.2819   -9.5701   22.4711 H   0  0  0  0  0  0
  -24.0035   -7.4680   22.7456 H   0  0  0  0  0  0
  -21.0879   -8.8807   19.8964 H   0  0  0  0  0  0
  -22.3753  -10.9660   19.6172 H   0  0  0  0  0  0
  -21.1976   -7.6174   23.9702 H   0  0  0  0  0  0
  -21.1470   -6.0559   25.9060 H   0  0  0  0  0  0
  -22.0577   -2.7626   23.2882 H   0  0  0  0  0  0
  -22.4162  -11.9687   22.4771 H   0  0  0  0  0  0
  -21.1191  -13.1083   22.2809 H   0  0  0  0  0  0
  -24.6741  -15.8612   20.5737 H   0  0  0  0  0  0
  -26.2949  -15.6378   20.1675 H   0  0  0  0  0  0
  -26.7194  -32.5363   23.1076 H   0  0  0  0  0  0
  -25.0067  -33.9687   25.0398 H   0  0  0  0  0  0
  -22.7389  -31.2884   21.3799 H   0  0  0  0  0  0
  -23.3775  -35.9600   23.3308 H   0  0  0  0  0  0
  -24.3614  -36.8860   22.2054 H   0  0  0  0  0  0
  -23.7250  -37.6488   23.6654 H   0  0  0  0  0  0
  -26.1559  -31.4965   20.6217 H   0  0  0  0  0  0
  -26.8611  -30.7823   22.0352 H   0  0  0  0  0  0
  -28.1233  -28.8520   21.2483 H   0  0  0  0  0  0
  -25.9658  -25.9345   18.9067 H   0  0  0  0  0  0
  -23.9847  -27.3242   18.9607 H   0  0  0  0  0  0
  -23.7997  -30.5681   19.3951 H   0  0  0  0  0  0
  -22.7862  -29.2263   19.8517 H   0  0  0  0  0  0
  -25.1294  -36.1916   25.0844 H   0  0  0  0  0  0
  -20.9971  -28.3402   24.1435 H   0  0  0  0  0  0
  -20.5456  -26.2356   23.3814 H   0  0  0  0  0  0
  -21.6705  -26.7284   22.1602 H   0  0  0  0  0  0
  -19.7030  -25.6162   21.1415 H   0  0  0  0  0  0
  -19.7005  -27.2978   20.6690 H   0  0  0  0  0  0
  -17.4366  -26.6986   21.3664 H   0  0  0  0  0  0
  -18.0054  -26.0073   22.8661 H   0  0  0  0  0  0
  -19.7946  -30.7349   24.2143 H   0  0  0  0  0  0
  -17.5048  -31.6353   24.5035 H   0  0  0  0  0  0
  -15.5391  -30.2978   23.7654 H   0  0  0  0  0  0
  -15.8682  -28.0803   22.7093 H   0  0  0  0  0  0
  -24.5879  -30.7094   25.7839 H   0  0  0  0  0  0
  -24.8924  -32.2958   26.4871 H   0  0  0  0  0  0
  -25.8028  -30.8971   27.0268 H   0  0  0  0  0  0
  -26.2969  -29.6707   24.1276 H   0  0  0  0  0  0
  -27.4002  -29.7254   25.4822 H   0  0  0  0  0  0
  -27.8861  -30.4283   23.9585 H   0  0  0  0  0  0
  -27.2657  -33.3601   26.2098 H   0  0  0  0  0  0
  -28.3828  -32.6860   25.0312 H   0  0  0  0  0  0
  -28.0731  -31.8428   26.5381 H   0  0  0  0  0  0
  -28.2600  -38.0074   24.7482 H   0  0  0  0  0  0
  -28.1053  -36.2602   24.6339 H   0  0  0  0  0  0
  -27.2300  -37.1476   25.8875 H   0  0  0  0  0  0
  -20.9400  -29.9003   21.7095 H   0  0  0  0  0  0
  -26.0185  -38.2825   24.1371 H   0  0  0  0  0  0
  -31.2963  -20.8403   22.3077 H   0  0  0  0  0  0
  -28.8849  -18.4341   19.6524 H   0  0  0  0  0  0
  -31.7291  -16.5664   22.2953 H   0  0  0  0  0  0
  -27.1742  -22.4771   19.1661 H   0  0  0  0  0  0
  -28.2692  -23.0323   17.9156 H   0  0  0  0  0  0
  -29.7656  -21.1659   18.3402 H   0  0  0  0  0  0
  -28.2298  -20.4292   18.7819 H   0  0  0  0  0  0
  -29.8083  -23.9375   19.5676 H   0  0  0  0  0  0
  -26.9694  -24.5857   20.1249 H   0  0  0  0  0  0
  -27.8908  -24.7661   21.5472 H   0  0  0  0  0  0
  -32.4288  -19.5522   24.0834 H   0  0  0  0  0  0
  -32.8433  -17.9442   23.8695 H   0  0  0  0  0  0
  -28.9305  -15.7813   20.2184 H   0  0  0  0  0  0
  1 25  1  0  0  0
  1 30  2  0  0  0
  1 84  1  0  0  0
  2  3  1  0  0  0
  2 25  1  0  0  0
  2 86  1  0  0  0
  2 87  1  0  0  0
  3  4  1  0  0  0
  3 88  1  0  0  0
  3 89  1  0  0  0
  4  5  1  0  0  0
  4 90  1  0  0  0
  4 91  1  0  0  0
  5  6  1  0  0  0
  5 26  1  0  0  0
  5 92  1  0  0  0
  6 25  1  0  0  0
  6 93  1  0  0  0
  6 94  1  0  0  0
  7  8  2  0  0  0
  7 26  1  0  0  0
  7 29  1  0  0  0
  8  9  1  0  0  0
  8 22  1  0  0  0
  9 10  1  0  0  0
  9 27  2  0  0  0
 10 11  2  0  0  0
 10 15  1  0  0  0
 11 12  1  0  0  0
 11 95  1  0  0  0
 12 13  2  0  0  0
 12 96  1  0  0  0
 13 14  1  0  0  0
 13 31  1  0  0  0
 14 15  2  0  0  0
 14 97  1  0  0  0
 15 98  1  0  0  0
 16 17  2  0  0  0
 16 21  1  0  0  0
 16 31  1  0  0  0
 17 18  1  0  0  0
 17 99  1  0  0  0
 18 19  2  0  0  0
 18100  1  0  0  0
 19 20  1  0  0  0
 19 24  1  0  0  0
 20 21  2  0  0  0
 20101  1  0  0  0
 21 23  1  0  0  0
 22 28  1  0  0  0
 22 32  2  0  0  0
 26 27  1  0  0  0
 28102  1  0  0  0
 28103  1  0  0  0
 29104  1  0  0  0
 29105  1  0  0  0
 33 34  1  0  0  0
 33 66  1  0  0  0
 33 70  2  0  0  0
 34 36  1  0  0  0
 34 59  1  0  0  0
 34106  1  0  0  0
 35 44  2  0  0  0
 35 45  1  0  0  0
 35 68  1  0  0  0
 36 56  1  0  0  0
 36107  1  0  0  0
 37 39  1  0  0  0
 37 47  1  0  0  0
 37 66  1  0  0  0
 37108  1  0  0  0
 38 43  2  0  0  0
 38 46  1  0  0  0
 38 47  1  0  0  0
 39 64  1  0  0  0
 39 67  2  0  0  0
 40 52  1  0  0  0
 40 53  2  0  0  0
 40 58  1  0  0  0
 41109  1  0  0  0
 41110  1  0  0  0
 41111  1  0  0  0
 41 48  1  0  0  0
 42 43  1  0  0  0
 42 66  1  0  0  0
 42112  1  0  0  0
 42113  1  0  0  0
 43 44  1  0  0  0
 44114  1  0  0  0
 45 46  2  0  0  0
 45115  1  0  0  0
 46116  1  0  0  0
 47117  1  0  0  0
 47118  1  0  0  0
 48 56  1  0  0  0
 48 65  1  0  0  0
 48119  1  0  0  0
 49 50  1  0  0  0
 49 53  1  0  0  0
 49 64  1  0  0  0
 49120  1  0  0  0
 50 51  1  0  0  0
 50121  1  0  0  0
 50122  1  0  0  0
 51 52  1  0  0  0
 51123  1  0  0  0
 51124  1  0  0  0
 52125  1  0  0  0
 52126  1  0  0  0
 53 54  1  0  0  0
 54 55  2  0  0  0
 54127  1  0  0  0
 55 57  1  0  0  0
 55128  1  0  0  0
 56 69  2  0  0  0
 57 58  2  0  0  0
 57129  1  0  0  0
 58130  1  0  0  0
 59 60  1  0  0  0
 59 61  1  0  0  0
 59 62  1  0  0  0
 60131  1  0  0  0
 60132  1  0  0  0
 60133  1  0  0  0
 61134  1  0  0  0
 61135  1  0  0  0
 61136  1  0  0  0
 62137  1  0  0  0
 62138  1  0  0  0
 62139  1  0  0  0
 63 65  1  0  0  0
 63140  1  0  0  0
 63141  1  0  0  0
 63142  1  0  0  0
 64143  1  0  0  0
 65144  1  0  0  0
 68 81  1  0  0  0
 71 74  2  0  0  0
 71 75  1  0  0  0
 71145  1  0  0  0
 72 74  1  0  0  0
 72 76  2  0  0  0
 72146  1  0  0  0
 73 75  2  0  0  0
 73 76  1  0  0  0
 73147  1  0  0  0
 74 82  1  0  0  0
 75 83  1  0  0  0
 76 84  1  0  0  0
 77 80  1  0  0  0
 77 82  1  0  0  0
 77 85  2  0  0  0
 78 79  1  0  0  0
 78 80  1  0  0  0
 78148  1  0  0  0
 78149  1  0  0  0
 79 82  1  0  0  0
 79150  1  0  0  0
 79151  1  0  0  0
 80 81  1  0  0  0
 80152  1  0  0  0
 81153  1  0  0  0
 81154  1  0  0  0
 83155  1  0  0  0
 83156  1  0  0  0
 84157  1  0  0  0
M  ISO  4   1 100  68 101  81 101  84 100
M  END
> <chiral flag>
0

> <version>
0

> <s_m_source_file>
/data/baiqing/PycharmProjects/Reinvent-master-3.2/result/LINK_invent/BTK/process_docking_weight1_custom_product_contain_oxygen_bond_distance_aromatic_linkinvent_7_9_3/rearranged_h_0100.sdf

> <i_m_source_file_index>
6

> <r_mmod_Potential_Energy-OPLS-2005>
326.711151123047

> <r_mmod_Stretch_Energy-OPLS-2005>
129.95751953125

> <r_mmod_Bend_Energy-OPLS-2005>
196.227188110352

> <r_mmod_Torsional_Energy-OPLS-2005>
297.234527587891

> <r_mmod_Improper_Torsional_Energy-OPLS-2005>
11.9976654052734

> <r_mmod_Van_der_Waal_Energy-OPLS-2005>
139.774978637695

> <r_mmod_Electrostatic_Energy-OPLS-2005>
-311.880645751953

> <r_mmod_Solvation_Energy-OPLS-2005>
-241.535552978516

> <b_mmod_Minimization_Converged-OPLS-2005>
0

> <r_mmod_RMS_Derivative-OPLS-2005>
7.32361936569214

$$$$
6
                    3D
 Structure written by MMmdl.
162170  0  0  1  0            999 V2000
  -30.6503  -14.6701   20.5651 C   0  0  0  0  0  0
  -30.4373  -12.4318   19.4561 C   0  0  0  0  0  0
  -29.5108  -12.5084   18.2213 C   0  0  0  0  0  0
  -28.0371  -12.3239   18.6345 C   0  0  0  0  0  0
  -27.6493  -13.2151   19.8422 C   0  0  2  0  0  0
  -28.6836  -13.0892   20.9757 C   0  0  0  0  0  0
  -25.2582  -13.8151   20.5652 C   0  0  0  0  0  0
  -24.1841  -13.0433   20.9165 C   0  0  0  0  0  0
  -24.6397  -11.6900   20.8707 C   0  0  0  0  0  0
  -23.9059  -10.4287   21.0389 C   0  0  0  0  0  0
  -24.3613   -9.4213   21.9173 C   0  0  0  0  0  0
  -23.6284   -8.2255   22.0749 C   0  0  0  0  0  0
  -22.4265   -8.0288   21.3549 C   0  0  0  0  0  0
  -21.9901   -9.0258   20.4649 C   0  0  0  0  0  0
  -22.7229  -10.2130   20.3048 C   0  0  0  0  0  0
  -21.6851   -6.0738   22.5285 C   0  0  0  0  0  0
  -21.4016   -6.5635   23.8219 C   0  0  0  0  0  0
  -21.3661   -5.6783   24.9177 C   0  0  0  0  0  0
  -21.6043   -4.3048   24.7225 C   0  0  0  0  0  0
  -21.8822   -3.8144   23.4345 C   0  0  0  0  0  0
  -21.9187   -4.6967   22.3403 C   0  0  0  0  0  0
  -22.7871  -13.5245   21.1837 C   0  0  0  0  0  0
  -22.1660   -4.2149   21.0985 F   0  0  0  0  0  0
  -21.5627   -3.4531   25.7736 F   0  0  0  0  0  0
  -30.0028  -13.4588   20.4325 N   0  0  0  0  0  0
  -26.2972  -12.9323   20.3172 N   0  0  0  0  0  0
  -25.9321  -11.6480   20.5668 N   0  0  0  0  0  0
  -22.0511  -12.8251   22.0397 N   0  0  0  0  0  0
  -25.4314  -15.1867   20.4142 N   0  0  0  0  0  0
  -31.7566  -14.8378   20.0383 O   0  0  0  0  0  0
  -21.6636   -6.8883   21.4248 O   0  0  0  0  0  0
  -22.3580  -14.5560   20.6683 O   0  0  0  0  0  0
  -24.6288  -31.8587   23.1966 C   0  0  0  0  0  0
  -25.9127  -32.4776   23.8308 C   0  0  1  0  0  0
  -27.2329  -27.3028   20.1169 C   0  0  0  0  0  0
  -25.5933  -33.8571   24.2248 N   0  0  0  0  0  0
  -23.4217  -30.4774   21.5407 C   0  0  2  0  0  0
  -24.8663  -28.9202   20.1112 C   0  0  0  0  0  0
  -22.7486  -29.4616   22.4935 C   0  0  0  0  0  0
  -18.0286  -28.1397   22.8492 C   0  0  0  0  0  0
  -24.1482  -36.7279   23.2638 C   0  0  0  0  0  0
  -25.9610  -30.7830   21.3669 C   0  0  0  0  0  0
  -26.0314  -29.4046   20.7149 C   0  0  0  0  0  0
  -27.2129  -28.6067   20.7071 C   0  0  0  0  0  0
  -26.0445  -26.8631   19.4953 C   0  0  0  0  0  0
  -24.8751  -27.6566   19.4922 C   0  0  0  0  0  0
  -23.6349  -29.8047   20.1573 C   0  0  0  0  0  0
  -25.4106  -36.3078   24.0333 C   0  0  1  0  0  0
  -20.5891  -28.3698   23.1288 C   0  0  2  0  0  0
  -20.6772  -26.9422   22.5417 C   0  0  0  0  0  0
  -19.5744  -26.6389   21.5221 C   0  0  0  0  0  0
  -18.1923  -26.7934   22.1634 C   0  0  0  0  0  0
  -19.1543  -28.8860   23.2889 C   0  0  0  0  0  0
  -18.9464  -30.1459   23.8913 C   0  0  0  0  0  0
  -17.6465  -30.6601   24.0563 C   0  0  0  0  0  0
  -25.9052  -34.9453   23.5094 C   0  0  0  0  0  0
  -16.5356  -29.9102   23.6333 C   0  0  0  0  0  0
  -16.7273  -28.6518   23.0358 C   0  0  0  0  0  0
  -26.4491  -31.6596   25.0693 C   0  0  0  0  0  0
  -25.3713  -31.3772   26.1419 C   0  0  0  0  0  0
  -27.0331  -30.3020   24.6149 C   0  0  0  0  0  0
  -27.6049  -32.4336   25.7476 C   0  0  0  0  0  0
  -27.5576  -37.1795   24.8470 C   0  0  0  0  0  0
  -21.4203  -29.3045   22.3683 N   0  0  0  0  0  0
  -26.4281  -37.3775   23.9428 N   0  0  0  0  0  0
  -24.6890  -31.0580   22.0916 N   0  0  0  0  0  0
  -23.4210  -28.8190   23.3038 O   0  0  0  0  0  0
  -28.3820  -26.4976   20.1906 O   0  0  0  0  0  0
  -26.5623  -34.8932   22.4665 O   0  0  0  0  0  0
  -23.5447  -32.1384   23.7293 O   0  0  0  0  0  0
  -30.2935  -17.7408   19.7159 C   0  0  0  0  0  0
  -30.0086  -19.1139   19.4077 C   0  0  0  0  0  0
  -28.8407  -17.9073   21.6003 C   0  0  0  0  0  0
  -29.7344  -17.0841   20.8482 C   0  0  0  0  0  0
  -29.1505  -19.9382   20.1936 C   0  0  0  0  0  0
  -28.5472  -19.2860   21.3064 C   0  0  0  0  0  0
  -30.9651  -16.3103   23.5582 C   0  0  0  0  0  0
  -26.7697  -19.3226   22.9249 C   0  0  0  0  0  0
  -28.1461  -23.8177   20.5184 C   0  0  0  0  0  0
  -29.9932  -15.4324   22.7491 C   0  0  0  0  0  0
  -29.1098  -22.5199   20.6047 C   0  0  0  0  0  0
  -28.5097  -25.1162   19.6487 C   0  0  0  0  0  0
  -28.8324  -21.2913   19.7835 N   0  0  0  0  0  0
  -30.0425  -15.6881   21.2888 N   0  0  0  0  0  0
  -27.6441  -20.0238   22.0461 O   0  0  0  0  0  0
  -31.4779  -12.5598   19.1519 H   0  0  0  0  0  0
  -30.3852  -11.4407   19.9092 H   0  0  0  0  0  0
  -29.7900  -11.7434   17.4945 H   0  0  0  0  0  0
  -29.6355  -13.4677   17.7166 H   0  0  0  0  0  0
  -27.9021  -11.2735   18.8975 H   0  0  0  0  0  0
  -27.3762  -12.5102   17.7883 H   0  0  0  0  0  0
  -27.6632  -14.2469   19.4882 H   0  0  0  0  0  0
  -28.7144  -12.0705   21.3650 H   0  0  0  0  0  0
  -28.3650  -13.7093   21.8090 H   0  0  0  0  0  0
  -25.2769   -9.5683   22.4738 H   0  0  0  0  0  0
  -23.9988   -7.4655   22.7476 H   0  0  0  0  0  0
  -21.0828   -8.8784   19.8971 H   0  0  0  0  0  0
  -22.3691  -10.9668   19.6157 H   0  0  0  0  0  0
  -21.2012   -7.6140   23.9716 H   0  0  0  0  0  0
  -21.1478   -6.0514   25.9075 H   0  0  0  0  0  0
  -22.0593   -2.7602   23.2841 H   0  0  0  0  0  0
  -22.4115  -11.9930   22.4816 H   0  0  0  0  0  0
  -21.1143  -13.1308   22.2591 H   0  0  0  0  0  0
  -24.6649  -15.8393   20.5357 H   0  0  0  0  0  0
  -26.2864  -15.6301   20.1039 H   0  0  0  0  0  0
  -26.7204  -32.5432   23.1067 H   0  0  0  0  0  0
  -25.0106  -33.9713   25.0409 H   0  0  0  0  0  0
  -22.7169  -31.2984   21.3953 H   0  0  0  0  0  0
  -23.3755  -35.9605   23.3301 H   0  0  0  0  0  0
  -24.3561  -36.8886   22.2051 H   0  0  0  0  0  0
  -23.7222  -37.6477   23.6648 H   0  0  0  0  0  0
  -26.0922  -31.5402   20.5928 H   0  0  0  0  0  0
  -26.8437  -30.8359   21.9924 H   0  0  0  0  0  0
  -28.1100  -28.9778   21.1810 H   0  0  0  0  0  0
  -25.9972  -25.8920   19.0240 H   0  0  0  0  0  0
  -23.9803  -27.2818   19.0155 H   0  0  0  0  0  0
  -23.7589  -30.5801   19.3995 H   0  0  0  0  0  0
  -22.7530  -29.2367   19.8558 H   0  0  0  0  0  0
  -25.1281  -36.1919   25.0821 H   0  0  0  0  0  0
  -20.9985  -28.3276   24.1407 H   0  0  0  0  0  0
  -20.5662  -26.2317   23.3624 H   0  0  0  0  0  0
  -21.6638  -26.7446   22.1210 H   0  0  0  0  0  0
  -19.6901  -25.6296   21.1256 H   0  0  0  0  0  0
  -19.6672  -27.3201   20.6749 H   0  0  0  0  0  0
  -17.4191  -26.6693   21.4041 H   0  0  0  0  0  0
  -18.0322  -26.0076   22.9027 H   0  0  0  0  0  0
  -19.7939  -30.7269   24.2306 H   0  0  0  0  0  0
  -17.5021  -31.6285   24.5160 H   0  0  0  0  0  0
  -15.5361  -30.3015   23.7638 H   0  0  0  0  0  0
  -15.8670  -28.0839   22.7078 H   0  0  0  0  0  0
  -24.5902  -30.7090   25.7775 H   0  0  0  0  0  0
  -24.8877  -32.2949   26.4779 H   0  0  0  0  0  0
  -25.8016  -30.9019   27.0239 H   0  0  0  0  0  0
  -26.2902  -29.6788   24.1154 H   0  0  0  0  0  0
  -27.4024  -29.7262   25.4641 H   0  0  0  0  0  0
  -27.8765  -30.4325   23.9366 H   0  0  0  0  0  0
  -27.2669  -33.3654   26.2027 H   0  0  0  0  0  0
  -28.3874  -32.6875   25.0315 H   0  0  0  0  0  0
  -28.0698  -31.8476   26.5413 H   0  0  0  0  0  0
  -28.2603  -38.0084   24.7515 H   0  0  0  0  0  0
  -28.1064  -36.2619   24.6291 H   0  0  0  0  0  0
  -27.2304  -37.1436   25.8875 H   0  0  0  0  0  0
  -20.9401  -29.8752   21.6869 H   0  0  0  0  0  0
  -26.0162  -38.2853   24.1418 H   0  0  0  0  0  0
  -30.9736  -17.2076   19.0671 H   0  0  0  0  0  0
  -30.4770  -19.5348   18.5307 H   0  0  0  0  0  0
  -28.3502  -17.4541   22.4440 H   0  0  0  0  0  0
  -30.9245  -16.0350   24.6125 H   0  0  0  0  0  0
  -30.7241  -17.3706   23.4959 H   0  0  0  0  0  0
  -31.9969  -16.1776   23.2302 H   0  0  0  0  0  0
  -26.0082  -20.0023   23.3056 H   0  0  0  0  0  0
  -27.3070  -18.9129   23.7812 H   0  0  0  0  0  0
  -26.2509  -18.5111   22.4106 H   0  0  0  0  0  0
  -28.1133  -24.1945   21.5421 H   0  0  0  0  0  0
  -27.1166  -23.5130   20.3234 H   0  0  0  0  0  0
  -28.9760  -15.5538   23.1189 H   0  0  0  0  0  0
  -30.2420  -14.3956   22.9901 H   0  0  0  0  0  0
  -29.1194  -22.1975   21.6478 H   0  0  0  0  0  0
  -30.1351  -22.8376   20.4026 H   0  0  0  0  0  0
  -28.0411  -25.0511   18.6673 H   0  0  0  0  0  0
  -29.5759  -25.0353   19.4346 H   0  0  0  0  0  0
  -29.0788  -21.4467   18.8088 H   0  0  0  0  0  0
  1 25  1  0  0  0
  1 30  2  0  0  0
  1 84  1  0  0  0
  2  3  1  0  0  0
  2 25  1  0  0  0
  2 86  1  0  0  0
  2 87  1  0  0  0
  3  4  1  0  0  0
  3 88  1  0  0  0
  3 89  1  0  0  0
  4  5  1  0  0  0
  4 90  1  0  0  0
  4 91  1  0  0  0
  5  6  1  0  0  0
  5 26  1  0  0  0
  5 92  1  0  0  0
  6 25  1  0  0  0
  6 93  1  0  0  0
  6 94  1  0  0  0
  7  8  2  0  0  0
  7 26  1  0  0  0
  7 29  1  0  0  0
  8  9  1  0  0  0
  8 22  1  0  0  0
  9 10  1  0  0  0
  9 27  2  0  0  0
 10 11  2  0  0  0
 10 15  1  0  0  0
 11 12  1  0  0  0
 11 95  1  0  0  0
 12 13  2  0  0  0
 12 96  1  0  0  0
 13 14  1  0  0  0
 13 31  1  0  0  0
 14 15  2  0  0  0
 14 97  1  0  0  0
 15 98  1  0  0  0
 16 17  2  0  0  0
 16 21  1  0  0  0
 16 31  1  0  0  0
 17 18  1  0  0  0
 17 99  1  0  0  0
 18 19  2  0  0  0
 18100  1  0  0  0
 19 20  1  0  0  0
 19 24  1  0  0  0
 20 21  2  0  0  0
 20101  1  0  0  0
 21 23  1  0  0  0
 22 28  1  0  0  0
 22 32  2  0  0  0
 26 27  1  0  0  0
 28102  1  0  0  0
 28103  1  0  0  0
 29104  1  0  0  0
 29105  1  0  0  0
 33 34  1  0  0  0
 33 66  1  0  0  0
 33 70  2  0  0  0
 34 36  1  0  0  0
 34 59  1  0  0  0
 34106  1  0  0  0
 35 44  2  0  0  0
 35 45  1  0  0  0
 35 68  1  0  0  0
 36 56  1  0  0  0
 36107  1  0  0  0
 37 39  1  0  0  0
 37 47  1  0  0  0
 37 66  1  0  0  0
 37108  1  0  0  0
 38 43  2  0  0  0
 38 46  1  0  0  0
 38 47  1  0  0  0
 39 64  1  0  0  0
 39 67  2  0  0  0
 40 52  1  0  0  0
 40 53  2  0  0  0
 40 58  1  0  0  0
 41109  1  0  0  0
 41110  1  0  0  0
 41111  1  0  0  0
 41 48  1  0  0  0
 42 43  1  0  0  0
 42 66  1  0  0  0
 42112  1  0  0  0
 42113  1  0  0  0
 43 44  1  0  0  0
 44114  1  0  0  0
 45 46  2  0  0  0
 45115  1  0  0  0
 46116  1  0  0  0
 47117  1  0  0  0
 47118  1  0  0  0
 48 56  1  0  0  0
 48 65  1  0  0  0
 48119  1  0  0  0
 49 50  1  0  0  0
 49 53  1  0  0  0
 49 64  1  0  0  0
 49120  1  0  0  0
 50 51  1  0  0  0
 50121  1  0  0  0
 50122  1  0  0  0
 51 52  1  0  0  0
 51123  1  0  0  0
 51124  1  0  0  0
 52125  1  0  0  0
 52126  1  0  0  0
 53 54  1  0  0  0
 54 55  2  0  0  0
 54127  1  0  0  0
 55 57  1  0  0  0
 55128  1  0  0  0
 56 69  2  0  0  0
 57 58  2  0  0  0
 57129  1  0  0  0
 58130  1  0  0  0
 59 60  1  0  0  0
 59 61  1  0  0  0
 59 62  1  0  0  0
 60131  1  0  0  0
 60132  1  0  0  0
 60133  1  0  0  0
 61134  1  0  0  0
 61135  1  0  0  0
 61136  1  0  0  0
 62137  1  0  0  0
 62138  1  0  0  0
 62139  1  0  0  0
 63 65  1  0  0  0
 63140  1  0  0  0
 63141  1  0  0  0
 63142  1  0  0  0
 64143  1  0  0  0
 65144  1  0  0  0
 68 82  1  0  0  0
 71 72  2  0  0  0
 71 74  1  0  0  0
 71145  1  0  0  0
 72 75  1  0  0  0
 72146  1  0  0  0
 73 74  2  0  0  0
 73 76  1  0  0  0
 73147  1  0  0  0
 74 84  1  0  0  0
 75 76  2  0  0  0
 75 83  1  0  0  0
 76 85  1  0  0  0
 77 80  1  0  0  0
 77148  1  0  0  0
 77149  1  0  0  0
 77150  1  0  0  0
 78 85  1  0  0  0
 78151  1  0  0  0
 78152  1  0  0  0
 78153  1  0  0  0
 79 81  1  0  0  0
 79 82  1  0  0  0
 79154  1  0  0  0
 79155  1  0  0  0
 80 84  1  0  0  0
 80156  1  0  0  0
 80157  1  0  0  0
 81 83  1  0  0  0
 81158  1  0  0  0
 81159  1  0  0  0
 82160  1  0  0  0
 82161  1  0  0  0
 83162  1  0  0  0
M  ISO  4   1 100  68 101  82 101  84 100
M  END
> <chiral flag>
0

> <version>
0

> <s_m_source_file>
/data/baiqing/PycharmProjects/Reinvent-master-3.2/result/LINK_invent/BTK/process_docking_weight1_custom_product_contain_oxygen_bond_distance_aromatic_linkinvent_7_9_3/rearranged_h_0100.sdf

> <i_m_source_file_index>
7

> <r_mmod_Potential_Energy-OPLS-2005>
334.706237792969

> <r_mmod_Stretch_Energy-OPLS-2005>
107.677391052246

> <r_mmod_Bend_Energy-OPLS-2005>
193.679824829102

> <r_mmod_Torsional_Energy-OPLS-2005>
301.933990478516

> <r_mmod_Improper_Torsional_Energy-OPLS-2005>
6.68366193771362

> <r_mmod_Van_der_Waal_Energy-OPLS-2005>
150.835815429688

> <r_mmod_Electrostatic_Energy-OPLS-2005>
-271.900939941406

> <r_mmod_Solvation_Energy-OPLS-2005>
-208.825607299805

> <b_mmod_Minimization_Converged-OPLS-2005>
0

> <r_mmod_RMS_Derivative-OPLS-2005>
2.6561291217804

$$$$
7
                    3D
 Structure written by MMmdl.
151159  0  0  1  0            999 V2000
  -30.7229  -14.5100   20.6656 C   0  0  0  0  0  0
  -30.4335  -12.3697   19.4243 C   0  0  0  0  0  0
  -29.4972  -12.5333   18.2094 C   0  0  0  0  0  0
  -28.0223  -12.3645   18.6210 C   0  0  0  0  0  0
  -27.6617  -13.2068   19.8707 C   0  0  2  0  0  0
  -28.6976  -12.9899   20.9933 C   0  0  0  0  0  0
  -25.2587  -13.8155   20.5670 C   0  0  0  0  0  0
  -24.1839  -13.0431   20.9172 C   0  0  0  0  0  0
  -24.6388  -11.6897   20.8717 C   0  0  0  0  0  0
  -23.9053  -10.4286   21.0391 C   0  0  0  0  0  0
  -24.3607   -9.4209   21.9175 C   0  0  0  0  0  0
  -23.6286   -8.2243   22.0749 C   0  0  0  0  0  0
  -22.4270   -8.0280   21.3543 C   0  0  0  0  0  0
  -21.9901   -9.0248   20.4644 C   0  0  0  0  0  0
  -22.7224  -10.2128   20.3046 C   0  0  0  0  0  0
  -21.6849   -6.0739   22.5281 C   0  0  0  0  0  0
  -21.4010   -6.5641   23.8214 C   0  0  0  0  0  0
  -21.3659   -5.6794   24.9177 C   0  0  0  0  0  0
  -21.6044   -4.3055   24.7225 C   0  0  0  0  0  0
  -21.8821   -3.8150   23.4343 C   0  0  0  0  0  0
  -21.9191   -4.6968   22.3402 C   0  0  0  0  0  0
  -22.7862  -13.5230   21.1848 C   0  0  0  0  0  0
  -22.1663   -4.2154   21.0978 F   0  0  0  0  0  0
  -21.5626   -3.4540   25.7735 F   0  0  0  0  0  0
  -30.0353  -13.3360   20.4688 N   0  0  0  0  0  0
  -26.3019  -12.9321   20.3317 N   0  0  0  0  0  0
  -25.9309  -11.6480   20.5716 N   0  0  0  0  0  0
  -22.0501  -12.8228   22.0411 N   0  0  0  0  0  0
  -25.4300  -15.1877   20.4107 N   0  0  0  0  0  0
  -31.7243  -14.8044   20.0025 O   0  0  0  0  0  0
  -21.6633   -6.8881   21.4243 O   0  0  0  0  0  0
  -22.3543  -14.5540   20.6705 O   0  0  0  0  0  0
  -24.6216  -31.8644   23.2077 C   0  0  0  0  0  0
  -25.9090  -32.4800   23.8375 C   0  0  1  0  0  0
  -27.2238  -27.3678   20.0959 C   0  0  0  0  0  0
  -25.5940  -33.8604   24.2302 N   0  0  0  0  0  0
  -23.4114  -30.4916   21.5494 C   0  0  2  0  0  0
  -24.8554  -28.9582   20.1096 C   0  0  0  0  0  0
  -22.7444  -29.4649   22.4950 C   0  0  0  0  0  0
  -18.0285  -28.1373   22.8494 C   0  0  0  0  0  0
  -24.1486  -36.7295   23.2635 C   0  0  0  0  0  0
  -25.9499  -30.8078   21.3736 C   0  0  0  0  0  0
  -26.0231  -29.4408   20.7135 C   0  0  0  0  0  0
  -27.2088  -28.6558   20.7026 C   0  0  0  0  0  0
  -26.0301  -26.9324   19.4662 C   0  0  0  0  0  0
  -24.8587  -27.7059   19.4805 C   0  0  0  0  0  0
  -23.6218  -29.8321   20.1622 C   0  0  0  0  0  0
  -25.4108  -36.3093   24.0335 C   0  0  1  0  0  0
  -20.5880  -28.3674   23.1295 C   0  0  2  0  0  0
  -20.6774  -26.9402   22.5408 C   0  0  0  0  0  0
  -19.5748  -26.6379   21.5209 C   0  0  0  0  0  0
  -18.1930  -26.7916   22.1622 C   0  0  0  0  0  0
  -19.1535  -28.8840   23.2888 C   0  0  0  0  0  0
  -18.9460  -30.1446   23.8895 C   0  0  0  0  0  0
  -17.6463  -30.6580   24.0565 C   0  0  0  0  0  0
  -25.9050  -34.9469   23.5108 C   0  0  0  0  0  0
  -16.5353  -29.9085   23.6331 C   0  0  0  0  0  0
  -16.7274  -28.6500   23.0354 C   0  0  0  0  0  0
  -26.4496  -31.6594   25.0727 C   0  0  0  0  0  0
  -25.3748  -31.3745   26.1474 C   0  0  0  0  0  0
  -27.0328  -30.3025   24.6147 C   0  0  0  0  0  0
  -27.6054  -32.4328   25.7504 C   0  0  0  0  0  0
  -27.5579  -37.1797   24.8463 C   0  0  0  0  0  0
  -21.4164  -29.3042   22.3690 N   0  0  0  0  0  0
  -26.4283  -37.3792   23.9421 N   0  0  0  0  0  0
  -24.6796  -31.0699   22.1008 N   0  0  0  0  0  0
  -23.4195  -28.8171   23.2989 O   0  0  0  0  0  0
  -28.3541  -26.5467   20.1421 O   0  0  0  0  0  0
  -26.5594  -34.8939   22.4660 O   0  0  0  0  0  0
  -23.5392  -32.1409   23.7440 O   0  0  0  0  0  0
  -30.1710  -17.7690   20.5988 C   0  0  0  0  0  0
  -29.5941  -17.5835   22.8471 C   0  0  0  0  0  0
  -30.0466  -16.8881   21.7446 C   0  0  0  0  0  0
  -29.8234  -19.0954   20.8571 C   0  0  0  0  0  0
  -30.3216  -15.3867   21.8774 C   0  0  0  0  0  0
  -29.2172  -24.1251   20.3088 C   0  0  0  0  0  0
  -28.9499  -22.6114   20.0222 C   0  0  0  0  0  0
  -28.1299  -25.1323   19.8302 C   0  0  0  0  0  0
  -29.9777  -21.5511   20.5540 C   0  0  0  0  0  0
  -30.2566  -14.8481   23.0283 N   0  0  0  0  0  0
  -30.2400  -24.5046   20.8893 O   0  0  0  0  0  0
  -29.7207  -20.2038   20.0437 O   0  0  0  0  0  0
  -29.3035  -19.2672   22.5188 S   0  0  0  0  0  0
  -31.4725  -12.4980   19.1158 H   0  0  0  0  0  0
  -30.3726  -11.3536   19.8172 H   0  0  0  0  0  0
  -29.7527  -11.8054   17.4381 H   0  0  0  0  0  0
  -29.6443  -13.5177   17.7626 H   0  0  0  0  0  0
  -27.8535  -11.3066   18.8278 H   0  0  0  0  0  0
  -27.3652  -12.6201   17.7885 H   0  0  0  0  0  0
  -27.7062  -14.2550   19.5744 H   0  0  0  0  0  0
  -28.6911  -11.9482   21.3178 H   0  0  0  0  0  0
  -28.3935  -13.5609   21.8676 H   0  0  0  0  0  0
  -25.2754   -9.5692   22.4747 H   0  0  0  0  0  0
  -24.0001   -7.4636   22.7464 H   0  0  0  0  0  0
  -21.0834   -8.8762   19.8947 H   0  0  0  0  0  0
  -22.3681  -10.9664   19.6153 H   0  0  0  0  0  0
  -21.2000   -7.6149   23.9722 H   0  0  0  0  0  0
  -21.1480   -6.0521   25.9081 H   0  0  0  0  0  0
  -22.0597   -2.7612   23.2839 H   0  0  0  0  0  0
  -22.4108  -11.9889   22.4810 H   0  0  0  0  0  0
  -21.1117  -13.1258   22.2603 H   0  0  0  0  0  0
  -24.6665  -15.8443   20.5318 H   0  0  0  0  0  0
  -26.2882  -15.6313   20.1081 H   0  0  0  0  0  0
  -26.7157  -32.5474   23.1126 H   0  0  0  0  0  0
  -25.0160  -33.9762   25.0494 H   0  0  0  0  0  0
  -22.7016  -31.3101   21.4112 H   0  0  0  0  0  0
  -23.3755  -35.9620   23.3291 H   0  0  0  0  0  0
  -24.3580  -36.8908   22.2048 H   0  0  0  0  0  0
  -23.7236  -37.6500   23.6651 H   0  0  0  0  0  0
  -26.0781  -31.5744   20.6080 H   0  0  0  0  0  0
  -26.8327  -30.8519   21.9997 H   0  0  0  0  0  0
  -28.1038  -29.0242   21.1845 H   0  0  0  0  0  0
  -25.9646  -25.9841   18.9549 H   0  0  0  0  0  0
  -23.9646  -27.3322   19.0007 H   0  0  0  0  0  0
  -23.7362  -30.6112   19.4074 H   0  0  0  0  0  0
  -22.7423  -29.2601   19.8605 H   0  0  0  0  0  0
  -25.1281  -36.1943   25.0824 H   0  0  0  0  0  0
  -20.9980  -28.3235   24.1412 H   0  0  0  0  0  0
  -20.5673  -26.2277   23.3599 H   0  0  0  0  0  0
  -21.6641  -26.7436   22.1199 H   0  0  0  0  0  0
  -19.6918  -25.6292   21.1232 H   0  0  0  0  0  0
  -19.6692  -27.3192   20.6743 H   0  0  0  0  0  0
  -17.4200  -26.6673   21.4021 H   0  0  0  0  0  0
  -18.0329  -26.0042   22.9004 H   0  0  0  0  0  0
  -19.7941  -30.7260   24.2250 H   0  0  0  0  0  0
  -17.5027  -31.6260   24.5167 H   0  0  0  0  0  0
  -15.5356  -30.2989   23.7656 H   0  0  0  0  0  0
  -15.8671  -28.0823   22.7068 H   0  0  0  0  0  0
  -24.5916  -30.7097   25.7818 H   0  0  0  0  0  0
  -24.8959  -32.2922   26.4895 H   0  0  0  0  0  0
  -25.8084  -30.8936   27.0251 H   0  0  0  0  0  0
  -26.2893  -29.6782   24.1177 H   0  0  0  0  0  0
  -27.4046  -29.7285   25.4644 H   0  0  0  0  0  0
  -27.8753  -30.4310   23.9347 H   0  0  0  0  0  0
  -27.2652  -33.3628   26.2072 H   0  0  0  0  0  0
  -28.3875  -32.6875   25.0338 H   0  0  0  0  0  0
  -28.0707  -31.8460   26.5434 H   0  0  0  0  0  0
  -28.2586  -38.0106   24.7522 H   0  0  0  0  0  0
  -28.1086  -36.2639   24.6260 H   0  0  0  0  0  0
  -27.2301  -37.1400   25.8867 H   0  0  0  0  0  0
  -20.9319  -29.8796   21.6943 H   0  0  0  0  0  0
  -26.0165  -38.2863   24.1441 H   0  0  0  0  0  0
  -30.4966  -17.4045   19.6349 H   0  0  0  0  0  0
  -29.3873  -17.2163   23.8435 H   0  0  0  0  0  0
  -28.8697  -22.5044   18.9412 H   0  0  0  0  0  0
  -27.9636  -22.3736   20.4206 H   0  0  0  0  0  0
  -27.2018  -24.7993   20.2965 H   0  0  0  0  0  0
  -28.0110  -25.0210   18.7519 H   0  0  0  0  0  0
  -30.0285  -21.6214   21.6389 H   0  0  0  0  0  0
  -30.9742  -21.8293   20.2081 H   0  0  0  0  0  0
  -30.0161  -15.5313   23.7326 H   0  0  0  0  0  0
  1 25  1  0  0  0
  1 30  2  0  0  0
  1 75  1  0  0  0
  2  3  1  0  0  0
  2 25  1  0  0  0
  2 84  1  0  0  0
  2 85  1  0  0  0
  3  4  1  0  0  0
  3 86  1  0  0  0
  3 87  1  0  0  0
  4  5  1  0  0  0
  4 88  1  0  0  0
  4 89  1  0  0  0
  5  6  1  0  0  0
  5 26  1  0  0  0
  5 90  1  0  0  0
  6 25  1  0  0  0
  6 91  1  0  0  0
  6 92  1  0  0  0
  7  8  2  0  0  0
  7 26  1  0  0  0
  7 29  1  0  0  0
  8  9  1  0  0  0
  8 22  1  0  0  0
  9 10  1  0  0  0
  9 27  2  0  0  0
 10 11  2  0  0  0
 10 15  1  0  0  0
 11 12  1  0  0  0
 11 93  1  0  0  0
 12 13  2  0  0  0
 12 94  1  0  0  0
 13 14  1  0  0  0
 13 31  1  0  0  0
 14 15  2  0  0  0
 14 95  1  0  0  0
 15 96  1  0  0  0
 16 17  2  0  0  0
 16 21  1  0  0  0
 16 31  1  0  0  0
 17 18  1  0  0  0
 17 97  1  0  0  0
 18 19  2  0  0  0
 18 98  1  0  0  0
 19 20  1  0  0  0
 19 24  1  0  0  0
 20 21  2  0  0  0
 20 99  1  0  0  0
 21 23  1  0  0  0
 22 28  1  0  0  0
 22 32  2  0  0  0
 26 27  1  0  0  0
 28100  1  0  0  0
 28101  1  0  0  0
 29102  1  0  0  0
 29103  1  0  0  0
 33 34  1  0  0  0
 33 66  1  0  0  0
 33 70  2  0  0  0
 34 36  1  0  0  0
 34 59  1  0  0  0
 34104  1  0  0  0
 35 44  2  0  0  0
 35 45  1  0  0  0
 35 68  1  0  0  0
 36 56  1  0  0  0
 36105  1  0  0  0
 37 39  1  0  0  0
 37 47  1  0  0  0
 37 66  1  0  0  0
 37106  1  0  0  0
 38 43  2  0  0  0
 38 46  1  0  0  0
 38 47  1  0  0  0
 39 64  1  0  0  0
 39 67  2  0  0  0
 40 52  1  0  0  0
 40 53  2  0  0  0
 40 58  1  0  0  0
 41107  1  0  0  0
 41108  1  0  0  0
 41109  1  0  0  0
 41 48  1  0  0  0
 42 43  1  0  0  0
 42 66  1  0  0  0
 42110  1  0  0  0
 42111  1  0  0  0
 43 44  1  0  0  0
 44112  1  0  0  0
 45 46  2  0  0  0
 45113  1  0  0  0
 46114  1  0  0  0
 47115  1  0  0  0
 47116  1  0  0  0
 48 56  1  0  0  0
 48 65  1  0  0  0
 48117  1  0  0  0
 49 50  1  0  0  0
 49 53  1  0  0  0
 49 64  1  0  0  0
 49118  1  0  0  0
 50 51  1  0  0  0
 50119  1  0  0  0
 50120  1  0  0  0
 51 52  1  0  0  0
 51121  1  0  0  0
 51122  1  0  0  0
 52123  1  0  0  0
 52124  1  0  0  0
 53 54  1  0  0  0
 54 55  2  0  0  0
 54125  1  0  0  0
 55 57  1  0  0  0
 55126  1  0  0  0
 56 69  2  0  0  0
 57 58  2  0  0  0
 57127  1  0  0  0
 58128  1  0  0  0
 59 60  1  0  0  0
 59 61  1  0  0  0
 59 62  1  0  0  0
 60129  1  0  0  0
 60130  1  0  0  0
 60131  1  0  0  0
 61132  1  0  0  0
 61133  1  0  0  0
 61134  1  0  0  0
 62135  1  0  0  0
 62136  1  0  0  0
 62137  1  0  0  0
 63 65  1  0  0  0
 63138  1  0  0  0
 63139  1  0  0  0
 63140  1  0  0  0
 64141  1  0  0  0
 65142  1  0  0  0
 68 78  1  0  0  0
 71 73  1  0  0  0
 71 74  2  0  0  0
 71143  1  0  0  0
 72 73  2  0  0  0
 72 83  1  0  0  0
 72144  1  0  0  0
 73 75  1  0  0  0
 74 82  1  0  0  0
 74 83  1  0  0  0
 75 80  2  0  0  0
 76 77  1  0  0  0
 76 78  1  0  0  0
 76 81  2  0  0  0
 77 79  1  0  0  0
 77145  1  0  0  0
 77146  1  0  0  0
 78147  1  0  0  0
 78148  1  0  0  0
 79 82  1  0  0  0
 79149  1  0  0  0
 79150  1  0  0  0
 80151  1  0  0  0
M  ISO  4   1 100  68 101  75 100  78 101
M  END
> <chiral flag>
0

> <version>
0

> <s_m_source_file>
/data/baiqing/PycharmProjects/Reinvent-master-3.2/result/LINK_invent/BTK/process_docking_weight1_custom_product_contain_oxygen_bond_distance_aromatic_linkinvent_7_9_3/rearranged_h_0100.sdf

> <i_m_source_file_index>
8

> <r_mmod_Potential_Energy-OPLS-2005>
108.269866943359

> <r_mmod_Stretch_Energy-OPLS-2005>
65.1427307128906

> <r_mmod_Bend_Energy-OPLS-2005>
136.743118286133

> <r_mmod_Torsional_Energy-OPLS-2005>
196.804016113281

> <r_mmod_Improper_Torsional_Energy-OPLS-2005>
3.62213492393494

> <r_mmod_Van_der_Waal_Energy-OPLS-2005>
143.662887573242

> <r_mmod_Electrostatic_Energy-OPLS-2005>
-231.933074951172

> <r_mmod_Solvation_Energy-OPLS-2005>
-231.130874633789

> <b_mmod_Minimization_Converged-OPLS-2005>
0

> <r_mmod_RMS_Derivative-OPLS-2005>
1.19045639038086

$$$$
8
                    3D
 Structure written by MMmdl.
163172  0  0  1  0            999 V2000
  -28.9531  -18.2650   20.3064 C   0  0  0  0  0  0
  -29.8678  -15.0550   19.6029 C   0  0  0  0  0  0
  -29.4812  -13.7471   18.6115 C   0  0  0  0  0  0
  -28.3771  -12.8156   19.1081 C   0  0  0  0  0  0
  -27.5005  -13.7919   19.8892 C   0  0  2  0  0  0
  -28.1786  -14.9957   20.8411 C   0  0  0  0  0  0
  -25.1388  -13.9096   20.6106 C   0  0  0  0  0  0
  -24.1383  -13.0562   20.9442 C   0  0  0  0  0  0
  -24.6836  -11.7351   20.8685 C   0  0  0  0  0  0
  -23.9635  -10.4409   21.0165 C   0  0  0  0  0  0
  -24.3985   -9.4289   21.9044 C   0  0  0  0  0  0
  -23.6509   -8.2377   22.0692 C   0  0  0  0  0  0
  -22.4465   -8.0399   21.3518 C   0  0  0  0  0  0
  -22.0227   -9.0363   20.4554 C   0  0  0  0  0  0
  -22.7706  -10.2180   20.2881 C   0  0  0  0  0  0
  -21.6911   -6.0813   22.5275 C   0  0  0  0  0  0
  -21.4086   -6.5684   23.8221 C   0  0  0  0  0  0
  -21.3700   -5.6820   24.9173 C   0  0  0  0  0  0
  -21.6055   -4.3077   24.7215 C   0  0  0  0  0  0
  -21.8801   -3.8180   23.4322 C   0  0  0  0  0  0
  -21.9196   -4.7020   22.3388 C   0  0  0  0  0  0
  -22.7245  -13.4779   21.1973 C   0  0  0  0  0  0
  -22.1663   -4.2195   21.0970 F   0  0  0  0  0  0
  -21.5607   -3.4549   25.7721 F   0  0  0  0  0  0
  -28.8680  -16.3848   20.2046 N   0  0  0  0  0  0
  -26.2646  -13.1628   20.4016 N   0  0  0  0  0  0
  -26.0004  -11.8130   20.5665 N   0  0  0  0  0  0
  -22.0200  -12.7564   22.0583 N   0  0  0  0  0  0
  -25.1711  -15.2839   20.4210 N   0  0  0  0  0  0
  -30.2142  -17.8434   20.1686 O   0  0  0  0  0  0
  -21.6722   -6.9032   21.4269 O   0  0  0  0  0  0
  -22.2669  -14.4983   20.6817 O   0  0  0  0  0  0
  -24.7555  -31.4893   23.0036 C   0  0  0  0  0  0
  -25.9511  -32.2884   23.7030 C   0  0  1  0  0  0
  -28.5897  -25.5862   19.8351 C   0  0  0  0  0  0
  -25.5295  -33.6987   24.0409 N   0  0  0  0  0  0
  -23.6539  -29.8084   21.4282 C   0  0  2  0  0  0
  -24.7656  -27.1715   20.4758 C   0  0  0  0  0  0
  -22.7647  -29.2336   22.5264 C   0  0  0  0  0  0
  -18.0106  -28.1488   22.8422 C   0  0  0  0  0  0
  -24.1507  -36.6588   23.2703 C   0  0  0  0  0  0
  -26.0627  -29.3725   22.0788 C   0  0  0  0  0  0
  -26.2090  -27.7201   21.5597 C   0  0  0  0  0  0
  -28.0739  -26.9342   21.4495 C   0  0  0  0  0  0
  -26.8902  -24.6941   18.6082 C   0  0  0  0  0  0
  -24.8559  -25.5834   19.1275 C   0  0  0  0  0  0
  -23.8691  -28.5931   20.3118 C   0  0  0  0  0  0
  -25.4233  -36.2120   24.0139 C   0  0  1  0  0  0
  -20.5609  -28.3569   23.1388 C   0  0  2  0  0  0
  -20.6409  -26.9211   22.5655 C   0  0  0  0  0  0
  -19.5484  -26.6432   21.5311 C   0  0  0  0  0  0
  -18.1701  -26.7970   22.1745 C   0  0  0  0  0  0
  -19.1345  -28.8964   23.2798 C   0  0  0  0  0  0
  -18.9323  -30.1577   23.8830 C   0  0  0  0  0  0
  -17.6307  -30.6660   24.0578 C   0  0  0  0  0  0
  -25.9173  -34.8458   23.4485 C   0  0  0  0  0  0
  -16.5216  -29.9173   23.6272 C   0  0  0  0  0  0
  -16.7141  -28.6629   23.0252 C   0  0  0  0  0  0
  -26.4910  -31.6462   25.0570 C   0  0  0  0  0  0
  -25.3594  -31.3735   26.0802 C   0  0  0  0  0  0
  -27.2415  -30.3161   24.8524 C   0  0  0  0  0  0
  -27.5480  -32.5762   25.7151 C   0  0  0  0  0  0
  -27.5554  -37.1286   24.8427 C   0  0  0  0  0  0
  -21.4332  -29.2377   22.3675 N   0  0  0  0  0  0
  -26.4225  -37.3094   23.9404 N   0  0  0  0  0  0
  -24.8819  -30.3779   22.1031 N   0  0  0  0  0  0
  -23.3106  -28.7042   23.4910 O   0  0  0  0  0  0
  -29.7990  -25.8867   19.4413 O   0  0  0  0  0  0
  -26.6481  -34.8360   22.4565 O   0  0  0  0  0  0
  -23.6398  -31.9350   23.3488 O   0  0  0  0  0  0
  -26.6979  -26.8090   19.2538 C   0  0  0  0  0  0
  -26.4542  -26.8449   17.5186 C   0  0  0  0  0  0
  -28.2411  -27.9902   18.2401 C   0  0  0  0  0  0
  -26.5837  -25.4833   20.5915 C   0  0  0  0  0  0
  -27.6652  -27.4421   17.1090 C   0  0  0  0  0  0
  -27.2612  -27.4831   19.4378 C   0  0  0  0  0  0
  -30.6112  -28.5591   15.1543 C   0  0  0  0  0  0
  -29.2128  -26.0807   16.0835 C   0  0  0  0  0  0
  -27.5262  -22.6425   20.4630 C   0  0  0  0  0  0
  -31.6665  -27.4149   15.2427 C   0  0  0  0  0  0
  -29.0539  -28.4123   15.3091 C   0  0  0  0  0  0
  -31.7300  -26.4780   16.4799 C   0  0  0  0  0  0
  -30.3719  -26.1747   17.1125 C   0  0  2  0  0  0
  -30.3126  -25.1890   18.3083 C   0  0  0  0  0  0
  -27.9662  -20.5104   20.4827 N   0  0  0  0  0  0
  -28.4669  -27.2036   15.9629 N   0  0  0  0  0  0
  -27.4494  -28.9720   19.7432 N   0  0  0  0  0  0
  -31.0332  -29.6570   14.7886 O   0  0  0  0  0  0
  -28.9769  -25.0303   15.4762 O   0  0  0  0  0  0
  -30.5946  -15.5805   18.9846 H   0  0  0  0  0  0
  -30.5192  -14.6784   20.4007 H   0  0  0  0  0  0
  -30.3780  -13.1594   18.4199 H   0  0  0  0  0  0
  -29.1751  -14.1442   17.6391 H   0  0  0  0  0  0
  -28.7762  -12.0518   19.7806 H   0  0  0  0  0  0
  -27.8512  -12.2982   18.2952 H   0  0  0  0  0  0
  -27.1171  -14.3806   19.0505 H   0  0  0  0  0  0
  -28.7873  -14.5317   21.6265 H   0  0  0  0  0  0
  -27.4066  -15.4069   21.4865 H   0  0  0  0  0  0
  -25.3108   -9.5693   22.4681 H   0  0  0  0  0  0
  -24.0136   -7.4786   22.7482 H   0  0  0  0  0  0
  -21.1134   -8.8884   19.8868 H   0  0  0  0  0  0
  -22.4136  -10.9643   19.5919 H   0  0  0  0  0  0
  -21.2136   -7.6197   23.9754 H   0  0  0  0  0  0
  -21.1537   -6.0541   25.9084 H   0  0  0  0  0  0
  -22.0543   -2.7634   23.2782 H   0  0  0  0  0  0
  -22.4160  -11.9374   22.4936 H   0  0  0  0  0  0
  -21.0756  -13.0180   22.2955 H   0  0  0  0  0  0
  -24.3417  -15.8613   20.5157 H   0  0  0  0  0  0
  -25.9990  -15.7907   20.1332 H   0  0  0  0  0  0
  -26.7716  -32.3304   22.9769 H   0  0  0  0  0  0
  -24.8599  -33.7914   24.7925 H   0  0  0  0  0  0
  -23.1199  -30.6177   20.9298 H   0  0  0  0  0  0
  -23.3892  -35.8776   23.3037 H   0  0  0  0  0  0
  -24.3419  -36.8745   22.2163 H   0  0  0  0  0  0
  -23.7147  -37.5487   23.7229 H   0  0  0  0  0  0
  -27.0212  -29.8927   22.0562 H   0  0  0  0  0  0
  -25.9602  -29.0230   23.0980 H   0  0  0  0  0  0
  -28.8750  -27.5123   21.8959 H   0  0  0  0  0  0
  -27.0531  -24.1054   17.7206 H   0  0  0  0  0  0
  -24.0225  -25.3965   18.4700 H   0  0  0  0  0  0
  -24.2450  -29.0767   19.4106 H   0  0  0  0  0  0
  -22.8710  -28.2419   20.0300 H   0  0  0  0  0  0
  -25.1571  -36.0592   25.0634 H   0  0  0  0  0  0
  -20.9407  -28.3206   24.1634 H   0  0  0  0  0  0
  -20.5029  -26.2189   23.3902 H   0  0  0  0  0  0
  -21.6296  -26.6963   22.1619 H   0  0  0  0  0  0
  -19.6560  -25.6409   21.1146 H   0  0  0  0  0  0
  -19.6427  -27.3556   20.7104 H   0  0  0  0  0  0
  -17.3855  -26.6573   21.4325 H   0  0  0  0  0  0
  -18.0168  -26.0288   22.9305 H   0  0  0  0  0  0
  -19.7803  -30.7393   24.2227 H   0  0  0  0  0  0
  -17.4790  -31.6285   24.5249 H   0  0  0  0  0  0
  -15.5189  -30.3009   23.7598 H   0  0  0  0  0  0
  -15.8574  -28.0992   22.6876 H   0  0  0  0  0  0
  -24.6071  -30.6879   25.6833 H   0  0  0  0  0  0
  -24.8297  -32.2817   26.3632 H   0  0  0  0  0  0
  -25.7429  -30.9080   26.9891 H   0  0  0  0  0  0
  -26.5923  -29.4502   24.9694 H   0  0  0  0  0  0
  -28.0174  -30.1642   25.6112 H   0  0  0  0  0  0
  -27.7979  -30.2808   23.9264 H   0  0  0  0  0  0
  -27.1214  -33.5280   26.0315 H   0  0  0  0  0  0
  -28.3541  -32.8134   25.0192 H   0  0  0  0  0  0
  -28.0048  -32.1405   26.6048 H   0  0  0  0  0  0
  -28.2372  -37.9774   24.7727 H   0  0  0  0  0  0
  -28.1268  -36.2288   24.6047 H   0  0  0  0  0  0
  -27.2230  -37.0557   25.8791 H   0  0  0  0  0  0
  -21.0410  -29.7112   21.5703 H   0  0  0  0  0  0
  -25.9937  -38.2106   24.1328 H   0  0  0  0  0  0
  -26.4454  -26.0453   20.2790 H   0  0  0  0  0  0
  -26.0020  -26.0912   16.8732 H   0  0  0  0  0  0
  -29.0294  -28.7388   18.1831 H   0  0  0  0  0  0
  -26.5879  -22.4564   20.9906 H   0  0  0  0  0  0
  -32.6245  -27.9356   15.2188 H   0  0  0  0  0  0
  -31.6573  -26.8221   14.3264 H   0  0  0  0  0  0
  -28.6151  -28.5407   14.3142 H   0  0  0  0  0  0
  -28.7298  -29.3037   15.8671 H   0  0  0  0  0  0
  -32.3399  -26.9850   17.2345 H   0  0  0  0  0  0
  -32.2630  -25.5575   16.2350 H   0  0  0  0  0  0
  -30.2948  -27.1198   17.6189 H   0  0  0  0  0  0
  -31.3252  -24.9501   18.6352 H   0  0  0  0  0  0
  -29.8193  -24.2311   18.0912 H   0  0  0  0  0  0
  -27.2420  -29.5482   18.9272 H   0  0  0  0  0  0
  -26.8990  -29.2705   20.5274 H   0  0  0  0  0  0
  1 25  1  0  0  0
  1 30  2  0  0  0
  1 85  1  0  0  0
  2  3  1  0  0  0
  2 25  1  0  0  0
  2 90  1  0  0  0
  2 91  1  0  0  0
  3  4  1  0  0  0
  3 92  1  0  0  0
  3 93  1  0  0  0
  4  5  1  0  0  0
  4 94  1  0  0  0
  4 95  1  0  0  0
  5  6  1  0  0  0
  5 26  1  0  0  0
  5 96  1  0  0  0
  6 25  1  0  0  0
  6 97  1  0  0  0
  6 98  1  0  0  0
  7  8  2  0  0  0
  7 26  1  0  0  0
  7 29  1  0  0  0
  8  9  1  0  0  0
  8 22  1  0  0  0
  9 10  1  0  0  0
  9 27  2  0  0  0
 10 11  2  0  0  0
 10 15  1  0  0  0
 11 12  1  0  0  0
 11 99  1  0  0  0
 12 13  2  0  0  0
 12100  1  0  0  0
 13 14  1  0  0  0
 13 31  1  0  0  0
 14 15  2  0  0  0
 14101  1  0  0  0
 15102  1  0  0  0
 16 17  2  0  0  0
 16 21  1  0  0  0
 16 31  1  0  0  0
 17 18  1  0  0  0
 17103  1  0  0  0
 18 19  2  0  0  0
 18104  1  0  0  0
 19 20  1  0  0  0
 19 24  1  0  0  0
 20 21  2  0  0  0
 20105  1  0  0  0
 21 23  1  0  0  0
 22 28  1  0  0  0
 22 32  2  0  0  0
 26 27  1  0  0  0
 28106  1  0  0  0
 28107  1  0  0  0
 29108  1  0  0  0
 29109  1  0  0  0
 33 34  1  0  0  0
 33 66  1  0  0  0
 33 70  2  0  0  0
 34 36  1  0  0  0
 34 59  1  0  0  0
 34110  1  0  0  0
 35 44  2  0  0  0
 35 45  1  0  0  0
 35 68  1  0  0  0
 36 56  1  0  0  0
 36111  1  0  0  0
 37 39  1  0  0  0
 37 47  1  0  0  0
 37 66  1  0  0  0
 37112  1  0  0  0
 38 43  2  0  0  0
 38 46  1  0  0  0
 38 47  1  0  0  0
 39 64  1  0  0  0
 39 67  2  0  0  0
 40 52  1  0  0  0
 40 53  2  0  0  0
 40 58  1  0  0  0
 41113  1  0  0  0
 41114  1  0  0  0
 41115  1  0  0  0
 41 48  1  0  0  0
 42 43  1  0  0  0
 42 66  1  0  0  0
 42116  1  0  0  0
 42117  1  0  0  0
 43 44  1  0  0  0
 44118  1  0  0  0
 45 46  2  0  0  0
 45119  1  0  0  0
 46120  1  0  0  0
 47121  1  0  0  0
 47122  1  0  0  0
 48 56  1  0  0  0
 48 65  1  0  0  0
 48123  1  0  0  0
 49 50  1  0  0  0
 49 53  1  0  0  0
 49 64  1  0  0  0
 49124  1  0  0  0
 50 51  1  0  0  0
 50125  1  0  0  0
 50126  1  0  0  0
 51 52  1  0  0  0
 51127  1  0  0  0
 51128  1  0  0  0
 52129  1  0  0  0
 52130  1  0  0  0
 53 54  1  0  0  0
 54 55  2  0  0  0
 54131  1  0  0  0
 55 57  1  0  0  0
 55132  1  0  0  0
 56 69  2  0  0  0
 57 58  2  0  0  0
 57133  1  0  0  0
 58134  1  0  0  0
 59 60  1  0  0  0
 59 61  1  0  0  0
 59 62  1  0  0  0
 60135  1  0  0  0
 60136  1  0  0  0
 60137  1  0  0  0
 61138  1  0  0  0
 61139  1  0  0  0
 61140  1  0  0  0
 62141  1  0  0  0
 62142  1  0  0  0
 62143  1  0  0  0
 63 65  1  0  0  0
 63144  1  0  0  0
 63145  1  0  0  0
 63146  1  0  0  0
 64147  1  0  0  0
 65148  1  0  0  0
 68 84  1  0  0  0
 71 72  2  0  0  0
 71 74  1  0  0  0
 71149  1  0  0  0
 72 75  1  0  0  0
 72150  1  0  0  0
 73 75  2  0  0  0
 73 76  1  0  0  0
 73151  1  0  0  0
 74 76  2  0  0  0
 74 79  1  0  0  0
 75 86  1  0  0  0
 76 87  1  0  0  0
 77 80  1  0  0  0
 77 81  1  0  0  0
 77 88  2  0  0  0
 78 83  1  0  0  0
 78 86  1  0  0  0
 78 89  2  0  0  0
 79 85  2  0  0  0
 79152  1  0  0  0
 80 82  1  0  0  0
 80153  1  0  0  0
 80154  1  0  0  0
 81 86  1  0  0  0
 81155  1  0  0  0
 81156  1  0  0  0
 82 83  1  0  0  0
 82157  1  0  0  0
 82158  1  0  0  0
 83 84  1  0  0  0
 83159  1  0  0  0
 84160  1  0  0  0
 84161  1  0  0  0
 87162  1  0  0  0
 87163  1  0  0  0
M  ISO  4   1 100  68 101  84 101  85 100
M  END
> <chiral flag>
0

> <version>
0

> <s_m_source_file>
/data/baiqing/PycharmProjects/Reinvent-master-3.2/result/LINK_invent/BTK/process_docking_weight1_custom_product_contain_oxygen_bond_distance_aromatic_linkinvent_7_9_3/rearranged_h_0100.sdf

> <i_m_source_file_index>
9

> <r_mmod_Potential_Energy-OPLS-2005>
34871.9921875

> <r_mmod_Stretch_Energy-OPLS-2005>
17211.78125

> <r_mmod_Bend_Energy-OPLS-2005>
3403.95068359375

> <r_mmod_Torsional_Energy-OPLS-2005>
694.514282226562

> <r_mmod_Improper_Torsional_Energy-OPLS-2005>
72.1571884155273

> <r_mmod_Van_der_Waal_Energy-OPLS-2005>
4412.361328125

> <r_mmod_Electrostatic_Energy-OPLS-2005>
-340.390472412109

> <r_mmod_Solvation_Energy-OPLS-2005>
-230.793182373047

> <b_mmod_Minimization_Converged-OPLS-2005>
0

> <r_mmod_RMS_Derivative-OPLS-2005>
23.7101707458496

$$$$
9
                    3D
 Structure written by MMmdl.
155163  0  0  1  0            999 V2000
  -30.5196  -14.9266   20.4375 C   0  0  0  0  0  0
  -30.4537  -12.5715   19.4992 C   0  0  0  0  0  0
  -29.5276  -12.5384   18.2592 C   0  0  0  0  0  0
  -28.0592  -12.3226   18.6743 C   0  0  0  0  0  0
  -27.6399  -13.2416   19.8511 C   0  0  2  0  0  0
  -28.6836  -13.2288   20.9906 C   0  0  0  0  0  0
  -25.2499  -13.8198   20.5692 C   0  0  0  0  0  0
  -24.1804  -13.0433   20.9216 C   0  0  0  0  0  0
  -24.6412  -11.6917   20.8757 C   0  0  0  0  0  0
  -23.9085  -10.4291   21.0415 C   0  0  0  0  0  0
  -24.3627   -9.4203   21.9193 C   0  0  0  0  0  0
  -23.6298   -8.2245   22.0760 C   0  0  0  0  0  0
  -22.4279   -8.0287   21.3552 C   0  0  0  0  0  0
  -21.9922   -9.0261   20.4650 C   0  0  0  0  0  0
  -22.7257  -10.2137   20.3062 C   0  0  0  0  0  0
  -21.6854   -6.0741   22.5278 C   0  0  0  0  0  0
  -21.4016   -6.5642   23.8212 C   0  0  0  0  0  0
  -21.3660   -5.6795   24.9172 C   0  0  0  0  0  0
  -21.6041   -4.3058   24.7221 C   0  0  0  0  0  0
  -21.8817   -3.8147   23.4343 C   0  0  0  0  0  0
  -21.9190   -4.6967   22.3401 C   0  0  0  0  0  0
  -22.7823  -13.5221   21.1864 C   0  0  0  0  0  0
  -22.1657   -4.2154   21.0979 F   0  0  0  0  0  0
  -21.5628   -3.4539   25.7731 F   0  0  0  0  0  0
  -29.9687  -13.6464   20.4092 N   0  0  0  0  0  0
  -26.2938  -12.9422   20.3289 N   0  0  0  0  0  0
  -25.9351  -11.6558   20.5770 N   0  0  0  0  0  0
  -22.0460  -12.8217   22.0417 N   0  0  0  0  0  0
  -25.4149  -15.1916   20.4049 N   0  0  0  0  0  0
  -31.6980  -15.0585   20.0883 O   0  0  0  0  0  0
  -21.6640   -6.8886   21.4244 O   0  0  0  0  0  0
  -22.3507  -14.5524   20.6703 O   0  0  0  0  0  0
  -24.6442  -31.8450   23.1882 C   0  0  0  0  0  0
  -25.9215  -32.4696   23.8271 C   0  0  1  0  0  0
  -27.2208  -27.1389   20.1425 C   0  0  0  0  0  0
  -25.5968  -33.8500   24.2200 N   0  0  0  0  0  0
  -23.4478  -30.4663   21.5331 C   0  0  2  0  0  0
  -24.8976  -28.8963   20.1102 C   0  0  0  0  0  0
  -22.7577  -29.4563   22.4845 C   0  0  0  0  0  0
  -18.0311  -28.1404   22.8470 C   0  0  0  0  0  0
  -24.1495  -36.7245   23.2643 C   0  0  0  0  0  0
  -26.0055  -30.7189   21.3887 C   0  0  0  0  0  0
  -26.0768  -29.3313   20.7283 C   0  0  0  0  0  0
  -27.2385  -28.4693   20.7282 C   0  0  0  0  0  0
  -26.0119  -26.8101   19.4852 C   0  0  0  0  0  0
  -24.8790  -27.6482   19.4742 C   0  0  0  0  0  0
  -23.6747  -29.7978   20.1528 C   0  0  0  0  0  0
  -25.4120  -36.3026   24.0325 C   0  0  1  0  0  0
  -20.5931  -28.3732   23.1228 C   0  0  2  0  0  0
  -20.6807  -26.9439   22.5396 C   0  0  0  0  0  0
  -19.5775  -26.6386   21.5213 C   0  0  0  0  0  0
  -18.1952  -26.7944   22.1618 C   0  0  0  0  0  0
  -19.1569  -28.8881   23.2847 C   0  0  0  0  0  0
  -18.9490  -30.1477   23.8875 C   0  0  0  0  0  0
  -17.6488  -30.6597   24.0562 C   0  0  0  0  0  0
  -25.9073  -34.9407   23.5065 C   0  0  0  0  0  0
  -16.5375  -29.9087   23.6342 C   0  0  0  0  0  0
  -16.7298  -28.6510   23.0354 C   0  0  0  0  0  0
  -26.4545  -31.6556   25.0702 C   0  0  0  0  0  0
  -25.3730  -31.3742   26.1392 C   0  0  0  0  0  0
  -27.0421  -30.2952   24.6278 C   0  0  0  0  0  0
  -27.6078  -32.4321   25.7487 C   0  0  0  0  0  0
  -27.5579  -37.1771   24.8466 C   0  0  0  0  0  0
  -21.4268  -29.3065   22.3598 N   0  0  0  0  0  0
  -26.4280  -37.3740   23.9422 N   0  0  0  0  0  0
  -24.7192  -31.0312   22.0916 N   0  0  0  0  0  0
  -23.4226  -28.8114   23.2991 O   0  0  0  0  0  0
  -28.2665  -26.1425   20.2072 O   0  0  0  0  0  0
  -26.5648  -34.8909   22.4637 O   0  0  0  0  0  0
  -23.5560  -32.1329   23.7094 O   0  0  0  0  0  0
  -28.3882  -19.6822   21.3508 C   0  0  0  0  0  0
  -30.3038  -18.4648   19.7737 C   0  0  0  0  0  0
  -28.6528  -18.2630   21.4549 C   0  0  0  0  0  0
  -29.0409  -20.5941   20.4642 C   0  0  0  0  0  0
  -29.6097  -17.5538   20.6520 C   0  0  0  0  0  0
  -30.0382  -19.9152   19.6673 C   0  0  0  0  0  0
  -28.9582  -23.3628   20.2508 C   0  0  0  0  0  0
  -27.8468  -17.4789   22.4772 C   0  0  0  0  0  0
  -31.6614  -20.1311   17.9006 C   0  0  0  0  0  0
  -27.9092  -24.6332   20.0535 C   0  0  0  0  0  0
  -28.4958  -22.0240   20.3255 N   0  0  0  0  0  0
  -29.6728  -16.0197   20.7417 N   0  0  0  0  0  0
  -30.1652  -23.6075   20.3212 O   0  0  0  0  0  0
  -30.6847  -20.7188   18.7508 O   0  0  0  0  0  0
  -31.4857  -12.7410   19.1889 H   0  0  0  0  0  0
  -30.4516  -11.6075   20.0104 H   0  0  0  0  0  0
  -29.8425  -11.7523   17.5720 H   0  0  0  0  0  0
  -29.6178  -13.4778   17.7117 H   0  0  0  0  0  0
  -27.9521  -11.2779   18.9696 H   0  0  0  0  0  0
  -27.3956  -12.4673   17.8210 H   0  0  0  0  0  0
  -27.6156  -14.2522   19.4426 H   0  0  0  0  0  0
  -28.7631  -12.2359   21.4369 H   0  0  0  0  0  0
  -28.3829  -13.9003   21.7965 H   0  0  0  0  0  0
  -25.2768   -9.5680   22.4773 H   0  0  0  0  0  0
  -23.9996   -7.4640   22.7484 H   0  0  0  0  0  0
  -21.0850   -8.8789   19.8957 H   0  0  0  0  0  0
  -22.3718  -10.9683   19.6171 H   0  0  0  0  0  0
  -21.2010   -7.6149   23.9719 H   0  0  0  0  0  0
  -21.1486   -6.0521   25.9076 H   0  0  0  0  0  0
  -22.0594   -2.7610   23.2838 H   0  0  0  0  0  0
  -22.4063  -11.9868   22.4801 H   0  0  0  0  0  0
  -21.1087  -13.1268   22.2625 H   0  0  0  0  0  0
  -24.6346  -15.8338   20.4894 H   0  0  0  0  0  0
  -26.2403  -15.6267   20.0146 H   0  0  0  0  0  0
  -26.7274  -32.5312   23.0997 H   0  0  0  0  0  0
  -25.0129  -33.9617   25.0358 H   0  0  0  0  0  0
  -22.7505  -31.2926   21.3779 H   0  0  0  0  0  0
  -23.3778  -35.9558   23.3264 H   0  0  0  0  0  0
  -24.3590  -36.8906   22.2066 H   0  0  0  0  0  0
  -23.7228  -37.6422   23.6697 H   0  0  0  0  0  0
  -26.1625  -31.4757   20.6190 H   0  0  0  0  0  0
  -26.8760  -30.7674   22.0314 H   0  0  0  0  0  0
  -28.1351  -28.7963   21.2358 H   0  0  0  0  0  0
  -25.8969  -25.8631   18.9822 H   0  0  0  0  0  0
  -23.9798  -27.3089   18.9787 H   0  0  0  0  0  0
  -23.8120  -30.5732   19.3981 H   0  0  0  0  0  0
  -22.7905  -29.2399   19.8388 H   0  0  0  0  0  0
  -25.1307  -36.1846   25.0817 H   0  0  0  0  0  0
  -21.0021  -28.3317   24.1349 H   0  0  0  0  0  0
  -20.5716  -26.2346   23.3613 H   0  0  0  0  0  0
  -21.6666  -26.7451   22.1181 H   0  0  0  0  0  0
  -19.6945  -25.6292   21.1249 H   0  0  0  0  0  0
  -19.6710  -27.3191   20.6740 H   0  0  0  0  0  0
  -17.4226  -26.6693   21.4018 H   0  0  0  0  0  0
  -18.0343  -26.0092   22.9019 H   0  0  0  0  0  0
  -19.7974  -30.7296   24.2229 H   0  0  0  0  0  0
  -17.5048  -31.6276   24.5168 H   0  0  0  0  0  0
  -15.5381  -30.2985   23.7686 H   0  0  0  0  0  0
  -15.8698  -28.0825   22.7077 H   0  0  0  0  0  0
  -24.5918  -30.7084   25.7699 H   0  0  0  0  0  0
  -24.8918  -32.2930   26.4753 H   0  0  0  0  0  0
  -25.8005  -30.8946   27.0207 H   0  0  0  0  0  0
  -26.3041  -29.6647   24.1298 H   0  0  0  0  0  0
  -27.4070  -29.7257   25.4839 H   0  0  0  0  0  0
  -27.8932  -30.4194   23.9578 H   0  0  0  0  0  0
  -27.2684  -33.3666   26.1963 H   0  0  0  0  0  0
  -28.3940  -32.6793   25.0343 H   0  0  0  0  0  0
  -28.0686  -31.8506   26.5479 H   0  0  0  0  0  0
  -28.2557  -38.0104   24.7537 H   0  0  0  0  0  0
  -28.1113  -36.2628   24.6257 H   0  0  0  0  0  0
  -27.2303  -37.1368   25.8870 H   0  0  0  0  0  0
  -20.9475  -29.8765   21.6770 H   0  0  0  0  0  0
  -26.0145  -38.2805   24.1438 H   0  0  0  0  0  0
  -27.6113  -20.0908   21.9817 H   0  0  0  0  0  0
  -31.0361  -18.0078   19.1258 H   0  0  0  0  0  0
  -27.2788  -18.1364   23.1357 H   0  0  0  0  0  0
  -28.5055  -16.8803   23.1077 H   0  0  0  0  0  0
  -27.1419  -16.8113   21.9830 H   0  0  0  0  0  0
  -32.0757  -20.8948   17.2425 H   0  0  0  0  0  0
  -31.2310  -19.3551   17.2654 H   0  0  0  0  0  0
  -32.4898  -19.7115   18.4732 H   0  0  0  0  0  0
  -27.0629  -24.4349   20.7116 H   0  0  0  0  0  0
  -27.5402  -24.5000   19.0373 H   0  0  0  0  0  0
  -27.4856  -22.0322   20.3591 H   0  0  0  0  0  0
  -28.8149  -15.6477   21.1183 H   0  0  0  0  0  0
  1 25  1  0  0  0
  1 30  2  0  0  0
  1 82  1  0  0  0
  2  3  1  0  0  0
  2 25  1  0  0  0
  2 85  1  0  0  0
  2 86  1  0  0  0
  3  4  1  0  0  0
  3 87  1  0  0  0
  3 88  1  0  0  0
  4  5  1  0  0  0
  4 89  1  0  0  0
  4 90  1  0  0  0
  5  6  1  0  0  0
  5 26  1  0  0  0
  5 91  1  0  0  0
  6 25  1  0  0  0
  6 92  1  0  0  0
  6 93  1  0  0  0
  7  8  2  0  0  0
  7 26  1  0  0  0
  7 29  1  0  0  0
  8  9  1  0  0  0
  8 22  1  0  0  0
  9 10  1  0  0  0
  9 27  2  0  0  0
 10 11  2  0  0  0
 10 15  1  0  0  0
 11 12  1  0  0  0
 11 94  1  0  0  0
 12 13  2  0  0  0
 12 95  1  0  0  0
 13 14  1  0  0  0
 13 31  1  0  0  0
 14 15  2  0  0  0
 14 96  1  0  0  0
 15 97  1  0  0  0
 16 17  2  0  0  0
 16 21  1  0  0  0
 16 31  1  0  0  0
 17 18  1  0  0  0
 17 98  1  0  0  0
 18 19  2  0  0  0
 18 99  1  0  0  0
 19 20  1  0  0  0
 19 24  1  0  0  0
 20 21  2  0  0  0
 20100  1  0  0  0
 21 23  1  0  0  0
 22 28  1  0  0  0
 22 32  2  0  0  0
 26 27  1  0  0  0
 28101  1  0  0  0
 28102  1  0  0  0
 29103  1  0  0  0
 29104  1  0  0  0
 33 34  1  0  0  0
 33 66  1  0  0  0
 33 70  2  0  0  0
 34 36  1  0  0  0
 34 59  1  0  0  0
 34105  1  0  0  0
 35 44  2  0  0  0
 35 45  1  0  0  0
 35 68  1  0  0  0
 36 56  1  0  0  0
 36106  1  0  0  0
 37 39  1  0  0  0
 37 47  1  0  0  0
 37 66  1  0  0  0
 37107  1  0  0  0
 38 43  2  0  0  0
 38 46  1  0  0  0
 38 47  1  0  0  0
 39 64  1  0  0  0
 39 67  2  0  0  0
 40 52  1  0  0  0
 40 53  2  0  0  0
 40 58  1  0  0  0
 41108  1  0  0  0
 41109  1  0  0  0
 41110  1  0  0  0
 41 48  1  0  0  0
 42 43  1  0  0  0
 42 66  1  0  0  0
 42111  1  0  0  0
 42112  1  0  0  0
 43 44  1  0  0  0
 44113  1  0  0  0
 45 46  2  0  0  0
 45114  1  0  0  0
 46115  1  0  0  0
 47116  1  0  0  0
 47117  1  0  0  0
 48 56  1  0  0  0
 48 65  1  0  0  0
 48118  1  0  0  0
 49 50  1  0  0  0
 49 53  1  0  0  0
 49 64  1  0  0  0
 49119  1  0  0  0
 50 51  1  0  0  0
 50120  1  0  0  0
 50121  1  0  0  0
 51 52  1  0  0  0
 51122  1  0  0  0
 51123  1  0  0  0
 52124  1  0  0  0
 52125  1  0  0  0
 53 54  1  0  0  0
 54 55  2  0  0  0
 54126  1  0  0  0
 55 57  1  0  0  0
 55127  1  0  0  0
 56 69  2  0  0  0
 57 58  2  0  0  0
 57128  1  0  0  0
 58129  1  0  0  0
 59 60  1  0  0  0
 59 61  1  0  0  0
 59 62  1  0  0  0
 60130  1  0  0  0
 60131  1  0  0  0
 60132  1  0  0  0
 61133  1  0  0  0
 61134  1  0  0  0
 61135  1  0  0  0
 62136  1  0  0  0
 62137  1  0  0  0
 62138  1  0  0  0
 63 65  1  0  0  0
 63139  1  0  0  0
 63140  1  0  0  0
 63141  1  0  0  0
 64142  1  0  0  0
 65143  1  0  0  0
 68 80  1  0  0  0
 71 73  2  0  0  0
 71 74  1  0  0  0
 71144  1  0  0  0
 72 75  2  0  0  0
 72 76  1  0  0  0
 72145  1  0  0  0
 73 75  1  0  0  0
 73 78  1  0  0  0
 74 76  2  0  0  0
 74 81  1  0  0  0
 75 82  1  0  0  0
 76 84  1  0  0  0
 77 80  1  0  0  0
 77 81  1  0  0  0
 77 83  2  0  0  0
 78146  1  0  0  0
 78147  1  0  0  0
 78148  1  0  0  0
 79 84  1  0  0  0
 79149  1  0  0  0
 79150  1  0  0  0
 79151  1  0  0  0
 80152  1  0  0  0
 80153  1  0  0  0
 81154  1  0  0  0
 82155  1  0  0  0
M  ISO  4   1 100  68 101  80 101  82 100
M  END
> <chiral flag>
0

> <version>
0

> <s_m_source_file>
/data/baiqing/PycharmProjects/Reinvent-master-3.2/result/LINK_invent/BTK/process_docking_weight1_custom_product_contain_oxygen_bond_distance_aromatic_linkinvent_7_9_3/rearranged_h_0100.sdf

> <i_m_source_file_index>
10

> <r_mmod_Potential_Energy-OPLS-2005>
409.530364990234

> <r_mmod_Stretch_Energy-OPLS-2005>
227.776962280273

> <r_mmod_Bend_Energy-OPLS-2005>
275.326019287109

> <r_mmod_Torsional_Energy-OPLS-2005>
240.678482055664

> <r_mmod_Improper_Torsional_Energy-OPLS-2005>
4.89670324325562

> <r_mmod_Van_der_Waal_Energy-OPLS-2005>
135.201049804688

> <r_mmod_Electrostatic_Energy-OPLS-2005>
-398.539306640625

> <r_mmod_Solvation_Energy-OPLS-2005>
-260.339782714844

> <b_mmod_Minimization_Converged-OPLS-2005>
0

> <r_mmod_RMS_Derivative-OPLS-2005>
1.27236616611481

$$$$
10
                    3D
 Structure written by MMmdl.
155163  0  0  1  0            999 V2000
  -30.7693  -14.3910   20.7005 C   0  0  0  0  0  0
  -30.4185  -12.3156   19.3988 C   0  0  0  0  0  0
  -29.4851  -12.5398   18.1947 C   0  0  0  0  0  0
  -28.0107  -12.3798   18.6089 C   0  0  0  0  0  0
  -27.6647  -13.2010   19.8772 C   0  0  2  0  0  0
  -28.6989  -12.9456   20.9939 C   0  0  0  0  0  0
  -25.2603  -13.8151   20.5664 C   0  0  0  0  0  0
  -24.1845  -13.0436   20.9159 C   0  0  0  0  0  0
  -24.6387  -11.6900   20.8716 C   0  0  0  0  0  0
  -23.9050  -10.4292   21.0397 C   0  0  0  0  0  0
  -24.3606   -9.4212   21.9179 C   0  0  0  0  0  0
  -23.6285   -8.2246   22.0754 C   0  0  0  0  0  0
  -22.4268   -8.0279   21.3544 C   0  0  0  0  0  0
  -21.9899   -9.0250   20.4645 C   0  0  0  0  0  0
  -22.7222  -10.2132   20.3050 C   0  0  0  0  0  0
  -21.6851   -6.0733   22.5279 C   0  0  0  0  0  0
  -21.4013   -6.5638   23.8213 C   0  0  0  0  0  0
  -21.3659   -5.6791   24.9175 C   0  0  0  0  0  0
  -21.6044   -4.3053   24.7226 C   0  0  0  0  0  0
  -21.8819   -3.8145   23.4347 C   0  0  0  0  0  0
  -21.9191   -4.6961   22.3403 C   0  0  0  0  0  0
  -22.7871  -13.5243   21.1834 C   0  0  0  0  0  0
  -22.1659   -4.2147   21.0980 F   0  0  0  0  0  0
  -21.5630   -3.4537   25.7739 F   0  0  0  0  0  0
  -30.0440  -13.2565   20.4680 N   0  0  0  0  0  0
  -26.3032  -12.9309   20.3347 N   0  0  0  0  0  0
  -25.9308  -11.6472   20.5729 N   0  0  0  0  0  0
  -22.0510  -12.8238   22.0393 N   0  0  0  0  0  0
  -25.4345  -15.1867   20.4087 N   0  0  0  0  0  0
  -31.7543  -14.7114   20.0241 O   0  0  0  0  0  0
  -21.6635   -6.8874   21.4240 O   0  0  0  0  0  0
  -22.3558  -14.5553   20.6688 O   0  0  0  0  0  0
  -24.6136  -31.8681   23.2100 C   0  0  0  0  0  0
  -25.9030  -32.4825   23.8397 C   0  0  1  0  0  0
  -27.2373  -27.4470   20.0947 C   0  0  0  0  0  0
  -25.5889  -33.8623   24.2329 N   0  0  0  0  0  0
  -23.4020  -30.4902   21.5503 C   0  0  2  0  0  0
  -24.8505  -28.9554   20.1154 C   0  0  0  0  0  0
  -22.7405  -29.4656   22.4996 C   0  0  0  0  0  0
  -18.0268  -28.1376   22.8494 C   0  0  0  0  0  0
  -24.1485  -36.7319   23.2639 C   0  0  0  0  0  0
  -25.9291  -30.8380   21.3604 C   0  0  0  0  0  0
  -26.0099  -29.4726   20.7084 C   0  0  0  0  0  0
  -27.2100  -28.7262   20.6931 C   0  0  0  0  0  0
  -26.0648  -26.9380   19.5002 C   0  0  0  0  0  0
  -24.8717  -27.6863   19.5087 C   0  0  0  0  0  0
  -23.6104  -29.8198   20.1657 C   0  0  0  0  0  0
  -25.4106  -36.3115   24.0339 C   0  0  1  0  0  0
  -20.5858  -28.3663   23.1323 C   0  0  2  0  0  0
  -20.6759  -26.9400   22.5422 C   0  0  0  0  0  0
  -19.5740  -26.6386   21.5215 C   0  0  0  0  0  0
  -18.1917  -26.7923   22.1623 C   0  0  0  0  0  0
  -19.1517  -28.8836   23.2905 C   0  0  0  0  0  0
  -18.9447  -30.1442   23.8915 C   0  0  0  0  0  0
  -17.6451  -30.6584   24.0568 C   0  0  0  0  0  0
  -25.9032  -34.9478   23.5133 C   0  0  0  0  0  0
  -16.5341  -29.9089   23.6326 C   0  0  0  0  0  0
  -16.7257  -28.6504   23.0348 C   0  0  0  0  0  0
  -26.4465  -31.6599   25.0719 C   0  0  0  0  0  0
  -25.3738  -31.3691   26.1472 C   0  0  0  0  0  0
  -27.0296  -30.3046   24.6079 C   0  0  0  0  0  0
  -27.6043  -32.4316   25.7479 C   0  0  0  0  0  0
  -27.5582  -37.1811   24.8463 C   0  0  0  0  0  0
  -21.4133  -29.3031   22.3733 N   0  0  0  0  0  0
  -26.4293  -37.3798   23.9410 N   0  0  0  0  0  0
  -24.6665  -31.0790   22.0993 N   0  0  0  0  0  0
  -23.4178  -28.8202   23.3040 O   0  0  0  0  0  0
  -28.3874  -26.6925   20.0855 O   0  0  0  0  0  0
  -26.5599  -34.8928   22.4697 O   0  0  0  0  0  0
  -23.5330  -32.1424   23.7502 O   0  0  0  0  0  0
  -30.2306  -17.4321   20.6615 C   0  0  0  0  0  0
  -29.8773  -18.8055   20.6264 C   0  0  0  0  0  0
  -29.4755  -17.2963   22.9530 C   0  0  0  0  0  0
  -30.0459  -16.6437   21.8311 C   0  0  0  0  0  0
  -29.3222  -19.4358   21.7661 C   0  0  0  0  0  0
  -29.1232  -18.6571   22.9227 C   0  0  0  0  0  0
  -30.4216  -15.1845   21.9631 C   0  0  0  0  0  0
  -28.7812  -24.2364   20.2915 C   0  0  0  0  0  0
  -28.7108  -23.0514   21.2842 C   0  0  0  0  0  0
  -28.3484  -25.5603   20.9650 C   0  0  0  0  0  0
  -29.1518  -21.6641   20.7624 C   0  0  0  0  0  0
  -30.4618  -14.6143   23.0996 N   0  0  0  0  0  0
  -28.9509  -20.7651   21.8517 O   0  0  0  0  0  0
  -28.5877  -19.2259   24.0303 F   0  0  0  0  0  0
  -31.4607  -12.4245   19.0935 H   0  0  0  0  0  0
  -30.3272  -11.2912   19.7635 H   0  0  0  0  0  0
  -29.7268  -11.8389   17.3947 H   0  0  0  0  0  0
  -29.6463  -13.5389   17.7867 H   0  0  0  0  0  0
  -27.8261  -11.3203   18.7909 H   0  0  0  0  0  0
  -27.3551  -12.6649   17.7853 H   0  0  0  0  0  0
  -27.7226  -14.2552   19.6050 H   0  0  0  0  0  0
  -28.6691  -11.9008   21.3063 H   0  0  0  0  0  0
  -28.4151  -13.5147   21.8774 H   0  0  0  0  0  0
  -25.2752   -9.5692   22.4751 H   0  0  0  0  0  0
  -23.9997   -7.4641   22.7475 H   0  0  0  0  0  0
  -21.0830   -8.8764   19.8953 H   0  0  0  0  0  0
  -22.3677  -10.9667   19.6157 H   0  0  0  0  0  0
  -21.2005   -7.6146   23.9715 H   0  0  0  0  0  0
  -21.1481   -6.0521   25.9078 H   0  0  0  0  0  0
  -22.0599   -2.7607   23.2847 H   0  0  0  0  0  0
  -22.4116  -11.9890   22.4773 H   0  0  0  0  0  0
  -21.1133  -13.1275   22.2605 H   0  0  0  0  0  0
  -24.6722  -15.8460   20.5213 H   0  0  0  0  0  0
  -26.2947  -15.6251   20.1040 H   0  0  0  0  0  0
  -26.7104  -32.5547   23.1168 H   0  0  0  0  0  0
  -25.0039  -33.9786   25.0473 H   0  0  0  0  0  0
  -22.6901  -31.3064   21.4101 H   0  0  0  0  0  0
  -23.3747  -35.9653   23.3304 H   0  0  0  0  0  0
  -24.3580  -36.8933   22.2054 H   0  0  0  0  0  0
  -23.7237  -37.6523   23.6654 H   0  0  0  0  0  0
  -26.0372  -31.6041   20.5915 H   0  0  0  0  0  0
  -26.8184  -30.8943   21.9766 H   0  0  0  0  0  0
  -28.1073  -29.1209   21.1492 H   0  0  0  0  0  0
  -26.0770  -25.9624   19.0348 H   0  0  0  0  0  0
  -23.9801  -27.2815   19.0500 H   0  0  0  0  0  0
  -23.7156  -30.5933   19.4041 H   0  0  0  0  0  0
  -22.7354  -29.2368   19.8727 H   0  0  0  0  0  0
  -25.1280  -36.1983   25.0832 H   0  0  0  0  0  0
  -20.9949  -28.3230   24.1445 H   0  0  0  0  0  0
  -20.5666  -26.2269   23.3606 H   0  0  0  0  0  0
  -21.6631  -26.7448   22.1215 H   0  0  0  0  0  0
  -19.6906  -25.6303   21.1230 H   0  0  0  0  0  0
  -19.6681  -27.3208   20.6754 H   0  0  0  0  0  0
  -17.4190  -26.6676   21.4020 H   0  0  0  0  0  0
  -18.0313  -26.0058   22.9011 H   0  0  0  0  0  0
  -19.7924  -30.7250   24.2294 H   0  0  0  0  0  0
  -17.5008  -31.6265   24.5170 H   0  0  0  0  0  0
  -15.5344  -30.3000   23.7639 H   0  0  0  0  0  0
  -15.8654  -28.0833   22.7054 H   0  0  0  0  0  0
  -24.5911  -30.7038   25.7808 H   0  0  0  0  0  0
  -24.8928  -32.2839   26.4941 H   0  0  0  0  0  0
  -25.8100  -30.8846   27.0216 H   0  0  0  0  0  0
  -26.2833  -29.6808   24.1145 H   0  0  0  0  0  0
  -27.4089  -29.7278   25.4524 H   0  0  0  0  0  0
  -27.8655  -30.4376   23.9207 H   0  0  0  0  0  0
  -27.2668  -33.3610   26.2078 H   0  0  0  0  0  0
  -28.3839  -32.6884   25.0296 H   0  0  0  0  0  0
  -28.0724  -31.8426   26.5376 H   0  0  0  0  0  0
  -28.2599  -38.0111   24.7522 H   0  0  0  0  0  0
  -28.1079  -36.2644   24.6275 H   0  0  0  0  0  0
  -27.2301  -37.1447   25.8865 H   0  0  0  0  0  0
  -20.9293  -29.8754   21.6957 H   0  0  0  0  0  0
  -26.0184  -38.2877   24.1417 H   0  0  0  0  0  0
  -30.6586  -17.0013   19.7681 H   0  0  0  0  0  0
  -30.0434  -19.3612   19.7152 H   0  0  0  0  0  0
  -29.2921  -16.7629   23.8734 H   0  0  0  0  0  0
  -28.1393  -24.0350   19.4334 H   0  0  0  0  0  0
  -29.7962  -24.3371   19.9059 H   0  0  0  0  0  0
  -27.6859  -22.9691   21.6491 H   0  0  0  0  0  0
  -29.3168  -23.2940   22.1583 H   0  0  0  0  0  0
  -29.0169  -25.7755   21.7993 H   0  0  0  0  0  0
  -27.3592  -25.4263   21.4092 H   0  0  0  0  0  0
  -30.2004  -21.6818   20.4617 H   0  0  0  0  0  0
  -28.5508  -21.3627   19.9032 H   0  0  0  0  0  0
  -30.2248  -15.2560   23.8450 H   0  0  0  0  0  0
  1 25  1  0  0  0
  1 30  2  0  0  0
  1 77  1  0  0  0
  2  3  1  0  0  0
  2 25  1  0  0  0
  2 85  1  0  0  0
  2 86  1  0  0  0
  3  4  1  0  0  0
  3 87  1  0  0  0
  3 88  1  0  0  0
  4  5  1  0  0  0
  4 89  1  0  0  0
  4 90  1  0  0  0
  5  6  1  0  0  0
  5 26  1  0  0  0
  5 91  1  0  0  0
  6 25  1  0  0  0
  6 92  1  0  0  0
  6 93  1  0  0  0
  7  8  2  0  0  0
  7 26  1  0  0  0
  7 29  1  0  0  0
  8  9  1  0  0  0
  8 22  1  0  0  0
  9 10  1  0  0  0
  9 27  2  0  0  0
 10 11  2  0  0  0
 10 15  1  0  0  0
 11 12  1  0  0  0
 11 94  1  0  0  0
 12 13  2  0  0  0
 12 95  1  0  0  0
 13 14  1  0  0  0
 13 31  1  0  0  0
 14 15  2  0  0  0
 14 96  1  0  0  0
 15 97  1  0  0  0
 16 17  2  0  0  0
 16 21  1  0  0  0
 16 31  1  0  0  0
 17 18  1  0  0  0
 17 98  1  0  0  0
 18 19  2  0  0  0
 18 99  1  0  0  0
 19 20  1  0  0  0
 19 24  1  0  0  0
 20 21  2  0  0  0
 20100  1  0  0  0
 21 23  1  0  0  0
 22 28  1  0  0  0
 22 32  2  0  0  0
 26 27  1  0  0  0
 28101  1  0  0  0
 28102  1  0  0  0
 29103  1  0  0  0
 29104  1  0  0  0
 33 34  1  0  0  0
 33 66  1  0  0  0
 33 70  2  0  0  0
 34 36  1  0  0  0
 34 59  1  0  0  0
 34105  1  0  0  0
 35 44  2  0  0  0
 35 45  1  0  0  0
 35 68  1  0  0  0
 36 56  1  0  0  0
 36106  1  0  0  0
 37 39  1  0  0  0
 37 47  1  0  0  0
 37 66  1  0  0  0
 37107  1  0  0  0
 38 43  2  0  0  0
 38 46  1  0  0  0
 38 47  1  0  0  0
 39 64  1  0  0  0
 39 67  2  0  0  0
 40 52  1  0  0  0
 40 53  2  0  0  0
 40 58  1  0  0  0
 41108  1  0  0  0
 41109  1  0  0  0
 41110  1  0  0  0
 41 48  1  0  0  0
 42 43  1  0  0  0
 42 66  1  0  0  0
 42111  1  0  0  0
 42112  1  0  0  0
 43 44  1  0  0  0
 44113  1  0  0  0
 45 46  2  0  0  0
 45114  1  0  0  0
 46115  1  0  0  0
 47116  1  0  0  0
 47117  1  0  0  0
 48 56  1  0  0  0
 48 65  1  0  0  0
 48118  1  0  0  0
 49 50  1  0  0  0
 49 53  1  0  0  0
 49 64  1  0  0  0
 49119  1  0  0  0
 50 51  1  0  0  0
 50120  1  0  0  0
 50121  1  0  0  0
 51 52  1  0  0  0
 51122  1  0  0  0
 51123  1  0  0  0
 52124  1  0  0  0
 52125  1  0  0  0
 53 54  1  0  0  0
 54 55  2  0  0  0
 54126  1  0  0  0
 55 57  1  0  0  0
 55127  1  0  0  0
 56 69  2  0  0  0
 57 58  2  0  0  0
 57128  1  0  0  0
 58129  1  0  0  0
 59 60  1  0  0  0
 59 61  1  0  0  0
 59 62  1  0  0  0
 60130  1  0  0  0
 60131  1  0  0  0
 60132  1  0  0  0
 61133  1  0  0  0
 61134  1  0  0  0
 61135  1  0  0  0
 62136  1  0  0  0
 62137  1  0  0  0
 62138  1  0  0  0
 63 65  1  0  0  0
 63139  1  0  0  0
 63140  1  0  0  0
 63141  1  0  0  0
 64142  1  0  0  0
 65143  1  0  0  0
 68 80  1  0  0  0
 71 72  2  0  0  0
 71 74  1  0  0  0
 71144  1  0  0  0
 72 75  1  0  0  0
 72145  1  0  0  0
 73 74  2  0  0  0
 73 76  1  0  0  0
 73146  1  0  0  0
 74 77  1  0  0  0
 75 76  2  0  0  0
 75 83  1  0  0  0
 76 84  1  0  0  0
 77 82  2  0  0  0
 78 79  1  0  0  0
 78 80  1  0  0  0
 78147  1  0  0  0
 78148  1  0  0  0
 79 81  1  0  0  0
 79149  1  0  0  0
 79150  1  0  0  0
 80151  1  0  0  0
 80152  1  0  0  0
 81 83  1  0  0  0
 81153  1  0  0  0
 81154  1  0  0  0
 82155  1  0  0  0
M  ISO  4   1 100  68 101  77 100  80 101
M  END
> <chiral flag>
0

> <version>
0

> <s_m_source_file>
/data/baiqing/PycharmProjects/Reinvent-master-3.2/result/LINK_invent/BTK/process_docking_weight1_custom_product_contain_oxygen_bond_distance_aromatic_linkinvent_7_9_3/rearranged_h_0100.sdf

> <i_m_source_file_index>
11

> <r_mmod_Potential_Energy-OPLS-2005>
116.490844726562

> <r_mmod_Stretch_Energy-OPLS-2005>
41.3435554504395

> <r_mmod_Bend_Energy-OPLS-2005>
110.314399719238

> <r_mmod_Torsional_Energy-OPLS-2005>
223.054306030273

> <r_mmod_Improper_Torsional_Energy-OPLS-2005>
3.02023720741272

> <r_mmod_Van_der_Waal_Energy-OPLS-2005>
157.240051269531

> <r_mmod_Electrostatic_Energy-OPLS-2005>
-230.790252685547

> <r_mmod_Solvation_Energy-OPLS-2005>
-196.23616027832

> <b_mmod_Minimization_Converged-OPLS-2005>
0

> <r_mmod_RMS_Derivative-OPLS-2005>
0.207865729928017

$$$$
11
                    3D
 Structure written by MMmdl.
162171  0  0  1  0            999 V2000
  -30.6778  -14.5339   20.5328 C   0  0  0  0  0  0
  -30.4235  -12.3363   19.4374 C   0  0  0  0  0  0
  -29.4962  -12.5098   18.2153 C   0  0  0  0  0  0
  -28.0180  -12.3614   18.6252 C   0  0  0  0  0  0
  -27.6567  -13.2134   19.8717 C   0  0  2  0  0  0
  -28.6989  -13.0326   20.9994 C   0  0  0  0  0  0
  -25.2586  -13.8190   20.5692 C   0  0  0  0  0  0
  -24.1837  -13.0459   20.9178 C   0  0  0  0  0  0
  -24.6399  -11.6924   20.8759 C   0  0  0  0  0  0
  -23.9076  -10.4306   21.0428 C   0  0  0  0  0  0
  -24.3625   -9.4226   21.9206 C   0  0  0  0  0  0
  -23.6278   -8.2264   22.0764 C   0  0  0  0  0  0
  -22.4264   -8.0296   21.3555 C   0  0  0  0  0  0
  -21.9912   -9.0264   20.4660 C   0  0  0  0  0  0
  -22.7248  -10.2137   20.3081 C   0  0  0  0  0  0
  -21.6854   -6.0760   22.5278 C   0  0  0  0  0  0
  -21.4009   -6.5659   23.8213 C   0  0  0  0  0  0
  -21.3655   -5.6811   24.9173 C   0  0  0  0  0  0
  -21.6040   -4.3068   24.7230 C   0  0  0  0  0  0
  -21.8813   -3.8169   23.4347 C   0  0  0  0  0  0
  -21.9181   -4.6986   22.3412 C   0  0  0  0  0  0
  -22.7866  -13.5250   21.1841 C   0  0  0  0  0  0
  -22.1656   -4.2184   21.0980 F   0  0  0  0  0  0
  -21.5630   -3.4552   25.7739 F   0  0  0  0  0  0
  -30.0272  -13.3379   20.4445 N   0  0  0  0  0  0
  -26.3003  -12.9367   20.3348 N   0  0  0  0  0  0
  -25.9323  -11.6524   20.5770 N   0  0  0  0  0  0
  -22.0487  -12.8232   22.0379 N   0  0  0  0  0  0
  -25.4329  -15.1916   20.4148 N   0  0  0  0  0  0
  -31.8164  -14.6953   20.0889 O   0  0  0  0  0  0
  -21.6636   -6.8887   21.4242 O   0  0  0  0  0  0
  -22.3554  -14.5551   20.6668 O   0  0  0  0  0  0
  -24.6213  -31.8641   23.2104 C   0  0  0  0  0  0
  -25.9100  -32.4791   23.8396 C   0  0  1  0  0  0
  -27.2212  -27.3838   20.0912 C   0  0  0  0  0  0
  -25.5931  -33.8593   24.2301 N   0  0  0  0  0  0
  -23.4102  -30.4940   21.5503 C   0  0  2  0  0  0
  -24.8521  -28.9601   20.1108 C   0  0  0  0  0  0
  -22.7436  -29.4662   22.4954 C   0  0  0  0  0  0
  -18.0278  -28.1384   22.8491 C   0  0  0  0  0  0
  -24.1468  -36.7298   23.2642 C   0  0  0  0  0  0
  -25.9484  -30.8133   21.3773 C   0  0  0  0  0  0
  -26.0202  -29.4515   20.7068 C   0  0  0  0  0  0
  -27.2090  -28.6751   20.6857 C   0  0  0  0  0  0
  -26.0273  -26.9265   19.4843 C   0  0  0  0  0  0
  -24.8543  -27.7005   19.4934 C   0  0  0  0  0  0
  -23.6203  -29.8360   20.1622 C   0  0  0  0  0  0
  -25.4099  -36.3088   24.0322 C   0  0  1  0  0  0
  -20.5874  -28.3683   23.1284 C   0  0  2  0  0  0
  -20.6764  -26.9413   22.5406 C   0  0  0  0  0  0
  -19.5741  -26.6388   21.5202 C   0  0  0  0  0  0
  -18.1919  -26.7929   22.1617 C   0  0  0  0  0  0
  -19.1531  -28.8853   23.2882 C   0  0  0  0  0  0
  -18.9460  -30.1455   23.8900 C   0  0  0  0  0  0
  -17.6462  -30.6589   24.0568 C   0  0  0  0  0  0
  -25.9039  -34.9457   23.5098 C   0  0  0  0  0  0
  -16.5351  -29.9087   23.6339 C   0  0  0  0  0  0
  -16.7266  -28.6506   23.0353 C   0  0  0  0  0  0
  -26.4508  -31.6618   25.0770 C   0  0  0  0  0  0
  -25.3769  -31.3759   26.1518 C   0  0  0  0  0  0
  -27.0376  -30.3041   24.6265 C   0  0  0  0  0  0
  -27.6050  -32.4388   25.7532 C   0  0  0  0  0  0
  -27.5563  -37.1796   24.8459 C   0  0  0  0  0  0
  -21.4161  -29.3038   22.3683 N   0  0  0  0  0  0
  -26.4275  -37.3787   23.9408 N   0  0  0  0  0  0
  -24.6776  -31.0714   22.1026 N   0  0  0  0  0  0
  -23.4185  -28.8205   23.3017 O   0  0  0  0  0  0
  -28.3685  -26.5940   20.1178 O   0  0  0  0  0  0
  -26.5603  -34.8920   22.4659 O   0  0  0  0  0  0
  -23.5396  -32.1413   23.7474 O   0  0  0  0  0  0
  -30.4939  -18.7008   18.9679 C   0  0  0  0  0  0
  -30.2522  -17.3568   19.3326 C   0  0  0  0  0  0
  -30.4077  -19.3580   21.2922 C   0  0  0  0  0  0
  -30.6119  -19.7219   19.9412 C   0  0  0  0  0  0
  -30.1285  -16.9709   20.6884 C   0  0  0  0  0  0
  -30.1628  -18.0080   21.6745 C   0  0  0  0  0  0
  -31.2740  -21.0304   19.5396 C   0  0  0  0  0  0
  -30.6097  -24.6464   19.2780 C   0  0  0  0  0  0
  -31.5559  -23.4534   19.3729 C   0  0  0  0  0  0
  -29.4094  -22.7515   20.1619 C   0  0  0  0  0  0
  -29.4904  -24.3185   20.2499 C   0  0  2  0  0  0
  -29.0147  -16.9695   23.5013 C   0  0  0  0  0  0
  -28.2004  -25.1534   19.9654 C   0  0  0  0  0  0
  -30.7500  -22.2801   19.7439 N   0  0  0  0  0  0
  -29.9572  -15.5754   21.0161 N   0  0  0  0  0  0
  -32.3830  -20.9044   19.0063 O   0  0  0  0  0  0
  -30.0848  -17.7763   23.0284 O   0  0  0  0  0  0
  -31.4641  -12.4407   19.1276 H   0  0  0  0  0  0
  -30.3367  -11.3301   19.8490 H   0  0  0  0  0  0
  -29.7398  -11.7776   17.4435 H   0  0  0  0  0  0
  -29.6579  -13.4890   17.7629 H   0  0  0  0  0  0
  -27.8308  -11.3060   18.8254 H   0  0  0  0  0  0
  -27.3710  -12.6285   17.7884 H   0  0  0  0  0  0
  -27.6857  -14.2549   19.5534 H   0  0  0  0  0  0
  -28.6832  -12.0098   21.3783 H   0  0  0  0  0  0
  -28.4585  -13.6652   21.8539 H   0  0  0  0  0  0
  -25.2782   -9.5686   22.4764 H   0  0  0  0  0  0
  -24.0001   -7.4666   22.7466 H   0  0  0  0  0  0
  -21.0861   -8.8755   19.8959 H   0  0  0  0  0  0
  -22.3713  -10.9657   19.6170 H   0  0  0  0  0  0
  -21.1990   -7.6164   23.9736 H   0  0  0  0  0  0
  -21.1485   -6.0542   25.9076 H   0  0  0  0  0  0
  -22.0592   -2.7632   23.2849 H   0  0  0  0  0  0
  -22.4069  -11.9877   22.4766 H   0  0  0  0  0  0
  -21.1111  -13.1280   22.2583 H   0  0  0  0  0  0
  -24.6700  -15.8492   20.5305 H   0  0  0  0  0  0
  -26.2865  -15.6298   20.0909 H   0  0  0  0  0  0
  -26.7178  -32.5473   23.1151 H   0  0  0  0  0  0
  -25.0082  -33.9748   25.0451 H   0  0  0  0  0  0
  -22.7025  -31.3142   21.4147 H   0  0  0  0  0  0
  -23.3721  -35.9637   23.3303 H   0  0  0  0  0  0
  -24.3560  -36.8926   22.2055 H   0  0  0  0  0  0
  -23.7223  -37.6495   23.6679 H   0  0  0  0  0  0
  -26.0913  -31.5918   20.6266 H   0  0  0  0  0  0
  -26.8233  -30.8407   22.0164 H   0  0  0  0  0  0
  -28.1122  -29.0524   21.1446 H   0  0  0  0  0  0
  -25.9705  -25.9668   18.9942 H   0  0  0  0  0  0
  -23.9567  -27.3195   19.0248 H   0  0  0  0  0  0
  -23.7396  -30.6171   19.4104 H   0  0  0  0  0  0
  -22.7398  -29.2670   19.8579 H   0  0  0  0  0  0
  -25.1278  -36.1923   25.0814 H   0  0  0  0  0  0
  -20.9971  -28.3253   24.1399 H   0  0  0  0  0  0
  -20.5654  -26.2294   23.3606 H   0  0  0  0  0  0
  -21.6633  -26.7448   22.1198 H   0  0  0  0  0  0
  -19.6898  -25.6294   21.1226 H   0  0  0  0  0  0
  -19.6668  -27.3202   20.6736 H   0  0  0  0  0  0
  -17.4188  -26.6690   21.4014 H   0  0  0  0  0  0
  -18.0323  -26.0062   22.9010 H   0  0  0  0  0  0
  -19.7939  -30.7272   24.2259 H   0  0  0  0  0  0
  -17.5020  -31.6272   24.5163 H   0  0  0  0  0  0
  -15.5350  -30.2989   23.7670 H   0  0  0  0  0  0
  -15.8665  -28.0829   22.7061 H   0  0  0  0  0  0
  -24.5890  -30.7169   25.7855 H   0  0  0  0  0  0
  -24.9044  -32.2942   26.5018 H   0  0  0  0  0  0
  -25.8113  -30.8873   27.0249 H   0  0  0  0  0  0
  -26.2982  -29.6759   24.1290 H   0  0  0  0  0  0
  -27.4045  -29.7333   25.4805 H   0  0  0  0  0  0
  -27.8857  -30.4298   23.9532 H   0  0  0  0  0  0
  -27.2614  -33.3647   26.2158 H   0  0  0  0  0  0
  -28.3831  -32.7032   25.0363 H   0  0  0  0  0  0
  -28.0775  -31.8523   26.5418 H   0  0  0  0  0  0
  -28.2578  -38.0097   24.7518 H   0  0  0  0  0  0
  -28.1059  -36.2626   24.6261 H   0  0  0  0  0  0
  -27.2297  -37.1426   25.8869 H   0  0  0  0  0  0
  -20.9335  -29.8750   21.6891 H   0  0  0  0  0  0
  -26.0138  -38.2850   24.1436 H   0  0  0  0  0  0
  -30.6802  -18.9327   17.9264 H   0  0  0  0  0  0
  -30.2141  -16.6079   18.5528 H   0  0  0  0  0  0
  -30.5309  -20.1062   22.0645 H   0  0  0  0  0  0
  -30.2169  -24.7126   18.2610 H   0  0  0  0  0  0
  -31.1012  -25.5942   19.5025 H   0  0  0  0  0  0
  -32.3079  -23.6169   20.1462 H   0  0  0  0  0  0
  -32.0840  -23.3249   18.4255 H   0  0  0  0  0  0
  -28.6755  -22.4401   19.4168 H   0  0  0  0  0  0
  -29.1164  -22.3145   21.1174 H   0  0  0  0  0  0
  -29.8365  -24.5695   21.2544 H   0  0  0  0  0  0
  -28.7348  -17.3104   24.4985 H   0  0  0  0  0  0
  -29.3179  -15.9263   23.5906 H   0  0  0  0  0  0
  -28.1292  -17.0357   22.8681 H   0  0  0  0  0  0
  -27.4105  -24.8131   20.6373 H   0  0  0  0  0  0
  -27.8728  -24.9307   18.9489 H   0  0  0  0  0  0
  -29.1018  -15.3274   21.4868 H   0  0  0  0  0  0
  1 25  1  0  0  0
  1 30  2  0  0  0
  1 85  1  0  0  0
  2  3  1  0  0  0
  2 25  1  0  0  0
  2 88  1  0  0  0
  2 89  1  0  0  0
  3  4  1  0  0  0
  3 90  1  0  0  0
  3 91  1  0  0  0
  4  5  1  0  0  0
  4 92  1  0  0  0
  4 93  1  0  0  0
  5  6  1  0  0  0
  5 26  1  0  0  0
  5 94  1  0  0  0
  6 25  1  0  0  0
  6 95  1  0  0  0
  6 96  1  0  0  0
  7  8  2  0  0  0
  7 26  1  0  0  0
  7 29  1  0  0  0
  8  9  1  0  0  0
  8 22  1  0  0  0
  9 10  1  0  0  0
  9 27  2  0  0  0
 10 11  2  0  0  0
 10 15  1  0  0  0
 11 12  1  0  0  0
 11 97  1  0  0  0
 12 13  2  0  0  0
 12 98  1  0  0  0
 13 14  1  0  0  0
 13 31  1  0  0  0
 14 15  2  0  0  0
 14 99  1  0  0  0
 15100  1  0  0  0
 16 17  2  0  0  0
 16 21  1  0  0  0
 16 31  1  0  0  0
 17 18  1  0  0  0
 17101  1  0  0  0
 18 19  2  0  0  0
 18102  1  0  0  0
 19 20  1  0  0  0
 19 24  1  0  0  0
 20 21  2  0  0  0
 20103  1  0  0  0
 21 23  1  0  0  0
 22 28  1  0  0  0
 22 32  2  0  0  0
 26 27  1  0  0  0
 28104  1  0  0  0
 28105  1  0  0  0
 29106  1  0  0  0
 29107  1  0  0  0
 33 34  1  0  0  0
 33 66  1  0  0  0
 33 70  2  0  0  0
 34 36  1  0  0  0
 34 59  1  0  0  0
 34108  1  0  0  0
 35 44  2  0  0  0
 35 45  1  0  0  0
 35 68  1  0  0  0
 36 56  1  0  0  0
 36109  1  0  0  0
 37 39  1  0  0  0
 37 47  1  0  0  0
 37 66  1  0  0  0
 37110  1  0  0  0
 38 43  2  0  0  0
 38 46  1  0  0  0
 38 47  1  0  0  0
 39 64  1  0  0  0
 39 67  2  0  0  0
 40 52  1  0  0  0
 40 53  2  0  0  0
 40 58  1  0  0  0
 41111  1  0  0  0
 41112  1  0  0  0
 41113  1  0  0  0
 41 48  1  0  0  0
 42 43  1  0  0  0
 42 66  1  0  0  0
 42114  1  0  0  0
 42115  1  0  0  0
 43 44  1  0  0  0
 44116  1  0  0  0
 45 46  2  0  0  0
 45117  1  0  0  0
 46118  1  0  0  0
 47119  1  0  0  0
 47120  1  0  0  0
 48 56  1  0  0  0
 48 65  1  0  0  0
 48121  1  0  0  0
 49 50  1  0  0  0
 49 53  1  0  0  0
 49 64  1  0  0  0
 49122  1  0  0  0
 50 51  1  0  0  0
 50123  1  0  0  0
 50124  1  0  0  0
 51 52  1  0  0  0
 51125  1  0  0  0
 51126  1  0  0  0
 52127  1  0  0  0
 52128  1  0  0  0
 53 54  1  0  0  0
 54 55  2  0  0  0
 54129  1  0  0  0
 55 57  1  0  0  0
 55130  1  0  0  0
 56 69  2  0  0  0
 57 58  2  0  0  0
 57131  1  0  0  0
 58132  1  0  0  0
 59 60  1  0  0  0
 59 61  1  0  0  0
 59 62  1  0  0  0
 60133  1  0  0  0
 60134  1  0  0  0
 60135  1  0  0  0
 61136  1  0  0  0
 61137  1  0  0  0
 61138  1  0  0  0
 62139  1  0  0  0
 62140  1  0  0  0
 62141  1  0  0  0
 63 65  1  0  0  0
 63142  1  0  0  0
 63143  1  0  0  0
 63144  1  0  0  0
 64145  1  0  0  0
 65146  1  0  0  0
 68 83  1  0  0  0
 71 72  2  0  0  0
 71 74  1  0  0  0
 71147  1  0  0  0
 72 75  1  0  0  0
 72148  1  0  0  0
 73 74  2  0  0  0
 73 76  1  0  0  0
 73149  1  0  0  0
 74 77  1  0  0  0
 75 76  2  0  0  0
 75 85  1  0  0  0
 76 87  1  0  0  0
 77 84  1  0  0  0
 77 86  2  0  0  0
 78 79  1  0  0  0
 78 81  1  0  0  0
 78150  1  0  0  0
 78151  1  0  0  0
 79 84  1  0  0  0
 79152  1  0  0  0
 79153  1  0  0  0
 80 81  1  0  0  0
 80 84  1  0  0  0
 80154  1  0  0  0
 80155  1  0  0  0
 81 83  1  0  0  0
 81156  1  0  0  0
 82 87  1  0  0  0
 82157  1  0  0  0
 82158  1  0  0  0
 82159  1  0  0  0
 83160  1  0  0  0
 83161  1  0  0  0
 85162  1  0  0  0
M  ISO  4   1 100  68 101  83 101  85 100
M  END
> <chiral flag>
0

> <version>
0

> <s_m_source_file>
/data/baiqing/PycharmProjects/Reinvent-master-3.2/result/LINK_invent/BTK/process_docking_weight1_custom_product_contain_oxygen_bond_distance_aromatic_linkinvent_7_9_3/rearranged_h_0100.sdf

> <i_m_source_file_index>
12

> <r_mmod_Potential_Energy-OPLS-2005>
130.484008789062

> <r_mmod_Stretch_Energy-OPLS-2005>
53.9892501831055

> <r_mmod_Bend_Energy-OPLS-2005>
151.21452331543

> <r_mmod_Torsional_Energy-OPLS-2005>
357.927276611328

> <r_mmod_Improper_Torsional_Energy-OPLS-2005>
6.68168210983276

> <r_mmod_Van_der_Waal_Energy-OPLS-2005>
152.102142333984

> <r_mmod_Electrostatic_Energy-OPLS-2005>
-372.191925048828

> <r_mmod_Solvation_Energy-OPLS-2005>
-242.396545410156

> <b_mmod_Minimization_Converged-OPLS-2005>
0

> <r_mmod_RMS_Derivative-OPLS-2005>
2.61830806732178

$$$$
12
                    3D
 Structure written by MMmdl.
156164  0  0  1  0            999 V2000
  -30.6556  -14.5702   20.5052 C   0  0  0  0  0  0
  -30.4138  -12.3374   19.4558 C   0  0  0  0  0  0
  -29.5082  -12.5136   18.2194 C   0  0  0  0  0  0
  -28.0245  -12.3712   18.6188 C   0  0  0  0  0  0
  -27.6514  -13.2239   19.8653 C   0  0  2  0  0  0
  -28.6913  -13.0622   20.9967 C   0  0  0  0  0  0
  -25.2514  -13.8184   20.5735 C   0  0  0  0  0  0
  -24.1796  -13.0434   20.9215 C   0  0  0  0  0  0
  -24.6403  -11.6922   20.8725 C   0  0  0  0  0  0
  -23.9087  -10.4305   21.0397 C   0  0  0  0  0  0
  -24.3649   -9.4215   21.9158 C   0  0  0  0  0  0
  -23.6341   -8.2251   22.0730 C   0  0  0  0  0  0
  -22.4328   -8.0295   21.3527 C   0  0  0  0  0  0
  -21.9946   -9.0278   20.4646 C   0  0  0  0  0  0
  -22.7265  -10.2149   20.3050 C   0  0  0  0  0  0
  -21.6855   -6.0761   22.5274 C   0  0  0  0  0  0
  -21.4022   -6.5664   23.8222 C   0  0  0  0  0  0
  -21.3690   -5.6785   24.9180 C   0  0  0  0  0  0
  -21.6038   -4.3041   24.7202 C   0  0  0  0  0  0
  -21.8816   -3.8149   23.4322 C   0  0  0  0  0  0
  -21.9197   -4.6984   22.3392 C   0  0  0  0  0  0
  -22.7815  -13.5230   21.1857 C   0  0  0  0  0  0
  -22.1645   -4.2191   21.0964 F   0  0  0  0  0  0
  -21.5661   -3.4521   25.7705 F   0  0  0  0  0  0
  -30.0107  -13.3674   20.4302 N   0  0  0  0  0  0
  -26.2983  -12.9414   20.3358 N   0  0  0  0  0  0
  -25.9326  -11.6569   20.5720 N   0  0  0  0  0  0
  -22.0454  -12.8236   22.0432 N   0  0  0  0  0  0
  -25.4113  -15.1906   20.4223 N   0  0  0  0  0  0
  -31.8234  -14.7016   20.1336 O   0  0  0  0  0  0
  -21.6660   -6.8906   21.4250 O   0  0  0  0  0  0
  -22.3529  -14.5539   20.6692 O   0  0  0  0  0  0
  -24.6188  -31.8638   23.2038 C   0  0  0  0  0  0
  -25.9047  -32.4802   23.8357 C   0  0  1  0  0  0
  -27.2342  -27.3741   20.0988 C   0  0  0  0  0  0
  -25.5897  -33.8596   24.2308 N   0  0  0  0  0  0
  -23.4087  -30.4856   21.5468 C   0  0  2  0  0  0
  -24.8566  -28.9434   20.1068 C   0  0  0  0  0  0
  -22.7431  -29.4641   22.4964 C   0  0  0  0  0  0
  -18.0277  -28.1347   22.8485 C   0  0  0  0  0  0
  -24.1505  -36.7303   23.2643 C   0  0  0  0  0  0
  -25.9436  -30.8050   21.3710 C   0  0  0  0  0  0
  -26.0186  -29.4387   20.7126 C   0  0  0  0  0  0
  -27.2049  -28.6580   20.7066 C   0  0  0  0  0  0
  -26.0523  -26.9119   19.4776 C   0  0  0  0  0  0
  -24.8749  -27.6833   19.4829 C   0  0  0  0  0  0
  -23.6196  -29.8137   20.1617 C   0  0  0  0  0  0
  -25.4115  -36.3096   24.0343 C   0  0  1  0  0  0
  -20.5871  -28.3654   23.1297 C   0  0  2  0  0  0
  -20.6774  -26.9399   22.5398 C   0  0  0  0  0  0
  -19.5745  -26.6366   21.5192 C   0  0  0  0  0  0
  -18.1926  -26.7898   22.1602 C   0  0  0  0  0  0
  -19.1528  -28.8803   23.2889 C   0  0  0  0  0  0
  -18.9465  -30.1409   23.8912 C   0  0  0  0  0  0
  -17.6470  -30.6577   24.0537 C   0  0  0  0  0  0
  -25.9040  -34.9465   23.5122 C   0  0  0  0  0  0
  -16.5355  -29.9071   23.6305 C   0  0  0  0  0  0
  -16.7264  -28.6464   23.0355 C   0  0  0  0  0  0
  -26.4443  -31.6580   25.0705 C   0  0  0  0  0  0
  -25.3695  -31.3679   26.1448 C   0  0  0  0  0  0
  -27.0283  -30.3021   24.6083 C   0  0  0  0  0  0
  -27.6034  -32.4278   25.7463 C   0  0  0  0  0  0
  -27.5596  -37.1806   24.8454 C   0  0  0  0  0  0
  -21.4159  -29.3023   22.3698 N   0  0  0  0  0  0
  -26.4296  -37.3792   23.9415 N   0  0  0  0  0  0
  -24.6758  -31.0670   22.0983 N   0  0  0  0  0  0
  -23.4178  -28.8215   23.3058 O   0  0  0  0  0  0
  -28.3970  -26.6128   20.1597 O   0  0  0  0  0  0
  -26.5628  -34.8918   22.4709 O   0  0  0  0  0  0
  -23.5351  -32.1444   23.7374 O   0  0  0  0  0  0
  -28.1302  -17.9320   19.7980 C   0  0  0  0  0  0
  -29.7525  -19.5886   20.5431 C   0  0  0  0  0  0
  -27.6556  -20.3328   19.5622 C   0  0  0  0  0  0
  -29.3809  -18.2144   20.3951 C   0  0  0  0  0  0
  -27.2838  -18.9830   19.3688 C   0  0  0  0  0  0
  -28.8998  -20.6640   20.1435 C   0  0  0  0  0  0
  -30.3524  -17.0800   20.8380 C   0  0  0  0  0  0
  -27.7603  -24.0880   20.2119 C   0  0  0  0  0  0
  -28.5034  -25.2960   19.5405 C   0  0  0  0  0  0
  -28.5762  -22.9706   20.9616 C   0  0  0  0  0  0
  -26.0843  -18.6839   18.7190 N   0  0  0  0  0  0
  -29.8983  -15.6555   20.8209 N   0  0  0  0  0  0
  -29.3304  -21.9910   20.2008 O   0  0  0  0  0  0
  -31.4664  -12.4152   19.1771 H   0  0  0  0  0  0
  -30.2924  -11.3380   19.8807 H   0  0  0  0  0  0
  -29.7661  -11.7873   17.4488 H   0  0  0  0  0  0
  -29.6778  -13.4982   17.7816 H   0  0  0  0  0  0
  -27.8369  -11.3172   18.8203 H   0  0  0  0  0  0
  -27.3848  -12.6350   17.7734 H   0  0  0  0  0  0
  -27.6738  -14.2639   19.5389 H   0  0  0  0  0  0
  -28.6786  -12.0452   21.3947 H   0  0  0  0  0  0
  -28.4554  -13.7171   21.8371 H   0  0  0  0  0  0
  -25.2802   -9.5716   22.4715 H   0  0  0  0  0  0
  -24.0055   -7.4659   22.7477 H   0  0  0  0  0  0
  -21.0856   -8.8796   19.9003 H   0  0  0  0  0  0
  -22.3701  -10.9683   19.6148 H   0  0  0  0  0  0
  -21.1993   -7.6155   23.9728 H   0  0  0  0  0  0
  -21.1529   -6.0514   25.9080 H   0  0  0  0  0  0
  -22.0563   -2.7619   23.2773 H   0  0  0  0  0  0
  -22.4063  -11.9929   22.4889 H   0  0  0  0  0  0
  -21.1067  -13.1274   22.2612 H   0  0  0  0  0  0
  -24.6318  -15.8257   20.5431 H   0  0  0  0  0  0
  -26.2567  -15.6512   20.1133 H   0  0  0  0  0  0
  -26.7115  -32.5489   23.1116 H   0  0  0  0  0  0
  -25.0047  -33.9754   25.0432 H   0  0  0  0  0  0
  -22.6988  -31.3030   21.4020 H   0  0  0  0  0  0
  -23.3781  -35.9622   23.3276 H   0  0  0  0  0  0
  -24.3605  -36.8946   22.2061 H   0  0  0  0  0  0
  -23.7241  -37.6484   23.6677 H   0  0  0  0  0  0
  -26.0712  -31.5752   20.6096 H   0  0  0  0  0  0
  -26.8239  -30.8534   21.9983 H   0  0  0  0  0  0
  -28.0944  -29.0295   21.1948 H   0  0  0  0  0  0
  -26.0211  -25.9456   18.9961 H   0  0  0  0  0  0
  -23.9851  -27.2991   19.0046 H   0  0  0  0  0  0
  -23.7249  -30.5866   19.4011 H   0  0  0  0  0  0
  -22.7431  -29.2316   19.8648 H   0  0  0  0  0  0
  -25.1295  -36.1955   25.0838 H   0  0  0  0  0  0
  -20.9946  -28.3227   24.1420 H   0  0  0  0  0  0
  -20.5658  -26.2279   23.3589 H   0  0  0  0  0  0
  -21.6650  -26.7443   22.1218 H   0  0  0  0  0  0
  -19.6936  -25.6270   21.1224 H   0  0  0  0  0  0
  -19.6696  -27.3166   20.6702 H   0  0  0  0  0  0
  -17.4215  -26.6644   21.3990 H   0  0  0  0  0  0
  -18.0356  -26.0015   22.8979 H   0  0  0  0  0  0
  -19.7945  -30.7190   24.2324 H   0  0  0  0  0  0
  -17.5031  -31.6267   24.5140 H   0  0  0  0  0  0
  -15.5353  -30.2974   23.7600 H   0  0  0  0  0  0
  -15.8670  -28.0752   22.7096 H   0  0  0  0  0  0
  -24.5821  -30.7106   25.7740 H   0  0  0  0  0  0
  -24.8942  -32.2841   26.4963 H   0  0  0  0  0  0
  -25.8016  -30.8748   27.0170 H   0  0  0  0  0  0
  -26.2841  -29.6791   24.1117 H   0  0  0  0  0  0
  -27.4043  -29.7227   25.4527 H   0  0  0  0  0  0
  -27.8682  -30.4340   23.9260 H   0  0  0  0  0  0
  -27.2674  -33.3556   26.2086 H   0  0  0  0  0  0
  -28.3812  -32.6862   25.0275 H   0  0  0  0  0  0
  -28.0743  -31.8377   26.5325 H   0  0  0  0  0  0
  -28.2584  -38.0132   24.7548 H   0  0  0  0  0  0
  -28.1124  -36.2673   24.6220 H   0  0  0  0  0  0
  -27.2333  -37.1382   25.8858 H   0  0  0  0  0  0
  -20.9330  -29.8711   21.6889 H   0  0  0  0  0  0
  -26.0188  -38.2873   24.1390 H   0  0  0  0  0  0
  -27.8329  -16.9058   19.6434 H   0  0  0  0  0  0
  -30.7169  -19.8206   20.9695 H   0  0  0  0  0  0
  -27.0036  -21.1254   19.2222 H   0  0  0  0  0  0
  -30.6744  -17.3017   21.8549 H   0  0  0  0  0  0
  -31.2485  -17.1796   20.2228 H   0  0  0  0  0  0
  -27.1324  -23.6093   19.4629 H   0  0  0  0  0  0
  -27.0597  -24.5071   20.9341 H   0  0  0  0  0  0
  -28.1936  -25.3836   18.4987 H   0  0  0  0  0  0
  -29.5668  -25.0582   19.4816 H   0  0  0  0  0  0
  -27.8975  -22.4465   21.6367 H   0  0  0  0  0  0
  -29.2849  -23.4689   21.6219 H   0  0  0  0  0  0
  -25.9771  -17.7711   18.2856 H   0  0  0  0  0  0
  -25.6193  -19.4141   18.1838 H   0  0  0  0  0  0
  -28.9491  -15.4736   21.1124 H   0  0  0  0  0  0
  1 25  1  0  0  0
  1 30  2  0  0  0
  1 82  1  0  0  0
  2  3  1  0  0  0
  2 25  1  0  0  0
  2 84  1  0  0  0
  2 85  1  0  0  0
  3  4  1  0  0  0
  3 86  1  0  0  0
  3 87  1  0  0  0
  4  5  1  0  0  0
  4 88  1  0  0  0
  4 89  1  0  0  0
  5  6  1  0  0  0
  5 26  1  0  0  0
  5 90  1  0  0  0
  6 25  1  0  0  0
  6 91  1  0  0  0
  6 92  1  0  0  0
  7  8  2  0  0  0
  7 26  1  0  0  0
  7 29  1  0  0  0
  8  9  1  0  0  0
  8 22  1  0  0  0
  9 10  1  0  0  0
  9 27  2  0  0  0
 10 11  2  0  0  0
 10 15  1  0  0  0
 11 12  1  0  0  0
 11 93  1  0  0  0
 12 13  2  0  0  0
 12 94  1  0  0  0
 13 14  1  0  0  0
 13 31  1  0  0  0
 14 15  2  0  0  0
 14 95  1  0  0  0
 15 96  1  0  0  0
 16 17  2  0  0  0
 16 21  1  0  0  0
 16 31  1  0  0  0
 17 18  1  0  0  0
 17 97  1  0  0  0
 18 19  2  0  0  0
 18 98  1  0  0  0
 19 20  1  0  0  0
 19 24  1  0  0  0
 20 21  2  0  0  0
 20 99  1  0  0  0
 21 23  1  0  0  0
 22 28  1  0  0  0
 22 32  2  0  0  0
 26 27  1  0  0  0
 28100  1  0  0  0
 28101  1  0  0  0
 29102  1  0  0  0
 29103  1  0  0  0
 33 34  1  0  0  0
 33 66  1  0  0  0
 33 70  2  0  0  0
 34 36  1  0  0  0
 34 59  1  0  0  0
 34104  1  0  0  0
 35 44  2  0  0  0
 35 45  1  0  0  0
 35 68  1  0  0  0
 36 56  1  0  0  0
 36105  1  0  0  0
 37 39  1  0  0  0
 37 47  1  0  0  0
 37 66  1  0  0  0
 37106  1  0  0  0
 38 43  2  0  0  0
 38 46  1  0  0  0
 38 47  1  0  0  0
 39 64  1  0  0  0
 39 67  2  0  0  0
 40 52  1  0  0  0
 40 53  2  0  0  0
 40 58  1  0  0  0
 41107  1  0  0  0
 41108  1  0  0  0
 41109  1  0  0  0
 41 48  1  0  0  0
 42 43  1  0  0  0
 42 66  1  0  0  0
 42110  1  0  0  0
 42111  1  0  0  0
 43 44  1  0  0  0
 44112  1  0  0  0
 45 46  2  0  0  0
 45113  1  0  0  0
 46114  1  0  0  0
 47115  1  0  0  0
 47116  1  0  0  0
 48 56  1  0  0  0
 48 65  1  0  0  0
 48117  1  0  0  0
 49 50  1  0  0  0
 49 53  1  0  0  0
 49 64  1  0  0  0
 49118  1  0  0  0
 50 51  1  0  0  0
 50119  1  0  0  0
 50120  1  0  0  0
 51 52  1  0  0  0
 51121  1  0  0  0
 51122  1  0  0  0
 52123  1  0  0  0
 52124  1  0  0  0
 53 54  1  0  0  0
 54 55  2  0  0  0
 54125  1  0  0  0
 55 57  1  0  0  0
 55126  1  0  0  0
 56 69  2  0  0  0
 57 58  2  0  0  0
 57127  1  0  0  0
 58128  1  0  0  0
 59 60  1  0  0  0
 59 61  1  0  0  0
 59 62  1  0  0  0
 60129  1  0  0  0
 60130  1  0  0  0
 60131  1  0  0  0
 61132  1  0  0  0
 61133  1  0  0  0
 61134  1  0  0  0
 62135  1  0  0  0
 62136  1  0  0  0
 62137  1  0  0  0
 63 65  1  0  0  0
 63138  1  0  0  0
 63139  1  0  0  0
 63140  1  0  0  0
 64141  1  0  0  0
 65142  1  0  0  0
 68 79  1  0  0  0
 71 74  2  0  0  0
 71 75  1  0  0  0
 71143  1  0  0  0
 72 74  1  0  0  0
 72 76  2  0  0  0
 72144  1  0  0  0
 73 75  2  0  0  0
 73 76  1  0  0  0
 73145  1  0  0  0
 74 77  1  0  0  0
 75 81  1  0  0  0
 76 83  1  0  0  0
 77 82  1  0  0  0
 77146  1  0  0  0
 77147  1  0  0  0
 78 79  1  0  0  0
 78 80  1  0  0  0
 78148  1  0  0  0
 78149  1  0  0  0
 79150  1  0  0  0
 79151  1  0  0  0
 80 83  1  0  0  0
 80152  1  0  0  0
 80153  1  0  0  0
 81154  1  0  0  0
 81155  1  0  0  0
 82156  1  0  0  0
M  ISO  4   1 100  68 101  79 101  82 100
M  END
> <chiral flag>
0

> <version>
0

> <s_m_source_file>
/data/baiqing/PycharmProjects/Reinvent-master-3.2/result/LINK_invent/BTK/process_docking_weight1_custom_product_contain_oxygen_bond_distance_aromatic_linkinvent_7_9_3/rearranged_h_0100.sdf

> <i_m_source_file_index>
13

> <r_mmod_Potential_Energy-OPLS-2005>
-48.485538482666

> <r_mmod_Stretch_Energy-OPLS-2005>
56.9920501708984

> <r_mmod_Bend_Energy-OPLS-2005>
137.023544311523

> <r_mmod_Torsional_Energy-OPLS-2005>
227.085906982422

> <r_mmod_Improper_Torsional_Energy-OPLS-2005>
7.9225492477417

> <r_mmod_Van_der_Waal_Energy-OPLS-2005>
137.56901550293

> <r_mmod_Electrostatic_Energy-OPLS-2005>
-424.033782958984

> <r_mmod_Solvation_Energy-OPLS-2005>
-220.001480102539

> <b_mmod_Minimization_Converged-OPLS-2005>
0

> <r_mmod_RMS_Derivative-OPLS-2005>
4.73496103286743

$$$$
13
                    3D
 Structure written by MMmdl.
164173  0  0  1  0            999 V2000
  -30.6305  -14.6910   20.3690 C   0  0  0  0  0  0
  -30.4482  -12.3690   19.4909 C   0  0  0  0  0  0
  -29.5242  -12.2848   18.2538 C   0  0  0  0  0  0
  -28.0283  -12.2725   18.6495 C   0  0  0  0  0  0
  -27.6414  -13.2046   19.8356 C   0  0  2  0  0  0
  -28.6937  -13.1707   20.9639 C   0  0  0  0  0  0
  -25.2563  -13.8149   20.5690 C   0  0  0  0  0  0
  -24.1815  -13.0442   20.9197 C   0  0  0  0  0  0
  -24.6359  -11.6907   20.8777 C   0  0  0  0  0  0
  -23.9024  -10.4294   21.0441 C   0  0  0  0  0  0
  -24.3594   -9.4203   21.9203 C   0  0  0  0  0  0
  -23.6277   -8.2235   22.0760 C   0  0  0  0  0  0
  -22.4267   -8.0270   21.3544 C   0  0  0  0  0  0
  -21.9893   -9.0250   20.4654 C   0  0  0  0  0  0
  -22.7209  -10.2138   20.3076 C   0  0  0  0  0  0
  -21.6855   -6.0731   22.5279 C   0  0  0  0  0  0
  -21.4017   -6.5639   23.8210 C   0  0  0  0  0  0
  -21.3651   -5.6792   24.9174 C   0  0  0  0  0  0
  -21.6048   -4.3057   24.7226 C   0  0  0  0  0  0
  -21.8826   -3.8147   23.4348 C   0  0  0  0  0  0
  -21.9200   -4.6959   22.3401 C   0  0  0  0  0  0
  -22.7852  -13.5256   21.1857 C   0  0  0  0  0  0
  -22.1662   -4.2144   21.0978 F   0  0  0  0  0  0
  -21.5624   -3.4531   25.7732 F   0  0  0  0  0  0
  -29.9925  -13.4750   20.3556 N   0  0  0  0  0  0
  -26.2948  -12.9291   20.3276 N   0  0  0  0  0  0
  -25.9283  -11.6476   20.5830 N   0  0  0  0  0  0
  -22.0488  -12.8257   22.0415 N   0  0  0  0  0  0
  -25.4334  -15.1863   20.4129 N   0  0  0  0  0  0
  -31.8551  -14.7529   20.2279 O   0  0  0  0  0  0
  -21.6643   -6.8861   21.4237 O   0  0  0  0  0  0
  -22.3544  -14.5563   20.6693 O   0  0  0  0  0  0
  -24.6229  -31.8625   23.2040 C   0  0  0  0  0  0
  -25.9093  -32.4790   23.8367 C   0  0  1  0  0  0
  -27.2220  -27.3448   20.1305 C   0  0  0  0  0  0
  -25.5917  -33.8591   24.2291 N   0  0  0  0  0  0
  -23.4150  -30.4852   21.5459 C   0  0  2  0  0  0
  -24.8624  -28.9432   20.1113 C   0  0  0  0  0  0
  -22.7455  -29.4637   22.4946 C   0  0  0  0  0  0
  -18.0283  -28.1386   22.8488 C   0  0  0  0  0  0
  -24.1488  -36.7304   23.2637 C   0  0  0  0  0  0
  -25.9525  -30.8014   21.3714 C   0  0  0  0  0  0
  -26.0274  -29.4297   20.7184 C   0  0  0  0  0  0
  -27.2121  -28.6416   20.7190 C   0  0  0  0  0  0
  -26.0434  -26.9093   19.4853 C   0  0  0  0  0  0
  -24.8708  -27.6874   19.4836 C   0  0  0  0  0  0
  -23.6286  -29.8191   20.1607 C   0  0  0  0  0  0
  -25.4109  -36.3089   24.0331 C   0  0  1  0  0  0
  -20.5882  -28.3692   23.1287 C   0  0  2  0  0  0
  -20.6777  -26.9417   22.5412 C   0  0  0  0  0  0
  -19.5754  -26.6389   21.5215 C   0  0  0  0  0  0
  -18.1930  -26.7930   22.1622 C   0  0  0  0  0  0
  -19.1535  -28.8855   23.2886 C   0  0  0  0  0  0
  -18.9458  -30.1456   23.8904 C   0  0  0  0  0  0
  -17.6458  -30.6589   24.0565 C   0  0  0  0  0  0
  -25.9048  -34.9458   23.5112 C   0  0  0  0  0  0
  -16.5350  -29.9091   23.6327 C   0  0  0  0  0  0
  -16.7269  -28.6508   23.0347 C   0  0  0  0  0  0
  -26.4489  -31.6584   25.0721 C   0  0  0  0  0  0
  -25.3737  -31.3712   26.1455 C   0  0  0  0  0  0
  -27.0324  -30.3011   24.6149 C   0  0  0  0  0  0
  -27.6055  -32.4309   25.7487 C   0  0  0  0  0  0
  -27.5579  -37.1801   24.8460 C   0  0  0  0  0  0
  -21.4176  -29.3047   22.3686 N   0  0  0  0  0  0
  -26.4287  -37.3782   23.9412 N   0  0  0  0  0  0
  -24.6820  -31.0659   22.0979 N   0  0  0  0  0  0
  -23.4189  -28.8185   23.3025 O   0  0  0  0  0  0
  -28.3420  -26.5121   20.1704 O   0  0  0  0  0  0
  -26.5613  -34.8922   22.4676 O   0  0  0  0  0  0
  -23.5399  -32.1411   23.7387 O   0  0  0  0  0  0
  -31.1171  -19.3360   20.1507 C   0  0  0  0  0  0
  -31.1504  -17.9172   20.1804 C   0  0  0  0  0  0
  -28.8647  -17.9001   20.9308 C   0  0  0  0  0  0
  -29.9346  -20.0899   20.4046 C   0  0  0  0  0  0
  -29.9991  -17.1582   20.4970 C   0  0  0  0  0  0
  -28.8242  -19.3276   20.8802 C   0  0  0  0  0  0
  -29.0115  -23.8537   18.5140 C   0  0  0  0  0  0
  -29.7682  -22.6816   17.8907 C   0  0  0  0  0  0
  -30.6509  -21.9354   18.9092 C   0  0  0  0  0  0
  -28.9538  -22.5208   20.6608 C   0  0  0  0  0  0
  -29.0967  -23.9894   20.0416 C   0  0  2  0  0  0
  -28.4112  -16.7415   18.1011 C   0  0  0  0  0  0
  -28.1237  -25.1129   20.5934 C   0  0  0  0  0  0
  -29.5707  -15.8292   18.5493 C   0  0  0  0  0  0
  -29.9008  -21.5036   20.1000 N   0  0  0  0  0  0
  -29.8578  -15.7895   20.0053 N   0  0  0  0  0  0
  -28.3636  -24.6296   17.8046 O   0  0  0  0  0  0
  -27.6622  -19.9480   21.2018 F   0  0  0  0  0  0
  -31.4859  -12.4885   19.1755 H   0  0  0  0  0  0
  -30.4121  -11.4339   20.0514 H   0  0  0  0  0  0
  -29.7448  -11.3525   17.7315 H   0  0  0  0  0  0
  -29.7594  -13.0376   17.5081 H   0  0  0  0  0  0
  -27.8078  -11.2412   18.9291 H   0  0  0  0  0  0
  -27.4027  -12.4768   17.7798 H   0  0  0  0  0  0
  -27.6117  -14.2138   19.4369 H   0  0  0  0  0  0
  -28.7148  -12.1966   21.4550 H   0  0  0  0  0  0
  -28.4501  -13.9060   21.7329 H   0  0  0  0  0  0
  -25.2741   -9.5684   22.4778 H   0  0  0  0  0  0
  -23.9997   -7.4630   22.7471 H   0  0  0  0  0  0
  -21.0828   -8.8772   19.8947 H   0  0  0  0  0  0
  -22.3670  -10.9690   19.6192 H   0  0  0  0  0  0
  -21.2006   -7.6152   23.9709 H   0  0  0  0  0  0
  -21.1462   -6.0523   25.9071 H   0  0  0  0  0  0
  -22.0607   -2.7607   23.2854 H   0  0  0  0  0  0
  -22.4088  -11.9916   22.4806 H   0  0  0  0  0  0
  -21.1116  -13.1302   22.2624 H   0  0  0  0  0  0
  -24.6758  -15.8508   20.5257 H   0  0  0  0  0  0
  -26.2965  -15.6127   20.1034 H   0  0  0  0  0  0
  -26.7160  -32.5471   23.1122 H   0  0  0  0  0  0
  -25.0064  -33.9745   25.0433 H   0  0  0  0  0  0
  -22.7077  -31.3049   21.4030 H   0  0  0  0  0  0
  -23.3748  -35.9638   23.3291 H   0  0  0  0  0  0
  -24.3584  -36.8930   22.2053 H   0  0  0  0  0  0
  -23.7242  -37.6505   23.6662 H   0  0  0  0  0  0
  -26.0767  -31.5620   20.5995 H   0  0  0  0  0  0
  -26.8364  -30.8544   21.9953 H   0  0  0  0  0  0
  -28.1065  -29.0075   21.2039 H   0  0  0  0  0  0
  -26.0183  -25.9554   18.9779 H   0  0  0  0  0  0
  -23.9819  -27.3134   18.9947 H   0  0  0  0  0  0
  -23.7450  -30.5952   19.4032 H   0  0  0  0  0  0
  -22.7502  -29.2454   19.8590 H   0  0  0  0  0  0
  -25.1289  -36.1942   25.0823 H   0  0  0  0  0  0
  -20.9975  -28.3269   24.1408 H   0  0  0  0  0  0
  -20.5683  -26.2305   23.3614 H   0  0  0  0  0  0
  -21.6644  -26.7460   22.1195 H   0  0  0  0  0  0
  -19.6918  -25.6302   21.1243 H   0  0  0  0  0  0
  -19.6692  -27.3202   20.6746 H   0  0  0  0  0  0
  -17.4204  -26.6677   21.4021 H   0  0  0  0  0  0
  -18.0333  -26.0071   22.9016 H   0  0  0  0  0  0
  -19.7936  -30.7267   24.2277 H   0  0  0  0  0  0
  -17.5015  -31.6270   24.5166 H   0  0  0  0  0  0
  -15.5350  -30.2995   23.7651 H   0  0  0  0  0  0
  -15.8667  -28.0831   22.7057 H   0  0  0  0  0  0
  -24.5911  -30.7061   25.7787 H   0  0  0  0  0  0
  -24.8935  -32.2877   26.4894 H   0  0  0  0  0  0
  -25.8074  -30.8881   27.0221 H   0  0  0  0  0  0
  -26.2888  -29.6762   24.1191 H   0  0  0  0  0  0
  -27.4052  -29.7259   25.4635 H   0  0  0  0  0  0
  -27.8745  -30.4300   23.9345 H   0  0  0  0  0  0
  -27.2673  -33.3608   26.2073 H   0  0  0  0  0  0
  -28.3865  -32.6870   25.0315 H   0  0  0  0  0  0
  -28.0725  -31.8430   26.5398 H   0  0  0  0  0  0
  -28.2584  -38.0110   24.7520 H   0  0  0  0  0  0
  -28.1088  -36.2644   24.6264 H   0  0  0  0  0  0
  -27.2306  -37.1418   25.8864 H   0  0  0  0  0  0
  -20.9350  -29.8762   21.6892 H   0  0  0  0  0  0
  -26.0170  -38.2856   24.1422 H   0  0  0  0  0  0
  -32.0218  -19.8387   19.8423 H   0  0  0  0  0  0
  -32.0439  -17.4176   19.8331 H   0  0  0  0  0  0
  -27.9522  -17.3733   21.1687 H   0  0  0  0  0  0
  -30.3794  -23.0541   17.0684 H   0  0  0  0  0  0
  -29.0395  -21.9972   17.4577 H   0  0  0  0  0  0
  -31.4750  -22.5786   19.2229 H   0  0  0  0  0  0
  -31.1050  -21.1019   18.3740 H   0  0  0  0  0  0
  -27.9295  -22.1811   20.5041 H   0  0  0  0  0  0
  -29.0990  -22.5685   21.7406 H   0  0  0  0  0  0
  -30.1081  -24.3327   20.2571 H   0  0  0  0  0  0
  -28.1844  -16.5680   17.0484 H   0  0  0  0  0  0
  -28.6520  -17.8001   18.1971 H   0  0  0  0  0  0
  -27.4988  -16.5410   18.6603 H   0  0  0  0  0  0
  -28.2232  -25.1192   21.6788 H   0  0  0  0  0  0
  -27.1010  -24.7783   20.4242 H   0  0  0  0  0  0
  -30.4806  -16.1038   18.0114 H   0  0  0  0  0  0
  -29.3011  -14.8565   18.1833 H   0  0  0  0  0  0
  1 25  1  0  0  0
  1 30  2  0  0  0
  1 86  1  0  0  0
  2  3  1  0  0  0
  2 25  1  0  0  0
  2 89  1  0  0  0
  2 90  1  0  0  0
  3  4  1  0  0  0
  3 91  1  0  0  0
  3 92  1  0  0  0
  4  5  1  0  0  0
  4 93  1  0  0  0
  4 94  1  0  0  0
  5  6  1  0  0  0
  5 26  1  0  0  0
  5 95  1  0  0  0
  6 25  1  0  0  0
  6 96  1  0  0  0
  6 97  1  0  0  0
  7  8  2  0  0  0
  7 26  1  0  0  0
  7 29  1  0  0  0
  8  9  1  0  0  0
  8 22  1  0  0  0
  9 10  1  0  0  0
  9 27  2  0  0  0
 10 11  2  0  0  0
 10 15  1  0  0  0
 11 12  1  0  0  0
 11 98  1  0  0  0
 12 13  2  0  0  0
 12 99  1  0  0  0
 13 14  1  0  0  0
 13 31  1  0  0  0
 14 15  2  0  0  0
 14100  1  0  0  0
 15101  1  0  0  0
 16 17  2  0  0  0
 16 21  1  0  0  0
 16 31  1  0  0  0
 17 18  1  0  0  0
 17102  1  0  0  0
 18 19  2  0  0  0
 18103  1  0  0  0
 19 20  1  0  0  0
 19 24  1  0  0  0
 20 21  2  0  0  0
 20104  1  0  0  0
 21 23  1  0  0  0
 22 28  1  0  0  0
 22 32  2  0  0  0
 26 27  1  0  0  0
 28105  1  0  0  0
 28106  1  0  0  0
 29107  1  0  0  0
 29108  1  0  0  0
 33 34  1  0  0  0
 33 66  1  0  0  0
 33 70  2  0  0  0
 34 36  1  0  0  0
 34 59  1  0  0  0
 34109  1  0  0  0
 35 44  2  0  0  0
 35 45  1  0  0  0
 35 68  1  0  0  0
 36 56  1  0  0  0
 36110  1  0  0  0
 37 39  1  0  0  0
 37 47  1  0  0  0
 37 66  1  0  0  0
 37111  1  0  0  0
 38 43  2  0  0  0
 38 46  1  0  0  0
 38 47  1  0  0  0
 39 64  1  0  0  0
 39 67  2  0  0  0
 40 52  1  0  0  0
 40 53  2  0  0  0
 40 58  1  0  0  0
 41112  1  0  0  0
 41113  1  0  0  0
 41114  1  0  0  0
 41 48  1  0  0  0
 42 43  1  0  0  0
 42 66  1  0  0  0
 42115  1  0  0  0
 42116  1  0  0  0
 43 44  1  0  0  0
 44117  1  0  0  0
 45 46  2  0  0  0
 45118  1  0  0  0
 46119  1  0  0  0
 47120  1  0  0  0
 47121  1  0  0  0
 48 56  1  0  0  0
 48 65  1  0  0  0
 48122  1  0  0  0
 49 50  1  0  0  0
 49 53  1  0  0  0
 49 64  1  0  0  0
 49123  1  0  0  0
 50 51  1  0  0  0
 50124  1  0  0  0
 50125  1  0  0  0
 51 52  1  0  0  0
 51126  1  0  0  0
 51127  1  0  0  0
 52128  1  0  0  0
 52129  1  0  0  0
 53 54  1  0  0  0
 54 55  2  0  0  0
 54130  1  0  0  0
 55 57  1  0  0  0
 55131  1  0  0  0
 56 69  2  0  0  0
 57 58  2  0  0  0
 57132  1  0  0  0
 58133  1  0  0  0
 59 60  1  0  0  0
 59 61  1  0  0  0
 59 62  1  0  0  0
 60134  1  0  0  0
 60135  1  0  0  0
 60136  1  0  0  0
 61137  1  0  0  0
 61138  1  0  0  0
 61139  1  0  0  0
 62140  1  0  0  0
 62141  1  0  0  0
 62142  1  0  0  0
 63 65  1  0  0  0
 63143  1  0  0  0
 63144  1  0  0  0
 63145  1  0  0  0
 64146  1  0  0  0
 65147  1  0  0  0
 68 83  1  0  0  0
 71 72  2  0  0  0
 71 74  1  0  0  0
 71148  1  0  0  0
 72 75  1  0  0  0
 72149  1  0  0  0
 73 75  2  0  0  0
 73 76  1  0  0  0
 73150  1  0  0  0
 74 76  2  0  0  0
 74 85  1  0  0  0
 75 86  1  0  0  0
 76 88  1  0  0  0
 77 78  1  0  0  0
 77 81  1  0  0  0
 77 87  2  0  0  0
 78 79  1  0  0  0
 78151  1  0  0  0
 78152  1  0  0  0
 79 85  1  0  0  0
 79153  1  0  0  0
 79154  1  0  0  0
 80 81  1  0  0  0
 80 85  1  0  0  0
 80155  1  0  0  0
 80156  1  0  0  0
 81 83  1  0  0  0
 81157  1  0  0  0
 82 84  1  0  0  0
 82158  1  0  0  0
 82159  1  0  0  0
 82160  1  0  0  0
 83161  1  0  0  0
 83162  1  0  0  0
 84 86  1  0  0  0
 84163  1  0  0  0
 84164  1  0  0  0
M  ISO  4   1 100  68 101  83 101  86 100
M  END
> <chiral flag>
0

> <version>
0

> <s_m_source_file>
/data/baiqing/PycharmProjects/Reinvent-master-3.2/result/LINK_invent/BTK/process_docking_weight1_custom_product_contain_oxygen_bond_distance_aromatic_linkinvent_7_9_3/rearranged_h_0100.sdf

> <i_m_source_file_index>
14

> <r_mmod_Potential_Energy-OPLS-2005>
385.066345214844

> <r_mmod_Stretch_Energy-OPLS-2005>
82.6027069091797

> <r_mmod_Bend_Energy-OPLS-2005>
159.327163696289

> <r_mmod_Torsional_Energy-OPLS-2005>
346.144592285156

> <r_mmod_Improper_Torsional_Energy-OPLS-2005>
25.7435779571533

> <r_mmod_Van_der_Waal_Energy-OPLS-2005>
167.516906738281

> <r_mmod_Electrostatic_Energy-OPLS-2005>
-253.537017822266

> <r_mmod_Solvation_Energy-OPLS-2005>
-213.523422241211

> <b_mmod_Minimization_Converged-OPLS-2005>
0

> <r_mmod_RMS_Derivative-OPLS-2005>
1.49940228462219

$$$$
14
                    3D
 Structure written by MMmdl.
161169  0  0  1  0            999 V2000
  -30.6828  -14.5170   20.5037 C   0  0  0  0  0  0
  -30.4238  -12.3099   19.4356 C   0  0  0  0  0  0
  -29.4970  -12.4678   18.2115 C   0  0  0  0  0  0
  -28.0151  -12.3453   18.6243 C   0  0  0  0  0  0
  -27.6538  -13.2021   19.8682 C   0  0  2  0  0  0
  -28.7024  -13.0344   20.9915 C   0  0  0  0  0  0
  -25.2588  -13.8141   20.5722 C   0  0  0  0  0  0
  -24.1831  -13.0426   20.9190 C   0  0  0  0  0  0
  -24.6374  -11.6888   20.8742 C   0  0  0  0  0  0
  -23.9033  -10.4282   21.0400 C   0  0  0  0  0  0
  -24.3597   -9.4207   21.9175 C   0  0  0  0  0  0
  -23.6279   -8.2241   22.0746 C   0  0  0  0  0  0
  -22.4260   -8.0275   21.3539 C   0  0  0  0  0  0
  -21.9885   -9.0247   20.4646 C   0  0  0  0  0  0
  -22.7206  -10.2128   20.3053 C   0  0  0  0  0  0
  -21.6855   -6.0728   22.5276 C   0  0  0  0  0  0
  -21.4013   -6.5633   23.8209 C   0  0  0  0  0  0
  -21.3650   -5.6787   24.9173 C   0  0  0  0  0  0
  -21.6042   -4.3050   24.7223 C   0  0  0  0  0  0
  -21.8826   -3.8140   23.4347 C   0  0  0  0  0  0
  -21.9202   -4.6956   22.3403 C   0  0  0  0  0  0
  -22.7862  -13.5236   21.1851 C   0  0  0  0  0  0
  -22.1672   -4.2143   21.0979 F   0  0  0  0  0  0
  -21.5627   -3.4530   25.7734 F   0  0  0  0  0  0
  -30.0251  -13.3265   20.4207 N   0  0  0  0  0  0
  -26.2999  -12.9286   20.3382 N   0  0  0  0  0  0
  -25.9303  -11.6455   20.5794 N   0  0  0  0  0  0
  -22.0501  -12.8228   22.0405 N   0  0  0  0  0  0
  -25.4337  -15.1862   20.4158 N   0  0  0  0  0  0
  -31.8557  -14.6549   20.1434 O   0  0  0  0  0  0
  -21.6634   -6.8868   21.4236 O   0  0  0  0  0  0
  -22.3551  -14.5549   20.6710 O   0  0  0  0  0  0
  -24.6160  -31.8667   23.2086 C   0  0  0  0  0  0
  -25.9043  -32.4816   23.8386 C   0  0  1  0  0  0
  -27.2360  -27.4183   20.1031 C   0  0  0  0  0  0
  -25.5894  -33.8615   24.2316 N   0  0  0  0  0  0
  -23.4045  -30.4897   21.5494 C   0  0  2  0  0  0
  -24.8508  -28.9538   20.1133 C   0  0  0  0  0  0
  -22.7419  -29.4652   22.4989 C   0  0  0  0  0  0
  -18.0270  -28.1376   22.8490 C   0  0  0  0  0  0
  -24.1482  -36.7313   23.2637 C   0  0  0  0  0  0
  -25.9341  -30.8279   21.3642 C   0  0  0  0  0  0
  -26.0111  -29.4616   20.7098 C   0  0  0  0  0  0
  -27.2050  -28.7029   20.6977 C   0  0  0  0  0  0
  -26.0555  -26.9304   19.4948 C   0  0  0  0  0  0
  -24.8698  -27.6890   19.5011 C   0  0  0  0  0  0
  -23.6129  -29.8214   20.1641 C   0  0  0  0  0  0
  -25.4106  -36.3112   24.0338 C   0  0  1  0  0  0
  -20.5862  -28.3662   23.1318 C   0  0  2  0  0  0
  -20.6761  -26.9397   22.5429 C   0  0  0  0  0  0
  -19.5746  -26.6383   21.5215 C   0  0  0  0  0  0
  -18.1915  -26.7925   22.1612 C   0  0  0  0  0  0
  -19.1521  -28.8834   23.2903 C   0  0  0  0  0  0
  -18.9450  -30.1440   23.8917 C   0  0  0  0  0  0
  -17.6451  -30.6581   24.0568 C   0  0  0  0  0  0
  -25.9034  -34.9475   23.5127 C   0  0  0  0  0  0
  -16.5343  -29.9084   23.6326 C   0  0  0  0  0  0
  -16.7261  -28.6502   23.0347 C   0  0  0  0  0  0
  -26.4467  -31.6599   25.0720 C   0  0  0  0  0  0
  -25.3731  -31.3713   26.1470 C   0  0  0  0  0  0
  -27.0291  -30.3035   24.6108 C   0  0  0  0  0  0
  -27.6043  -32.4322   25.7484 C   0  0  0  0  0  0
  -27.5584  -37.1809   24.8457 C   0  0  0  0  0  0
  -21.4141  -29.3029   22.3727 N   0  0  0  0  0  0
  -26.4291  -37.3800   23.9410 N   0  0  0  0  0  0
  -24.6695  -31.0761   22.0988 N   0  0  0  0  0  0
  -23.4186  -28.8202   23.3044 O   0  0  0  0  0  0
  -28.4093  -26.6845   20.1388 O   0  0  0  0  0  0
  -26.5606  -34.8930   22.4696 O   0  0  0  0  0  0
  -23.5352  -32.1425   23.7476 O   0  0  0  0  0  0
  -28.3725  -18.6044   22.0919 C   0  0  0  0  0  0
  -30.5650  -18.7489   21.0726 C   0  0  0  0  0  0
  -28.2061  -19.9979   21.9332 C   0  0  0  0  0  0
  -30.3932  -20.1456   20.9019 C   0  0  0  0  0  0
  -29.5507  -17.9553   21.6595 C   0  0  0  0  0  0
  -29.2070  -20.7921   21.3326 C   0  0  0  0  0  0
  -30.7375  -16.1320   22.9633 C   0  0  0  0  0  0
  -29.4582  -16.2543   19.3664 C   0  0  0  0  0  0
  -29.5907  -24.5733   20.5934 C   0  0  0  0  0  0
  -29.7729  -23.0467   20.3385 C   0  0  0  0  0  0
  -28.3313  -25.2508   19.9961 C   0  0  0  0  0  0
  -29.7021  -16.4271   21.8564 C   0  0  2  0  0  0
  -28.9735  -22.1811   21.2130 N   0  0  0  0  0  0
  -29.8816  -15.6115   20.6197 N   0  0  0  0  0  0
  -31.4689  -12.4061   19.1369 H   0  0  0  0  0  0
  -30.3262  -11.3118   19.8657 H   0  0  0  0  0  0
  -29.7343  -11.7099   17.4642 H   0  0  0  0  0  0
  -29.6736  -13.4283   17.7274 H   0  0  0  0  0  0
  -27.8224  -11.2933   18.8376 H   0  0  0  0  0  0
  -27.3666  -12.6070   17.7868 H   0  0  0  0  0  0
  -27.6670  -14.2388   19.5404 H   0  0  0  0  0  0
  -28.6835  -12.0180   21.3863 H   0  0  0  0  0  0
  -28.4769  -13.6904   21.8325 H   0  0  0  0  0  0
  -25.2748   -9.5693   22.4743 H   0  0  0  0  0  0
  -23.9995   -7.4633   22.7463 H   0  0  0  0  0  0
  -21.0812   -8.8757   19.8955 H   0  0  0  0  0  0
  -22.3652  -10.9665   19.6162 H   0  0  0  0  0  0
  -21.2001   -7.6143   23.9705 H   0  0  0  0  0  0
  -21.1460   -6.0522   25.9073 H   0  0  0  0  0  0
  -22.0613   -2.7603   23.2853 H   0  0  0  0  0  0
  -22.4095  -11.9872   22.4774 H   0  0  0  0  0  0
  -21.1130  -13.1274   22.2618 H   0  0  0  0  0  0
  -24.6748  -15.8483   20.5318 H   0  0  0  0  0  0
  -26.3003  -15.6209   20.1254 H   0  0  0  0  0  0
  -26.7118  -32.5518   23.1152 H   0  0  0  0  0  0
  -25.0036  -33.9776   25.0458 H   0  0  0  0  0  0
  -22.6938  -31.3069   21.4096 H   0  0  0  0  0  0
  -23.3748  -35.9639   23.3299 H   0  0  0  0  0  0
  -24.3578  -36.8932   22.2052 H   0  0  0  0  0  0
  -23.7223  -37.6513   23.6654 H   0  0  0  0  0  0
  -26.0501  -31.5940   20.5962 H   0  0  0  0  0  0
  -26.8206  -30.8792   21.9844 H   0  0  0  0  0  0
  -28.1001  -29.0922   21.1625 H   0  0  0  0  0  0
  -26.0346  -25.9653   19.0097 H   0  0  0  0  0  0
  -23.9787  -27.2935   19.0326 H   0  0  0  0  0  0
  -23.7207  -30.5961   19.4042 H   0  0  0  0  0  0
  -22.7372  -29.2410   19.8687 H   0  0  0  0  0  0
  -25.1285  -36.1974   25.0830 H   0  0  0  0  0  0
  -20.9948  -28.3225   24.1442 H   0  0  0  0  0  0
  -20.5647  -26.2274   23.3620 H   0  0  0  0  0  0
  -21.6631  -26.7428   22.1227 H   0  0  0  0  0  0
  -19.6905  -25.6297   21.1236 H   0  0  0  0  0  0
  -19.6696  -27.3207   20.6759 H   0  0  0  0  0  0
  -17.4198  -26.6697   21.3998 H   0  0  0  0  0  0
  -18.0295  -26.0054   22.8990 H   0  0  0  0  0  0
  -19.7926  -30.7247   24.2297 H   0  0  0  0  0  0
  -17.5008  -31.6264   24.5164 H   0  0  0  0  0  0
  -15.5344  -30.2995   23.7639 H   0  0  0  0  0  0
  -15.8659  -28.0829   22.7052 H   0  0  0  0  0  0
  -24.5920  -30.7038   25.7819 H   0  0  0  0  0  0
  -24.8903  -32.2867   26.4902 H   0  0  0  0  0  0
  -25.8087  -30.8907   27.0238 H   0  0  0  0  0  0
  -26.2835  -29.6811   24.1146 H   0  0  0  0  0  0
  -27.4034  -29.7263   25.4575 H   0  0  0  0  0  0
  -27.8688  -30.4348   23.9274 H   0  0  0  0  0  0
  -27.2657  -33.3610   26.2089 H   0  0  0  0  0  0
  -28.3835  -32.6902   25.0299 H   0  0  0  0  0  0
  -28.0729  -31.8430   26.5376 H   0  0  0  0  0  0
  -28.2597  -38.0113   24.7519 H   0  0  0  0  0  0
  -28.1085  -36.2647   24.6255 H   0  0  0  0  0  0
  -27.2312  -37.1425   25.8863 H   0  0  0  0  0  0
  -20.9305  -29.8754   21.6947 H   0  0  0  0  0  0
  -26.0179  -38.2876   24.1427 H   0  0  0  0  0  0
  -27.5783  -18.0355   22.5555 H   0  0  0  0  0  0
  -31.4829  -18.2835   20.7408 H   0  0  0  0  0  0
  -27.2889  -20.4510   22.2827 H   0  0  0  0  0  0
  -31.1971  -20.7027   20.4433 H   0  0  0  0  0  0
  -30.4926  -16.6778   23.8745 H   0  0  0  0  0  0
  -31.7415  -16.4338   22.6612 H   0  0  0  0  0  0
  -30.7677  -15.0756   23.2316 H   0  0  0  0  0  0
  -28.5112  -16.7803   19.4873 H   0  0  0  0  0  0
  -29.3141  -15.5350   18.5607 H   0  0  0  0  0  0
  -30.2095  -16.9661   19.0241 H   0  0  0  0  0  0
  -30.4533  -25.0743   20.1514 H   0  0  0  0  0  0
  -29.6538  -24.7849   21.6611 H   0  0  0  0  0  0
  -30.8281  -22.8211   20.4982 H   0  0  0  0  0  0
  -29.5634  -22.8093   19.2939 H   0  0  0  0  0  0
  -27.4519  -24.8535   20.5053 H   0  0  0  0  0  0
  -28.2406  -25.0032   18.9382 H   0  0  0  0  0  0
  -28.7459  -16.0813   22.2523 H   0  0  0  0  0  0
  -28.0606  -22.5270   21.4973 H   0  0  0  0  0  0
  1 25  1  0  0  0
  1 30  2  0  0  0
  1 84  1  0  0  0
  2  3  1  0  0  0
  2 25  1  0  0  0
  2 85  1  0  0  0
  2 86  1  0  0  0
  3  4  1  0  0  0
  3 87  1  0  0  0
  3 88  1  0  0  0
  4  5  1  0  0  0
  4 89  1  0  0  0
  4 90  1  0  0  0
  5  6  1  0  0  0
  5 26  1  0  0  0
  5 91  1  0  0  0
  6 25  1  0  0  0
  6 92  1  0  0  0
  6 93  1  0  0  0
  7  8  2  0  0  0
  7 26  1  0  0  0
  7 29  1  0  0  0
  8  9  1  0  0  0
  8 22  1  0  0  0
  9 10  1  0  0  0
  9 27  2  0  0  0
 10 11  2  0  0  0
 10 15  1  0  0  0
 11 12  1  0  0  0
 11 94  1  0  0  0
 12 13  2  0  0  0
 12 95  1  0  0  0
 13 14  1  0  0  0
 13 31  1  0  0  0
 14 15  2  0  0  0
 14 96  1  0  0  0
 15 97  1  0  0  0
 16 17  2  0  0  0
 16 21  1  0  0  0
 16 31  1  0  0  0
 17 18  1  0  0  0
 17 98  1  0  0  0
 18 19  2  0  0  0
 18 99  1  0  0  0
 19 20  1  0  0  0
 19 24  1  0  0  0
 20 21  2  0  0  0
 20100  1  0  0  0
 21 23  1  0  0  0
 22 28  1  0  0  0
 22 32  2  0  0  0
 26 27  1  0  0  0
 28101  1  0  0  0
 28102  1  0  0  0
 29103  1  0  0  0
 29104  1  0  0  0
 33 34  1  0  0  0
 33 66  1  0  0  0
 33 70  2  0  0  0
 34 36  1  0  0  0
 34 59  1  0  0  0
 34105  1  0  0  0
 35 44  2  0  0  0
 35 45  1  0  0  0
 35 68  1  0  0  0
 36 56  1  0  0  0
 36106  1  0  0  0
 37 39  1  0  0  0
 37 47  1  0  0  0
 37 66  1  0  0  0
 37107  1  0  0  0
 38 43  2  0  0  0
 38 46  1  0  0  0
 38 47  1  0  0  0
 39 64  1  0  0  0
 39 67  2  0  0  0
 40 52  1  0  0  0
 40 53  2  0  0  0
 40 58  1  0  0  0
 41108  1  0  0  0
 41109  1  0  0  0
 41110  1  0  0  0
 41 48  1  0  0  0
 42 43  1  0  0  0
 42 66  1  0  0  0
 42111  1  0  0  0
 42112  1  0  0  0
 43 44  1  0  0  0
 44113  1  0  0  0
 45 46  2  0  0  0
 45114  1  0  0  0
 46115  1  0  0  0
 47116  1  0  0  0
 47117  1  0  0  0
 48 56  1  0  0  0
 48 65  1  0  0  0
 48118  1  0  0  0
 49 50  1  0  0  0
 49 53  1  0  0  0
 49 64  1  0  0  0
 49119  1  0  0  0
 50 51  1  0  0  0
 50120  1  0  0  0
 50121  1  0  0  0
 51 52  1  0  0  0
 51122  1  0  0  0
 51123  1  0  0  0
 52124  1  0  0  0
 52125  1  0  0  0
 53 54  1  0  0  0
 54 55  2  0  0  0
 54126  1  0  0  0
 55 57  1  0  0  0
 55127  1  0  0  0
 56 69  2  0  0  0
 57 58  2  0  0  0
 57128  1  0  0  0
 58129  1  0  0  0
 59 60  1  0  0  0
 59 61  1  0  0  0
 59 62  1  0  0  0
 60130  1  0  0  0
 60131  1  0  0  0
 60132  1  0  0  0
 61133  1  0  0  0
 61134  1  0  0  0
 61135  1  0  0  0
 62136  1  0  0  0
 62137  1  0  0  0
 62138  1  0  0  0
 63 65  1  0  0  0
 63139  1  0  0  0
 63140  1  0  0  0
 63141  1  0  0  0
 64142  1  0  0  0
 65143  1  0  0  0
 68 81  1  0  0  0
 71 73  2  0  0  0
 71 75  1  0  0  0
 71144  1  0  0  0
 72 74  1  0  0  0
 72 75  2  0  0  0
 72145  1  0  0  0
 73 76  1  0  0  0
 73146  1  0  0  0
 74 76  2  0  0  0
 74147  1  0  0  0
 75 82  1  0  0  0
 76 83  1  0  0  0
 77148  1  0  0  0
 77149  1  0  0  0
 77150  1  0  0  0
 77 82  1  0  0  0
 78 84  1  0  0  0
 78151  1  0  0  0
 78152  1  0  0  0
 78153  1  0  0  0
 79 80  1  0  0  0
 79 81  1  0  0  0
 79154  1  0  0  0
 79155  1  0  0  0
 80 83  1  0  0  0
 80156  1  0  0  0
 80157  1  0  0  0
 81158  1  0  0  0
 81159  1  0  0  0
 82 84  1  0  0  0
 82160  1  0  0  0
 83161  1  0  0  0
M  ISO  4   1 100  68 101  81 101  84 100
M  END
> <chiral flag>
0

> <version>
0

> <s_m_source_file>
/data/baiqing/PycharmProjects/Reinvent-master-3.2/result/LINK_invent/BTK/process_docking_weight1_custom_product_contain_oxygen_bond_distance_aromatic_linkinvent_7_9_3/rearranged_h_0100.sdf

> <i_m_source_file_index>
15

> <r_mmod_Potential_Energy-OPLS-2005>
131.362457275391

> <r_mmod_Stretch_Energy-OPLS-2005>
44.2088775634766

> <r_mmod_Bend_Energy-OPLS-2005>
114.753684997559

> <r_mmod_Torsional_Energy-OPLS-2005>
289.759246826172

> <r_mmod_Improper_Torsional_Energy-OPLS-2005>
12.2547874450684

> <r_mmod_Van_der_Waal_Energy-OPLS-2005>
152.567977905273

> <r_mmod_Electrostatic_Energy-OPLS-2005>
-302.284851074219

> <r_mmod_Solvation_Energy-OPLS-2005>
-200.176635742188

> <b_mmod_Minimization_Converged-OPLS-2005>
0

> <r_mmod_RMS_Derivative-OPLS-2005>
1.26275086402893

$$$$
15
                    3D
 Structure written by MMmdl.
167176  0  0  1  0            999 V2000
  -30.5759  -14.7281   20.4799 C   0  0  0  0  0  0
  -30.4450  -12.4483   19.4518 C   0  0  0  0  0  0
  -29.5069  -12.4948   18.2243 C   0  0  0  0  0  0
  -28.0332  -12.3143   18.6452 C   0  0  0  0  0  0
  -27.6397  -13.2139   19.8460 C   0  0  2  0  0  0
  -28.6871  -13.1291   20.9757 C   0  0  0  0  0  0
  -25.2510  -13.8150   20.5651 C   0  0  0  0  0  0
  -24.1794  -13.0420   20.9195 C   0  0  0  0  0  0
  -24.6368  -11.6892   20.8759 C   0  0  0  0  0  0
  -23.9043  -10.4281   21.0419 C   0  0  0  0  0  0
  -24.3607   -9.4195   21.9195 C   0  0  0  0  0  0
  -23.6285   -8.2236   22.0759 C   0  0  0  0  0  0
  -22.4271   -8.0272   21.3547 C   0  0  0  0  0  0
  -21.9902   -9.0240   20.4652 C   0  0  0  0  0  0
  -22.7223  -10.2119   20.3059 C   0  0  0  0  0  0
  -21.6846   -6.0729   22.5277 C   0  0  0  0  0  0
  -21.4015   -6.5634   23.8212 C   0  0  0  0  0  0
  -21.3661   -5.6790   24.9174 C   0  0  0  0  0  0
  -21.6041   -4.3053   24.7229 C   0  0  0  0  0  0
  -21.8822   -3.8141   23.4350 C   0  0  0  0  0  0
  -21.9194   -4.6958   22.3403 C   0  0  0  0  0  0
  -22.7818  -13.5215   21.1867 C   0  0  0  0  0  0
  -22.1659   -4.2141   21.0983 F   0  0  0  0  0  0
  -21.5631   -3.4539   25.7745 F   0  0  0  0  0  0
  -29.9839  -13.4923   20.3887 N   0  0  0  0  0  0
  -26.2917  -12.9329   20.3257 N   0  0  0  0  0  0
  -25.9289  -11.6485   20.5754 N   0  0  0  0  0  0
  -22.0472  -12.8201   22.0423 N   0  0  0  0  0  0
  -25.4178  -15.1879   20.3990 N   0  0  0  0  0  0
  -31.7840  -14.8670   20.2668 O   0  0  0  0  0  0
  -21.6632   -6.8868   21.4238 O   0  0  0  0  0  0
  -22.3506  -14.5530   20.6719 O   0  0  0  0  0  0
  -24.6309  -31.8536   23.1979 C   0  0  0  0  0  0
  -25.9143  -32.4743   23.8303 C   0  0  1  0  0  0
  -27.2286  -27.2710   20.1387 C   0  0  0  0  0  0
  -25.5938  -33.8545   24.2218 N   0  0  0  0  0  0
  -23.4267  -30.4749   21.5421 C   0  0  2  0  0  0
  -24.8758  -28.9164   20.1164 C   0  0  0  0  0  0
  -22.7503  -29.4595   22.4931 C   0  0  0  0  0  0
  -18.0292  -28.1402   22.8460 C   0  0  0  0  0  0
  -24.1482  -36.7274   23.2641 C   0  0  0  0  0  0
  -25.9713  -30.7721   21.3729 C   0  0  0  0  0  0
  -26.0475  -29.3935   20.7191 C   0  0  0  0  0  0
  -27.2288  -28.5849   20.7149 C   0  0  0  0  0  0
  -26.0364  -26.8547   19.5093 C   0  0  0  0  0  0
  -24.8755  -27.6551   19.4973 C   0  0  0  0  0  0
  -23.6442  -29.8042   20.1598 C   0  0  0  0  0  0
  -25.4118  -36.3046   24.0294 C   0  0  1  0  0  0
  -20.5889  -28.3707   23.1269 C   0  0  2  0  0  0
  -20.6774  -26.9423   22.5417 C   0  0  0  0  0  0
  -19.5761  -26.6388   21.5203 C   0  0  0  0  0  0
  -18.1928  -26.7942   22.1598 C   0  0  0  0  0  0
  -19.1547  -28.8878   23.2841 C   0  0  0  0  0  0
  -18.9478  -30.1480   23.8845 C   0  0  0  0  0  0
  -17.6476  -30.6588   24.0589 C   0  0  0  0  0  0
  -25.9069  -34.9418   23.5060 C   0  0  0  0  0  0
  -16.5366  -29.9094   23.6341 C   0  0  0  0  0  0
  -16.7280  -28.6533   23.0322 C   0  0  0  0  0  0
  -26.4504  -31.6573   25.0693 C   0  0  0  0  0  0
  -25.3730  -31.3722   26.1426 C   0  0  0  0  0  0
  -27.0375  -30.2999   24.6172 C   0  0  0  0  0  0
  -27.6053  -32.4326   25.7457 C   0  0  0  0  0  0
  -27.5551  -37.1783   24.8459 C   0  0  0  0  0  0
  -21.4216  -29.3041   22.3664 N   0  0  0  0  0  0
  -26.4276  -37.3748   23.9387 N   0  0  0  0  0  0
  -24.6952  -31.0503   22.0948 N   0  0  0  0  0  0
  -23.4210  -28.8160   23.3047 O   0  0  0  0  0  0
  -28.3384  -26.4000   20.1402 O   0  0  0  0  0  0
  -26.5655  -34.8877   22.4637 O   0  0  0  0  0  0
  -23.5467  -32.1369   23.7284 O   0  0  0  0  0  0
  -29.0822  -19.6386   22.3223 C   0  0  0  0  0  0
  -29.5498  -17.2301   22.4168 C   0  0  0  0  0  0
  -29.5529  -18.4010   20.2847 C   0  0  0  0  0  0
  -29.2142  -18.4430   23.0691 C   0  0  0  0  0  0
  -29.2660  -19.6791   20.9203 C   0  0  0  0  0  0
  -29.6993  -17.1537   21.0155 C   0  0  0  0  0  0
  -29.7328  -17.7377   25.3767 C   0  0  0  0  0  0
  -28.9698  -18.4493   24.5296 C   0  0  0  0  0  0
  -31.2965  -23.3090   20.6494 C   0  0  0  0  0  0
  -30.4073  -24.0843   19.6661 C   0  0  0  0  0  0
  -30.3249  -22.6311   21.6177 C   0  0  0  0  0  0
  -28.9451  -23.7216   20.0100 C   0  0  2  0  0  0
  -27.7760  -19.2424   25.0404 C   0  0  0  0  0  0
  -29.0775  -21.0593   20.1274 C   0  0  0  0  0  0
  -28.1874  -25.0021   20.6766 C   0  0  0  0  0  0
  -29.7082  -15.8046   20.4149 N   0  0  0  0  0  0
  -29.0741  -22.4267   20.8514 N   0  3  1  0  0  0
  -31.4799  -12.6067   19.1422 H   0  0  0  0  0  0
  -30.4159  -11.4664   19.9289 H   0  0  0  0  0  0
  -29.7876  -11.7226   17.5059 H   0  0  0  0  0  0
  -29.6243  -13.4504   17.7090 H   0  0  0  0  0  0
  -27.8938  -11.2653   18.9113 H   0  0  0  0  0  0
  -27.3720  -12.5017   17.7986 H   0  0  0  0  0  0
  -27.6336  -14.2348   19.4647 H   0  0  0  0  0  0
  -28.7234  -12.1231   21.3960 H   0  0  0  0  0  0
  -28.4266  -13.7980   21.7982 H   0  0  0  0  0  0
  -25.2753   -9.5672   22.4767 H   0  0  0  0  0  0
  -23.9999   -7.4618   22.7471 H   0  0  0  0  0  0
  -21.0839   -8.8758   19.8943 H   0  0  0  0  0  0
  -22.3694  -10.9663   19.6168 H   0  0  0  0  0  0
  -21.2005   -7.6142   23.9713 H   0  0  0  0  0  0
  -21.1480   -6.0520   25.9079 H   0  0  0  0  0  0
  -22.0601   -2.7603   23.2854 H   0  0  0  0  0  0
  -22.4100  -11.9853   22.4795 H   0  0  0  0  0  0
  -21.1089  -13.1222   22.2659 H   0  0  0  0  0  0
  -24.6406  -15.8323   20.4918 H   0  0  0  0  0  0
  -26.2496  -15.6288   20.0323 H   0  0  0  0  0  0
  -26.7235  -32.5397   23.1071 H   0  0  0  0  0  0
  -25.0078  -33.9701   25.0358 H   0  0  0  0  0  0
  -22.7183  -31.2937   21.3947 H   0  0  0  0  0  0
  -23.3718  -35.9635   23.3332 H   0  0  0  0  0  0
  -24.3612  -36.8903   22.2062 H   0  0  0  0  0  0
  -23.7250  -37.6473   23.6694 H   0  0  0  0  0  0
  -26.1004  -31.5318   20.6020 H   0  0  0  0  0  0
  -26.8540  -30.8292   21.9984 H   0  0  0  0  0  0
  -28.1292  -28.9504   21.1879 H   0  0  0  0  0  0
  -25.9947  -25.8895   19.0239 H   0  0  0  0  0  0
  -23.9833  -27.2872   19.0081 H   0  0  0  0  0  0
  -23.7703  -30.5803   19.4040 H   0  0  0  0  0  0
  -22.7599  -29.2403   19.8544 H   0  0  0  0  0  0
  -25.1303  -36.1883   25.0777 H   0  0  0  0  0  0
  -20.9941  -28.3299   24.1415 H   0  0  0  0  0  0
  -20.5696  -26.2302   23.3625 H   0  0  0  0  0  0
  -21.6634  -26.7479   22.1202 H   0  0  0  0  0  0
  -19.6936  -25.6298   21.1247 H   0  0  0  0  0  0
  -19.6701  -27.3183   20.6722 H   0  0  0  0  0  0
  -17.4190  -26.6673   21.4010 H   0  0  0  0  0  0
  -18.0360  -26.0097   22.9012 H   0  0  0  0  0  0
  -19.7961  -30.7320   24.2148 H   0  0  0  0  0  0
  -17.5043  -31.6261   24.5217 H   0  0  0  0  0  0
  -15.5371  -30.2997   23.7703 H   0  0  0  0  0  0
  -15.8673  -28.0895   22.6989 H   0  0  0  0  0  0
  -24.5912  -30.7055   25.7756 H   0  0  0  0  0  0
  -24.8912  -32.2898   26.4817 H   0  0  0  0  0  0
  -25.8060  -30.8929   27.0217 H   0  0  0  0  0  0
  -26.2969  -29.6714   24.1218 H   0  0  0  0  0  0
  -27.4119  -29.7275   25.4667 H   0  0  0  0  0  0
  -27.8797  -30.4294   23.9370 H   0  0  0  0  0  0
  -27.2675  -33.3657   26.1981 H   0  0  0  0  0  0
  -28.3888  -32.6858   25.0294 H   0  0  0  0  0  0
  -28.0700  -31.8489   26.5421 H   0  0  0  0  0  0
  -28.2560  -38.0081   24.7509 H   0  0  0  0  0  0
  -28.1053  -36.2613   24.6301 H   0  0  0  0  0  0
  -27.2298  -37.1451   25.8872 H   0  0  0  0  0  0
  -20.9416  -29.8751   21.6845 H   0  0  0  0  0  0
  -26.0137  -38.2793   24.1451 H   0  0  0  0  0  0
  -28.8281  -20.5467   22.8474 H   0  0  0  0  0  0
  -29.6026  -16.3222   23.0012 H   0  0  0  0  0  0
  -29.6218  -18.3752   19.2066 H   0  0  0  0  0  0
  -30.5759  -17.1560   25.0329 H   0  0  0  0  0  0
  -29.5305  -17.7278   26.4395 H   0  0  0  0  0  0
  -32.0121  -23.9470   21.1701 H   0  0  0  0  0  0
  -31.8742  -22.5488   20.1172 H   0  0  0  0  0  0
  -30.6392  -23.7823   18.6453 H   0  0  0  0  0  0
  -30.5905  -25.1567   19.7255 H   0  0  0  0  0  0
  -30.1168  -23.3000   22.4547 H   0  0  0  0  0  0
  -30.7464  -21.7229   22.0468 H   0  0  0  0  0  0
  -28.4118  -23.4844   19.0886 H   0  0  0  0  0  0
  -26.8594  -18.9121   24.5497 H   0  0  0  0  0  0
  -27.8959  -20.3105   24.8613 H   0  0  0  0  0  0
  -27.6366  -19.1071   26.1141 H   0  0  0  0  0  0
  -28.1366  -20.9831   19.5811 H   0  0  0  0  0  0
  -29.8529  -21.0848   19.3618 H   0  0  0  0  0  0
  -27.1295  -24.7537   20.7729 H   0  0  0  0  0  0
  -28.5345  -25.0810   21.7066 H   0  0  0  0  0  0
  -28.7832  -15.4881   20.1727 H   0  0  0  0  0  0
  -28.2964  -22.3822   21.4958 H   0  0  0  0  0  0
  1 25  1  0  0  0
  1 30  2  0  0  0
  1 86  1  0  0  0
  2  3  1  0  0  0
  2 25  1  0  0  0
  2 88  1  0  0  0
  2 89  1  0  0  0
  3  4  1  0  0  0
  3 90  1  0  0  0
  3 91  1  0  0  0
  4  5  1  0  0  0
  4 92  1  0  0  0
  4 93  1  0  0  0
  5  6  1  0  0  0
  5 26  1  0  0  0
  5 94  1  0  0  0
  6 25  1  0  0  0
  6 95  1  0  0  0
  6 96  1  0  0  0
  7  8  2  0  0  0
  7 26  1  0  0  0
  7 29  1  0  0  0
  8  9  1  0  0  0
  8 22  1  0  0  0
  9 10  1  0  0  0
  9 27  2  0  0  0
 10 11  2  0  0  0
 10 15  1  0  0  0
 11 12  1  0  0  0
 11 97  1  0  0  0
 12 13  2  0  0  0
 12 98  1  0  0  0
 13 14  1  0  0  0
 13 31  1  0  0  0
 14 15  2  0  0  0
 14 99  1  0  0  0
 15100  1  0  0  0
 16 17  2  0  0  0
 16 21  1  0  0  0
 16 31  1  0  0  0
 17 18  1  0  0  0
 17101  1  0  0  0
 18 19  2  0  0  0
 18102  1  0  0  0
 19 20  1  0  0  0
 19 24  1  0  0  0
 20 21  2  0  0  0
 20103  1  0  0  0
 21 23  1  0  0  0
 22 28  1  0  0  0
 22 32  2  0  0  0
 26 27  1  0  0  0
 28104  1  0  0  0
 28105  1  0  0  0
 29106  1  0  0  0
 29107  1  0  0  0
 33 34  1  0  0  0
 33 66  1  0  0  0
 33 70  2  0  0  0
 34 36  1  0  0  0
 34 59  1  0  0  0
 34108  1  0  0  0
 35 44  2  0  0  0
 35 45  1  0  0  0
 35 68  1  0  0  0
 36 56  1  0  0  0
 36109  1  0  0  0
 37 39  1  0  0  0
 37 47  1  0  0  0
 37 66  1  0  0  0
 37110  1  0  0  0
 38 43  2  0  0  0
 38 46  1  0  0  0
 38 47  1  0  0  0
 39 64  1  0  0  0
 39 67  2  0  0  0
 40 52  1  0  0  0
 40 53  2  0  0  0
 40 58  1  0  0  0
 41111  1  0  0  0
 41112  1  0  0  0
 41113  1  0  0  0
 41 48  1  0  0  0
 42 43  1  0  0  0
 42 66  1  0  0  0
 42114  1  0  0  0
 42115  1  0  0  0
 43 44  1  0  0  0
 44116  1  0  0  0
 45 46  2  0  0  0
 45117  1  0  0  0
 46118  1  0  0  0
 47119  1  0  0  0
 47120  1  0  0  0
 48 56  1  0  0  0
 48 65  1  0  0  0
 48121  1  0  0  0
 49 50  1  0  0  0
 49 53  1  0  0  0
 49 64  1  0  0  0
 49122  1  0  0  0
 50 51  1  0  0  0
 50123  1  0  0  0
 50124  1  0  0  0
 51 52  1  0  0  0
 51125  1  0  0  0
 51126  1  0  0  0
 52127  1  0  0  0
 52128  1  0  0  0
 53 54  1  0  0  0
 54 55  2  0  0  0
 54129  1  0  0  0
 55 57  1  0  0  0
 55130  1  0  0  0
 56 69  2  0  0  0
 57 58  2  0  0  0
 57131  1  0  0  0
 58132  1  0  0  0
 59 60  1  0  0  0
 59 61  1  0  0  0
 59 62  1  0  0  0
 60133  1  0  0  0
 60134  1  0  0  0
 60135  1  0  0  0
 61136  1  0  0  0
 61137  1  0  0  0
 61138  1  0  0  0
 62139  1  0  0  0
 62140  1  0  0  0
 62141  1  0  0  0
 63 65  1  0  0  0
 63142  1  0  0  0
 63143  1  0  0  0
 63144  1  0  0  0
 64145  1  0  0  0
 65146  1  0  0  0
 68 85  1  0  0  0
 71 74  2  0  0  0
 71 75  1  0  0  0
 71147  1  0  0  0
 72 74  1  0  0  0
 72 76  2  0  0  0
 72148  1  0  0  0
 73 75  2  0  0  0
 73 76  1  0  0  0
 73149  1  0  0  0
 74 78  1  0  0  0
 75 84  1  0  0  0
 76 86  1  0  0  0
 77 78  2  0  0  0
 77150  1  0  0  0
 77151  1  0  0  0
 78 83  1  0  0  0
 79 80  1  0  0  0
 79 81  1  0  0  0
 79152  1  0  0  0
 79153  1  0  0  0
 80 82  1  0  0  0
 80154  1  0  0  0
 80155  1  0  0  0
 81 87  1  0  0  0
 81156  1  0  0  0
 81157  1  0  0  0
 82 85  1  0  0  0
 82 87  1  0  0  0
 82158  1  0  0  0
 83159  1  0  0  0
 83160  1  0  0  0
 83161  1  0  0  0
 84162  1  0  0  0
 84163  1  0  0  0
 84 87  1  0  0  0
 85164  1  0  0  0
 85165  1  0  0  0
 86166  1  0  0  0
 87167  1  0  0  0
M  CHG  1  87   1
M  ISO  4   1 100  68 101  85 101  86 100
M  END
> <chiral flag>
0

> <version>
0

> <s_m_source_file>
/data/baiqing/PycharmProjects/Reinvent-master-3.2/result/LINK_invent/BTK/process_docking_weight1_custom_product_contain_oxygen_bond_distance_aromatic_linkinvent_7_9_3/rearranged_h_0100.sdf

> <i_m_source_file_index>
16

> <r_mmod_Potential_Energy-OPLS-2005>
212.211730957031

> <r_mmod_Stretch_Energy-OPLS-2005>
121.478019714355

> <r_mmod_Bend_Energy-OPLS-2005>
183.258026123047

> <r_mmod_Torsional_Energy-OPLS-2005>
357.346130371094

> <r_mmod_Improper_Torsional_Energy-OPLS-2005>
14.7506227493286

> <r_mmod_Van_der_Waal_Energy-OPLS-2005>
131.471267700195

> <r_mmod_Electrostatic_Energy-OPLS-2005>
-245.886856079102

> <r_mmod_Solvation_Energy-OPLS-2005>
-431.219512939453

> <b_mmod_Minimization_Converged-OPLS-2005>
0

> <r_mmod_RMS_Derivative-OPLS-2005>
2.48583078384399

$$$$
16
                    3D
 Structure written by MMmdl.
161170  0  0  1  0            999 V2000
  -30.6886  -14.4248   20.5575 C   0  0  0  0  0  0
  -30.4091  -12.2669   19.4019 C   0  0  0  0  0  0
  -29.4736  -12.4683   18.1934 C   0  0  0  0  0  0
  -27.9972  -12.3217   18.6166 C   0  0  0  0  0  0
  -27.6558  -13.1845   19.8624 C   0  0  2  0  0  0
  -28.6908  -12.9495   20.9859 C   0  0  0  0  0  0
  -25.2619  -13.8123   20.5716 C   0  0  0  0  0  0
  -24.1848  -13.0501   20.9143 C   0  0  0  0  0  0
  -24.6320  -11.6915   20.8685 C   0  0  0  0  0  0
  -23.8980  -10.4334   21.0391 C   0  0  0  0  0  0
  -24.3545   -9.4260   21.9183 C   0  0  0  0  0  0
  -23.6267   -8.2247   22.0733 C   0  0  0  0  0  0
  -22.4261   -8.0274   21.3529 C   0  0  0  0  0  0
  -21.9864   -9.0212   20.4632 C   0  0  0  0  0  0
  -22.7129  -10.2135   20.3062 C   0  0  0  0  0  0
  -21.6845   -6.0726   22.5271 C   0  0  0  0  0  0
  -21.4006   -6.5633   23.8215 C   0  0  0  0  0  0
  -21.3663   -5.6783   24.9163 C   0  0  0  0  0  0
  -21.6054   -4.3051   24.7219 C   0  0  0  0  0  0
  -21.8820   -3.8150   23.4342 C   0  0  0  0  0  0
  -21.9194   -4.6950   22.3399 C   0  0  0  0  0  0
  -22.7883  -13.5347   21.1876 C   0  0  0  0  0  0
  -22.1669   -4.2145   21.0969 F   0  0  0  0  0  0
  -21.5632   -3.4543   25.7729 F   0  0  0  0  0  0
  -30.0313  -13.2430   20.4354 N   0  0  0  0  0  0
  -26.3001  -12.9220   20.3331 N   0  0  0  0  0  0
  -25.9241  -11.6406   20.5715 N   0  0  0  0  0  0
  -22.0509  -12.8275   22.0358 N   0  0  0  0  0  0
  -25.4595  -15.1791   20.4073 N   0  0  0  0  0  0
  -31.7890  -14.6474   20.0452 O   0  0  0  0  0  0
  -21.6646   -6.8853   21.4244 O   0  0  0  0  0  0
  -22.3530  -14.5634   20.6748 O   0  0  0  0  0  0
  -24.6137  -31.8624   23.2109 C   0  0  0  0  0  0
  -25.8973  -32.4822   23.8419 C   0  0  1  0  0  0
  -27.2305  -27.4031   20.0999 C   0  0  0  0  0  0
  -25.5850  -33.8626   24.2326 N   0  0  0  0  0  0
  -23.4106  -30.4763   21.5524 C   0  0  2  0  0  0
  -24.8534  -28.9300   20.1366 C   0  0  0  0  0  0
  -22.7395  -29.4571   22.5050 C   0  0  0  0  0  0
  -18.0150  -28.1359   22.8118 C   0  0  0  0  0  0
  -24.1492  -36.7326   23.2641 C   0  0  0  0  0  0
  -25.9436  -30.8118   21.3736 C   0  0  0  0  0  0
  -26.0152  -29.4412   20.7283 C   0  0  0  0  0  0
  -27.2118  -28.6814   20.7048 C   0  0  0  0  0  0
  -26.0537  -26.9204   19.4864 C   0  0  0  0  0  0
  -24.8594  -27.6625   19.5305 C   0  0  0  0  0  0
  -23.6239  -29.8027   20.1739 C   0  0  0  0  0  0
  -25.4097  -36.3134   24.0355 C   0  0  1  0  0  0
  -20.5718  -28.3573   23.1241 C   0  0  2  0  0  0
  -20.6560  -26.9238   22.5562 C   0  0  0  0  0  0
  -19.5775  -26.6329   21.5068 C   0  0  0  0  0  0
  -18.1653  -26.8066   22.0911 C   0  0  0  0  0  0
  -19.1400  -28.8769   23.2712 C   0  0  0  0  0  0
  -18.9316  -30.1314   23.8885 C   0  0  0  0  0  0
  -17.6293  -30.6392   24.0634 C   0  0  0  0  0  0
  -25.8927  -34.9491   23.5113 C   0  0  0  0  0  0
  -16.5280  -29.8872   23.6284 C   0  0  0  0  0  0
  -16.7209  -28.6490   22.9966 C   0  0  0  0  0  0
  -26.4438  -31.6607   25.0752 C   0  0  0  0  0  0
  -25.3746  -31.3695   26.1520 C   0  0  0  0  0  0
  -27.0303  -30.3095   24.6110 C   0  0  0  0  0  0
  -27.6059  -32.4330   25.7441 C   0  0  0  0  0  0
  -27.5591  -37.1826   24.8479 C   0  0  0  0  0  0
  -21.4147  -29.2759   22.3641 N   0  0  0  0  0  0
  -26.4288  -37.3844   23.9405 N   0  0  0  0  0  0
  -24.6745  -31.0680   22.1011 N   0  0  0  0  0  0
  -23.4170  -28.8211   23.3223 O   0  0  0  0  0  0
  -28.4156  -26.7093   19.9560 O   0  0  0  0  0  0
  -26.5626  -34.8939   22.4748 O   0  0  0  0  0  0
  -23.5272  -32.1347   23.7449 O   0  0  0  0  0  0
  -28.6185  -18.7458   21.6521 C   0  0  0  0  0  0
  -29.1617  -17.4782   21.9314 C   0  0  0  0  0  0
  -29.2185  -18.4800   19.3218 C   0  0  0  0  0  0
  -28.6083  -19.2608   20.3354 C   0  0  0  0  0  0
  -29.7175  -16.6813   20.9182 C   0  0  0  0  0  0
  -29.7717  -17.2045   19.5995 C   0  0  0  0  0  0
  -26.7935  -21.7430   21.8506 C   0  0  0  0  0  0
  -25.9356  -22.9949   21.9392 C   0  0  0  0  0  0
  -26.5529  -24.3134   21.4515 C   0  0  0  0  0  0
  -28.5944  -22.9046   20.6948 C   0  0  0  0  0  0
  -27.7781  -24.2322   20.5071 C   0  0  2  0  0  0
  -27.8483  -20.5531   19.9650 C   0  0  0  0  0  0
  -28.6810  -25.5065   20.6958 C   0  0  0  0  0  0
  -27.7759  -21.6927   20.9239 N   0  0  0  0  0  0
  -30.0473  -15.3444   21.2879 N   0  0  0  0  0  0
  -26.4233  -20.7743   22.5049 O   0  0  0  0  0  0
  -30.2839  -16.4831   18.5705 F   0  0  0  0  0  0
  -31.4559  -12.3502   19.1001 H   0  0  0  0  0  0
  -30.2859  -11.2599   19.8031 H   0  0  0  0  0  0
  -29.6961  -11.7303   17.4200 H   0  0  0  0  0  0
  -29.6253  -13.4504   17.7465 H   0  0  0  0  0  0
  -27.8197  -11.2646   18.8394 H   0  0  0  0  0  0
  -27.3278  -12.5648   17.7871 H   0  0  0  0  0  0
  -27.7102  -14.2265   19.5458 H   0  0  0  0  0  0
  -28.6603  -11.9084   21.3156 H   0  0  0  0  0  0
  -28.4351  -13.5456   21.8677 H   0  0  0  0  0  0
  -25.2693   -9.5744   22.4754 H   0  0  0  0  0  0
  -24.0007   -7.4634   22.7448 H   0  0  0  0  0  0
  -21.0805   -8.8714   19.8897 H   0  0  0  0  0  0
  -22.3600  -10.9665   19.6156 H   0  0  0  0  0  0
  -21.1995   -7.6148   23.9701 H   0  0  0  0  0  0
  -21.1485   -6.0525   25.9067 H   0  0  0  0  0  0
  -22.0594   -2.7617   23.2841 H   0  0  0  0  0  0
  -22.4075  -11.9885   22.4737 H   0  0  0  0  0  0
  -21.1115  -13.1267   22.2615 H   0  0  0  0  0  0
  -24.7365  -15.8775   20.5447 H   0  0  0  0  0  0
  -26.3451  -15.5832   20.1350 H   0  0  0  0  0  0
  -26.7018  -32.5490   23.1130 H   0  0  0  0  0  0
  -25.0026  -33.9762   25.0486 H   0  0  0  0  0  0
  -22.6926  -31.2817   21.4009 H   0  0  0  0  0  0
  -23.3761  -35.9664   23.3303 H   0  0  0  0  0  0
  -24.3558  -36.8946   22.2061 H   0  0  0  0  0  0
  -23.7194  -37.6506   23.6622 H   0  0  0  0  0  0
  -26.0619  -31.5697   20.5984 H   0  0  0  0  0  0
  -26.8302  -30.8620   21.9998 H   0  0  0  0  0  0
  -28.1224  -29.0738   21.1399 H   0  0  0  0  0  0
  -26.0476  -25.9630   18.9911 H   0  0  0  0  0  0
  -23.9611  -27.2736   19.0676 H   0  0  0  0  0  0
  -23.7648  -30.5736   19.4224 H   0  0  0  0  0  0
  -22.7534  -29.2305   19.8438 H   0  0  0  0  0  0
  -25.1242  -36.2044   25.0862 H   0  0  0  0  0  0
  -20.9676  -28.3245   24.1390 H   0  0  0  0  0  0
  -20.4866  -26.2339   23.3821 H   0  0  0  0  0  0
  -21.6667  -26.6922   22.2103 H   0  0  0  0  0  0
  -19.6895  -25.6310   21.1003 H   0  0  0  0  0  0
  -19.7062  -27.3020   20.6499 H   0  0  0  0  0  0
  -17.4391  -26.7534   21.2710 H   0  0  0  0  0  0
  -17.9329  -25.9892   22.7825 H   0  0  0  0  0  0
  -19.7786  -30.7136   24.2281 H   0  0  0  0  0  0
  -17.4713  -31.5915   24.5597 H   0  0  0  0  0  0
  -15.5285  -30.2558   23.7763 H   0  0  0  0  0  0
  -15.8628  -28.0955   22.6394 H   0  0  0  0  0  0
  -24.5891  -30.7037   25.7868 H   0  0  0  0  0  0
  -24.8923  -32.2834   26.5032 H   0  0  0  0  0  0
  -25.8112  -30.8838   27.0239 H   0  0  0  0  0  0
  -26.2836  -29.6829   24.1211 H   0  0  0  0  0  0
  -27.4161  -29.7332   25.4496 H   0  0  0  0  0  0
  -27.8609  -30.4471   23.9191 H   0  0  0  0  0  0
  -27.2735  -33.3629   26.2061 H   0  0  0  0  0  0
  -28.3809  -32.6897   25.0203 H   0  0  0  0  0  0
  -28.0796  -31.8440   26.5303 H   0  0  0  0  0  0
  -28.2621  -38.0133   24.7529 H   0  0  0  0  0  0
  -28.1084  -36.2637   24.6280 H   0  0  0  0  0  0
  -27.2307  -37.1468   25.8902 H   0  0  0  0  0  0
  -20.9405  -29.8042   21.6527 H   0  0  0  0  0  0
  -26.0192  -38.2906   24.1505 H   0  0  0  0  0  0
  -28.1561  -19.2574   22.4717 H   0  0  0  0  0  0
  -29.1000  -17.1015   22.9427 H   0  0  0  0  0  0
  -29.2173  -18.8194   18.2924 H   0  0  0  0  0  0
  -25.5765  -23.1263   22.9609 H   0  0  0  0  0  0
  -25.0436  -22.7613   21.3456 H   0  0  0  0  0  0
  -26.7781  -24.9134   22.3347 H   0  0  0  0  0  0
  -25.7334  -24.8281   20.9427 H   0  0  0  0  0  0
  -29.2722  -22.9960   21.5438 H   0  0  0  0  0  0
  -29.2288  -22.7618   19.8216 H   0  0  0  0  0  0
  -27.4302  -24.2150   19.4731 H   0  0  0  0  0  0
  -26.8276  -20.2301   19.7655 H   0  0  0  0  0  0
  -28.1933  -20.9274   18.9966 H   0  0  0  0  0  0
  -29.7075  -25.2466   20.4080 H   0  0  0  0  0  0
  -28.7642  -25.7451   21.7564 H   0  0  0  0  0  0
  -29.3925  -14.9339   21.9349 H   0  0  0  0  0  0
  1 25  1  0  0  0
  1 30  2  0  0  0
  1 85  1  0  0  0
  2  3  1  0  0  0
  2 25  1  0  0  0
  2 88  1  0  0  0
  2 89  1  0  0  0
  3  4  1  0  0  0
  3 90  1  0  0  0
  3 91  1  0  0  0
  4  5  1  0  0  0
  4 92  1  0  0  0
  4 93  1  0  0  0
  5  6  1  0  0  0
  5 26  1  0  0  0
  5 94  1  0  0  0
  6 25  1  0  0  0
  6 95  1  0  0  0
  6 96  1  0  0  0
  7  8  2  0  0  0
  7 26  1  0  0  0
  7 29  1  0  0  0
  8  9  1  0  0  0
  8 22  1  0  0  0
  9 10  1  0  0  0
  9 27  2  0  0  0
 10 11  2  0  0  0
 10 15  1  0  0  0
 11 12  1  0  0  0
 11 97  1  0  0  0
 12 13  2  0  0  0
 12 98  1  0  0  0
 13 14  1  0  0  0
 13 31  1  0  0  0
 14 15  2  0  0  0
 14 99  1  0  0  0
 15100  1  0  0  0
 16 17  2  0  0  0
 16 21  1  0  0  0
 16 31  1  0  0  0
 17 18  1  0  0  0
 17101  1  0  0  0
 18 19  2  0  0  0
 18102  1  0  0  0
 19 20  1  0  0  0
 19 24  1  0  0  0
 20 21  2  0  0  0
 20103  1  0  0  0
 21 23  1  0  0  0
 22 28  1  0  0  0
 22 32  2  0  0  0
 26 27  1  0  0  0
 28104  1  0  0  0
 28105  1  0  0  0
 29106  1  0  0  0
 29107  1  0  0  0
 33 34  1  0  0  0
 33 66  1  0  0  0
 33 70  2  0  0  0
 34 36  1  0  0  0
 34 59  1  0  0  0
 34108  1  0  0  0
 35 44  2  0  0  0
 35 45  1  0  0  0
 35 68  1  0  0  0
 36 56  1  0  0  0
 36109  1  0  0  0
 37 39  1  0  0  0
 37 47  1  0  0  0
 37 66  1  0  0  0
 37110  1  0  0  0
 38 43  2  0  0  0
 38 46  1  0  0  0
 38 47  1  0  0  0
 39 64  1  0  0  0
 39 67  2  0  0  0
 40 52  1  0  0  0
 40 53  2  0  0  0
 40 58  1  0  0  0
 41111  1  0  0  0
 41112  1  0  0  0
 41113  1  0  0  0
 41 48  1  0  0  0
 42 43  1  0  0  0
 42 66  1  0  0  0
 42114  1  0  0  0
 42115  1  0  0  0
 43 44  1  0  0  0
 44116  1  0  0  0
 45 46  2  0  0  0
 45117  1  0  0  0
 46118  1  0  0  0
 47119  1  0  0  0
 47120  1  0  0  0
 48 56  1  0  0  0
 48 65  1  0  0  0
 48121  1  0  0  0
 49 50  1  0  0  0
 49 53  1  0  0  0
 49 64  1  0  0  0
 49122  1  0  0  0
 50 51  1  0  0  0
 50123  1  0  0  0
 50124  1  0  0  0
 51 52  1  0  0  0
 51125  1  0  0  0
 51126  1  0  0  0
 52127  1  0  0  0
 52128  1  0  0  0
 53 54  1  0  0  0
 54 55  2  0  0  0
 54129  1  0  0  0
 55 57  1  0  0  0
 55130  1  0  0  0
 56 69  2  0  0  0
 57 58  2  0  0  0
 57131  1  0  0  0
 58132  1  0  0  0
 59 60  1  0  0  0
 59 61  1  0  0  0
 59 62  1  0  0  0
 60133  1  0  0  0
 60134  1  0  0  0
 60135  1  0  0  0
 61136  1  0  0  0
 61137  1  0  0  0
 61138  1  0  0  0
 62139  1  0  0  0
 62140  1  0  0  0
 62141  1  0  0  0
 63 65  1  0  0  0
 63142  1  0  0  0
 63143  1  0  0  0
 63144  1  0  0  0
 64145  1  0  0  0
 65146  1  0  0  0
 68 83  1  0  0  0
 71 72  2  0  0  0
 71 74  1  0  0  0
 71147  1  0  0  0
 72 75  1  0  0  0
 72148  1  0  0  0
 73 74  2  0  0  0
 73 76  1  0  0  0
 73149  1  0  0  0
 74 82  1  0  0  0
 75 76  2  0  0  0
 75 85  1  0  0  0
 76 87  1  0  0  0
 77 78  1  0  0  0
 77 84  1  0  0  0
 77 86  2  0  0  0
 78 79  1  0  0  0
 78150  1  0  0  0
 78151  1  0  0  0
 79 81  1  0  0  0
 79152  1  0  0  0
 79153  1  0  0  0
 80 81  1  0  0  0
 80 84  1  0  0  0
 80154  1  0  0  0
 80155  1  0  0  0
 81 83  1  0  0  0
 81156  1  0  0  0
 82 84  1  0  0  0
 82157  1  0  0  0
 82158  1  0  0  0
 83159  1  0  0  0
 83160  1  0  0  0
 85161  1  0  0  0
M  ISO  4   1 100  68 101  83 101  85 100
M  END
> <chiral flag>
0

> <version>
0

> <s_m_source_file>
/data/baiqing/PycharmProjects/Reinvent-master-3.2/result/LINK_invent/BTK/process_docking_weight1_custom_product_contain_oxygen_bond_distance_aromatic_linkinvent_7_9_3/rearranged_h_0100.sdf

> <i_m_source_file_index>
17

> <r_mmod_Potential_Energy-OPLS-2005>
60.5914688110352

> <r_mmod_Stretch_Energy-OPLS-2005>
46.4550895690918

> <r_mmod_Bend_Energy-OPLS-2005>
140.478271484375

> <r_mmod_Torsional_Energy-OPLS-2005>
320.791656494141

> <r_mmod_Improper_Torsional_Energy-OPLS-2005>
9.24098491668701

> <r_mmod_Van_der_Waal_Energy-OPLS-2005>
158.751617431641

> <r_mmod_Electrostatic_Energy-OPLS-2005>
-403.563079833984

> <r_mmod_Solvation_Energy-OPLS-2005>
-226.628524780273

> <b_mmod_Minimization_Converged-OPLS-2005>
0

> <r_mmod_RMS_Derivative-OPLS-2005>
12.1368083953857

$$$$
17
                    3D
 Structure written by MMmdl.
156164  0  0  1  0            999 V2000
  -30.6556  -14.5702   20.5052 C   0  0  0  0  0  0
  -30.4138  -12.3374   19.4558 C   0  0  0  0  0  0
  -29.5082  -12.5136   18.2194 C   0  0  0  0  0  0
  -28.0245  -12.3712   18.6188 C   0  0  0  0  0  0
  -27.6514  -13.2239   19.8653 C   0  0  2  0  0  0
  -28.6913  -13.0622   20.9967 C   0  0  0  0  0  0
  -25.2514  -13.8184   20.5735 C   0  0  0  0  0  0
  -24.1796  -13.0434   20.9215 C   0  0  0  0  0  0
  -24.6403  -11.6922   20.8725 C   0  0  0  0  0  0
  -23.9087  -10.4305   21.0397 C   0  0  0  0  0  0
  -24.3649   -9.4215   21.9158 C   0  0  0  0  0  0
  -23.6341   -8.2251   22.0730 C   0  0  0  0  0  0
  -22.4328   -8.0295   21.3527 C   0  0  0  0  0  0
  -21.9946   -9.0278   20.4646 C   0  0  0  0  0  0
  -22.7265  -10.2149   20.3050 C   0  0  0  0  0  0
  -21.6855   -6.0761   22.5274 C   0  0  0  0  0  0
  -21.4022   -6.5664   23.8222 C   0  0  0  0  0  0
  -21.3690   -5.6785   24.9180 C   0  0  0  0  0  0
  -21.6038   -4.3041   24.7202 C   0  0  0  0  0  0
  -21.8816   -3.8149   23.4322 C   0  0  0  0  0  0
  -21.9197   -4.6984   22.3392 C   0  0  0  0  0  0
  -22.7815  -13.5230   21.1857 C   0  0  0  0  0  0
  -22.1645   -4.2191   21.0964 F   0  0  0  0  0  0
  -21.5661   -3.4521   25.7705 F   0  0  0  0  0  0
  -30.0107  -13.3674   20.4302 N   0  0  0  0  0  0
  -26.2983  -12.9414   20.3358 N   0  0  0  0  0  0
  -25.9326  -11.6569   20.5720 N   0  0  0  0  0  0
  -22.0454  -12.8236   22.0432 N   0  0  0  0  0  0
  -25.4113  -15.1906   20.4223 N   0  0  0  0  0  0
  -31.8234  -14.7016   20.1336 O   0  0  0  0  0  0
  -21.6660   -6.8906   21.4250 O   0  0  0  0  0  0
  -22.3529  -14.5539   20.6692 O   0  0  0  0  0  0
  -24.6188  -31.8638   23.2038 C   0  0  0  0  0  0
  -25.9047  -32.4802   23.8357 C   0  0  1  0  0  0
  -27.2342  -27.3741   20.0988 C   0  0  0  0  0  0
  -25.5897  -33.8596   24.2308 N   0  0  0  0  0  0
  -23.4087  -30.4856   21.5468 C   0  0  2  0  0  0
  -24.8566  -28.9434   20.1068 C   0  0  0  0  0  0
  -22.7431  -29.4641   22.4964 C   0  0  0  0  0  0
  -18.0277  -28.1347   22.8485 C   0  0  0  0  0  0
  -24.1505  -36.7303   23.2643 C   0  0  0  0  0  0
  -25.9436  -30.8050   21.3710 C   0  0  0  0  0  0
  -26.0186  -29.4387   20.7126 C   0  0  0  0  0  0
  -27.2049  -28.6580   20.7066 C   0  0  0  0  0  0
  -26.0523  -26.9119   19.4776 C   0  0  0  0  0  0
  -24.8749  -27.6833   19.4829 C   0  0  0  0  0  0
  -23.6196  -29.8137   20.1617 C   0  0  0  0  0  0
  -25.4115  -36.3096   24.0343 C   0  0  1  0  0  0
  -20.5871  -28.3654   23.1297 C   0  0  2  0  0  0
  -20.6774  -26.9399   22.5398 C   0  0  0  0  0  0
  -19.5745  -26.6366   21.5192 C   0  0  0  0  0  0
  -18.1926  -26.7898   22.1602 C   0  0  0  0  0  0
  -19.1528  -28.8803   23.2889 C   0  0  0  0  0  0
  -18.9465  -30.1409   23.8912 C   0  0  0  0  0  0
  -17.6470  -30.6577   24.0537 C   0  0  0  0  0  0
  -25.9040  -34.9465   23.5122 C   0  0  0  0  0  0
  -16.5355  -29.9071   23.6305 C   0  0  0  0  0  0
  -16.7264  -28.6464   23.0355 C   0  0  0  0  0  0
  -26.4443  -31.6580   25.0705 C   0  0  0  0  0  0
  -25.3695  -31.3679   26.1448 C   0  0  0  0  0  0
  -27.0283  -30.3021   24.6083 C   0  0  0  0  0  0
  -27.6034  -32.4278   25.7463 C   0  0  0  0  0  0
  -27.5596  -37.1806   24.8454 C   0  0  0  0  0  0
  -21.4159  -29.3023   22.3698 N   0  0  0  0  0  0
  -26.4296  -37.3792   23.9415 N   0  0  0  0  0  0
  -24.6758  -31.0670   22.0983 N   0  0  0  0  0  0
  -23.4178  -28.8215   23.3058 O   0  0  0  0  0  0
  -28.3970  -26.6128   20.1597 O   0  0  0  0  0  0
  -26.5628  -34.8918   22.4709 O   0  0  0  0  0  0
  -23.5351  -32.1444   23.7374 O   0  0  0  0  0  0
  -28.1302  -17.9320   19.7980 C   0  0  0  0  0  0
  -29.7525  -19.5886   20.5431 C   0  0  0  0  0  0
  -27.6556  -20.3328   19.5622 C   0  0  0  0  0  0
  -29.3809  -18.2144   20.3951 C   0  0  0  0  0  0
  -27.2838  -18.9830   19.3688 C   0  0  0  0  0  0
  -28.8998  -20.6640   20.1435 C   0  0  0  0  0  0
  -30.3524  -17.0800   20.8380 C   0  0  0  0  0  0
  -27.7603  -24.0880   20.2119 C   0  0  0  0  0  0
  -28.5034  -25.2960   19.5405 C   0  0  0  0  0  0
  -28.5762  -22.9706   20.9616 C   0  0  0  0  0  0
  -26.0843  -18.6839   18.7190 N   0  0  0  0  0  0
  -29.8983  -15.6555   20.8209 N   0  0  0  0  0  0
  -29.3304  -21.9910   20.2008 O   0  0  0  0  0  0
  -31.4664  -12.4152   19.1771 H   0  0  0  0  0  0
  -30.2924  -11.3380   19.8807 H   0  0  0  0  0  0
  -29.7661  -11.7873   17.4488 H   0  0  0  0  0  0
  -29.6778  -13.4982   17.7816 H   0  0  0  0  0  0
  -27.8369  -11.3172   18.8203 H   0  0  0  0  0  0
  -27.3848  -12.6350   17.7734 H   0  0  0  0  0  0
  -27.6738  -14.2639   19.5389 H   0  0  0  0  0  0
  -28.6786  -12.0452   21.3947 H   0  0  0  0  0  0
  -28.4554  -13.7171   21.8371 H   0  0  0  0  0  0
  -25.2802   -9.5716   22.4715 H   0  0  0  0  0  0
  -24.0055   -7.4659   22.7477 H   0  0  0  0  0  0
  -21.0856   -8.8796   19.9003 H   0  0  0  0  0  0
  -22.3701  -10.9683   19.6148 H   0  0  0  0  0  0
  -21.1993   -7.6155   23.9728 H   0  0  0  0  0  0
  -21.1529   -6.0514   25.9080 H   0  0  0  0  0  0
  -22.0563   -2.7619   23.2773 H   0  0  0  0  0  0
  -22.4063  -11.9929   22.4889 H   0  0  0  0  0  0
  -21.1067  -13.1274   22.2612 H   0  0  0  0  0  0
  -24.6318  -15.8257   20.5431 H   0  0  0  0  0  0
  -26.2567  -15.6512   20.1133 H   0  0  0  0  0  0
  -26.7115  -32.5489   23.1116 H   0  0  0  0  0  0
  -25.0047  -33.9754   25.0432 H   0  0  0  0  0  0
  -22.6988  -31.3030   21.4020 H   0  0  0  0  0  0
  -23.3781  -35.9622   23.3276 H   0  0  0  0  0  0
  -24.3605  -36.8946   22.2061 H   0  0  0  0  0  0
  -23.7241  -37.6484   23.6677 H   0  0  0  0  0  0
  -26.0712  -31.5752   20.6096 H   0  0  0  0  0  0
  -26.8239  -30.8534   21.9983 H   0  0  0  0  0  0
  -28.0944  -29.0295   21.1948 H   0  0  0  0  0  0
  -26.0211  -25.9456   18.9961 H   0  0  0  0  0  0
  -23.9851  -27.2991   19.0046 H   0  0  0  0  0  0
  -23.7249  -30.5866   19.4011 H   0  0  0  0  0  0
  -22.7431  -29.2316   19.8648 H   0  0  0  0  0  0
  -25.1295  -36.1955   25.0838 H   0  0  0  0  0  0
  -20.9946  -28.3227   24.1420 H   0  0  0  0  0  0
  -20.5658  -26.2279   23.3589 H   0  0  0  0  0  0
  -21.6650  -26.7443   22.1218 H   0  0  0  0  0  0
  -19.6936  -25.6270   21.1224 H   0  0  0  0  0  0
  -19.6696  -27.3166   20.6702 H   0  0  0  0  0  0
  -17.4215  -26.6644   21.3990 H   0  0  0  0  0  0
  -18.0356  -26.0015   22.8979 H   0  0  0  0  0  0
  -19.7945  -30.7190   24.2324 H   0  0  0  0  0  0
  -17.5031  -31.6267   24.5140 H   0  0  0  0  0  0
  -15.5353  -30.2974   23.7600 H   0  0  0  0  0  0
  -15.8670  -28.0752   22.7096 H   0  0  0  0  0  0
  -24.5821  -30.7106   25.7740 H   0  0  0  0  0  0
  -24.8942  -32.2841   26.4963 H   0  0  0  0  0  0
  -25.8016  -30.8748   27.0170 H   0  0  0  0  0  0
  -26.2841  -29.6791   24.1117 H   0  0  0  0  0  0
  -27.4043  -29.7227   25.4527 H   0  0  0  0  0  0
  -27.8682  -30.4340   23.9260 H   0  0  0  0  0  0
  -27.2674  -33.3556   26.2086 H   0  0  0  0  0  0
  -28.3812  -32.6862   25.0275 H   0  0  0  0  0  0
  -28.0743  -31.8377   26.5325 H   0  0  0  0  0  0
  -28.2584  -38.0132   24.7548 H   0  0  0  0  0  0
  -28.1124  -36.2673   24.6220 H   0  0  0  0  0  0
  -27.2333  -37.1382   25.8858 H   0  0  0  0  0  0
  -20.9330  -29.8711   21.6889 H   0  0  0  0  0  0
  -26.0188  -38.2873   24.1390 H   0  0  0  0  0  0
  -27.8329  -16.9058   19.6434 H   0  0  0  0  0  0
  -30.7169  -19.8206   20.9695 H   0  0  0  0  0  0
  -27.0036  -21.1254   19.2222 H   0  0  0  0  0  0
  -30.6744  -17.3017   21.8549 H   0  0  0  0  0  0
  -31.2485  -17.1796   20.2228 H   0  0  0  0  0  0
  -27.1324  -23.6093   19.4629 H   0  0  0  0  0  0
  -27.0597  -24.5071   20.9341 H   0  0  0  0  0  0
  -28.1936  -25.3836   18.4987 H   0  0  0  0  0  0
  -29.5668  -25.0582   19.4816 H   0  0  0  0  0  0
  -27.8975  -22.4465   21.6367 H   0  0  0  0  0  0
  -29.2849  -23.4689   21.6219 H   0  0  0  0  0  0
  -25.9771  -17.7711   18.2856 H   0  0  0  0  0  0
  -25.6193  -19.4141   18.1838 H   0  0  0  0  0  0
  -28.9491  -15.4736   21.1124 H   0  0  0  0  0  0
  1 25  1  0  0  0
  1 30  2  0  0  0
  1 82  1  0  0  0
  2  3  1  0  0  0
  2 25  1  0  0  0
  2 84  1  0  0  0
  2 85  1  0  0  0
  3  4  1  0  0  0
  3 86  1  0  0  0
  3 87  1  0  0  0
  4  5  1  0  0  0
  4 88  1  0  0  0
  4 89  1  0  0  0
  5  6  1  0  0  0
  5 26  1  0  0  0
  5 90  1  0  0  0
  6 25  1  0  0  0
  6 91  1  0  0  0
  6 92  1  0  0  0
  7  8  2  0  0  0
  7 26  1  0  0  0
  7 29  1  0  0  0
  8  9  1  0  0  0
  8 22  1  0  0  0
  9 10  1  0  0  0
  9 27  2  0  0  0
 10 11  2  0  0  0
 10 15  1  0  0  0
 11 12  1  0  0  0
 11 93  1  0  0  0
 12 13  2  0  0  0
 12 94  1  0  0  0
 13 14  1  0  0  0
 13 31  1  0  0  0
 14 15  2  0  0  0
 14 95  1  0  0  0
 15 96  1  0  0  0
 16 17  2  0  0  0
 16 21  1  0  0  0
 16 31  1  0  0  0
 17 18  1  0  0  0
 17 97  1  0  0  0
 18 19  2  0  0  0
 18 98  1  0  0  0
 19 20  1  0  0  0
 19 24  1  0  0  0
 20 21  2  0  0  0
 20 99  1  0  0  0
 21 23  1  0  0  0
 22 28  1  0  0  0
 22 32  2  0  0  0
 26 27  1  0  0  0
 28100  1  0  0  0
 28101  1  0  0  0
 29102  1  0  0  0
 29103  1  0  0  0
 33 34  1  0  0  0
 33 66  1  0  0  0
 33 70  2  0  0  0
 34 36  1  0  0  0
 34 59  1  0  0  0
 34104  1  0  0  0
 35 44  2  0  0  0
 35 45  1  0  0  0
 35 68  1  0  0  0
 36 56  1  0  0  0
 36105  1  0  0  0
 37 39  1  0  0  0
 37 47  1  0  0  0
 37 66  1  0  0  0
 37106  1  0  0  0
 38 43  2  0  0  0
 38 46  1  0  0  0
 38 47  1  0  0  0
 39 64  1  0  0  0
 39 67  2  0  0  0
 40 52  1  0  0  0
 40 53  2  0  0  0
 40 58  1  0  0  0
 41107  1  0  0  0
 41108  1  0  0  0
 41109  1  0  0  0
 41 48  1  0  0  0
 42 43  1  0  0  0
 42 66  1  0  0  0
 42110  1  0  0  0
 42111  1  0  0  0
 43 44  1  0  0  0
 44112  1  0  0  0
 45 46  2  0  0  0
 45113  1  0  0  0
 46114  1  0  0  0
 47115  1  0  0  0
 47116  1  0  0  0
 48 56  1  0  0  0
 48 65  1  0  0  0
 48117  1  0  0  0
 49 50  1  0  0  0
 49 53  1  0  0  0
 49 64  1  0  0  0
 49118  1  0  0  0
 50 51  1  0  0  0
 50119  1  0  0  0
 50120  1  0  0  0
 51 52  1  0  0  0
 51121  1  0  0  0
 51122  1  0  0  0
 52123  1  0  0  0
 52124  1  0  0  0
 53 54  1  0  0  0
 54 55  2  0  0  0
 54125  1  0  0  0
 55 57  1  0  0  0
 55126  1  0  0  0
 56 69  2  0  0  0
 57 58  2  0  0  0
 57127  1  0  0  0
 58128  1  0  0  0
 59 60  1  0  0  0
 59 61  1  0  0  0
 59 62  1  0  0  0
 60129  1  0  0  0
 60130  1  0  0  0
 60131  1  0  0  0
 61132  1  0  0  0
 61133  1  0  0  0
 61134  1  0  0  0
 62135  1  0  0  0
 62136  1  0  0  0
 62137  1  0  0  0
 63 65  1  0  0  0
 63138  1  0  0  0
 63139  1  0  0  0
 63140  1  0  0  0
 64141  1  0  0  0
 65142  1  0  0  0
 68 79  1  0  0  0
 71 74  2  0  0  0
 71 75  1  0  0  0
 71143  1  0  0  0
 72 74  1  0  0  0
 72 76  2  0  0  0
 72144  1  0  0  0
 73 75  2  0  0  0
 73 76  1  0  0  0
 73145  1  0  0  0
 74 77  1  0  0  0
 75 81  1  0  0  0
 76 83  1  0  0  0
 77 82  1  0  0  0
 77146  1  0  0  0
 77147  1  0  0  0
 78 79  1  0  0  0
 78 80  1  0  0  0
 78148  1  0  0  0
 78149  1  0  0  0
 79150  1  0  0  0
 79151  1  0  0  0
 80 83  1  0  0  0
 80152  1  0  0  0
 80153  1  0  0  0
 81154  1  0  0  0
 81155  1  0  0  0
 82156  1  0  0  0
M  ISO  4   1 100  68 101  79 101  82 100
M  END
> <chiral flag>
0

> <version>
0

> <s_m_source_file>
/data/baiqing/PycharmProjects/Reinvent-master-3.2/result/LINK_invent/BTK/process_docking_weight1_custom_product_contain_oxygen_bond_distance_aromatic_linkinvent_7_9_3/rearranged_h_0100.sdf

> <i_m_source_file_index>
18

> <r_mmod_Potential_Energy-OPLS-2005>
-48.485538482666

> <r_mmod_Stretch_Energy-OPLS-2005>
56.9920501708984

> <r_mmod_Bend_Energy-OPLS-2005>
137.023544311523

> <r_mmod_Torsional_Energy-OPLS-2005>
227.085906982422

> <r_mmod_Improper_Torsional_Energy-OPLS-2005>
7.9225492477417

> <r_mmod_Van_der_Waal_Energy-OPLS-2005>
137.56901550293

> <r_mmod_Electrostatic_Energy-OPLS-2005>
-424.033782958984

> <r_mmod_Solvation_Energy-OPLS-2005>
-220.001480102539

> <b_mmod_Minimization_Converged-OPLS-2005>
0

> <r_mmod_RMS_Derivative-OPLS-2005>
4.73496103286743

$$$$
18
                    3D
 Structure written by MMmdl.
161169  0  0  1  0            999 V2000
  -30.7159  -14.4206   20.5595 C   0  0  0  0  0  0
  -30.4168  -12.2729   19.4034 C   0  0  0  0  0  0
  -29.4831  -12.4916   18.1945 C   0  0  0  0  0  0
  -28.0035  -12.3743   18.6101 C   0  0  0  0  0  0
  -27.6630  -13.2006   19.8795 C   0  0  2  0  0  0
  -28.7089  -12.9547   20.9893 C   0  0  0  0  0  0
  -25.2608  -13.8116   20.5679 C   0  0  0  0  0  0
  -24.1854  -13.0411   20.9134 C   0  0  0  0  0  0
  -24.6391  -11.6861   20.8707 C   0  0  0  0  0  0
  -23.9020  -10.4265   21.0404 C   0  0  0  0  0  0
  -24.3572   -9.4174   21.9180 C   0  0  0  0  0  0
  -23.6256   -8.2210   22.0753 C   0  0  0  0  0  0
  -22.4243   -8.0240   21.3555 C   0  0  0  0  0  0
  -21.9866   -9.0218   20.4671 C   0  0  0  0  0  0
  -22.7176  -10.2107   20.3061 C   0  0  0  0  0  0
  -21.6840   -6.0683   22.5289 C   0  0  0  0  0  0
  -21.4000   -6.5614   23.8213 C   0  0  0  0  0  0
  -21.3667   -5.6795   24.9191 C   0  0  0  0  0  0
  -21.6061   -4.3055   24.7274 C   0  0  0  0  0  0
  -21.8800   -3.8112   23.4398 C   0  0  0  0  0  0
  -21.9190   -4.6909   22.3434 C   0  0  0  0  0  0
  -22.7877  -13.5198   21.1830 C   0  0  0  0  0  0
  -22.1665   -4.2070   21.1023 F   0  0  0  0  0  0
  -21.5641   -3.4557   25.7807 F   0  0  0  0  0  0
  -30.0389  -13.2509   20.4316 N   0  0  0  0  0  0
  -26.3048  -12.9293   20.3394 N   0  0  0  0  0  0
  -25.9336  -11.6446   20.5782 N   0  0  0  0  0  0
  -22.0543  -12.8213   22.0414 N   0  0  0  0  0  0
  -25.4374  -15.1842   20.4211 N   0  0  0  0  0  0
  -31.8428  -14.6122   20.1028 O   0  0  0  0  0  0
  -21.6639   -6.8827   21.4246 O   0  0  0  0  0  0
  -22.3541  -14.5488   20.6660 O   0  0  0  0  0  0
  -24.6160  -31.8652   23.2109 C   0  0  0  0  0  0
  -25.9083  -32.4782   23.8389 C   0  0  1  0  0  0
  -27.2291  -27.4330   20.1089 C   0  0  0  0  0  0
  -25.5962  -33.8584   24.2303 N   0  0  0  0  0  0
  -23.3994  -30.4916   21.5486 C   0  0  2  0  0  0
  -24.8408  -28.9520   20.1194 C   0  0  0  0  0  0
  -22.7394  -29.4656   22.4983 C   0  0  0  0  0  0
  -18.0280  -28.1369   22.8500 C   0  0  0  0  0  0
  -24.1480  -36.7278   23.2619 C   0  0  0  0  0  0
  -25.9288  -30.8313   21.3661 C   0  0  0  0  0  0
  -25.9999  -29.4690   20.7079 C   0  0  0  0  0  0
  -27.1936  -28.7170   20.6949 C   0  0  0  0  0  0
  -26.0414  -26.9138   19.5417 C   0  0  0  0  0  0
  -24.8543  -27.6719   19.5385 C   0  0  0  0  0  0
  -23.6032  -29.8183   20.1642 C   0  0  0  0  0  0
  -25.4094  -36.3045   24.0306 C   0  0  1  0  0  0
  -20.5873  -28.3656   23.1336 C   0  0  2  0  0  0
  -20.6758  -26.9391   22.5429 C   0  0  0  0  0  0
  -19.5732  -26.6381   21.5221 C   0  0  0  0  0  0
  -18.1916  -26.7926   22.1635 C   0  0  0  0  0  0
  -19.1532  -28.8824   23.2914 C   0  0  0  0  0  0
  -18.9456  -30.1441   23.8918 C   0  0  0  0  0  0
  -17.6452  -30.6584   24.0560 C   0  0  0  0  0  0
  -25.9038  -34.9423   23.5073 C   0  0  0  0  0  0
  -16.5341  -29.9079   23.6330 C   0  0  0  0  0  0
  -16.7268  -28.6484   23.0364 C   0  0  0  0  0  0
  -26.4509  -31.6609   25.0759 C   0  0  0  0  0  0
  -25.3788  -31.3811   26.1527 C   0  0  0  0  0  0
  -27.0332  -30.3015   24.6227 C   0  0  0  0  0  0
  -27.6074  -32.4325   25.7546 C   0  0  0  0  0  0
  -27.5549  -37.1793   24.8465 C   0  0  0  0  0  0
  -21.4128  -29.3006   22.3707 N   0  0  0  0  0  0
  -26.4267  -37.3730   23.9405 N   0  0  0  0  0  0
  -24.6644  -31.0805   22.0967 N   0  0  0  0  0  0
  -23.4158  -28.8194   23.3020 O   0  0  0  0  0  0
  -28.4391  -26.7707   20.1305 O   0  0  0  0  0  0
  -26.5575  -34.8895   22.4625 O   0  0  0  0  0  0
  -23.5363  -32.1436   23.7498 O   0  0  0  0  0  0
  -28.8521  -18.0842   23.2225 C   0  0  0  0  0  0
  -28.5180  -19.4526   23.2311 C   0  0  0  0  0  0
  -29.9076  -19.8092   21.2675 C   0  0  0  0  0  0
  -29.7109  -17.5606   22.2313 C   0  0  0  0  0  0
  -29.0393  -20.3233   22.2556 C   0  0  0  0  0  0
  -30.2413  -18.4387   21.2535 C   0  0  0  0  0  0
  -26.6643  -24.0345   22.3773 C   0  0  0  0  0  0
  -30.0310  -16.0653   22.2434 C   0  0  0  0  0  0
  -28.7049  -24.4011   20.8314 C   0  0  0  0  0  0
  -27.7674  -22.0411   21.1971 C   0  0  0  0  0  0
  -28.5805  -25.4242   19.6733 C   0  0  0  0  0  0
  -27.4427  -23.5547   21.1383 C   0  0  1  0  0  0
  -28.6780  -21.6771   22.2822 N   0  0  0  0  0  0
  -29.9685  -15.4699   20.9173 N   0  0  0  0  0  0
  -31.0635  -17.9704   20.2824 F   0  0  0  0  0  0
  -31.4604  -12.3606   19.0961 H   0  0  0  0  0  0
  -30.3074  -11.2596   19.7925 H   0  0  0  0  0  0
  -29.6989  -11.7592   17.4155 H   0  0  0  0  0  0
  -29.6656  -13.4731   17.7527 H   0  0  0  0  0  0
  -27.7959  -11.3185   18.7892 H   0  0  0  0  0  0
  -27.3553  -12.6681   17.7838 H   0  0  0  0  0  0
  -27.7142  -14.2519   19.6019 H   0  0  0  0  0  0
  -28.6729  -11.9152   21.3186 H   0  0  0  0  0  0
  -28.4872  -13.5501   21.8749 H   0  0  0  0  0  0
  -25.2727   -9.5625   22.4744 H   0  0  0  0  0  0
  -23.9975   -7.4616   22.7489 H   0  0  0  0  0  0
  -21.0755   -8.8741   19.9017 H   0  0  0  0  0  0
  -22.3613  -10.9624   19.6165 H   0  0  0  0  0  0
  -21.1961   -7.6129   23.9690 H   0  0  0  0  0  0
  -21.1517   -6.0551   25.9093 H   0  0  0  0  0  0
  -22.0563   -2.7558   23.2968 H   0  0  0  0  0  0
  -22.4270  -11.9976   22.4908 H   0  0  0  0  0  0
  -21.1102  -13.1116   22.2487 H   0  0  0  0  0  0
  -24.6801  -15.8446   20.5518 H   0  0  0  0  0  0
  -26.3186  -15.6275   20.1895 H   0  0  0  0  0  0
  -26.7136  -32.5464   23.1142 H   0  0  0  0  0  0
  -25.0238  -33.9711   25.0531 H   0  0  0  0  0  0
  -22.6915  -31.3094   21.4059 H   0  0  0  0  0  0
  -23.3708  -35.9644   23.3310 H   0  0  0  0  0  0
  -24.3569  -36.8869   22.2027 H   0  0  0  0  0  0
  -23.7280  -37.6502   23.6635 H   0  0  0  0  0  0
  -26.0658  -31.6068   20.6122 H   0  0  0  0  0  0
  -26.8033  -30.8581   22.0034 H   0  0  0  0  0  0
  -28.0952  -29.1132   21.1407 H   0  0  0  0  0  0
  -25.9943  -25.9258   19.1136 H   0  0  0  0  0  0
  -23.9537  -27.2578   19.1093 H   0  0  0  0  0  0
  -23.7095  -30.5881   19.3986 H   0  0  0  0  0  0
  -22.7278  -29.2321   19.8770 H   0  0  0  0  0  0
  -25.1263  -36.1854   25.0784 H   0  0  0  0  0  0
  -20.9973  -28.3213   24.1456 H   0  0  0  0  0  0
  -20.5692  -26.2239   23.3598 H   0  0  0  0  0  0
  -21.6629  -26.7447   22.1192 H   0  0  0  0  0  0
  -19.6906  -25.6292   21.1236 H   0  0  0  0  0  0
  -19.6693  -27.3220   20.6772 H   0  0  0  0  0  0
  -17.4190  -26.6721   21.4028 H   0  0  0  0  0  0
  -18.0302  -26.0069   22.9031 H   0  0  0  0  0  0
  -19.7926  -30.7266   24.2295 H   0  0  0  0  0  0
  -17.5000  -31.6287   24.5132 H   0  0  0  0  0  0
  -15.5341  -30.2976   23.7641 H   0  0  0  0  0  0
  -15.8672  -28.0795   22.7080 H   0  0  0  0  0  0
  -24.5900  -30.7186   25.7966 H   0  0  0  0  0  0
  -24.9072  -32.3025   26.4964 H   0  0  0  0  0  0
  -25.8147  -30.9036   27.0314 H   0  0  0  0  0  0
  -26.2952  -29.6814   24.1115 H   0  0  0  0  0  0
  -27.3891  -29.7193   25.4750 H   0  0  0  0  0  0
  -27.8874  -30.4297   23.9550 H   0  0  0  0  0  0
  -27.2674  -33.3579   26.2211 H   0  0  0  0  0  0
  -28.3885  -32.6964   25.0405 H   0  0  0  0  0  0
  -28.0767  -31.8422   26.5424 H   0  0  0  0  0  0
  -28.2557  -38.0089   24.7430 H   0  0  0  0  0  0
  -28.1033  -36.2604   24.6349 H   0  0  0  0  0  0
  -27.2277  -37.1511   25.8873 H   0  0  0  0  0  0
  -20.9270  -29.8673   21.6906 H   0  0  0  0  0  0
  -26.0120  -38.2774   24.1451 H   0  0  0  0  0  0
  -28.4370  -17.4390   23.9824 H   0  0  0  0  0  0
  -27.8461  -19.8217   23.9920 H   0  0  0  0  0  0
  -30.3322  -20.4562   20.5120 H   0  0  0  0  0  0
  -26.3150  -25.0606   22.2565 H   0  0  0  0  0  0
  -27.2665  -23.9952   23.2853 H   0  0  0  0  0  0
  -25.7840  -23.4125   22.5391 H   0  0  0  0  0  0
  -29.3213  -15.5449   22.8849 H   0  0  0  0  0  0
  -31.0160  -15.9160   22.6896 H   0  0  0  0  0  0
  -29.0859  -24.8769   21.7359 H   0  0  0  0  0  0
  -29.4972  -23.7112   20.5354 H   0  0  0  0  0  0
  -28.1958  -21.7321   20.2411 H   0  0  0  0  0  0
  -26.8401  -21.4747   21.3115 H   0  0  0  0  0  0
  -27.8780  -25.1096   18.9045 H   0  0  0  0  0  0
  -29.5351  -25.4318   19.1475 H   0  0  0  0  0  0
  -26.7570  -23.6643   20.2964 H   0  0  0  0  0  0
  -28.3375  -21.9726   23.1932 H   0  0  0  0  0  0
  -30.0988  -16.2146   20.2465 H   0  0  0  0  0  0
  1 25  1  0  0  0
  1 30  2  0  0  0
  1 84  1  0  0  0
  2  3  1  0  0  0
  2 25  1  0  0  0
  2 86  1  0  0  0
  2 87  1  0  0  0
  3  4  1  0  0  0
  3 88  1  0  0  0
  3 89  1  0  0  0
  4  5  1  0  0  0
  4 90  1  0  0  0
  4 91  1  0  0  0
  5  6  1  0  0  0
  5 26  1  0  0  0
  5 92  1  0  0  0
  6 25  1  0  0  0
  6 93  1  0  0  0
  6 94  1  0  0  0
  7  8  2  0  0  0
  7 26  1  0  0  0
  7 29  1  0  0  0
  8  9  1  0  0  0
  8 22  1  0  0  0
  9 10  1  0  0  0
  9 27  2  0  0  0
 10 11  2  0  0  0
 10 15  1  0  0  0
 11 12  1  0  0  0
 11 95  1  0  0  0
 12 13  2  0  0  0
 12 96  1  0  0  0
 13 14  1  0  0  0
 13 31  1  0  0  0
 14 15  2  0  0  0
 14 97  1  0  0  0
 15 98  1  0  0  0
 16 17  2  0  0  0
 16 21  1  0  0  0
 16 31  1  0  0  0
 17 18  1  0  0  0
 17 99  1  0  0  0
 18 19  2  0  0  0
 18100  1  0  0  0
 19 20  1  0  0  0
 19 24  1  0  0  0
 20 21  2  0  0  0
 20101  1  0  0  0
 21 23  1  0  0  0
 22 28  1  0  0  0
 22 32  2  0  0  0
 26 27  1  0  0  0
 28102  1  0  0  0
 28103  1  0  0  0
 29104  1  0  0  0
 29105  1  0  0  0
 33 34  1  0  0  0
 33 66  1  0  0  0
 33 70  2  0  0  0
 34 36  1  0  0  0
 34 59  1  0  0  0
 34106  1  0  0  0
 35 44  2  0  0  0
 35 45  1  0  0  0
 35 68  1  0  0  0
 36 56  1  0  0  0
 36107  1  0  0  0
 37 39  1  0  0  0
 37 47  1  0  0  0
 37 66  1  0  0  0
 37108  1  0  0  0
 38 43  2  0  0  0
 38 46  1  0  0  0
 38 47  1  0  0  0
 39 64  1  0  0  0
 39 67  2  0  0  0
 40 52  1  0  0  0
 40 53  2  0  0  0
 40 58  1  0  0  0
 41109  1  0  0  0
 41110  1  0  0  0
 41111  1  0  0  0
 41 48  1  0  0  0
 42 43  1  0  0  0
 42 66  1  0  0  0
 42112  1  0  0  0
 42113  1  0  0  0
 43 44  1  0  0  0
 44114  1  0  0  0
 45 46  2  0  0  0
 45115  1  0  0  0
 46116  1  0  0  0
 47117  1  0  0  0
 47118  1  0  0  0
 48 56  1  0  0  0
 48 65  1  0  0  0
 48119  1  0  0  0
 49 50  1  0  0  0
 49 53  1  0  0  0
 49 64  1  0  0  0
 49120  1  0  0  0
 50 51  1  0  0  0
 50121  1  0  0  0
 50122  1  0  0  0
 51 52  1  0  0  0
 51123  1  0  0  0
 51124  1  0  0  0
 52125  1  0  0  0
 52126  1  0  0  0
 53 54  1  0  0  0
 54 55  2  0  0  0
 54127  1  0  0  0
 55 57  1  0  0  0
 55128  1  0  0  0
 56 69  2  0  0  0
 57 58  2  0  0  0
 57129  1  0  0  0
 58130  1  0  0  0
 59 60  1  0  0  0
 59 61  1  0  0  0
 59 62  1  0  0  0
 60131  1  0  0  0
 60132  1  0  0  0
 60133  1  0  0  0
 61134  1  0  0  0
 61135  1  0  0  0
 61136  1  0  0  0
 62137  1  0  0  0
 62138  1  0  0  0
 62139  1  0  0  0
 63 65  1  0  0  0
 63140  1  0  0  0
 63141  1  0  0  0
 63142  1  0  0  0
 64143  1  0  0  0
 65144  1  0  0  0
 68 81  1  0  0  0
 71 72  2  0  0  0
 71 74  1  0  0  0
 71145  1  0  0  0
 72 75  1  0  0  0
 72146  1  0  0  0
 73 75  2  0  0  0
 73 76  1  0  0  0
 73147  1  0  0  0
 74 76  2  0  0  0
 74 78  1  0  0  0
 75 83  1  0  0  0
 76 85  1  0  0  0
 77148  1  0  0  0
 77149  1  0  0  0
 77150  1  0  0  0
 77 82  1  0  0  0
 78 84  1  0  0  0
 78151  1  0  0  0
 78152  1  0  0  0
 79 81  1  0  0  0
 79 82  1  0  0  0
 79153  1  0  0  0
 79154  1  0  0  0
 80 82  1  0  0  0
 80 83  1  0  0  0
 80155  1  0  0  0
 80156  1  0  0  0
 81157  1  0  0  0
 81158  1  0  0  0
 82159  1  0  0  0
 83160  1  0  0  0
 84161  1  0  0  0
M  ISO  4   1 100  68 101  81 101  84 100
M  END
> <chiral flag>
0

> <version>
0

> <s_m_source_file>
/data/baiqing/PycharmProjects/Reinvent-master-3.2/result/LINK_invent/BTK/process_docking_weight1_custom_product_contain_oxygen_bond_distance_aromatic_linkinvent_7_9_3/rearranged_h_0100.sdf

> <i_m_source_file_index>
19

> <r_mmod_Potential_Energy-OPLS-2005>
11.2964534759521

> <r_mmod_Stretch_Energy-OPLS-2005>
33.7890777587891

> <r_mmod_Bend_Energy-OPLS-2005>
118.893379211426

> <r_mmod_Torsional_Energy-OPLS-2005>
299.014343261719

> <r_mmod_Improper_Torsional_Energy-OPLS-2005>
18.392749786377

> <r_mmod_Van_der_Waal_Energy-OPLS-2005>
147.965805053711

> <r_mmod_Electrostatic_Energy-OPLS-2005>
-418.156616210938

> <r_mmod_Solvation_Energy-OPLS-2005>
-201.485885620117

> <b_mmod_Minimization_Converged-OPLS-2005>
0

> <r_mmod_RMS_Derivative-OPLS-2005>
4.46708059310913

$$$$
19
                    3D
 Structure written by MMmdl.
160169  0  0  1  0            999 V2000
  -30.5113  -14.2016   20.9262 C   0  0  0  0  0  0
  -30.4561  -12.3141   19.2659 C   0  0  0  0  0  0
  -29.4596  -12.3313   18.0620 C   0  0  0  0  0  0
  -27.9516  -12.0833   18.4459 C   0  0  0  0  0  0
  -27.6517  -12.9580   19.6490 C   0  0  2  0  0  0
  -28.6435  -12.5090   20.7524 C   0  0  0  0  0  0
  -25.5466  -14.5799   20.6242 C   0  0  0  0  0  0
  -24.3804  -13.5876   20.8625 C   0  0  0  0  0  0
  -24.6430  -12.1069   20.8139 C   0  0  0  0  0  0
  -23.9097  -10.7299   21.0140 C   0  0  0  0  0  0
  -24.3783   -9.6771   21.8751 C   0  0  0  0  0  0
  -23.6921   -8.4287   22.0494 C   0  0  0  0  0  0
  -22.4925   -8.1543   21.3479 C   0  0  0  0  0  0
  -22.0411   -9.1540   20.4616 C   0  0  0  0  0  0
  -22.7284  -10.3902   20.2975 C   0  0  0  0  0  0
  -21.7476   -6.1338   22.5180 C   0  0  0  0  0  0
  -21.4493   -6.6039   23.8183 C   0  0  0  0  0  0
  -21.3818   -5.7070   24.9041 C   0  0  0  0  0  0
  -21.6013   -4.3297   24.7025 C   0  0  0  0  0  0
  -21.8752   -3.8501   23.4119 C   0  0  0  0  0  0
  -21.9379   -4.7440   22.3243 C   0  0  0  0  0  0
  -22.9056  -13.8304   21.1384 C   0  0  0  0  0  0
  -22.1728   -4.2574   21.0828 F   0  0  0  0  0  0
  -21.5501   -3.4694   25.7482 F   0  0  0  0  0  0
  -29.9383  -13.0821   20.4152 N   0  0  0  0  0  0
  -26.2749  -13.2780   20.1393 N   0  0  0  0  0  0
  -25.8336  -12.0091   20.4056 N   0  0  0  0  0  0
  -22.2452  -13.0395   21.9952 N   0  0  0  0  0  0
  -26.5707  -16.8248   21.5784 N   0  0  0  0  0  0
  -31.5480  -14.6655   20.4036 O   0  0  0  0  0  0
  -21.7610   -6.9733   21.4176 O   0  0  0  0  0  0
  -22.3081  -14.7216   20.5569 O   0  0  0  0  0  0
  -24.6831  -31.8095   23.1734 C   0  0  0  0  0  0
  -25.9466  -32.4494   23.8177 C   0  0  1  0  0  0
  -26.7734  -26.6058   20.2093 C   0  0  0  0  0  0
  -25.6090  -33.8338   24.2025 N   0  0  0  0  0  0
  -23.4819  -30.4563   21.5310 C   0  0  2  0  0  0
  -24.8567  -28.8405   20.0721 C   0  0  0  0  0  0
  -22.7692  -29.4417   22.4678 C   0  0  0  0  0  0
  -18.0328  -28.1416   22.8458 C   0  0  0  0  0  0
  -24.1493  -36.7172   23.2639 C   0  0  0  0  0  0
  -26.0635  -30.4992   21.4490 C   0  0  0  0  0  0
  -26.0443  -29.0776   20.7743 C   0  0  0  0  0  0
  -27.0281  -27.9626   20.8280 C   0  0  0  0  0  0
  -25.6836  -26.6541   19.3511 C   0  0  0  0  0  0
  -24.7277  -27.6743   19.3227 C   0  0  0  0  0  0
  -23.7092  -29.8369   20.1324 C   0  0  0  0  0  0
  -25.4145  -36.2919   24.0275 C   0  0  1  0  0  0
  -20.5963  -28.3774   23.1140 C   0  0  2  0  0  0
  -20.6803  -26.9443   22.5384 C   0  0  0  0  0  0
  -19.5762  -26.6364   21.5216 C   0  0  0  0  0  0
  -18.1947  -26.7947   22.1626 C   0  0  0  0  0  0
  -19.1594  -28.8911   23.2797 C   0  0  0  0  0  0
  -18.9503  -30.1498   23.8845 C   0  0  0  0  0  0
  -17.6494  -30.6600   24.0563 C   0  0  0  0  0  0
  -25.9141  -34.9308   23.4961 C   0  0  0  0  0  0
  -16.5384  -29.9090   23.6343 C   0  0  0  0  0  0
  -16.7312  -28.6513   23.0358 C   0  0  0  0  0  0
  -26.4611  -31.6552   25.0818 C   0  0  0  0  0  0
  -25.3657  -31.3937   26.1432 C   0  0  0  0  0  0
  -27.0512  -30.2864   24.6786 C   0  0  0  0  0  0
  -27.6059  -32.4411   25.7625 C   0  0  0  0  0  0
  -27.5566  -37.1761   24.8456 C   0  0  0  0  0  0
  -21.4348  -29.3071   22.3479 N   0  0  0  0  0  0
  -26.4274  -37.3681   23.9401 N   0  0  0  0  0  0
  -24.7714  -30.9571   22.0996 N   0  0  0  0  0  0
  -23.4226  -28.7901   23.2876 O   0  0  0  0  0  0
  -27.2954  -25.1750   20.3192 O   0  0  0  0  0  0
  -26.5732  -34.8860   22.4550 O   0  0  0  0  0  0
  -23.5880  -32.1225   23.6727 O   0  0  0  0  0  0
  -27.6951  -15.4666   20.2180 C   0  0  0  0  0  0
  -26.3767  -16.3899   19.3390 C   0  0  0  0  0  0
  -24.4299  -16.2366   21.8474 C   0  0  0  0  0  0
  -27.4372  -14.8044   21.9736 C   0  0  0  0  0  0
  -24.8661  -17.0135   20.1512 C   0  0  0  0  0  0
  -25.7327  -15.1619   22.8250 C   0  0  0  0  0  0
  -26.8236  -21.2393   18.7602 C   0  0  0  0  0  0
  -28.7601  -14.6925   22.7460 C   0  0  0  0  0  0
  -26.6849  -19.7420   18.3391 C   0  0  0  0  0  0
  -25.2877  -19.0482   18.5476 C   0  0  0  0  0  0
  -25.2872  -20.1906   20.6399 C   0  0  0  0  0  0
  -26.3595  -21.7006   20.1633 C   0  0  2  0  0  0
  -26.3420  -23.6625   20.2696 C   0  0  0  0  0  0
  -25.0451  -18.6438   19.9391 N   0  0  0  0  0  0
  -29.9833  -14.7053   22.0964 N   0  0  0  0  0  0
  -27.3754  -22.0336   17.9914 O   0  0  0  0  0  0
  -28.7340  -14.7215   23.9748 O   0  0  0  0  0  0
  -25.4909  -14.7789   24.1028 F   0  0  0  0  0  0
  -31.4320  -12.6751   18.9337 H   0  0  0  0  0  0
  -30.6282  -11.2852   19.5838 H   0  0  0  0  0  0
  -29.7639  -11.5874   17.3250 H   0  0  0  0  0  0
  -29.5500  -13.2887   17.5456 H   0  0  0  0  0  0
  -27.7841  -11.0317   18.6827 H   0  0  0  0  0  0
  -27.2947  -12.3191   17.6014 H   0  0  0  0  0  0
  -27.9435  -13.7333   18.9691 H   0  0  0  0  0  0
  -28.7474  -11.4239   20.6927 H   0  0  0  0  0  0
  -28.2901  -12.5061   21.7732 H   0  0  0  0  0  0
  -25.2952   -9.8513   22.4180 H   0  0  0  0  0  0
  -24.1126   -7.6959   22.7230 H   0  0  0  0  0  0
  -21.1449   -8.9782   19.8861 H   0  0  0  0  0  0
  -22.3298  -11.1106   19.5976 H   0  0  0  0  0  0
  -21.2712   -7.6574   23.9802 H   0  0  0  0  0  0
  -21.1626   -6.0762   25.8961 H   0  0  0  0  0  0
  -22.0300   -2.7945   23.2483 H   0  0  0  0  0  0
  -22.7070  -12.2828   22.4791 H   0  0  0  0  0  0
  -21.2538  -13.1788   22.1399 H   0  0  0  0  0  0
  -25.9378  -17.6126   21.4374 H   0  0  0  0  0  0
  -27.4603  -17.0433   21.1502 H   0  0  0  0  0  0
  -26.7514  -32.4865   23.0838 H   0  0  0  0  0  0
  -25.0217  -33.9410   25.0170 H   0  0  0  0  0  0
  -22.8071  -31.3030   21.3938 H   0  0  0  0  0  0
  -23.3775  -35.9479   23.3239 H   0  0  0  0  0  0
  -24.3565  -36.8897   22.2064 H   0  0  0  0  0  0
  -23.7234  -37.6330   23.6752 H   0  0  0  0  0  0
  -26.3059  -31.2274   20.6729 H   0  0  0  0  0  0
  -26.9137  -30.5208   22.1200 H   0  0  0  0  0  0
  -27.8973  -28.0819   21.4595 H   0  0  0  0  0  0
  -25.4458  -25.7921   18.7507 H   0  0  0  0  0  0
  -23.8449  -27.5225   18.7201 H   0  0  0  0  0  0
  -23.9327  -30.6322   19.4216 H   0  0  0  0  0  0
  -22.7908  -29.3699   19.7719 H   0  0  0  0  0  0
  -25.1343  -36.1688   25.0765 H   0  0  0  0  0  0
  -21.0072  -28.3394   24.1260 H   0  0  0  0  0  0
  -20.5679  -26.2397   23.3647 H   0  0  0  0  0  0
  -21.6659  -26.7394   22.1193 H   0  0  0  0  0  0
  -19.6909  -25.6249   21.1300 H   0  0  0  0  0  0
  -19.6700  -27.3127   20.6707 H   0  0  0  0  0  0
  -17.4217  -26.6699   21.4034 H   0  0  0  0  0  0
  -18.0333  -26.0114   22.9038 H   0  0  0  0  0  0
  -19.7978  -30.7330   24.2197 H   0  0  0  0  0  0
  -17.5043  -31.6272   24.5176 H   0  0  0  0  0  0
  -15.5380  -30.2976   23.7692 H   0  0  0  0  0  0
  -15.8717  -28.0820   22.7092 H   0  0  0  0  0  0
  -24.5867  -30.7232   25.7792 H   0  0  0  0  0  0
  -24.8819  -32.3183   26.4588 H   0  0  0  0  0  0
  -25.7826  -30.9320   27.0392 H   0  0  0  0  0  0
  -26.3182  -29.6436   24.1902 H   0  0  0  0  0  0
  -27.3985  -29.7397   25.5565 H   0  0  0  0  0  0
  -27.9187  -30.3941   24.0275 H   0  0  0  0  0  0
  -27.2606  -33.3793   26.1984 H   0  0  0  0  0  0
  -28.3997  -32.6838   25.0550 H   0  0  0  0  0  0
  -28.0580  -31.8695   26.5738 H   0  0  0  0  0  0
  -28.2528  -38.0106   24.7520 H   0  0  0  0  0  0
  -28.1117  -36.2630   24.6254 H   0  0  0  0  0  0
  -27.2289  -37.1365   25.8858 H   0  0  0  0  0  0
  -20.9577  -29.8897   21.6747 H   0  0  0  0  0  0
  -26.0088  -38.2725   24.1424 H   0  0  0  0  0  0
  -28.6673  -15.4938   19.7500 H   0  0  0  0  0  0
  -26.7044  -16.8538   18.4236 H   0  0  0  0  0  0
  -23.5596  -16.5877   22.3804 H   0  0  0  0  0  0
  -27.4679  -19.1617   18.8247 H   0  0  0  0  0  0
  -26.9296  -19.7024   17.2753 H   0  0  0  0  0  0
  -25.1620  -18.2025   17.8765 H   0  0  0  0  0  0
  -24.4998  -19.7440   18.2491 H   0  0  0  0  0  0
  -24.2736  -20.5947   20.6511 H   0  0  0  0  0  0
  -25.4914  -20.0005   21.6944 H   0  0  0  0  0  0
  -27.2390  -21.5019   20.7783 H   0  0  0  0  0  0
  -25.6491  -23.8517   21.0899 H   0  0  0  0  0  0
  -25.7338  -23.8522   19.3895 H   0  0  0  0  0  0
  -30.7047  -15.1261   22.6596 H   0  0  0  0  0  0
  1 25  1  0  0  0
  1 30  2  0  0  0
  1 85  1  0  0  0
  2  3  1  0  0  0
  2 25  1  0  0  0
  2 89  1  0  0  0
  2 90  1  0  0  0
  3  4  1  0  0  0
  3 91  1  0  0  0
  3 92  1  0  0  0
  4  5  1  0  0  0
  4 93  1  0  0  0
  4 94  1  0  0  0
  5  6  1  0  0  0
  5 26  1  0  0  0
  5 95  1  0  0  0
  6 25  1  0  0  0
  6 96  1  0  0  0
  6 97  1  0  0  0
  7  8  2  0  0  0
  7 26  1  0  0  0
  7 29  1  0  0  0
  8  9  1  0  0  0
  8 22  1  0  0  0
  9 10  1  0  0  0
  9 27  2  0  0  0
 10 11  2  0  0  0
 10 15  1  0  0  0
 11 12  1  0  0  0
 11 98  1  0  0  0
 12 13  2  0  0  0
 12 99  1  0  0  0
 13 14  1  0  0  0
 13 31  1  0  0  0
 14 15  2  0  0  0
 14100  1  0  0  0
 15101  1  0  0  0
 16 17  2  0  0  0
 16 21  1  0  0  0
 16 31  1  0  0  0
 17 18  1  0  0  0
 17102  1  0  0  0
 18 19  2  0  0  0
 18103  1  0  0  0
 19 20  1  0  0  0
 19 24  1  0  0  0
 20 21  2  0  0  0
 20104  1  0  0  0
 21 23  1  0  0  0
 22 28  1  0  0  0
 22 32  2  0  0  0
 26 27  1  0  0  0
 28105  1  0  0  0
 28106  1  0  0  0
 29107  1  0  0  0
 29108  1  0  0  0
 33 34  1  0  0  0
 33 66  1  0  0  0
 33 70  2  0  0  0
 34 36  1  0  0  0
 34 59  1  0  0  0
 34109  1  0  0  0
 35 44  2  0  0  0
 35 45  1  0  0  0
 35 68  1  0  0  0
 36 56  1  0  0  0
 36110  1  0  0  0
 37 39  1  0  0  0
 37 47  1  0  0  0
 37 66  1  0  0  0
 37111  1  0  0  0
 38 43  2  0  0  0
 38 46  1  0  0  0
 38 47  1  0  0  0
 39 64  1  0  0  0
 39 67  2  0  0  0
 40 52  1  0  0  0
 40 53  2  0  0  0
 40 58  1  0  0  0
 41112  1  0  0  0
 41113  1  0  0  0
 41114  1  0  0  0
 41 48  1  0  0  0
 42 43  1  0  0  0
 42 66  1  0  0  0
 42115  1  0  0  0
 42116  1  0  0  0
 43 44  1  0  0  0
 44117  1  0  0  0
 45 46  2  0  0  0
 45118  1  0  0  0
 46119  1  0  0  0
 47120  1  0  0  0
 47121  1  0  0  0
 48 56  1  0  0  0
 48 65  1  0  0  0
 48122  1  0  0  0
 49 50  1  0  0  0
 49 53  1  0  0  0
 49 64  1  0  0  0
 49123  1  0  0  0
 50 51  1  0  0  0
 50124  1  0  0  0
 50125  1  0  0  0
 51 52  1  0  0  0
 51126  1  0  0  0
 51127  1  0  0  0
 52128  1  0  0  0
 52129  1  0  0  0
 53 54  1  0  0  0
 54 55  2  0  0  0
 54130  1  0  0  0
 55 57  1  0  0  0
 55131  1  0  0  0
 56 69  2  0  0  0
 57 58  2  0  0  0
 57132  1  0  0  0
 58133  1  0  0  0
 59 60  1  0  0  0
 59 61  1  0  0  0
 59 62  1  0  0  0
 60134  1  0  0  0
 60135  1  0  0  0
 60136  1  0  0  0
 61137  1  0  0  0
 61138  1  0  0  0
 61139  1  0  0  0
 62140  1  0  0  0
 62141  1  0  0  0
 62142  1  0  0  0
 63 65  1  0  0  0
 63143  1  0  0  0
 63144  1  0  0  0
 63145  1  0  0  0
 64146  1  0  0  0
 65147  1  0  0  0
 68 83  1  0  0  0
 71 72  2  0  0  0
 71 74  1  0  0  0
 71148  1  0  0  0
 72 75  1  0  0  0
 72149  1  0  0  0
 73 75  2  0  0  0
 73 76  1  0  0  0
 73150  1  0  0  0
 74 76  2  0  0  0
 74 78  1  0  0  0
 75 84  1  0  0  0
 76 88  1  0  0  0
 77 79  1  0  0  0
 77 82  1  0  0  0
 77 86  2  0  0  0
 78 85  1  0  0  0
 78 87  2  0  0  0
 79 80  1  0  0  0
 79151  1  0  0  0
 79152  1  0  0  0
 80 84  1  0  0  0
 80153  1  0  0  0
 80154  1  0  0  0
 81 82  1  0  0  0
 81 84  1  0  0  0
 81155  1  0  0  0
 81156  1  0  0  0
 82 83  1  0  0  0
 82157  1  0  0  0
 83158  1  0  0  0
 83159  1  0  0  0
 85160  1  0  0  0
M  ISO  4   1 100  68 101  83 101  85 100
M  END
> <chiral flag>
0

> <version>
0

> <s_m_source_file>
/data/baiqing/PycharmProjects/Reinvent-master-3.2/result/LINK_invent/BTK/process_docking_weight1_custom_product_contain_oxygen_bond_distance_aromatic_linkinvent_7_9_3/rearranged_h_0100.sdf

> <i_m_source_file_index>
20

> <r_mmod_Potential_Energy-OPLS-2005>
11863.5166015625

> <r_mmod_Stretch_Energy-OPLS-2005>
6812.6669921875

> <r_mmod_Bend_Energy-OPLS-2005>
914.794738769531

> <r_mmod_Torsional_Energy-OPLS-2005>
466.1904296875

> <r_mmod_Improper_Torsional_Energy-OPLS-2005>
57.7037620544434

> <r_mmod_Van_der_Waal_Energy-OPLS-2005>
2846.85546875

> <r_mmod_Electrostatic_Energy-OPLS-2005>
-480.405059814453

> <r_mmod_Solvation_Energy-OPLS-2005>
-234.283340454102

> <b_mmod_Minimization_Converged-OPLS-2005>
0

> <r_mmod_RMS_Derivative-OPLS-2005>
9.31733798980713

$$$$
20
                    3D
 Structure written by MMmdl.
158167  0  0  1  0            999 V2000
  -30.6923  -14.4673   20.5865 C   0  0  0  0  0  0
  -30.4282  -12.3087   19.4184 C   0  0  0  0  0  0
  -29.4942  -12.5110   18.2063 C   0  0  0  0  0  0
  -28.0149  -12.3702   18.6173 C   0  0  0  0  0  0
  -27.6632  -13.2031   19.8787 C   0  0  2  0  0  0
  -28.7042  -12.9667   20.9967 C   0  0  0  0  0  0
  -25.2598  -13.8151   20.5687 C   0  0  0  0  0  0
  -24.1838  -13.0441   20.9166 C   0  0  0  0  0  0
  -24.6374  -11.6904   20.8716 C   0  0  0  0  0  0
  -23.9039  -10.4299   21.0393 C   0  0  0  0  0  0
  -24.3598   -9.4221   21.9168 C   0  0  0  0  0  0
  -23.6283   -8.2249   22.0744 C   0  0  0  0  0  0
  -22.4264   -8.0281   21.3540 C   0  0  0  0  0  0
  -21.9891   -9.0245   20.4641 C   0  0  0  0  0  0
  -22.7210  -10.2129   20.3051 C   0  0  0  0  0  0
  -21.6857   -6.0736   22.5273 C   0  0  0  0  0  0
  -21.4012   -6.5631   23.8213 C   0  0  0  0  0  0
  -21.3663   -5.6786   24.9169 C   0  0  0  0  0  0
  -21.6050   -4.3052   24.7224 C   0  0  0  0  0  0
  -21.8821   -3.8147   23.4344 C   0  0  0  0  0  0
  -21.9190   -4.6961   22.3400 C   0  0  0  0  0  0
  -22.7856  -13.5240   21.1840 C   0  0  0  0  0  0
  -22.1661   -4.2154   21.0973 F   0  0  0  0  0  0
  -21.5636   -3.4535   25.7730 F   0  0  0  0  0  0
  -30.0385  -13.2800   20.4528 N   0  0  0  0  0  0
  -26.3027  -12.9302   20.3376 N   0  0  0  0  0  0
  -25.9292  -11.6469   20.5738 N   0  0  0  0  0  0
  -22.0506  -12.8225   22.0396 N   0  0  0  0  0  0
  -25.4362  -15.1859   20.4112 N   0  0  0  0  0  0
  -31.8090  -14.6808   20.1048 O   0  0  0  0  0  0
  -21.6645   -6.8872   21.4232 O   0  0  0  0  0  0
  -22.3536  -14.5536   20.6682 O   0  0  0  0  0  0
  -24.6168  -31.8671   23.2117 C   0  0  0  0  0  0
  -25.9059  -32.4818   23.8404 C   0  0  1  0  0  0
  -27.2264  -27.4232   20.0975 C   0  0  0  0  0  0
  -25.5913  -33.8617   24.2328 N   0  0  0  0  0  0
  -23.4046  -30.4952   21.5512 C   0  0  2  0  0  0
  -24.8492  -28.9692   20.1080 C   0  0  0  0  0  0
  -22.7427  -29.4664   22.4964 C   0  0  0  0  0  0
  -18.0273  -28.1384   22.8490 C   0  0  0  0  0  0
  -24.1482  -36.7315   23.2637 C   0  0  0  0  0  0
  -25.9371  -30.8293   21.3702 C   0  0  0  0  0  0
  -26.0117  -29.4679   20.7093 C   0  0  0  0  0  0
  -27.2032  -28.7037   20.6988 C   0  0  0  0  0  0
  -26.0466  -26.9573   19.4660 C   0  0  0  0  0  0
  -24.8634  -27.7157   19.4785 C   0  0  0  0  0  0
  -23.6126  -29.8363   20.1627 C   0  0  0  0  0  0
  -25.4100  -36.3102   24.0334 C   0  0  1  0  0  0
  -20.5870  -28.3679   23.1300 C   0  0  2  0  0  0
  -20.6764  -26.9409   22.5410 C   0  0  0  0  0  0
  -19.5738  -26.6390   21.5213 C   0  0  0  0  0  0
  -18.1920  -26.7926   22.1632 C   0  0  0  0  0  0
  -19.1527  -28.8846   23.2895 C   0  0  0  0  0  0
  -18.9455  -30.1452   23.8908 C   0  0  0  0  0  0
  -17.6459  -30.6590   24.0568 C   0  0  0  0  0  0
  -25.9033  -34.9474   23.5127 C   0  0  0  0  0  0
  -16.5348  -29.9097   23.6324 C   0  0  0  0  0  0
  -16.7265  -28.6514   23.0340 C   0  0  0  0  0  0
  -26.4484  -31.6601   25.0743 C   0  0  0  0  0  0
  -25.3760  -31.3732   26.1509 C   0  0  0  0  0  0
  -27.0310  -30.3026   24.6159 C   0  0  0  0  0  0
  -27.6056  -32.4334   25.7500 C   0  0  0  0  0  0
  -27.5579  -37.1801   24.8456 C   0  0  0  0  0  0
  -21.4149  -29.3050   22.3712 N   0  0  0  0  0  0
  -26.4281  -37.3795   23.9417 N   0  0  0  0  0  0
  -24.6706  -31.0777   22.1020 N   0  0  0  0  0  0
  -23.4186  -28.8192   23.3003 O   0  0  0  0  0  0
  -28.3759  -26.6508   20.1583 O   0  0  0  0  0  0
  -26.5594  -34.8924   22.4689 O   0  0  0  0  0  0
  -23.5362  -32.1432   23.7510 O   0  0  0  0  0  0
  -29.0386  -18.6982   19.6307 C   0  0  0  0  0  0
  -29.0494  -17.3305   19.9725 C   0  0  0  0  0  0
  -30.9686  -17.7119   21.4144 C   0  0  0  0  0  0
  -29.9749  -19.6008   20.1861 C   0  0  0  0  0  0
  -30.0257  -16.8190   20.8522 C   0  0  0  0  0  0
  -30.9426  -19.0929   21.0903 C   0  0  0  0  0  0
  -29.9658  -21.0376   19.7161 C   0  0  0  0  0  0
  -30.6072  -24.3117   20.1014 C   0  0  0  0  0  0
  -31.1812  -22.9613   20.5453 C   0  0  0  0  0  0
  -28.8522  -22.8615   20.8616 C   0  0  0  0  0  0
  -29.2492  -24.3570   20.7838 C   0  0  2  0  0  0
  -28.1765  -25.2252   20.0809 C   0  0  0  0  0  0
  -30.0508  -22.0301   20.6326 N   0  0  0  0  0  0
  -29.9868  -15.4365   21.1996 N   0  0  0  0  0  0
  -29.7977  -21.2809   18.5148 O   0  0  0  0  0  0
  -31.8766  -19.9122   21.6330 F   0  0  0  0  0  0
  -31.4694  -12.4203   19.1112 H   0  0  0  0  0  0
  -30.3405  -11.2935   19.8077 H   0  0  0  0  0  0
  -29.7330  -11.7904   17.4229 H   0  0  0  0  0  0
  -29.6611  -13.4995   17.7753 H   0  0  0  0  0  0
  -27.8200  -11.3136   18.8030 H   0  0  0  0  0  0
  -27.3681  -12.6568   17.7875 H   0  0  0  0  0  0
  -27.7114  -14.2528   19.5886 H   0  0  0  0  0  0
  -28.6794  -11.9253   21.3194 H   0  0  0  0  0  0
  -28.4595  -13.5463   21.8876 H   0  0  0  0  0  0
  -25.2743   -9.5698   22.4725 H   0  0  0  0  0  0
  -24.0011   -7.4641   22.7438 H   0  0  0  0  0  0
  -21.0834   -8.8736   19.8923 H   0  0  0  0  0  0
  -22.3664  -10.9656   19.6150 H   0  0  0  0  0  0
  -21.1996   -7.6142   23.9709 H   0  0  0  0  0  0
  -21.1484   -6.0521   25.9069 H   0  0  0  0  0  0
  -22.0596   -2.7609   23.2840 H   0  0  0  0  0  0
  -22.4140  -11.9885   22.4769 H   0  0  0  0  0  0
  -21.1110  -13.1223   22.2600 H   0  0  0  0  0  0
  -24.6751  -15.8471   20.5165 H   0  0  0  0  0  0
  -26.2946  -15.6182   20.0958 H   0  0  0  0  0  0
  -26.7133  -32.5514   23.1166 H   0  0  0  0  0  0
  -25.0066  -33.9771   25.0474 H   0  0  0  0  0  0
  -22.6947  -31.3135   21.4157 H   0  0  0  0  0  0
  -23.3741  -35.9651   23.3292 H   0  0  0  0  0  0
  -24.3580  -36.8941   22.2051 H   0  0  0  0  0  0
  -23.7233  -37.6519   23.6658 H   0  0  0  0  0  0
  -26.0613  -31.5997   20.6081 H   0  0  0  0  0  0
  -26.8208  -30.8706   21.9953 H   0  0  0  0  0  0
  -28.0968  -29.0810   21.1762 H   0  0  0  0  0  0
  -26.0146  -26.0037   18.9596 H   0  0  0  0  0  0
  -23.9746  -27.3313   18.9966 H   0  0  0  0  0  0
  -23.7224  -30.6159   19.4077 H   0  0  0  0  0  0
  -22.7353  -29.2596   19.8635 H   0  0  0  0  0  0
  -25.1272  -36.1963   25.0825 H   0  0  0  0  0  0
  -20.9961  -28.3247   24.1420 H   0  0  0  0  0  0
  -20.5667  -26.2287   23.3604 H   0  0  0  0  0  0
  -21.6632  -26.7450   22.1198 H   0  0  0  0  0  0
  -19.6897  -25.6305   21.1231 H   0  0  0  0  0  0
  -19.6668  -27.3211   20.6749 H   0  0  0  0  0  0
  -17.4183  -26.6668   21.4042 H   0  0  0  0  0  0
  -18.0329  -26.0068   22.9032 H   0  0  0  0  0  0
  -19.7933  -30.7265   24.2274 H   0  0  0  0  0  0
  -17.5016  -31.6265   24.5183 H   0  0  0  0  0  0
  -15.5350  -30.3009   23.7640 H   0  0  0  0  0  0
  -15.8662  -28.0848   22.7037 H   0  0  0  0  0  0
  -24.5897  -30.7115   25.7863 H   0  0  0  0  0  0
  -24.9008  -32.2906   26.4992 H   0  0  0  0  0  0
  -25.8122  -30.8873   27.0246 H   0  0  0  0  0  0
  -26.2859  -29.6787   24.1210 H   0  0  0  0  0  0
  -27.4042  -29.7271   25.4640 H   0  0  0  0  0  0
  -27.8717  -30.4312   23.9338 H   0  0  0  0  0  0
  -27.2665  -33.3634   26.2080 H   0  0  0  0  0  0
  -28.3863  -32.6902   25.0325 H   0  0  0  0  0  0
  -28.0730  -31.8465   26.5419 H   0  0  0  0  0  0
  -28.2582  -38.0113   24.7531 H   0  0  0  0  0  0
  -28.1087  -36.2649   24.6239 H   0  0  0  0  0  0
  -27.2305  -37.1402   25.8860 H   0  0  0  0  0  0
  -20.9307  -29.8790   21.6954 H   0  0  0  0  0  0
  -26.0166  -38.2867   24.1447 H   0  0  0  0  0  0
  -28.2992  -19.0608   18.9297 H   0  0  0  0  0  0
  -28.3103  -16.6751   19.5321 H   0  0  0  0  0  0
  -31.7228  -17.3408   22.0936 H   0  0  0  0  0  0
  -30.4853  -24.3203   19.0174 H   0  0  0  0  0  0
  -31.2432  -25.1547   20.3703 H   0  0  0  0  0  0
  -31.6235  -23.0452   21.5401 H   0  0  0  0  0  0
  -31.9722  -22.6219   19.8727 H   0  0  0  0  0  0
  -28.0733  -22.6416   20.1272 H   0  0  0  0  0  0
  -28.4207  -22.6286   21.8362 H   0  0  0  0  0  0
  -29.3863  -24.7211   21.8043 H   0  0  0  0  0  0
  -27.2311  -24.9601   20.5592 H   0  0  0  0  0  0
  -28.0934  -24.9353   19.0325 H   0  0  0  0  0  0
  -29.1038  -15.1053   21.5583 H   0  0  0  0  0  0
  1 25  1  0  0  0
  1 30  2  0  0  0
  1 84  1  0  0  0
  2  3  1  0  0  0
  2 25  1  0  0  0
  2 87  1  0  0  0
  2 88  1  0  0  0
  3  4  1  0  0  0
  3 89  1  0  0  0
  3 90  1  0  0  0
  4  5  1  0  0  0
  4 91  1  0  0  0
  4 92  1  0  0  0
  5  6  1  0  0  0
  5 26  1  0  0  0
  5 93  1  0  0  0
  6 25  1  0  0  0
  6 94  1  0  0  0
  6 95  1  0  0  0
  7  8  2  0  0  0
  7 26  1  0  0  0
  7 29  1  0  0  0
  8  9  1  0  0  0
  8 22  1  0  0  0
  9 10  1  0  0  0
  9 27  2  0  0  0
 10 11  2  0  0  0
 10 15  1  0  0  0
 11 12  1  0  0  0
 11 96  1  0  0  0
 12 13  2  0  0  0
 12 97  1  0  0  0
 13 14  1  0  0  0
 13 31  1  0  0  0
 14 15  2  0  0  0
 14 98  1  0  0  0
 15 99  1  0  0  0
 16 17  2  0  0  0
 16 21  1  0  0  0
 16 31  1  0  0  0
 17 18  1  0  0  0
 17100  1  0  0  0
 18 19  2  0  0  0
 18101  1  0  0  0
 19 20  1  0  0  0
 19 24  1  0  0  0
 20 21  2  0  0  0
 20102  1  0  0  0
 21 23  1  0  0  0
 22 28  1  0  0  0
 22 32  2  0  0  0
 26 27  1  0  0  0
 28103  1  0  0  0
 28104  1  0  0  0
 29105  1  0  0  0
 29106  1  0  0  0
 33 34  1  0  0  0
 33 66  1  0  0  0
 33 70  2  0  0  0
 34 36  1  0  0  0
 34 59  1  0  0  0
 34107  1  0  0  0
 35 44  2  0  0  0
 35 45  1  0  0  0
 35 68  1  0  0  0
 36 56  1  0  0  0
 36108  1  0  0  0
 37 39  1  0  0  0
 37 47  1  0  0  0
 37 66  1  0  0  0
 37109  1  0  0  0
 38 43  2  0  0  0
 38 46  1  0  0  0
 38 47  1  0  0  0
 39 64  1  0  0  0
 39 67  2  0  0  0
 40 52  1  0  0  0
 40 53  2  0  0  0
 40 58  1  0  0  0
 41110  1  0  0  0
 41111  1  0  0  0
 41112  1  0  0  0
 41 48  1  0  0  0
 42 43  1  0  0  0
 42 66  1  0  0  0
 42113  1  0  0  0
 42114  1  0  0  0
 43 44  1  0  0  0
 44115  1  0  0  0
 45 46  2  0  0  0
 45116  1  0  0  0
 46117  1  0  0  0
 47118  1  0  0  0
 47119  1  0  0  0
 48 56  1  0  0  0
 48 65  1  0  0  0
 48120  1  0  0  0
 49 50  1  0  0  0
 49 53  1  0  0  0
 49 64  1  0  0  0
 49121  1  0  0  0
 50 51  1  0  0  0
 50122  1  0  0  0
 50123  1  0  0  0
 51 52  1  0  0  0
 51124  1  0  0  0
 51125  1  0  0  0
 52126  1  0  0  0
 52127  1  0  0  0
 53 54  1  0  0  0
 54 55  2  0  0  0
 54128  1  0  0  0
 55 57  1  0  0  0
 55129  1  0  0  0
 56 69  2  0  0  0
 57 58  2  0  0  0
 57130  1  0  0  0
 58131  1  0  0  0
 59 60  1  0  0  0
 59 61  1  0  0  0
 59 62  1  0  0  0
 60132  1  0  0  0
 60133  1  0  0  0
 60134  1  0  0  0
 61135  1  0  0  0
 61136  1  0  0  0
 61137  1  0  0  0
 62138  1  0  0  0
 62139  1  0  0  0
 62140  1  0  0  0
 63 65  1  0  0  0
 63141  1  0  0  0
 63142  1  0  0  0
 63143  1  0  0  0
 64144  1  0  0  0
 65145  1  0  0  0
 68 82  1  0  0  0
 71 72  2  0  0  0
 71 74  1  0  0  0
 71146  1  0  0  0
 72 75  1  0  0  0
 72147  1  0  0  0
 73 75  2  0  0  0
 73 76  1  0  0  0
 73148  1  0  0  0
 74 76  2  0  0  0
 74 77  1  0  0  0
 75 84  1  0  0  0
 76 86  1  0  0  0
 77 83  1  0  0  0
 77 85  2  0  0  0
 78 79  1  0  0  0
 78 81  1  0  0  0
 78149  1  0  0  0
 78150  1  0  0  0
 79 83  1  0  0  0
 79151  1  0  0  0
 79152  1  0  0  0
 80 81  1  0  0  0
 80 83  1  0  0  0
 80153  1  0  0  0
 80154  1  0  0  0
 81 82  1  0  0  0
 81155  1  0  0  0
 82156  1  0  0  0
 82157  1  0  0  0
 84158  1  0  0  0
M  ISO  4   1 100  68 101  82 101  84 100
M  END
> <chiral flag>
0

> <version>
0

> <s_m_source_file>
/data/baiqing/PycharmProjects/Reinvent-master-3.2/result/LINK_invent/BTK/process_docking_weight1_custom_product_contain_oxygen_bond_distance_aromatic_linkinvent_7_9_3/rearranged_h_0100.sdf

> <i_m_source_file_index>
21

> <r_mmod_Potential_Energy-OPLS-2005>
188.682983398438

> <r_mmod_Stretch_Energy-OPLS-2005>
39.6657981872559

> <r_mmod_Bend_Energy-OPLS-2005>
120.707160949707

> <r_mmod_Torsional_Energy-OPLS-2005>
385.269836425781

> <r_mmod_Improper_Torsional_Energy-OPLS-2005>
10.6854152679443

> <r_mmod_Van_der_Waal_Energy-OPLS-2005>
153.290451049805

> <r_mmod_Electrostatic_Energy-OPLS-2005>
-313.307983398438

> <r_mmod_Solvation_Energy-OPLS-2005>
-222.441513061523

> <b_mmod_Minimization_Converged-OPLS-2005>
0

> <r_mmod_RMS_Derivative-OPLS-2005>
1.88756191730499

$$$$
21
                    3D
 Structure written by MMmdl.
152160  0  0  1  0            999 V2000
  -30.6043  -14.6720   20.5067 C   0  0  0  0  0  0
  -30.4439  -12.4139   19.4653 C   0  0  0  0  0  0
  -29.5169  -12.5185   18.2334 C   0  0  0  0  0  0
  -28.0380  -12.3557   18.6377 C   0  0  0  0  0  0
  -27.6543  -13.2204   19.8681 C   0  0  2  0  0  0
  -28.6971  -13.0770   21.0000 C   0  0  0  0  0  0
  -25.2557  -13.8175   20.5672 C   0  0  0  0  0  0
  -24.1820  -13.0440   20.9165 C   0  0  0  0  0  0
  -24.6395  -11.6913   20.8720 C   0  0  0  0  0  0
  -23.9056  -10.4296   21.0391 C   0  0  0  0  0  0
  -24.3608   -9.4214   21.9173 C   0  0  0  0  0  0
  -23.6283   -8.2251   22.0750 C   0  0  0  0  0  0
  -22.4265   -8.0283   21.3541 C   0  0  0  0  0  0
  -21.9891   -9.0260   20.4647 C   0  0  0  0  0  0
  -22.7222  -10.2138   20.3053 C   0  0  0  0  0  0
  -21.6859   -6.0722   22.5269 C   0  0  0  0  0  0
  -21.4024   -6.5629   23.8205 C   0  0  0  0  0  0
  -21.3661   -5.6781   24.9166 C   0  0  0  0  0  0
  -21.6045   -4.3043   24.7220 C   0  0  0  0  0  0
  -21.8823   -3.8133   23.4340 C   0  0  0  0  0  0
  -21.9198   -4.6947   22.3390 C   0  0  0  0  0  0
  -22.7846  -13.5239   21.1829 C   0  0  0  0  0  0
  -22.1661   -4.2135   21.0963 F   0  0  0  0  0  0
  -21.5627   -3.4527   25.7735 F   0  0  0  0  0  0
  -30.0103  -13.4347   20.4421 N   0  0  0  0  0  0
  -26.2996  -12.9364   20.3325 N   0  0  0  0  0  0
  -25.9330  -11.6516   20.5756 N   0  0  0  0  0  0
  -22.0472  -12.8262   22.0396 N   0  0  0  0  0  0
  -25.4277  -15.1900   20.4107 N   0  0  0  0  0  0
  -31.7558  -14.8405   20.0952 O   0  0  0  0  0  0
  -21.6643   -6.8872   21.4235 O   0  0  0  0  0  0
  -22.3535  -14.5532   20.6667 O   0  0  0  0  0  0
  -24.6271  -31.8579   23.2024 C   0  0  0  0  0  0
  -25.9117  -32.4763   23.8349 C   0  0  1  0  0  0
  -27.2232  -27.3003   20.1174 C   0  0  0  0  0  0
  -25.5935  -33.8566   24.2272 N   0  0  0  0  0  0
  -23.4228  -30.4819   21.5442 C   0  0  2  0  0  0
  -24.8705  -28.9367   20.1095 C   0  0  0  0  0  0
  -22.7480  -29.4609   22.4912 C   0  0  0  0  0  0
  -18.0292  -28.1389   22.8470 C   0  0  0  0  0  0
  -24.1497  -36.7295   23.2634 C   0  0  0  0  0  0
  -25.9669  -30.7803   21.3815 C   0  0  0  0  0  0
  -26.0403  -29.4084   20.7188 C   0  0  0  0  0  0
  -27.2188  -28.6016   20.7142 C   0  0  0  0  0  0
  -26.0301  -26.8893   19.4790 C   0  0  0  0  0  0
  -24.8681  -27.6832   19.4803 C   0  0  0  0  0  0
  -23.6405  -29.8199   20.1583 C   0  0  0  0  0  0
  -25.4116  -36.3072   24.0325 C   0  0  1  0  0  0
  -20.5886  -28.3690   23.1275 C   0  0  2  0  0  0
  -20.6781  -26.9411   22.5412 C   0  0  0  0  0  0
  -19.5764  -26.6375   21.5210 C   0  0  0  0  0  0
  -18.1940  -26.7933   22.1611 C   0  0  0  0  0  0
  -19.1542  -28.8858   23.2867 C   0  0  0  0  0  0
  -18.9464  -30.1460   23.8887 C   0  0  0  0  0  0
  -17.6465  -30.6584   24.0564 C   0  0  0  0  0  0
  -25.9052  -34.9442   23.5100 C   0  0  0  0  0  0
  -16.5354  -29.9087   23.6326 C   0  0  0  0  0  0
  -16.7279  -28.6506   23.0335 C   0  0  0  0  0  0
  -26.4484  -31.6583   25.0735 C   0  0  0  0  0  0
  -25.3709  -31.3774   26.1470 C   0  0  0  0  0  0
  -27.0307  -30.2981   24.6239 C   0  0  0  0  0  0
  -27.6057  -32.4311   25.7491 C   0  0  0  0  0  0
  -27.5588  -37.1794   24.8445 C   0  0  0  0  0  0
  -21.4187  -29.3041   22.3663 N   0  0  0  0  0  0
  -26.4287  -37.3769   23.9410 N   0  0  0  0  0  0
  -24.6909  -31.0569   22.0991 N   0  0  0  0  0  0
  -23.4193  -28.8135   23.2989 O   0  0  0  0  0  0
  -28.3322  -26.4347   20.1736 O   0  0  0  0  0  0
  -26.5611  -34.8912   22.4661 O   0  0  0  0  0  0
  -23.5434  -32.1392   23.7339 O   0  0  0  0  0  0
  -30.7831  -19.3279   19.9175 C   0  0  0  0  0  0
  -30.8169  -17.8982   20.0002 C   0  0  0  0  0  0
  -28.8356  -19.3935   21.3059 C   0  0  0  0  0  0
  -29.8122  -20.1331   20.5879 C   0  0  0  0  0  0
  -29.8632  -17.1726   20.7617 C   0  0  0  0  0  0
  -28.8622  -17.9655   21.3910 C   0  0  0  0  0  0
  -29.9462  -21.6753   20.6677 C   0  0  0  0  0  0
  -29.2745  -24.0141   20.4440 C   0  0  0  0  0  0
  -31.3037  -22.0201   21.2851 C   0  0  0  0  0  0
  -28.1028  -24.9720   19.9822 C   0  0  0  0  0  0
  -29.0571  -22.5922   20.3265 N   0  0  0  0  0  0
  -29.8059  -15.7104   20.9221 N   0  0  0  0  0  0
  -30.2851  -24.5778   20.8661 O   0  0  0  0  0  0
  -27.9091  -17.3365   22.1204 F   0  0  0  0  0  0
  -31.4841  -12.5488   19.1644 H   0  0  0  0  0  0
  -30.3891  -11.4187   19.9088 H   0  0  0  0  0  0
  -29.7873  -11.7652   17.4926 H   0  0  0  0  0  0
  -29.6625  -13.4876   17.7513 H   0  0  0  0  0  0
  -27.8710  -11.3018   18.8624 H   0  0  0  0  0  0
  -27.3902  -12.5940   17.7932 H   0  0  0  0  0  0
  -27.6716  -14.2568   19.5324 H   0  0  0  0  0  0
  -28.7155  -12.0528   21.3750 H   0  0  0  0  0  0
  -28.4361  -13.7017   21.8553 H   0  0  0  0  0  0
  -25.2754   -9.5694   22.4744 H   0  0  0  0  0  0
  -23.9992   -7.4646   22.7478 H   0  0  0  0  0  0
  -21.0814   -8.8790   19.8957 H   0  0  0  0  0  0
  -22.3680  -10.9681   19.6165 H   0  0  0  0  0  0
  -21.2023   -7.6137   23.9706 H   0  0  0  0  0  0
  -21.1474   -6.0505   25.9067 H   0  0  0  0  0  0
  -22.0601   -2.7595   23.2846 H   0  0  0  0  0  0
  -22.4077  -11.9941   22.4834 H   0  0  0  0  0  0
  -21.1099  -13.1330   22.2584 H   0  0  0  0  0  0
  -24.6686  -15.8504   20.5367 H   0  0  0  0  0  0
  -26.2930  -15.6335   20.1306 H   0  0  0  0  0  0
  -26.7182  -32.5415   23.1092 H   0  0  0  0  0  0
  -25.0085  -33.9704   25.0420 H   0  0  0  0  0  0
  -22.7180  -31.3034   21.4007 H   0  0  0  0  0  0
  -23.3760  -35.9623   23.3270 H   0  0  0  0  0  0
  -24.3598  -36.8945   22.2054 H   0  0  0  0  0  0
  -23.7248  -37.6488   23.6678 H   0  0  0  0  0  0
  -26.1090  -31.5471   20.6191 H   0  0  0  0  0  0
  -26.8426  -30.8209   22.0178 H   0  0  0  0  0  0
  -28.1136  -28.9538   21.2085 H   0  0  0  0  0  0
  -25.9648  -25.9352   18.9788 H   0  0  0  0  0  0
  -23.9733  -27.3170   18.9961 H   0  0  0  0  0  0
  -23.7652  -30.5984   19.4047 H   0  0  0  0  0  0
  -22.7599  -29.2535   19.8505 H   0  0  0  0  0  0
  -25.1296  -36.1920   25.0816 H   0  0  0  0  0  0
  -20.9971  -28.3282   24.1400 H   0  0  0  0  0  0
  -20.5672  -26.2303   23.3613 H   0  0  0  0  0  0
  -21.6659  -26.7437   22.1222 H   0  0  0  0  0  0
  -19.6925  -25.6283   21.1250 H   0  0  0  0  0  0
  -19.6706  -27.3170   20.6729 H   0  0  0  0  0  0
  -17.4209  -26.6671   21.4016 H   0  0  0  0  0  0
  -18.0334  -26.0078   22.9008 H   0  0  0  0  0  0
  -19.7941  -30.7283   24.2245 H   0  0  0  0  0  0
  -17.5020  -31.6265   24.5171 H   0  0  0  0  0  0
  -15.5356  -30.2986   23.7665 H   0  0  0  0  0  0
  -15.8677  -28.0834   22.7044 H   0  0  0  0  0  0
  -24.5858  -30.7140   25.7825 H   0  0  0  0  0  0
  -24.8931  -32.2966   26.4876 H   0  0  0  0  0  0
  -25.8018  -30.8966   27.0260 H   0  0  0  0  0  0
  -26.2889  -29.6745   24.1235 H   0  0  0  0  0  0
  -27.3926  -29.7240   25.4781 H   0  0  0  0  0  0
  -27.8802  -30.4225   23.9520 H   0  0  0  0  0  0
  -27.2677  -33.3608   26.2083 H   0  0  0  0  0  0
  -28.3855  -32.6870   25.0306 H   0  0  0  0  0  0
  -28.0733  -31.8422   26.5394 H   0  0  0  0  0  0
  -28.2581  -38.0116   24.7533 H   0  0  0  0  0  0
  -28.1111  -36.2656   24.6209 H   0  0  0  0  0  0
  -27.2321  -37.1376   25.8848 H   0  0  0  0  0  0
  -20.9364  -29.8781   21.6886 H   0  0  0  0  0  0
  -26.0169  -38.2838   24.1428 H   0  0  0  0  0  0
  -31.5623  -19.8192   19.3511 H   0  0  0  0  0  0
  -31.6000  -17.3684   19.4781 H   0  0  0  0  0  0
  -28.0719  -19.9291   21.8505 H   0  0  0  0  0  0
  -31.8746  -21.1297   21.5489 H   0  0  0  0  0  0
  -31.1689  -22.5820   22.2099 H   0  0  0  0  0  0
  -31.9104  -22.5999   20.5893 H   0  0  0  0  0  0
  -27.2102  -24.6649   20.5284 H   0  0  0  0  0  0
  -27.9207  -24.7797   18.9245 H   0  0  0  0  0  0
  -28.9483  -15.3991   21.3516 H   0  0  0  0  0  0
  1 25  1  0  0  0
  1 30  2  0  0  0
  1 82  1  0  0  0
  2  3  1  0  0  0
  2 25  1  0  0  0
  2 85  1  0  0  0
  2 86  1  0  0  0
  3  4  1  0  0  0
  3 87  1  0  0  0
  3 88  1  0  0  0
  4  5  1  0  0  0
  4 89  1  0  0  0
  4 90  1  0  0  0
  5  6  1  0  0  0
  5 26  1  0  0  0
  5 91  1  0  0  0
  6 25  1  0  0  0
  6 92  1  0  0  0
  6 93  1  0  0  0
  7  8  2  0  0  0
  7 26  1  0  0  0
  7 29  1  0  0  0
  8  9  1  0  0  0
  8 22  1  0  0  0
  9 10  1  0  0  0
  9 27  2  0  0  0
 10 11  2  0  0  0
 10 15  1  0  0  0
 11 12  1  0  0  0
 11 94  1  0  0  0
 12 13  2  0  0  0
 12 95  1  0  0  0
 13 14  1  0  0  0
 13 31  1  0  0  0
 14 15  2  0  0  0
 14 96  1  0  0  0
 15 97  1  0  0  0
 16 17  2  0  0  0
 16 21  1  0  0  0
 16 31  1  0  0  0
 17 18  1  0  0  0
 17 98  1  0  0  0
 18 19  2  0  0  0
 18 99  1  0  0  0
 19 20  1  0  0  0
 19 24  1  0  0  0
 20 21  2  0  0  0
 20100  1  0  0  0
 21 23  1  0  0  0
 22 28  1  0  0  0
 22 32  2  0  0  0
 26 27  1  0  0  0
 28101  1  0  0  0
 28102  1  0  0  0
 29103  1  0  0  0
 29104  1  0  0  0
 33 34  1  0  0  0
 33 66  1  0  0  0
 33 70  2  0  0  0
 34 36  1  0  0  0
 34 59  1  0  0  0
 34105  1  0  0  0
 35 44  2  0  0  0
 35 45  1  0  0  0
 35 68  1  0  0  0
 36 56  1  0  0  0
 36106  1  0  0  0
 37 39  1  0  0  0
 37 47  1  0  0  0
 37 66  1  0  0  0
 37107  1  0  0  0
 38 43  2  0  0  0
 38 46  1  0  0  0
 38 47  1  0  0  0
 39 64  1  0  0  0
 39 67  2  0  0  0
 40 52  1  0  0  0
 40 53  2  0  0  0
 40 58  1  0  0  0
 41108  1  0  0  0
 41109  1  0  0  0
 41110  1  0  0  0
 41 48  1  0  0  0
 42 43  1  0  0  0
 42 66  1  0  0  0
 42111  1  0  0  0
 42112  1  0  0  0
 43 44  1  0  0  0
 44113  1  0  0  0
 45 46  2  0  0  0
 45114  1  0  0  0
 46115  1  0  0  0
 47116  1  0  0  0
 47117  1  0  0  0
 48 56  1  0  0  0
 48 65  1  0  0  0
 48118  1  0  0  0
 49 50  1  0  0  0
 49 53  1  0  0  0
 49 64  1  0  0  0
 49119  1  0  0  0
 50 51  1  0  0  0
 50120  1  0  0  0
 50121  1  0  0  0
 51 52  1  0  0  0
 51122  1  0  0  0
 51123  1  0  0  0
 52124  1  0  0  0
 52125  1  0  0  0
 53 54  1  0  0  0
 54 55  2  0  0  0
 54126  1  0  0  0
 55 57  1  0  0  0
 55127  1  0  0  0
 56 69  2  0  0  0
 57 58  2  0  0  0
 57128  1  0  0  0
 58129  1  0  0  0
 59 60  1  0  0  0
 59 61  1  0  0  0
 59 62  1  0  0  0
 60130  1  0  0  0
 60131  1  0  0  0
 60132  1  0  0  0
 61133  1  0  0  0
 61134  1  0  0  0
 61135  1  0  0  0
 62136  1  0  0  0
 62137  1  0  0  0
 62138  1  0  0  0
 63 65  1  0  0  0
 63139  1  0  0  0
 63140  1  0  0  0
 63141  1  0  0  0
 64142  1  0  0  0
 65143  1  0  0  0
 68 80  1  0  0  0
 71 72  2  0  0  0
 71 74  1  0  0  0
 71144  1  0  0  0
 72 75  1  0  0  0
 72145  1  0  0  0
 73 74  2  0  0  0
 73 76  1  0  0  0
 73146  1  0  0  0
 74 77  1  0  0  0
 75 76  2  0  0  0
 75 82  1  0  0  0
 76 84  1  0  0  0
 77 79  1  0  0  0
 77 81  2  0  0  0
 78 80  1  0  0  0
 78 81  1  0  0  0
 78 83  2  0  0  0
 79147  1  0  0  0
 79148  1  0  0  0
 79149  1  0  0  0
 80150  1  0  0  0
 80151  1  0  0  0
 82152  1  0  0  0
M  ISO  4   1 100  68 101  80 101  82 100
M  END
> <chiral flag>
0

> <version>
0

> <s_m_source_file>
/data/baiqing/PycharmProjects/Reinvent-master-3.2/result/LINK_invent/BTK/process_docking_weight1_custom_product_contain_oxygen_bond_distance_aromatic_linkinvent_7_9_3/rearranged_h_0100.sdf

> <i_m_source_file_index>
22

> <r_mmod_Potential_Energy-OPLS-2005>
62.5941429138184

> <r_mmod_Stretch_Energy-OPLS-2005>
98.6975326538086

> <r_mmod_Bend_Energy-OPLS-2005>
152.878372192383

> <r_mmod_Torsional_Energy-OPLS-2005>
226.057174682617

> <r_mmod_Improper_Torsional_Energy-OPLS-2005>
4.10669565200806

> <r_mmod_Van_der_Waal_Energy-OPLS-2005>
159.684524536133

> <r_mmod_Electrostatic_Energy-OPLS-2005>
-432.468688964844

> <r_mmod_Solvation_Energy-OPLS-2005>
-204.979904174805

> <b_mmod_Minimization_Converged-OPLS-2005>
0

> <r_mmod_RMS_Derivative-OPLS-2005>
1.61290156841278

$$$$
22
                    3D
 Structure written by MMmdl.
159167  0  0  1  0            999 V2000
  -30.7076  -14.4256   20.5764 C   0  0  0  0  0  0
  -30.4130  -12.2820   19.4104 C   0  0  0  0  0  0
  -29.4841  -12.4928   18.1976 C   0  0  0  0  0  0
  -28.0062  -12.3580   18.6122 C   0  0  0  0  0  0
  -27.6589  -13.1997   19.8687 C   0  0  2  0  0  0
  -28.6981  -12.9711   20.9901 C   0  0  0  0  0  0
  -25.2580  -13.8156   20.5699 C   0  0  0  0  0  0
  -24.1841  -13.0450   20.9155 C   0  0  0  0  0  0
  -24.6381  -11.6900   20.8738 C   0  0  0  0  0  0
  -23.9064  -10.4295   21.0418 C   0  0  0  0  0  0
  -24.3625   -9.4196   21.9180 C   0  0  0  0  0  0
  -23.6303   -8.2228   22.0749 C   0  0  0  0  0  0
  -22.4254   -8.0281   21.3572 C   0  0  0  0  0  0
  -21.9906   -9.0244   20.4643 C   0  0  0  0  0  0
  -22.7246  -10.2131   20.3054 C   0  0  0  0  0  0
  -21.6858   -6.0756   22.5278 C   0  0  0  0  0  0
  -21.4012   -6.5648   23.8210 C   0  0  0  0  0  0
  -21.3654   -5.6806   24.9164 C   0  0  0  0  0  0
  -21.6037   -4.3066   24.7230 C   0  0  0  0  0  0
  -21.8828   -3.8158   23.4349 C   0  0  0  0  0  0
  -21.9187   -4.6981   22.3396 C   0  0  0  0  0  0
  -22.7884  -13.5246   21.1853 C   0  0  0  0  0  0
  -22.1669   -4.2154   21.0988 F   0  0  0  0  0  0
  -21.5618   -3.4532   25.7748 F   0  0  0  0  0  0
  -30.0293  -13.2620   20.4347 N   0  0  0  0  0  0
  -26.2993  -12.9292   20.3345 N   0  0  0  0  0  0
  -25.9286  -11.6448   20.5756 N   0  0  0  0  0  0
  -22.0520  -12.8226   22.0389 N   0  0  0  0  0  0
  -25.4320  -15.1883   20.4135 N   0  0  0  0  0  0
  -31.8336  -14.6129   20.1038 O   0  0  0  0  0  0
  -21.6643   -6.8875   21.4240 O   0  0  0  0  0  0
  -22.3543  -14.5541   20.6691 O   0  0  0  0  0  0
  -24.6109  -31.8707   23.2099 C   0  0  0  0  0  0
  -25.9032  -32.4814   23.8402 C   0  0  1  0  0  0
  -27.2547  -27.4657   20.1070 C   0  0  0  0  0  0
  -25.5896  -33.8626   24.2342 N   0  0  0  0  0  0
  -23.4025  -30.4909   21.5400 C   0  0  2  0  0  0
  -24.8661  -28.9571   20.1222 C   0  0  0  0  0  0
  -22.7412  -29.4668   22.4912 C   0  0  0  0  0  0
  -18.0296  -28.1390   22.8498 C   0  0  0  0  0  0
  -24.1497  -36.7314   23.2633 C   0  0  0  0  0  0
  -25.9319  -30.8440   21.3733 C   0  0  0  0  0  0
  -26.0163  -29.4772   20.7293 C   0  0  0  0  0  0
  -27.2160  -28.7321   20.7277 C   0  0  0  0  0  0
  -26.0871  -26.9521   19.5000 C   0  0  0  0  0  0
  -24.8897  -27.6882   19.5161 C   0  0  0  0  0  0
  -23.6249  -29.8168   20.1535 C   0  0  0  0  0  0
  -25.4107  -36.3106   24.0326 C   0  0  1  0  0  0
  -20.5886  -28.3721   23.1312 C   0  0  2  0  0  0
  -20.6778  -26.9432   22.5452 C   0  0  0  0  0  0
  -19.5760  -26.6415   21.5239 C   0  0  0  0  0  0
  -18.1953  -26.7918   22.1668 C   0  0  0  0  0  0
  -19.1554  -28.8872   23.2895 C   0  0  0  0  0  0
  -18.9455  -30.1468   23.8889 C   0  0  0  0  0  0
  -17.6468  -30.6607   24.0557 C   0  0  0  0  0  0
  -25.9045  -34.9479   23.5161 C   0  0  0  0  0  0
  -16.5352  -29.9088   23.6346 C   0  0  0  0  0  0
  -16.7286  -28.6507   23.0342 C   0  0  0  0  0  0
  -26.4498  -31.6569   25.0726 C   0  0  0  0  0  0
  -25.3761  -31.3693   26.1466 C   0  0  0  0  0  0
  -27.0322  -30.3003   24.6129 C   0  0  0  0  0  0
  -27.6073  -32.4295   25.7483 C   0  0  0  0  0  0
  -27.5591  -37.1806   24.8464 C   0  0  0  0  0  0
  -21.4159  -29.3071   22.3702 N   0  0  0  0  0  0
  -26.4301  -37.3779   23.9409 N   0  0  0  0  0  0
  -24.6635  -31.0822   22.1011 N   0  0  0  0  0  0
  -23.4194  -28.8203   23.2946 O   0  0  0  0  0  0
  -28.4276  -26.7583   20.0548 O   0  0  0  0  0  0
  -26.5573  -34.8911   22.4699 O   0  0  0  0  0  0
  -23.5289  -32.1431   23.7487 O   0  0  0  0  0  0
  -28.4915  -18.0264   20.5256 C   0  0  0  0  0  0
  -27.6612  -19.1635   20.5837 C   0  0  0  0  0  0
  -29.6655  -18.7843   22.5273 C   0  0  0  0  0  0
  -29.5294  -17.8626   21.4717 C   0  0  0  0  0  0
  -27.8713  -20.1451   21.5850 C   0  0  0  0  0  0
  -28.8281  -19.9142   22.5957 C   0  0  0  0  0  0
  -26.7764  -22.1399   20.5848 C   0  0  0  0  0  0
  -30.5682  -16.7661   21.3146 C   0  0  0  0  0  0
  -26.7663  -23.6518   20.8097 C   0  0  0  0  0  0
  -27.9891  -24.3298   20.1407 C   0  0  0  0  0  0
  -28.4748  -25.5941   20.8764 C   0  0  0  0  0  0
  -28.9832  -20.8212   23.6469 N   0  0  0  0  0  0
  -27.2512  -21.4177   21.6074 N   0  0  0  0  0  0
  -30.0255  -15.4241   21.1533 N   0  0  0  0  0  0
  -26.3326  -21.6737   19.5388 O   0  0  0  0  0  0
  -31.4575  -12.3793   19.1093 H   0  0  0  0  0  0
  -30.3095  -11.2714   19.8084 H   0  0  0  0  0  0
  -29.7207  -11.7685   17.4167 H   0  0  0  0  0  0
  -29.6569  -13.4808   17.7668 H   0  0  0  0  0  0
  -27.8122  -11.3048   18.8086 H   0  0  0  0  0  0
  -27.3565  -12.6363   17.7846 H   0  0  0  0  0  0
  -27.7053  -14.2497   19.5740 H   0  0  0  0  0  0
  -28.6651  -11.9339   21.3317 H   0  0  0  0  0  0
  -28.4588  -13.5724   21.8702 H   0  0  0  0  0  0
  -25.2765   -9.5678   22.4756 H   0  0  0  0  0  0
  -24.0010   -7.4622   22.7471 H   0  0  0  0  0  0
  -21.0825   -8.8771   19.8953 H   0  0  0  0  0  0
  -22.3682  -10.9685   19.6166 H   0  0  0  0  0  0
  -21.2015   -7.6143   23.9721 H   0  0  0  0  0  0
  -21.1462   -6.0525   25.9079 H   0  0  0  0  0  0
  -22.0609   -2.7609   23.2845 H   0  0  0  0  0  0
  -22.4150  -11.9882   22.4782 H   0  0  0  0  0  0
  -21.1135  -13.1249   22.2631 H   0  0  0  0  0  0
  -24.6704  -15.8437   20.5460 H   0  0  0  0  0  0
  -26.2916  -15.6316   20.1173 H   0  0  0  0  0  0
  -26.7163  -32.5568   23.1221 H   0  0  0  0  0  0
  -25.0051  -33.9804   25.0485 H   0  0  0  0  0  0
  -22.6923  -31.3067   21.3853 H   0  0  0  0  0  0
  -23.3751  -35.9670   23.3296 H   0  0  0  0  0  0
  -24.3601  -36.8908   22.2056 H   0  0  0  0  0  0
  -23.7270  -37.6524   23.6649 H   0  0  0  0  0  0
  -26.0559  -31.6068   20.6005 H   0  0  0  0  0  0
  -26.8147  -30.8919   21.9970 H   0  0  0  0  0  0
  -28.1074  -29.1180   21.2148 H   0  0  0  0  0  0
  -26.1051  -25.9821   19.0160 H   0  0  0  0  0  0
  -24.0037  -27.2844   19.0456 H   0  0  0  0  0  0
  -23.7398  -30.5836   19.3832 H   0  0  0  0  0  0
  -22.7547  -29.2260   19.8583 H   0  0  0  0  0  0
  -25.1301  -36.1960   25.0815 H   0  0  0  0  0  0
  -21.0006  -28.3294   24.1408 H   0  0  0  0  0  0
  -20.5627  -26.2324   23.3675 H   0  0  0  0  0  0
  -21.6687  -26.7407   22.1298 H   0  0  0  0  0  0
  -19.6955  -25.6363   21.1214 H   0  0  0  0  0  0
  -19.6689  -27.3257   20.6801 H   0  0  0  0  0  0
  -17.4214  -26.6620   21.4093 H   0  0  0  0  0  0
  -18.0406  -26.0071   22.9101 H   0  0  0  0  0  0
  -19.7898  -30.7327   24.2243 H   0  0  0  0  0  0
  -17.4972  -31.6272   24.5147 H   0  0  0  0  0  0
  -15.5344  -30.2969   23.7640 H   0  0  0  0  0  0
  -15.8683  -28.0798   22.7063 H   0  0  0  0  0  0
  -24.5951  -30.7030   25.7803 H   0  0  0  0  0  0
  -24.8941  -32.2859   26.4912 H   0  0  0  0  0  0
  -25.8098  -30.8869   27.0234 H   0  0  0  0  0  0
  -26.2885  -29.6761   24.1193 H   0  0  0  0  0  0
  -27.4080  -29.7264   25.4601 H   0  0  0  0  0  0
  -27.8728  -30.4300   23.9308 H   0  0  0  0  0  0
  -27.2718  -33.3600   26.2108 H   0  0  0  0  0  0
  -28.3880  -32.6850   25.0293 H   0  0  0  0  0  0
  -28.0789  -31.8388   26.5365 H   0  0  0  0  0  0
  -28.2597  -38.0111   24.7497 H   0  0  0  0  0  0
  -28.1078  -36.2629   24.6301 H   0  0  0  0  0  0
  -27.2303  -37.1480   25.8862 H   0  0  0  0  0  0
  -20.9323  -29.8802   21.6952 H   0  0  0  0  0  0
  -26.0177  -38.2852   24.1389 H   0  0  0  0  0  0
  -28.3679  -17.3163   19.7208 H   0  0  0  0  0  0
  -26.9095  -19.2946   19.8205 H   0  0  0  0  0  0
  -30.4510  -18.6491   23.2573 H   0  0  0  0  0  0
  -31.2557  -16.7635   22.1629 H   0  0  0  0  0  0
  -31.1629  -17.0411   20.4391 H   0  0  0  0  0  0
  -26.7910  -23.8380   21.8804 H   0  0  0  0  0  0
  -25.8227  -24.0610   20.4397 H   0  0  0  0  0  0
  -27.7918  -24.5662   19.0963 H   0  0  0  0  0  0
  -28.8208  -23.6257   20.0902 H   0  0  0  0  0  0
  -27.9174  -25.7872   21.7916 H   0  0  0  0  0  0
  -29.5068  -25.4444   21.1977 H   0  0  0  0  0  0
  -29.6331  -20.5432   24.3734 H   0  0  0  0  0  0
  -28.1215  -21.1475   24.0721 H   0  0  0  0  0  0
  -27.5487  -21.9698   22.4027 H   0  0  0  0  0  0
  -29.0865  -15.2429   21.4777 H   0  0  0  0  0  0
  1 25  1  0  0  0
  1 30  2  0  0  0
  1 84  1  0  0  0
  2  3  1  0  0  0
  2 25  1  0  0  0
  2 86  1  0  0  0
  2 87  1  0  0  0
  3  4  1  0  0  0
  3 88  1  0  0  0
  3 89  1  0  0  0
  4  5  1  0  0  0
  4 90  1  0  0  0
  4 91  1  0  0  0
  5  6  1  0  0  0
  5 26  1  0  0  0
  5 92  1  0  0  0
  6 25  1  0  0  0
  6 93  1  0  0  0
  6 94  1  0  0  0
  7  8  2  0  0  0
  7 26  1  0  0  0
  7 29  1  0  0  0
  8  9  1  0  0  0
  8 22  1  0  0  0
  9 10  1  0  0  0
  9 27  2  0  0  0
 10 11  2  0  0  0
 10 15  1  0  0  0
 11 12  1  0  0  0
 11 95  1  0  0  0
 12 13  2  0  0  0
 12 96  1  0  0  0
 13 14  1  0  0  0
 13 31  1  0  0  0
 14 15  2  0  0  0
 14 97  1  0  0  0
 15 98  1  0  0  0
 16 17  2  0  0  0
 16 21  1  0  0  0
 16 31  1  0  0  0
 17 18  1  0  0  0
 17 99  1  0  0  0
 18 19  2  0  0  0
 18100  1  0  0  0
 19 20  1  0  0  0
 19 24  1  0  0  0
 20 21  2  0  0  0
 20101  1  0  0  0
 21 23  1  0  0  0
 22 28  1  0  0  0
 22 32  2  0  0  0
 26 27  1  0  0  0
 28102  1  0  0  0
 28103  1  0  0  0
 29104  1  0  0  0
 29105  1  0  0  0
 33 34  1  0  0  0
 33 66  1  0  0  0
 33 70  2  0  0  0
 34 36  1  0  0  0
 34 59  1  0  0  0
 34106  1  0  0  0
 35 44  2  0  0  0
 35 45  1  0  0  0
 35 68  1  0  0  0
 36 56  1  0  0  0
 36107  1  0  0  0
 37 39  1  0  0  0
 37 47  1  0  0  0
 37 66  1  0  0  0
 37108  1  0  0  0
 38 43  2  0  0  0
 38 46  1  0  0  0
 38 47  1  0  0  0
 39 64  1  0  0  0
 39 67  2  0  0  0
 40 52  1  0  0  0
 40 53  2  0  0  0
 40 58  1  0  0  0
 41109  1  0  0  0
 41110  1  0  0  0
 41111  1  0  0  0
 41 48  1  0  0  0
 42 43  1  0  0  0
 42 66  1  0  0  0
 42112  1  0  0  0
 42113  1  0  0  0
 43 44  1  0  0  0
 44114  1  0  0  0
 45 46  2  0  0  0
 45115  1  0  0  0
 46116  1  0  0  0
 47117  1  0  0  0
 47118  1  0  0  0
 48 56  1  0  0  0
 48 65  1  0  0  0
 48119  1  0  0  0
 49 50  1  0  0  0
 49 53  1  0  0  0
 49 64  1  0  0  0
 49120  1  0  0  0
 50 51  1  0  0  0
 50121  1  0  0  0
 50122  1  0  0  0
 51 52  1  0  0  0
 51123  1  0  0  0
 51124  1  0  0  0
 52125  1  0  0  0
 52126  1  0  0  0
 53 54  1  0  0  0
 54 55  2  0  0  0
 54127  1  0  0  0
 55 57  1  0  0  0
 55128  1  0  0  0
 56 69  2  0  0  0
 57 58  2  0  0  0
 57129  1  0  0  0
 58130  1  0  0  0
 59 60  1  0  0  0
 59 61  1  0  0  0
 59 62  1  0  0  0
 60131  1  0  0  0
 60132  1  0  0  0
 60133  1  0  0  0
 61134  1  0  0  0
 61135  1  0  0  0
 61136  1  0  0  0
 62137  1  0  0  0
 62138  1  0  0  0
 62139  1  0  0  0
 63 65  1  0  0  0
 63140  1  0  0  0
 63141  1  0  0  0
 63142  1  0  0  0
 64143  1  0  0  0
 65144  1  0  0  0
 68 81  1  0  0  0
 71 72  2  0  0  0
 71 74  1  0  0  0
 71145  1  0  0  0
 72 75  1  0  0  0
 72146  1  0  0  0
 73 74  2  0  0  0
 73 76  1  0  0  0
 73147  1  0  0  0
 74 78  1  0  0  0
 75 76  2  0  0  0
 75 83  1  0  0  0
 76 82  1  0  0  0
 77 79  1  0  0  0
 77 83  1  0  0  0
 77 85  2  0  0  0
 78 84  1  0  0  0
 78148  1  0  0  0
 78149  1  0  0  0
 79 80  1  0  0  0
 79150  1  0  0  0
 79151  1  0  0  0
 80 81  1  0  0  0
 80152  1  0  0  0
 80153  1  0  0  0
 81154  1  0  0  0
 81155  1  0  0  0
 82156  1  0  0  0
 82157  1  0  0  0
 83158  1  0  0  0
 84159  1  0  0  0
M  ISO  4   1 100  68 101  81 101  84 100
M  END
> <chiral flag>
0

> <version>
0

> <s_m_source_file>
/data/baiqing/PycharmProjects/Reinvent-master-3.2/result/LINK_invent/BTK/process_docking_weight1_custom_product_contain_oxygen_bond_distance_aromatic_linkinvent_7_9_3/rearranged_h_0100.sdf

> <i_m_source_file_index>
23

> <r_mmod_Potential_Energy-OPLS-2005>
-240.370529174805

> <r_mmod_Stretch_Energy-OPLS-2005>
32.258903503418

> <r_mmod_Bend_Energy-OPLS-2005>
95.2014389038086

> <r_mmod_Torsional_Energy-OPLS-2005>
270.993988037109

> <r_mmod_Improper_Torsional_Energy-OPLS-2005>
10.2184686660767

> <r_mmod_Van_der_Waal_Energy-OPLS-2005>
161.613403320312

> <r_mmod_Electrostatic_Energy-OPLS-2005>
-585.296020507812

> <r_mmod_Solvation_Energy-OPLS-2005>
-234.87419128418

> <b_mmod_Minimization_Converged-OPLS-2005>
0

> <r_mmod_RMS_Derivative-OPLS-2005>
8.4519739151001

$$$$
23
                    3D
 Structure written by MMmdl.
158167  0  0  1  0            999 V2000
  -30.6789  -14.4732   20.5973 C   0  0  0  0  0  0
  -30.4327  -12.3144   19.4214 C   0  0  0  0  0  0
  -29.4987  -12.4991   18.2058 C   0  0  0  0  0  0
  -28.0176  -12.3682   18.6146 C   0  0  0  0  0  0
  -27.6650  -13.2014   19.8767 C   0  0  2  0  0  0
  -28.7033  -12.9554   20.9944 C   0  0  0  0  0  0
  -25.2585  -13.8145   20.5666 C   0  0  0  0  0  0
  -24.1844  -13.0444   20.9188 C   0  0  0  0  0  0
  -24.6394  -11.6908   20.8774 C   0  0  0  0  0  0
  -23.9065  -10.4306   21.0438 C   0  0  0  0  0  0
  -24.3623   -9.4212   21.9187 C   0  0  0  0  0  0
  -23.6313   -8.2244   22.0739 C   0  0  0  0  0  0
  -22.4288   -8.0291   21.3552 C   0  0  0  0  0  0
  -21.9922   -9.0265   20.4647 C   0  0  0  0  0  0
  -22.7246  -10.2149   20.3070 C   0  0  0  0  0  0
  -21.6841   -6.0752   22.5295 C   0  0  0  0  0  0
  -21.4013   -6.5648   23.8234 C   0  0  0  0  0  0
  -21.3663   -5.6789   24.9187 C   0  0  0  0  0  0
  -21.6032   -4.3053   24.7226 C   0  0  0  0  0  0
  -21.8823   -3.8160   23.4347 C   0  0  0  0  0  0
  -21.9190   -4.6981   22.3411 C   0  0  0  0  0  0
  -22.7866  -13.5259   21.1840 C   0  0  0  0  0  0
  -22.1655   -4.2167   21.0987 F   0  0  0  0  0  0
  -21.5623   -3.4538   25.7739 F   0  0  0  0  0  0
  -30.0365  -13.2802   20.4584 N   0  0  0  0  0  0
  -26.3021  -12.9315   20.3357 N   0  0  0  0  0  0
  -25.9308  -11.6479   20.5792 N   0  0  0  0  0  0
  -22.0500  -12.8294   22.0416 N   0  0  0  0  0  0
  -25.4287  -15.1861   20.4047 N   0  0  0  0  0  0
  -31.7785  -14.6871   20.0813 O   0  0  0  0  0  0
  -21.6631   -6.8908   21.4265 O   0  0  0  0  0  0
  -22.3572  -14.5563   20.6650 O   0  0  0  0  0  0
  -24.6168  -31.8659   23.2068 C   0  0  0  0  0  0
  -25.9051  -32.4817   23.8373 C   0  0  1  0  0  0
  -27.2316  -27.4134   20.1201 C   0  0  0  0  0  0
  -25.5905  -33.8613   24.2306 N   0  0  0  0  0  0
  -23.4062  -30.4886   21.5441 C   0  0  2  0  0  0
  -24.8551  -28.9444   20.1173 C   0  0  0  0  0  0
  -22.7414  -29.4669   22.4961 C   0  0  0  0  0  0
  -18.0276  -28.1383   22.8494 C   0  0  0  0  0  0
  -24.1486  -36.7304   23.2642 C   0  0  0  0  0  0
  -25.9357  -30.8227   21.3645 C   0  0  0  0  0  0
  -26.0132  -29.4533   20.7197 C   0  0  0  0  0  0
  -27.2070  -28.6937   20.7213 C   0  0  0  0  0  0
  -26.0641  -26.9214   19.5062 C   0  0  0  0  0  0
  -24.8751  -27.6767   19.5068 C   0  0  0  0  0  0
  -23.6190  -29.8149   20.1610 C   0  0  0  0  0  0
  -25.4111  -36.3102   24.0342 C   0  0  1  0  0  0
  -20.5872  -28.3680   23.1314 C   0  0  2  0  0  0
  -20.6772  -26.9416   22.5421 C   0  0  0  0  0  0
  -19.5754  -26.6397   21.5211 C   0  0  0  0  0  0
  -18.1931  -26.7933   22.1619 C   0  0  0  0  0  0
  -19.1526  -28.8849   23.2903 C   0  0  0  0  0  0
  -18.9459  -30.1457   23.8916 C   0  0  0  0  0  0
  -17.6468  -30.6592   24.0574 C   0  0  0  0  0  0
  -25.9036  -34.9471   23.5113 C   0  0  0  0  0  0
  -16.5359  -29.9095   23.6335 C   0  0  0  0  0  0
  -16.7270  -28.6512   23.0352 C   0  0  0  0  0  0
  -26.4481  -31.6598   25.0707 C   0  0  0  0  0  0
  -25.3766  -31.3715   26.1471 C   0  0  0  0  0  0
  -27.0307  -30.3037   24.6083 C   0  0  0  0  0  0
  -27.6046  -32.4333   25.7487 C   0  0  0  0  0  0
  -27.5575  -37.1810   24.8467 C   0  0  0  0  0  0
  -21.4144  -29.3040   22.3708 N   0  0  0  0  0  0
  -26.4289  -37.3793   23.9413 N   0  0  0  0  0  0
  -24.6704  -31.0754   22.0965 N   0  0  0  0  0  0
  -23.4174  -28.8224   23.3025 O   0  0  0  0  0  0
  -28.3742  -26.6425   20.1039 O   0  0  0  0  0  0
  -26.5602  -34.8937   22.4674 O   0  0  0  0  0  0
  -23.5353  -32.1418   23.7448 O   0  0  0  0  0  0
  -28.6594  -18.8714   20.5575 C   0  0  0  0  0  0
  -28.7251  -17.4888   20.8628 C   0  0  0  0  0  0
  -31.0821  -18.9779   20.6062 C   0  0  0  0  0  0
  -29.8436  -19.6331   20.4054 C   0  0  0  0  0  0
  -29.9695  -16.8279   21.0137 C   0  0  0  0  0  0
  -31.1508  -17.6064   20.9355 C   0  0  0  0  0  0
  -29.8411  -21.0650   19.8997 C   0  0  0  0  0  0
  -28.0483  -23.3760   22.1871 C   0  0  0  0  0  0
  -28.2960  -21.9288   21.7194 C   0  0  0  0  0  0
  -29.1512  -23.4486   20.0711 C   0  0  0  0  0  0
  -28.1491  -24.2456   20.9278 C   0  0  2  0  0  0
  -28.5165  -25.7358   21.2141 C   0  0  0  0  0  0
  -29.1029  -22.0370   20.5038 N   0  0  0  0  0  0
  -29.9758  -15.4156   21.2635 N   0  0  0  0  0  0
  -30.5678  -21.3270   18.9373 O   0  0  0  0  0  0
  -32.3622  -17.0596   21.1901 F   0  0  0  0  0  0
  -31.4735  -12.4295   19.1170 H   0  0  0  0  0  0
  -30.3531  -11.2988   19.8111 H   0  0  0  0  0  0
  -29.7368  -11.7613   17.4380 H   0  0  0  0  0  0
  -29.6672  -13.4772   17.7547 H   0  0  0  0  0  0
  -27.8210  -11.3135   18.8053 H   0  0  0  0  0  0
  -27.3709  -12.6467   17.7819 H   0  0  0  0  0  0
  -27.7219  -14.2548   19.5970 H   0  0  0  0  0  0
  -28.6794  -11.9079   21.2966 H   0  0  0  0  0  0
  -28.4497  -13.5162   21.8962 H   0  0  0  0  0  0
  -25.2782   -9.5677   22.4740 H   0  0  0  0  0  0
  -24.0017   -7.4638   22.7448 H   0  0  0  0  0  0
  -21.0842   -8.8804   19.8977 H   0  0  0  0  0  0
  -22.3719  -10.9679   19.6175 H   0  0  0  0  0  0
  -21.2011   -7.6156   23.9758 H   0  0  0  0  0  0
  -21.1466   -6.0506   25.9090 H   0  0  0  0  0  0
  -22.0597   -2.7623   23.2841 H   0  0  0  0  0  0
  -22.4096  -11.9984   22.4862 H   0  0  0  0  0  0
  -21.1110  -13.1322   22.2591 H   0  0  0  0  0  0
  -24.6548  -15.8333   20.5063 H   0  0  0  0  0  0
  -26.2607  -15.6185   20.0262 H   0  0  0  0  0  0
  -26.7118  -32.5521   23.1131 H   0  0  0  0  0  0
  -25.0097  -33.9769   25.0477 H   0  0  0  0  0  0
  -22.6965  -31.3065   21.3990 H   0  0  0  0  0  0
  -23.3742  -35.9643   23.3332 H   0  0  0  0  0  0
  -24.3580  -36.8876   22.2048 H   0  0  0  0  0  0
  -23.7251  -37.6525   23.6633 H   0  0  0  0  0  0
  -26.0539  -31.5824   20.5906 H   0  0  0  0  0  0
  -26.8225  -30.8787   21.9840 H   0  0  0  0  0  0
  -28.1036  -29.0789   21.1873 H   0  0  0  0  0  0
  -26.0749  -25.9490   19.0349 H   0  0  0  0  0  0
  -23.9859  -27.2767   19.0389 H   0  0  0  0  0  0
  -23.7337  -30.5845   19.3982 H   0  0  0  0  0  0
  -22.7436  -29.2358   19.8626 H   0  0  0  0  0  0
  -25.1288  -36.1959   25.0838 H   0  0  0  0  0  0
  -20.9985  -28.3244   24.1418 H   0  0  0  0  0  0
  -20.5664  -26.2283   23.3609 H   0  0  0  0  0  0
  -21.6644  -26.7440   22.1217 H   0  0  0  0  0  0
  -19.6911  -25.6305   21.1228 H   0  0  0  0  0  0
  -19.6689  -27.3218   20.6757 H   0  0  0  0  0  0
  -17.4199  -26.6692   21.4016 H   0  0  0  0  0  0
  -18.0320  -26.0067   22.9009 H   0  0  0  0  0  0
  -19.7943  -30.7265   24.2274 H   0  0  0  0  0  0
  -17.5028  -31.6267   24.5171 H   0  0  0  0  0  0
  -15.5360  -30.3000   23.7660 H   0  0  0  0  0  0
  -15.8670  -28.0845   22.7045 H   0  0  0  0  0  0
  -24.5934  -30.7049   25.7828 H   0  0  0  0  0  0
  -24.8979  -32.2874   26.4940 H   0  0  0  0  0  0
  -25.8159  -30.8887   27.0204 H   0  0  0  0  0  0
  -26.2828  -29.6821   24.1133 H   0  0  0  0  0  0
  -27.4057  -29.7267   25.4541 H   0  0  0  0  0  0
  -27.8687  -30.4355   23.9238 H   0  0  0  0  0  0
  -27.2626  -33.3603   26.2114 H   0  0  0  0  0  0
  -28.3850  -32.6945   25.0321 H   0  0  0  0  0  0
  -28.0721  -31.8428   26.5373 H   0  0  0  0  0  0
  -28.2611  -38.0091   24.7506 H   0  0  0  0  0  0
  -28.1056  -36.2623   24.6300 H   0  0  0  0  0  0
  -27.2302  -37.1468   25.8875 H   0  0  0  0  0  0
  -20.9300  -29.8765   21.6937 H   0  0  0  0  0  0
  -26.0174  -38.2869   24.1402 H   0  0  0  0  0  0
  -27.6942  -19.3272   20.3800 H   0  0  0  0  0  0
  -27.8024  -16.9300   20.9455 H   0  0  0  0  0  0
  -32.0033  -19.5308   20.4937 H   0  0  0  0  0  0
  -28.8242  -23.6655   22.8988 H   0  0  0  0  0  0
  -27.0889  -23.4902   22.6929 H   0  0  0  0  0  0
  -27.3498  -21.4419   21.4777 H   0  0  0  0  0  0
  -28.7929  -21.3327   22.4887 H   0  0  0  0  0  0
  -30.1643  -23.8214   20.2266 H   0  0  0  0  0  0
  -28.9229  -23.5419   19.0074 H   0  0  0  0  0  0
  -27.1767  -24.2126   20.4358 H   0  0  0  0  0  0
  -29.5525  -25.7874   21.5504 H   0  0  0  0  0  0
  -27.9267  -26.0931   22.0609 H   0  0  0  0  0  0
  -29.1325  -15.0483   21.6741 H   0  0  0  0  0  0
  1 25  1  0  0  0
  1 30  2  0  0  0
  1 84  1  0  0  0
  2  3  1  0  0  0
  2 25  1  0  0  0
  2 87  1  0  0  0
  2 88  1  0  0  0
  3  4  1  0  0  0
  3 89  1  0  0  0
  3 90  1  0  0  0
  4  5  1  0  0  0
  4 91  1  0  0  0
  4 92  1  0  0  0
  5  6  1  0  0  0
  5 26  1  0  0  0
  5 93  1  0  0  0
  6 25  1  0  0  0
  6 94  1  0  0  0
  6 95  1  0  0  0
  7  8  2  0  0  0
  7 26  1  0  0  0
  7 29  1  0  0  0
  8  9  1  0  0  0
  8 22  1  0  0  0
  9 10  1  0  0  0
  9 27  2  0  0  0
 10 11  2  0  0  0
 10 15  1  0  0  0
 11 12  1  0  0  0
 11 96  1  0  0  0
 12 13  2  0  0  0
 12 97  1  0  0  0
 13 14  1  0  0  0
 13 31  1  0  0  0
 14 15  2  0  0  0
 14 98  1  0  0  0
 15 99  1  0  0  0
 16 17  2  0  0  0
 16 21  1  0  0  0
 16 31  1  0  0  0
 17 18  1  0  0  0
 17100  1  0  0  0
 18 19  2  0  0  0
 18101  1  0  0  0
 19 20  1  0  0  0
 19 24  1  0  0  0
 20 21  2  0  0  0
 20102  1  0  0  0
 21 23  1  0  0  0
 22 28  1  0  0  0
 22 32  2  0  0  0
 26 27  1  0  0  0
 28103  1  0  0  0
 28104  1  0  0  0
 29105  1  0  0  0
 29106  1  0  0  0
 33 34  1  0  0  0
 33 66  1  0  0  0
 33 70  2  0  0  0
 34 36  1  0  0  0
 34 59  1  0  0  0
 34107  1  0  0  0
 35 44  2  0  0  0
 35 45  1  0  0  0
 35 68  1  0  0  0
 36 56  1  0  0  0
 36108  1  0  0  0
 37 39  1  0  0  0
 37 47  1  0  0  0
 37 66  1  0  0  0
 37109  1  0  0  0
 38 43  2  0  0  0
 38 46  1  0  0  0
 38 47  1  0  0  0
 39 64  1  0  0  0
 39 67  2  0  0  0
 40 52  1  0  0  0
 40 53  2  0  0  0
 40 58  1  0  0  0
 41110  1  0  0  0
 41111  1  0  0  0
 41112  1  0  0  0
 41 48  1  0  0  0
 42 43  1  0  0  0
 42 66  1  0  0  0
 42113  1  0  0  0
 42114  1  0  0  0
 43 44  1  0  0  0
 44115  1  0  0  0
 45 46  2  0  0  0
 45116  1  0  0  0
 46117  1  0  0  0
 47118  1  0  0  0
 47119  1  0  0  0
 48 56  1  0  0  0
 48 65  1  0  0  0
 48120  1  0  0  0
 49 50  1  0  0  0
 49 53  1  0  0  0
 49 64  1  0  0  0
 49121  1  0  0  0
 50 51  1  0  0  0
 50122  1  0  0  0
 50123  1  0  0  0
 51 52  1  0  0  0
 51124  1  0  0  0
 51125  1  0  0  0
 52126  1  0  0  0
 52127  1  0  0  0
 53 54  1  0  0  0
 54 55  2  0  0  0
 54128  1  0  0  0
 55 57  1  0  0  0
 55129  1  0  0  0
 56 69  2  0  0  0
 57 58  2  0  0  0
 57130  1  0  0  0
 58131  1  0  0  0
 59 60  1  0  0  0
 59 61  1  0  0  0
 59 62  1  0  0  0
 60132  1  0  0  0
 60133  1  0  0  0
 60134  1  0  0  0
 61135  1  0  0  0
 61136  1  0  0  0
 61137  1  0  0  0
 62138  1  0  0  0
 62139  1  0  0  0
 62140  1  0  0  0
 63 65  1  0  0  0
 63141  1  0  0  0
 63142  1  0  0  0
 63143  1  0  0  0
 64144  1  0  0  0
 65145  1  0  0  0
 68 82  1  0  0  0
 71 72  2  0  0  0
 71 74  1  0  0  0
 71146  1  0  0  0
 72 75  1  0  0  0
 72147  1  0  0  0
 73 74  2  0  0  0
 73 76  1  0  0  0
 73148  1  0  0  0
 74 77  1  0  0  0
 75 76  2  0  0  0
 75 84  1  0  0  0
 76 86  1  0  0  0
 77 83  1  0  0  0
 77 85  2  0  0  0
 78 79  1  0  0  0
 78 81  1  0  0  0
 78149  1  0  0  0
 78150  1  0  0  0
 79 83  1  0  0  0
 79151  1  0  0  0
 79152  1  0  0  0
 80 81  1  0  0  0
 80 83  1  0  0  0
 80153  1  0  0  0
 80154  1  0  0  0
 81 82  1  0  0  0
 81155  1  0  0  0
 82156  1  0  0  0
 82157  1  0  0  0
 84158  1  0  0  0
M  ISO  4   1 100  68 101  82 101  84 100
M  END
> <chiral flag>
0

> <version>
0

> <s_m_source_file>
/data/baiqing/PycharmProjects/Reinvent-master-3.2/result/LINK_invent/BTK/process_docking_weight1_custom_product_contain_oxygen_bond_distance_aromatic_linkinvent_7_9_3/rearranged_h_0100.sdf

> <i_m_source_file_index>
24

> <r_mmod_Potential_Energy-OPLS-2005>
61.5994758605957

> <r_mmod_Stretch_Energy-OPLS-2005>
42.0884399414062

> <r_mmod_Bend_Energy-OPLS-2005>
121.888999938965

> <r_mmod_Torsional_Energy-OPLS-2005>
345.329681396484

> <r_mmod_Improper_Torsional_Energy-OPLS-2005>
5.24740695953369

> <r_mmod_Van_der_Waal_Energy-OPLS-2005>
143.141616821289

> <r_mmod_Electrostatic_Energy-OPLS-2005>
-371.111633300781

> <r_mmod_Solvation_Energy-OPLS-2005>
-238.52311706543

> <b_mmod_Minimization_Converged-OPLS-2005>
0

> <r_mmod_RMS_Derivative-OPLS-2005>
3.09271645545959

$$$$
24
                    3D
 Structure written by MMmdl.
160169  0  0  1  0            999 V2000
  -30.5952  -14.7910   20.3786 C   0  0  0  0  0  0
  -30.4442  -12.4542   19.4842 C   0  0  0  0  0  0
  -29.5204  -12.3717   18.2475 C   0  0  0  0  0  0
  -28.0323  -12.2866   18.6563 C   0  0  0  0  0  0
  -27.6328  -13.2198   19.8343 C   0  0  2  0  0  0
  -28.6849  -13.2160   20.9608 C   0  0  0  0  0  0
  -25.2515  -13.8171   20.5732 C   0  0  0  0  0  0
  -24.1784  -13.0439   20.9230 C   0  0  0  0  0  0
  -24.6358  -11.6911   20.8782 C   0  0  0  0  0  0
  -23.9041  -10.4291   21.0428 C   0  0  0  0  0  0
  -24.3604   -9.4204   21.9196 C   0  0  0  0  0  0
  -23.6287   -8.2232   22.0755 C   0  0  0  0  0  0
  -22.4271   -8.0277   21.3546 C   0  0  0  0  0  0
  -21.9904   -9.0252   20.4651 C   0  0  0  0  0  0
  -22.7224  -10.2137   20.3065 C   0  0  0  0  0  0
  -21.6853   -6.0734   22.5278 C   0  0  0  0  0  0
  -21.4014   -6.5637   23.8214 C   0  0  0  0  0  0
  -21.3656   -5.6788   24.9176 C   0  0  0  0  0  0
  -21.6040   -4.3053   24.7223 C   0  0  0  0  0  0
  -21.8817   -3.8147   23.4344 C   0  0  0  0  0  0
  -21.9191   -4.6964   22.3400 C   0  0  0  0  0  0
  -22.7808  -13.5237   21.1878 C   0  0  0  0  0  0
  -22.1660   -4.2153   21.0975 F   0  0  0  0  0  0
  -21.5629   -3.4532   25.7734 F   0  0  0  0  0  0
  -29.9695  -13.5614   20.3445 N   0  0  0  0  0  0
  -26.2909  -12.9341   20.3291 N   0  0  0  0  0  0
  -25.9284  -11.6509   20.5813 N   0  0  0  0  0  0
  -22.0443  -12.8233   22.0431 N   0  0  0  0  0  0
  -25.4255  -15.1895   20.4173 N   0  0  0  0  0  0
  -31.8206  -14.8425   20.2314 O   0  0  0  0  0  0
  -21.6640   -6.8873   21.4238 O   0  0  0  0  0  0
  -22.3501  -14.5542   20.6716 O   0  0  0  0  0  0
  -24.6289  -31.8562   23.1974 C   0  0  0  0  0  0
  -25.9118  -32.4759   23.8329 C   0  0  1  0  0  0
  -27.2215  -27.2772   20.1461 C   0  0  0  0  0  0
  -25.5915  -33.8560   24.2254 N   0  0  0  0  0  0
  -23.4255  -30.4770   21.5401 C   0  0  2  0  0  0
  -24.8739  -28.9190   20.1151 C   0  0  0  0  0  0
  -22.7489  -29.4605   22.4911 C   0  0  0  0  0  0
  -18.0293  -28.1391   22.8489 C   0  0  0  0  0  0
  -24.1486  -36.7289   23.2641 C   0  0  0  0  0  0
  -25.9678  -30.7772   21.3712 C   0  0  0  0  0  0
  -26.0436  -29.3978   20.7198 C   0  0  0  0  0  0
  -27.2239  -28.5914   20.7177 C   0  0  0  0  0  0
  -26.0325  -26.8528   19.5193 C   0  0  0  0  0  0
  -24.8721  -27.6542   19.5032 C   0  0  0  0  0  0
  -23.6444  -29.8062   20.1578 C   0  0  0  0  0  0
  -25.4111  -36.3070   24.0327 C   0  0  1  0  0  0
  -20.5894  -28.3699   23.1275 C   0  0  2  0  0  0
  -20.6778  -26.9419   22.5412 C   0  0  0  0  0  0
  -19.5752  -26.6387   21.5218 C   0  0  0  0  0  0
  -18.1933  -26.7934   22.1630 C   0  0  0  0  0  0
  -19.1545  -28.8861   23.2879 C   0  0  0  0  0  0
  -18.9466  -30.1461   23.8899 C   0  0  0  0  0  0
  -17.6465  -30.6593   24.0567 C   0  0  0  0  0  0
  -25.9051  -34.9442   23.5096 C   0  0  0  0  0  0
  -16.5357  -29.9093   23.6328 C   0  0  0  0  0  0
  -16.7279  -28.6511   23.0350 C   0  0  0  0  0  0
  -26.4493  -31.6577   25.0712 C   0  0  0  0  0  0
  -25.3720  -31.3732   26.1436 C   0  0  0  0  0  0
  -27.0331  -30.2994   24.6181 C   0  0  0  0  0  0
  -27.6043  -32.4319   25.7491 C   0  0  0  0  0  0
  -27.5577  -37.1798   24.8465 C   0  0  0  0  0  0
  -21.4196  -29.3047   22.3658 N   0  0  0  0  0  0
  -26.4285  -37.3768   23.9412 N   0  0  0  0  0  0
  -24.6933  -31.0543   22.0936 N   0  0  0  0  0  0
  -23.4192  -28.8154   23.3011 O   0  0  0  0  0  0
  -28.3285  -26.4087   20.1555 O   0  0  0  0  0  0
  -26.5631  -34.8917   22.4670 O   0  0  0  0  0  0
  -23.5444  -32.1372   23.7281 O   0  0  0  0  0  0
  -30.0889  -18.5701   22.8568 C   0  0  0  0  0  0
  -29.8365  -19.7935   22.1944 C   0  0  0  0  0  0
  -30.1076  -17.3327   22.1749 C   0  0  0  0  0  0
  -29.5757  -18.5469   20.1395 C   0  0  0  0  0  0
  -29.5812  -19.8457   20.8031 C   0  0  0  0  0  0
  -29.8538  -17.2636   20.7886 C   0  0  0  0  0  0
  -30.2872  -21.3971   19.0470 C   0  0  0  0  0  0
  -28.6855  -22.2613   20.5931 C   0  0  0  0  0  0
  -30.3023  -22.7368   18.2890 C   0  0  0  0  0  0
  -29.9807  -23.9362   19.1838 C   0  0  0  0  0  0
  -28.6424  -23.7081   19.8802 C   0  0  2  0  0  0
  -29.3859  -16.0420   18.7028 C   0  0  0  0  0  0
  -28.1800  -25.0200   20.7082 C   0  0  0  0  0  0
  -29.4649  -21.1879   20.1226 N   0  0  0  0  0  0
  -29.8300  -15.9383   20.0998 N   0  0  0  0  0  0
  -31.0685  -20.5370   18.6213 O   0  0  0  0  0  0
  -27.9528  -22.1194   21.5788 O   0  0  0  0  0  0
  -31.4792  -12.5934   19.1671 H   0  0  0  0  0  0
  -30.4242  -11.5165   20.0421 H   0  0  0  0  0  0
  -29.7796  -11.4824   17.6711 H   0  0  0  0  0  0
  -29.7011  -13.1943   17.5614 H   0  0  0  0  0  0
  -27.8553  -11.2509   18.9475 H   0  0  0  0  0  0
  -27.3893  -12.4663   17.7938 H   0  0  0  0  0  0
  -27.5926  -14.2239   19.4222 H   0  0  0  0  0  0
  -28.7360  -12.2426   21.4505 H   0  0  0  0  0  0
  -28.4233  -13.9444   21.7304 H   0  0  0  0  0  0
  -25.2744   -9.5685   22.4774 H   0  0  0  0  0  0
  -24.0002   -7.4619   22.7469 H   0  0  0  0  0  0
  -21.0836   -8.8767   19.8956 H   0  0  0  0  0  0
  -22.3678  -10.9679   19.6177 H   0  0  0  0  0  0
  -21.2009   -7.6145   23.9715 H   0  0  0  0  0  0
  -21.1482   -6.0523   25.9079 H   0  0  0  0  0  0
  -22.0600   -2.7612   23.2839 H   0  0  0  0  0  0
  -22.4056  -11.9896   22.4823 H   0  0  0  0  0  0
  -21.1058  -13.1256   22.2634 H   0  0  0  0  0  0
  -24.6672  -15.8504   20.5459 H   0  0  0  0  0  0
  -26.2921  -15.6300   20.1340 H   0  0  0  0  0  0
  -26.7187  -32.5421   23.1079 H   0  0  0  0  0  0
  -25.0034  -33.9704   25.0379 H   0  0  0  0  0  0
  -22.7217  -31.2988   21.3927 H   0  0  0  0  0  0
  -23.3744  -35.9625   23.3294 H   0  0  0  0  0  0
  -24.3580  -36.8923   22.2058 H   0  0  0  0  0  0
  -23.7244  -37.6490   23.6671 H   0  0  0  0  0  0
  -26.0983  -31.5351   20.5975 H   0  0  0  0  0  0
  -26.8486  -30.8327   21.9994 H   0  0  0  0  0  0
  -28.1243  -28.9569   21.1915 H   0  0  0  0  0  0
  -25.9962  -25.8801   19.0495 H   0  0  0  0  0  0
  -23.9752  -27.2821   19.0274 H   0  0  0  0  0  0
  -23.7714  -30.5809   19.4008 H   0  0  0  0  0  0
  -22.7631  -29.2396   19.8517 H   0  0  0  0  0  0
  -25.1288  -36.1918   25.0818 H   0  0  0  0  0  0
  -20.9997  -28.3285   24.1392 H   0  0  0  0  0  0
  -20.5683  -26.2313   23.3617 H   0  0  0  0  0  0
  -21.6646  -26.7446   22.1205 H   0  0  0  0  0  0
  -19.6913  -25.6297   21.1251 H   0  0  0  0  0  0
  -19.6688  -27.3194   20.6745 H   0  0  0  0  0  0
  -17.4202  -26.6686   21.4033 H   0  0  0  0  0  0
  -18.0333  -26.0080   22.9029 H   0  0  0  0  0  0
  -19.7940  -30.7280   24.2268 H   0  0  0  0  0  0
  -17.5019  -31.6271   24.5171 H   0  0  0  0  0  0
  -15.5356  -30.2997   23.7645 H   0  0  0  0  0  0
  -15.8682  -28.0831   22.7059 H   0  0  0  0  0  0
  -24.5891  -30.7085   25.7766 H   0  0  0  0  0  0
  -24.8917  -32.2907   26.4847 H   0  0  0  0  0  0
  -25.8037  -30.8919   27.0220 H   0  0  0  0  0  0
  -26.2908  -29.6751   24.1193 H   0  0  0  0  0  0
  -27.4005  -29.7246   25.4693 H   0  0  0  0  0  0
  -27.8787  -30.4267   23.9417 H   0  0  0  0  0  0
  -27.2640  -33.3618   26.2060 H   0  0  0  0  0  0
  -28.3857  -32.6885   25.0325 H   0  0  0  0  0  0
  -28.0705  -31.8453   26.5419 H   0  0  0  0  0  0
  -28.2583  -38.0103   24.7505 H   0  0  0  0  0  0
  -28.1079  -36.2633   24.6283 H   0  0  0  0  0  0
  -27.2301  -37.1439   25.8869 H   0  0  0  0  0  0
  -20.9376  -29.8770   21.6869 H   0  0  0  0  0  0
  -26.0161  -38.2839   24.1418 H   0  0  0  0  0  0
  -30.2860  -18.5829   23.9197 H   0  0  0  0  0  0
  -29.8723  -20.7052   22.7750 H   0  0  0  0  0  0
  -30.3085  -16.4337   22.7407 H   0  0  0  0  0  0
  -29.3825  -18.5613   19.0775 H   0  0  0  0  0  0
  -29.5836  -22.6729   17.4711 H   0  0  0  0  0  0
  -31.2805  -22.8776   17.8281 H   0  0  0  0  0  0
  -29.9367  -24.8415   18.5775 H   0  0  0  0  0  0
  -30.7722  -24.0910   19.9192 H   0  0  0  0  0  0
  -27.8952  -23.5956   19.0937 H   0  0  0  0  0  0
  -30.1117  -16.6034   18.1127 H   0  0  0  0  0  0
  -28.4196  -16.5435   18.6406 H   0  0  0  0  0  0
  -29.2544  -15.0928   18.2032 H   0  0  0  0  0  0
  -28.7487  -25.0246   21.6385 H   0  0  0  0  0  0
  -27.1484  -24.8668   21.0289 H   0  0  0  0  0  0
  1 25  1  0  0  0
  1 30  2  0  0  0
  1 85  1  0  0  0
  2  3  1  0  0  0
  2 25  1  0  0  0
  2 88  1  0  0  0
  2 89  1  0  0  0
  3  4  1  0  0  0
  3 90  1  0  0  0
  3 91  1  0  0  0
  4  5  1  0  0  0
  4 92  1  0  0  0
  4 93  1  0  0  0
  5  6  1  0  0  0
  5 26  1  0  0  0
  5 94  1  0  0  0
  6 25  1  0  0  0
  6 95  1  0  0  0
  6 96  1  0  0  0
  7  8  2  0  0  0
  7 26  1  0  0  0
  7 29  1  0  0  0
  8  9  1  0  0  0
  8 22  1  0  0  0
  9 10  1  0  0  0
  9 27  2  0  0  0
 10 11  2  0  0  0
 10 15  1  0  0  0
 11 12  1  0  0  0
 11 97  1  0  0  0
 12 13  2  0  0  0
 12 98  1  0  0  0
 13 14  1  0  0  0
 13 31  1  0  0  0
 14 15  2  0  0  0
 14 99  1  0  0  0
 15100  1  0  0  0
 16 17  2  0  0  0
 16 21  1  0  0  0
 16 31  1  0  0  0
 17 18  1  0  0  0
 17101  1  0  0  0
 18 19  2  0  0  0
 18102  1  0  0  0
 19 20  1  0  0  0
 19 24  1  0  0  0
 20 21  2  0  0  0
 20103  1  0  0  0
 21 23  1  0  0  0
 22 28  1  0  0  0
 22 32  2  0  0  0
 26 27  1  0  0  0
 28104  1  0  0  0
 28105  1  0  0  0
 29106  1  0  0  0
 29107  1  0  0  0
 33 34  1  0  0  0
 33 66  1  0  0  0
 33 70  2  0  0  0
 34 36  1  0  0  0
 34 59  1  0  0  0
 34108  1  0  0  0
 35 44  2  0  0  0
 35 45  1  0  0  0
 35 68  1  0  0  0
 36 56  1  0  0  0
 36109  1  0  0  0
 37 39  1  0  0  0
 37 47  1  0  0  0
 37 66  1  0  0  0
 37110  1  0  0  0
 38 43  2  0  0  0
 38 46  1  0  0  0
 38 47  1  0  0  0
 39 64  1  0  0  0
 39 67  2  0  0  0
 40 52  1  0  0  0
 40 53  2  0  0  0
 40 58  1  0  0  0
 41111  1  0  0  0
 41112  1  0  0  0
 41113  1  0  0  0
 41 48  1  0  0  0
 42 43  1  0  0  0
 42 66  1  0  0  0
 42114  1  0  0  0
 42115  1  0  0  0
 43 44  1  0  0  0
 44116  1  0  0  0
 45 46  2  0  0  0
 45117  1  0  0  0
 46118  1  0  0  0
 47119  1  0  0  0
 47120  1  0  0  0
 48 56  1  0  0  0
 48 65  1  0  0  0
 48121  1  0  0  0
 49 50  1  0  0  0
 49 53  1  0  0  0
 49 64  1  0  0  0
 49122  1  0  0  0
 50 51  1  0  0  0
 50123  1  0  0  0
 50124  1  0  0  0
 51 52  1  0  0  0
 51125  1  0  0  0
 51126  1  0  0  0
 52127  1  0  0  0
 52128  1  0  0  0
 53 54  1  0  0  0
 54 55  2  0  0  0
 54129  1  0  0  0
 55 57  1  0  0  0
 55130  1  0  0  0
 56 69  2  0  0  0
 57 58  2  0  0  0
 57131  1  0  0  0
 58132  1  0  0  0
 59 60  1  0  0  0
 59 61  1  0  0  0
 59 62  1  0  0  0
 60133  1  0  0  0
 60134  1  0  0  0
 60135  1  0  0  0
 61136  1  0  0  0
 61137  1  0  0  0
 61138  1  0  0  0
 62139  1  0  0  0
 62140  1  0  0  0
 62141  1  0  0  0
 63 65  1  0  0  0
 63142  1  0  0  0
 63143  1  0  0  0
 63144  1  0  0  0
 64145  1  0  0  0
 65146  1  0  0  0
 68 83  1  0  0  0
 71 72  2  0  0  0
 71 73  1  0  0  0
 71147  1  0  0  0
 72 75  1  0  0  0
 72148  1  0  0  0
 73 76  2  0  0  0
 73149  1  0  0  0
 74 75  2  0  0  0
 74 76  1  0  0  0
 74150  1  0  0  0
 75 84  1  0  0  0
 76 85  1  0  0  0
 77 79  1  0  0  0
 77 84  1  0  0  0
 77 86  2  0  0  0
 78 81  1  0  0  0
 78 84  1  0  0  0
 78 87  2  0  0  0
 79 80  1  0  0  0
 79151  1  0  0  0
 79152  1  0  0  0
 80 81  1  0  0  0
 80153  1  0  0  0
 80154  1  0  0  0
 81 83  1  0  0  0
 81155  1  0  0  0
 82 85  1  0  0  0
 82156  1  0  0  0
 82157  1  0  0  0
 82158  1  0  0  0
 83159  1  0  0  0
 83160  1  0  0  0
M  ISO  4   1 100  68 101  83 101  85 100
M  END
> <chiral flag>
0

> <version>
0

> <s_m_source_file>
/data/baiqing/PycharmProjects/Reinvent-master-3.2/result/LINK_invent/BTK/process_docking_weight1_custom_product_contain_oxygen_bond_distance_aromatic_linkinvent_7_9_3/rearranged_h_0100.sdf

> <i_m_source_file_index>
25

> <r_mmod_Potential_Energy-OPLS-2005>
451.182586669922

> <r_mmod_Stretch_Energy-OPLS-2005>
142.862396240234

> <r_mmod_Bend_Energy-OPLS-2005>
168.26301574707

> <r_mmod_Torsional_Energy-OPLS-2005>
352.138244628906

> <r_mmod_Improper_Torsional_Energy-OPLS-2005>
16.4939117431641

> <r_mmod_Van_der_Waal_Energy-OPLS-2005>
164.600219726562

> <r_mmod_Electrostatic_Energy-OPLS-2005>
-269.312194824219

> <r_mmod_Solvation_Energy-OPLS-2005>
-224.655212402344

> <b_mmod_Minimization_Converged-OPLS-2005>
0

> <r_mmod_RMS_Derivative-OPLS-2005>
0.819297313690186

$$$$
25
                    3D
 Structure written by MMmdl.
154162  0  0  1  0            999 V2000
  -30.6273  -14.6527   20.5092 C   0  0  0  0  0  0
  -30.4412  -12.4046   19.4548 C   0  0  0  0  0  0
  -29.5081  -12.5139   18.2278 C   0  0  0  0  0  0
  -28.0312  -12.3528   18.6397 C   0  0  0  0  0  0
  -27.6532  -13.2223   19.8687 C   0  0  2  0  0  0
  -28.7003  -13.0822   20.9973 C   0  0  0  0  0  0
  -25.2546  -13.8186   20.5708 C   0  0  0  0  0  0
  -24.1812  -13.0432   20.9167 C   0  0  0  0  0  0
  -24.6405  -11.6910   20.8742 C   0  0  0  0  0  0
  -23.9077  -10.4291   21.0404 C   0  0  0  0  0  0
  -24.3626   -9.4204   21.9184 C   0  0  0  0  0  0
  -23.6297   -8.2244   22.0754 C   0  0  0  0  0  0
  -22.4277   -8.0285   21.3545 C   0  0  0  0  0  0
  -21.9918   -9.0258   20.4644 C   0  0  0  0  0  0
  -22.7251  -10.2136   20.3052 C   0  0  0  0  0  0
  -21.6852   -6.0739   22.5280 C   0  0  0  0  0  0
  -21.4016   -6.5640   23.8214 C   0  0  0  0  0  0
  -21.3658   -5.6793   24.9175 C   0  0  0  0  0  0
  -21.6043   -4.3058   24.7226 C   0  0  0  0  0  0
  -21.8818   -3.8148   23.4346 C   0  0  0  0  0  0
  -21.9195   -4.6966   22.3405 C   0  0  0  0  0  0
  -22.7833  -13.5220   21.1850 C   0  0  0  0  0  0
  -22.1659   -4.2154   21.0983 F   0  0  0  0  0  0
  -21.5629   -3.4541   25.7739 F   0  0  0  0  0  0
  -30.0147  -13.4279   20.4318 N   0  0  0  0  0  0
  -26.3000  -12.9384   20.3372 N   0  0  0  0  0  0
  -25.9343  -11.6530   20.5781 N   0  0  0  0  0  0
  -22.0485  -12.8206   22.0415 N   0  0  0  0  0  0
  -25.4228  -15.1915   20.4195 N   0  0  0  0  0  0
  -31.7911  -14.8076   20.1268 O   0  0  0  0  0  0
  -21.6641   -6.8881   21.4240 O   0  0  0  0  0  0
  -22.3509  -14.5527   20.6714 O   0  0  0  0  0  0
  -24.6271  -31.8588   23.2009 C   0  0  0  0  0  0
  -25.9129  -32.4772   23.8343 C   0  0  1  0  0  0
  -27.2273  -27.3134   20.1249 C   0  0  0  0  0  0
  -25.5947  -33.8571   24.2274 N   0  0  0  0  0  0
  -23.4210  -30.4805   21.5440 C   0  0  2  0  0  0
  -24.8680  -28.9359   20.1073 C   0  0  0  0  0  0
  -22.7497  -29.4583   22.4930 C   0  0  0  0  0  0
  -18.0282  -28.1361   22.8455 C   0  0  0  0  0  0
  -24.1495  -36.7281   23.2641 C   0  0  0  0  0  0
  -25.9633  -30.7881   21.3732 C   0  0  0  0  0  0
  -26.0360  -29.4156   20.7132 C   0  0  0  0  0  0
  -27.2160  -28.6162   20.7116 C   0  0  0  0  0  0
  -26.0385  -26.8882   19.4891 C   0  0  0  0  0  0
  -24.8725  -27.6768   19.4858 C   0  0  0  0  0  0
  -23.6354  -29.8155   20.1584 C   0  0  0  0  0  0
  -25.4117  -36.3074   24.0340 C   0  0  1  0  0  0
  -20.5885  -28.3650   23.1293 C   0  0  2  0  0  0
  -20.6767  -26.9377   22.5419 C   0  0  0  0  0  0
  -19.5746  -26.6354   21.5218 C   0  0  0  0  0  0
  -18.1919  -26.7900   22.1614 C   0  0  0  0  0  0
  -19.1541  -28.8826   23.2859 C   0  0  0  0  0  0
  -18.9472  -30.1426   23.8870 C   0  0  0  0  0  0
  -17.6473  -30.6564   24.0547 C   0  0  0  0  0  0
  -25.9066  -34.9447   23.5105 C   0  0  0  0  0  0
  -16.5356  -29.9061   23.6336 C   0  0  0  0  0  0
  -16.7276  -28.6488   23.0332 C   0  0  0  0  0  0
  -26.4500  -31.6575   25.0717 C   0  0  0  0  0  0
  -25.3733  -31.3740   26.1455 C   0  0  0  0  0  0
  -27.0342  -30.2998   24.6165 C   0  0  0  0  0  0
  -27.6069  -32.4298   25.7488 C   0  0  0  0  0  0
  -27.5579  -37.1788   24.8472 C   0  0  0  0  0  0
  -21.4201  -29.3008   22.3697 N   0  0  0  0  0  0
  -26.4285  -37.3773   23.9428 N   0  0  0  0  0  0
  -24.6891  -31.0584   22.0967 N   0  0  0  0  0  0
  -23.4225  -28.8120   23.3003 O   0  0  0  0  0  0
  -28.3474  -26.4680   20.1953 O   0  0  0  0  0  0
  -26.5622  -34.8913   22.4668 O   0  0  0  0  0  0
  -23.5438  -32.1395   23.7337 O   0  0  0  0  0  0
  -28.8159  -19.3817   20.9495 C   0  0  0  0  0  0
  -31.1472  -17.8786   20.5316 C   0  0  0  0  0  0
  -30.0162  -20.1149   20.7503 C   0  0  0  0  0  0
  -31.1896  -19.3112   20.5231 C   0  0  0  0  0  0
  -29.9491  -17.1610   20.7716 C   0  0  0  0  0  0
  -28.7867  -17.9542   20.9664 C   0  0  0  0  0  0
  -30.0832  -21.6524   20.9620 C   0  0  0  0  0  0
  -32.5507  -19.9530   20.2850 C   0  0  0  0  0  0
  -29.3032  -24.0467   20.6006 C   0  0  0  0  0  0
  -28.1620  -25.0028   20.0398 C   0  0  0  0  0  0
  -29.8214  -15.7024   20.8658 N   0  0  0  0  0  0
  -29.1841  -22.5418   20.4338 N   0  0  0  0  0  0
  -31.0141  -22.0899   21.6409 O   0  0  0  0  0  0
  -27.6106  -17.3241   21.2010 F   0  0  0  0  0  0
  -31.4812  -12.5333   19.1503 H   0  0  0  0  0  0
  -30.3803  -11.4098   19.8992 H   0  0  0  0  0  0
  -29.7712  -11.7604   17.4849 H   0  0  0  0  0  0
  -29.6486  -13.4818   17.7423 H   0  0  0  0  0  0
  -27.8660  -11.2995   18.8690 H   0  0  0  0  0  0
  -27.3764  -12.5857   17.7989 H   0  0  0  0  0  0
  -27.6681  -14.2576   19.5279 H   0  0  0  0  0  0
  -28.7159  -12.0621   21.3836 H   0  0  0  0  0  0
  -28.4470  -13.7171   21.8482 H   0  0  0  0  0  0
  -25.2766   -9.5684   22.4758 H   0  0  0  0  0  0
  -24.0007   -7.4634   22.7474 H   0  0  0  0  0  0
  -21.0847   -8.8772   19.8949 H   0  0  0  0  0  0
  -22.3705  -10.9671   19.6161 H   0  0  0  0  0  0
  -21.2006   -7.6150   23.9719 H   0  0  0  0  0  0
  -21.1479   -6.0525   25.9079 H   0  0  0  0  0  0
  -22.0600   -2.7611   23.2848 H   0  0  0  0  0  0
  -22.4099  -11.9855   22.4782 H   0  0  0  0  0  0
  -21.1110  -13.1228   22.2641 H   0  0  0  0  0  0
  -24.6609  -15.8442   20.5634 H   0  0  0  0  0  0
  -26.2994  -15.6556   20.2169 H   0  0  0  0  0  0
  -26.7200  -32.5414   23.1089 H   0  0  0  0  0  0
  -25.0116  -33.9714   25.0436 H   0  0  0  0  0  0
  -22.7131  -31.2992   21.4005 H   0  0  0  0  0  0
  -23.3757  -35.9611   23.3291 H   0  0  0  0  0  0
  -24.3588  -36.8911   22.2059 H   0  0  0  0  0  0
  -23.7240  -37.6479   23.6664 H   0  0  0  0  0  0
  -26.0992  -31.5531   20.6066 H   0  0  0  0  0  0
  -26.8431  -30.8326   22.0040 H   0  0  0  0  0  0
  -28.1079  -28.9793   21.2022 H   0  0  0  0  0  0
  -25.9847  -25.9274   19.0008 H   0  0  0  0  0  0
  -23.9799  -27.2983   19.0067 H   0  0  0  0  0  0
  -23.7538  -30.5937   19.4036 H   0  0  0  0  0  0
  -22.7564  -29.2460   19.8521 H   0  0  0  0  0  0
  -25.1289  -36.1920   25.0834 H   0  0  0  0  0  0
  -20.9953  -28.3200   24.1424 H   0  0  0  0  0  0
  -20.5666  -26.2265   23.3611 H   0  0  0  0  0  0
  -21.6636  -26.7397   22.1212 H   0  0  0  0  0  0
  -19.6933  -25.6278   21.1217 H   0  0  0  0  0  0
  -19.6692  -27.3184   20.6757 H   0  0  0  0  0  0
  -17.4208  -26.6643   21.4001 H   0  0  0  0  0  0
  -18.0296  -26.0054   22.9015 H   0  0  0  0  0  0
  -19.7964  -30.7238   24.2215 H   0  0  0  0  0  0
  -17.5044  -31.6244   24.5141 H   0  0  0  0  0  0
  -15.5362  -30.2956   23.7679 H   0  0  0  0  0  0
  -15.8668  -28.0811   22.7047 H   0  0  0  0  0  0
  -24.5910  -30.7083   25.7794 H   0  0  0  0  0  0
  -24.8926  -32.2927   26.4832 H   0  0  0  0  0  0
  -25.8057  -30.8952   27.0249 H   0  0  0  0  0  0
  -26.2911  -29.6743   24.1206 H   0  0  0  0  0  0
  -27.4085  -29.7254   25.4643 H   0  0  0  0  0  0
  -27.8759  -30.4298   23.9358 H   0  0  0  0  0  0
  -27.2710  -33.3643   26.1984 H   0  0  0  0  0  0
  -28.3918  -32.6763   25.0332 H   0  0  0  0  0  0
  -28.0679  -31.8463   26.5463 H   0  0  0  0  0  0
  -28.2579  -38.0094   24.7513 H   0  0  0  0  0  0
  -28.1077  -36.2620   24.6279 H   0  0  0  0  0  0
  -27.2302  -37.1429   25.8874 H   0  0  0  0  0  0
  -20.9389  -29.8766   21.6928 H   0  0  0  0  0  0
  -26.0159  -38.2850   24.1416 H   0  0  0  0  0  0
  -27.9007  -19.9181   21.1527 H   0  0  0  0  0  0
  -32.0638  -17.3276   20.3787 H   0  0  0  0  0  0
  -33.2608  -19.2496   19.8490 H   0  0  0  0  0  0
  -32.9736  -20.3091   21.2251 H   0  0  0  0  0  0
  -32.4737  -20.7980   19.6002 H   0  0  0  0  0  0
  -29.4043  -24.2523   21.6683 H   0  0  0  0  0  0
  -30.2481  -24.3559   20.1516 H   0  0  0  0  0  0
  -27.2335  -24.7109   20.5338 H   0  0  0  0  0  0
  -28.0304  -24.7970   18.9771 H   0  0  0  0  0  0
  -28.9003  -15.4057   21.1490 H   0  0  0  0  0  0
  -28.4282  -22.1776   19.8697 H   0  0  0  0  0  0
  1 25  1  0  0  0
  1 30  2  0  0  0
  1 81  1  0  0  0
  2  3  1  0  0  0
  2 25  1  0  0  0
  2 85  1  0  0  0
  2 86  1  0  0  0
  3  4  1  0  0  0
  3 87  1  0  0  0
  3 88  1  0  0  0
  4  5  1  0  0  0
  4 89  1  0  0  0
  4 90  1  0  0  0
  5  6  1  0  0  0
  5 26  1  0  0  0
  5 91  1  0  0  0
  6 25  1  0  0  0
  6 92  1  0  0  0
  6 93  1  0  0  0
  7  8  2  0  0  0
  7 26  1  0  0  0
  7 29  1  0  0  0
  8  9  1  0  0  0
  8 22  1  0  0  0
  9 10  1  0  0  0
  9 27  2  0  0  0
 10 11  2  0  0  0
 10 15  1  0  0  0
 11 12  1  0  0  0
 11 94  1  0  0  0
 12 13  2  0  0  0
 12 95  1  0  0  0
 13 14  1  0  0  0
 13 31  1  0  0  0
 14 15  2  0  0  0
 14 96  1  0  0  0
 15 97  1  0  0  0
 16 17  2  0  0  0
 16 21  1  0  0  0
 16 31  1  0  0  0
 17 18  1  0  0  0
 17 98  1  0  0  0
 18 19  2  0  0  0
 18 99  1  0  0  0
 19 20  1  0  0  0
 19 24  1  0  0  0
 20 21  2  0  0  0
 20100  1  0  0  0
 21 23  1  0  0  0
 22 28  1  0  0  0
 22 32  2  0  0  0
 26 27  1  0  0  0
 28101  1  0  0  0
 28102  1  0  0  0
 29103  1  0  0  0
 29104  1  0  0  0
 33 34  1  0  0  0
 33 66  1  0  0  0
 33 70  2  0  0  0
 34 36  1  0  0  0
 34 59  1  0  0  0
 34105  1  0  0  0
 35 44  2  0  0  0
 35 45  1  0  0  0
 35 68  1  0  0  0
 36 56  1  0  0  0
 36106  1  0  0  0
 37 39  1  0  0  0
 37 47  1  0  0  0
 37 66  1  0  0  0
 37107  1  0  0  0
 38 43  2  0  0  0
 38 46  1  0  0  0
 38 47  1  0  0  0
 39 64  1  0  0  0
 39 67  2  0  0  0
 40 52  1  0  0  0
 40 53  2  0  0  0
 40 58  1  0  0  0
 41108  1  0  0  0
 41109  1  0  0  0
 41110  1  0  0  0
 41 48  1  0  0  0
 42 43  1  0  0  0
 42 66  1  0  0  0
 42111  1  0  0  0
 42112  1  0  0  0
 43 44  1  0  0  0
 44113  1  0  0  0
 45 46  2  0  0  0
 45114  1  0  0  0
 46115  1  0  0  0
 47116  1  0  0  0
 47117  1  0  0  0
 48 56  1  0  0  0
 48 65  1  0  0  0
 48118  1  0  0  0
 49 50  1  0  0  0
 49 53  1  0  0  0
 49 64  1  0  0  0
 49119  1  0  0  0
 50 51  1  0  0  0
 50120  1  0  0  0
 50121  1  0  0  0
 51 52  1  0  0  0
 51122  1  0  0  0
 51123  1  0  0  0
 52124  1  0  0  0
 52125  1  0  0  0
 53 54  1  0  0  0
 54 55  2  0  0  0
 54126  1  0  0  0
 55 57  1  0  0  0
 55127  1  0  0  0
 56 69  2  0  0  0
 57 58  2  0  0  0
 57128  1  0  0  0
 58129  1  0  0  0
 59 60  1  0  0  0
 59 61  1  0  0  0
 59 62  1  0  0  0
 60130  1  0  0  0
 60131  1  0  0  0
 60132  1  0  0  0
 61133  1  0  0  0
 61134  1  0  0  0
 61135  1  0  0  0
 62136  1  0  0  0
 62137  1  0  0  0
 62138  1  0  0  0
 63 65  1  0  0  0
 63139  1  0  0  0
 63140  1  0  0  0
 63141  1  0  0  0
 64142  1  0  0  0
 65143  1  0  0  0
 68 80  1  0  0  0
 71 73  2  0  0  0
 71 76  1  0  0  0
 71144  1  0  0  0
 72 74  2  0  0  0
 72 75  1  0  0  0
 72145  1  0  0  0
 73 74  1  0  0  0
 73 77  1  0  0  0
 74 78  1  0  0  0
 75 76  2  0  0  0
 75 81  1  0  0  0
 76 84  1  0  0  0
 77 82  1  0  0  0
 77 83  2  0  0  0
 78146  1  0  0  0
 78147  1  0  0  0
 78148  1  0  0  0
 79 80  1  0  0  0
 79 82  1  0  0  0
 79149  1  0  0  0
 79150  1  0  0  0
 80151  1  0  0  0
 80152  1  0  0  0
 81153  1  0  0  0
 82154  1  0  0  0
M  ISO  4   1 100  68 101  80 101  81 100
M  END
> <chiral flag>
0

> <version>
0

> <s_m_source_file>
/data/baiqing/PycharmProjects/Reinvent-master-3.2/result/LINK_invent/BTK/process_docking_weight1_custom_product_contain_oxygen_bond_distance_aromatic_linkinvent_7_9_3/rearranged_h_0100.sdf

> <i_m_source_file_index>
26

> <r_mmod_Potential_Energy-OPLS-2005>
-44.1320533752441

> <r_mmod_Stretch_Energy-OPLS-2005>
84.1294937133789

> <r_mmod_Bend_Energy-OPLS-2005>
142.617095947266

> <r_mmod_Torsional_Energy-OPLS-2005>
223.585891723633

> <r_mmod_Improper_Torsional_Energy-OPLS-2005>
4.74073696136475

> <r_mmod_Van_der_Waal_Energy-OPLS-2005>
148.412078857422

> <r_mmod_Electrostatic_Energy-OPLS-2005>
-475.971099853516

> <r_mmod_Solvation_Energy-OPLS-2005>
-223.704330444336

> <b_mmod_Minimization_Converged-OPLS-2005>
0

> <r_mmod_RMS_Derivative-OPLS-2005>
2.04645705223083

$$$$
26
                    3D
 Structure written by MMmdl.
157165  0  0  1  0            999 V2000
  -30.7070  -14.6364   20.5890 C   0  0  0  0  0  0
  -30.4237  -12.4137   19.4823 C   0  0  0  0  0  0
  -29.5124  -12.5132   18.2388 C   0  0  0  0  0  0
  -28.0405  -12.3209   18.6419 C   0  0  0  0  0  0
  -27.6465  -13.2163   19.8396 C   0  0  2  0  0  0
  -28.6748  -13.1160   20.9845 C   0  0  0  0  0  0
  -25.2527  -13.8159   20.5595 C   0  0  0  0  0  0
  -24.1808  -13.0432   20.9157 C   0  0  0  0  0  0
  -24.6376  -11.6908   20.8674 C   0  0  0  0  0  0
  -23.9058  -10.4302   21.0390 C   0  0  0  0  0  0
  -24.3610   -9.4222   21.9174 C   0  0  0  0  0  0
  -23.6284   -8.2255   22.0748 C   0  0  0  0  0  0
  -22.4264   -8.0295   21.3551 C   0  0  0  0  0  0
  -21.9897   -9.0262   20.4638 C   0  0  0  0  0  0
  -22.7225  -10.2141   20.3043 C   0  0  0  0  0  0
  -21.6846   -6.0737   22.5289 C   0  0  0  0  0  0
  -21.4026   -6.5638   23.8221 C   0  0  0  0  0  0
  -21.3655   -5.6784   24.9176 C   0  0  0  0  0  0
  -21.6034   -4.3047   24.7239 C   0  0  0  0  0  0
  -21.8810   -3.8141   23.4358 C   0  0  0  0  0  0
  -21.9189   -4.6960   22.3409 C   0  0  0  0  0  0
  -22.7839  -13.5233   21.1853 C   0  0  0  0  0  0
  -22.1641   -4.2138   21.0982 F   0  0  0  0  0  0
  -21.5624   -3.4529   25.7751 F   0  0  0  0  0  0
  -30.0086  -13.4519   20.4565 N   0  0  0  0  0  0
  -26.2931  -12.9332   20.3124 N   0  0  0  0  0  0
  -25.9296  -11.6496   20.5646 N   0  0  0  0  0  0
  -22.0473  -12.8255   22.0420 N   0  0  0  0  0  0
  -25.4220  -15.1885   20.4047 N   0  0  0  0  0  0
  -31.7920  -14.7652   20.0160 O   0  0  0  0  0  0
  -21.6640   -6.8888   21.4260 O   0  0  0  0  0  0
  -22.3546  -14.5549   20.6706 O   0  0  0  0  0  0
  -24.6278  -31.8580   23.2032 C   0  0  0  0  0  0
  -25.9112  -32.4782   23.8367 C   0  0  1  0  0  0
  -27.2385  -27.3178   20.1121 C   0  0  0  0  0  0
  -25.5932  -33.8578   24.2308 N   0  0  0  0  0  0
  -23.4249  -30.4836   21.5437 C   0  0  2  0  0  0
  -24.8780  -28.9441   20.1103 C   0  0  0  0  0  0
  -22.7488  -29.4626   22.4905 C   0  0  0  0  0  0
  -18.0286  -28.1392   22.8488 C   0  0  0  0  0  0
  -24.1493  -36.7291   23.2641 C   0  0  0  0  0  0
  -25.9672  -30.7921   21.3775 C   0  0  0  0  0  0
  -26.0460  -29.4187   20.7188 C   0  0  0  0  0  0
  -27.2295  -28.6166   20.7107 C   0  0  0  0  0  0
  -26.0420  -26.9065   19.4735 C   0  0  0  0  0  0
  -24.8796  -27.6934   19.4758 C   0  0  0  0  0  0
  -23.6442  -29.8193   20.1589 C   0  0  0  0  0  0
  -25.4115  -36.3088   24.0343 C   0  0  1  0  0  0
  -20.5896  -28.3711   23.1275 C   0  0  2  0  0  0
  -20.6796  -26.9436   22.5407 C   0  0  0  0  0  0
  -19.5763  -26.6401   21.5219 C   0  0  0  0  0  0
  -18.1939  -26.7938   22.1628 C   0  0  0  0  0  0
  -19.1541  -28.8858   23.2883 C   0  0  0  0  0  0
  -18.9463  -30.1464   23.8901 C   0  0  0  0  0  0
  -17.6459  -30.6594   24.0576 C   0  0  0  0  0  0
  -25.9040  -34.9449   23.5118 C   0  0  0  0  0  0
  -16.5348  -29.9093   23.6334 C   0  0  0  0  0  0
  -16.7274  -28.6514   23.0347 C   0  0  0  0  0  0
  -26.4500  -31.6563   25.0716 C   0  0  0  0  0  0
  -25.3756  -31.3672   26.1457 C   0  0  0  0  0  0
  -27.0342  -30.2993   24.6132 C   0  0  0  0  0  0
  -27.6065  -32.4284   25.7477 C   0  0  0  0  0  0
  -27.5575  -37.1809   24.8464 C   0  0  0  0  0  0
  -21.4194  -29.3071   22.3658 N   0  0  0  0  0  0
  -26.4289  -37.3783   23.9402 N   0  0  0  0  0  0
  -24.6919  -31.0592   22.0985 N   0  0  0  0  0  0
  -23.4203  -28.8146   23.2982 O   0  0  0  0  0  0
  -28.3466  -26.4502   20.1570 O   0  0  0  0  0  0
  -26.5582  -34.8909   22.4671 O   0  0  0  0  0  0
  -23.5435  -32.1343   23.7353 O   0  0  0  0  0  0
  -28.8714  -19.1666   20.3194 C   0  0  0  0  0  0
  -28.9546  -17.7536   20.5434 C   0  0  0  0  0  0
  -31.2345  -19.3389   20.6811 C   0  0  0  0  0  0
  -30.0141  -20.0060   20.3988 C   0  0  0  0  0  0
  -30.1749  -17.0919   20.8668 C   0  0  0  0  0  0
  -31.3251  -17.9354   20.9213 C   0  0  0  0  0  0
  -29.2086  -23.9453   20.2544 C   0  0  0  0  0  0
  -30.1949  -16.7557   23.6770 C   0  0  0  0  0  0
  -28.8647  -22.3915   20.2250 C   0  0  0  0  0  0
  -28.0360  -24.9941   20.1001 C   0  0  0  0  0  0
  -30.1670  -15.4835   22.8029 C   0  0  0  0  0  0
  -30.0205  -21.4342   20.2197 N   0  0  0  0  0  0
  -30.1830  -15.6873   21.3271 N   0  0  0  0  0  0
  -30.3814  -24.3119   20.3800 O   0  0  0  0  0  0
  -32.8735  -17.3140   21.3795 Cl  0  0  0  0  0  0
  -31.4699  -12.5057   19.1863 H   0  0  0  0  0  0
  -30.3399  -11.4260   19.9388 H   0  0  0  0  0  0
  -29.8011  -11.7616   17.5035 H   0  0  0  0  0  0
  -29.6443  -13.4833   17.7593 H   0  0  0  0  0  0
  -27.9071  -11.2725   18.9132 H   0  0  0  0  0  0
  -27.3825  -12.5008   17.7916 H   0  0  0  0  0  0
  -27.6572  -14.2439   19.4721 H   0  0  0  0  0  0
  -28.6812  -12.1196   21.4265 H   0  0  0  0  0  0
  -28.3403  -13.7846   21.7662 H   0  0  0  0  0  0
  -25.2762   -9.5702   22.4742 H   0  0  0  0  0  0
  -23.9985   -7.4655   22.7473 H   0  0  0  0  0  0
  -21.0812   -8.8785   19.8959 H   0  0  0  0  0  0
  -22.3670  -10.9680   19.6147 H   0  0  0  0  0  0
  -21.2026   -7.6136   23.9737 H   0  0  0  0  0  0
  -21.1472   -6.0501   25.9080 H   0  0  0  0  0  0
  -22.0590   -2.7608   23.2856 H   0  0  0  0  0  0
  -22.4085  -11.9943   22.4848 H   0  0  0  0  0  0
  -21.1093  -13.1317   22.2605 H   0  0  0  0  0  0
  -24.6569  -15.8420   20.5326 H   0  0  0  0  0  0
  -26.2731  -15.6325   20.0877 H   0  0  0  0  0  0
  -26.7176  -32.5466   23.1117 H   0  0  0  0  0  0
  -25.0150  -33.9705   25.0504 H   0  0  0  0  0  0
  -22.7231  -31.3061   21.3972 H   0  0  0  0  0  0
  -23.3749  -35.9626   23.3311 H   0  0  0  0  0  0
  -24.3587  -36.8889   22.2048 H   0  0  0  0  0  0
  -23.7231  -37.6499   23.6640 H   0  0  0  0  0  0
  -26.0938  -31.5551   20.6089 H   0  0  0  0  0  0
  -26.8515  -30.8442   22.0008 H   0  0  0  0  0  0
  -28.1264  -28.9725   21.1990 H   0  0  0  0  0  0
  -25.9710  -25.9636   18.9557 H   0  0  0  0  0  0
  -23.9910  -27.3292   18.9796 H   0  0  0  0  0  0
  -23.7637  -30.5937   19.4005 H   0  0  0  0  0  0
  -22.7681  -29.2438   19.8548 H   0  0  0  0  0  0
  -25.1291  -36.1957   25.0835 H   0  0  0  0  0  0
  -20.9998  -28.3289   24.1387 H   0  0  0  0  0  0
  -20.5729  -26.2305   23.3599 H   0  0  0  0  0  0
  -21.6660  -26.7484   22.1178 H   0  0  0  0  0  0
  -19.6932  -25.6312   21.1236 H   0  0  0  0  0  0
  -19.6702  -27.3222   20.6755 H   0  0  0  0  0  0
  -17.4216  -26.6681   21.4024 H   0  0  0  0  0  0
  -18.0344  -26.0083   22.9019 H   0  0  0  0  0  0
  -19.7935  -30.7291   24.2271 H   0  0  0  0  0  0
  -17.5008  -31.6276   24.5181 H   0  0  0  0  0  0
  -15.5351  -30.2999   23.7661 H   0  0  0  0  0  0
  -15.8674  -28.0849   22.7044 H   0  0  0  0  0  0
  -24.5941  -30.7013   25.7790 H   0  0  0  0  0  0
  -24.8959  -32.2839   26.4894 H   0  0  0  0  0  0
  -25.8128  -30.8848   27.0212 H   0  0  0  0  0  0
  -26.2917  -29.6743   24.1162 H   0  0  0  0  0  0
  -27.8777  -30.4286   23.9347 H   0  0  0  0  0  0
  -27.4062  -29.7228   25.4611 H   0  0  0  0  0  0
  -27.2676  -33.3579   26.2064 H   0  0  0  0  0  0
  -28.3872  -32.6845   25.0302 H   0  0  0  0  0  0
  -28.0734  -31.8405   26.5380 H   0  0  0  0  0  0
  -28.2608  -38.0093   24.7509 H   0  0  0  0  0  0
  -28.1061  -36.2625   24.6316 H   0  0  0  0  0  0
  -27.2297  -37.1499   25.8870 H   0  0  0  0  0  0
  -20.9352  -29.8795   21.6877 H   0  0  0  0  0  0
  -26.0177  -38.2858   24.1410 H   0  0  0  0  0  0
  -27.9052  -19.6006   20.1048 H   0  0  0  0  0  0
  -28.0407  -17.1766   20.5169 H   0  0  0  0  0  0
  -32.1440  -19.9154   20.7568 H   0  0  0  0  0  0
  -29.3825  -17.4407   23.4337 H   0  0  0  0  0  0
  -31.1392  -17.2949   23.5979 H   0  0  0  0  0  0
  -30.0758  -16.4882   24.7265 H   0  0  0  0  0  0
  -28.2561  -22.2166   19.3375 H   0  0  0  0  0  0
  -28.2265  -22.1746   21.0829 H   0  0  0  0  0  0
  -27.3001  -24.7674   20.8738 H   0  0  0  0  0  0
  -27.5823  -24.7566   19.1417 H   0  0  0  0  0  0
  -29.2767  -14.9478   23.1166 H   0  0  0  0  0  0
  -31.0085  -14.8533   23.1003 H   0  0  0  0  0  0
  -30.9226  -21.9066   20.2305 H   0  0  0  0  0  0
  1 25  1  0  0  0
  1 30  2  0  0  0
  1 83  1  0  0  0
  2  3  1  0  0  0
  2 25  1  0  0  0
  2 86  1  0  0  0
  2 87  1  0  0  0
  3  4  1  0  0  0
  3 88  1  0  0  0
  3 89  1  0  0  0
  4  5  1  0  0  0
  4 90  1  0  0  0
  4 91  1  0  0  0
  5  6  1  0  0  0
  5 26  1  0  0  0
  5 92  1  0  0  0
  6 25  1  0  0  0
  6 93  1  0  0  0
  6 94  1  0  0  0
  7  8  2  0  0  0
  7 26  1  0  0  0
  7 29  1  0  0  0
  8  9  1  0  0  0
  8 22  1  0  0  0
  9 10  1  0  0  0
  9 27  2  0  0  0
 10 11  2  0  0  0
 10 15  1  0  0  0
 11 12  1  0  0  0
 11 95  1  0  0  0
 12 13  2  0  0  0
 12 96  1  0  0  0
 13 14  1  0  0  0
 13 31  1  0  0  0
 14 15  2  0  0  0
 14 97  1  0  0  0
 15 98  1  0  0  0
 16 17  2  0  0  0
 16 21  1  0  0  0
 16 31  1  0  0  0
 17 18  1  0  0  0
 17 99  1  0  0  0
 18 19  2  0  0  0
 18100  1  0  0  0
 19 20  1  0  0  0
 19 24  1  0  0  0
 20 21  2  0  0  0
 20101  1  0  0  0
 21 23  1  0  0  0
 22 28  1  0  0  0
 22 32  2  0  0  0
 26 27  1  0  0  0
 28102  1  0  0  0
 28103  1  0  0  0
 29104  1  0  0  0
 29105  1  0  0  0
 33 34  1  0  0  0
 33 66  1  0  0  0
 33 70  2  0  0  0
 34 36  1  0  0  0
 34 59  1  0  0  0
 34106  1  0  0  0
 35 44  2  0  0  0
 35 45  1  0  0  0
 35 68  1  0  0  0
 36 56  1  0  0  0
 36107  1  0  0  0
 37 39  1  0  0  0
 37 47  1  0  0  0
 37 66  1  0  0  0
 37108  1  0  0  0
 38 43  2  0  0  0
 38 46  1  0  0  0
 38 47  1  0  0  0
 39 64  1  0  0  0
 39 67  2  0  0  0
 40 52  1  0  0  0
 40 53  2  0  0  0
 40 58  1  0  0  0
 41109  1  0  0  0
 41110  1  0  0  0
 41111  1  0  0  0
 41 48  1  0  0  0
 42 43  1  0  0  0
 42 66  1  0  0  0
 42112  1  0  0  0
 42113  1  0  0  0
 43 44  1  0  0  0
 44114  1  0  0  0
 45 46  2  0  0  0
 45115  1  0  0  0
 46116  1  0  0  0
 47117  1  0  0  0
 47118  1  0  0  0
 48 56  1  0  0  0
 48 65  1  0  0  0
 48119  1  0  0  0
 49 50  1  0  0  0
 49 53  1  0  0  0
 49 64  1  0  0  0
 49120  1  0  0  0
 50 51  1  0  0  0
 50121  1  0  0  0
 50122  1  0  0  0
 51 52  1  0  0  0
 51123  1  0  0  0
 51124  1  0  0  0
 52125  1  0  0  0
 52126  1  0  0  0
 53 54  1  0  0  0
 54 55  2  0  0  0
 54127  1  0  0  0
 55 57  1  0  0  0
 55128  1  0  0  0
 56 69  2  0  0  0
 57 58  2  0  0  0
 57129  1  0  0  0
 58130  1  0  0  0
 59 60  1  0  0  0
 59 61  1  0  0  0
 59 62  1  0  0  0
 60131  1  0  0  0
 60132  1  0  0  0
 60133  1  0  0  0
 61134  1  0  0  0
 61135  1  0  0  0
 61136  1  0  0  0
 62137  1  0  0  0
 62138  1  0  0  0
 62139  1  0  0  0
 63 65  1  0  0  0
 63140  1  0  0  0
 63141  1  0  0  0
 63142  1  0  0  0
 64143  1  0  0  0
 65144  1  0  0  0
 68 80  1  0  0  0
 71 72  2  0  0  0
 71 74  1  0  0  0
 71145  1  0  0  0
 72 75  1  0  0  0
 72146  1  0  0  0
 73 74  2  0  0  0
 73 76  1  0  0  0
 73147  1  0  0  0
 74 82  1  0  0  0
 75 76  2  0  0  0
 75 83  1  0  0  0
 76 85  1  0  0  0
 77 79  1  0  0  0
 77 80  1  0  0  0
 77 84  2  0  0  0
 78 81  1  0  0  0
 78148  1  0  0  0
 78149  1  0  0  0
 78150  1  0  0  0
 79 82  1  0  0  0
 79151  1  0  0  0
 79152  1  0  0  0
 80153  1  0  0  0
 80154  1  0  0  0
 81 83  1  0  0  0
 81155  1  0  0  0
 81156  1  0  0  0
 82157  1  0  0  0
M  ISO  4   1 100  68 101  80 101  83 100
M  END
> <chiral flag>
0

> <version>
0

> <s_m_source_file>
/data/baiqing/PycharmProjects/Reinvent-master-3.2/result/LINK_invent/BTK/process_docking_weight1_custom_product_contain_oxygen_bond_distance_aromatic_linkinvent_7_9_3/rearranged_h_0100.sdf

> <i_m_source_file_index>
27

> <r_mmod_Potential_Energy-OPLS-2005>
283.369293212891

> <r_mmod_Stretch_Energy-OPLS-2005>
93.5690536499023

> <r_mmod_Bend_Energy-OPLS-2005>
161.158950805664

> <r_mmod_Torsional_Energy-OPLS-2005>
299.954711914062

> <r_mmod_Improper_Torsional_Energy-OPLS-2005>
4.87627649307251

> <r_mmod_Van_der_Waal_Energy-OPLS-2005>
151.029495239258

> <r_mmod_Electrostatic_Energy-OPLS-2005>
-248.755325317383

> <r_mmod_Solvation_Energy-OPLS-2005>
-228.118011474609

> <b_mmod_Minimization_Converged-OPLS-2005>
0

> <r_mmod_RMS_Derivative-OPLS-2005>
3.53584551811218

$$$$
27
                    3D
 Structure written by MMmdl.
164173  0  0  1  0            999 V2000
  -30.7026  -14.4955   20.5397 C   0  0  0  0  0  0
  -30.4122  -12.3091   19.4337 C   0  0  0  0  0  0
  -29.4950  -12.5124   18.2098 C   0  0  0  0  0  0
  -28.0143  -12.3697   18.6184 C   0  0  0  0  0  0
  -27.6579  -13.2126   19.8717 C   0  0  2  0  0  0
  -28.7010  -13.0219   20.9985 C   0  0  0  0  0  0
  -25.2586  -13.8162   20.5640 C   0  0  0  0  0  0
  -24.1844  -13.0445   20.9170 C   0  0  0  0  0  0
  -24.6403  -11.6909   20.8744 C   0  0  0  0  0  0
  -23.9073  -10.4297   21.0404 C   0  0  0  0  0  0
  -24.3630   -9.4220   21.9194 C   0  0  0  0  0  0
  -23.6307   -8.2257   22.0773 C   0  0  0  0  0  0
  -22.4280   -8.0287   21.3574 C   0  0  0  0  0  0
  -21.9917   -9.0251   20.4667 C   0  0  0  0  0  0
  -22.7245  -10.2131   20.3061 C   0  0  0  0  0  0
  -21.6850   -6.0756   22.5292 C   0  0  0  0  0  0
  -21.4014   -6.5661   23.8228 C   0  0  0  0  0  0
  -21.3670   -5.6809   24.9188 C   0  0  0  0  0  0
  -21.6044   -4.3071   24.7229 C   0  0  0  0  0  0
  -21.8814   -3.8172   23.4347 C   0  0  0  0  0  0
  -21.9183   -4.6988   22.3409 C   0  0  0  0  0  0
  -22.7873  -13.5250   21.1816 C   0  0  0  0  0  0
  -22.1631   -4.2179   21.0984 F   0  0  0  0  0  0
  -21.5653   -3.4547   25.7740 F   0  0  0  0  0  0
  -30.0287  -13.3154   20.4371 N   0  0  0  0  0  0
  -26.3011  -12.9344   20.3353 N   0  0  0  0  0  0
  -25.9340  -11.6502   20.5798 N   0  0  0  0  0  0
  -22.0505  -12.8259   22.0373 N   0  0  0  0  0  0
  -25.4276  -15.1879   20.3969 N   0  0  0  0  0  0
  -31.8492  -14.6308   20.1033 O   0  0  0  0  0  0
  -21.6645   -6.8891   21.4250 O   0  0  0  0  0  0
  -22.3576  -14.5560   20.6652 O   0  0  0  0  0  0
  -24.6172  -31.8659   23.2089 C   0  0  0  0  0  0
  -25.9051  -32.4815   23.8399 C   0  0  1  0  0  0
  -27.2290  -27.4160   20.1052 C   0  0  0  0  0  0
  -25.5891  -33.8616   24.2327 N   0  0  0  0  0  0
  -23.4064  -30.4875   21.5524 C   0  0  2  0  0  0
  -24.8524  -28.9498   20.1167 C   0  0  0  0  0  0
  -22.7428  -29.4636   22.5027 C   0  0  0  0  0  0
  -18.0267  -28.1373   22.8493 C   0  0  0  0  0  0
  -24.1477  -36.7308   23.2643 C   0  0  0  0  0  0
  -25.9383  -30.8263   21.3629 C   0  0  0  0  0  0
  -26.0162  -29.4603   20.7082 C   0  0  0  0  0  0
  -27.2129  -28.7047   20.6911 C   0  0  0  0  0  0
  -26.0512  -26.9226   19.5079 C   0  0  0  0  0  0
  -24.8665  -27.6810   19.5109 C   0  0  0  0  0  0
  -23.6146  -29.8165   20.1683 C   0  0  0  0  0  0
  -25.4100  -36.3117   24.0349 C   0  0  1  0  0  0
  -20.5861  -28.3653   23.1324 C   0  0  2  0  0  0
  -20.6753  -26.9390   22.5419 C   0  0  0  0  0  0
  -19.5735  -26.6377   21.5215 C   0  0  0  0  0  0
  -18.1913  -26.7920   22.1617 C   0  0  0  0  0  0
  -19.1521  -28.8832   23.2896 C   0  0  0  0  0  0
  -18.9444  -30.1447   23.8901 C   0  0  0  0  0  0
  -17.6445  -30.6577   24.0558 C   0  0  0  0  0  0
  -25.9036  -34.9477   23.5143 C   0  0  0  0  0  0
  -16.5336  -29.9075   23.6336 C   0  0  0  0  0  0
  -16.7255  -28.6489   23.0361 C   0  0  0  0  0  0
  -26.4467  -31.6604   25.0737 C   0  0  0  0  0  0
  -25.3732  -31.3700   26.1492 C   0  0  0  0  0  0
  -27.0295  -30.3047   24.6118 C   0  0  0  0  0  0
  -27.6063  -32.4323   25.7475 C   0  0  0  0  0  0
  -27.5587  -37.1801   24.8467 C   0  0  0  0  0  0
  -21.4163  -29.3016   22.3741 N   0  0  0  0  0  0
  -26.4289  -37.3801   23.9425 N   0  0  0  0  0  0
  -24.6729  -31.0744   22.0994 N   0  0  0  0  0  0
  -23.4195  -28.8192   23.3078 O   0  0  0  0  0  0
  -28.3649  -26.6332   20.1132 O   0  0  0  0  0  0
  -26.5613  -34.8927   22.4714 O   0  0  0  0  0  0
  -23.5362  -32.1425   23.7477 O   0  0  0  0  0  0
  -29.3293  -17.9440   20.8812 C   0  0  0  0  0  0
  -30.9798  -19.7100   21.1837 C   0  0  0  0  0  0
  -31.6704  -17.3728   21.2336 C   0  0  0  0  0  0
  -29.6385  -19.3320   20.9568 C   0  0  0  0  0  0
  -30.3368  -16.9486   21.0135 C   0  0  0  0  0  0
  -31.9999  -18.7486   21.3157 C   0  0  0  0  0  0
  -27.9353  -23.5992   19.0965 C   0  0  0  0  0  0
  -28.2752  -22.0956   19.0001 C   0  0  0  0  0  0
  -28.8814  -22.9012   21.1557 C   0  0  0  0  0  0
  -28.8030  -24.1426   20.2343 C   0  0  2  0  0  0
  -34.3572  -18.3166   21.5137 C   0  0  0  0  0  0
  -28.5321  -20.4025   20.8736 C   0  0  0  0  0  0
  -28.2648  -25.4354   20.9152 C   0  0  0  0  0  0
  -29.9726  -15.5537   20.9727 N   0  0  0  0  0  0
  -28.9520  -21.7098   20.2651 N   0  3  1  0  0  0
  -33.2700  -19.2336   21.5400 O   0  0  0  0  0  0
  -31.4621  -12.3778   19.1456 H   0  0  0  0  0  0
  -30.2809  -11.3049   19.8401 H   0  0  0  0  0  0
  -29.7417  -11.7937   17.4269 H   0  0  0  0  0  0
  -29.6664  -13.5021   17.7826 H   0  0  0  0  0  0
  -27.8269  -11.3136   18.8164 H   0  0  0  0  0  0
  -27.3604  -12.6425   17.7885 H   0  0  0  0  0  0
  -27.6896  -14.2564   19.5602 H   0  0  0  0  0  0
  -28.6816  -11.9967   21.3733 H   0  0  0  0  0  0
  -28.4692  -13.6513   21.8589 H   0  0  0  0  0  0
  -25.2774   -9.5694   22.4769 H   0  0  0  0  0  0
  -24.0029   -7.4652   22.7488 H   0  0  0  0  0  0
  -21.0862   -8.8761   19.8973 H   0  0  0  0  0  0
  -22.3706  -10.9671   19.6173 H   0  0  0  0  0  0
  -21.2002   -7.6169   23.9745 H   0  0  0  0  0  0
  -21.1491   -6.0536   25.9097 H   0  0  0  0  0  0
  -22.0573   -2.7633   23.2826 H   0  0  0  0  0  0
  -22.4096  -11.9908   22.4751 H   0  0  0  0  0  0
  -21.1135  -13.1318   22.2609 H   0  0  0  0  0  0
  -24.6467  -15.8303   20.4760 H   0  0  0  0  0  0
  -26.2696  -15.6264   20.0464 H   0  0  0  0  0  0
  -26.7129  -32.5512   23.1170 H   0  0  0  0  0  0
  -25.0028  -33.9763   25.0463 H   0  0  0  0  0  0
  -22.6971  -31.3059   21.4131 H   0  0  0  0  0  0
  -23.3756  -35.9625   23.3303 H   0  0  0  0  0  0
  -24.3571  -36.8925   22.2058 H   0  0  0  0  0  0
  -23.7200  -37.6501   23.6653 H   0  0  0  0  0  0
  -26.0542  -31.5910   20.5941 H   0  0  0  0  0  0
  -26.8253  -30.8782   21.9832 H   0  0  0  0  0  0
  -28.1139  -29.0940   21.1455 H   0  0  0  0  0  0
  -26.0461  -25.9442   19.0507 H   0  0  0  0  0  0
  -23.9721  -27.2802   19.0558 H   0  0  0  0  0  0
  -23.7245  -30.5906   19.4085 H   0  0  0  0  0  0
  -22.7375  -29.2374   19.8727 H   0  0  0  0  0  0
  -25.1273  -36.1992   25.0845 H   0  0  0  0  0  0
  -20.9939  -28.3200   24.1450 H   0  0  0  0  0  0
  -20.5655  -26.2253   23.3603 H   0  0  0  0  0  0
  -21.6622  -26.7436   22.1205 H   0  0  0  0  0  0
  -19.6887  -25.6293   21.1231 H   0  0  0  0  0  0
  -19.6670  -27.3201   20.6761 H   0  0  0  0  0  0
  -17.4187  -26.6693   21.4017 H   0  0  0  0  0  0
  -18.0298  -26.0052   22.9001 H   0  0  0  0  0  0
  -19.7920  -30.7267   24.2270 H   0  0  0  0  0  0
  -17.4994  -31.6264   24.5151 H   0  0  0  0  0  0
  -15.5337  -30.2974   23.7657 H   0  0  0  0  0  0
  -15.8654  -28.0804   22.7094 H   0  0  0  0  0  0
  -24.5878  -30.7086   25.7815 H   0  0  0  0  0  0
  -24.8945  -32.2841   26.5011 H   0  0  0  0  0  0
  -25.8069  -30.8801   27.0215 H   0  0  0  0  0  0
  -26.2825  -29.6801   24.1195 H   0  0  0  0  0  0
  -27.4092  -29.7297   25.4575 H   0  0  0  0  0  0
  -27.8657  -30.4383   23.9250 H   0  0  0  0  0  0
  -27.2717  -33.3633   26.2064 H   0  0  0  0  0  0
  -28.3841  -32.6863   25.0260 H   0  0  0  0  0  0
  -28.0764  -31.8433   26.5362 H   0  0  0  0  0  0
  -28.2610  -38.0098   24.7549 H   0  0  0  0  0  0
  -28.1077  -36.2636   24.6253 H   0  0  0  0  0  0
  -27.2309  -37.1413   25.8870 H   0  0  0  0  0  0
  -20.9353  -29.8711   21.6925 H   0  0  0  0  0  0
  -26.0189  -38.2883   24.1433 H   0  0  0  0  0  0
  -28.3016  -17.6439   20.7305 H   0  0  0  0  0  0
  -31.2502  -20.7513   21.2801 H   0  0  0  0  0  0
  -32.4400  -16.6306   21.3654 H   0  0  0  0  0  0
  -26.8811  -23.7080   19.3543 H   0  0  0  0  0  0
  -28.0953  -24.1289   18.1570 H   0  0  0  0  0  0
  -28.9566  -21.9024   18.1699 H   0  0  0  0  0  0
  -27.3671  -21.5222   18.8101 H   0  0  0  0  0  0
  -27.9773  -22.8490   21.7655 H   0  0  0  0  0  0
  -29.7291  -22.9411   21.8412 H   0  0  0  0  0  0
  -29.8039  -24.3438   19.8492 H   0  0  0  0  0  0
  -34.2601  -17.5426   22.2755 H   0  0  0  0  0  0
  -35.2821  -18.8528   21.7210 H   0  0  0  0  0  0
  -34.4592  -17.8500   20.5328 H   0  0  0  0  0  0
  -28.1610  -20.5642   21.8855 H   0  0  0  0  0  0
  -27.6891  -19.9800   20.3263 H   0  0  0  0  0  0
  -28.8478  -25.6223   21.8189 H   0  0  0  0  0  0
  -27.2449  -25.2587   21.2667 H   0  0  0  0  0  0
  -29.0134  -15.3348   21.1912 H   0  0  0  0  0  0
  -29.9244  -21.5935   20.0231 H   0  0  0  0  0  0
  1 25  1  0  0  0
  1 30  2  0  0  0
  1 84  1  0  0  0
  2  3  1  0  0  0
  2 25  1  0  0  0
  2 87  1  0  0  0
  2 88  1  0  0  0
  3  4  1  0  0  0
  3 89  1  0  0  0
  3 90  1  0  0  0
  4  5  1  0  0  0
  4 91  1  0  0  0
  4 92  1  0  0  0
  5  6  1  0  0  0
  5 26  1  0  0  0
  5 93  1  0  0  0
  6 25  1  0  0  0
  6 94  1  0  0  0
  6 95  1  0  0  0
  7  8  2  0  0  0
  7 26  1  0  0  0
  7 29  1  0  0  0
  8  9  1  0  0  0
  8 22  1  0  0  0
  9 10  1  0  0  0
  9 27  2  0  0  0
 10 11  2  0  0  0
 10 15  1  0  0  0
 11 12  1  0  0  0
 11 96  1  0  0  0
 12 13  2  0  0  0
 12 97  1  0  0  0
 13 14  1  0  0  0
 13 31  1  0  0  0
 14 15  2  0  0  0
 14 98  1  0  0  0
 15 99  1  0  0  0
 16 17  2  0  0  0
 16 21  1  0  0  0
 16 31  1  0  0  0
 17 18  1  0  0  0
 17100  1  0  0  0
 18 19  2  0  0  0
 18101  1  0  0  0
 19 20  1  0  0  0
 19 24  1  0  0  0
 20 21  2  0  0  0
 20102  1  0  0  0
 21 23  1  0  0  0
 22 28  1  0  0  0
 22 32  2  0  0  0
 26 27  1  0  0  0
 28103  1  0  0  0
 28104  1  0  0  0
 29105  1  0  0  0
 29106  1  0  0  0
 33 34  1  0  0  0
 33 66  1  0  0  0
 33 70  2  0  0  0
 34 36  1  0  0  0
 34 59  1  0  0  0
 34107  1  0  0  0
 35 44  2  0  0  0
 35 45  1  0  0  0
 35 68  1  0  0  0
 36 56  1  0  0  0
 36108  1  0  0  0
 37 39  1  0  0  0
 37 47  1  0  0  0
 37 66  1  0  0  0
 37109  1  0  0  0
 38 43  2  0  0  0
 38 46  1  0  0  0
 38 47  1  0  0  0
 39 64  1  0  0  0
 39 67  2  0  0  0
 40 52  1  0  0  0
 40 53  2  0  0  0
 40 58  1  0  0  0
 41110  1  0  0  0
 41111  1  0  0  0
 41112  1  0  0  0
 41 48  1  0  0  0
 42 43  1  0  0  0
 42 66  1  0  0  0
 42113  1  0  0  0
 42114  1  0  0  0
 43 44  1  0  0  0
 44115  1  0  0  0
 45 46  2  0  0  0
 45116  1  0  0  0
 46117  1  0  0  0
 47118  1  0  0  0
 47119  1  0  0  0
 48 56  1  0  0  0
 48 65  1  0  0  0
 48120  1  0  0  0
 49 50  1  0  0  0
 49 53  1  0  0  0
 49 64  1  0  0  0
 49121  1  0  0  0
 50 51  1  0  0  0
 50122  1  0  0  0
 50123  1  0  0  0
 51 52  1  0  0  0
 51124  1  0  0  0
 51125  1  0  0  0
 52126  1  0  0  0
 52127  1  0  0  0
 53 54  1  0  0  0
 54 55  2  0  0  0
 54128  1  0  0  0
 55 57  1  0  0  0
 55129  1  0  0  0
 56 69  2  0  0  0
 57 58  2  0  0  0
 57130  1  0  0  0
 58131  1  0  0  0
 59 60  1  0  0  0
 59 61  1  0  0  0
 59 62  1  0  0  0
 60132  1  0  0  0
 60133  1  0  0  0
 60134  1  0  0  0
 61135  1  0  0  0
 61136  1  0  0  0
 61137  1  0  0  0
 62138  1  0  0  0
 62139  1  0  0  0
 62140  1  0  0  0
 63 65  1  0  0  0
 63141  1  0  0  0
 63142  1  0  0  0
 63143  1  0  0  0
 64144  1  0  0  0
 65145  1  0  0  0
 68 83  1  0  0  0
 71 74  2  0  0  0
 71 75  1  0  0  0
 71146  1  0  0  0
 72 74  1  0  0  0
 72 76  2  0  0  0
 72147  1  0  0  0
 73 75  2  0  0  0
 73 76  1  0  0  0
 73148  1  0  0  0
 74 82  1  0  0  0
 75 84  1  0  0  0
 76 86  1  0  0  0
 77 78  1  0  0  0
 77 80  1  0  0  0
 77149  1  0  0  0
 77150  1  0  0  0
 78 85  1  0  0  0
 78151  1  0  0  0
 78152  1  0  0  0
 79 80  1  0  0  0
 79 85  1  0  0  0
 79153  1  0  0  0
 79154  1  0  0  0
 80 83  1  0  0  0
 80155  1  0  0  0
 81 86  1  0  0  0
 81156  1  0  0  0
 81157  1  0  0  0
 81158  1  0  0  0
 82159  1  0  0  0
 82160  1  0  0  0
 82 85  1  0  0  0
 83161  1  0  0  0
 83162  1  0  0  0
 84163  1  0  0  0
 85164  1  0  0  0
M  CHG  1  85   1
M  ISO  4   1 100  68 101  83 101  84 100
M  END
> <chiral flag>
0

> <version>
0

> <s_m_source_file>
/data/baiqing/PycharmProjects/Reinvent-master-3.2/result/LINK_invent/BTK/process_docking_weight1_custom_product_contain_oxygen_bond_distance_aromatic_linkinvent_7_9_3/rearranged_h_0100.sdf

> <i_m_source_file_index>
28

> <r_mmod_Potential_Energy-OPLS-2005>
-81.0069885253906

> <r_mmod_Stretch_Energy-OPLS-2005>
44.5769920349121

> <r_mmod_Bend_Energy-OPLS-2005>
129.860427856445

> <r_mmod_Torsional_Energy-OPLS-2005>
302.453216552734

> <r_mmod_Improper_Torsional_Energy-OPLS-2005>
4.635986328125

> <r_mmod_Van_der_Waal_Energy-OPLS-2005>
153.028671264648

> <r_mmod_Electrostatic_Energy-OPLS-2005>
-276.423492431641

> <r_mmod_Solvation_Energy-OPLS-2005>
-456.245361328125

> <b_mmod_Minimization_Converged-OPLS-2005>
0

> <r_mmod_RMS_Derivative-OPLS-2005>
2.58401393890381

$$$$
28
                    3D
 Structure written by MMmdl.
156164  0  0  1  0            999 V2000
  -30.6389  -14.7136   20.3646 C   0  0  0  0  0  0
  -30.4398  -12.4049   19.4424 C   0  0  0  0  0  0
  -29.4885  -12.3716   18.2232 C   0  0  0  0  0  0
  -28.0145  -12.2679   18.6588 C   0  0  0  0  0  0
  -27.6358  -13.2024   19.8395 C   0  0  2  0  0  0
  -28.7046  -13.1828   20.9524 C   0  0  0  0  0  0
  -25.2548  -13.8137   20.5742 C   0  0  0  0  0  0
  -24.1806  -13.0427   20.9259 C   0  0  0  0  0  0
  -24.6357  -11.6892   20.8825 C   0  0  0  0  0  0
  -23.9031  -10.4282   21.0451 C   0  0  0  0  0  0
  -24.3593   -9.4189   21.9211 C   0  0  0  0  0  0
  -23.6277   -8.2221   22.0759 C   0  0  0  0  0  0
  -22.4262   -8.0267   21.3543 C   0  0  0  0  0  0
  -21.9897   -9.0245   20.4649 C   0  0  0  0  0  0
  -22.7218  -10.2130   20.3078 C   0  0  0  0  0  0
  -21.6844   -6.0729   22.5278 C   0  0  0  0  0  0
  -21.4008   -6.5636   23.8211 C   0  0  0  0  0  0
  -21.3657   -5.6791   24.9175 C   0  0  0  0  0  0
  -21.6043   -4.3054   24.7227 C   0  0  0  0  0  0
  -21.8820   -3.8144   23.4349 C   0  0  0  0  0  0
  -21.9190   -4.6958   22.3404 C   0  0  0  0  0  0
  -22.7830  -13.5235   21.1879 C   0  0  0  0  0  0
  -22.1660   -4.2144   21.0982 F   0  0  0  0  0  0
  -21.5629   -3.4539   25.7741 F   0  0  0  0  0  0
  -29.9951  -13.4977   20.3241 N   0  0  0  0  0  0
  -26.2938  -12.9274   20.3372 N   0  0  0  0  0  0
  -25.9283  -11.6459   20.5892 N   0  0  0  0  0  0
  -22.0454  -12.8236   22.0425 N   0  0  0  0  0  0
  -25.4289  -15.1847   20.4078 N   0  0  0  0  0  0
  -31.8700  -14.7563   20.3345 O   0  0  0  0  0  0
  -21.6627   -6.8866   21.4237 O   0  0  0  0  0  0
  -22.3534  -14.5539   20.6707 O   0  0  0  0  0  0
  -24.6257  -31.8606   23.2036 C   0  0  0  0  0  0
  -25.9108  -32.4784   23.8362 C   0  0  1  0  0  0
  -27.2231  -27.3232   20.1197 C   0  0  0  0  0  0
  -25.5925  -33.8584   24.2288 N   0  0  0  0  0  0
  -23.4189  -30.4854   21.5462 C   0  0  2  0  0  0
  -24.8654  -28.9437   20.1105 C   0  0  0  0  0  0
  -22.7473  -29.4630   22.4938 C   0  0  0  0  0  0
  -18.0286  -28.1383   22.8489 C   0  0  0  0  0  0
  -24.1489  -36.7296   23.2639 C   0  0  0  0  0  0
  -25.9601  -30.7939   21.3740 C   0  0  0  0  0  0
  -26.0345  -29.4225   20.7149 C   0  0  0  0  0  0
  -27.2167  -28.6245   20.7091 C   0  0  0  0  0  0
  -26.0300  -26.9000   19.4869 C   0  0  0  0  0  0
  -24.8651  -27.6879   19.4869 C   0  0  0  0  0  0
  -23.6332  -29.8226   20.1606 C   0  0  0  0  0  0
  -25.4113  -36.3088   24.0331 C   0  0  1  0  0  0
  -20.5886  -28.3687   23.1284 C   0  0  2  0  0  0
  -20.6775  -26.9411   22.5409 C   0  0  0  0  0  0
  -19.5750  -26.6385   21.5213 C   0  0  0  0  0  0
  -18.1931  -26.7927   22.1627 C   0  0  0  0  0  0
  -19.1538  -28.8852   23.2882 C   0  0  0  0  0  0
  -18.9461  -30.1455   23.8898 C   0  0  0  0  0  0
  -17.6461  -30.6586   24.0563 C   0  0  0  0  0  0
  -25.9049  -34.9456   23.5109 C   0  0  0  0  0  0
  -16.5353  -29.9085   23.6330 C   0  0  0  0  0  0
  -16.7274  -28.6502   23.0353 C   0  0  0  0  0  0
  -26.4494  -31.6590   25.0728 C   0  0  0  0  0  0
  -25.3730  -31.3725   26.1457 C   0  0  0  0  0  0
  -27.0336  -30.3016   24.6176 C   0  0  0  0  0  0
  -27.6055  -32.4323   25.7498 C   0  0  0  0  0  0
  -27.5579  -37.1804   24.8466 C   0  0  0  0  0  0
  -21.4187  -29.3043   22.3679 N   0  0  0  0  0  0
  -26.4293  -37.3779   23.9407 N   0  0  0  0  0  0
  -24.6870  -31.0628   22.0983 N   0  0  0  0  0  0
  -23.4200  -28.8167   23.3013 O   0  0  0  0  0  0
  -28.3377  -26.4704   20.1834 O   0  0  0  0  0  0
  -26.5616  -34.8920   22.4674 O   0  0  0  0  0  0
  -23.5422  -32.1400   23.7369 O   0  0  0  0  0  0
  -28.7089  -17.9463   20.4225 C   0  0  0  0  0  0
  -28.6901  -19.3677   20.5567 C   0  0  0  0  0  0
  -31.1063  -17.9360   20.5935 C   0  0  0  0  0  0
  -29.9187  -17.1868   20.3774 C   0  0  0  0  0  0
  -29.8870  -20.1184   20.6881 C   0  0  0  0  0  0
  -31.0870  -19.3546   20.7468 C   0  0  0  0  0  0
  -29.6642  -15.8118   18.5292 C   0  0  0  0  0  0
  -30.8036  -15.5872   17.5240 C   0  0  0  0  0  0
  -29.2193  -23.9769   20.5007 C   0  0  0  0  0  0
  -28.0941  -25.0127   20.0740 C   0  0  0  0  0  0
  -28.8657  -22.4208   20.4307 C   0  0  0  0  0  0
  -29.9305  -15.8032   19.8633 N   0  0  0  0  0  0
  -28.5422  -16.0708   18.0809 O   0  0  0  0  0  0
  -29.9725  -21.5259   20.7657 O   0  0  0  0  0  0
  -32.2665  -20.0038   20.9015 F   0  0  0  0  0  0
  -31.4720  -12.5379   19.1127 H   0  0  0  0  0  0
  -30.4122  -11.4553   19.9793 H   0  0  0  0  0  0
  -29.7387  -11.5175   17.5923 H   0  0  0  0  0  0
  -29.6130  -13.2366   17.5813 H   0  0  0  0  0  0
  -27.8500  -11.2306   18.9522 H   0  0  0  0  0  0
  -27.3547  -12.4455   17.8088 H   0  0  0  0  0  0
  -27.5996  -14.2064   19.4331 H   0  0  0  0  0  0
  -28.7423  -12.2096   21.4440 H   0  0  0  0  0  0
  -28.4649  -13.9175   21.7234 H   0  0  0  0  0  0
  -25.2733   -9.5664   22.4794 H   0  0  0  0  0  0
  -23.9987   -7.4604   22.7470 H   0  0  0  0  0  0
  -21.0832   -8.8764   19.8949 H   0  0  0  0  0  0
  -22.3679  -10.9677   19.6195 H   0  0  0  0  0  0
  -21.1999   -7.6145   23.9713 H   0  0  0  0  0  0
  -21.1477   -6.0522   25.9078 H   0  0  0  0  0  0
  -22.0603   -2.7607   23.2851 H   0  0  0  0  0  0
  -22.4057  -11.9899   22.4828 H   0  0  0  0  0  0
  -21.1071  -13.1269   22.2614 H   0  0  0  0  0  0
  -24.6619  -15.8415   20.5010 H   0  0  0  0  0  0
  -26.2720  -15.6062   20.0390 H   0  0  0  0  0  0
  -26.7176  -32.5457   23.1112 H   0  0  0  0  0  0
  -25.0072  -33.9731   25.0432 H   0  0  0  0  0  0
  -22.7124  -31.3059   21.4047 H   0  0  0  0  0  0
  -23.3749  -35.9631   23.3309 H   0  0  0  0  0  0
  -24.3579  -36.8908   22.2052 H   0  0  0  0  0  0
  -23.7245  -37.6502   23.6654 H   0  0  0  0  0  0
  -26.0912  -31.5585   20.6070 H   0  0  0  0  0  0
  -26.8408  -30.8415   22.0029 H   0  0  0  0  0  0
  -28.1124  -28.9864   21.1943 H   0  0  0  0  0  0
  -25.9645  -25.9417   18.9945 H   0  0  0  0  0  0
  -23.9695  -27.3159   19.0084 H   0  0  0  0  0  0
  -23.7517  -30.6003   19.4051 H   0  0  0  0  0  0
  -22.7533  -29.2520   19.8579 H   0  0  0  0  0  0
  -25.1294  -36.1943   25.0824 H   0  0  0  0  0  0
  -20.9980  -28.3260   24.1404 H   0  0  0  0  0  0
  -20.5679  -26.2297   23.3608 H   0  0  0  0  0  0
  -21.6643  -26.7443   22.1200 H   0  0  0  0  0  0
  -19.6911  -25.6296   21.1240 H   0  0  0  0  0  0
  -19.6686  -27.3197   20.6744 H   0  0  0  0  0  0
  -17.4200  -26.6674   21.4030 H   0  0  0  0  0  0
  -18.0333  -26.0068   22.9022 H   0  0  0  0  0  0
  -19.7937  -30.7270   24.2268 H   0  0  0  0  0  0
  -17.5016  -31.6267   24.5164 H   0  0  0  0  0  0
  -15.5353  -30.2987   23.7653 H   0  0  0  0  0  0
  -15.8674  -28.0821   22.7067 H   0  0  0  0  0  0
  -24.5905  -30.7074   25.7786 H   0  0  0  0  0  0
  -24.8921  -32.2890   26.4885 H   0  0  0  0  0  0
  -25.8058  -30.8901   27.0230 H   0  0  0  0  0  0
  -26.2909  -29.6769   24.1200 H   0  0  0  0  0  0
  -27.4038  -29.7268   25.4676 H   0  0  0  0  0  0
  -27.8776  -30.4305   23.9396 H   0  0  0  0  0  0
  -27.2665  -33.3621   26.2078 H   0  0  0  0  0  0
  -28.3863  -32.6887   25.0326 H   0  0  0  0  0  0
  -28.0725  -31.8447   26.5412 H   0  0  0  0  0  0
  -28.2602  -38.0096   24.7507 H   0  0  0  0  0  0
  -28.1069  -36.2627   24.6300 H   0  0  0  0  0  0
  -27.2296  -37.1464   25.8869 H   0  0  0  0  0  0
  -20.9362  -29.8770   21.6896 H   0  0  0  0  0  0
  -26.0177  -38.2857   24.1403 H   0  0  0  0  0  0
  -27.7650  -17.4451   20.2588 H   0  0  0  0  0  0
  -27.7376  -19.8758   20.5260 H   0  0  0  0  0  0
  -32.0666  -17.4426   20.5608 H   0  0  0  0  0  0
  -31.5126  -16.4123   17.5866 H   0  0  0  0  0  0
  -30.4137  -15.5605   16.5065 H   0  0  0  0  0  0
  -31.3526  -14.6624   17.6914 H   0  0  0  0  0  0
  -29.5278  -24.2085   21.5201 H   0  0  0  0  0  0
  -30.0968  -24.1568   19.8798 H   0  0  0  0  0  0
  -27.2091  -24.7712   20.6654 H   0  0  0  0  0  0
  -27.8411  -24.7944   19.0359 H   0  0  0  0  0  0
  -28.5202  -22.1784   19.4248 H   0  0  0  0  0  0
  -28.0330  -22.2149   21.1042 H   0  0  0  0  0  0
  1 25  1  0  0  0
  1 30  2  0  0  0
  1 82  1  0  0  0
  2  3  1  0  0  0
  2 25  1  0  0  0
  2 86  1  0  0  0
  2 87  1  0  0  0
  3  4  1  0  0  0
  3 88  1  0  0  0
  3 89  1  0  0  0
  4  5  1  0  0  0
  4 90  1  0  0  0
  4 91  1  0  0  0
  5  6  1  0  0  0
  5 26  1  0  0  0
  5 92  1  0  0  0
  6 25  1  0  0  0
  6 93  1  0  0  0
  6 94  1  0  0  0
  7  8  2  0  0  0
  7 26  1  0  0  0
  7 29  1  0  0  0
  8  9  1  0  0  0
  8 22  1  0  0  0
  9 10  1  0  0  0
  9 27  2  0  0  0
 10 11  2  0  0  0
 10 15  1  0  0  0
 11 12  1  0  0  0
 11 95  1  0  0  0
 12 13  2  0  0  0
 12 96  1  0  0  0
 13 14  1  0  0  0
 13 31  1  0  0  0
 14 15  2  0  0  0
 14 97  1  0  0  0
 15 98  1  0  0  0
 16 17  2  0  0  0
 16 21  1  0  0  0
 16 31  1  0  0  0
 17 18  1  0  0  0
 17 99  1  0  0  0
 18 19  2  0  0  0
 18100  1  0  0  0
 19 20  1  0  0  0
 19 24  1  0  0  0
 20 21  2  0  0  0
 20101  1  0  0  0
 21 23  1  0  0  0
 22 28  1  0  0  0
 22 32  2  0  0  0
 26 27  1  0  0  0
 28102  1  0  0  0
 28103  1  0  0  0
 29104  1  0  0  0
 29105  1  0  0  0
 33 34  1  0  0  0
 33 66  1  0  0  0
 33 70  2  0  0  0
 34 36  1  0  0  0
 34 59  1  0  0  0
 34106  1  0  0  0
 35 44  2  0  0  0
 35 45  1  0  0  0
 35 68  1  0  0  0
 36 56  1  0  0  0
 36107  1  0  0  0
 37 39  1  0  0  0
 37 47  1  0  0  0
 37 66  1  0  0  0
 37108  1  0  0  0
 38 43  2  0  0  0
 38 46  1  0  0  0
 38 47  1  0  0  0
 39 64  1  0  0  0
 39 67  2  0  0  0
 40 52  1  0  0  0
 40 53  2  0  0  0
 40 58  1  0  0  0
 41109  1  0  0  0
 41110  1  0  0  0
 41111  1  0  0  0
 41 48  1  0  0  0
 42 43  1  0  0  0
 42 66  1  0  0  0
 42112  1  0  0  0
 42113  1  0  0  0
 43 44  1  0  0  0
 44114  1  0  0  0
 45 46  2  0  0  0
 45115  1  0  0  0
 46116  1  0  0  0
 47117  1  0  0  0
 47118  1  0  0  0
 48 56  1  0  0  0
 48 65  1  0  0  0
 48119  1  0  0  0
 49 50  1  0  0  0
 49 53  1  0  0  0
 49 64  1  0  0  0
 49120  1  0  0  0
 50 51  1  0  0  0
 50121  1  0  0  0
 50122  1  0  0  0
 51 52  1  0  0  0
 51123  1  0  0  0
 51124  1  0  0  0
 52125  1  0  0  0
 52126  1  0  0  0
 53 54  1  0  0  0
 54 55  2  0  0  0
 54127  1  0  0  0
 55 57  1  0  0  0
 55128  1  0  0  0
 56 69  2  0  0  0
 57 58  2  0  0  0
 57129  1  0  0  0
 58130  1  0  0  0
 59 60  1  0  0  0
 59 61  1  0  0  0
 59 62  1  0  0  0
 60131  1  0  0  0
 60132  1  0  0  0
 60133  1  0  0  0
 61134  1  0  0  0
 61135  1  0  0  0
 61136  1  0  0  0
 62137  1  0  0  0
 62138  1  0  0  0
 62139  1  0  0  0
 63 65  1  0  0  0
 63140  1  0  0  0
 63141  1  0  0  0
 63142  1  0  0  0
 64143  1  0  0  0
 65144  1  0  0  0
 68 80  1  0  0  0
 71 72  2  0  0  0
 71 74  1  0  0  0
 71145  1  0  0  0
 72 75  1  0  0  0
 72146  1  0  0  0
 73 74  2  0  0  0
 73 76  1  0  0  0
 73147  1  0  0  0
 74 82  1  0  0  0
 75 76  2  0  0  0
 75 84  1  0  0  0
 76 85  1  0  0  0
 77 78  1  0  0  0
 77 82  1  0  0  0
 77 83  2  0  0  0
 78148  1  0  0  0
 78149  1  0  0  0
 78150  1  0  0  0
 79 80  1  0  0  0
 79 81  1  0  0  0
 79151  1  0  0  0
 79152  1  0  0  0
 80153  1  0  0  0
 80154  1  0  0  0
 81 84  1  0  0  0
 81155  1  0  0  0
 81156  1  0  0  0
M  ISO  4   1 100  68 101  80 101  82 100
M  END
> <chiral flag>
0

> <version>
0

> <s_m_source_file>
/data/baiqing/PycharmProjects/Reinvent-master-3.2/result/LINK_invent/BTK/process_docking_weight1_custom_product_contain_oxygen_bond_distance_aromatic_linkinvent_7_9_3/rearranged_h_0100.sdf

> <i_m_source_file_index>
29

> <r_mmod_Potential_Energy-OPLS-2005>
327.547973632812

> <r_mmod_Stretch_Energy-OPLS-2005>
85.279182434082

> <r_mmod_Bend_Energy-OPLS-2005>
147.071472167969

> <r_mmod_Torsional_Energy-OPLS-2005>
366.903472900391

> <r_mmod_Improper_Torsional_Energy-OPLS-2005>
23.9309864044189

> <r_mmod_Van_der_Waal_Energy-OPLS-2005>
152.896911621094

> <r_mmod_Electrostatic_Energy-OPLS-2005>
-338.723083496094

> <r_mmod_Solvation_Energy-OPLS-2005>
-190.96907043457

> <b_mmod_Minimization_Converged-OPLS-2005>
0

> <r_mmod_RMS_Derivative-OPLS-2005>
0.158310279250145

$$$$
29
                    3D
 Structure written by MMmdl.
161170  0  0  1  0            999 V2000
  -30.6197  -14.6236   20.4947 C   0  0  0  0  0  0
  -30.4375  -12.3783   19.4467 C   0  0  0  0  0  0
  -29.5067  -12.5018   18.2191 C   0  0  0  0  0  0
  -28.0282  -12.3451   18.6293 C   0  0  0  0  0  0
  -27.6538  -13.2111   19.8615 C   0  0  2  0  0  0
  -28.6981  -13.0538   20.9904 C   0  0  0  0  0  0
  -25.2550  -13.8125   20.5607 C   0  0  0  0  0  0
  -24.1826  -13.0418   20.9182 C   0  0  0  0  0  0
  -24.6392  -11.6890   20.8746 C   0  0  0  0  0  0
  -23.9057  -10.4286   21.0406 C   0  0  0  0  0  0
  -24.3615   -9.4204   21.9182 C   0  0  0  0  0  0
  -23.6293   -8.2236   22.0748 C   0  0  0  0  0  0
  -22.4277   -8.0273   21.3535 C   0  0  0  0  0  0
  -21.9911   -9.0242   20.4635 C   0  0  0  0  0  0
  -22.7234  -10.2124   20.3047 C   0  0  0  0  0  0
  -21.6852   -6.0734   22.5280 C   0  0  0  0  0  0
  -21.4006   -6.5638   23.8210 C   0  0  0  0  0  0
  -21.3660   -5.6791   24.9172 C   0  0  0  0  0  0
  -21.6044   -4.3054   24.7224 C   0  0  0  0  0  0
  -21.8820   -3.8144   23.4345 C   0  0  0  0  0  0
  -21.9195   -4.6962   22.3403 C   0  0  0  0  0  0
  -22.7851  -13.5225   21.1854 C   0  0  0  0  0  0
  -22.1664   -4.2150   21.0979 F   0  0  0  0  0  0
  -21.5639   -3.4536   25.7734 F   0  0  0  0  0  0
  -30.0159  -13.3958   20.4290 N   0  0  0  0  0  0
  -26.2989  -12.9312   20.3291 N   0  0  0  0  0  0
  -25.9320  -11.6480   20.5760 N   0  0  0  0  0  0
  -22.0499  -12.8212   22.0408 N   0  0  0  0  0  0
  -25.4213  -15.1817   20.3859 N   0  0  0  0  0  0
  -31.7823  -14.7880   20.1118 O   0  0  0  0  0  0
  -21.6641   -6.8871   21.4236 O   0  0  0  0  0  0
  -22.3548  -14.5544   20.6724 O   0  0  0  0  0  0
  -24.6257  -31.8617   23.2044 C   0  0  0  0  0  0
  -25.9110  -32.4795   23.8365 C   0  0  1  0  0  0
  -27.2223  -27.3303   20.1038 C   0  0  0  0  0  0
  -25.5936  -33.8591   24.2297 N   0  0  0  0  0  0
  -23.4183  -30.4896   21.5453 C   0  0  2  0  0  0
  -24.8629  -28.9466   20.1113 C   0  0  0  0  0  0
  -22.7458  -29.4667   22.4914 C   0  0  0  0  0  0
  -18.0285  -28.1410   22.8490 C   0  0  0  0  0  0
  -24.1488  -36.7280   23.2636 C   0  0  0  0  0  0
  -25.9594  -30.7966   21.3724 C   0  0  0  0  0  0
  -26.0333  -29.4256   20.7123 C   0  0  0  0  0  0
  -27.2176  -28.6299   20.6979 C   0  0  0  0  0  0
  -26.0229  -26.9024   19.4869 C   0  0  0  0  0  0
  -24.8582  -27.6888   19.4924 C   0  0  0  0  0  0
  -23.6323  -29.8267   20.1601 C   0  0  0  0  0  0
  -25.4112  -36.3089   24.0340 C   0  0  1  0  0  0
  -20.5885  -28.3721   23.1266 C   0  0  2  0  0  0
  -20.6784  -26.9448   22.5391 C   0  0  0  0  0  0
  -19.5762  -26.6405   21.5199 C   0  0  0  0  0  0
  -18.1938  -26.7960   22.1614 C   0  0  0  0  0  0
  -19.1540  -28.8874   23.2890 C   0  0  0  0  0  0
  -18.9468  -30.1469   23.8921 C   0  0  0  0  0  0
  -17.6478  -30.6619   24.0569 C   0  0  0  0  0  0
  -25.9051  -34.9463   23.5114 C   0  0  0  0  0  0
  -16.5364  -29.9125   23.6338 C   0  0  0  0  0  0
  -16.7272  -28.6535   23.0364 C   0  0  0  0  0  0
  -26.4490  -31.6598   25.0728 C   0  0  0  0  0  0
  -25.3717  -31.3741   26.1449 C   0  0  0  0  0  0
  -27.0316  -30.3022   24.6171 C   0  0  0  0  0  0
  -27.6070  -32.4303   25.7490 C   0  0  0  0  0  0
  -27.5590  -37.1786   24.8464 C   0  0  0  0  0  0
  -21.4171  -29.3082   22.3652 N   0  0  0  0  0  0
  -26.4284  -37.3791   23.9435 N   0  0  0  0  0  0
  -24.6867  -31.0651   22.0982 N   0  0  0  0  0  0
  -23.4184  -28.8191   23.2982 O   0  0  0  0  0  0
  -28.3438  -26.4864   20.1384 O   0  0  0  0  0  0
  -26.5603  -34.8932   22.4673 O   0  0  0  0  0  0
  -23.5426  -32.1392   23.7393 O   0  0  0  0  0  0
  -30.9965  -19.2381   20.0801 C   0  0  0  0  0  0
  -30.9609  -17.8146   20.1366 C   0  0  0  0  0  0
  -28.8583  -19.3569   21.1674 C   0  0  0  0  0  0
  -28.8195  -17.9308   21.2427 C   0  0  0  0  0  0
  -29.9639  -20.0556   20.6241 C   0  0  0  0  0  0
  -29.8827  -17.1154   20.7407 C   0  0  0  0  0  0
  -31.1493  -22.0022   21.4626 C   0  0  0  0  0  0
  -31.3361  -23.5126   21.6768 C   0  0  0  0  0  0
  -30.0473  -24.3367   21.6061 C   0  0  0  0  0  0
  -28.9955  -22.4633   20.3056 C   0  0  0  0  0  0
  -29.3158  -24.0293   20.3069 C   0  0  1  0  0  0
  -27.5992  -17.3195   21.9139 C   0  0  0  0  0  0
  -28.1048  -25.0271   20.0767 C   0  0  0  0  0  0
  -30.0965  -21.5195   20.7378 N   0  0  0  0  0  0
  -29.7981  -15.6580   20.8535 N   0  0  0  0  0  0
  -32.0139  -21.2738   21.9647 O   0  0  0  0  0  0
  -31.4796  -12.5011   19.1461 H   0  0  0  0  0  0
  -30.3684  -11.3799   19.8820 H   0  0  0  0  0  0
  -29.7668  -11.7496   17.4735 H   0  0  0  0  0  0
  -29.6531  -13.4708   17.7388 H   0  0  0  0  0  0
  -27.8589  -11.2914   18.8533 H   0  0  0  0  0  0
  -27.3751  -12.5825   17.7888 H   0  0  0  0  0  0
  -27.6742  -14.2479   19.5266 H   0  0  0  0  0  0
  -28.7047  -12.0296   21.3658 H   0  0  0  0  0  0
  -28.4442  -13.6786   21.8479 H   0  0  0  0  0  0
  -25.2759   -9.5689   22.4759 H   0  0  0  0  0  0
  -24.0008   -7.4629   22.7464 H   0  0  0  0  0  0
  -21.0848   -8.8750   19.8933 H   0  0  0  0  0  0
  -22.3690  -10.9663   19.6157 H   0  0  0  0  0  0
  -21.1985   -7.6147   23.9715 H   0  0  0  0  0  0
  -21.1484   -6.0519   25.9077 H   0  0  0  0  0  0
  -22.0600   -2.7607   23.2837 H   0  0  0  0  0  0
  -22.4120  -11.9860   22.4768 H   0  0  0  0  0  0
  -21.1117  -13.1234   22.2630 H   0  0  0  0  0  0
  -24.6367  -15.8208   20.4516 H   0  0  0  0  0  0
  -26.2410  -15.6029   19.9694 H   0  0  0  0  0  0
  -26.7179  -32.5463   23.1115 H   0  0  0  0  0  0
  -25.0117  -33.9739   25.0464 H   0  0  0  0  0  0
  -22.7135  -31.3117   21.4027 H   0  0  0  0  0  0
  -23.3778  -35.9582   23.3263 H   0  0  0  0  0  0
  -24.3590  -36.8919   22.2056 H   0  0  0  0  0  0
  -23.7198  -37.6461   23.6657 H   0  0  0  0  0  0
  -26.0885  -31.5627   20.6064 H   0  0  0  0  0  0
  -26.8407  -30.8434   22.0004 H   0  0  0  0  0  0
  -28.1163  -28.9953   21.1739 H   0  0  0  0  0  0
  -25.9500  -25.9461   18.9931 H   0  0  0  0  0  0
  -23.9591  -27.3153   19.0204 H   0  0  0  0  0  0
  -23.7544  -30.6040   19.4053 H   0  0  0  0  0  0
  -22.7521  -29.2585   19.8550 H   0  0  0  0  0  0
  -25.1288  -36.1936   25.0830 H   0  0  0  0  0  0
  -20.9987  -28.3303   24.1382 H   0  0  0  0  0  0
  -20.5682  -26.2340   23.3593 H   0  0  0  0  0  0
  -21.6654  -26.7487   22.1177 H   0  0  0  0  0  0
  -19.6931  -25.6309   21.1240 H   0  0  0  0  0  0
  -19.6710  -27.3198   20.6717 H   0  0  0  0  0  0
  -17.4206  -26.6701   21.4021 H   0  0  0  0  0  0
  -18.0354  -26.0105   22.9015 H   0  0  0  0  0  0
  -19.7951  -30.7262   24.2313 H   0  0  0  0  0  0
  -17.5048  -31.6309   24.5160 H   0  0  0  0  0  0
  -15.5370  -30.3048   23.7667 H   0  0  0  0  0  0
  -15.8664  -28.0860   22.7096 H   0  0  0  0  0  0
  -24.5942  -30.7033   25.7782 H   0  0  0  0  0  0
  -24.8850  -32.2903   26.4805 H   0  0  0  0  0  0
  -25.8039  -30.8987   27.0263 H   0  0  0  0  0  0
  -26.2887  -29.6783   24.1190 H   0  0  0  0  0  0
  -27.4013  -29.7275   25.4671 H   0  0  0  0  0  0
  -27.8755  -30.4315   23.9389 H   0  0  0  0  0  0
  -27.2734  -33.3643   26.2020 H   0  0  0  0  0  0
  -28.3909  -32.6774   25.0320 H   0  0  0  0  0  0
  -28.0687  -31.8432   26.5439 H   0  0  0  0  0  0
  -28.2561  -38.0130   24.7576 H   0  0  0  0  0  0
  -28.1126  -36.2663   24.6188 H   0  0  0  0  0  0
  -27.2319  -37.1300   25.8865 H   0  0  0  0  0  0
  -20.9335  -29.8822   21.6881 H   0  0  0  0  0  0
  -26.0163  -38.2852   24.1488 H   0  0  0  0  0  0
  -31.8675  -19.7091   19.6447 H   0  0  0  0  0  0
  -31.7972  -17.2705   19.7219 H   0  0  0  0  0  0
  -28.0453  -19.9254   21.5972 H   0  0  0  0  0  0
  -32.0405  -23.8666   20.9239 H   0  0  0  0  0  0
  -31.8148  -23.6738   22.6427 H   0  0  0  0  0  0
  -30.2932  -25.3975   21.6596 H   0  0  0  0  0  0
  -29.4057  -24.1184   22.4617 H   0  0  0  0  0  0
  -28.6661  -22.1687   19.3088 H   0  0  0  0  0  0
  -28.1431  -22.2834   20.9614 H   0  0  0  0  0  0
  -30.0133  -24.2175   19.4886 H   0  0  0  0  0  0
  -27.4172  -17.8077   22.8716 H   0  0  0  0  0  0
  -27.6870  -16.2519   22.1100 H   0  0  0  0  0  0
  -26.7193  -17.4786   21.2914 H   0  0  0  0  0  0
  -27.3231  -24.7835   20.7987 H   0  0  0  0  0  0
  -27.7065  -24.7820   19.0921 H   0  0  0  0  0  0
  -28.9051  -15.3258   21.1823 H   0  0  0  0  0  0
  1 25  1  0  0  0
  1 30  2  0  0  0
  1 85  1  0  0  0
  2  3  1  0  0  0
  2 25  1  0  0  0
  2 87  1  0  0  0
  2 88  1  0  0  0
  3  4  1  0  0  0
  3 89  1  0  0  0
  3 90  1  0  0  0
  4  5  1  0  0  0
  4 91  1  0  0  0
  4 92  1  0  0  0
  5  6  1  0  0  0
  5 26  1  0  0  0
  5 93  1  0  0  0
  6 25  1  0  0  0
  6 94  1  0  0  0
  6 95  1  0  0  0
  7  8  2  0  0  0
  7 26  1  0  0  0
  7 29  1  0  0  0
  8  9  1  0  0  0
  8 22  1  0  0  0
  9 10  1  0  0  0
  9 27  2  0  0  0
 10 11  2  0  0  0
 10 15  1  0  0  0
 11 12  1  0  0  0
 11 96  1  0  0  0
 12 13  2  0  0  0
 12 97  1  0  0  0
 13 14  1  0  0  0
 13 31  1  0  0  0
 14 15  2  0  0  0
 14 98  1  0  0  0
 15 99  1  0  0  0
 16 17  2  0  0  0
 16 21  1  0  0  0
 16 31  1  0  0  0
 17 18  1  0  0  0
 17100  1  0  0  0
 18 19  2  0  0  0
 18101  1  0  0  0
 19 20  1  0  0  0
 19 24  1  0  0  0
 20 21  2  0  0  0
 20102  1  0  0  0
 21 23  1  0  0  0
 22 28  1  0  0  0
 22 32  2  0  0  0
 26 27  1  0  0  0
 28103  1  0  0  0
 28104  1  0  0  0
 29105  1  0  0  0
 29106  1  0  0  0
 33 34  1  0  0  0
 33 66  1  0  0  0
 33 70  2  0  0  0
 34 36  1  0  0  0
 34 59  1  0  0  0
 34107  1  0  0  0
 35 44  2  0  0  0
 35 45  1  0  0  0
 35 68  1  0  0  0
 36 56  1  0  0  0
 36108  1  0  0  0
 37 39  1  0  0  0
 37 47  1  0  0  0
 37 66  1  0  0  0
 37109  1  0  0  0
 38 43  2  0  0  0
 38 46  1  0  0  0
 38 47  1  0  0  0
 39 64  1  0  0  0
 39 67  2  0  0  0
 40 52  1  0  0  0
 40 53  2  0  0  0
 40 58  1  0  0  0
 41110  1  0  0  0
 41111  1  0  0  0
 41112  1  0  0  0
 41 48  1  0  0  0
 42 43  1  0  0  0
 42 66  1  0  0  0
 42113  1  0  0  0
 42114  1  0  0  0
 43 44  1  0  0  0
 44115  1  0  0  0
 45 46  2  0  0  0
 45116  1  0  0  0
 46117  1  0  0  0
 47118  1  0  0  0
 47119  1  0  0  0
 48 56  1  0  0  0
 48 65  1  0  0  0
 48120  1  0  0  0
 49 50  1  0  0  0
 49 53  1  0  0  0
 49 64  1  0  0  0
 49121  1  0  0  0
 50 51  1  0  0  0
 50122  1  0  0  0
 50123  1  0  0  0
 51 52  1  0  0  0
 51124  1  0  0  0
 51125  1  0  0  0
 52126  1  0  0  0
 52127  1  0  0  0
 53 54  1  0  0  0
 54 55  2  0  0  0
 54128  1  0  0  0
 55 57  1  0  0  0
 55129  1  0  0  0
 56 69  2  0  0  0
 57 58  2  0  0  0
 57130  1  0  0  0
 58131  1  0  0  0
 59 60  1  0  0  0
 59 61  1  0  0  0
 59 62  1  0  0  0
 60132  1  0  0  0
 60133  1  0  0  0
 60134  1  0  0  0
 61135  1  0  0  0
 61136  1  0  0  0
 61137  1  0  0  0
 62138  1  0  0  0
 62139  1  0  0  0
 62140  1  0  0  0
 63 65  1  0  0  0
 63141  1  0  0  0
 63142  1  0  0  0
 63143  1  0  0  0
 64144  1  0  0  0
 65145  1  0  0  0
 68 83  1  0  0  0
 71 72  2  0  0  0
 71 75  1  0  0  0
 71146  1  0  0  0
 72 76  1  0  0  0
 72147  1  0  0  0
 73 74  1  0  0  0
 73 75  2  0  0  0
 73148  1  0  0  0
 74 76  2  0  0  0
 74 82  1  0  0  0
 75 84  1  0  0  0
 76 85  1  0  0  0
 77 78  1  0  0  0
 77 84  1  0  0  0
 77 86  2  0  0  0
 78 79  1  0  0  0
 78149  1  0  0  0
 78150  1  0  0  0
 79 81  1  0  0  0
 79151  1  0  0  0
 79152  1  0  0  0
 80 81  1  0  0  0
 80 84  1  0  0  0
 80153  1  0  0  0
 80154  1  0  0  0
 81 83  1  0  0  0
 81155  1  0  0  0
 82156  1  0  0  0
 82157  1  0  0  0
 82158  1  0  0  0
 83159  1  0  0  0
 83160  1  0  0  0
 85161  1  0  0  0
M  ISO  4   1 100  68 101  83 101  85 100
M  END
> <chiral flag>
0

> <version>
0

> <s_m_source_file>
/data/baiqing/PycharmProjects/Reinvent-master-3.2/result/LINK_invent/BTK/process_docking_weight1_custom_product_contain_oxygen_bond_distance_aromatic_linkinvent_7_9_3/rearranged_h_0100.sdf

> <i_m_source_file_index>
30

> <r_mmod_Potential_Energy-OPLS-2005>
123.582786560059

> <r_mmod_Stretch_Energy-OPLS-2005>
83.5371475219727

> <r_mmod_Bend_Energy-OPLS-2005>
138.859878540039

> <r_mmod_Torsional_Energy-OPLS-2005>
277.006896972656

> <r_mmod_Improper_Torsional_Energy-OPLS-2005>
5.17362785339355

> <r_mmod_Van_der_Waal_Energy-OPLS-2005>
159.386077880859

> <r_mmod_Electrostatic_Energy-OPLS-2005>
-362.608856201172

> <r_mmod_Solvation_Energy-OPLS-2005>
-221.342834472656

> <b_mmod_Minimization_Converged-OPLS-2005>
0

> <r_mmod_RMS_Derivative-OPLS-2005>
1.37666189670563

$$$$
30
                    3D
 Structure written by MMmdl.
164172  0  0  1  0            999 V2000
  -30.6935  -14.6715   20.4819 C   0  0  0  0  0  0
  -30.4299  -12.4131   19.4526 C   0  0  0  0  0  0
  -29.4984  -12.4220   18.2226 C   0  0  0  0  0  0
  -28.0300  -12.2237   18.6507 C   0  0  0  0  0  0
  -27.6288  -13.1449   19.8229 C   0  0  2  0  0  0
  -28.6903  -13.1325   20.9597 C   0  0  0  0  0  0
  -25.2525  -13.7950   20.5680 C   0  0  0  0  0  0
  -24.1765  -13.0310   20.9233 C   0  0  0  0  0  0
  -24.6280  -11.6774   20.8800 C   0  0  0  0  0  0
  -23.8955  -10.4214   21.0461 C   0  0  0  0  0  0
  -24.3547   -9.4143   21.9219 C   0  0  0  0  0  0
  -23.6242   -8.2177   22.0768 C   0  0  0  0  0  0
  -22.4231   -8.0230   21.3545 C   0  0  0  0  0  0
  -21.9850   -9.0199   20.4650 C   0  0  0  0  0  0
  -22.7158  -10.2082   20.3078 C   0  0  0  0  0  0
  -21.6830   -6.0706   22.5279 C   0  0  0  0  0  0
  -21.3995   -6.5618   23.8210 C   0  0  0  0  0  0
  -21.3652   -5.6780   24.9177 C   0  0  0  0  0  0
  -21.6043   -4.3044   24.7231 C   0  0  0  0  0  0
  -21.8825   -3.8130   23.4354 C   0  0  0  0  0  0
  -21.9186   -4.6939   22.3405 C   0  0  0  0  0  0
  -22.7816  -13.5186   21.1879 C   0  0  0  0  0  0
  -22.1663   -4.2128   21.0982 F   0  0  0  0  0  0
  -21.5633   -3.4533   25.7748 F   0  0  0  0  0  0
  -29.9883  -13.4904   20.3682 N   0  0  0  0  0  0
  -26.2848  -12.8985   20.3198 N   0  0  0  0  0  0
  -25.9165  -11.6236   20.5788 N   0  0  0  0  0  0
  -22.0432  -12.8218   22.0439 N   0  0  0  0  0  0
  -25.4168  -15.1667   20.4126 N   0  0  0  0  0  0
  -31.8915  -14.6838   20.1871 O   0  0  0  0  0  0
  -21.6604   -6.8831   21.4235 O   0  0  0  0  0  0
  -22.3541  -14.5504   20.6711 O   0  0  0  0  0  0
  -24.6175  -31.8637   23.2052 C   0  0  0  0  0  0
  -25.9052  -32.4799   23.8363 C   0  0  1  0  0  0
  -27.2530  -27.3928   20.1061 C   0  0  0  0  0  0
  -25.5892  -33.8603   24.2296 N   0  0  0  0  0  0
  -23.4086  -30.4835   21.5458 C   0  0  2  0  0  0
  -24.8590  -28.9392   20.1146 C   0  0  0  0  0  0
  -22.7419  -29.4637   22.4975 C   0  0  0  0  0  0
  -18.0272  -28.1384   22.8496 C   0  0  0  0  0  0
  -24.1482  -36.7299   23.2642 C   0  0  0  0  0  0
  -25.9394  -30.8167   21.3630 C   0  0  0  0  0  0
  -26.0178  -29.4464   20.7121 C   0  0  0  0  0  0
  -27.2094  -28.6805   20.7033 C   0  0  0  0  0  0
  -26.0668  -26.9044   19.5077 C   0  0  0  0  0  0
  -24.8811  -27.6694   19.5101 C   0  0  0  0  0  0
  -23.6202  -29.8086   20.1626 C   0  0  0  0  0  0
  -25.4110  -36.3099   24.0331 C   0  0  1  0  0  0
  -20.5863  -28.3674   23.1311 C   0  0  2  0  0  0
  -20.6759  -26.9404   22.5424 C   0  0  0  0  0  0
  -19.5741  -26.6386   21.5221 C   0  0  0  0  0  0
  -18.1920  -26.7933   22.1625 C   0  0  0  0  0  0
  -19.1523  -28.8845   23.2903 C   0  0  0  0  0  0
  -18.9453  -30.1451   23.8914 C   0  0  0  0  0  0
  -17.6456  -30.6591   24.0569 C   0  0  0  0  0  0
  -25.9039  -34.9466   23.5116 C   0  0  0  0  0  0
  -16.5345  -29.9093   23.6330 C   0  0  0  0  0  0
  -16.7262  -28.6509   23.0355 C   0  0  0  0  0  0
  -26.4475  -31.6596   25.0708 C   0  0  0  0  0  0
  -25.3729  -31.3702   26.1447 C   0  0  0  0  0  0
  -27.0311  -30.3037   24.6106 C   0  0  0  0  0  0
  -27.6043  -32.4320   25.7476 C   0  0  0  0  0  0
  -27.5577  -37.1804   24.8467 C   0  0  0  0  0  0
  -21.4144  -29.3033   22.3712 N   0  0  0  0  0  0
  -26.4294  -37.3785   23.9406 N   0  0  0  0  0  0
  -24.6735  -31.0699   22.0967 N   0  0  0  0  0  0
  -23.4170  -28.8192   23.3045 O   0  0  0  0  0  0
  -28.4498  -26.6840   20.1617 O   0  0  0  0  0  0
  -26.5617  -34.8922   22.4687 O   0  0  0  0  0  0
  -23.5358  -32.1409   23.7421 O   0  0  0  0  0  0
  -30.4599  -18.4003   20.6899 C   0  0  0  0  0  0
  -32.0023  -19.4406   22.2435 C   0  0  0  0  0  0
  -31.7020  -17.0014   22.2437 C   0  0  0  0  0  0
  -31.0468  -19.5804   21.2153 C   0  0  0  0  0  0
  -30.7538  -17.0847   21.1963 C   0  0  0  0  0  0
  -32.3227  -18.1622   22.7557 C   0  0  0  0  0  0
  -29.6599  -21.6298   20.7167 C   0  0  0  0  0  0
  -27.3910  -16.7773   18.0310 C   0  0  0  0  0  0
  -29.6161  -22.9592   19.9055 C   0  0  0  0  0  0
  -28.7274  -16.3244   18.6263 C   0  0  0  0  0  0
  -28.8634  -24.1885   20.5318 C   0  0  0  0  0  0
  -28.7210  -16.2095   20.1727 C   0  0  0  0  0  0
  -28.6583  -25.3881   19.5433 C   0  0  0  0  0  0
  -30.7887  -20.8806   20.6485 N   0  0  0  0  0  0
  -30.0546  -15.8908   20.7143 N   0  0  0  0  0  0
  -28.6771  -21.2836   21.3750 O   0  0  0  0  0  0
  -33.2400  -18.0369   23.7599 O   0  0  0  0  0  0
  -31.4652  -12.5299   19.1282 H   0  0  0  0  0  0
  -30.3887  -11.4468   19.9580 H   0  0  0  0  0  0
  -29.7881  -11.6270   17.5341 H   0  0  0  0  0  0
  -29.6153  -13.3492   17.6643 H   0  0  0  0  0  0
  -27.9094  -11.1811   18.9475 H   0  0  0  0  0  0
  -27.3642  -12.3756   17.8003 H   0  0  0  0  0  0
  -27.5694  -14.0936   19.3170 H   0  0  0  0  0  0
  -28.7458  -12.1413   21.4125 H   0  0  0  0  0  0
  -28.4274  -13.8068   21.7757 H   0  0  0  0  0  0
  -25.2699   -9.5628   22.4784 H   0  0  0  0  0  0
  -23.9962   -7.4562   22.7476 H   0  0  0  0  0  0
  -21.0790   -8.8704   19.8946 H   0  0  0  0  0  0
  -22.3631  -10.9627   19.6189 H   0  0  0  0  0  0
  -21.1983   -7.6128   23.9706 H   0  0  0  0  0  0
  -21.1468   -6.0513   25.9078 H   0  0  0  0  0  0
  -22.0614   -2.7593   23.2863 H   0  0  0  0  0  0
  -22.4036  -11.9887   22.4850 H   0  0  0  0  0  0
  -21.1058  -13.1273   22.2638 H   0  0  0  0  0  0
  -24.6455  -15.8135   20.5352 H   0  0  0  0  0  0
  -26.2571  -15.6108   20.0680 H   0  0  0  0  0  0
  -26.7124  -32.5499   23.1124 H   0  0  0  0  0  0
  -25.0028  -33.9761   25.0431 H   0  0  0  0  0  0
  -22.6996  -31.3011   21.4011 H   0  0  0  0  0  0
  -23.3742  -35.9635   23.3327 H   0  0  0  0  0  0
  -24.3571  -36.8896   22.2051 H   0  0  0  0  0  0
  -23.7234  -37.6508   23.6650 H   0  0  0  0  0  0
  -26.0540  -31.5802   20.5924 H   0  0  0  0  0  0
  -26.8255  -30.8733   21.9835 H   0  0  0  0  0  0
  -28.1031  -29.0721   21.1691 H   0  0  0  0  0  0
  -26.0216  -25.9285   19.0506 H   0  0  0  0  0  0
  -23.9879  -27.2680   19.0521 H   0  0  0  0  0  0
  -23.7271  -30.5803   19.3994 H   0  0  0  0  0  0
  -22.7438  -29.2270   19.8694 H   0  0  0  0  0  0
  -25.1291  -36.1962   25.0822 H   0  0  0  0  0  0
  -20.9960  -28.3248   24.1430 H   0  0  0  0  0  0
  -20.5664  -26.2282   23.3618 H   0  0  0  0  0  0
  -21.6632  -26.7446   22.1216 H   0  0  0  0  0  0
  -19.6905  -25.6299   21.1244 H   0  0  0  0  0  0
  -19.6683  -27.3203   20.6755 H   0  0  0  0  0  0
  -17.4190  -26.6692   21.4021 H   0  0  0  0  0  0
  -18.0312  -26.0067   22.9010 H   0  0  0  0  0  0
  -19.7928  -30.7264   24.2287 H   0  0  0  0  0  0
  -17.5010  -31.6273   24.5164 H   0  0  0  0  0  0
  -15.5349  -30.3004   23.7641 H   0  0  0  0  0  0
  -15.8661  -28.0834   22.7067 H   0  0  0  0  0  0
  -24.5905  -30.7055   25.7772 H   0  0  0  0  0  0
  -24.8919  -32.2853   26.4906 H   0  0  0  0  0  0
  -25.8069  -30.8855   27.0201 H   0  0  0  0  0  0
  -26.2861  -29.6790   24.1163 H   0  0  0  0  0  0
  -27.4080  -29.7284   25.4575 H   0  0  0  0  0  0
  -27.8696  -30.4356   23.9261 H   0  0  0  0  0  0
  -27.2668  -33.3617   26.2068 H   0  0  0  0  0  0
  -28.3848  -32.6882   25.0299 H   0  0  0  0  0  0
  -28.0719  -31.8433   26.5380 H   0  0  0  0  0  0
  -28.2606  -38.0092   24.7508 H   0  0  0  0  0  0
  -28.1060  -36.2620   24.6306 H   0  0  0  0  0  0
  -27.2290  -37.1470   25.8871 H   0  0  0  0  0  0
  -20.9315  -29.8738   21.6914 H   0  0  0  0  0  0
  -26.0180  -38.2862   24.1409 H   0  0  0  0  0  0
  -29.7710  -18.5444   19.8729 H   0  0  0  0  0  0
  -32.4894  -20.3208   22.6389 H   0  0  0  0  0  0
  -31.9535  -16.0410   22.6719 H   0  0  0  0  0  0
  -27.4927  -16.9627   16.9614 H   0  0  0  0  0  0
  -27.0402  -17.7010   18.4921 H   0  0  0  0  0  0
  -26.6175  -16.0198   18.1486 H   0  0  0  0  0  0
  -29.1494  -22.7181   18.9496 H   0  0  0  0  0  0
  -30.6371  -23.2592   19.6663 H   0  0  0  0  0  0
  -29.4955  -17.0301   18.3095 H   0  0  0  0  0  0
  -29.0151  -15.3827   18.1668 H   0  0  0  0  0  0
  -29.4392  -24.5340   21.3911 H   0  0  0  0  0  0
  -27.8938  -23.8812   20.9248 H   0  0  0  0  0  0
  -27.9789  -15.5593   20.5973 H   0  0  0  0  0  0
  -28.3360  -17.1410   20.5855 H   0  0  0  0  0  0
  -27.9246  -25.1367   18.7810 H   0  0  0  0  0  0
  -29.5875  -25.5036   18.9845 H   0  0  0  0  0  0
  -31.5674  -21.3124   20.1682 H   0  0  0  0  0  0
  -33.6191  -18.8674   24.0336 H   0  0  0  0  0  0
  1 25  1  0  0  0
  1 30  2  0  0  0
  1 85  1  0  0  0
  2  3  1  0  0  0
  2 25  1  0  0  0
  2 88  1  0  0  0
  2 89  1  0  0  0
  3  4  1  0  0  0
  3 90  1  0  0  0
  3 91  1  0  0  0
  4  5  1  0  0  0
  4 92  1  0  0  0
  4 93  1  0  0  0
  5  6  1  0  0  0
  5 26  1  0  0  0
  5 94  1  0  0  0
  6 25  1  0  0  0
  6 95  1  0  0  0
  6 96  1  0  0  0
  7  8  2  0  0  0
  7 26  1  0  0  0
  7 29  1  0  0  0
  8  9  1  0  0  0
  8 22  1  0  0  0
  9 10  1  0  0  0
  9 27  2  0  0  0
 10 11  2  0  0  0
 10 15  1  0  0  0
 11 12  1  0  0  0
 11 97  1  0  0  0
 12 13  2  0  0  0
 12 98  1  0  0  0
 13 14  1  0  0  0
 13 31  1  0  0  0
 14 15  2  0  0  0
 14 99  1  0  0  0
 15100  1  0  0  0
 16 17  2  0  0  0
 16 21  1  0  0  0
 16 31  1  0  0  0
 17 18  1  0  0  0
 17101  1  0  0  0
 18 19  2  0  0  0
 18102  1  0  0  0
 19 20  1  0  0  0
 19 24  1  0  0  0
 20 21  2  0  0  0
 20103  1  0  0  0
 21 23  1  0  0  0
 22 28  1  0  0  0
 22 32  2  0  0  0
 26 27  1  0  0  0
 28104  1  0  0  0
 28105  1  0  0  0
 29106  1  0  0  0
 29107  1  0  0  0
 33 34  1  0  0  0
 33 66  1  0  0  0
 33 70  2  0  0  0
 34 36  1  0  0  0
 34 59  1  0  0  0
 34108  1  0  0  0
 35 44  2  0  0  0
 35 45  1  0  0  0
 35 68  1  0  0  0
 36 56  1  0  0  0
 36109  1  0  0  0
 37 39  1  0  0  0
 37 47  1  0  0  0
 37 66  1  0  0  0
 37110  1  0  0  0
 38 43  2  0  0  0
 38 46  1  0  0  0
 38 47  1  0  0  0
 39 64  1  0  0  0
 39 67  2  0  0  0
 40 52  1  0  0  0
 40 53  2  0  0  0
 40 58  1  0  0  0
 41111  1  0  0  0
 41112  1  0  0  0
 41113  1  0  0  0
 41 48  1  0  0  0
 42 43  1  0  0  0
 42 66  1  0  0  0
 42114  1  0  0  0
 42115  1  0  0  0
 43 44  1  0  0  0
 44116  1  0  0  0
 45 46  2  0  0  0
 45117  1  0  0  0
 46118  1  0  0  0
 47119  1  0  0  0
 47120  1  0  0  0
 48 56  1  0  0  0
 48 65  1  0  0  0
 48121  1  0  0  0
 49 50  1  0  0  0
 49 53  1  0  0  0
 49 64  1  0  0  0
 49122  1  0  0  0
 50 51  1  0  0  0
 50123  1  0  0  0
 50124  1  0  0  0
 51 52  1  0  0  0
 51125  1  0  0  0
 51126  1  0  0  0
 52127  1  0  0  0
 52128  1  0  0  0
 53 54  1  0  0  0
 54 55  2  0  0  0
 54129  1  0  0  0
 55 57  1  0  0  0
 55130  1  0  0  0
 56 69  2  0  0  0
 57 58  2  0  0  0
 57131  1  0  0  0
 58132  1  0  0  0
 59 60  1  0  0  0
 59 61  1  0  0  0
 59 62  1  0  0  0
 60133  1  0  0  0
 60134  1  0  0  0
 60135  1  0  0  0
 61136  1  0  0  0
 61137  1  0  0  0
 61138  1  0  0  0
 62139  1  0  0  0
 62140  1  0  0  0
 62141  1  0  0  0
 63 65  1  0  0  0
 63142  1  0  0  0
 63143  1  0  0  0
 63144  1  0  0  0
 64145  1  0  0  0
 65146  1  0  0  0
 68 83  1  0  0  0
 71 74  2  0  0  0
 71 75  1  0  0  0
 71147  1  0  0  0
 72 74  1  0  0  0
 72 76  2  0  0  0
 72148  1  0  0  0
 73 75  2  0  0  0
 73 76  1  0  0  0
 73149  1  0  0  0
 74 84  1  0  0  0
 75 85  1  0  0  0
 76 87  1  0  0  0
 77 79  1  0  0  0
 77 84  1  0  0  0
 77 86  2  0  0  0
 78 80  1  0  0  0
 78150  1  0  0  0
 78151  1  0  0  0
 78152  1  0  0  0
 79 81  1  0  0  0
 79153  1  0  0  0
 79154  1  0  0  0
 80 82  1  0  0  0
 80155  1  0  0  0
 80156  1  0  0  0
 81 83  1  0  0  0
 81157  1  0  0  0
 81158  1  0  0  0
 82 85  1  0  0  0
 82159  1  0  0  0
 82160  1  0  0  0
 83161  1  0  0  0
 83162  1  0  0  0
 84163  1  0  0  0
 87164  1  0  0  0
M  ISO  4   1 100  68 101  83 101  85 100
M  END
> <chiral flag>
0

> <version>
0

> <s_m_source_file>
/data/baiqing/PycharmProjects/Reinvent-master-3.2/result/LINK_invent/BTK/process_docking_weight1_custom_product_contain_oxygen_bond_distance_aromatic_linkinvent_7_9_3/rearranged_h_0100.sdf

> <i_m_source_file_index>
31

> <r_mmod_Potential_Energy-OPLS-2005>
213.327484130859

> <r_mmod_Stretch_Energy-OPLS-2005>
66.3662033081055

> <r_mmod_Bend_Energy-OPLS-2005>
155.534744262695

> <r_mmod_Torsional_Energy-OPLS-2005>
308.480224609375

> <r_mmod_Improper_Torsional_Energy-OPLS-2005>
5.44793319702148

> <r_mmod_Van_der_Waal_Energy-OPLS-2005>
166.316711425781

> <r_mmod_Electrostatic_Energy-OPLS-2005>
-301.586791992188

> <r_mmod_Solvation_Energy-OPLS-2005>
-237.542602539062

> <b_mmod_Minimization_Converged-OPLS-2005>
0

> <r_mmod_RMS_Derivative-OPLS-2005>
0.906766593456268

$$$$
31
                    3D
 Structure written by MMmdl.
157165  0  0  1  0            999 V2000
  -30.7323  -14.5180   20.5142 C   0  0  0  0  0  0
  -30.4112  -12.3258   19.4272 C   0  0  0  0  0  0
  -29.4900  -12.4669   18.2007 C   0  0  0  0  0  0
  -28.0174  -12.3277   18.6251 C   0  0  0  0  0  0
  -27.6525  -13.2127   19.8475 C   0  0  2  0  0  0
  -28.6979  -13.0884   20.9756 C   0  0  0  0  0  0
  -25.2561  -13.8190   20.5645 C   0  0  0  0  0  0
  -24.1815  -13.0476   20.9212 C   0  0  0  0  0  0
  -24.6399  -11.6940   20.8805 C   0  0  0  0  0  0
  -23.9061  -10.4325   21.0456 C   0  0  0  0  0  0
  -24.3624   -9.4228   21.9210 C   0  0  0  0  0  0
  -23.6298   -8.2258   22.0769 C   0  0  0  0  0  0
  -22.4274   -8.0307   21.3553 C   0  0  0  0  0  0
  -21.9914   -9.0298   20.4647 C   0  0  0  0  0  0
  -22.7257  -10.2177   20.3073 C   0  0  0  0  0  0
  -21.6875   -6.0744   22.5283 C   0  0  0  0  0  0
  -21.4005   -6.5638   23.8213 C   0  0  0  0  0  0
  -21.3658   -5.6791   24.9170 C   0  0  0  0  0  0
  -21.6045   -4.3061   24.7234 C   0  0  0  0  0  0
  -21.8813   -3.8155   23.4362 C   0  0  0  0  0  0
  -21.9184   -4.6961   22.3408 C   0  0  0  0  0  0
  -22.7831  -13.5269   21.1896 C   0  0  0  0  0  0
  -22.1661   -4.2156   21.0990 F   0  0  0  0  0  0
  -21.5640   -3.4530   25.7748 F   0  0  0  0  0  0
  -30.0138  -13.3670   20.3865 N   0  0  0  0  0  0
  -26.2982  -12.9367   20.3245 N   0  0  0  0  0  0
  -25.9328  -11.6549   20.5760 N   0  0  0  0  0  0
  -22.0444  -12.8262   22.0435 N   0  0  0  0  0  0
  -25.4239  -15.1905   20.3958 N   0  0  0  0  0  0
  -31.9290  -14.5589   20.2135 O   0  0  0  0  0  0
  -21.6653   -6.8902   21.4252 O   0  0  0  0  0  0
  -22.3513  -14.5611   20.6800 O   0  0  0  0  0  0
  -24.6153  -31.8632   23.2088 C   0  0  0  0  0  0
  -25.9078  -32.4736   23.8341 C   0  0  1  0  0  0
  -27.2225  -27.4132   20.0703 C   0  0  0  0  0  0
  -25.5966  -33.8543   24.2275 N   0  0  0  0  0  0
  -23.4015  -30.4873   21.5517 C   0  0  2  0  0  0
  -24.8396  -28.9486   20.1133 C   0  0  0  0  0  0
  -22.7400  -29.4652   22.5004 C   0  0  0  0  0  0
  -18.0289  -28.1363   22.8501 C   0  0  0  0  0  0
  -24.1528  -36.7299   23.2637 C   0  0  0  0  0  0
  -25.9332  -30.8158   21.3685 C   0  0  0  0  0  0
  -25.9999  -29.4496   20.7129 C   0  0  0  0  0  0
  -27.1896  -28.6867   20.6947 C   0  0  0  0  0  0
  -26.0361  -26.9221   19.4830 C   0  0  0  0  0  0
  -24.8485  -27.6849   19.5021 C   0  0  0  0  0  0
  -23.6033  -29.8180   20.1676 C   0  0  0  0  0  0
  -25.4141  -36.3032   24.0299 C   0  0  1  0  0  0
  -20.5872  -28.3682   23.1312 C   0  0  2  0  0  0
  -20.6802  -26.9428   22.5402 C   0  0  0  0  0  0
  -19.5788  -26.6399   21.5199 C   0  0  0  0  0  0
  -18.1952  -26.7926   22.1606 C   0  0  0  0  0  0
  -19.1530  -28.8839   23.2915 C   0  0  0  0  0  0
  -18.9449  -30.1439   23.8935 C   0  0  0  0  0  0
  -17.6446  -30.6567   24.0580 C   0  0  0  0  0  0
  -25.9066  -34.9398   23.5074 C   0  0  0  0  0  0
  -16.5343  -29.9062   23.6348 C   0  0  0  0  0  0
  -16.7282  -28.6474   23.0398 C   0  0  0  0  0  0
  -26.4568  -31.6501   25.0659 C   0  0  0  0  0  0
  -25.3901  -31.3601   26.1463 C   0  0  0  0  0  0
  -27.0393  -30.2935   24.6017 C   0  0  0  0  0  0
  -27.6103  -32.4231   25.7491 C   0  0  0  0  0  0
  -27.5593  -37.1798   24.8471 C   0  0  0  0  0  0
  -21.4125  -29.3054   22.3721 N   0  0  0  0  0  0
  -26.4312  -37.3715   23.9391 N   0  0  0  0  0  0
  -24.6677  -31.0741   22.0997 N   0  0  0  0  0  0
  -23.4179  -28.8209   23.3067 O   0  0  0  0  0  0
  -28.3920  -26.6708   20.0973 O   0  0  0  0  0  0
  -26.5607  -34.8872   22.4620 O   0  0  0  0  0  0
  -23.5342  -32.1387   23.7492 O   0  0  0  0  0  0
  -28.8206  -20.3269   20.7301 C   0  0  0  0  0  0
  -29.7957  -19.7419   18.5945 C   0  0  0  0  0  0
  -29.9116  -18.1240   20.4473 C   0  0  0  0  0  0
  -29.2034  -19.0597   21.2571 C   0  0  0  0  0  0
  -29.1365  -20.6981   19.4006 C   0  0  0  0  0  0
  -30.1782  -18.4821   19.1056 C   0  0  0  0  0  0
  -30.5538  -16.8659   21.0073 C   0  0  0  0  0  0
  -28.8404  -18.7278   22.6996 C   0  0  0  0  0  0
  -29.2399  -24.3676   19.4420 C   0  0  0  0  0  0
  -28.2574  -23.1535   19.4481 C   0  0  0  0  0  0
  -28.6908  -25.7667   19.0119 C   0  0  0  0  0  0
  -28.8395  -21.9512   18.8130 N   0  0  0  0  0  0
  -30.0222  -15.6597   20.6928 N   0  0  0  0  0  0
  -31.5597  -16.9954   21.7141 O   0  0  0  0  0  0
  -30.8640  -17.6377   18.2960 F   0  0  0  0  0  0
  -31.4606  -12.4005   19.1271 H   0  0  0  0  0  0
  -30.2943  -11.3386   19.8750 H   0  0  0  0  0  0
  -29.7378  -11.7019   17.4632 H   0  0  0  0  0  0
  -29.6520  -13.4302   17.7139 H   0  0  0  0  0  0
  -27.8519  -11.2777   18.8672 H   0  0  0  0  0  0
  -27.3591  -12.5528   17.7851 H   0  0  0  0  0  0
  -27.6738  -14.2435   19.4966 H   0  0  0  0  0  0
  -28.6891  -12.0915   21.4187 H   0  0  0  0  0  0
  -28.4717  -13.7874   21.7818 H   0  0  0  0  0  0
  -25.2777   -9.5699   22.4748 H   0  0  0  0  0  0
  -24.0036   -7.4645   22.7455 H   0  0  0  0  0  0
  -21.0863   -8.8825   19.8927 H   0  0  0  0  0  0
  -22.3751  -10.9725   19.6160 H   0  0  0  0  0  0
  -21.1991   -7.6142   23.9733 H   0  0  0  0  0  0
  -21.1481   -6.0511   25.9086 H   0  0  0  0  0  0
  -22.0591   -2.7611   23.2858 H   0  0  0  0  0  0
  -22.4086  -11.9930   22.4815 H   0  0  0  0  0  0
  -21.1046  -13.1246   22.2624 H   0  0  0  0  0  0
  -24.6455  -15.8328   20.4809 H   0  0  0  0  0  0
  -26.2513  -15.6264   20.0107 H   0  0  0  0  0  0
  -26.7113  -32.5404   23.1067 H   0  0  0  0  0  0
  -25.0241  -33.9663   25.0503 H   0  0  0  0  0  0
  -22.6890  -31.3028   21.4122 H   0  0  0  0  0  0
  -23.3720  -35.9701   23.3289 H   0  0  0  0  0  0
  -24.3693  -36.8939   22.2071 H   0  0  0  0  0  0
  -23.7345  -37.6515   23.6695 H   0  0  0  0  0  0
  -26.0534  -31.5887   20.6086 H   0  0  0  0  0  0
  -26.8188  -30.8565   21.9925 H   0  0  0  0  0  0
  -28.0847  -29.0752   21.1545 H   0  0  0  0  0  0
  -25.9923  -25.9401   19.0357 H   0  0  0  0  0  0
  -23.9444  -27.2899   19.0571 H   0  0  0  0  0  0
  -23.7075  -30.5926   19.4081 H   0  0  0  0  0  0
  -22.7265  -29.2373   19.8745 H   0  0  0  0  0  0
  -25.1306  -36.1871   25.0771 H   0  0  0  0  0  0
  -20.9963  -28.3249   24.1429 H   0  0  0  0  0  0
  -20.5781  -26.2276   23.3599 H   0  0  0  0  0  0
  -21.6664  -26.7547   22.1149 H   0  0  0  0  0  0
  -19.6995  -25.6324   21.1201 H   0  0  0  0  0  0
  -19.6712  -27.3218   20.6741 H   0  0  0  0  0  0
  -17.4257  -26.6714   21.3988 H   0  0  0  0  0  0
  -18.0359  -26.0033   22.8960 H   0  0  0  0  0  0
  -19.7928  -30.7245   24.2326 H   0  0  0  0  0  0
  -17.5001  -31.6257   24.5167 H   0  0  0  0  0  0
  -15.5336  -30.2985   23.7613 H   0  0  0  0  0  0
  -15.8691  -28.0747   22.7155 H   0  0  0  0  0  0
  -24.6083  -30.6911   25.7877 H   0  0  0  0  0  0
  -24.9145  -32.2759   26.4946 H   0  0  0  0  0  0
  -25.8347  -30.8805   27.0191 H   0  0  0  0  0  0
  -26.2890  -29.6688   24.1165 H   0  0  0  0  0  0
  -27.4287  -29.7170   25.4427 H   0  0  0  0  0  0
  -27.8685  -30.4248   23.9056 H   0  0  0  0  0  0
  -27.2649  -33.3490   26.2098 H   0  0  0  0  0  0
  -28.3951  -32.6817   25.0367 H   0  0  0  0  0  0
  -28.0733  -31.8339   26.5426 H   0  0  0  0  0  0
  -28.2541  -38.0149   24.7478 H   0  0  0  0  0  0
  -28.1119  -36.2652   24.6292 H   0  0  0  0  0  0
  -27.2331  -37.1444   25.8880 H   0  0  0  0  0  0
  -20.9319  -29.8703   21.6861 H   0  0  0  0  0  0
  -26.0160  -38.2763   24.1386 H   0  0  0  0  0  0
  -28.2866  -21.0159   21.3689 H   0  0  0  0  0  0
  -30.0477  -19.9714   17.5674 H   0  0  0  0  0  0
  -29.7262  -18.7382   23.3370 H   0  0  0  0  0  0
  -28.1170  -19.4433   23.0992 H   0  0  0  0  0  0
  -28.3851  -17.7385   22.7726 H   0  0  0  0  0  0
  -30.0367  -24.1372   18.7336 H   0  0  0  0  0  0
  -29.7456  -24.4529   20.4010 H   0  0  0  0  0  0
  -27.3740  -23.4210   18.8649 H   0  0  0  0  0  0
  -27.8837  -22.9599   20.4557 H   0  0  0  0  0  0
  -27.9227  -25.6687   18.2481 H   0  0  0  0  0  0
  -29.4994  -26.2716   18.4760 H   0  0  0  0  0  0
  -29.0665  -22.0468   17.8244 H   0  0  0  0  0  0
  -29.0512  -15.6388   20.4375 H   0  0  0  0  0  0
  1 25  1  0  0  0
  1 30  2  0  0  0
  1 83  1  0  0  0
  2  3  1  0  0  0
  2 25  1  0  0  0
  2 86  1  0  0  0
  2 87  1  0  0  0
  3  4  1  0  0  0
  3 88  1  0  0  0
  3 89  1  0  0  0
  4  5  1  0  0  0
  4 90  1  0  0  0
  4 91  1  0  0  0
  5  6  1  0  0  0
  5 26  1  0  0  0
  5 92  1  0  0  0
  6 25  1  0  0  0
  6 93  1  0  0  0
  6 94  1  0  0  0
  7  8  2  0  0  0
  7 26  1  0  0  0
  7 29  1  0  0  0
  8  9  1  0  0  0
  8 22  1  0  0  0
  9 10  1  0  0  0
  9 27  2  0  0  0
 10 11  2  0  0  0
 10 15  1  0  0  0
 11 12  1  0  0  0
 11 95  1  0  0  0
 12 13  2  0  0  0
 12 96  1  0  0  0
 13 14  1  0  0  0
 13 31  1  0  0  0
 14 15  2  0  0  0
 14 97  1  0  0  0
 15 98  1  0  0  0
 16 17  2  0  0  0
 16 21  1  0  0  0
 16 31  1  0  0  0
 17 18  1  0  0  0
 17 99  1  0  0  0
 18 19  2  0  0  0
 18100  1  0  0  0
 19 20  1  0  0  0
 19 24  1  0  0  0
 20 21  2  0  0  0
 20101  1  0  0  0
 21 23  1  0  0  0
 22 28  1  0  0  0
 22 32  2  0  0  0
 26 27  1  0  0  0
 28102  1  0  0  0
 28103  1  0  0  0
 29104  1  0  0  0
 29105  1  0  0  0
 33 34  1  0  0  0
 33 66  1  0  0  0
 33 70  2  0  0  0
 34 36  1  0  0  0
 34 59  1  0  0  0
 34106  1  0  0  0
 35 44  2  0  0  0
 35 45  1  0  0  0
 35 68  1  0  0  0
 36 56  1  0  0  0
 36107  1  0  0  0
 37 39  1  0  0  0
 37 47  1  0  0  0
 37 66  1  0  0  0
 37108  1  0  0  0
 38 43  2  0  0  0
 38 46  1  0  0  0
 38 47  1  0  0  0
 39 64  1  0  0  0
 39 67  2  0  0  0
 40 52  1  0  0  0
 40 53  2  0  0  0
 40 58  1  0  0  0
 41109  1  0  0  0
 41110  1  0  0  0
 41111  1  0  0  0
 41 48  1  0  0  0
 42 43  1  0  0  0
 42 66  1  0  0  0
 42112  1  0  0  0
 42113  1  0  0  0
 43 44  1  0  0  0
 44114  1  0  0  0
 45 46  2  0  0  0
 45115  1  0  0  0
 46116  1  0  0  0
 47117  1  0  0  0
 47118  1  0  0  0
 48 56  1  0  0  0
 48 65  1  0  0  0
 48119  1  0  0  0
 49 50  1  0  0  0
 49 53  1  0  0  0
 49 64  1  0  0  0
 49120  1  0  0  0
 50 51  1  0  0  0
 50121  1  0  0  0
 50122  1  0  0  0
 51 52  1  0  0  0
 51123  1  0  0  0
 51124  1  0  0  0
 52125  1  0  0  0
 52126  1  0  0  0
 53 54  1  0  0  0
 54 55  2  0  0  0
 54127  1  0  0  0
 55 57  1  0  0  0
 55128  1  0  0  0
 56 69  2  0  0  0
 57 58  2  0  0  0
 57129  1  0  0  0
 58130  1  0  0  0
 59 60  1  0  0  0
 59 61  1  0  0  0
 59 62  1  0  0  0
 60131  1  0  0  0
 60132  1  0  0  0
 60133  1  0  0  0
 61134  1  0  0  0
 61135  1  0  0  0
 61136  1  0  0  0
 62137  1  0  0  0
 62138  1  0  0  0
 62139  1  0  0  0
 63 65  1  0  0  0
 63140  1  0  0  0
 63141  1  0  0  0
 63142  1  0  0  0
 64143  1  0  0  0
 65144  1  0  0  0
 68 81  1  0  0  0
 71 74  2  0  0  0
 71 75  1  0  0  0
 71145  1  0  0  0
 72 75  2  0  0  0
 72 76  1  0  0  0
 72146  1  0  0  0
 73 74  1  0  0  0
 73 76  2  0  0  0
 73 77  1  0  0  0
 74 78  1  0  0  0
 75 82  1  0  0  0
 76 85  1  0  0  0
 77 83  1  0  0  0
 77 84  2  0  0  0
 78147  1  0  0  0
 78148  1  0  0  0
 78149  1  0  0  0
 79 80  1  0  0  0
 79 81  1  0  0  0
 79150  1  0  0  0
 79151  1  0  0  0
 80 82  1  0  0  0
 80152  1  0  0  0
 80153  1  0  0  0
 81154  1  0  0  0
 81155  1  0  0  0
 82156  1  0  0  0
 83157  1  0  0  0
M  ISO  4   1 100  68 101  81 101  83 100
M  END
> <chiral flag>
0

> <version>
0

> <s_m_source_file>
/data/baiqing/PycharmProjects/Reinvent-master-3.2/result/LINK_invent/BTK/process_docking_weight1_custom_product_contain_oxygen_bond_distance_aromatic_linkinvent_7_9_3/rearranged_h_0100.sdf

> <i_m_source_file_index>
32

> <r_mmod_Potential_Energy-OPLS-2005>
66.7333297729492

> <r_mmod_Stretch_Energy-OPLS-2005>
44.8396148681641

> <r_mmod_Bend_Energy-OPLS-2005>
133.952117919922

> <r_mmod_Torsional_Energy-OPLS-2005>
278.133758544922

> <r_mmod_Improper_Torsional_Energy-OPLS-2005>
8.34361171722412

> <r_mmod_Van_der_Waal_Energy-OPLS-2005>
154.715667724609

> <r_mmod_Electrostatic_Energy-OPLS-2005>
-351.805847167969

> <r_mmod_Solvation_Energy-OPLS-2005>
-229.209014892578

> <b_mmod_Minimization_Converged-OPLS-2005>
0

> <r_mmod_RMS_Derivative-OPLS-2005>
6.00988912582397

$$$$
32
                    3D
 Structure written by MMmdl.
154162  0  0  1  0            999 V2000
  -30.5047  -15.0404   20.4452 C   0  0  0  0  0  0
  -30.4295  -12.6599   19.5030 C   0  0  0  0  0  0
  -29.5139  -12.5612   18.2582 C   0  0  0  0  0  0
  -28.0488  -12.3236   18.6687 C   0  0  0  0  0  0
  -27.6171  -13.2513   19.8307 C   0  0  2  0  0  0
  -28.6540  -13.2637   20.9664 C   0  0  0  0  0  0
  -25.2387  -13.8225   20.5696 C   0  0  0  0  0  0
  -24.1730  -13.0425   20.9226 C   0  0  0  0  0  0
  -24.6371  -11.6917   20.8752 C   0  0  0  0  0  0
  -23.9075  -10.4282   21.0408 C   0  0  0  0  0  0
  -24.3624   -9.4199   21.9183 C   0  0  0  0  0  0
  -23.6304   -8.2230   22.0751 C   0  0  0  0  0  0
  -22.4286   -8.0273   21.3534 C   0  0  0  0  0  0
  -21.9918   -9.0249   20.4638 C   0  0  0  0  0  0
  -22.7248  -10.2125   20.3056 C   0  0  0  0  0  0
  -21.6842   -6.0733   22.5281 C   0  0  0  0  0  0
  -21.4007   -6.5639   23.8212 C   0  0  0  0  0  0
  -21.3662   -5.6792   24.9177 C   0  0  0  0  0  0
  -21.6036   -4.3054   24.7221 C   0  0  0  0  0  0
  -21.8825   -3.8146   23.4345 C   0  0  0  0  0  0
  -21.9195   -4.6964   22.3398 C   0  0  0  0  0  0
  -22.7757  -13.5181   21.1905 C   0  0  0  0  0  0
  -22.1660   -4.2147   21.0978 F   0  0  0  0  0  0
  -21.5635   -3.4545   25.7737 F   0  0  0  0  0  0
  -29.9156  -13.7599   20.3867 N   0  0  0  0  0  0
  -26.2801  -12.9452   20.3192 N   0  0  0  0  0  0
  -25.9293  -11.6583   20.5706 N   0  0  0  0  0  0
  -22.0440  -12.8147   22.0475 N   0  0  0  0  0  0
  -25.4068  -15.1951   20.4147 N   0  0  0  0  0  0
  -31.6950  -15.0696   20.1006 O   0  0  0  0  0  0
  -21.6645   -6.8879   21.4235 O   0  0  0  0  0  0
  -22.3418  -14.5477   20.6758 O   0  0  0  0  0  0
  -24.6502  -31.8385   23.1793 C   0  0  0  0  0  0
  -25.9226  -32.4659   23.8218 C   0  0  1  0  0  0
  -27.2224  -27.0812   20.1522 C   0  0  0  0  0  0
  -25.5937  -33.8469   24.2142 N   0  0  0  0  0  0
  -23.4596  -30.4547   21.5273 C   0  0  2  0  0  0
  -24.9071  -28.8641   20.1174 C   0  0  0  0  0  0
  -22.7601  -29.4531   22.4829 C   0  0  0  0  0  0
  -18.0314  -28.1377   22.8463 C   0  0  0  0  0  0
  -24.1505  -36.7249   23.2644 C   0  0  0  0  0  0
  -26.0210  -30.6925   21.3892 C   0  0  0  0  0  0
  -26.0904  -29.2986   20.7293 C   0  0  0  0  0  0
  -27.2503  -28.4259   20.7211 C   0  0  0  0  0  0
  -26.0107  -26.7605   19.5045 C   0  0  0  0  0  0
  -24.8815  -27.6084   19.4918 C   0  0  0  0  0  0
  -23.6872  -29.7717   20.1531 C   0  0  0  0  0  0
  -25.4142  -36.3028   24.0310 C   0  0  1  0  0  0
  -20.5932  -28.3737   23.1188 C   0  0  2  0  0  0
  -20.6801  -26.9433   22.5381 C   0  0  0  0  0  0
  -19.5775  -26.6369   21.5191 C   0  0  0  0  0  0
  -18.1944  -26.7919   22.1604 C   0  0  0  0  0  0
  -19.1573  -28.8875   23.2813 C   0  0  0  0  0  0
  -18.9494  -30.1461   23.8858 C   0  0  0  0  0  0
  -17.6492  -30.6579   24.0549 C   0  0  0  0  0  0
  -25.9089  -34.9391   23.5055 C   0  0  0  0  0  0
  -16.5380  -29.9073   23.6336 C   0  0  0  0  0  0
  -16.7300  -28.6484   23.0363 C   0  0  0  0  0  0
  -26.4516  -31.6558   25.0701 C   0  0  0  0  0  0
  -25.3650  -31.3722   26.1351 C   0  0  0  0  0  0
  -27.0425  -30.2954   24.6353 C   0  0  0  0  0  0
  -27.6046  -32.4331   25.7456 C   0  0  0  0  0  0
  -27.5599  -37.1773   24.8463 C   0  0  0  0  0  0
  -21.4289  -29.3052   22.3552 N   0  0  0  0  0  0
  -26.4324  -37.3736   23.9386 N   0  0  0  0  0  0
  -24.7302  -31.0184   22.0862 N   0  0  0  0  0  0
  -23.4193  -28.8086   23.3029 O   0  0  0  0  0  0
  -28.2760  -26.0778   20.1672 O   0  0  0  0  0  0
  -26.5716  -34.8908   22.4664 O   0  0  0  0  0  0
  -23.5600  -32.1297   23.6957 O   0  0  0  0  0  0
  -30.9376  -19.1327   18.3745 C   0  0  0  0  0  0
  -30.7425  -17.8801   18.9922 C   0  0  0  0  0  0
  -29.2602  -19.0211   20.5168 C   0  0  0  0  0  0
  -30.3339  -20.3479   18.7962 C   0  0  0  0  0  0
  -29.9084  -17.7164   20.1136 C   0  0  0  0  0  0
  -29.4357  -20.3890   19.9112 C   0  0  0  0  0  0
  -30.7000  -21.5644   17.9611 C   0  0  0  0  0  0
  -28.9965  -16.2796   21.9600 C   0  0  0  0  0  0
  -28.0244  -24.5300   20.4033 C   0  0  0  0  0  0
  -28.9248  -23.1485   19.9188 C   0  0  0  0  0  0
  -29.7803  -16.2785   20.7195 N   0  0  0  0  0  0
  -28.7622  -21.6414   20.3665 O   0  0  0  0  0  0
  -31.4580  -12.8305   19.1842 H   0  0  0  0  0  0
  -30.4532  -11.7103   20.0402 H   0  0  0  0  0  0
  -29.8508  -11.7643   17.5947 H   0  0  0  0  0  0
  -29.5826  -13.4863   17.6850 H   0  0  0  0  0  0
  -27.9557  -11.2814   18.9772 H   0  0  0  0  0  0
  -27.3856  -12.4469   17.8114 H   0  0  0  0  0  0
  -27.5785  -14.2578   19.4100 H   0  0  0  0  0  0
  -28.7749  -12.2650   21.3884 H   0  0  0  0  0  0
  -28.2908  -13.8675   21.7904 H   0  0  0  0  0  0
  -25.2770   -9.5672   22.4760 H   0  0  0  0  0  0
  -24.0011   -7.4616   22.7465 H   0  0  0  0  0  0
  -21.0854   -8.8763   19.8943 H   0  0  0  0  0  0
  -22.3707  -10.9664   19.6168 H   0  0  0  0  0  0
  -21.1996   -7.6148   23.9703 H   0  0  0  0  0  0
  -21.1475   -6.0531   25.9071 H   0  0  0  0  0  0
  -22.0601   -2.7611   23.2848 H   0  0  0  0  0  0
  -22.4092  -11.9823   22.4856 H   0  0  0  0  0  0
  -21.1051  -13.1132   22.2707 H   0  0  0  0  0  0
  -24.6397  -15.8501   20.5236 H   0  0  0  0  0  0
  -26.2645  -15.6373   20.1106 H   0  0  0  0  0  0
  -26.7299  -32.5241   23.0939 H   0  0  0  0  0  0
  -24.9999  -33.9551   25.0231 H   0  0  0  0  0  0
  -22.7675  -31.2815   21.3595 H   0  0  0  0  0  0
  -23.3792  -35.9562   23.3302 H   0  0  0  0  0  0
  -24.3594  -36.8916   22.2067 H   0  0  0  0  0  0
  -23.7238  -37.6425   23.6709 H   0  0  0  0  0  0
  -26.1972  -31.4484   20.6223 H   0  0  0  0  0  0
  -26.8807  -30.7316   22.0463 H   0  0  0  0  0  0
  -28.1581  -28.7583   21.2041 H   0  0  0  0  0  0
  -25.9138  -25.8094   19.0022 H   0  0  0  0  0  0
  -23.9781  -27.2675   19.0033 H   0  0  0  0  0  0
  -23.8206  -30.5358   19.3861 H   0  0  0  0  0  0
  -22.8031  -29.2103   19.8497 H   0  0  0  0  0  0
  -25.1327  -36.1882   25.0809 H   0  0  0  0  0  0
  -21.0021  -28.3356   24.1316 H   0  0  0  0  0  0
  -20.5684  -26.2358   23.3613 H   0  0  0  0  0  0
  -21.6664  -26.7430   22.1190 H   0  0  0  0  0  0
  -19.6958  -25.6270   21.1256 H   0  0  0  0  0  0
  -19.6718  -27.3146   20.6686 H   0  0  0  0  0  0
  -17.4221  -26.6650   21.4001 H   0  0  0  0  0  0
  -18.0359  -26.0058   22.9004 H   0  0  0  0  0  0
  -19.7977  -30.7245   24.2236 H   0  0  0  0  0  0
  -17.5056  -31.6255   24.5144 H   0  0  0  0  0  0
  -15.5381  -30.2946   23.7685 H   0  0  0  0  0  0
  -15.8699  -28.0766   22.7121 H   0  0  0  0  0  0
  -24.5863  -30.7071   25.7580 H   0  0  0  0  0  0
  -24.8775  -32.2870   26.4728 H   0  0  0  0  0  0
  -25.7863  -30.8880   27.0170 H   0  0  0  0  0  0
  -26.3085  -29.6598   24.1395 H   0  0  0  0  0  0
  -27.4044  -29.7331   25.4971 H   0  0  0  0  0  0
  -27.8978  -30.4173   23.9704 H   0  0  0  0  0  0
  -27.2700  -33.3689   26.1947 H   0  0  0  0  0  0
  -28.3875  -32.6817   25.0268 H   0  0  0  0  0  0
  -28.0709  -31.8515   26.5423 H   0  0  0  0  0  0
  -28.2587  -38.0094   24.7548 H   0  0  0  0  0  0
  -28.1133  -36.2626   24.6277 H   0  0  0  0  0  0
  -27.2303  -37.1389   25.8859 H   0  0  0  0  0  0
  -20.9526  -29.8769   21.6715 H   0  0  0  0  0  0
  -26.0218  -38.2827   24.1355 H   0  0  0  0  0  0
  -31.5970  -19.1430   17.5170 H   0  0  0  0  0  0
  -31.2606  -17.0311   18.5687 H   0  0  0  0  0  0
  -28.5679  -18.9888   21.3449 H   0  0  0  0  0  0
  -31.4262  -21.3107   17.1877 H   0  0  0  0  0  0
  -31.1696  -22.3377   18.5650 H   0  0  0  0  0  0
  -29.8342  -21.9612   17.4329 H   0  0  0  0  0  0
  -27.9370  -16.1311   21.7499 H   0  0  0  0  0  0
  -29.0977  -17.2192   22.5010 H   0  0  0  0  0  0
  -29.3307  -15.5227   22.6697 H   0  0  0  0  0  0
  -27.9823  -24.4599   21.4899 H   0  0  0  0  0  0
  -27.0032  -24.3127   20.1004 H   0  0  0  0  0  0
  -29.9670  -23.3860   20.1283 H   0  0  0  0  0  0
  -28.8189  -23.1590   18.8385 H   0  0  0  0  0  0
  1 25  1  0  0  0
  1 30  2  0  0  0
  1 81  1  0  0  0
  2  3  1  0  0  0
  2 25  1  0  0  0
  2 83  1  0  0  0
  2 84  1  0  0  0
  3  4  1  0  0  0
  3 85  1  0  0  0
  3 86  1  0  0  0
  4  5  1  0  0  0
  4 87  1  0  0  0
  4 88  1  0  0  0
  5  6  1  0  0  0
  5 26  1  0  0  0
  5 89  1  0  0  0
  6 25  1  0  0  0
  6 90  1  0  0  0
  6 91  1  0  0  0
  7  8  2  0  0  0
  7 26  1  0  0  0
  7 29  1  0  0  0
  8  9  1  0  0  0
  8 22  1  0  0  0
  9 10  1  0  0  0
  9 27  2  0  0  0
 10 11  2  0  0  0
 10 15  1  0  0  0
 11 12  1  0  0  0
 11 92  1  0  0  0
 12 13  2  0  0  0
 12 93  1  0  0  0
 13 14  1  0  0  0
 13 31  1  0  0  0
 14 15  2  0  0  0
 14 94  1  0  0  0
 15 95  1  0  0  0
 16 17  2  0  0  0
 16 21  1  0  0  0
 16 31  1  0  0  0
 17 18  1  0  0  0
 17 96  1  0  0  0
 18 19  2  0  0  0
 18 97  1  0  0  0
 19 20  1  0  0  0
 19 24  1  0  0  0
 20 21  2  0  0  0
 20 98  1  0  0  0
 21 23  1  0  0  0
 22 28  1  0  0  0
 22 32  2  0  0  0
 26 27  1  0  0  0
 28 99  1  0  0  0
 28100  1  0  0  0
 29101  1  0  0  0
 29102  1  0  0  0
 33 34  1  0  0  0
 33 66  1  0  0  0
 33 70  2  0  0  0
 34 36  1  0  0  0
 34 59  1  0  0  0
 34103  1  0  0  0
 35 44  2  0  0  0
 35 45  1  0  0  0
 35 68  1  0  0  0
 36 56  1  0  0  0
 36104  1  0  0  0
 37 39  1  0  0  0
 37 47  1  0  0  0
 37 66  1  0  0  0
 37105  1  0  0  0
 38 43  2  0  0  0
 38 46  1  0  0  0
 38 47  1  0  0  0
 39 64  1  0  0  0
 39 67  2  0  0  0
 40 52  1  0  0  0
 40 53  2  0  0  0
 40 58  1  0  0  0
 41106  1  0  0  0
 41107  1  0  0  0
 41108  1  0  0  0
 41 48  1  0  0  0
 42 43  1  0  0  0
 42 66  1  0  0  0
 42109  1  0  0  0
 42110  1  0  0  0
 43 44  1  0  0  0
 44111  1  0  0  0
 45 46  2  0  0  0
 45112  1  0  0  0
 46113  1  0  0  0
 47114  1  0  0  0
 47115  1  0  0  0
 48 56  1  0  0  0
 48 65  1  0  0  0
 48116  1  0  0  0
 49 50  1  0  0  0
 49 53  1  0  0  0
 49 64  1  0  0  0
 49117  1  0  0  0
 50 51  1  0  0  0
 50118  1  0  0  0
 50119  1  0  0  0
 51 52  1  0  0  0
 51120  1  0  0  0
 51121  1  0  0  0
 52122  1  0  0  0
 52123  1  0  0  0
 53 54  1  0  0  0
 54 55  2  0  0  0
 54124  1  0  0  0
 55 57  1  0  0  0
 55125  1  0  0  0
 56 69  2  0  0  0
 57 58  2  0  0  0
 57126  1  0  0  0
 58127  1  0  0  0
 59 60  1  0  0  0
 59 61  1  0  0  0
 59 62  1  0  0  0
 60128  1  0  0  0
 60129  1  0  0  0
 60130  1  0  0  0
 61131  1  0  0  0
 61132  1  0  0  0
 61133  1  0  0  0
 62134  1  0  0  0
 62135  1  0  0  0
 62136  1  0  0  0
 63 65  1  0  0  0
 63137  1  0  0  0
 63138  1  0  0  0
 63139  1  0  0  0
 64140  1  0  0  0
 65141  1  0  0  0
 68 79  1  0  0  0
 71 72  2  0  0  0
 71 74  1  0  0  0
 71142  1  0  0  0
 72 75  1  0  0  0
 72143  1  0  0  0
 73 75  2  0  0  0
 73 76  1  0  0  0
 73144  1  0  0  0
 74 76  2  0  0  0
 74 77  1  0  0  0
 75 81  1  0  0  0
 76 82  1  0  0  0
 77145  1  0  0  0
 77146  1  0  0  0
 77147  1  0  0  0
 78 81  1  0  0  0
 78148  1  0  0  0
 78149  1  0  0  0
 78150  1  0  0  0
 79 80  1  0  0  0
 79151  1  0  0  0
 79152  1  0  0  0
 80 82  1  0  0  0
 80153  1  0  0  0
 80154  1  0  0  0
M  ISO  4   1 100  68 101  79 101  81 100
M  END
> <chiral flag>
0

> <version>
0

> <s_m_source_file>
/data/baiqing/PycharmProjects/Reinvent-master-3.2/result/LINK_invent/BTK/process_docking_weight1_custom_product_contain_oxygen_bond_distance_aromatic_linkinvent_7_9_3/rearranged_h_0100.sdf

> <i_m_source_file_index>
33

> <r_mmod_Potential_Energy-OPLS-2005>
845.166137695312

> <r_mmod_Stretch_Energy-OPLS-2005>
349.740661621094

> <r_mmod_Bend_Energy-OPLS-2005>
317.798797607422

> <r_mmod_Torsional_Energy-OPLS-2005>
273.579315185547

> <r_mmod_Improper_Torsional_Energy-OPLS-2005>
3.62818765640259

> <r_mmod_Van_der_Waal_Energy-OPLS-2005>
151.264617919922

> <r_mmod_Electrostatic_Energy-OPLS-2005>
-297.155548095703

> <r_mmod_Solvation_Energy-OPLS-2005>
-196.635940551758

> <b_mmod_Minimization_Converged-OPLS-2005>
0

> <r_mmod_RMS_Derivative-OPLS-2005>
2.72892785072327

$$$$
33
                    3D
 Structure written by MMmdl.
173182  0  0  1  0            999 V2000
  -30.6731  -14.6166   20.6148 C   0  0  0  0  0  0
  -30.4275  -12.4104   19.4578 C   0  0  0  0  0  0
  -29.5112  -12.5470   18.2233 C   0  0  0  0  0  0
  -28.0334  -12.3726   18.6204 C   0  0  0  0  0  0
  -27.6525  -13.2261   19.8561 C   0  0  2  0  0  0
  -28.6847  -13.0615   20.9844 C   0  0  0  0  0  0
  -25.2578  -13.8193   20.5677 C   0  0  0  0  0  0
  -24.1841  -13.0441   20.9148 C   0  0  0  0  0  0
  -24.6431  -11.6912   20.8701 C   0  0  0  0  0  0
  -23.9100  -10.4297   21.0407 C   0  0  0  0  0  0
  -24.3645   -9.4212   21.9199 C   0  0  0  0  0  0
  -23.6333   -8.2233   22.0761 C   0  0  0  0  0  0
  -22.4316   -8.0266   21.3533 C   0  0  0  0  0  0
  -21.9942   -9.0253   20.4647 C   0  0  0  0  0  0
  -22.7263  -10.2142   20.3066 C   0  0  0  0  0  0
  -21.6866   -6.0738   22.5279 C   0  0  0  0  0  0
  -21.4012   -6.5644   23.8210 C   0  0  0  0  0  0
  -21.3659   -5.6785   24.9170 C   0  0  0  0  0  0
  -21.6050   -4.3050   24.7232 C   0  0  0  0  0  0
  -21.8821   -3.8146   23.4349 C   0  0  0  0  0  0
  -21.9205   -4.6968   22.3402 C   0  0  0  0  0  0
  -22.7876  -13.5233   21.1826 C   0  0  0  0  0  0
  -22.1675   -4.2150   21.0983 F   0  0  0  0  0  0
  -21.5647   -3.4533   25.7749 F   0  0  0  0  0  0
  -30.0067  -13.4224   20.4551 N   0  0  0  0  0  0
  -26.2992  -12.9387   20.3235 N   0  0  0  0  0  0
  -25.9361  -11.6527   20.5680 N   0  0  0  0  0  0
  -22.0500  -12.8241   22.0380 N   0  0  0  0  0  0
  -25.4311  -15.1928   20.4183 N   0  0  0  0  0  0
  -31.7825  -14.7734   20.0948 O   0  0  0  0  0  0
  -21.6651   -6.8879   21.4236 O   0  0  0  0  0  0
  -22.3552  -14.5535   20.6659 O   0  0  0  0  0  0
  -24.6264  -31.8589   23.2019 C   0  0  0  0  0  0
  -25.9102  -32.4777   23.8360 C   0  0  1  0  0  0
  -27.2243  -27.3152   20.1381 C   0  0  0  0  0  0
  -25.5917  -33.8580   24.2290 N   0  0  0  0  0  0
  -23.4204  -30.4768   21.5477 C   0  0  2  0  0  0
  -24.8675  -28.9272   20.1177 C   0  0  0  0  0  0
  -22.7482  -29.4594   22.4995 C   0  0  0  0  0  0
  -18.0277  -28.1385   22.8511 C   0  0  0  0  0  0
  -24.1478  -36.7290   23.2642 C   0  0  0  0  0  0
  -25.9586  -30.7883   21.3714 C   0  0  0  0  0  0
  -26.0340  -29.4115   20.7231 C   0  0  0  0  0  0
  -27.2184  -28.6183   20.7201 C   0  0  0  0  0  0
  -26.0381  -26.8768   19.5092 C   0  0  0  0  0  0
  -24.8710  -27.6651   19.5008 C   0  0  0  0  0  0
  -23.6335  -29.8047   20.1647 C   0  0  0  0  0  0
  -25.4110  -36.3090   24.0332 C   0  0  1  0  0  0
  -20.5876  -28.3672   23.1330 C   0  0  2  0  0  0
  -20.6777  -26.9405   22.5435 C   0  0  0  0  0  0
  -19.5743  -26.6391   21.5240 C   0  0  0  0  0  0
  -18.1919  -26.7938   22.1640 C   0  0  0  0  0  0
  -19.1534  -28.8855   23.2906 C   0  0  0  0  0  0
  -18.9443  -30.1467   23.8906 C   0  0  0  0  0  0
  -17.6443  -30.6596   24.0563 C   0  0  0  0  0  0
  -25.9047  -34.9454   23.5120 C   0  0  0  0  0  0
  -16.5339  -29.9085   23.6326 C   0  0  0  0  0  0
  -16.7268  -28.6495   23.0366 C   0  0  0  0  0  0
  -26.4489  -31.6578   25.0726 C   0  0  0  0  0  0
  -25.3712  -31.3705   26.1445 C   0  0  0  0  0  0
  -27.0326  -30.3005   24.6158 C   0  0  0  0  0  0
  -27.6070  -32.4290   25.7489 C   0  0  0  0  0  0
  -27.5577  -37.1798   24.8465 C   0  0  0  0  0  0
  -21.4192  -29.3014   22.3739 N   0  0  0  0  0  0
  -26.4292  -37.3783   23.9406 N   0  0  0  0  0  0
  -24.6873  -31.0592   22.0976 N   0  0  0  0  0  0
  -23.4205  -28.8147   23.3075 O   0  0  0  0  0  0
  -28.3477  -26.4822   20.1400 O   0  0  0  0  0  0
  -26.5624  -34.8921   22.4686 O   0  0  0  0  0  0
  -23.5426  -32.1402   23.7342 O   0  0  0  0  0  0
  -30.2365  -18.9707   19.3848 C   0  0  0  0  0  0
  -30.4168  -17.5964   19.7244 C   0  0  0  0  0  0
  -29.0384  -17.9391   21.6517 C   0  0  0  0  0  0
  -29.4451  -19.8691   20.1562 C   0  0  0  0  0  0
  -29.8420  -17.0289   20.8922 C   0  0  0  0  0  0
  -28.8118  -19.3131   21.2981 C   0  0  0  0  0  0
  -31.5465  -24.0540   20.6125 C   0  0  0  0  0  0
  -30.9333  -23.6677   21.9582 C   0  0  0  0  0  0
  -30.4761  -24.3775   19.5509 C   0  0  0  0  0  0
  -29.9732  -22.4714   21.8022 C   0  0  0  0  0  0
  -29.0374  -23.9219   19.9215 C   0  0  2  0  0  0
  -28.9867  -15.2921   23.6349 C   0  0  0  0  0  0
  -27.3282  -19.6484   23.1688 C   0  0  0  0  0  0
  -29.2586  -21.3608   19.6602 C   0  0  0  0  0  0
  -28.2050  -25.0910   20.6392 C   0  0  0  0  0  0
  -30.2818  -15.5109   22.8233 C   0  0  0  0  0  0
  -30.0924  -15.6373   21.3581 N   0  0  0  0  0  0
  -29.0681  -22.5415   20.6096 N   0  3  1  0  0  0
  -28.0001  -20.1614   22.0237 O   0  0  0  0  0  0
  -31.4739  -12.5175   19.1665 H   0  0  0  0  0  0
  -30.3475  -11.4076   19.8799 H   0  0  0  0  0  0
  -29.7841  -11.8143   17.4612 H   0  0  0  0  0  0
  -29.6590  -13.5296   17.7730 H   0  0  0  0  0  0
  -27.8651  -11.3169   18.8323 H   0  0  0  0  0  0
  -27.3853  -12.6182   17.7789 H   0  0  0  0  0  0
  -27.6768  -14.2702   19.5415 H   0  0  0  0  0  0
  -28.6954  -12.0375   21.3621 H   0  0  0  0  0  0
  -28.3844  -13.6807   21.8168 H   0  0  0  0  0  0
  -25.2792   -9.5713   22.4766 H   0  0  0  0  0  0
  -24.0056   -7.4640   22.7497 H   0  0  0  0  0  0
  -21.0863   -8.8777   19.8959 H   0  0  0  0  0  0
  -22.3729  -10.9683   19.6164 H   0  0  0  0  0  0
  -21.1979   -7.6145   23.9718 H   0  0  0  0  0  0
  -21.1483   -6.0504   25.9069 H   0  0  0  0  0  0
  -22.0609   -2.7610   23.2843 H   0  0  0  0  0  0
  -22.4096  -11.9928   22.4813 H   0  0  0  0  0  0
  -21.1089  -13.1234   22.2503 H   0  0  0  0  0  0
  -24.6725  -15.8514   20.5571 H   0  0  0  0  0  0
  -26.3001  -15.6377   20.1523 H   0  0  0  0  0  0
  -26.7172  -32.5451   23.1113 H   0  0  0  0  0  0
  -25.0033  -33.9701   25.0420 H   0  0  0  0  0  0
  -22.7149  -31.2971   21.4041 H   0  0  0  0  0  0
  -23.3747  -35.9609   23.3307 H   0  0  0  0  0  0
  -24.3573  -36.8905   22.2053 H   0  0  0  0  0  0
  -23.7203  -37.6488   23.6658 H   0  0  0  0  0  0
  -26.0807  -31.5440   20.5952 H   0  0  0  0  0  0
  -26.8431  -30.8466   21.9939 H   0  0  0  0  0  0
  -28.1186  -28.9868   21.1933 H   0  0  0  0  0  0
  -26.0053  -25.9107   19.0243 H   0  0  0  0  0  0
  -23.9775  -27.2887   19.0228 H   0  0  0  0  0  0
  -23.7470  -30.5762   19.4030 H   0  0  0  0  0  0
  -22.7552  -29.2272   19.8693 H   0  0  0  0  0  0
  -25.1281  -36.1967   25.0827 H   0  0  0  0  0  0
  -20.9948  -28.3230   24.1461 H   0  0  0  0  0  0
  -20.5721  -26.2267   23.3616 H   0  0  0  0  0  0
  -21.6638  -26.7465   22.1200 H   0  0  0  0  0  0
  -19.6897  -25.6301   21.1261 H   0  0  0  0  0  0
  -19.6688  -27.3215   20.6784 H   0  0  0  0  0  0
  -17.4202  -26.6711   21.4029 H   0  0  0  0  0  0
  -18.0294  -26.0077   22.9024 H   0  0  0  0  0  0
  -19.7919  -30.7292   24.2285 H   0  0  0  0  0  0
  -17.4986  -31.6280   24.5150 H   0  0  0  0  0  0
  -15.5339  -30.2980   23.7653 H   0  0  0  0  0  0
  -15.8667  -28.0811   22.7087 H   0  0  0  0  0  0
  -24.5903  -30.7043   25.7758 H   0  0  0  0  0  0
  -24.8880  -32.2860   26.4873 H   0  0  0  0  0  0
  -25.8028  -30.8882   27.0222 H   0  0  0  0  0  0
  -26.2895  -29.6776   24.1169 H   0  0  0  0  0  0
  -27.4019  -29.7250   25.4656 H   0  0  0  0  0  0
  -27.8768  -30.4320   23.9383 H   0  0  0  0  0  0
  -27.2719  -33.3600   26.2077 H   0  0  0  0  0  0
  -28.3882  -32.6819   25.0308 H   0  0  0  0  0  0
  -28.0731  -31.8392   26.5391 H   0  0  0  0  0  0
  -28.2606  -38.0091   24.7529 H   0  0  0  0  0  0
  -28.1067  -36.2623   24.6283 H   0  0  0  0  0  0
  -27.2297  -37.1440   25.8871 H   0  0  0  0  0  0
  -20.9398  -29.8732   21.6929 H   0  0  0  0  0  0
  -26.0185  -38.2863   24.1407 H   0  0  0  0  0  0
  -30.7204  -19.3379   18.4893 H   0  0  0  0  0  0
  -31.0452  -16.9976   19.0803 H   0  0  0  0  0  0
  -28.5788  -17.5728   22.5494 H   0  0  0  0  0  0
  -32.1600  -23.2234   20.2597 H   0  0  0  0  0  0
  -32.2268  -24.8979   20.7348 H   0  0  0  0  0  0
  -30.4300  -24.5230   22.4054 H   0  0  0  0  0  0
  -31.7273  -23.4019   22.6598 H   0  0  0  0  0  0
  -30.7782  -23.9041   18.6153 H   0  0  0  0  0  0
  -30.4869  -25.4436   19.3285 H   0  0  0  0  0  0
  -29.3628  -22.3792   22.7012 H   0  0  0  0  0  0
  -30.5822  -21.5670   21.7713 H   0  0  0  0  0  0
  -28.5079  -23.7775   18.9777 H   0  0  0  0  0  0
  -28.8841  -14.2498   23.9398 H   0  0  0  0  0  0
  -28.0868  -15.5582   23.0785 H   0  0  0  0  0  0
  -28.9987  -15.8864   24.5506 H   0  0  0  0  0  0
  -26.7304  -20.4431   23.6129 H   0  0  0  0  0  0
  -28.0324  -19.3141   23.9334 H   0  0  0  0  0  0
  -26.6502  -18.8327   22.9092 H   0  0  0  0  0  0
  -28.4247  -21.3588   18.9566 H   0  0  0  0  0  0
  -30.1395  -21.5874   19.0595 H   0  0  0  0  0  0
  -28.4766  -25.1329   21.6909 H   0  0  0  0  0  0
  -27.1580  -24.7909   20.6570 H   0  0  0  0  0  0
  -30.9933  -14.7213   23.0795 H   0  0  0  0  0  0
  -30.7671  -16.4211   23.1785 H   0  0  0  0  0  0
  -28.1416  -22.3741   20.9779 H   0  0  0  0  0  0
  1 25  1  0  0  0
  1 30  2  0  0  0
  1 87  1  0  0  0
  2  3  1  0  0  0
  2 25  1  0  0  0
  2 90  1  0  0  0
  2 91  1  0  0  0
  3  4  1  0  0  0
  3 92  1  0  0  0
  3 93  1  0  0  0
  4  5  1  0  0  0
  4 94  1  0  0  0
  4 95  1  0  0  0
  5  6  1  0  0  0
  5 26  1  0  0  0
  5 96  1  0  0  0
  6 25  1  0  0  0
  6 97  1  0  0  0
  6 98  1  0  0  0
  7  8  2  0  0  0
  7 26  1  0  0  0
  7 29  1  0  0  0
  8  9  1  0  0  0
  8 22  1  0  0  0
  9 10  1  0  0  0
  9 27  2  0  0  0
 10 11  2  0  0  0
 10 15  1  0  0  0
 11 12  1  0  0  0
 11 99  1  0  0  0
 12 13  2  0  0  0
 12100  1  0  0  0
 13 14  1  0  0  0
 13 31  1  0  0  0
 14 15  2  0  0  0
 14101  1  0  0  0
 15102  1  0  0  0
 16 17  2  0  0  0
 16 21  1  0  0  0
 16 31  1  0  0  0
 17 18  1  0  0  0
 17103  1  0  0  0
 18 19  2  0  0  0
 18104  1  0  0  0
 19 20  1  0  0  0
 19 24  1  0  0  0
 20 21  2  0  0  0
 20105  1  0  0  0
 21 23  1  0  0  0
 22 28  1  0  0  0
 22 32  2  0  0  0
 26 27  1  0  0  0
 28106  1  0  0  0
 28107  1  0  0  0
 29108  1  0  0  0
 29109  1  0  0  0
 33 34  1  0  0  0
 33 66  1  0  0  0
 33 70  2  0  0  0
 34 36  1  0  0  0
 34 59  1  0  0  0
 34110  1  0  0  0
 35 44  2  0  0  0
 35 45  1  0  0  0
 35 68  1  0  0  0
 36 56  1  0  0  0
 36111  1  0  0  0
 37 39  1  0  0  0
 37 47  1  0  0  0
 37 66  1  0  0  0
 37112  1  0  0  0
 38 43  2  0  0  0
 38 46  1  0  0  0
 38 47  1  0  0  0
 39 64  1  0  0  0
 39 67  2  0  0  0
 40 52  1  0  0  0
 40 53  2  0  0  0
 40 58  1  0  0  0
 41113  1  0  0  0
 41114  1  0  0  0
 41115  1  0  0  0
 41 48  1  0  0  0
 42 43  1  0  0  0
 42 66  1  0  0  0
 42116  1  0  0  0
 42117  1  0  0  0
 43 44  1  0  0  0
 44118  1  0  0  0
 45 46  2  0  0  0
 45119  1  0  0  0
 46120  1  0  0  0
 47121  1  0  0  0
 47122  1  0  0  0
 48 56  1  0  0  0
 48 65  1  0  0  0
 48123  1  0  0  0
 49 50  1  0  0  0
 49 53  1  0  0  0
 49 64  1  0  0  0
 49124  1  0  0  0
 50 51  1  0  0  0
 50125  1  0  0  0
 50126  1  0  0  0
 51 52  1  0  0  0
 51127  1  0  0  0
 51128  1  0  0  0
 52129  1  0  0  0
 52130  1  0  0  0
 53 54  1  0  0  0
 54 55  2  0  0  0
 54131  1  0  0  0
 55 57  1  0  0  0
 55132  1  0  0  0
 56 69  2  0  0  0
 57 58  2  0  0  0
 57133  1  0  0  0
 58134  1  0  0  0
 59 60  1  0  0  0
 59 61  1  0  0  0
 59 62  1  0  0  0
 60135  1  0  0  0
 60136  1  0  0  0
 60137  1  0  0  0
 61138  1  0  0  0
 61139  1  0  0  0
 61140  1  0  0  0
 62141  1  0  0  0
 62142  1  0  0  0
 62143  1  0  0  0
 63 65  1  0  0  0
 63144  1  0  0  0
 63145  1  0  0  0
 63146  1  0  0  0
 64147  1  0  0  0
 65148  1  0  0  0
 68 85  1  0  0  0
 71 72  2  0  0  0
 71 74  1  0  0  0
 71149  1  0  0  0
 72 75  1  0  0  0
 72150  1  0  0  0
 73 75  2  0  0  0
 73 76  1  0  0  0
 73151  1  0  0  0
 74 76  2  0  0  0
 74 84  1  0  0  0
 75 87  1  0  0  0
 76 89  1  0  0  0
 77 78  1  0  0  0
 77 79  1  0  0  0
 77152  1  0  0  0
 77153  1  0  0  0
 78 80  1  0  0  0
 78154  1  0  0  0
 78155  1  0  0  0
 79 81  1  0  0  0
 79156  1  0  0  0
 79157  1  0  0  0
 80 88  1  0  0  0
 80158  1  0  0  0
 80159  1  0  0  0
 81 85  1  0  0  0
 81 88  1  0  0  0
 81160  1  0  0  0
 82 86  1  0  0  0
 82161  1  0  0  0
 82162  1  0  0  0
 82163  1  0  0  0
 83 89  1  0  0  0
 83164  1  0  0  0
 83165  1  0  0  0
 83166  1  0  0  0
 84167  1  0  0  0
 84168  1  0  0  0
 84 88  1  0  0  0
 85169  1  0  0  0
 85170  1  0  0  0
 86 87  1  0  0  0
 86171  1  0  0  0
 86172  1  0  0  0
 88173  1  0  0  0
M  CHG  1  88   1
M  ISO  4   1 100  68 101  85 101  87 100
M  END
> <chiral flag>
0

> <version>
0

> <s_m_source_file>
/data/baiqing/PycharmProjects/Reinvent-master-3.2/result/LINK_invent/BTK/process_docking_weight1_custom_product_contain_oxygen_bond_distance_aromatic_linkinvent_7_9_3/rearranged_h_0100.sdf

> <i_m_source_file_index>
34

> <r_mmod_Potential_Energy-OPLS-2005>
300.892883300781

> <r_mmod_Stretch_Energy-OPLS-2005>
101.987754821777

> <r_mmod_Bend_Energy-OPLS-2005>
168.71516418457

> <r_mmod_Torsional_Energy-OPLS-2005>
376.465362548828

> <r_mmod_Improper_Torsional_Energy-OPLS-2005>
3.57298755645752

> <r_mmod_Van_der_Waal_Energy-OPLS-2005>
164.062225341797

> <r_mmod_Electrostatic_Energy-OPLS-2005>
-171.929092407227

> <r_mmod_Solvation_Energy-OPLS-2005>
-384.441192626953

> <b_mmod_Minimization_Converged-OPLS-2005>
0

> <r_mmod_RMS_Derivative-OPLS-2005>
2.76729083061218

$$$$
34
                    3D
 Structure written by MMmdl.
162170  0  0  1  0            999 V2000
  -30.7005  -14.6542   20.4640 C   0  0  0  0  0  0
  -30.4072  -12.3998   19.4662 C   0  0  0  0  0  0
  -29.4955  -12.4931   18.2271 C   0  0  0  0  0  0
  -28.0222  -12.3368   18.6436 C   0  0  0  0  0  0
  -27.6403  -13.2360   19.8509 C   0  0  2  0  0  0
  -28.6881  -13.1714   20.9849 C   0  0  0  0  0  0
  -25.2487  -13.8210   20.5679 C   0  0  0  0  0  0
  -24.1795  -13.0449   20.9221 C   0  0  0  0  0  0
  -24.6397  -11.6930   20.8768 C   0  0  0  0  0  0
  -23.9075  -10.4301   21.0417 C   0  0  0  0  0  0
  -24.3625   -9.4212   21.9192 C   0  0  0  0  0  0
  -23.6299   -8.2246   22.0757 C   0  0  0  0  0  0
  -22.4282   -8.0287   21.3546 C   0  0  0  0  0  0
  -21.9923   -9.0261   20.4646 C   0  0  0  0  0  0
  -22.7252  -10.2140   20.3061 C   0  0  0  0  0  0
  -21.6854   -6.0738   22.5278 C   0  0  0  0  0  0
  -21.4015   -6.5640   23.8211 C   0  0  0  0  0  0
  -21.3660   -5.6794   24.9173 C   0  0  0  0  0  0
  -21.6045   -4.3056   24.7224 C   0  0  0  0  0  0
  -21.8819   -3.8149   23.4344 C   0  0  0  0  0  0
  -21.9194   -4.6966   22.3401 C   0  0  0  0  0  0
  -22.7816  -13.5226   21.1874 C   0  0  0  0  0  0
  -22.1663   -4.2151   21.0977 F   0  0  0  0  0  0
  -21.5629   -3.4540   25.7736 F   0  0  0  0  0  0
  -29.9954  -13.4776   20.3944 N   0  0  0  0  0  0
  -26.2933  -12.9438   20.3309 N   0  0  0  0  0  0
  -25.9332  -11.6573   20.5792 N   0  0  0  0  0  0
  -22.0463  -12.8210   22.0425 N   0  0  0  0  0  0
  -25.4128  -15.1922   20.3998 N   0  0  0  0  0  0
  -31.8944  -14.6320   20.1580 O   0  0  0  0  0  0
  -21.6643   -6.8885   21.4241 O   0  0  0  0  0  0
  -22.3497  -14.5530   20.6720 O   0  0  0  0  0  0
  -24.6261  -31.8593   23.2029 C   0  0  0  0  0  0
  -25.9109  -32.4775   23.8357 C   0  0  1  0  0  0
  -27.2149  -27.3194   20.1258 C   0  0  0  0  0  0
  -25.5925  -33.8577   24.2284 N   0  0  0  0  0  0
  -23.4200  -30.4832   21.5450 C   0  0  2  0  0  0
  -24.8669  -28.9391   20.1095 C   0  0  0  0  0  0
  -22.7470  -29.4624   22.4935 C   0  0  0  0  0  0
  -18.0283  -28.1388   22.8490 C   0  0  0  0  0  0
  -24.1487  -36.7293   23.2641 C   0  0  0  0  0  0
  -25.9607  -30.7910   21.3739 C   0  0  0  0  0  0
  -26.0358  -29.4189   20.7162 C   0  0  0  0  0  0
  -27.2181  -28.6204   20.7137 C   0  0  0  0  0  0
  -26.0324  -26.8945   19.4858 C   0  0  0  0  0  0
  -24.8668  -27.6825   19.4836 C   0  0  0  0  0  0
  -23.6343  -29.8186   20.1600 C   0  0  0  0  0  0
  -25.4113  -36.3083   24.0329 C   0  0  1  0  0  0
  -20.5881  -28.3692   23.1283 C   0  0  2  0  0  0
  -20.6773  -26.9414   22.5411 C   0  0  0  0  0  0
  -19.5748  -26.6387   21.5213 C   0  0  0  0  0  0
  -18.1924  -26.7934   22.1621 C   0  0  0  0  0  0
  -19.1534  -28.8858   23.2882 C   0  0  0  0  0  0
  -18.9459  -30.1460   23.8898 C   0  0  0  0  0  0
  -17.6460  -30.6591   24.0566 C   0  0  0  0  0  0
  -25.9048  -34.9451   23.5107 C   0  0  0  0  0  0
  -16.5351  -29.9088   23.6334 C   0  0  0  0  0  0
  -16.7271  -28.6506   23.0357 C   0  0  0  0  0  0
  -26.4496  -31.6588   25.0729 C   0  0  0  0  0  0
  -25.3734  -31.3721   26.1459 C   0  0  0  0  0  0
  -27.0348  -30.3013   24.6190 C   0  0  0  0  0  0
  -27.6054  -32.4331   25.7498 C   0  0  0  0  0  0
  -27.5579  -37.1800   24.8464 C   0  0  0  0  0  0
  -21.4183  -29.3045   22.3675 N   0  0  0  0  0  0
  -26.4292  -37.3776   23.9410 N   0  0  0  0  0  0
  -24.6876  -31.0611   22.0976 N   0  0  0  0  0  0
  -23.4193  -28.8161   23.3013 O   0  0  0  0  0  0
  -28.2969  -26.4335   20.1668 O   0  0  0  0  0  0
  -26.5613  -34.8915   22.4670 O   0  0  0  0  0  0
  -23.5425  -32.1391   23.7358 O   0  0  0  0  0  0
  -30.0595  -19.4098   19.6696 C   0  0  0  0  0  0
  -29.6265  -20.7613   19.7169 C   0  0  0  0  0  0
  -29.7662  -18.4428   20.6735 C   0  0  0  0  0  0
  -28.9377  -18.9001   21.7593 C   0  0  0  0  0  0
  -28.4427  -20.2687   21.7634 C   0  0  0  0  0  0
  -28.8287  -21.2413   20.7786 C   0  0  0  0  0  0
  -30.5722  -17.1183   20.6085 C   0  0  0  0  0  0
  -28.6867  -23.8232   20.2679 C   0  0  0  0  0  0
  -27.4883  -20.7310   22.8691 C   0  0  0  0  0  0
  -29.8216  -17.3831   23.6998 C   0  0  0  0  0  0
  -27.5152  -16.9514   22.6337 C   0  0  0  0  0  0
  -28.0220  -25.1410   20.8456 C   0  0  0  0  0  0
  -28.6070  -17.9810   22.9626 C   0  0  0  0  0  0
  -28.4028  -22.6438   20.9164 N   0  0  0  0  0  0
  -30.0245  -15.8481   20.6530 N   0  0  0  0  0  0
  -31.7890  -17.2999   20.4832 O   0  0  0  0  0  0
  -29.4185  -23.8866   19.2764 O   0  0  0  0  0  0
  -31.4527  -12.4688   19.1622 H   0  0  0  0  0  0
  -30.3053  -11.4255   19.9472 H   0  0  0  0  0  0
  -29.7620  -11.7234   17.5015 H   0  0  0  0  0  0
  -29.6408  -13.4516   17.7263 H   0  0  0  0  0  0
  -27.8672  -11.2882   18.9006 H   0  0  0  0  0  0
  -27.3657  -12.5414   17.7971 H   0  0  0  0  0  0
  -27.6366  -14.2585   19.4733 H   0  0  0  0  0  0
  -28.7022  -12.1823   21.4452 H   0  0  0  0  0  0
  -28.4426  -13.8756   21.7809 H   0  0  0  0  0  0
  -25.2766   -9.5686   22.4772 H   0  0  0  0  0  0
  -24.0006   -7.4636   22.7475 H   0  0  0  0  0  0
  -21.0858   -8.8783   19.8944 H   0  0  0  0  0  0
  -22.3715  -10.9683   19.6174 H   0  0  0  0  0  0
  -21.2007   -7.6148   23.9715 H   0  0  0  0  0  0
  -21.1482   -6.0522   25.9075 H   0  0  0  0  0  0
  -22.0596   -2.7611   23.2844 H   0  0  0  0  0  0
  -22.4093  -11.9874   22.4805 H   0  0  0  0  0  0
  -21.1077  -13.1221   22.2627 H   0  0  0  0  0  0
  -24.6376  -15.8377   20.5009 H   0  0  0  0  0  0
  -26.2450  -15.6311   20.0303 H   0  0  0  0  0  0
  -26.7177  -32.5443   23.1106 H   0  0  0  0  0  0
  -25.0083  -33.9725   25.0436 H   0  0  0  0  0  0
  -22.7139  -31.3038   21.4019 H   0  0  0  0  0  0
  -23.3750  -35.9623   23.3300 H   0  0  0  0  0  0
  -24.3580  -36.8919   22.2057 H   0  0  0  0  0  0
  -23.7238  -37.6493   23.6665 H   0  0  0  0  0  0
  -26.0917  -31.5544   20.6058 H   0  0  0  0  0  0
  -26.8412  -30.8395   22.0031 H   0  0  0  0  0  0
  -28.1142  -28.9790   21.2003 H   0  0  0  0  0  0
  -26.0004  -25.9271   19.0041 H   0  0  0  0  0  0
  -23.9719  -27.3102   19.0038 H   0  0  0  0  0  0
  -23.7514  -30.5950   19.4032 H   0  0  0  0  0  0
  -22.7545  -29.2470   19.8587 H   0  0  0  0  0  0
  -25.1292  -36.1936   25.0823 H   0  0  0  0  0  0
  -20.9975  -28.3272   24.1403 H   0  0  0  0  0  0
  -20.5676  -26.2301   23.3612 H   0  0  0  0  0  0
  -21.6642  -26.7445   22.1204 H   0  0  0  0  0  0
  -19.6909  -25.6298   21.1246 H   0  0  0  0  0  0
  -19.6688  -27.3195   20.6742 H   0  0  0  0  0  0
  -17.4196  -26.6688   21.4019 H   0  0  0  0  0  0
  -18.0321  -26.0073   22.9015 H   0  0  0  0  0  0
  -19.7933  -30.7279   24.2268 H   0  0  0  0  0  0
  -17.5012  -31.6271   24.5167 H   0  0  0  0  0  0
  -15.5351  -30.2990   23.7661 H   0  0  0  0  0  0
  -15.8670  -28.0826   22.7075 H   0  0  0  0  0  0
  -24.5918  -30.7057   25.7795 H   0  0  0  0  0  0
  -24.8913  -32.2882   26.4882 H   0  0  0  0  0  0
  -25.8067  -30.8911   27.0236 H   0  0  0  0  0  0
  -26.2928  -29.6756   24.1221 H   0  0  0  0  0  0
  -27.4051  -29.7281   25.4700 H   0  0  0  0  0  0
  -27.8789  -30.4303   23.9412 H   0  0  0  0  0  0
  -27.2666  -33.3638   26.2060 H   0  0  0  0  0  0
  -28.3868  -32.6882   25.0328 H   0  0  0  0  0  0
  -28.0714  -31.8467   26.5427 H   0  0  0  0  0  0
  -28.2593  -38.0101   24.7517 H   0  0  0  0  0  0
  -28.1080  -36.2633   24.6283 H   0  0  0  0  0  0
  -27.2297  -37.1444   25.8867 H   0  0  0  0  0  0
  -20.9359  -29.8773   21.6891 H   0  0  0  0  0  0
  -26.0173  -38.2849   24.1416 H   0  0  0  0  0  0
  -30.7064  -19.1234   18.8512 H   0  0  0  0  0  0
  -29.9409  -21.4291   18.9278 H   0  0  0  0  0  0
  -26.7115  -19.9879   23.0501 H   0  0  0  0  0  0
  -26.9423  -21.6423   22.6339 H   0  0  0  0  0  0
  -28.0345  -20.9043   23.7970 H   0  0  0  0  0  0
  -30.5661  -18.1515   23.9117 H   0  0  0  0  0  0
  -30.3147  -16.5690   23.1775 H   0  0  0  0  0  0
  -29.5099  -16.9688   24.6594 H   0  0  0  0  0  0
  -26.5977  -17.4504   22.3200 H   0  0  0  0  0  0
  -27.2689  -16.3479   23.5077 H   0  0  0  0  0  0
  -27.7942  -16.2692   21.8372 H   0  0  0  0  0  0
  -28.3691  -25.2501   21.8734 H   0  0  0  0  0  0
  -26.9524  -24.9457   20.9282 H   0  0  0  0  0  0
  -28.1785  -18.5801   23.7596 H   0  0  0  0  0  0
  -27.7867  -22.7942   21.7024 H   0  0  0  0  0  0
  -29.0302  -15.7957   20.7865 H   0  0  0  0  0  0
  1 25  1  0  0  0
  1 30  2  0  0  0
  1 85  1  0  0  0
  2  3  1  0  0  0
  2 25  1  0  0  0
  2 88  1  0  0  0
  2 89  1  0  0  0
  3  4  1  0  0  0
  3 90  1  0  0  0
  3 91  1  0  0  0
  4  5  1  0  0  0
  4 92  1  0  0  0
  4 93  1  0  0  0
  5  6  1  0  0  0
  5 26  1  0  0  0
  5 94  1  0  0  0
  6 25  1  0  0  0
  6 95  1  0  0  0
  6 96  1  0  0  0
  7  8  2  0  0  0
  7 26  1  0  0  0
  7 29  1  0  0  0
  8  9  1  0  0  0
  8 22  1  0  0  0
  9 10  1  0  0  0
  9 27  2  0  0  0
 10 11  2  0  0  0
 10 15  1  0  0  0
 11 12  1  0  0  0
 11 97  1  0  0  0
 12 13  2  0  0  0
 12 98  1  0  0  0
 13 14  1  0  0  0
 13 31  1  0  0  0
 14 15  2  0  0  0
 14 99  1  0  0  0
 15100  1  0  0  0
 16 17  2  0  0  0
 16 21  1  0  0  0
 16 31  1  0  0  0
 17 18  1  0  0  0
 17101  1  0  0  0
 18 19  2  0  0  0
 18102  1  0  0  0
 19 20  1  0  0  0
 19 24  1  0  0  0
 20 21  2  0  0  0
 20103  1  0  0  0
 21 23  1  0  0  0
 22 28  1  0  0  0
 22 32  2  0  0  0
 26 27  1  0  0  0
 28104  1  0  0  0
 28105  1  0  0  0
 29106  1  0  0  0
 29107  1  0  0  0
 33 34  1  0  0  0
 33 66  1  0  0  0
 33 70  2  0  0  0
 34 36  1  0  0  0
 34 59  1  0  0  0
 34108  1  0  0  0
 35 44  2  0  0  0
 35 45  1  0  0  0
 35 68  1  0  0  0
 36 56  1  0  0  0
 36109  1  0  0  0
 37 39  1  0  0  0
 37 47  1  0  0  0
 37 66  1  0  0  0
 37110  1  0  0  0
 38 43  2  0  0  0
 38 46  1  0  0  0
 38 47  1  0  0  0
 39 64  1  0  0  0
 39 67  2  0  0  0
 40 52  1  0  0  0
 40 53  2  0  0  0
 40 58  1  0  0  0
 41111  1  0  0  0
 41112  1  0  0  0
 41113  1  0  0  0
 41 48  1  0  0  0
 42 43  1  0  0  0
 42 66  1  0  0  0
 42114  1  0  0  0
 42115  1  0  0  0
 43 44  1  0  0  0
 44116  1  0  0  0
 45 46  2  0  0  0
 45117  1  0  0  0
 46118  1  0  0  0
 47119  1  0  0  0
 47120  1  0  0  0
 48 56  1  0  0  0
 48 65  1  0  0  0
 48121  1  0  0  0
 49 50  1  0  0  0
 49 53  1  0  0  0
 49 64  1  0  0  0
 49122  1  0  0  0
 50 51  1  0  0  0
 50123  1  0  0  0
 50124  1  0  0  0
 51 52  1  0  0  0
 51125  1  0  0  0
 51126  1  0  0  0
 52127  1  0  0  0
 52128  1  0  0  0
 53 54  1  0  0  0
 54 55  2  0  0  0
 54129  1  0  0  0
 55 57  1  0  0  0
 55130  1  0  0  0
 56 69  2  0  0  0
 57 58  2  0  0  0
 57131  1  0  0  0
 58132  1  0  0  0
 59 60  1  0  0  0
 59 61  1  0  0  0
 59 62  1  0  0  0
 60133  1  0  0  0
 60134  1  0  0  0
 60135  1  0  0  0
 61136  1  0  0  0
 61137  1  0  0  0
 61138  1  0  0  0
 62139  1  0  0  0
 62140  1  0  0  0
 62141  1  0  0  0
 63 65  1  0  0  0
 63142  1  0  0  0
 63143  1  0  0  0
 63144  1  0  0  0
 64145  1  0  0  0
 65146  1  0  0  0
 68 82  1  0  0  0
 71 72  2  0  0  0
 71 73  1  0  0  0
 71147  1  0  0  0
 72 76  1  0  0  0
 72148  1  0  0  0
 73 74  2  0  0  0
 73 77  1  0  0  0
 74 75  1  0  0  0
 74 83  1  0  0  0
 75 76  2  0  0  0
 75 79  1  0  0  0
 76 84  1  0  0  0
 77 85  1  0  0  0
 77 86  2  0  0  0
 78 82  1  0  0  0
 78 84  1  0  0  0
 78 87  2  0  0  0
 79149  1  0  0  0
 79150  1  0  0  0
 79151  1  0  0  0
 80152  1  0  0  0
 80153  1  0  0  0
 80154  1  0  0  0
 80 83  1  0  0  0
 81 83  1  0  0  0
 81155  1  0  0  0
 81156  1  0  0  0
 81157  1  0  0  0
 82158  1  0  0  0
 82159  1  0  0  0
 83160  1  0  0  0
 84161  1  0  0  0
 85162  1  0  0  0
M  ISO  4   1 100  68 101  82 101  85 100
M  END
> <chiral flag>
0

> <version>
0

> <s_m_source_file>
/data/baiqing/PycharmProjects/Reinvent-master-3.2/result/LINK_invent/BTK/process_docking_weight1_custom_product_contain_oxygen_bond_distance_aromatic_linkinvent_7_9_3/rearranged_h_0100.sdf

> <i_m_source_file_index>
35

> <r_mmod_Potential_Energy-OPLS-2005>
48.4777374267578

> <r_mmod_Stretch_Energy-OPLS-2005>
93.6919860839844

> <r_mmod_Bend_Energy-OPLS-2005>
172.020065307617

> <r_mmod_Torsional_Energy-OPLS-2005>
257.982299804688

> <r_mmod_Improper_Torsional_Energy-OPLS-2005>
6.63363075256348

> <r_mmod_Van_der_Waal_Energy-OPLS-2005>
163.822296142578

> <r_mmod_Electrostatic_Energy-OPLS-2005>
-454.361541748047

> <r_mmod_Solvation_Energy-OPLS-2005>
-251.361358642578

> <b_mmod_Minimization_Converged-OPLS-2005>
0

> <r_mmod_RMS_Derivative-OPLS-2005>
0.529547333717346

$$$$
35
                    3D
 Structure written by MMmdl.
163172  0  0  1  0            999 V2000
  -30.6432  -14.6949   20.3175 C   0  0  0  0  0  0
  -30.4249  -12.3822   19.4399 C   0  0  0  0  0  0
  -29.4862  -12.3720   18.2127 C   0  0  0  0  0  0
  -28.0060  -12.2996   18.6374 C   0  0  0  0  0  0
  -27.6389  -13.2155   19.8379 C   0  0  2  0  0  0
  -28.7076  -13.1827   20.9501 C   0  0  0  0  0  0
  -25.2540  -13.8181   20.5755 C   0  0  0  0  0  0
  -24.1799  -13.0436   20.9205 C   0  0  0  0  0  0
  -24.6375  -11.6914   20.8778 C   0  0  0  0  0  0
  -23.9036  -10.4294   21.0432 C   0  0  0  0  0  0
  -24.3588   -9.4202   21.9195 C   0  0  0  0  0  0
  -23.6262   -8.2237   22.0749 C   0  0  0  0  0  0
  -22.4251   -8.0270   21.3541 C   0  0  0  0  0  0
  -21.9891   -9.0249   20.4651 C   0  0  0  0  0  0
  -22.7217  -10.2136   20.3071 C   0  0  0  0  0  0
  -21.6859   -6.0706   22.5264 C   0  0  0  0  0  0
  -21.4026   -6.5624   23.8192 C   0  0  0  0  0  0
  -21.3647   -5.6785   24.9162 C   0  0  0  0  0  0
  -21.6039   -4.3046   24.7225 C   0  0  0  0  0  0
  -21.8826   -3.8125   23.4353 C   0  0  0  0  0  0
  -21.9197   -4.6930   22.3405 C   0  0  0  0  0  0
  -22.7818  -13.5213   21.1853 C   0  0  0  0  0  0
  -22.1657   -4.2108   21.0977 F   0  0  0  0  0  0
  -21.5627   -3.4538   25.7745 F   0  0  0  0  0  0
  -29.9927  -13.4873   20.3159 N   0  0  0  0  0  0
  -26.2957  -12.9356   20.3362 N   0  0  0  0  0  0
  -25.9313  -11.6521   20.5844 N   0  0  0  0  0  0
  -22.0463  -12.8205   22.0421 N   0  0  0  0  0  0
  -25.4252  -15.1910   20.4255 N   0  0  0  0  0  0
  -31.8761  -14.7153   20.2990 O   0  0  0  0  0  0
  -21.6640   -6.8853   21.4227 O   0  0  0  0  0  0
  -22.3495  -14.5511   20.6690 O   0  0  0  0  0  0
  -24.6240  -31.8614   23.2025 C   0  0  0  0  0  0
  -25.9115  -32.4775   23.8332 C   0  0  1  0  0  0
  -27.2266  -27.3359   20.1324 C   0  0  0  0  0  0
  -25.5936  -33.8575   24.2267 N   0  0  0  0  0  0
  -23.4150  -30.4855   21.5442 C   0  0  2  0  0  0
  -24.8656  -28.9366   20.1109 C   0  0  0  0  0  0
  -22.7451  -29.4671   22.4953 C   0  0  0  0  0  0
  -18.0285  -28.1398   22.8491 C   0  0  0  0  0  0
  -24.1497  -36.7304   23.2636 C   0  0  0  0  0  0
  -25.9518  -30.7981   21.3703 C   0  0  0  0  0  0
  -26.0290  -29.4246   20.7187 C   0  0  0  0  0  0
  -27.2151  -28.6359   20.7189 C   0  0  0  0  0  0
  -26.0470  -26.8948   19.4972 C   0  0  0  0  0  0
  -24.8748  -27.6765   19.4889 C   0  0  0  0  0  0
  -23.6303  -29.8176   20.1586 C   0  0  0  0  0  0
  -25.4115  -36.3079   24.0328 C   0  0  1  0  0  0
  -20.5883  -28.3714   23.1301 C   0  0  2  0  0  0
  -20.6801  -26.9445   22.5422 C   0  0  0  0  0  0
  -19.5769  -26.6399   21.5233 C   0  0  0  0  0  0
  -18.1941  -26.7937   22.1644 C   0  0  0  0  0  0
  -19.1530  -28.8870   23.2896 C   0  0  0  0  0  0
  -18.9451  -30.1475   23.8897 C   0  0  0  0  0  0
  -17.6453  -30.6592   24.0570 C   0  0  0  0  0  0
  -25.9053  -34.9443   23.5093 C   0  0  0  0  0  0
  -16.5349  -29.9089   23.6339 C   0  0  0  0  0  0
  -16.7272  -28.6522   23.0331 C   0  0  0  0  0  0
  -26.4496  -31.6569   25.0687 C   0  0  0  0  0  0
  -25.3741  -31.3711   26.1423 C   0  0  0  0  0  0
  -27.0326  -30.2985   24.6131 C   0  0  0  0  0  0
  -27.6036  -32.4303   25.7474 C   0  0  0  0  0  0
  -27.5570  -37.1816   24.8458 C   0  0  0  0  0  0
  -21.4169  -29.3070   22.3693 N   0  0  0  0  0  0
  -26.4286  -37.3777   23.9402 N   0  0  0  0  0  0
  -24.6824  -31.0637   22.0966 N   0  0  0  0  0  0
  -23.4182  -28.8222   23.3044 O   0  0  0  0  0  0
  -28.3531  -26.5096   20.1518 O   0  0  0  0  0  0
  -26.5608  -34.8919   22.4649 O   0  0  0  0  0  0
  -23.5419  -32.1419   23.7383 O   0  0  0  0  0  0
  -28.6401  -19.2848   19.3908 C   0  0  0  0  0  0
  -30.5000  -19.2935   20.9041 C   0  0  0  0  0  0
  -28.6898  -17.8626   19.3357 C   0  0  0  0  0  0
  -29.5914  -20.0490   20.1038 C   0  0  0  0  0  0
  -29.7082  -17.1033   20.0119 C   0  0  0  0  0  0
  -30.5562  -17.8632   20.8711 C   0  0  0  0  0  0
  -30.8430  -21.8581   19.1187 C   0  0  0  0  0  0
  -28.7880  -22.4530   20.1943 C   0  0  0  0  0  0
  -31.0466  -23.3012   18.6400 C   0  0  0  0  0  0
  -30.4054  -24.3113   19.5852 C   0  0  0  0  0  0
  -28.9251  -23.9769   19.7474 C   0  0  2  0  0  0
  -27.6369  -17.2237   18.4458 C   0  0  0  0  0  0
  -30.3129  -15.6540   18.1688 C   0  0  0  0  0  0
  -28.1917  -25.1047   20.5932 C   0  0  0  0  0  0
  -29.7391  -21.4997   19.8478 N   0  0  0  0  0  0
  -29.9920  -15.7040   19.6169 N   0  0  0  0  0  0
  -31.7224  -21.0533   18.7910 O   0  0  0  0  0  0
  -27.7849  -22.1393   20.8481 O   0  0  0  0  0  0
  -31.5023  -17.2425   21.6133 F   0  0  0  0  0  0
  -31.4644  -12.4877   19.1261 H   0  0  0  0  0  0
  -30.3628  -11.4305   19.9656 H   0  0  0  0  0  0
  -29.7178  -11.5123   17.5818 H   0  0  0  0  0  0
  -29.6481  -13.2310   17.5730 H   0  0  0  0  0  0
  -27.8040  -11.2598   18.8923 H   0  0  0  0  0  0
  -27.3603  -12.5272   17.7875 H   0  0  0  0  0  0
  -27.6211  -14.2220   19.4359 H   0  0  0  0  0  0
  -28.7444  -12.2087   21.4395 H   0  0  0  0  0  0
  -28.4884  -13.9175   21.7260 H   0  0  0  0  0  0
  -25.2743   -9.5676   22.4758 H   0  0  0  0  0  0
  -23.9978   -7.4627   22.7465 H   0  0  0  0  0  0
  -21.0823   -8.8776   19.8943 H   0  0  0  0  0  0
  -22.3682  -10.9674   19.6174 H   0  0  0  0  0  0
  -21.2031   -7.6135   23.9689 H   0  0  0  0  0  0
  -21.1455   -6.0514   25.9058 H   0  0  0  0  0  0
  -22.0619   -2.7584   23.2876 H   0  0  0  0  0  0
  -22.4090  -11.9871   22.4813 H   0  0  0  0  0  0
  -21.1078  -13.1221   22.2601 H   0  0  0  0  0  0
  -24.6661  -15.8488   20.5664 H   0  0  0  0  0  0
  -26.3027  -15.6440   20.2086 H   0  0  0  0  0  0
  -26.7178  -32.5455   23.1079 H   0  0  0  0  0  0
  -25.0095  -33.9709   25.0418 H   0  0  0  0  0  0
  -22.7075  -31.3062   21.4034 H   0  0  0  0  0  0
  -23.3746  -35.9649   23.3298 H   0  0  0  0  0  0
  -24.3589  -36.8927   22.2048 H   0  0  0  0  0  0
  -23.7273  -37.6520   23.6655 H   0  0  0  0  0  0
  -26.0714  -31.5613   20.6007 H   0  0  0  0  0  0
  -26.8321  -30.8506   21.9980 H   0  0  0  0  0  0
  -28.1080  -29.0057   21.2023 H   0  0  0  0  0  0
  -26.0292  -25.9322   19.0048 H   0  0  0  0  0  0
  -23.9873  -27.3020   18.9997 H   0  0  0  0  0  0
  -23.7427  -30.5941   19.4007 H   0  0  0  0  0  0
  -22.7485  -29.2504   19.8580 H   0  0  0  0  0  0
  -25.1303  -36.1911   25.0822 H   0  0  0  0  0  0
  -20.9965  -28.3294   24.1428 H   0  0  0  0  0  0
  -20.5759  -26.2320   23.3626 H   0  0  0  0  0  0
  -21.6667  -26.7516   22.1189 H   0  0  0  0  0  0
  -19.6934  -25.6306   21.1268 H   0  0  0  0  0  0
  -19.6693  -27.3212   20.6763 H   0  0  0  0  0  0
  -17.4224  -26.6676   21.4036 H   0  0  0  0  0  0
  -18.0328  -26.0071   22.9035 H   0  0  0  0  0  0
  -19.7928  -30.7294   24.2261 H   0  0  0  0  0  0
  -17.5006  -31.6270   24.5181 H   0  0  0  0  0  0
  -15.5352  -30.2994   23.7657 H   0  0  0  0  0  0
  -15.8678  -28.0859   22.7020 H   0  0  0  0  0  0
  -24.5911  -30.7056   25.7764 H   0  0  0  0  0  0
  -24.8943  -32.2885   26.4845 H   0  0  0  0  0  0
  -25.8085  -30.8897   27.0196 H   0  0  0  0  0  0
  -26.2884  -29.6750   24.1162 H   0  0  0  0  0  0
  -27.4018  -29.7223   25.4626 H   0  0  0  0  0  0
  -27.8760  -30.4246   23.9339 H   0  0  0  0  0  0
  -27.2614  -33.3590   26.2061 H   0  0  0  0  0  0
  -28.3859  -32.6902   25.0324 H   0  0  0  0  0  0
  -28.0693  -31.8427   26.5402 H   0  0  0  0  0  0
  -28.2601  -38.0102   24.7491 H   0  0  0  0  0  0
  -28.1062  -36.2636   24.6303 H   0  0  0  0  0  0
  -27.2288  -37.1483   25.8863 H   0  0  0  0  0  0
  -20.9332  -29.8783   21.6905 H   0  0  0  0  0  0
  -26.0167  -38.2856   24.1390 H   0  0  0  0  0  0
  -27.9017  -19.7994   18.7902 H   0  0  0  0  0  0
  -31.2401  -19.8172   21.4915 H   0  0  0  0  0  0
  -30.6089  -23.3861   17.6439 H   0  0  0  0  0  0
  -32.1109  -23.5101   18.5266 H   0  0  0  0  0  0
  -30.5195  -25.3150   19.1777 H   0  0  0  0  0  0
  -30.9112  -24.3024   20.5545 H   0  0  0  0  0  0
  -28.4695  -24.0119   18.7545 H   0  0  0  0  0  0
  -26.6653  -17.6868   18.6271 H   0  0  0  0  0  0
  -27.5188  -16.1627   18.6229 H   0  0  0  0  0  0
  -27.8880  -17.3712   17.3954 H   0  0  0  0  0  0
  -29.4350  -15.3979   17.5789 H   0  0  0  0  0  0
  -31.0965  -14.9394   17.8977 H   0  0  0  0  0  0
  -30.6783  -16.6176   17.8081 H   0  0  0  0  0  0
  -27.1399  -24.8392   20.6950 H   0  0  0  0  0  0
  -28.5790  -25.0659   21.6128 H   0  0  0  0  0  0
  1 25  1  0  0  0
  1 30  2  0  0  0
  1 86  1  0  0  0
  2  3  1  0  0  0
  2 25  1  0  0  0
  2 90  1  0  0  0
  2 91  1  0  0  0
  3  4  1  0  0  0
  3 92  1  0  0  0
  3 93  1  0  0  0
  4  5  1  0  0  0
  4 94  1  0  0  0
  4 95  1  0  0  0
  5  6  1  0  0  0
  5 26  1  0  0  0
  5 96  1  0  0  0
  6 25  1  0  0  0
  6 97  1  0  0  0
  6 98  1  0  0  0
  7  8  2  0  0  0
  7 26  1  0  0  0
  7 29  1  0  0  0
  8  9  1  0  0  0
  8 22  1  0  0  0
  9 10  1  0  0  0
  9 27  2  0  0  0
 10 11  2  0  0  0
 10 15  1  0  0  0
 11 12  1  0  0  0
 11 99  1  0  0  0
 12 13  2  0  0  0
 12100  1  0  0  0
 13 14  1  0  0  0
 13 31  1  0  0  0
 14 15  2  0  0  0
 14101  1  0  0  0
 15102  1  0  0  0
 16 17  2  0  0  0
 16 21  1  0  0  0
 16 31  1  0  0  0
 17 18  1  0  0  0
 17103  1  0  0  0
 18 19  2  0  0  0
 18104  1  0  0  0
 19 20  1  0  0  0
 19 24  1  0  0  0
 20 21  2  0  0  0
 20105  1  0  0  0
 21 23  1  0  0  0
 22 28  1  0  0  0
 22 32  2  0  0  0
 26 27  1  0  0  0
 28106  1  0  0  0
 28107  1  0  0  0
 29108  1  0  0  0
 29109  1  0  0  0
 33 34  1  0  0  0
 33 66  1  0  0  0
 33 70  2  0  0  0
 34 36  1  0  0  0
 34 59  1  0  0  0
 34110  1  0  0  0
 35 44  2  0  0  0
 35 45  1  0  0  0
 35 68  1  0  0  0
 36 56  1  0  0  0
 36111  1  0  0  0
 37 39  1  0  0  0
 37 47  1  0  0  0
 37 66  1  0  0  0
 37112  1  0  0  0
 38 43  2  0  0  0
 38 46  1  0  0  0
 38 47  1  0  0  0
 39 64  1  0  0  0
 39 67  2  0  0  0
 40 52  1  0  0  0
 40 53  2  0  0  0
 40 58  1  0  0  0
 41113  1  0  0  0
 41114  1  0  0  0
 41115  1  0  0  0
 41 48  1  0  0  0
 42 43  1  0  0  0
 42 66  1  0  0  0
 42116  1  0  0  0
 42117  1  0  0  0
 43 44  1  0  0  0
 44118  1  0  0  0
 45 46  2  0  0  0
 45119  1  0  0  0
 46120  1  0  0  0
 47121  1  0  0  0
 47122  1  0  0  0
 48 56  1  0  0  0
 48 65  1  0  0  0
 48123  1  0  0  0
 49 50  1  0  0  0
 49 53  1  0  0  0
 49 64  1  0  0  0
 49124  1  0  0  0
 50 51  1  0  0  0
 50125  1  0  0  0
 50126  1  0  0  0
 51 52  1  0  0  0
 51127  1  0  0  0
 51128  1  0  0  0
 52129  1  0  0  0
 52130  1  0  0  0
 53 54  1  0  0  0
 54 55  2  0  0  0
 54131  1  0  0  0
 55 57  1  0  0  0
 55132  1  0  0  0
 56 69  2  0  0  0
 57 58  2  0  0  0
 57133  1  0  0  0
 58134  1  0  0  0
 59 60  1  0  0  0
 59 61  1  0  0  0
 59 62  1  0  0  0
 60135  1  0  0  0
 60136  1  0  0  0
 60137  1  0  0  0
 61138  1  0  0  0
 61139  1  0  0  0
 61140  1  0  0  0
 62141  1  0  0  0
 62142  1  0  0  0
 62143  1  0  0  0
 63 65  1  0  0  0
 63144  1  0  0  0
 63145  1  0  0  0
 63146  1  0  0  0
 64147  1  0  0  0
 65148  1  0  0  0
 68 84  1  0  0  0
 71 73  2  0  0  0
 71 74  1  0  0  0
 71149  1  0  0  0
 72 74  2  0  0  0
 72 76  1  0  0  0
 72150  1  0  0  0
 73 75  1  0  0  0
 73 82  1  0  0  0
 74 85  1  0  0  0
 75 76  2  0  0  0
 75 86  1  0  0  0
 76 89  1  0  0  0
 77 79  1  0  0  0
 77 85  1  0  0  0
 77 87  2  0  0  0
 78 81  1  0  0  0
 78 85  1  0  0  0
 78 88  2  0  0  0
 79 80  1  0  0  0
 79151  1  0  0  0
 79152  1  0  0  0
 80 81  1  0  0  0
 80153  1  0  0  0
 80154  1  0  0  0
 81 84  1  0  0  0
 81155  1  0  0  0
 82156  1  0  0  0
 82157  1  0  0  0
 82158  1  0  0  0
 83 86  1  0  0  0
 83159  1  0  0  0
 83160  1  0  0  0
 83161  1  0  0  0
 84162  1  0  0  0
 84163  1  0  0  0
M  ISO  4   1 100  68 101  84 101  86 100
M  END
> <chiral flag>
0

> <version>
0

> <s_m_source_file>
/data/baiqing/PycharmProjects/Reinvent-master-3.2/result/LINK_invent/BTK/process_docking_weight1_custom_product_contain_oxygen_bond_distance_aromatic_linkinvent_7_9_3/rearranged_h_0100.sdf

> <i_m_source_file_index>
36

> <r_mmod_Potential_Energy-OPLS-2005>
411.950103759766

> <r_mmod_Stretch_Energy-OPLS-2005>
97.6181259155273

> <r_mmod_Bend_Energy-OPLS-2005>
157.984817504883

> <r_mmod_Torsional_Energy-OPLS-2005>
395.191558837891

> <r_mmod_Improper_Torsional_Energy-OPLS-2005>
34.8293304443359

> <r_mmod_Van_der_Waal_Energy-OPLS-2005>
169.640075683594

> <r_mmod_Electrostatic_Energy-OPLS-2005>
-295.853729248047

> <r_mmod_Solvation_Energy-OPLS-2005>
-221.6376953125

> <b_mmod_Minimization_Converged-OPLS-2005>
0

> <r_mmod_RMS_Derivative-OPLS-2005>
3.25977039337158

$$$$
36
                    3D
 Structure written by MMmdl.
157165  0  0  1  0            999 V2000
  -30.5994  -14.8134   20.4606 C   0  0  0  0  0  0
  -30.4259  -12.5084   19.4632 C   0  0  0  0  0  0
  -29.5027  -12.5117   18.2267 C   0  0  0  0  0  0
  -28.0321  -12.3262   18.6471 C   0  0  0  0  0  0
  -27.6295  -13.2386   19.8369 C   0  0  2  0  0  0
  -28.6780  -13.2198   20.9665 C   0  0  0  0  0  0
  -25.2464  -13.8200   20.5690 C   0  0  0  0  0  0
  -24.1775  -13.0435   20.9219 C   0  0  0  0  0  0
  -24.6383  -11.6923   20.8746 C   0  0  0  0  0  0
  -23.9071  -10.4295   21.0408 C   0  0  0  0  0  0
  -24.3625   -9.4214   21.9185 C   0  0  0  0  0  0
  -23.6301   -8.2251   22.0755 C   0  0  0  0  0  0
  -22.4280   -8.0280   21.3554 C   0  0  0  0  0  0
  -21.9919   -9.0250   20.4649 C   0  0  0  0  0  0
  -22.7247  -10.2132   20.3056 C   0  0  0  0  0  0
  -21.6856   -6.0733   22.5277 C   0  0  0  0  0  0
  -21.4015   -6.5638   23.8208 C   0  0  0  0  0  0
  -21.3664   -5.6794   24.9172 C   0  0  0  0  0  0
  -21.6047   -4.3054   24.7227 C   0  0  0  0  0  0
  -21.8817   -3.8146   23.4346 C   0  0  0  0  0  0
  -21.9194   -4.6961   22.3402 C   0  0  0  0  0  0
  -22.7796  -13.5209   21.1871 C   0  0  0  0  0  0
  -22.1661   -4.2143   21.0980 F   0  0  0  0  0  0
  -21.5636   -3.4541   25.7742 F   0  0  0  0  0  0
  -29.9568  -13.5950   20.3566 N   0  0  0  0  0  0
  -26.2879  -12.9421   20.3238 N   0  0  0  0  0  0
  -25.9311  -11.6557   20.5740 N   0  0  0  0  0  0
  -22.0459  -12.8191   22.0428 N   0  0  0  0  0  0
  -25.4125  -15.1930   20.4102 N   0  0  0  0  0  0
  -31.8071  -14.8616   20.2065 O   0  0  0  0  0  0
  -21.6645   -6.8879   21.4243 O   0  0  0  0  0  0
  -22.3491  -14.5524   20.6724 O   0  0  0  0  0  0
  -24.6372  -31.8525   23.1933 C   0  0  0  0  0  0
  -25.9196  -32.4733   23.8283 C   0  0  1  0  0  0
  -27.2038  -27.2089   20.1354 C   0  0  0  0  0  0
  -25.5995  -33.8536   24.2228 N   0  0  0  0  0  0
  -23.4340  -30.4752   21.5373 C   0  0  2  0  0  0
  -24.8788  -28.9151   20.1061 C   0  0  0  0  0  0
  -22.7523  -29.4591   22.4872 C   0  0  0  0  0  0
  -18.0308  -28.1412   22.8502 C   0  0  0  0  0  0
  -24.1480  -36.7245   23.2633 C   0  0  0  0  0  0
  -25.9835  -30.7469   21.3823 C   0  0  0  0  0  0
  -26.0532  -29.3640   20.7267 C   0  0  0  0  0  0
  -27.2186  -28.5221   20.7325 C   0  0  0  0  0  0
  -26.0109  -26.8474   19.4726 C   0  0  0  0  0  0
  -24.8654  -27.6665   19.4667 C   0  0  0  0  0  0
  -23.6553  -29.8120   20.1524 C   0  0  0  0  0  0
  -25.4118  -36.3041   24.0309 C   0  0  1  0  0  0
  -20.5916  -28.3733   23.1261 C   0  0  2  0  0  0
  -20.6787  -26.9451   22.5406 C   0  0  0  0  0  0
  -19.5756  -26.6411   21.5217 C   0  0  0  0  0  0
  -18.1942  -26.7961   22.1633 C   0  0  0  0  0  0
  -19.1562  -28.8894   23.2879 C   0  0  0  0  0  0
  -18.9473  -30.1497   23.8909 C   0  0  0  0  0  0
  -17.6470  -30.6615   24.0580 C   0  0  0  0  0  0
  -25.9076  -34.9428   23.5056 C   0  0  0  0  0  0
  -16.5369  -29.9116   23.6341 C   0  0  0  0  0  0
  -16.7292  -28.6529   23.0372 C   0  0  0  0  0  0
  -26.4528  -31.6566   25.0686 C   0  0  0  0  0  0
  -25.3730  -31.3760   26.1401 C   0  0  0  0  0  0
  -27.0360  -30.2963   24.6197 C   0  0  0  0  0  0
  -27.6066  -32.4294   25.7499 C   0  0  0  0  0  0
  -27.5565  -37.1783   24.8477 C   0  0  0  0  0  0
  -21.4225  -29.3063   22.3621 N   0  0  0  0  0  0
  -26.4279  -37.3753   23.9418 N   0  0  0  0  0  0
  -24.7040  -31.0441   22.0939 N   0  0  0  0  0  0
  -23.4208  -28.8136   23.2983 O   0  0  0  0  0  0
  -28.2559  -26.2511   20.1570 O   0  0  0  0  0  0
  -26.5616  -34.8930   22.4607 O   0  0  0  0  0  0
  -23.5511  -32.1369   23.7200 O   0  0  0  0  0  0
  -31.2115  -17.6685   23.6649 C   0  0  0  0  0  0
  -30.8815  -16.8030   22.6175 C   0  0  0  0  0  0
  -30.2055  -19.4796   22.4333 C   0  0  0  0  0  0
  -30.8558  -19.0109   23.5800 C   0  0  0  0  0  0
  -30.1960  -17.2058   21.4339 C   0  0  0  0  0  0
  -29.8507  -18.6658   21.3208 C   0  0  0  0  0  0
  -28.7001  -23.6989   20.1287 C   0  0  0  0  0  0
  -27.9595  -24.8562   20.4002 C   0  0  0  0  0  0
  -27.8053  -22.0186   21.8693 C   0  0  0  0  0  0
  -29.3956  -20.9250   20.0920 C   0  0  0  0  0  0
  -28.3370  -22.1457   20.4325 C   0  0  2  0  0  0
  -31.1246  -19.8764   24.6362 N   0  0  0  0  0  0
  -29.8677  -16.0087   20.5986 N   0  0  0  0  0  0
  -29.1739  -19.4187   20.3038 O   0  0  0  0  0  0
  -31.4629  -12.6459   19.1533 H   0  0  0  0  0  0
  -30.3909  -11.5456   19.9755 H   0  0  0  0  0  0
  -29.7961  -11.7243   17.5315 H   0  0  0  0  0  0
  -29.6141  -13.4541   17.6871 H   0  0  0  0  0  0
  -27.8985  -11.2792   18.9224 H   0  0  0  0  0  0
  -27.3729  -12.5036   17.7967 H   0  0  0  0  0  0
  -27.6083  -14.2510   19.4350 H   0  0  0  0  0  0
  -28.7400  -12.2349   21.4316 H   0  0  0  0  0  0
  -28.4055  -13.9223   21.7561 H   0  0  0  0  0  0
  -25.2769   -9.5691   22.4763 H   0  0  0  0  0  0
  -24.0008   -7.4643   22.7474 H   0  0  0  0  0  0
  -21.0856   -8.8774   19.8951 H   0  0  0  0  0  0
  -22.3705  -10.9676   19.6167 H   0  0  0  0  0  0
  -21.2004   -7.6146   23.9711 H   0  0  0  0  0  0
  -21.1490   -6.0523   25.9076 H   0  0  0  0  0  0
  -22.0592   -2.7608   23.2848 H   0  0  0  0  0  0
  -22.4086  -11.9850   22.4809 H   0  0  0  0  0  0
  -21.1077  -13.1210   22.2645 H   0  0  0  0  0  0
  -24.6425  -15.8428   20.5247 H   0  0  0  0  0  0
  -26.2557  -15.6398   20.0751 H   0  0  0  0  0  0
  -26.7265  -32.5358   23.1024 H   0  0  0  0  0  0
  -25.0199  -33.9665   25.0410 H   0  0  0  0  0  0
  -22.7309  -31.2984   21.3914 H   0  0  0  0  0  0
  -23.3738  -35.9579   23.3299 H   0  0  0  0  0  0
  -24.3571  -36.8868   22.2049 H   0  0  0  0  0  0
  -23.7231  -37.6443   23.6658 H   0  0  0  0  0  0
  -26.1283  -31.4991   20.6060 H   0  0  0  0  0  0
  -26.8589  -30.8001   22.0177 H   0  0  0  0  0  0
  -28.1169  -28.8541   21.2353 H   0  0  0  0  0  0
  -25.9473  -25.8923   18.9693 H   0  0  0  0  0  0
  -23.9721  -27.3203   18.9668 H   0  0  0  0  0  0
  -23.7939  -30.5904   19.4001 H   0  0  0  0  0  0
  -22.7699  -29.2552   19.8393 H   0  0  0  0  0  0
  -25.1296  -36.1859   25.0793 H   0  0  0  0  0  0
  -21.0026  -28.3322   24.1382 H   0  0  0  0  0  0
  -20.5697  -26.2352   23.3620 H   0  0  0  0  0  0
  -21.6653  -26.7481   22.1202 H   0  0  0  0  0  0
  -19.6911  -25.6316   21.1268 H   0  0  0  0  0  0
  -19.6681  -27.3186   20.6717 H   0  0  0  0  0  0
  -17.4207  -26.6729   21.4034 H   0  0  0  0  0  0
  -18.0357  -26.0093   22.9017 H   0  0  0  0  0  0
  -19.7946  -30.7314   24.2276 H   0  0  0  0  0  0
  -17.5025  -31.6304   24.5174 H   0  0  0  0  0  0
  -15.5369  -30.3034   23.7650 H   0  0  0  0  0  0
  -15.8689  -28.0852   22.7096 H   0  0  0  0  0  0
  -24.5943  -30.7058   25.7740 H   0  0  0  0  0  0
  -24.8894  -32.2954   26.4718 H   0  0  0  0  0  0
  -25.8050  -30.9038   27.0229 H   0  0  0  0  0  0
  -26.2946  -29.6717   24.1206 H   0  0  0  0  0  0
  -27.4008  -29.7231   25.4721 H   0  0  0  0  0  0
  -27.8838  -30.4190   23.9451 H   0  0  0  0  0  0
  -27.2670  -33.3626   26.2005 H   0  0  0  0  0  0
  -28.3943  -32.6805   25.0379 H   0  0  0  0  0  0
  -28.0630  -31.8448   26.5493 H   0  0  0  0  0  0
  -28.2585  -38.0077   24.7520 H   0  0  0  0  0  0
  -28.1067  -36.2611   24.6306 H   0  0  0  0  0  0
  -27.2300  -37.1444   25.8889 H   0  0  0  0  0  0
  -20.9415  -29.8789   21.6835 H   0  0  0  0  0  0
  -26.0129  -38.2811   24.1441 H   0  0  0  0  0  0
  -31.7062  -17.2769   24.5428 H   0  0  0  0  0  0
  -31.1458  -15.7715   22.7970 H   0  0  0  0  0  0
  -29.9432  -20.5226   22.4550 H   0  0  0  0  0  0
  -29.6559  -23.8370   19.6448 H   0  0  0  0  0  0
  -26.9951  -24.7612   20.8814 H   0  0  0  0  0  0
  -26.9139  -22.6285   22.0194 H   0  0  0  0  0  0
  -28.5495  -22.3394   22.5977 H   0  0  0  0  0  0
  -27.5304  -20.9884   22.0986 H   0  0  0  0  0  0
  -30.3787  -21.2000   20.4720 H   0  0  0  0  0  0
  -29.5421  -20.9939   19.0135 H   0  0  0  0  0  0
  -27.4811  -21.9502   19.7831 H   0  0  0  0  0  0
  -31.2648  -19.4706   25.5571 H   0  0  0  0  0  0
  -30.6000  -20.7456   24.6805 H   0  0  0  0  0  0
  -28.8957  -15.9407   20.3397 H   0  0  0  0  0  0
  1 25  1  0  0  0
  1 30  2  0  0  0
  1 83  1  0  0  0
  2  3  1  0  0  0
  2 25  1  0  0  0
  2 85  1  0  0  0
  2 86  1  0  0  0
  3  4  1  0  0  0
  3 87  1  0  0  0
  3 88  1  0  0  0
  4  5  1  0  0  0
  4 89  1  0  0  0
  4 90  1  0  0  0
  5  6  1  0  0  0
  5 26  1  0  0  0
  5 91  1  0  0  0
  6 25  1  0  0  0
  6 92  1  0  0  0
  6 93  1  0  0  0
  7  8  2  0  0  0
  7 26  1  0  0  0
  7 29  1  0  0  0
  8  9  1  0  0  0
  8 22  1  0  0  0
  9 10  1  0  0  0
  9 27  2  0  0  0
 10 11  2  0  0  0
 10 15  1  0  0  0
 11 12  1  0  0  0
 11 94  1  0  0  0
 12 13  2  0  0  0
 12 95  1  0  0  0
 13 14  1  0  0  0
 13 31  1  0  0  0
 14 15  2  0  0  0
 14 96  1  0  0  0
 15 97  1  0  0  0
 16 17  2  0  0  0
 16 21  1  0  0  0
 16 31  1  0  0  0
 17 18  1  0  0  0
 17 98  1  0  0  0
 18 19  2  0  0  0
 18 99  1  0  0  0
 19 20  1  0  0  0
 19 24  1  0  0  0
 20 21  2  0  0  0
 20100  1  0  0  0
 21 23  1  0  0  0
 22 28  1  0  0  0
 22 32  2  0  0  0
 26 27  1  0  0  0
 28101  1  0  0  0
 28102  1  0  0  0
 29103  1  0  0  0
 29104  1  0  0  0
 33 34  1  0  0  0
 33 66  1  0  0  0
 33 70  2  0  0  0
 34 36  1  0  0  0
 34 59  1  0  0  0
 34105  1  0  0  0
 35 44  2  0  0  0
 35 45  1  0  0  0
 35 68  1  0  0  0
 36 56  1  0  0  0
 36106  1  0  0  0
 37 39  1  0  0  0
 37 47  1  0  0  0
 37 66  1  0  0  0
 37107  1  0  0  0
 38 43  2  0  0  0
 38 46  1  0  0  0
 38 47  1  0  0  0
 39 64  1  0  0  0
 39 67  2  0  0  0
 40 52  1  0  0  0
 40 53  2  0  0  0
 40 58  1  0  0  0
 41108  1  0  0  0
 41109  1  0  0  0
 41110  1  0  0  0
 41 48  1  0  0  0
 42 43  1  0  0  0
 42 66  1  0  0  0
 42111  1  0  0  0
 42112  1  0  0  0
 43 44  1  0  0  0
 44113  1  0  0  0
 45 46  2  0  0  0
 45114  1  0  0  0
 46115  1  0  0  0
 47116  1  0  0  0
 47117  1  0  0  0
 48 56  1  0  0  0
 48 65  1  0  0  0
 48118  1  0  0  0
 49 50  1  0  0  0
 49 53  1  0  0  0
 49 64  1  0  0  0
 49119  1  0  0  0
 50 51  1  0  0  0
 50120  1  0  0  0
 50121  1  0  0  0
 51 52  1  0  0  0
 51122  1  0  0  0
 51123  1  0  0  0
 52124  1  0  0  0
 52125  1  0  0  0
 53 54  1  0  0  0
 54 55  2  0  0  0
 54126  1  0  0  0
 55 57  1  0  0  0
 55127  1  0  0  0
 56 69  2  0  0  0
 57 58  2  0  0  0
 57128  1  0  0  0
 58129  1  0  0  0
 59 60  1  0  0  0
 59 61  1  0  0  0
 59 62  1  0  0  0
 60130  1  0  0  0
 60131  1  0  0  0
 60132  1  0  0  0
 61133  1  0  0  0
 61134  1  0  0  0
 61135  1  0  0  0
 62136  1  0  0  0
 62137  1  0  0  0
 62138  1  0  0  0
 63 65  1  0  0  0
 63139  1  0  0  0
 63140  1  0  0  0
 63141  1  0  0  0
 64142  1  0  0  0
 65143  1  0  0  0
 68 78  1  0  0  0
 71 72  2  0  0  0
 71 74  1  0  0  0
 71144  1  0  0  0
 72 75  1  0  0  0
 72145  1  0  0  0
 73 74  2  0  0  0
 73 76  1  0  0  0
 73146  1  0  0  0
 74 82  1  0  0  0
 75 76  2  0  0  0
 75 83  1  0  0  0
 76 84  1  0  0  0
 77 78  2  0  0  0
 77 81  1  0  0  0
 77147  1  0  0  0
 78148  1  0  0  0
 79149  1  0  0  0
 79150  1  0  0  0
 79151  1  0  0  0
 79 81  1  0  0  0
 80 81  1  0  0  0
 80 84  1  0  0  0
 80152  1  0  0  0
 80153  1  0  0  0
 81154  1  0  0  0
 82155  1  0  0  0
 82156  1  0  0  0
 83157  1  0  0  0
M  ISO  4   1 100  68 101  78 101  83 100
M  END
> <chiral flag>
0

> <version>
0

> <s_m_source_file>
/data/baiqing/PycharmProjects/Reinvent-master-3.2/result/LINK_invent/BTK/process_docking_weight1_custom_product_contain_oxygen_bond_distance_aromatic_linkinvent_7_9_3/rearranged_h_0100.sdf

> <i_m_source_file_index>
37

> <r_mmod_Potential_Energy-OPLS-2005>
332.873260498047

> <r_mmod_Stretch_Energy-OPLS-2005>
182.572891235352

> <r_mmod_Bend_Energy-OPLS-2005>
230.569274902344

> <r_mmod_Torsional_Energy-OPLS-2005>
253.034469604492

> <r_mmod_Improper_Torsional_Energy-OPLS-2005>
10.4164228439331

> <r_mmod_Van_der_Waal_Energy-OPLS-2005>
151.557540893555

> <r_mmod_Electrostatic_Energy-OPLS-2005>
-403.419311523438

> <r_mmod_Solvation_Energy-OPLS-2005>
-216.004913330078

> <b_mmod_Minimization_Converged-OPLS-2005>
0

> <r_mmod_RMS_Derivative-OPLS-2005>
2.60654520988464

$$$$
38
                    3D
 Structure written by MMmdl.
158166  0  0  1  0            999 V2000
  -30.6981  -14.4523   20.5976 C   0  0  0  0  0  0
  -30.4327  -12.3012   19.4131 C   0  0  0  0  0  0
  -29.4989  -12.5125   18.2022 C   0  0  0  0  0  0
  -28.0183  -12.3716   18.6112 C   0  0  0  0  0  0
  -27.6663  -13.2009   19.8755 C   0  0  2  0  0  0
  -28.7059  -12.9521   20.9928 C   0  0  0  0  0  0
  -25.2588  -13.8129   20.5628 C   0  0  0  0  0  0
  -24.1846  -13.0415   20.9177 C   0  0  0  0  0  0
  -24.6405  -11.6892   20.8727 C   0  0  0  0  0  0
  -23.9056  -10.4286   21.0405 C   0  0  0  0  0  0
  -24.3616   -9.4204   21.9181 C   0  0  0  0  0  0
  -23.6293   -8.2236   22.0750 C   0  0  0  0  0  0
  -22.4270   -8.0279   21.3544 C   0  0  0  0  0  0
  -21.9903   -9.0247   20.4640 C   0  0  0  0  0  0
  -22.7225  -10.2131   20.3054 C   0  0  0  0  0  0
  -21.6853   -6.0738   22.5285 C   0  0  0  0  0  0
  -21.4004   -6.5638   23.8219 C   0  0  0  0  0  0
  -21.3659   -5.6791   24.9179 C   0  0  0  0  0  0
  -21.6044   -4.3053   24.7228 C   0  0  0  0  0  0
  -21.8820   -3.8143   23.4352 C   0  0  0  0  0  0
  -21.9189   -4.6963   22.3407 C   0  0  0  0  0  0
  -22.7876  -13.5232   21.1845 C   0  0  0  0  0  0
  -22.1660   -4.2159   21.0983 F   0  0  0  0  0  0
  -21.5634   -3.4533   25.7739 F   0  0  0  0  0  0
  -30.0464  -13.2654   20.4558 N   0  0  0  0  0  0
  -26.3042  -12.9306   20.3333 N   0  0  0  0  0  0
  -25.9329  -11.6474   20.5748 N   0  0  0  0  0  0
  -22.0498  -12.8233   22.0412 N   0  0  0  0  0  0
  -25.4226  -15.1831   20.3940 N   0  0  0  0  0  0
  -31.8025  -14.6814   20.0924 O   0  0  0  0  0  0
  -21.6623   -6.8881   21.4249 O   0  0  0  0  0  0
  -22.3559  -14.5534   20.6691 O   0  0  0  0  0  0
  -24.6164  -31.8680   23.2089 C   0  0  0  0  0  0
  -25.9067  -32.4834   23.8361 C   0  0  1  0  0  0
  -27.2531  -27.4436   20.0929 C   0  0  0  0  0  0
  -25.5936  -33.8624   24.2327 N   0  0  0  0  0  0
  -23.4038  -30.4858   21.5501 C   0  0  2  0  0  0
  -24.8523  -28.9478   20.1181 C   0  0  0  0  0  0
  -22.7414  -29.4649   22.5022 C   0  0  0  0  0  0
  -18.0267  -28.1384   22.8502 C   0  0  0  0  0  0
  -24.1483  -36.7286   23.2615 C   0  0  0  0  0  0
  -25.9314  -30.8340   21.3592 C   0  0  0  0  0  0
  -26.0087  -29.4679   20.7101 C   0  0  0  0  0  0
  -27.2065  -28.7209   20.6979 C   0  0  0  0  0  0
  -26.0717  -26.9272   19.5122 C   0  0  0  0  0  0
  -24.8781  -27.6754   19.5204 C   0  0  0  0  0  0
  -23.6106  -29.8098   20.1673 C   0  0  0  0  0  0
  -25.4106  -36.3119   24.0339 C   0  0  1  0  0  0
  -20.5862  -28.3666   23.1329 C   0  0  2  0  0  0
  -20.6780  -26.9396   22.5433 C   0  0  0  0  0  0
  -19.5755  -26.6393   21.5230 C   0  0  0  0  0  0
  -18.1923  -26.7937   22.1620 C   0  0  0  0  0  0
  -19.1516  -28.8841   23.2915 C   0  0  0  0  0  0
  -18.9450  -30.1462   23.8904 C   0  0  0  0  0  0
  -17.6446  -30.6594   24.0561 C   0  0  0  0  0  0
  -25.9060  -34.9486   23.5135 C   0  0  0  0  0  0
  -16.5341  -29.9088   23.6326 C   0  0  0  0  0  0
  -16.7257  -28.6510   23.0339 C   0  0  0  0  0  0
  -26.4463  -31.6616   25.0694 C   0  0  0  0  0  0
  -25.3728  -31.3764   26.1459 C   0  0  0  0  0  0
  -27.0258  -30.3046   24.6088 C   0  0  0  0  0  0
  -27.6098  -32.4283   25.7411 C   0  0  0  0  0  0
  -27.5622  -37.1743   24.8422 C   0  0  0  0  0  0
  -21.4146  -29.3020   22.3738 N   0  0  0  0  0  0
  -26.4273  -37.3834   23.9468 N   0  0  0  0  0  0
  -24.6685  -31.0772   22.0983 N   0  0  0  0  0  0
  -23.4182  -28.8198   23.3073 O   0  0  0  0  0  0
  -28.4529  -26.7589   20.1305 O   0  0  0  0  0  0
  -26.5612  -34.8937   22.4693 O   0  0  0  0  0  0
  -23.5361  -32.1414   23.7512 O   0  0  0  0  0  0
  -28.3804  -18.5506   20.1461 C   0  0  0  0  0  0
  -28.5847  -17.2250   20.5754 C   0  0  0  0  0  0
  -30.9613  -17.6677   20.8114 C   0  0  0  0  0  0
  -29.4565  -19.4634   20.0499 C   0  0  0  0  0  0
  -29.8780  -16.7578   20.8773 C   0  0  0  0  0  0
  -30.7544  -19.0101   20.4018 C   0  0  0  0  0  0
  -29.1974  -20.8281   19.4489 C   0  0  0  0  0  0
  -31.2756  -23.6859   19.4203 C   0  0  0  0  0  0
  -28.8736  -24.3149   20.0259 C   0  0  0  0  0  0
  -31.8812  -24.2643   18.1444 C   0  0  0  0  0  0
  -28.7038  -25.6487   19.2550 C   0  0  0  0  0  0
  -29.8034  -23.2472   19.3846 C   0  0  2  0  0  0
  -30.0100  -15.3932   21.2691 N   0  0  0  0  0  0
  -29.7140  -21.9187   20.0365 N   0  0  0  0  0  0
  -28.4842  -20.9177   18.4469 O   0  0  0  0  0  0
  -31.9815  -23.5748   20.4279 O   0  0  0  0  0  0
  -28.2485  -24.1212   21.0768 O   0  0  0  0  0  0
  -31.8199  -19.8442   20.3208 F   0  0  0  0  0  0
  -31.4756  -12.4133   19.1084 H   0  0  0  0  0  0
  -30.3464  -11.2815   19.7931 H   0  0  0  0  0  0
  -29.7392  -11.7982   17.4139 H   0  0  0  0  0  0
  -29.6692  -13.5027   17.7774 H   0  0  0  0  0  0
  -27.8207  -11.3143   18.7918 H   0  0  0  0  0  0
  -27.3713  -12.6599   17.7812 H   0  0  0  0  0  0
  -27.7193  -14.2523   19.5931 H   0  0  0  0  0  0
  -28.6780  -11.9054   21.3008 H   0  0  0  0  0  0
  -28.4612  -13.5215   21.8903 H   0  0  0  0  0  0
  -25.2779   -9.5667   22.4741 H   0  0  0  0  0  0
  -24.0007   -7.4623   22.7461 H   0  0  0  0  0  0
  -21.0831   -8.8753   19.8948 H   0  0  0  0  0  0
  -22.3686  -10.9662   19.6154 H   0  0  0  0  0  0
  -21.1985   -7.6144   23.9728 H   0  0  0  0  0  0
  -21.1486   -6.0517   25.9087 H   0  0  0  0  0  0
  -22.0597   -2.7613   23.2847 H   0  0  0  0  0  0
  -22.4101  -11.9899   22.4815 H   0  0  0  0  0  0
  -21.1122  -13.1282   22.2617 H   0  0  0  0  0  0
  -24.6410  -15.8256   20.4758 H   0  0  0  0  0  0
  -26.2398  -15.6057   19.9752 H   0  0  0  0  0  0
  -26.7153  -32.5546   23.1125 H   0  0  0  0  0  0
  -25.0108  -33.9765   25.0496 H   0  0  0  0  0  0
  -22.6976  -31.3073   21.4089 H   0  0  0  0  0  0
  -23.3821  -35.9530   23.3140 H   0  0  0  0  0  0
  -24.3632  -36.9064   22.2068 H   0  0  0  0  0  0
  -23.7106  -37.6386   23.6715 H   0  0  0  0  0  0
  -26.0490  -31.5985   20.5891 H   0  0  0  0  0  0
  -26.8182  -30.8842   21.9779 H   0  0  0  0  0  0
  -28.1015  -29.1255   21.1502 H   0  0  0  0  0  0
  -26.0439  -25.9422   19.0747 H   0  0  0  0  0  0
  -23.9864  -27.2586   19.0752 H   0  0  0  0  0  0
  -23.7183  -30.5806   19.4042 H   0  0  0  0  0  0
  -22.7375  -29.2252   19.8687 H   0  0  0  0  0  0
  -25.1274  -36.1949   25.0826 H   0  0  0  0  0  0
  -20.9944  -28.3238   24.1451 H   0  0  0  0  0  0
  -20.5727  -26.2246   23.3607 H   0  0  0  0  0  0
  -21.6650  -26.7481   22.1195 H   0  0  0  0  0  0
  -19.6908  -25.6309   21.1242 H   0  0  0  0  0  0
  -19.6719  -27.3222   20.6770 H   0  0  0  0  0  0
  -17.4213  -26.6703   21.4004 H   0  0  0  0  0  0
  -18.0307  -26.0075   22.9005 H   0  0  0  0  0  0
  -19.7921  -30.7301   24.2259 H   0  0  0  0  0  0
  -17.4989  -31.6273   24.5182 H   0  0  0  0  0  0
  -15.5336  -30.2987   23.7672 H   0  0  0  0  0  0
  -15.8652  -28.0853   22.7012 H   0  0  0  0  0  0
  -24.5833  -30.7201   25.7787 H   0  0  0  0  0  0
  -24.8981  -32.2942   26.4942 H   0  0  0  0  0  0
  -25.8052  -30.8869   27.0198 H   0  0  0  0  0  0
  -26.2776  -29.6804   24.1195 H   0  0  0  0  0  0
  -27.4061  -29.7304   25.4545 H   0  0  0  0  0  0
  -27.8603  -30.4333   23.9192 H   0  0  0  0  0  0
  -27.2818  -33.3641   26.1939 H   0  0  0  0  0  0
  -28.3895  -32.6754   25.0192 H   0  0  0  0  0  0
  -28.0733  -31.8402   26.5336 H   0  0  0  0  0  0
  -28.2502  -38.0180   24.7780 H   0  0  0  0  0  0
  -28.1278  -36.2770   24.5874 H   0  0  0  0  0  0
  -27.2404  -37.0928   25.8817 H   0  0  0  0  0  0
  -20.9324  -29.8694   21.6911 H   0  0  0  0  0  0
  -26.0159  -38.2871   24.1658 H   0  0  0  0  0  0
  -27.3838  -18.8642   19.8700 H   0  0  0  0  0  0
  -27.7387  -16.5574   20.6407 H   0  0  0  0  0  0
  -31.9604  -17.3435   21.0639 H   0  0  0  0  0  0
  -31.5632  -23.7021   17.2668 H   0  0  0  0  0  0
  -32.9681  -24.2239   18.1950 H   0  0  0  0  0  0
  -31.5921  -25.3047   18.0108 H   0  0  0  0  0  0
  -27.9660  -25.5373   18.4639 H   0  0  0  0  0  0
  -29.6373  -25.8809   18.7462 H   0  0  0  0  0  0
  -29.5172  -23.1687   18.3345 H   0  0  0  0  0  0
  -29.1864  -15.0000   21.7019 H   0  0  0  0  0  0
  -30.2834  -21.7954   20.8631 H   0  0  0  0  0  0
  1 25  1  0  0  0
  1 30  2  0  0  0
  1 83  1  0  0  0
  2  3  1  0  0  0
  2 25  1  0  0  0
  2 89  1  0  0  0
  2 90  1  0  0  0
  3  4  1  0  0  0
  3 91  1  0  0  0
  3 92  1  0  0  0
  4  5  1  0  0  0
  4 93  1  0  0  0
  4 94  1  0  0  0
  5  6  1  0  0  0
  5 26  1  0  0  0
  5 95  1  0  0  0
  6 25  1  0  0  0
  6 96  1  0  0  0
  6 97  1  0  0  0
  7  8  2  0  0  0
  7 26  1  0  0  0
  7 29  1  0  0  0
  8  9  1  0  0  0
  8 22  1  0  0  0
  9 10  1  0  0  0
  9 27  2  0  0  0
 10 11  2  0  0  0
 10 15  1  0  0  0
 11 12  1  0  0  0
 11 98  1  0  0  0
 12 13  2  0  0  0
 12 99  1  0  0  0
 13 14  1  0  0  0
 13 31  1  0  0  0
 14 15  2  0  0  0
 14100  1  0  0  0
 15101  1  0  0  0
 16 17  2  0  0  0
 16 21  1  0  0  0
 16 31  1  0  0  0
 17 18  1  0  0  0
 17102  1  0  0  0
 18 19  2  0  0  0
 18103  1  0  0  0
 19 20  1  0  0  0
 19 24  1  0  0  0
 20 21  2  0  0  0
 20104  1  0  0  0
 21 23  1  0  0  0
 22 28  1  0  0  0
 22 32  2  0  0  0
 26 27  1  0  0  0
 28105  1  0  0  0
 28106  1  0  0  0
 29107  1  0  0  0
 29108  1  0  0  0
 33 34  1  0  0  0
 33 66  1  0  0  0
 33 70  2  0  0  0
 34 36  1  0  0  0
 34 59  1  0  0  0
 34109  1  0  0  0
 35 44  2  0  0  0
 35 45  1  0  0  0
 35 68  1  0  0  0
 36 56  1  0  0  0
 36110  1  0  0  0
 37 39  1  0  0  0
 37 47  1  0  0  0
 37 66  1  0  0  0
 37111  1  0  0  0
 38 43  2  0  0  0
 38 46  1  0  0  0
 38 47  1  0  0  0
 39 64  1  0  0  0
 39 67  2  0  0  0
 40 52  1  0  0  0
 40 53  2  0  0  0
 40 58  1  0  0  0
 41112  1  0  0  0
 41113  1  0  0  0
 41114  1  0  0  0
 41 48  1  0  0  0
 42 43  1  0  0  0
 42 66  1  0  0  0
 42115  1  0  0  0
 42116  1  0  0  0
 43 44  1  0  0  0
 44117  1  0  0  0
 45 46  2  0  0  0
 45118  1  0  0  0
 46119  1  0  0  0
 47120  1  0  0  0
 47121  1  0  0  0
 48 56  1  0  0  0
 48 65  1  0  0  0
 48122  1  0  0  0
 49 50  1  0  0  0
 49 53  1  0  0  0
 49 64  1  0  0  0
 49123  1  0  0  0
 50 51  1  0  0  0
 50124  1  0  0  0
 50125  1  0  0  0
 51 52  1  0  0  0
 51126  1  0  0  0
 51127  1  0  0  0
 52128  1  0  0  0
 52129  1  0  0  0
 53 54  1  0  0  0
 54 55  2  0  0  0
 54130  1  0  0  0
 55 57  1  0  0  0
 55131  1  0  0  0
 56 69  2  0  0  0
 57 58  2  0  0  0
 57132  1  0  0  0
 58133  1  0  0  0
 59 60  1  0  0  0
 59 61  1  0  0  0
 59 62  1  0  0  0
 60134  1  0  0  0
 60135  1  0  0  0
 60136  1  0  0  0
 61137  1  0  0  0
 61138  1  0  0  0
 61139  1  0  0  0
 62140  1  0  0  0
 62141  1  0  0  0
 62142  1  0  0  0
 63 65  1  0  0  0
 63143  1  0  0  0
 63144  1  0  0  0
 63145  1  0  0  0
 64146  1  0  0  0
 65147  1  0  0  0
 68 81  1  0  0  0
 71 72  2  0  0  0
 71 74  1  0  0  0
 71148  1  0  0  0
 72 75  1  0  0  0
 72149  1  0  0  0
 73 75  2  0  0  0
 73 76  1  0  0  0
 73150  1  0  0  0
 74 76  2  0  0  0
 74 77  1  0  0  0
 75 83  1  0  0  0
 76 88  1  0  0  0
 77 84  1  0  0  0
 77 85  2  0  0  0
 78 80  1  0  0  0
 78 82  1  0  0  0
 78 86  2  0  0  0
 79 81  1  0  0  0
 79 82  1  0  0  0
 79 87  2  0  0  0
 80151  1  0  0  0
 80152  1  0  0  0
 80153  1  0  0  0
 81154  1  0  0  0
 81155  1  0  0  0
 82 84  1  0  0  0
 82156  1  0  0  0
 83157  1  0  0  0
 84158  1  0  0  0
M  ISO  4   1 100  68 101  81 101  83 100
M  END
> <chiral flag>
0

> <version>
0

> <s_m_source_file>
/data/baiqing/PycharmProjects/Reinvent-master-3.2/result/LINK_invent/BTK/process_docking_weight1_custom_product_contain_oxygen_bond_distance_aromatic_linkinvent_7_9_3/rearranged_h_0100.sdf

> <i_m_source_file_index>
38

> <r_mmod_Potential_Energy-OPLS-2005>
-198.330108642578

> <r_mmod_Stretch_Energy-OPLS-2005>
40.5460243225098

> <r_mmod_Bend_Energy-OPLS-2005>
106.891525268555

> <r_mmod_Torsional_Energy-OPLS-2005>
220.320205688477

> <r_mmod_Improper_Torsional_Energy-OPLS-2005>
7.12723827362061

> <r_mmod_Van_der_Waal_Energy-OPLS-2005>
148.293365478516

> <r_mmod_Electrostatic_Energy-OPLS-2005>
-476.464416503906

> <r_mmod_Solvation_Energy-OPLS-2005>
-256.576690673828

> <b_mmod_Minimization_Converged-OPLS-2005>
0

> <r_mmod_RMS_Derivative-OPLS-2005>
3.13436579704285

$$$$
39
                    3D
 Structure written by MMmdl.
160169  0  0  1  0            999 V2000
  -30.7367  -14.4210   20.6065 C   0  0  0  0  0  0
  -30.4177  -12.2914   19.4108 C   0  0  0  0  0  0
  -29.4920  -12.5389   18.2026 C   0  0  0  0  0  0
  -28.0115  -12.4044   18.6091 C   0  0  0  0  0  0
  -27.6705  -13.2112   19.8909 C   0  0  2  0  0  0
  -28.7127  -12.9568   21.0060 C   0  0  0  0  0  0
  -25.2632  -13.8192   20.5719 C   0  0  0  0  0  0
  -24.1870  -13.0465   20.9180 C   0  0  0  0  0  0
  -24.6415  -11.6933   20.8742 C   0  0  0  0  0  0
  -23.9060  -10.4321   21.0397 C   0  0  0  0  0  0
  -24.3612   -9.4241   21.9180 C   0  0  0  0  0  0
  -23.6302   -8.2268   22.0741 C   0  0  0  0  0  0
  -22.4279   -8.0298   21.3545 C   0  0  0  0  0  0
  -21.9911   -9.0266   20.4639 C   0  0  0  0  0  0
  -22.7228  -10.2156   20.3049 C   0  0  0  0  0  0
  -21.6860   -6.0754   22.5286 C   0  0  0  0  0  0
  -21.4008   -6.5644   23.8212 C   0  0  0  0  0  0
  -21.3664   -5.6790   24.9169 C   0  0  0  0  0  0
  -21.6048   -4.3058   24.7219 C   0  0  0  0  0  0
  -21.8826   -3.8155   23.4336 C   0  0  0  0  0  0
  -21.9188   -4.6975   22.3401 C   0  0  0  0  0  0
  -22.7892  -13.5266   21.1829 C   0  0  0  0  0  0
  -22.1655   -4.2161   21.0973 F   0  0  0  0  0  0
  -21.5643   -3.4545   25.7728 F   0  0  0  0  0  0
  -30.0527  -13.2521   20.4650 N   0  0  0  0  0  0
  -26.3081  -12.9360   20.3447 N   0  0  0  0  0  0
  -25.9347  -11.6519   20.5781 N   0  0  0  0  0  0
  -22.0507  -12.8267   22.0373 N   0  0  0  0  0  0
  -25.4371  -15.1908   20.4160 N   0  0  0  0  0  0
  -31.8158  -14.6203   20.0468 O   0  0  0  0  0  0
  -21.6645   -6.8897   21.4244 O   0  0  0  0  0  0
  -22.3599  -14.5575   20.6662 O   0  0  0  0  0  0
  -24.6148  -31.8674   23.2108 C   0  0  0  0  0  0
  -25.9050  -32.4810   23.8400 C   0  0  1  0  0  0
  -27.2364  -27.4302   20.0746 C   0  0  0  0  0  0
  -25.5906  -33.8610   24.2329 N   0  0  0  0  0  0
  -23.4018  -30.4919   21.5521 C   0  0  2  0  0  0
  -24.8459  -28.9596   20.1169 C   0  0  0  0  0  0
  -22.7405  -29.4660   22.4999 C   0  0  0  0  0  0
  -18.0270  -28.1366   22.8503 C   0  0  0  0  0  0
  -24.1473  -36.7282   23.2643 C   0  0  0  0  0  0
  -25.9338  -30.8282   21.3689 C   0  0  0  0  0  0
  -26.0075  -29.4658   20.7090 C   0  0  0  0  0  0
  -27.2004  -28.7077   20.6860 C   0  0  0  0  0  0
  -26.0400  -26.9340   19.4989 C   0  0  0  0  0  0
  -24.8563  -27.6928   19.5151 C   0  0  0  0  0  0
  -23.6097  -29.8262   20.1671 C   0  0  0  0  0  0
  -25.4097  -36.3096   24.0346 C   0  0  1  0  0  0
  -20.5858  -28.3653   23.1322 C   0  0  2  0  0  0
  -20.6749  -26.9390   22.5414 C   0  0  0  0  0  0
  -19.5732  -26.6384   21.5206 C   0  0  0  0  0  0
  -18.1915  -26.7917   22.1628 C   0  0  0  0  0  0
  -19.1521  -28.8826   23.2911 C   0  0  0  0  0  0
  -18.9448  -30.1431   23.8919 C   0  0  0  0  0  0
  -17.6451  -30.6577   24.0565 C   0  0  0  0  0  0
  -25.9037  -34.9468   23.5133 C   0  0  0  0  0  0
  -16.5340  -29.9079   23.6329 C   0  0  0  0  0  0
  -16.7260  -28.6491   23.0359 C   0  0  0  0  0  0
  -26.4484  -31.6594   25.0731 C   0  0  0  0  0  0
  -25.3755  -31.3705   26.1487 C   0  0  0  0  0  0
  -27.0320  -30.3028   24.6134 C   0  0  0  0  0  0
  -27.6068  -32.4317   25.7477 C   0  0  0  0  0  0
  -27.5573  -37.1790   24.8472 C   0  0  0  0  0  0
  -21.4133  -29.3024   22.3736 N   0  0  0  0  0  0
  -26.4279  -37.3786   23.9424 N   0  0  0  0  0  0
  -24.6679  -31.0774   22.1012 N   0  0  0  0  0  0
  -23.4181  -28.8205   23.3043 O   0  0  0  0  0  0
  -28.4391  -26.7436   20.0880 O   0  0  0  0  0  0
  -26.5591  -34.8920   22.4691 O   0  0  0  0  0  0
  -23.5342  -32.1443   23.7493 O   0  0  0  0  0  0
  -28.4221  -18.6145   20.8933 C   0  0  0  0  0  0
  -28.7108  -17.2928   21.2883 C   0  0  0  0  0  0
  -30.7112  -18.8820   20.1283 C   0  0  0  0  0  0
  -29.4083  -19.4078   20.2687 C   0  0  0  0  0  0
  -29.9853  -16.7293   21.0616 C   0  0  0  0  0  0
  -31.0097  -17.5625   20.5316 C   0  0  0  0  0  0
  -30.5249  -23.8751   20.0097 C   0  0  0  0  0  0
  -30.5689  -22.4722   20.6305 C   0  0  0  0  0  0
  -28.2904  -23.0619   20.1981 C   0  0  0  0  0  0
  -29.1046  -24.3654   20.3024 C   0  0  2  0  0  0
  -29.0312  -20.7566   19.6544 C   0  0  0  0  0  0
  -28.6197  -25.5114   19.3718 C   0  0  0  0  0  0
  -30.1387  -15.3450   21.3768 N   0  0  0  0  0  0
  -29.1910  -21.9308   20.5538 N   0  3  1  0  0  0
  -32.2834  -17.1273   20.3929 F   0  0  0  0  0  0
  -31.4623  -12.3751   19.1060 H   0  0  0  0  0  0
  -30.3001  -11.2698   19.7764 H   0  0  0  0  0  0
  -29.7270  -11.8412   17.3982 H   0  0  0  0  0  0
  -29.6733  -13.5391   17.8009 H   0  0  0  0  0  0
  -27.8037  -11.3456   18.7658 H   0  0  0  0  0  0
  -27.3653  -12.7221   17.7897 H   0  0  0  0  0  0
  -27.7264  -14.2685   19.6277 H   0  0  0  0  0  0
  -28.6757  -11.9132   21.3251 H   0  0  0  0  0  0
  -28.4734  -13.5361   21.8985 H   0  0  0  0  0  0
  -25.2750   -9.5732   22.4769 H   0  0  0  0  0  0
  -24.0026   -7.4660   22.7446 H   0  0  0  0  0  0
  -21.0849   -8.8775   19.8944 H   0  0  0  0  0  0
  -22.3670  -10.9701   19.6168 H   0  0  0  0  0  0
  -21.1993   -7.6146   23.9728 H   0  0  0  0  0  0
  -21.1478   -6.0512   25.9079 H   0  0  0  0  0  0
  -22.0599   -2.7621   23.2822 H   0  0  0  0  0  0
  -22.4074  -11.9897   22.4742 H   0  0  0  0  0  0
  -21.1121  -13.1304   22.2557 H   0  0  0  0  0  0
  -24.6682  -15.8449   20.5125 H   0  0  0  0  0  0
  -26.2952  -15.6314   20.1095 H   0  0  0  0  0  0
  -26.7106  -32.5513   23.1150 H   0  0  0  0  0  0
  -25.0065  -33.9768   25.0480 H   0  0  0  0  0  0
  -22.6917  -31.3093   21.4123 H   0  0  0  0  0  0
  -23.3746  -35.9605   23.3324 H   0  0  0  0  0  0
  -24.3567  -36.8871   22.2051 H   0  0  0  0  0  0
  -23.7211  -37.6489   23.6640 H   0  0  0  0  0  0
  -26.0583  -31.6016   20.6094 H   0  0  0  0  0  0
  -26.8165  -30.8680   21.9958 H   0  0  0  0  0  0
  -28.1008  -29.1035   21.1349 H   0  0  0  0  0  0
  -25.9637  -25.9659   19.0345 H   0  0  0  0  0  0
  -23.9576  -27.2921   19.0665 H   0  0  0  0  0  0
  -23.7171  -30.5992   19.4054 H   0  0  0  0  0  0
  -22.7353  -29.2428   19.8737 H   0  0  0  0  0  0
  -25.1271  -36.1953   25.0837 H   0  0  0  0  0  0
  -20.9949  -28.3193   24.1444 H   0  0  0  0  0  0
  -20.5626  -26.2258   23.3593 H   0  0  0  0  0  0
  -21.6623  -26.7417   22.1217 H   0  0  0  0  0  0
  -19.6886  -25.6301   21.1217 H   0  0  0  0  0  0
  -19.6668  -27.3209   20.6742 H   0  0  0  0  0  0
  -17.4181  -26.6670   21.4029 H   0  0  0  0  0  0
  -18.0324  -26.0043   22.9009 H   0  0  0  0  0  0
  -19.7927  -30.7236   24.2299 H   0  0  0  0  0  0
  -17.5010  -31.6264   24.5160 H   0  0  0  0  0  0
  -15.5340  -30.2986   23.7638 H   0  0  0  0  0  0
  -15.8662  -28.0805   22.7075 H   0  0  0  0  0  0
  -24.5909  -30.7074   25.7824 H   0  0  0  0  0  0
  -24.8973  -32.2860   26.4970 H   0  0  0  0  0  0
  -25.8109  -30.8842   27.0224 H   0  0  0  0  0  0
  -26.2864  -29.6770   24.1209 H   0  0  0  0  0  0
  -27.4099  -29.7288   25.4606 H   0  0  0  0  0  0
  -27.8702  -30.4337   23.9286 H   0  0  0  0  0  0
  -27.2698  -33.3610   26.2082 H   0  0  0  0  0  0
  -28.3852  -32.6885   25.0281 H   0  0  0  0  0  0
  -28.0768  -31.8428   26.5364 H   0  0  0  0  0  0
  -28.2599  -38.0079   24.7526 H   0  0  0  0  0  0
  -28.1057  -36.2616   24.6286 H   0  0  0  0  0  0
  -27.2301  -37.1425   25.8878 H   0  0  0  0  0  0
  -20.9286  -29.8761   21.6977 H   0  0  0  0  0  0
  -26.0166  -38.2859   24.1454 H   0  0  0  0  0  0
  -27.4174  -18.9920   21.0311 H   0  0  0  0  0  0
  -27.9236  -16.6990   21.7305 H   0  0  0  0  0  0
  -31.4898  -19.4730   19.6654 H   0  0  0  0  0  0
  -30.6896  -23.7979   18.9338 H   0  0  0  0  0  0
  -31.2908  -24.5387   20.4115 H   0  0  0  0  0  0
  -30.8474  -22.5468   21.6816 H   0  0  0  0  0  0
  -31.3150  -21.8384   20.1503 H   0  0  0  0  0  0
  -27.9304  -22.9400   19.1755 H   0  0  0  0  0  0
  -27.4146  -23.0779   20.8470 H   0  0  0  0  0  0
  -29.0651  -24.7001   21.3404 H   0  0  0  0  0  0
  -27.9838  -20.6757   19.3578 H   0  0  0  0  0  0
  -29.5842  -20.9127   18.7274 H   0  0  0  0  0  0
  -27.7721  -25.1781   18.7839 H   0  0  0  0  0  0
  -29.3809  -25.7117   18.6166 H   0  0  0  0  0  0
  -29.3687  -14.9541   21.8966 H   0  0  0  0  0  0
  -28.9381  -21.6252   21.4819 H   0  0  0  0  0  0
  1 25  1  0  0  0
  1 30  2  0  0  0
  1 83  1  0  0  0
  2  3  1  0  0  0
  2 25  1  0  0  0
  2 86  1  0  0  0
  2 87  1  0  0  0
  3  4  1  0  0  0
  3 88  1  0  0  0
  3 89  1  0  0  0
  4  5  1  0  0  0
  4 90  1  0  0  0
  4 91  1  0  0  0
  5  6  1  0  0  0
  5 26  1  0  0  0
  5 92  1  0  0  0
  6 25  1  0  0  0
  6 93  1  0  0  0
  6 94  1  0  0  0
  7  8  2  0  0  0
  7 26  1  0  0  0
  7 29  1  0  0  0
  8  9  1  0  0  0
  8 22  1  0  0  0
  9 10  1  0  0  0
  9 27  2  0  0  0
 10 11  2  0  0  0
 10 15  1  0  0  0
 11 12  1  0  0  0
 11 95  1  0  0  0
 12 13  2  0  0  0
 12 96  1  0  0  0
 13 14  1  0  0  0
 13 31  1  0  0  0
 14 15  2  0  0  0
 14 97  1  0  0  0
 15 98  1  0  0  0
 16 17  2  0  0  0
 16 21  1  0  0  0
 16 31  1  0  0  0
 17 18  1  0  0  0
 17 99  1  0  0  0
 18 19  2  0  0  0
 18100  1  0  0  0
 19 20  1  0  0  0
 19 24  1  0  0  0
 20 21  2  0  0  0
 20101  1  0  0  0
 21 23  1  0  0  0
 22 28  1  0  0  0
 22 32  2  0  0  0
 26 27  1  0  0  0
 28102  1  0  0  0
 28103  1  0  0  0
 29104  1  0  0  0
 29105  1  0  0  0
 33 34  1  0  0  0
 33 66  1  0  0  0
 33 70  2  0  0  0
 34 36  1  0  0  0
 34 59  1  0  0  0
 34106  1  0  0  0
 35 44  2  0  0  0
 35 45  1  0  0  0
 35 68  1  0  0  0
 36 56  1  0  0  0
 36107  1  0  0  0
 37 39  1  0  0  0
 37 47  1  0  0  0
 37 66  1  0  0  0
 37108  1  0  0  0
 38 43  2  0  0  0
 38 46  1  0  0  0
 38 47  1  0  0  0
 39 64  1  0  0  0
 39 67  2  0  0  0
 40 52  1  0  0  0
 40 53  2  0  0  0
 40 58  1  0  0  0
 41109  1  0  0  0
 41110  1  0  0  0
 41111  1  0  0  0
 41 48  1  0  0  0
 42 43  1  0  0  0
 42 66  1  0  0  0
 42112  1  0  0  0
 42113  1  0  0  0
 43 44  1  0  0  0
 44114  1  0  0  0
 45 46  2  0  0  0
 45115  1  0  0  0
 46116  1  0  0  0
 47117  1  0  0  0
 47118  1  0  0  0
 48 56  1  0  0  0
 48 65  1  0  0  0
 48119  1  0  0  0
 49 50  1  0  0  0
 49 53  1  0  0  0
 49 64  1  0  0  0
 49120  1  0  0  0
 50 51  1  0  0  0
 50121  1  0  0  0
 50122  1  0  0  0
 51 52  1  0  0  0
 51123  1  0  0  0
 51124  1  0  0  0
 52125  1  0  0  0
 52126  1  0  0  0
 53 54  1  0  0  0
 54 55  2  0  0  0
 54127  1  0  0  0
 55 57  1  0  0  0
 55128  1  0  0  0
 56 69  2  0  0  0
 57 58  2  0  0  0
 57129  1  0  0  0
 58130  1  0  0  0
 59 60  1  0  0  0
 59 61  1  0  0  0
 59 62  1  0  0  0
 60131  1  0  0  0
 60132  1  0  0  0
 60133  1  0  0  0
 61134  1  0  0  0
 61135  1  0  0  0
 61136  1  0  0  0
 62137  1  0  0  0
 62138  1  0  0  0
 62139  1  0  0  0
 63 65  1  0  0  0
 63140  1  0  0  0
 63141  1  0  0  0
 63142  1  0  0  0
 64143  1  0  0  0
 65144  1  0  0  0
 68 82  1  0  0  0
 71 72  2  0  0  0
 71 74  1  0  0  0
 71145  1  0  0  0
 72 75  1  0  0  0
 72146  1  0  0  0
 73 74  2  0  0  0
 73 76  1  0  0  0
 73147  1  0  0  0
 74 81  1  0  0  0
 75 76  2  0  0  0
 75 83  1  0  0  0
 76 85  1  0  0  0
 77 78  1  0  0  0
 77 80  1  0  0  0
 77148  1  0  0  0
 77149  1  0  0  0
 78 84  1  0  0  0
 78150  1  0  0  0
 78151  1  0  0  0
 79 80  1  0  0  0
 79 84  1  0  0  0
 79152  1  0  0  0
 79153  1  0  0  0
 80 82  1  0  0  0
 80154  1  0  0  0
 81155  1  0  0  0
 81156  1  0  0  0
 81 84  1  0  0  0
 82157  1  0  0  0
 82158  1  0  0  0
 83159  1  0  0  0
 84160  1  0  0  0
M  CHG  1  84   1
M  ISO  4   1 100  68 101  82 101  83 100
M  END
> <chiral flag>
0

> <version>
0

> <s_m_source_file>
/data/baiqing/PycharmProjects/Reinvent-master-3.2/result/LINK_invent/BTK/process_docking_weight1_custom_product_contain_oxygen_bond_distance_aromatic_linkinvent_7_9_3/rearranged_h_0100.sdf

> <i_m_source_file_index>
39

> <r_mmod_Potential_Energy-OPLS-2005>
-120.522636413574

> <r_mmod_Stretch_Energy-OPLS-2005>
37.4996147155762

> <r_mmod_Bend_Energy-OPLS-2005>
132.699584960938

> <r_mmod_Torsional_Energy-OPLS-2005>
289.178039550781

> <r_mmod_Improper_Torsional_Energy-OPLS-2005>
5.00827074050903

> <r_mmod_Van_der_Waal_Energy-OPLS-2005>
156.757858276367

> <r_mmod_Electrostatic_Energy-OPLS-2005>
-280.325714111328

> <r_mmod_Solvation_Energy-OPLS-2005>
-471.454071044922

> <b_mmod_Minimization_Converged-OPLS-2005>
0

> <r_mmod_RMS_Derivative-OPLS-2005>
2.22791647911072

$$$$
40
                    3D
 Structure written by MMmdl.
164173  0  0  1  0            999 V2000
  -30.6407  -14.7291   20.4153 C   0  0  0  0  0  0
  -30.4496  -12.4217   19.4789 C   0  0  0  0  0  0
  -29.5216  -12.3791   18.2437 C   0  0  0  0  0  0
  -28.0359  -12.2998   18.6538 C   0  0  0  0  0  0
  -27.6440  -13.2174   19.8444 C   0  0  2  0  0  0
  -28.6969  -13.1919   20.9713 C   0  0  0  0  0  0
  -25.2561  -13.8170   20.5690 C   0  0  0  0  0  0
  -24.1832  -13.0442   20.9204 C   0  0  0  0  0  0
  -24.6410  -11.6923   20.8789 C   0  0  0  0  0  0
  -23.9077  -10.4300   21.0408 C   0  0  0  0  0  0
  -24.3613   -9.4201   21.9169 C   0  0  0  0  0  0
  -23.6310   -8.2232   22.0732 C   0  0  0  0  0  0
  -22.4299   -8.0267   21.3517 C   0  0  0  0  0  0
  -21.9930   -9.0251   20.4631 C   0  0  0  0  0  0
  -22.7255  -10.2139   20.3042 C   0  0  0  0  0  0
  -21.6872   -6.0741   22.5276 C   0  0  0  0  0  0
  -21.4008   -6.5642   23.8206 C   0  0  0  0  0  0
  -21.3659   -5.6787   24.9165 C   0  0  0  0  0  0
  -21.6042   -4.3053   24.7212 C   0  0  0  0  0  0
  -21.8823   -3.8152   23.4334 C   0  0  0  0  0  0
  -21.9192   -4.6966   22.3397 C   0  0  0  0  0  0
  -22.7856  -13.5217   21.1881 C   0  0  0  0  0  0
  -22.1657   -4.2161   21.0978 F   0  0  0  0  0  0
  -21.5641   -3.4524   25.7712 F   0  0  0  0  0  0
  -29.9941  -13.5140   20.3661 N   0  0  0  0  0  0
  -26.2978  -12.9328   20.3305 N   0  0  0  0  0  0
  -25.9331  -11.6522   20.5833 N   0  0  0  0  0  0
  -22.0477  -12.8208   22.0424 N   0  0  0  0  0  0
  -25.4321  -15.1887   20.4107 N   0  0  0  0  0  0
  -31.8614  -14.7782   20.2388 O   0  0  0  0  0  0
  -21.6640   -6.8881   21.4236 O   0  0  0  0  0  0
  -22.3534  -14.5524   20.6740 O   0  0  0  0  0  0
  -24.6258  -31.8591   23.2022 C   0  0  0  0  0  0
  -25.9103  -32.4786   23.8360 C   0  0  1  0  0  0
  -27.2464  -27.3345   20.1302 C   0  0  0  0  0  0
  -25.5932  -33.8591   24.2298 N   0  0  0  0  0  0
  -23.4210  -30.4796   21.5427 C   0  0  2  0  0  0
  -24.8744  -28.9327   20.1154 C   0  0  0  0  0  0
  -22.7471  -29.4619   22.4934 C   0  0  0  0  0  0
  -18.0283  -28.1377   22.8469 C   0  0  0  0  0  0
  -24.1486  -36.7292   23.2636 C   0  0  0  0  0  0
  -25.9567  -30.8013   21.3635 C   0  0  0  0  0  0
  -26.0388  -29.4245   20.7151 C   0  0  0  0  0  0
  -27.2290  -28.6393   20.7068 C   0  0  0  0  0  0
  -26.0571  -26.8907   19.5054 C   0  0  0  0  0  0
  -24.8830  -27.6697   19.4996 C   0  0  0  0  0  0
  -23.6381  -29.8064   20.1609 C   0  0  0  0  0  0
  -25.4117  -36.3099   24.0331 C   0  0  1  0  0  0
  -20.5884  -28.3688   23.1275 C   0  0  2  0  0  0
  -20.6778  -26.9407   22.5402 C   0  0  0  0  0  0
  -19.5766  -26.6377   21.5189 C   0  0  0  0  0  0
  -18.1943  -26.7928   22.1591 C   0  0  0  0  0  0
  -19.1529  -28.8846   23.2884 C   0  0  0  0  0  0
  -18.9448  -30.1441   23.8905 C   0  0  0  0  0  0
  -17.6449  -30.6595   24.0547 C   0  0  0  0  0  0
  -25.9051  -34.9456   23.5109 C   0  0  0  0  0  0
  -16.5342  -29.9081   23.6320 C   0  0  0  0  0  0
  -16.7267  -28.6493   23.0351 C   0  0  0  0  0  0
  -26.4511  -31.6572   25.0694 C   0  0  0  0  0  0
  -25.3774  -31.3639   26.1426 C   0  0  0  0  0  0
  -27.0346  -30.3022   24.6062 C   0  0  0  0  0  0
  -27.6109  -32.4258   25.7467 C   0  0  0  0  0  0
  -27.5584  -37.1796   24.8469 C   0  0  0  0  0  0
  -21.4183  -29.3048   22.3681 N   0  0  0  0  0  0
  -26.4296  -37.3794   23.9419 N   0  0  0  0  0  0
  -24.6873  -31.0621   22.0961 N   0  0  0  0  0  0
  -23.4190  -28.8164   23.3047 O   0  0  0  0  0  0
  -28.3801  -26.5092   20.1961 O   0  0  0  0  0  0
  -26.5594  -34.8918   22.4658 O   0  0  0  0  0  0
  -23.5419  -32.1367   23.7352 O   0  0  0  0  0  0
  -31.2485  -19.3982   20.6252 C   0  0  0  0  0  0
  -28.9850  -19.3593   21.4311 C   0  0  0  0  0  0
  -31.2223  -17.9845   20.4485 C   0  0  0  0  0  0
  -28.9700  -17.9358   21.2868 C   0  0  0  0  0  0
  -30.1227  -20.1401   21.0917 C   0  0  0  0  0  0
  -30.0670  -17.2087   20.7394 C   0  0  0  0  0  0
  -31.1249  -22.1321   22.0790 C   0  0  0  0  0  0
  -31.3053  -23.6566   22.1992 C   0  0  0  0  0  0
  -30.0242  -24.4696   21.9723 C   0  0  0  0  0  0
  -29.1006  -22.5174   20.6858 C   0  0  0  0  0  0
  -29.3941  -24.0893   20.6308 C   0  0  1  0  0  0
  -28.3701  -16.9922   18.4080 C   0  0  0  0  0  0
  -28.1756  -25.0445   20.2472 C   0  0  0  0  0  0
  -29.5208  -16.0117   18.7266 C   0  0  0  0  0  0
  -30.1732  -21.6075   21.2519 N   0  0  0  0  0  0
  -29.8777  -15.8706   20.1615 N   0  0  0  0  0  0
  -31.8915  -21.4343   22.7511 O   0  0  0  0  0  0
  -31.4813  -12.5573   19.1538 H   0  0  0  0  0  0
  -30.4254  -11.4722   20.0133 H   0  0  0  0  0  0
  -29.7709  -11.4979   17.6525 H   0  0  0  0  0  0
  -29.7079  -13.2141   17.5717 H   0  0  0  0  0  0
  -27.8473  -11.2612   18.9325 H   0  0  0  0  0  0
  -27.3959  -12.5017   17.7923 H   0  0  0  0  0  0
  -27.6140  -14.2284   19.4538 H   0  0  0  0  0  0
  -28.7265  -12.2225   21.4674 H   0  0  0  0  0  0
  -28.4471  -13.9307   21.7366 H   0  0  0  0  0  0
  -25.2732   -9.5708   22.4763 H   0  0  0  0  0  0
  -24.0030   -7.4620   22.7443 H   0  0  0  0  0  0
  -21.0859   -8.8779   19.8935 H   0  0  0  0  0  0
  -22.3693  -10.9687   19.6179 H   0  0  0  0  0  0
  -21.1976   -7.6146   23.9728 H   0  0  0  0  0  0
  -21.1490   -6.0498   25.9082 H   0  0  0  0  0  0
  -22.0605   -2.7620   23.2812 H   0  0  0  0  0  0
  -22.4084  -11.9852   22.4798 H   0  0  0  0  0  0
  -21.1108  -13.1255   22.2621 H   0  0  0  0  0  0
  -24.6750  -15.8554   20.5156 H   0  0  0  0  0  0
  -26.3007  -15.6161   20.1172 H   0  0  0  0  0  0
  -26.7151  -32.5488   23.1111 H   0  0  0  0  0  0
  -25.0174  -33.9751   25.0497 H   0  0  0  0  0  0
  -22.7163  -31.3006   21.3947 H   0  0  0  0  0  0
  -23.3766  -35.9605   23.3293 H   0  0  0  0  0  0
  -24.3581  -36.8917   22.2055 H   0  0  0  0  0  0
  -23.7202  -37.6475   23.6653 H   0  0  0  0  0  0
  -26.0645  -31.5589   20.5862 H   0  0  0  0  0  0
  -26.8472  -30.8670   21.9776 H   0  0  0  0  0  0
  -28.1239  -29.0187   21.1797 H   0  0  0  0  0  0
  -26.0146  -25.9272   19.0199 H   0  0  0  0  0  0
  -23.9910  -27.2886   19.0216 H   0  0  0  0  0  0
  -23.7558  -30.5778   19.3992 H   0  0  0  0  0  0
  -22.7626  -29.2282   19.8612 H   0  0  0  0  0  0
  -25.1284  -36.1965   25.0822 H   0  0  0  0  0  0
  -20.9960  -28.3247   24.1401 H   0  0  0  0  0  0
  -20.5658  -26.2298   23.3603 H   0  0  0  0  0  0
  -21.6652  -26.7447   22.1199 H   0  0  0  0  0  0
  -19.6940  -25.6278   21.1248 H   0  0  0  0  0  0
  -19.6732  -27.3166   20.6707 H   0  0  0  0  0  0
  -17.4220  -26.6656   21.3994 H   0  0  0  0  0  0
  -18.0364  -26.0070   22.8992 H   0  0  0  0  0  0
  -19.7925  -30.7249   24.2293 H   0  0  0  0  0  0
  -17.5009  -31.6277   24.5137 H   0  0  0  0  0  0
  -15.5344  -30.2986   23.7669 H   0  0  0  0  0  0
  -15.8658  -28.0825   22.7061 H   0  0  0  0  0  0
  -24.6001  -30.6942   25.7726 H   0  0  0  0  0  0
  -24.8909  -32.2768   26.4881 H   0  0  0  0  0  0
  -25.8137  -30.8802   27.0178 H   0  0  0  0  0  0
  -26.2869  -29.6765   24.1187 H   0  0  0  0  0  0
  -27.4202  -29.7285   25.4498 H   0  0  0  0  0  0
  -27.8668  -30.4353   23.9152 H   0  0  0  0  0  0
  -27.2775  -33.3580   26.2048 H   0  0  0  0  0  0
  -28.3944  -32.6764   25.0297 H   0  0  0  0  0  0
  -28.0749  -31.8356   26.5382 H   0  0  0  0  0  0
  -28.2586  -38.0108   24.7540 H   0  0  0  0  0  0
  -28.1083  -36.2637   24.6262 H   0  0  0  0  0  0
  -27.2300  -37.1406   25.8869 H   0  0  0  0  0  0
  -20.9364  -29.8771   21.6881 H   0  0  0  0  0  0
  -26.0178  -38.2862   24.1443 H   0  0  0  0  0  0
  -32.1541  -19.9262   20.3609 H   0  0  0  0  0  0
  -28.1036  -19.8563   21.8090 H   0  0  0  0  0  0
  -32.0858  -17.5066   20.0066 H   0  0  0  0  0  0
  -28.0490  -17.4124   21.5014 H   0  0  0  0  0  0
  -32.0696  -23.9561   21.4797 H   0  0  0  0  0  0
  -31.7119  -23.8897   23.1850 H   0  0  0  0  0  0
  -30.2591  -25.5357   21.9981 H   0  0  0  0  0  0
  -29.3220  -24.2872   22.7883 H   0  0  0  0  0  0
  -28.8470  -22.1715   19.6816 H   0  0  0  0  0  0
  -28.2059  -22.3624   21.2912 H   0  0  0  0  0  0
  -30.1517  -24.2481   19.8596 H   0  0  0  0  0  0
  -28.0890  -16.9420   17.3553 H   0  0  0  0  0  0
  -28.6506  -18.0287   18.5985 H   0  0  0  0  0  0
  -27.4761  -16.7697   18.9884 H   0  0  0  0  0  0
  -27.3535  -24.8359   20.9339 H   0  0  0  0  0  0
  -27.8408  -24.7291   19.2599 H   0  0  0  0  0  0
  -30.4127  -16.3197   18.1767 H   0  0  0  0  0  0
  -29.2263  -15.0705   18.2913 H   0  0  0  0  0  0
  1 25  1  0  0  0
  1 30  2  0  0  0
  1 86  1  0  0  0
  2  3  1  0  0  0
  2 25  1  0  0  0
  2 88  1  0  0  0
  2 89  1  0  0  0
  3  4  1  0  0  0
  3 90  1  0  0  0
  3 91  1  0  0  0
  4  5  1  0  0  0
  4 92  1  0  0  0
  4 93  1  0  0  0
  5  6  1  0  0  0
  5 26  1  0  0  0
  5 94  1  0  0  0
  6 25  1  0  0  0
  6 95  1  0  0  0
  6 96  1  0  0  0
  7  8  2  0  0  0
  7 26  1  0  0  0
  7 29  1  0  0  0
  8  9  1  0  0  0
  8 22  1  0  0  0
  9 10  1  0  0  0
  9 27  2  0  0  0
 10 11  2  0  0  0
 10 15  1  0  0  0
 11 12  1  0  0  0
 11 97  1  0  0  0
 12 13  2  0  0  0
 12 98  1  0  0  0
 13 14  1  0  0  0
 13 31  1  0  0  0
 14 15  2  0  0  0
 14 99  1  0  0  0
 15100  1  0  0  0
 16 17  2  0  0  0
 16 21  1  0  0  0
 16 31  1  0  0  0
 17 18  1  0  0  0
 17101  1  0  0  0
 18 19  2  0  0  0
 18102  1  0  0  0
 19 20  1  0  0  0
 19 24  1  0  0  0
 20 21  2  0  0  0
 20103  1  0  0  0
 21 23  1  0  0  0
 22 28  1  0  0  0
 22 32  2  0  0  0
 26 27  1  0  0  0
 28104  1  0  0  0
 28105  1  0  0  0
 29106  1  0  0  0
 29107  1  0  0  0
 33 34  1  0  0  0
 33 66  1  0  0  0
 33 70  2  0  0  0
 34 36  1  0  0  0
 34 59  1  0  0  0
 34108  1  0  0  0
 35 44  2  0  0  0
 35 45  1  0  0  0
 35 68  1  0  0  0
 36 56  1  0  0  0
 36109  1  0  0  0
 37 39  1  0  0  0
 37 47  1  0  0  0
 37 66  1  0  0  0
 37110  1  0  0  0
 38 43  2  0  0  0
 38 46  1  0  0  0
 38 47  1  0  0  0
 39 64  1  0  0  0
 39 67  2  0  0  0
 40 52  1  0  0  0
 40 53  2  0  0  0
 40 58  1  0  0  0
 41111  1  0  0  0
 41112  1  0  0  0
 41113  1  0  0  0
 41 48  1  0  0  0
 42 43  1  0  0  0
 42 66  1  0  0  0
 42114  1  0  0  0
 42115  1  0  0  0
 43 44  1  0  0  0
 44116  1  0  0  0
 45 46  2  0  0  0
 45117  1  0  0  0
 46118  1  0  0  0
 47119  1  0  0  0
 47120  1  0  0  0
 48 56  1  0  0  0
 48 65  1  0  0  0
 48121  1  0  0  0
 49 50  1  0  0  0
 49 53  1  0  0  0
 49 64  1  0  0  0
 49122  1  0  0  0
 50 51  1  0  0  0
 50123  1  0  0  0
 50124  1  0  0  0
 51 52  1  0  0  0
 51125  1  0  0  0
 51126  1  0  0  0
 52127  1  0  0  0
 52128  1  0  0  0
 53 54  1  0  0  0
 54 55  2  0  0  0
 54129  1  0  0  0
 55 57  1  0  0  0
 55130  1  0  0  0
 56 69  2  0  0  0
 57 58  2  0  0  0
 57131  1  0  0  0
 58132  1  0  0  0
 59 60  1  0  0  0
 59 61  1  0  0  0
 59 62  1  0  0  0
 60133  1  0  0  0
 60134  1  0  0  0
 60135  1  0  0  0
 61136  1  0  0  0
 61137  1  0  0  0
 61138  1  0  0  0
 62139  1  0  0  0
 62140  1  0  0  0
 62141  1  0  0  0
 63 65  1  0  0  0
 63142  1  0  0  0
 63143  1  0  0  0
 63144  1  0  0  0
 64145  1  0  0  0
 65146  1  0  0  0
 68 83  1  0  0  0
 71 73  2  0  0  0
 71 75  1  0  0  0
 71147  1  0  0  0
 72 74  1  0  0  0
 72 75  2  0  0  0
 72148  1  0  0  0
 73 76  1  0  0  0
 73149  1  0  0  0
 74 76  2  0  0  0
 74150  1  0  0  0
 75 85  1  0  0  0
 76 86  1  0  0  0
 77 78  1  0  0  0
 77 85  1  0  0  0
 77 87  2  0  0  0
 78 79  1  0  0  0
 78151  1  0  0  0
 78152  1  0  0  0
 79 81  1  0  0  0
 79153  1  0  0  0
 79154  1  0  0  0
 80 81  1  0  0  0
 80 85  1  0  0  0
 80155  1  0  0  0
 80156  1  0  0  0
 81 83  1  0  0  0
 81157  1  0  0  0
 82 84  1  0  0  0
 82158  1  0  0  0
 82159  1  0  0  0
 82160  1  0  0  0
 83161  1  0  0  0
 83162  1  0  0  0
 84 86  1  0  0  0
 84163  1  0  0  0
 84164  1  0  0  0
M  ISO  4   1 100  68 101  83 101  86 100
M  END
> <chiral flag>
0

> <version>
0

> <s_m_source_file>
/data/baiqing/PycharmProjects/Reinvent-master-3.2/result/LINK_invent/BTK/process_docking_weight1_custom_product_contain_oxygen_bond_distance_aromatic_linkinvent_7_9_3/rearranged_h_0100.sdf

> <i_m_source_file_index>
40

> <r_mmod_Potential_Energy-OPLS-2005>
445.068511962891

> <r_mmod_Stretch_Energy-OPLS-2005>
96.3405609130859

> <r_mmod_Bend_Energy-OPLS-2005>
151.986450195312

> <r_mmod_Torsional_Energy-OPLS-2005>
401.349151611328

> <r_mmod_Improper_Torsional_Energy-OPLS-2005>
22.5196437835693

> <r_mmod_Van_der_Waal_Energy-OPLS-2005>
155.307586669922

> <r_mmod_Electrostatic_Energy-OPLS-2005>
-250.514770507812

> <r_mmod_Solvation_Energy-OPLS-2005>
-204.730392456055

> <b_mmod_Minimization_Converged-OPLS-2005>
0

> <r_mmod_RMS_Derivative-OPLS-2005>
4.06729650497437

$$$$
41
                    3D
 Structure written by MMmdl.
162170  0  0  1  0            999 V2000
  -30.7794  -14.3135   20.7556 C   0  0  0  0  0  0
  -30.4207  -12.2922   19.3843 C   0  0  0  0  0  0
  -29.4841  -12.5373   18.1876 C   0  0  0  0  0  0
  -28.0104  -12.3818   18.6049 C   0  0  0  0  0  0
  -27.6671  -13.1954   19.8782 C   0  0  2  0  0  0
  -28.6971  -12.9214   20.9925 C   0  0  0  0  0  0
  -25.2593  -13.8130   20.5597 C   0  0  0  0  0  0
  -24.1821  -13.0455   20.9127 C   0  0  0  0  0  0
  -24.6366  -11.6905   20.8710 C   0  0  0  0  0  0
  -23.9025  -10.4296   21.0397 C   0  0  0  0  0  0
  -24.3577   -9.4222   21.9195 C   0  0  0  0  0  0
  -23.6259   -8.2253   22.0763 C   0  0  0  0  0  0
  -22.4246   -8.0283   21.3544 C   0  0  0  0  0  0
  -21.9881   -9.0253   20.4650 C   0  0  0  0  0  0
  -22.7194  -10.2136   20.3061 C   0  0  0  0  0  0
  -21.6868   -6.0712   22.5266 C   0  0  0  0  0  0
  -21.4012   -6.5619   23.8190 C   0  0  0  0  0  0
  -21.3656   -5.6779   24.9161 C   0  0  0  0  0  0
  -21.6056   -4.3045   24.7220 C   0  0  0  0  0  0
  -21.8811   -3.8118   23.4348 C   0  0  0  0  0  0
  -21.9195   -4.6936   22.3396 C   0  0  0  0  0  0
  -22.7849  -13.5286   21.1808 C   0  0  0  0  0  0
  -22.1661   -4.2118   21.0979 F   0  0  0  0  0  0
  -21.5643   -3.4531   25.7735 F   0  0  0  0  0  0
  -30.0511  -13.2067   20.4721 N   0  0  0  0  0  0
  -26.3030  -12.9294   20.3311 N   0  0  0  0  0  0
  -25.9292  -11.6469   20.5736 N   0  0  0  0  0  0
  -22.0485  -12.8273   22.0368 N   0  0  0  0  0  0
  -25.4355  -15.1839   20.3903 N   0  0  0  0  0  0
  -31.7350  -14.7016   20.0727 O   0  0  0  0  0  0
  -21.6646   -6.8859   21.4225 O   0  0  0  0  0  0
  -22.3527  -14.5606   20.6683 O   0  0  0  0  0  0
  -24.6142  -31.8722   23.2111 C   0  0  0  0  0  0
  -25.9050  -32.4840   23.8388 C   0  0  1  0  0  0
  -27.2352  -27.4739   20.0905 C   0  0  0  0  0  0
  -25.5915  -33.8624   24.2349 N   0  0  0  0  0  0
  -23.3992  -30.4959   21.5511 C   0  0  2  0  0  0
  -24.8432  -28.9644   20.1154 C   0  0  0  0  0  0
  -22.7396  -29.4682   22.4999 C   0  0  0  0  0  0
  -18.0277  -28.1355   22.8475 C   0  0  0  0  0  0
  -24.1478  -36.7303   23.2622 C   0  0  0  0  0  0
  -25.9200  -30.8519   21.3509 C   0  0  0  0  0  0
  -26.0018  -29.4877   20.7008 C   0  0  0  0  0  0
  -27.2079  -28.7520   20.6795 C   0  0  0  0  0  0
  -26.0598  -26.9547   19.5075 C   0  0  0  0  0  0
  -24.8630  -27.6935   19.5152 C   0  0  0  0  0  0
  -23.6028  -29.8246   20.1663 C   0  0  0  0  0  0
  -25.4093  -36.3105   24.0335 C   0  0  1  0  0  0
  -20.5857  -28.3672   23.1330 C   0  0  2  0  0  0
  -20.6779  -26.9384   22.5531 C   0  0  0  0  0  0
  -19.5800  -26.6289   21.5318 C   0  0  0  0  0  0
  -18.1959  -26.7882   22.1676 C   0  0  0  0  0  0
  -19.1521  -28.8848   23.2884 C   0  0  0  0  0  0
  -18.9427  -30.1457   23.8875 C   0  0  0  0  0  0
  -17.6415  -30.6570   24.0524 C   0  0  0  0  0  0
  -25.9041  -34.9476   23.5131 C   0  0  0  0  0  0
  -16.5320  -29.9034   23.6292 C   0  0  0  0  0  0
  -16.7261  -28.6453   23.0326 C   0  0  0  0  0  0
  -26.4492  -31.6583   25.0677 C   0  0  0  0  0  0
  -25.3781  -31.3661   26.1440 C   0  0  0  0  0  0
  -27.0317  -30.3032   24.5997 C   0  0  0  0  0  0
  -27.6098  -32.4257   25.7435 C   0  0  0  0  0  0
  -27.5575  -37.1791   24.8464 C   0  0  0  0  0  0
  -21.4126  -29.3015   22.3711 N   0  0  0  0  0  0
  -26.4279  -37.3791   23.9418 N   0  0  0  0  0  0
  -24.6633  -31.0858   22.0973 N   0  0  0  0  0  0
  -23.4183  -28.8264   23.3035 O   0  0  0  0  0  0
  -28.4130  -26.7443   20.0963 O   0  0  0  0  0  0
  -26.5587  -34.8930   22.4687 O   0  0  0  0  0  0
  -23.5363  -32.1435   23.7567 O   0  0  0  0  0  0
  -30.6784  -18.5862   22.7111 C   0  0  0  0  0  0
  -28.7752  -17.2581   21.9679 C   0  0  0  0  0  0
  -30.1293  -17.3332   22.3708 C   0  0  0  0  0  0
  -29.8905  -19.7541   22.6758 C   0  0  0  0  0  0
  -27.9817  -18.4207   21.9410 C   0  0  0  0  0  0
  -28.5317  -19.6726   22.2969 C   0  0  0  0  0  0
  -30.5158  -21.0831   23.0602 C   0  0  0  0  0  0
  -31.0174  -16.1001   22.4896 C   0  0  0  0  0  0
  -27.9089  -23.9892   20.3087 C   0  0  0  0  0  0
  -27.9615  -23.0527   21.5247 C   0  0  0  0  0  0
  -28.3685  -25.4270   20.6778 C   0  0  0  0  0  0
  -27.7799  -21.5770   21.1362 C   0  0  0  0  0  0
  -26.6394  -18.3304   21.5874 N   0  0  0  0  0  0
  -30.4467  -14.8900   21.9129 N   0  0  0  0  0  0
  -27.7326  -20.7888   22.3197 O   0  0  0  0  0  0
  -31.4624  -12.4110   19.0826 H   0  0  0  0  0  0
  -30.3262  -11.2630   19.7299 H   0  0  0  0  0  0
  -29.7180  -11.8464   17.3774 H   0  0  0  0  0  0
  -29.6463  -13.5380   17.7891 H   0  0  0  0  0  0
  -27.8169  -11.3235   18.7766 H   0  0  0  0  0  0
  -27.3585  -12.6748   17.7809 H   0  0  0  0  0  0
  -27.7345  -14.2513   19.6164 H   0  0  0  0  0  0
  -28.6444  -11.8749   21.2974 H   0  0  0  0  0  0
  -28.4259  -13.4931   21.8812 H   0  0  0  0  0  0
  -25.2742   -9.5698   22.4748 H   0  0  0  0  0  0
  -23.9993   -7.4640   22.7478 H   0  0  0  0  0  0
  -21.0807   -8.8751   19.8953 H   0  0  0  0  0  0
  -22.3650  -10.9666   19.6151 H   0  0  0  0  0  0
  -21.1990   -7.6126   23.9676 H   0  0  0  0  0  0
  -21.1504   -6.0519   25.9063 H   0  0  0  0  0  0
  -22.0594   -2.7582   23.2861 H   0  0  0  0  0  0
  -22.4121  -11.9969   22.4804 H   0  0  0  0  0  0
  -21.1113  -13.1304   22.2594 H   0  0  0  0  0  0
  -24.6514  -15.8260   20.4031 H   0  0  0  0  0  0
  -26.2654  -15.5888   19.9759 H   0  0  0  0  0  0
  -26.7116  -32.5585   23.1172 H   0  0  0  0  0  0
  -25.0124  -33.9740   25.0536 H   0  0  0  0  0  0
  -22.6867  -31.3116   21.4108 H   0  0  0  0  0  0
  -23.3731  -35.9640   23.3307 H   0  0  0  0  0  0
  -24.3592  -36.8911   22.2035 H   0  0  0  0  0  0
  -23.7243  -37.6514   23.6625 H   0  0  0  0  0  0
  -26.0186  -31.6170   20.5820 H   0  0  0  0  0  0
  -26.8121  -30.9140   21.9630 H   0  0  0  0  0  0
  -28.1093  -29.1466   21.1250 H   0  0  0  0  0  0
  -26.0637  -25.9814   19.0377 H   0  0  0  0  0  0
  -23.9678  -27.2837   19.0665 H   0  0  0  0  0  0
  -23.7108  -30.5959   19.4029 H   0  0  0  0  0  0
  -22.7270  -29.2422   19.8741 H   0  0  0  0  0  0
  -25.1259  -36.1962   25.0825 H   0  0  0  0  0  0
  -20.9949  -28.3301   24.1448 H   0  0  0  0  0  0
  -20.5687  -26.2333   23.3784 H   0  0  0  0  0  0
  -21.6668  -26.7448   22.1371 H   0  0  0  0  0  0
  -19.7020  -25.6154   21.1440 H   0  0  0  0  0  0
  -19.6773  -27.3031   20.6805 H   0  0  0  0  0  0
  -17.4223  -26.6551   21.4084 H   0  0  0  0  0  0
  -18.0419  -26.0068   22.9128 H   0  0  0  0  0  0
  -19.7881  -30.7319   24.2221 H   0  0  0  0  0  0
  -17.4928  -31.6268   24.5068 H   0  0  0  0  0  0
  -15.5319  -30.2918   23.7587 H   0  0  0  0  0  0
  -15.8665  -28.0751   22.7053 H   0  0  0  0  0  0
  -24.5961  -30.6998   25.7778 H   0  0  0  0  0  0
  -24.8932  -32.2784   26.4899 H   0  0  0  0  0  0
  -25.8140  -30.8828   27.0196 H   0  0  0  0  0  0
  -26.2826  -29.6776   24.1111 H   0  0  0  0  0  0
  -27.4196  -29.7279   25.4418 H   0  0  0  0  0  0
  -27.8617  -30.4364   23.9057 H   0  0  0  0  0  0
  -27.2763  -33.3542   26.2085 H   0  0  0  0  0  0
  -28.3880  -32.6845   25.0236 H   0  0  0  0  0  0
  -28.0803  -31.8322   26.5297 H   0  0  0  0  0  0
  -28.2594  -38.0087   24.7524 H   0  0  0  0  0  0
  -28.1075  -36.2623   24.6264 H   0  0  0  0  0  0
  -27.2311  -37.1432   25.8874 H   0  0  0  0  0  0
  -20.9306  -29.8717   21.6921 H   0  0  0  0  0  0
  -26.0185  -38.2867   24.1443 H   0  0  0  0  0  0
  -31.7148  -18.6515   23.0176 H   0  0  0  0  0  0
  -28.3264  -16.3101   21.7014 H   0  0  0  0  0  0
  -31.4325  -20.9323   23.6287 H   0  0  0  0  0  0
  -29.8384  -21.6711   23.6809 H   0  0  0  0  0  0
  -30.7609  -21.6569   22.1661 H   0  0  0  0  0  0
  -31.1894  -15.9142   23.5506 H   0  0  0  0  0  0
  -31.9956  -16.3240   22.0597 H   0  0  0  0  0  0
  -26.8736  -23.9816   19.9521 H   0  0  0  0  0  0
  -28.5184  -23.5446   19.5142 H   0  0  0  0  0  0
  -27.1860  -23.3353   22.2373 H   0  0  0  0  0  0
  -28.9119  -23.1866   22.0380 H   0  0  0  0  0  0
  -27.5960  -25.6169   21.4244 H   0  0  0  0  0  0
  -28.1858  -25.4332   19.6025 H   0  0  0  0  0  0
  -28.5887  -21.2681   20.4712 H   0  0  0  0  0  0
  -26.8496  -21.4399   20.5810 H   0  0  0  0  0  0
  -26.2140  -17.4101   21.6445 H   0  0  0  0  0  0
  -26.0489  -19.0599   21.9753 H   0  0  0  0  0  0
  -29.7232  -14.4318   22.4465 H   0  0  0  0  0  0
  1 25  1  0  0  0
  1 30  2  0  0  0
  1 84  1  0  0  0
  2  3  1  0  0  0
  2 25  1  0  0  0
  2 86  1  0  0  0
  2 87  1  0  0  0
  3  4  1  0  0  0
  3 88  1  0  0  0
  3 89  1  0  0  0
  4  5  1  0  0  0
  4 90  1  0  0  0
  4 91  1  0  0  0
  5  6  1  0  0  0
  5 26  1  0  0  0
  5 92  1  0  0  0
  6 25  1  0  0  0
  6 93  1  0  0  0
  6 94  1  0  0  0
  7  8  2  0  0  0
  7 26  1  0  0  0
  7 29  1  0  0  0
  8  9  1  0  0  0
  8 22  1  0  0  0
  9 10  1  0  0  0
  9 27  2  0  0  0
 10 11  2  0  0  0
 10 15  1  0  0  0
 11 12  1  0  0  0
 11 95  1  0  0  0
 12 13  2  0  0  0
 12 96  1  0  0  0
 13 14  1  0  0  0
 13 31  1  0  0  0
 14 15  2  0  0  0
 14 97  1  0  0  0
 15 98  1  0  0  0
 16 17  2  0  0  0
 16 21  1  0  0  0
 16 31  1  0  0  0
 17 18  1  0  0  0
 17 99  1  0  0  0
 18 19  2  0  0  0
 18100  1  0  0  0
 19 20  1  0  0  0
 19 24  1  0  0  0
 20 21  2  0  0  0
 20101  1  0  0  0
 21 23  1  0  0  0
 22 28  1  0  0  0
 22 32  2  0  0  0
 26 27  1  0  0  0
 28102  1  0  0  0
 28103  1  0  0  0
 29104  1  0  0  0
 29105  1  0  0  0
 33 34  1  0  0  0
 33 66  1  0  0  0
 33 70  2  0  0  0
 34 36  1  0  0  0
 34 59  1  0  0  0
 34106  1  0  0  0
 35 44  2  0  0  0
 35 45  1  0  0  0
 35 68  1  0  0  0
 36 56  1  0  0  0
 36107  1  0  0  0
 37 39  1  0  0  0
 37 47  1  0  0  0
 37 66  1  0  0  0
 37108  1  0  0  0
 38 43  2  0  0  0
 38 46  1  0  0  0
 38 47  1  0  0  0
 39 64  1  0  0  0
 39 67  2  0  0  0
 40 52  1  0  0  0
 40 53  2  0  0  0
 40 58  1  0  0  0
 41109  1  0  0  0
 41110  1  0  0  0
 41111  1  0  0  0
 41 48  1  0  0  0
 42 43  1  0  0  0
 42 66  1  0  0  0
 42112  1  0  0  0
 42113  1  0  0  0
 43 44  1  0  0  0
 44114  1  0  0  0
 45 46  2  0  0  0
 45115  1  0  0  0
 46116  1  0  0  0
 47117  1  0  0  0
 47118  1  0  0  0
 48 56  1  0  0  0
 48 65  1  0  0  0
 48119  1  0  0  0
 49 50  1  0  0  0
 49 53  1  0  0  0
 49 64  1  0  0  0
 49120  1  0  0  0
 50 51  1  0  0  0
 50121  1  0  0  0
 50122  1  0  0  0
 51 52  1  0  0  0
 51123  1  0  0  0
 51124  1  0  0  0
 52125  1  0  0  0
 52126  1  0  0  0
 53 54  1  0  0  0
 54 55  2  0  0  0
 54127  1  0  0  0
 55 57  1  0  0  0
 55128  1  0  0  0
 56 69  2  0  0  0
 57 58  2  0  0  0
 57129  1  0  0  0
 58130  1  0  0  0
 59 60  1  0  0  0
 59 61  1  0  0  0
 59 62  1  0  0  0
 60131  1  0  0  0
 60132  1  0  0  0
 60133  1  0  0  0
 61134  1  0  0  0
 61135  1  0  0  0
 61136  1  0  0  0
 62137  1  0  0  0
 62138  1  0  0  0
 62139  1  0  0  0
 63 65  1  0  0  0
 63140  1  0  0  0
 63141  1  0  0  0
 63142  1  0  0  0
 64143  1  0  0  0
 65144  1  0  0  0
 68 81  1  0  0  0
 71 73  2  0  0  0
 71 74  1  0  0  0
 71145  1  0  0  0
 72 73  1  0  0  0
 72 75  2  0  0  0
 72146  1  0  0  0
 73 78  1  0  0  0
 74 76  2  0  0  0
 74 77  1  0  0  0
 75 76  1  0  0  0
 75 83  1  0  0  0
 76 85  1  0  0  0
 77147  1  0  0  0
 77148  1  0  0  0
 77149  1  0  0  0
 78 84  1  0  0  0
 78150  1  0  0  0
 78151  1  0  0  0
 79 80  1  0  0  0
 79 81  1  0  0  0
 79152  1  0  0  0
 79153  1  0  0  0
 80 82  1  0  0  0
 80154  1  0  0  0
 80155  1  0  0  0
 81156  1  0  0  0
 81157  1  0  0  0
 82 85  1  0  0  0
 82158  1  0  0  0
 82159  1  0  0  0
 83160  1  0  0  0
 83161  1  0  0  0
 84162  1  0  0  0
M  ISO  4   1 100  68 101  81 101  84 100
M  END
> <chiral flag>
0

> <version>
0

> <s_m_source_file>
/data/baiqing/PycharmProjects/Reinvent-master-3.2/result/LINK_invent/BTK/process_docking_weight1_custom_product_contain_oxygen_bond_distance_aromatic_linkinvent_7_9_3/rearranged_h_0100.sdf

> <i_m_source_file_index>
41

> <r_mmod_Potential_Energy-OPLS-2005>
90.2616271972656

> <r_mmod_Stretch_Energy-OPLS-2005>
33.3197860717773

> <r_mmod_Bend_Energy-OPLS-2005>
316.574401855469

> <r_mmod_Torsional_Energy-OPLS-2005>
240.306503295898

> <r_mmod_Improper_Torsional_Energy-OPLS-2005>
7.53893566131592

> <r_mmod_Van_der_Waal_Energy-OPLS-2005>
169.927139282227

> <r_mmod_Electrostatic_Energy-OPLS-2005>
-474.019165039062

> <r_mmod_Solvation_Energy-OPLS-2005>
-212.077819824219

> <b_mmod_Minimization_Converged-OPLS-2005>
0

> <r_mmod_RMS_Derivative-OPLS-2005>
4.49191331863403

$$$$
42
                    3D
 Structure written by MMmdl.
163172  0  0  1  0            999 V2000
  -30.6462  -14.7109   20.3644 C   0  0  0  0  0  0
  -30.4261  -12.4172   19.4462 C   0  0  0  0  0  0
  -29.4881  -12.4262   18.2198 C   0  0  0  0  0  0
  -28.0195  -12.2829   18.6574 C   0  0  0  0  0  0
  -27.6347  -13.2187   19.8338 C   0  0  2  0  0  0
  -28.6931  -13.2017   20.9562 C   0  0  0  0  0  0
  -25.2501  -13.8160   20.5743 C   0  0  0  0  0  0
  -24.1785  -13.0414   20.9255 C   0  0  0  0  0  0
  -24.6368  -11.6901   20.8793 C   0  0  0  0  0  0
  -23.9045  -10.4282   21.0440 C   0  0  0  0  0  0
  -24.3604   -9.4194   21.9208 C   0  0  0  0  0  0
  -23.6283   -8.2225   22.0766 C   0  0  0  0  0  0
  -22.4270   -8.0274   21.3547 C   0  0  0  0  0  0
  -21.9900   -9.0246   20.4649 C   0  0  0  0  0  0
  -22.7227  -10.2129   20.3073 C   0  0  0  0  0  0
  -21.6846   -6.0730   22.5282 C   0  0  0  0  0  0
  -21.4006   -6.5638   23.8213 C   0  0  0  0  0  0
  -21.3653   -5.6791   24.9173 C   0  0  0  0  0  0
  -21.6042   -4.3054   24.7224 C   0  0  0  0  0  0
  -21.8822   -3.8148   23.4348 C   0  0  0  0  0  0
  -21.9188   -4.6956   22.3399 C   0  0  0  0  0  0
  -22.7807  -13.5210   21.1883 C   0  0  0  0  0  0
  -22.1662   -4.2149   21.0974 F   0  0  0  0  0  0
  -21.5624   -3.4537   25.7736 F   0  0  0  0  0  0
  -29.9851  -13.5093   20.3348 N   0  0  0  0  0  0
  -26.2917  -12.9357   20.3294 N   0  0  0  0  0  0
  -25.9293  -11.6517   20.5824 N   0  0  0  0  0  0
  -22.0446  -12.8204   22.0436 N   0  0  0  0  0  0
  -25.4091  -15.1867   20.4146 N   0  0  0  0  0  0
  -31.8797  -14.7186   20.3412 O   0  0  0  0  0  0
  -21.6629   -6.8875   21.4246 O   0  0  0  0  0  0
  -22.3485  -14.5498   20.6710 O   0  0  0  0  0  0
  -24.6260  -31.8589   23.2022 C   0  0  0  0  0  0
  -25.9101  -32.4768   23.8363 C   0  0  1  0  0  0
  -27.2191  -27.3099   20.1355 C   0  0  0  0  0  0
  -25.5920  -33.8574   24.2284 N   0  0  0  0  0  0
  -23.4193  -30.4802   21.5456 C   0  0  2  0  0  0
  -24.8651  -28.9238   20.1229 C   0  0  0  0  0  0
  -22.7464  -29.4621   22.4959 C   0  0  0  0  0  0
  -18.0270  -28.1389   22.8477 C   0  0  0  0  0  0
  -24.1487  -36.7290   23.2645 C   0  0  0  0  0  0
  -25.9601  -30.7848   21.3754 C   0  0  0  0  0  0
  -26.0318  -29.4069   20.7289 C   0  0  0  0  0  0
  -27.2144  -28.6109   20.7256 C   0  0  0  0  0  0
  -26.0395  -26.8804   19.4982 C   0  0  0  0  0  0
  -24.8681  -27.6639   19.5012 C   0  0  0  0  0  0
  -23.6361  -29.8090   20.1632 C   0  0  0  0  0  0
  -25.4111  -36.3086   24.0333 C   0  0  1  0  0  0
  -20.5870  -28.3697   23.1285 C   0  0  2  0  0  0
  -20.6780  -26.9425   22.5411 C   0  0  0  0  0  0
  -19.5762  -26.6392   21.5210 C   0  0  0  0  0  0
  -18.1929  -26.7934   22.1613 C   0  0  0  0  0  0
  -19.1520  -28.8861   23.2877 C   0  0  0  0  0  0
  -18.9455  -30.1464   23.8901 C   0  0  0  0  0  0
  -17.6459  -30.6599   24.0564 C   0  0  0  0  0  0
  -25.9047  -34.9448   23.5109 C   0  0  0  0  0  0
  -16.5350  -29.9097   23.6337 C   0  0  0  0  0  0
  -16.7260  -28.6511   23.0359 C   0  0  0  0  0  0
  -26.4488  -31.6582   25.0730 C   0  0  0  0  0  0
  -25.3719  -31.3693   26.1456 C   0  0  0  0  0  0
  -27.0343  -30.3011   24.6173 C   0  0  0  0  0  0
  -27.6066  -32.4313   25.7484 C   0  0  0  0  0  0
  -27.5569  -37.1796   24.8464 C   0  0  0  0  0  0
  -21.4183  -29.3042   22.3685 N   0  0  0  0  0  0
  -26.4288  -37.3775   23.9407 N   0  0  0  0  0  0
  -24.6874  -31.0599   22.0979 N   0  0  0  0  0  0
  -23.4182  -28.8164   23.3048 O   0  0  0  0  0  0
  -28.3579  -26.5031   20.0722 O   0  0  0  0  0  0
  -26.5621  -34.8909   22.4674 O   0  0  0  0  0  0
  -23.5427  -32.1403   23.7348 O   0  0  0  0  0  0
  -29.8429  -19.4675   20.8167 C   0  0  0  0  0  0
  -27.7585  -18.7871   19.8688 C   0  0  0  0  0  0
  -30.3355  -18.1169   20.7000 C   0  0  0  0  0  0
  -28.5388  -19.8613   20.3882 C   0  0  0  0  0  0
  -29.5278  -17.0600   20.1630 C   0  0  0  0  0  0
  -28.2294  -17.4537   19.7520 C   0  0  0  0  0  0
  -25.9245  -22.5044   21.2575 C   0  0  0  0  0  0
  -28.6084  -22.4521   20.3060 C   0  0  0  0  0  0
  -26.3004  -23.7797   20.5351 C   0  0  0  0  0  0
  -26.4744  -21.2393   20.6171 C   0  0  0  0  0  0
  -27.7991  -23.8400   20.1331 C   0  0  1  0  0  0
  -31.7771  -17.8519   21.0909 C   0  0  0  0  0  0
  -30.4241  -15.8612   18.2795 C   0  0  0  0  0  0
  -28.4283  -25.1809   20.7447 C   0  0  0  0  0  0
  -27.9502  -21.2312   20.4754 N   0  0  0  0  0  0
  -30.0155  -15.7496   19.6931 N   0  0  0  0  0  0
  -25.2221  -22.4957   22.2696 O   0  0  0  0  0  0
  -29.8393  -22.5070   20.2496 O   0  0  0  0  0  0
  -27.4250  -16.5486   19.1492 F   0  0  0  0  0  0
  -31.4616  -12.5412   19.1255 H   0  0  0  0  0  0
  -30.3802  -11.4596   19.9679 H   0  0  0  0  0  0
  -29.7526  -11.6130   17.5424 H   0  0  0  0  0  0
  -29.6017  -13.3408   17.6427 H   0  0  0  0  0  0
  -27.8773  -11.2438   18.9566 H   0  0  0  0  0  0
  -27.3525  -12.4450   17.8100 H   0  0  0  0  0  0
  -27.6154  -14.2211   19.4148 H   0  0  0  0  0  0
  -28.7251  -12.2331   21.4558 H   0  0  0  0  0  0
  -28.4515  -13.9460   21.7170 H   0  0  0  0  0  0
  -25.2751   -9.5660   22.4787 H   0  0  0  0  0  0
  -23.9991   -7.4607   22.7482 H   0  0  0  0  0  0
  -21.0835   -8.8756   19.8955 H   0  0  0  0  0  0
  -22.3692  -10.9666   19.6183 H   0  0  0  0  0  0
  -21.2006   -7.6152   23.9712 H   0  0  0  0  0  0
  -21.1470   -6.0525   25.9072 H   0  0  0  0  0  0
  -22.0609   -2.7614   23.2843 H   0  0  0  0  0  0
  -22.4057  -11.9868   22.4833 H   0  0  0  0  0  0
  -21.1067  -13.1235   22.2638 H   0  0  0  0  0  0
  -24.6240  -15.8241   20.4815 H   0  0  0  0  0  0
  -26.2321  -15.6187   20.0008 H   0  0  0  0  0  0
  -26.7163  -32.5444   23.1114 H   0  0  0  0  0  0
  -25.0084  -33.9731   25.0444 H   0  0  0  0  0  0
  -22.7136  -31.3007   21.3974 H   0  0  0  0  0  0
  -23.3749  -35.9620   23.3320 H   0  0  0  0  0  0
  -24.3590  -36.8910   22.2059 H   0  0  0  0  0  0
  -23.7233  -37.6489   23.6665 H   0  0  0  0  0  0
  -26.0911  -31.5425   20.6023 H   0  0  0  0  0  0
  -26.8427  -30.8387   22.0011 H   0  0  0  0  0  0
  -28.1180  -28.9821   21.1886 H   0  0  0  0  0  0
  -26.0271  -25.9350   18.9780 H   0  0  0  0  0  0
  -23.9774  -27.2934   19.0130 H   0  0  0  0  0  0
  -23.7602  -30.5832   19.4046 H   0  0  0  0  0  0
  -22.7552  -29.2393   19.8590 H   0  0  0  0  0  0
  -25.1287  -36.1947   25.0823 H   0  0  0  0  0  0
  -20.9944  -28.3285   24.1415 H   0  0  0  0  0  0
  -20.5708  -26.2301   23.3609 H   0  0  0  0  0  0
  -21.6648  -26.7489   22.1192 H   0  0  0  0  0  0
  -19.6945  -25.6303   21.1244 H   0  0  0  0  0  0
  -19.6710  -27.3212   20.6746 H   0  0  0  0  0  0
  -17.4205  -26.6678   21.4010 H   0  0  0  0  0  0
  -18.0330  -26.0081   22.9010 H   0  0  0  0  0  0
  -19.7939  -30.7262   24.2282 H   0  0  0  0  0  0
  -17.5021  -31.6278   24.5165 H   0  0  0  0  0  0
  -15.5354  -30.3000   23.7669 H   0  0  0  0  0  0
  -15.8658  -28.0835   22.7086 H   0  0  0  0  0  0
  -24.5923  -30.7010   25.7777 H   0  0  0  0  0  0
  -24.8866  -32.2835   26.4878 H   0  0  0  0  0  0
  -25.8043  -30.8883   27.0242 H   0  0  0  0  0  0
  -26.2920  -29.6726   24.1237 H   0  0  0  0  0  0
  -27.4095  -29.7289   25.4672 H   0  0  0  0  0  0
  -27.8752  -30.4314   23.9361 H   0  0  0  0  0  0
  -27.2714  -33.3640   26.2037 H   0  0  0  0  0  0
  -28.3871  -32.6830   25.0286 H   0  0  0  0  0  0
  -28.0724  -31.8439   26.5415 H   0  0  0  0  0  0
  -28.2594  -38.0088   24.7522 H   0  0  0  0  0  0
  -28.1060  -36.2620   24.6289 H   0  0  0  0  0  0
  -27.2288  -37.1444   25.8869 H   0  0  0  0  0  0
  -20.9379  -29.8729   21.6862 H   0  0  0  0  0  0
  -26.0172  -38.2847   24.1421 H   0  0  0  0  0  0
  -30.4979  -20.2207   21.2321 H   0  0  0  0  0  0
  -26.7628  -18.9650   19.4915 H   0  0  0  0  0  0
  -26.0248  -24.6220   21.1688 H   0  0  0  0  0  0
  -25.6750  -23.8459   19.6450 H   0  0  0  0  0  0
  -26.0107  -21.1317   19.6360 H   0  0  0  0  0  0
  -26.1451  -20.4025   21.2335 H   0  0  0  0  0  0
  -27.8236  -23.9828   19.0524 H   0  0  0  0  0  0
  -32.2674  -18.7589   21.4439 H   0  0  0  0  0  0
  -32.3441  -17.4814   20.2359 H   0  0  0  0  0  0
  -31.8293  -17.1134   21.8902 H   0  0  0  0  0  0
  -31.0374  -16.7517   18.1288 H   0  0  0  0  0  0
  -29.5485  -15.9454   17.6358 H   0  0  0  0  0  0
  -31.0176  -15.0222   17.9097 H   0  0  0  0  0  0
  -29.4989  -25.0116   20.8618 H   0  0  0  0  0  0
  -28.0729  -25.3096   21.7678 H   0  0  0  0  0  0
  1 25  1  0  0  0
  1 30  2  0  0  0
  1 86  1  0  0  0
  2  3  1  0  0  0
  2 25  1  0  0  0
  2 90  1  0  0  0
  2 91  1  0  0  0
  3  4  1  0  0  0
  3 92  1  0  0  0
  3 93  1  0  0  0
  4  5  1  0  0  0
  4 94  1  0  0  0
  4 95  1  0  0  0
  5  6  1  0  0  0
  5 26  1  0  0  0
  5 96  1  0  0  0
  6 25  1  0  0  0
  6 97  1  0  0  0
  6 98  1  0  0  0
  7  8  2  0  0  0
  7 26  1  0  0  0
  7 29  1  0  0  0
  8  9  1  0  0  0
  8 22  1  0  0  0
  9 10  1  0  0  0
  9 27  2  0  0  0
 10 11  2  0  0  0
 10 15  1  0  0  0
 11 12  1  0  0  0
 11 99  1  0  0  0
 12 13  2  0  0  0
 12100  1  0  0  0
 13 14  1  0  0  0
 13 31  1  0  0  0
 14 15  2  0  0  0
 14101  1  0  0  0
 15102  1  0  0  0
 16 17  2  0  0  0
 16 21  1  0  0  0
 16 31  1  0  0  0
 17 18  1  0  0  0
 17103  1  0  0  0
 18 19  2  0  0  0
 18104  1  0  0  0
 19 20  1  0  0  0
 19 24  1  0  0  0
 20 21  2  0  0  0
 20105  1  0  0  0
 21 23  1  0  0  0
 22 28  1  0  0  0
 22 32  2  0  0  0
 26 27  1  0  0  0
 28106  1  0  0  0
 28107  1  0  0  0
 29108  1  0  0  0
 29109  1  0  0  0
 33 34  1  0  0  0
 33 66  1  0  0  0
 33 70  2  0  0  0
 34 36  1  0  0  0
 34 59  1  0  0  0
 34110  1  0  0  0
 35 44  2  0  0  0
 35 45  1  0  0  0
 35 68  1  0  0  0
 36 56  1  0  0  0
 36111  1  0  0  0
 37 39  1  0  0  0
 37 47  1  0  0  0
 37 66  1  0  0  0
 37112  1  0  0  0
 38 43  2  0  0  0
 38 46  1  0  0  0
 38 47  1  0  0  0
 39 64  1  0  0  0
 39 67  2  0  0  0
 40 52  1  0  0  0
 40 53  2  0  0  0
 40 58  1  0  0  0
 41113  1  0  0  0
 41114  1  0  0  0
 41115  1  0  0  0
 41 48  1  0  0  0
 42 43  1  0  0  0
 42 66  1  0  0  0
 42116  1  0  0  0
 42117  1  0  0  0
 43 44  1  0  0  0
 44118  1  0  0  0
 45 46  2  0  0  0
 45119  1  0  0  0
 46120  1  0  0  0
 47121  1  0  0  0
 47122  1  0  0  0
 48 56  1  0  0  0
 48 65  1  0  0  0
 48123  1  0  0  0
 49 50  1  0  0  0
 49 53  1  0  0  0
 49 64  1  0  0  0
 49124  1  0  0  0
 50 51  1  0  0  0
 50125  1  0  0  0
 50126  1  0  0  0
 51 52  1  0  0  0
 51127  1  0  0  0
 51128  1  0  0  0
 52129  1  0  0  0
 52130  1  0  0  0
 53 54  1  0  0  0
 54 55  2  0  0  0
 54131  1  0  0  0
 55 57  1  0  0  0
 55132  1  0  0  0
 56 69  2  0  0  0
 57 58  2  0  0  0
 57133  1  0  0  0
 58134  1  0  0  0
 59 60  1  0  0  0
 59 61  1  0  0  0
 59 62  1  0  0  0
 60135  1  0  0  0
 60136  1  0  0  0
 60137  1  0  0  0
 61138  1  0  0  0
 61139  1  0  0  0
 61140  1  0  0  0
 62141  1  0  0  0
 62142  1  0  0  0
 62143  1  0  0  0
 63 65  1  0  0  0
 63144  1  0  0  0
 63145  1  0  0  0
 63146  1  0  0  0
 64147  1  0  0  0
 65148  1  0  0  0
 68 84  1  0  0  0
 71 73  2  0  0  0
 71 74  1  0  0  0
 71149  1  0  0  0
 72 74  2  0  0  0
 72 76  1  0  0  0
 72150  1  0  0  0
 73 75  1  0  0  0
 73 82  1  0  0  0
 74 85  1  0  0  0
 75 76  2  0  0  0
 75 86  1  0  0  0
 76 89  1  0  0  0
 77 79  1  0  0  0
 77 80  1  0  0  0
 77 87  2  0  0  0
 78 81  1  0  0  0
 78 85  1  0  0  0
 78 88  2  0  0  0
 79 81  1  0  0  0
 79151  1  0  0  0
 79152  1  0  0  0
 80 85  1  0  0  0
 80153  1  0  0  0
 80154  1  0  0  0
 81 84  1  0  0  0
 81155  1  0  0  0
 82156  1  0  0  0
 82157  1  0  0  0
 82158  1  0  0  0
 83 86  1  0  0  0
 83159  1  0  0  0
 83160  1  0  0  0
 83161  1  0  0  0
 84162  1  0  0  0
 84163  1  0  0  0
M  ISO  4   1 100  68 101  84 101  86 100
M  END
> <chiral flag>
0

> <version>
0

> <s_m_source_file>
/data/baiqing/PycharmProjects/Reinvent-master-3.2/result/LINK_invent/BTK/process_docking_weight1_custom_product_contain_oxygen_bond_distance_aromatic_linkinvent_7_9_3/rearranged_h_0100.sdf

> <i_m_source_file_index>
42

> <r_mmod_Potential_Energy-OPLS-2005>
372.924224853516

> <r_mmod_Stretch_Energy-OPLS-2005>
107.80542755127

> <r_mmod_Bend_Energy-OPLS-2005>
187.531036376953

> <r_mmod_Torsional_Energy-OPLS-2005>
401.093322753906

> <r_mmod_Improper_Torsional_Energy-OPLS-2005>
35.2583427429199

> <r_mmod_Van_der_Waal_Energy-OPLS-2005>
161.43701171875

> <r_mmod_Electrostatic_Energy-OPLS-2005>
-384.699798583984

> <r_mmod_Solvation_Energy-OPLS-2005>
-213.457580566406

> <b_mmod_Minimization_Converged-OPLS-2005>
0

> <r_mmod_RMS_Derivative-OPLS-2005>
1.89140009880066

$$$$
43
                    3D
 Structure written by MMmdl.
162171  0  0  1  0            999 V2000
  -30.6803  -14.5607   20.5981 C   0  0  0  0  0  0
  -30.4368  -12.3537   19.4224 C   0  0  0  0  0  0
  -29.4994  -12.5258   18.2109 C   0  0  0  0  0  0
  -28.0239  -12.3686   18.6281 C   0  0  0  0  0  0
  -27.6605  -13.2132   19.8793 C   0  0  2  0  0  0
  -28.6983  -13.0043   21.0057 C   0  0  0  0  0  0
  -25.2547  -13.8150   20.5657 C   0  0  0  0  0  0
  -24.1822  -13.0421   20.9179 C   0  0  0  0  0  0
  -24.6393  -11.6895   20.8737 C   0  0  0  0  0  0
  -23.9059  -10.4285   21.0411 C   0  0  0  0  0  0
  -24.3615   -9.4198   21.9185 C   0  0  0  0  0  0
  -23.6290   -8.2233   22.0752 C   0  0  0  0  0  0
  -22.4271   -8.0272   21.3543 C   0  0  0  0  0  0
  -21.9904   -9.0244   20.4641 C   0  0  0  0  0  0
  -22.7235  -10.2123   20.3054 C   0  0  0  0  0  0
  -21.6848   -6.0720   22.5284 C   0  0  0  0  0  0
  -21.4006   -6.5625   23.8217 C   0  0  0  0  0  0
  -21.3671   -5.6783   24.9185 C   0  0  0  0  0  0
  -21.6053   -4.3045   24.7246 C   0  0  0  0  0  0
  -21.8817   -3.8133   23.4368 C   0  0  0  0  0  0
  -21.9191   -4.6948   22.3418 C   0  0  0  0  0  0
  -22.7847  -13.5215   21.1871 C   0  0  0  0  0  0
  -22.1659   -4.2127   21.1000 F   0  0  0  0  0  0
  -21.5646   -3.4530   25.7763 F   0  0  0  0  0  0
  -30.0258  -13.3163   20.4554 N   0  0  0  0  0  0
  -26.3009  -12.9347   20.3376 N   0  0  0  0  0  0
  -25.9321  -11.6498   20.5765 N   0  0  0  0  0  0
  -22.0492  -12.8198   22.0426 N   0  0  0  0  0  0
  -25.4222  -15.1861   20.4032 N   0  0  0  0  0  0
  -31.7311  -14.8657   20.0283 O   0  0  0  0  0  0
  -21.6636   -6.8864   21.4246 O   0  0  0  0  0  0
  -22.3513  -14.5526   20.6738 O   0  0  0  0  0  0
  -24.6234  -31.8626   23.2065 C   0  0  0  0  0  0
  -25.9095  -32.4791   23.8378 C   0  0  1  0  0  0
  -27.2251  -27.3493   20.1000 C   0  0  0  0  0  0
  -25.5923  -33.8594   24.2295 N   0  0  0  0  0  0
  -23.4154  -30.4874   21.5495 C   0  0  2  0  0  0
  -24.8605  -28.9517   20.1094 C   0  0  0  0  0  0
  -22.7461  -29.4634   22.4968 C   0  0  0  0  0  0
  -18.0282  -28.1377   22.8491 C   0  0  0  0  0  0
  -24.1489  -36.7303   23.2639 C   0  0  0  0  0  0
  -25.9552  -30.7999   21.3774 C   0  0  0  0  0  0
  -26.0286  -29.4323   20.7141 C   0  0  0  0  0  0
  -27.2130  -28.6415   20.7030 C   0  0  0  0  0  0
  -26.0324  -26.9218   19.4671 C   0  0  0  0  0  0
  -24.8626  -27.7002   19.4784 C   0  0  0  0  0  0
  -23.6267  -29.8259   20.1631 C   0  0  0  0  0  0
  -25.4113  -36.3092   24.0327 C   0  0  1  0  0  0
  -20.5877  -28.3675   23.1298 C   0  0  2  0  0  0
  -20.6770  -26.9405   22.5410 C   0  0  0  0  0  0
  -19.5746  -26.6380   21.5211 C   0  0  0  0  0  0
  -18.1927  -26.7921   22.1624 C   0  0  0  0  0  0
  -19.1531  -28.8847   23.2884 C   0  0  0  0  0  0
  -18.9456  -30.1453   23.8894 C   0  0  0  0  0  0
  -17.6456  -30.6585   24.0560 C   0  0  0  0  0  0
  -25.9049  -34.9460   23.5110 C   0  0  0  0  0  0
  -16.5349  -29.9080   23.6331 C   0  0  0  0  0  0
  -16.7269  -28.6495   23.0356 C   0  0  0  0  0  0
  -26.4487  -31.6603   25.0747 C   0  0  0  0  0  0
  -25.3730  -31.3732   26.1479 C   0  0  0  0  0  0
  -27.0341  -30.3028   24.6212 C   0  0  0  0  0  0
  -27.6039  -32.4349   25.7519 C   0  0  0  0  0  0
  -27.5579  -37.1807   24.8462 C   0  0  0  0  0  0
  -21.4178  -29.3032   22.3701 N   0  0  0  0  0  0
  -26.4289  -37.3784   23.9410 N   0  0  0  0  0  0
  -24.6832  -31.0656   22.1012 N   0  0  0  0  0  0
  -23.4192  -28.8178   23.3043 O   0  0  0  0  0  0
  -28.3502  -26.5149   20.1530 O   0  0  0  0  0  0
  -26.5614  -34.8918   22.4674 O   0  0  0  0  0  0
  -23.5404  -32.1420   23.7406 O   0  0  0  0  0  0
  -28.0963  -19.1582   20.9859 C   0  0  0  0  0  0
  -28.1634  -16.8310   21.7069 C   0  0  0  0  0  0
  -30.1019  -17.8063   20.6090 C   0  0  0  0  0  0
  -27.4771  -18.0544   21.5972 C   0  0  0  0  0  0
  -29.4168  -19.0715   20.4969 C   0  0  0  0  0  0
  -29.4747  -16.6654   21.2156 C   0  0  0  0  0  0
  -30.5081  -23.9609   19.7065 C   0  0  0  0  0  0
  -31.1041  -22.5744   20.0538 C   0  0  0  0  0  0
  -28.7541  -22.5123   20.3472 C   0  0  0  0  0  0
  -29.1777  -24.0190   20.4530 C   0  0  2  0  0  0
  -26.0653  -18.1874   22.1323 C   0  0  0  0  0  0
  -30.0207  -20.3125   19.7704 C   0  0  0  0  0  0
  -28.1289  -25.0768   19.9318 C   0  0  0  0  0  0
  -29.9911  -21.6680   20.4559 N   0  3  1  0  0  0
  -30.0084  -15.3969   21.4721 O   0  0  0  0  0  0
  -31.4758  -12.4993   19.1213 H   0  0  0  0  0  0
  -30.3717  -11.3376   19.8163 H   0  0  0  0  0  0
  -29.7450  -11.7967   17.4382 H   0  0  0  0  0  0
  -29.6538  -13.5091   17.7630 H   0  0  0  0  0  0
  -27.8482  -11.3121   18.8342 H   0  0  0  0  0  0
  -27.3697  -12.6255   17.7937 H   0  0  0  0  0  0
  -27.7012  -14.2614   19.5800 H   0  0  0  0  0  0
  -28.6818  -11.9685   21.3482 H   0  0  0  0  0  0
  -28.4424  -13.6021   21.8811 H   0  0  0  0  0  0
  -25.2765   -9.5664   22.4750 H   0  0  0  0  0  0
  -23.9993   -7.4615   22.7467 H   0  0  0  0  0  0
  -21.0837   -8.8762   19.8940 H   0  0  0  0  0  0
  -22.3703  -10.9655   19.6155 H   0  0  0  0  0  0
  -21.1971   -7.6124   23.9714 H   0  0  0  0  0  0
  -21.1508   -6.0516   25.9088 H   0  0  0  0  0  0
  -22.0586   -2.7587   23.2893 H   0  0  0  0  0  0
  -22.4098  -11.9845   22.4794 H   0  0  0  0  0  0
  -21.1109  -13.1222   22.2640 H   0  0  0  0  0  0
  -24.6539  -15.8382   20.5086 H   0  0  0  0  0  0
  -26.2825  -15.6323   20.1125 H   0  0  0  0  0  0
  -26.7169  -32.5470   23.1132 H   0  0  0  0  0  0
  -25.0069  -33.9747   25.0438 H   0  0  0  0  0  0
  -22.7077  -31.3072   21.4106 H   0  0  0  0  0  0
  -23.3747  -35.9639   23.3296 H   0  0  0  0  0  0
  -24.3577  -36.8932   22.2053 H   0  0  0  0  0  0
  -23.7242  -37.6503   23.6667 H   0  0  0  0  0  0
  -26.0902  -31.5701   20.6169 H   0  0  0  0  0  0
  -26.8336  -30.8405   22.0101 H   0  0  0  0  0  0
  -28.1090  -29.0053   21.1865 H   0  0  0  0  0  0
  -25.9692  -25.9718   18.9579 H   0  0  0  0  0  0
  -23.9686  -27.3290   18.9959 H   0  0  0  0  0  0
  -23.7386  -30.6039   19.4072 H   0  0  0  0  0  0
  -22.7484  -29.2506   19.8640 H   0  0  0  0  0  0
  -25.1291  -36.1943   25.0818 H   0  0  0  0  0  0
  -20.9956  -28.3236   24.1422 H   0  0  0  0  0  0
  -20.5682  -26.2280   23.3597 H   0  0  0  0  0  0
  -21.6640  -26.7450   22.1196 H   0  0  0  0  0  0
  -19.6909  -25.6292   21.1238 H   0  0  0  0  0  0
  -19.6679  -27.3191   20.6740 H   0  0  0  0  0  0
  -17.4194  -26.6667   21.4028 H   0  0  0  0  0  0
  -18.0330  -26.0059   22.9019 H   0  0  0  0  0  0
  -19.7934  -30.7269   24.2257 H   0  0  0  0  0  0
  -17.5014  -31.6267   24.5160 H   0  0  0  0  0  0
  -15.5348  -30.2981   23.7662 H   0  0  0  0  0  0
  -15.8667  -28.0815   22.7074 H   0  0  0  0  0  0
  -24.5883  -30.7107   25.7803 H   0  0  0  0  0  0
  -24.8949  -32.2900   26.4941 H   0  0  0  0  0  0
  -25.8059  -30.8875   27.0234 H   0  0  0  0  0  0
  -26.2925  -29.6774   24.1225 H   0  0  0  0  0  0
  -27.4018  -29.7287   25.4730 H   0  0  0  0  0  0
  -27.8803  -30.4310   23.9459 H   0  0  0  0  0  0
  -27.2629  -33.3632   26.2115 H   0  0  0  0  0  0
  -28.3836  -32.6944   25.0346 H   0  0  0  0  0  0
  -28.0728  -31.8476   26.5425 H   0  0  0  0  0  0
  -28.2588  -38.0113   24.7524 H   0  0  0  0  0  0
  -28.1084  -36.2644   24.6271 H   0  0  0  0  0  0
  -27.2299  -37.1438   25.8865 H   0  0  0  0  0  0
  -20.9355  -29.8742   21.6903 H   0  0  0  0  0  0
  -26.0171  -38.2859   24.1408 H   0  0  0  0  0  0
  -27.5322  -20.0728   20.8825 H   0  0  0  0  0  0
  -27.6741  -15.9949   22.1878 H   0  0  0  0  0  0
  -31.1102  -17.7114   20.2301 H   0  0  0  0  0  0
  -30.3307  -24.0185   18.6312 H   0  0  0  0  0  0
  -31.1740  -24.7829   19.9714 H   0  0  0  0  0  0
  -31.7933  -22.6606   20.8945 H   0  0  0  0  0  0
  -31.6820  -22.1935   19.2103 H   0  0  0  0  0  0
  -28.2792  -22.3344   19.3807 H   0  0  0  0  0  0
  -28.0315  -22.2525   21.1203 H   0  0  0  0  0  0
  -29.3782  -24.2332   21.5038 H   0  0  0  0  0  0
  -26.0024  -19.0162   22.8381 H   0  0  0  0  0  0
  -25.7468  -17.2823   22.6509 H   0  0  0  0  0  0
  -25.3662  -18.3728   21.3156 H   0  0  0  0  0  0
  -29.5607  -20.3978   18.7854 H   0  0  0  0  0  0
  -31.0624  -20.0584   19.5744 H   0  0  0  0  0  0
  -27.1967  -24.8023   20.4291 H   0  0  0  0  0  0
  -27.9708  -24.9122   18.8653 H   0  0  0  0  0  0
  -30.1410  -21.4846   21.4365 H   0  0  0  0  0  0
  1 25  1  0  0  0
  1 30  2  0  0  0
  1 85  1  0  0  0
  2  3  1  0  0  0
  2 25  1  0  0  0
  2 86  1  0  0  0
  2 87  1  0  0  0
  3  4  1  0  0  0
  3 88  1  0  0  0
  3 89  1  0  0  0
  4  5  1  0  0  0
  4 90  1  0  0  0
  4 91  1  0  0  0
  5  6  1  0  0  0
  5 26  1  0  0  0
  5 92  1  0  0  0
  6 25  1  0  0  0
  6 93  1  0  0  0
  6 94  1  0  0  0
  7  8  2  0  0  0
  7 26  1  0  0  0
  7 29  1  0  0  0
  8  9  1  0  0  0
  8 22  1  0  0  0
  9 10  1  0  0  0
  9 27  2  0  0  0
 10 11  2  0  0  0
 10 15  1  0  0  0
 11 12  1  0  0  0
 11 95  1  0  0  0
 12 13  2  0  0  0
 12 96  1  0  0  0
 13 14  1  0  0  0
 13 31  1  0  0  0
 14 15  2  0  0  0
 14 97  1  0  0  0
 15 98  1  0  0  0
 16 17  2  0  0  0
 16 21  1  0  0  0
 16 31  1  0  0  0
 17 18  1  0  0  0
 17 99  1  0  0  0
 18 19  2  0  0  0
 18100  1  0  0  0
 19 20  1  0  0  0
 19 24  1  0  0  0
 20 21  2  0  0  0
 20101  1  0  0  0
 21 23  1  0  0  0
 22 28  1  0  0  0
 22 32  2  0  0  0
 26 27  1  0  0  0
 28102  1  0  0  0
 28103  1  0  0  0
 29104  1  0  0  0
 29105  1  0  0  0
 33 34  1  0  0  0
 33 66  1  0  0  0
 33 70  2  0  0  0
 34 36  1  0  0  0
 34 59  1  0  0  0
 34106  1  0  0  0
 35 44  2  0  0  0
 35 45  1  0  0  0
 35 68  1  0  0  0
 36 56  1  0  0  0
 36107  1  0  0  0
 37 39  1  0  0  0
 37 47  1  0  0  0
 37 66  1  0  0  0
 37108  1  0  0  0
 38 43  2  0  0  0
 38 46  1  0  0  0
 38 47  1  0  0  0
 39 64  1  0  0  0
 39 67  2  0  0  0
 40 52  1  0  0  0
 40 53  2  0  0  0
 40 58  1  0  0  0
 41109  1  0  0  0
 41110  1  0  0  0
 41111  1  0  0  0
 41 48  1  0  0  0
 42 43  1  0  0  0
 42 66  1  0  0  0
 42112  1  0  0  0
 42113  1  0  0  0
 43 44  1  0  0  0
 44114  1  0  0  0
 45 46  2  0  0  0
 45115  1  0  0  0
 46116  1  0  0  0
 47117  1  0  0  0
 47118  1  0  0  0
 48 56  1  0  0  0
 48 65  1  0  0  0
 48119  1  0  0  0
 49 50  1  0  0  0
 49 53  1  0  0  0
 49 64  1  0  0  0
 49120  1  0  0  0
 50 51  1  0  0  0
 50121  1  0  0  0
 50122  1  0  0  0
 51 52  1  0  0  0
 51123  1  0  0  0
 51124  1  0  0  0
 52125  1  0  0  0
 52126  1  0  0  0
 53 54  1  0  0  0
 54 55  2  0  0  0
 54127  1  0  0  0
 55 57  1  0  0  0
 55128  1  0  0  0
 56 69  2  0  0  0
 57 58  2  0  0  0
 57129  1  0  0  0
 58130  1  0  0  0
 59 60  1  0  0  0
 59 61  1  0  0  0
 59 62  1  0  0  0
 60131  1  0  0  0
 60132  1  0  0  0
 60133  1  0  0  0
 61134  1  0  0  0
 61135  1  0  0  0
 61136  1  0  0  0
 62137  1  0  0  0
 62138  1  0  0  0
 62139  1  0  0  0
 63 65  1  0  0  0
 63140  1  0  0  0
 63141  1  0  0  0
 63142  1  0  0  0
 64143  1  0  0  0
 65144  1  0  0  0
 68 83  1  0  0  0
 71 74  2  0  0  0
 71 75  1  0  0  0
 71145  1  0  0  0
 72 74  1  0  0  0
 72 76  2  0  0  0
 72146  1  0  0  0
 73 75  2  0  0  0
 73 76  1  0  0  0
 73147  1  0  0  0
 74 81  1  0  0  0
 75 82  1  0  0  0
 76 85  1  0  0  0
 77 78  1  0  0  0
 77 80  1  0  0  0
 77148  1  0  0  0
 77149  1  0  0  0
 78 84  1  0  0  0
 78150  1  0  0  0
 78151  1  0  0  0
 79 80  1  0  0  0
 79 84  1  0  0  0
 79152  1  0  0  0
 79153  1  0  0  0
 80 83  1  0  0  0
 80154  1  0  0  0
 81155  1  0  0  0
 81156  1  0  0  0
 81157  1  0  0  0
 82158  1  0  0  0
 82159  1  0  0  0
 82 84  1  0  0  0
 83160  1  0  0  0
 83161  1  0  0  0
 84162  1  0  0  0
M  CHG  1  84   1
M  ISO  4   1 100  68 101  83 101  85 100
M  END
> <chiral flag>
0

> <version>
0

> <s_m_source_file>
/data/baiqing/PycharmProjects/Reinvent-master-3.2/result/LINK_invent/BTK/process_docking_weight1_custom_product_contain_oxygen_bond_distance_aromatic_linkinvent_7_9_3/rearranged_h_0100.sdf

> <i_m_source_file_index>
43

> <r_mmod_Potential_Energy-OPLS-2005>
4.34345722198486

> <r_mmod_Stretch_Energy-OPLS-2005>
65.8448791503906

> <r_mmod_Bend_Energy-OPLS-2005>
164.54736328125

> <r_mmod_Torsional_Energy-OPLS-2005>
247.077926635742

> <r_mmod_Improper_Torsional_Energy-OPLS-2005>
2.34537887573242

> <r_mmod_Van_der_Waal_Energy-OPLS-2005>
134.798400878906

> <r_mmod_Electrostatic_Energy-OPLS-2005>
-208.003112792969

> <r_mmod_Solvation_Energy-OPLS-2005>
-434.206939697266

> <b_mmod_Minimization_Converged-OPLS-2005>
0

> <r_mmod_RMS_Derivative-OPLS-2005>
1.42387306690216

$$$$
44
                    3D
 Structure written by MMmdl.
156165  0  0  1  0            999 V2000
  -30.6457  -14.5710   20.5228 C   0  0  0  0  0  0
  -30.4353  -12.3535   19.4411 C   0  0  0  0  0  0
  -29.5042  -12.5049   18.2181 C   0  0  0  0  0  0
  -28.0256  -12.3529   18.6290 C   0  0  0  0  0  0
  -27.6584  -13.2099   19.8698 C   0  0  2  0  0  0
  -28.7018  -13.0284   20.9961 C   0  0  0  0  0  0
  -25.2582  -13.8162   20.5683 C   0  0  0  0  0  0
  -24.1837  -13.0437   20.9181 C   0  0  0  0  0  0
  -24.6395  -11.6905   20.8736 C   0  0  0  0  0  0
  -23.9061  -10.4291   21.0403 C   0  0  0  0  0  0
  -24.3614   -9.4207   21.9181 C   0  0  0  0  0  0
  -23.6290   -8.2243   22.0753 C   0  0  0  0  0  0
  -22.4272   -8.0279   21.3545 C   0  0  0  0  0  0
  -21.9905   -9.0254   20.4648 C   0  0  0  0  0  0
  -22.7233  -10.2133   20.3055 C   0  0  0  0  0  0
  -21.6853   -6.0733   22.5280 C   0  0  0  0  0  0
  -21.4013   -6.5637   23.8213 C   0  0  0  0  0  0
  -21.3659   -5.6790   24.9175 C   0  0  0  0  0  0
  -21.6044   -4.3054   24.7226 C   0  0  0  0  0  0
  -21.8819   -3.8145   23.4348 C   0  0  0  0  0  0
  -21.9193   -4.6962   22.3403 C   0  0  0  0  0  0
  -22.7859  -13.5236   21.1846 C   0  0  0  0  0  0
  -22.1661   -4.2148   21.0981 F   0  0  0  0  0  0
  -21.5630   -3.4538   25.7738 F   0  0  0  0  0  0
  -30.0251  -13.3567   20.4398 N   0  0  0  0  0  0
  -26.3011  -12.9333   20.3341 N   0  0  0  0  0  0
  -25.9322  -11.6493   20.5759 N   0  0  0  0  0  0
  -22.0499  -12.8232   22.0403 N   0  0  0  0  0  0
  -25.4309  -15.1882   20.4098 N   0  0  0  0  0  0
  -31.7947  -14.7486   20.1070 O   0  0  0  0  0  0
  -21.6637   -6.8876   21.4241 O   0  0  0  0  0  0
  -22.3547  -14.5545   20.6696 O   0  0  0  0  0  0
  -24.6203  -31.8637   23.2056 C   0  0  0  0  0  0
  -25.9073  -32.4800   23.8371 C   0  0  1  0  0  0
  -27.2297  -27.3795   20.1131 C   0  0  0  0  0  0
  -25.5910  -33.8599   24.2305 N   0  0  0  0  0  0
  -23.4122  -30.4861   21.5468 C   0  0  2  0  0  0
  -24.8613  -28.9466   20.1119 C   0  0  0  0  0  0
  -22.7448  -29.4637   22.4959 C   0  0  0  0  0  0
  -18.0282  -28.1378   22.8488 C   0  0  0  0  0  0
  -24.1489  -36.7304   23.2636 C   0  0  0  0  0  0
  -25.9468  -30.8136   21.3672 C   0  0  0  0  0  0
  -26.0255  -29.4443   20.7127 C   0  0  0  0  0  0
  -27.2171  -28.6705   20.7061 C   0  0  0  0  0  0
  -26.0511  -26.9144   19.4944 C   0  0  0  0  0  0
  -24.8720  -27.6836   19.4954 C   0  0  0  0  0  0
  -23.6249  -29.8190   20.1617 C   0  0  0  0  0  0
  -25.4109  -36.3098   24.0335 C   0  0  1  0  0  0
  -20.5877  -28.3675   23.1299 C   0  0  2  0  0  0
  -20.6771  -26.9404   22.5414 C   0  0  0  0  0  0
  -19.5750  -26.6386   21.5210 C   0  0  0  0  0  0
  -18.1929  -26.7923   22.1622 C   0  0  0  0  0  0
  -19.1533  -28.8843   23.2890 C   0  0  0  0  0  0
  -18.9457  -30.1447   23.8903 C   0  0  0  0  0  0
  -17.6458  -30.6582   24.0564 C   0  0  0  0  0  0
  -25.9041  -34.9464   23.5120 C   0  0  0  0  0  0
  -16.5350  -29.9083   23.6325 C   0  0  0  0  0  0
  -16.7270  -28.6501   23.0346 C   0  0  0  0  0  0
  -26.4480  -31.6587   25.0714 C   0  0  0  0  0  0
  -25.3735  -31.3709   26.1457 C   0  0  0  0  0  0
  -27.0307  -30.3018   24.6117 C   0  0  0  0  0  0
  -27.6054  -32.4305   25.7480 C   0  0  0  0  0  0
  -27.5582  -37.1804   24.8462 C   0  0  0  0  0  0
  -21.4167  -29.3034   22.3700 N   0  0  0  0  0  0
  -26.4291  -37.3787   23.9411 N   0  0  0  0  0  0
  -24.6782  -31.0696   22.0979 N   0  0  0  0  0  0
  -23.4193  -28.8180   23.3023 O   0  0  0  0  0  0
  -28.3419  -26.5488   20.1305 O   0  0  0  0  0  0
  -26.5608  -34.8923   22.4684 O   0  0  0  0  0  0
  -23.5381  -32.1409   23.7420 O   0  0  0  0  0  0
  -31.0169  -17.7081   20.2249 C   0  0  0  0  0  0
  -29.9857  -16.9587   20.7605 C   0  0  0  0  0  0
  -29.5958  -19.4771   20.6592 C   0  0  0  0  0  0
  -28.9091  -21.7015   19.4329 C   0  0  0  0  0  0
  -29.8815  -21.8250   21.7342 C   0  0  0  0  0  0
  -28.2539  -23.1119   19.6217 C   0  0  0  0  0  0
  -29.2144  -23.2153   21.9403 C   0  0  0  0  0  0
  -29.0863  -20.9254   20.7644 C   0  0  2  0  0  0
  -28.9750  -24.0421   20.6422 C   0  0  2  0  0  0
  -28.1898  -25.3738   20.9793 C   0  0  0  0  0  0
  -30.7885  -19.1022   20.1752 N   0  0  0  0  0  0
  -29.8592  -15.5972   20.9467 N   0  0  0  0  0  0
  -28.6804  -18.0578   21.2162 S   0  0  0  0  0  0
  -31.4778  -12.4706   19.1395 H   0  0  0  0  0  0
  -30.3579  -11.3501   19.8623 H   0  0  0  0  0  0
  -29.7581  -11.7653   17.4574 H   0  0  0  0  0  0
  -29.6578  -13.4817   17.7566 H   0  0  0  0  0  0
  -27.8504  -11.2983   18.8448 H   0  0  0  0  0  0
  -27.3736  -12.6034   17.7914 H   0  0  0  0  0  0
  -27.6889  -14.2511   19.5482 H   0  0  0  0  0  0
  -28.6977  -11.9990   21.3573 H   0  0  0  0  0  0
  -28.4540  -13.6430   21.8629 H   0  0  0  0  0  0
  -25.2761   -9.5682   22.4753 H   0  0  0  0  0  0
  -24.0002   -7.4633   22.7469 H   0  0  0  0  0  0
  -21.0837   -8.8774   19.8953 H   0  0  0  0  0  0
  -22.3694  -10.9672   19.6163 H   0  0  0  0  0  0
  -21.2005   -7.6144   23.9714 H   0  0  0  0  0  0
  -21.1481   -6.0521   25.9077 H   0  0  0  0  0  0
  -22.0599   -2.7608   23.2849 H   0  0  0  0  0  0
  -22.4106  -11.9889   22.4792 H   0  0  0  0  0  0
  -21.1119  -13.1264   22.2608 H   0  0  0  0  0  0
  -24.6644  -15.8436   20.5179 H   0  0  0  0  0  0
  -26.2809  -15.6269   20.0792 H   0  0  0  0  0  0
  -26.7143  -32.5499   23.1131 H   0  0  0  0  0  0
  -25.0063  -33.9751   25.0452 H   0  0  0  0  0  0
  -22.7031  -31.3045   21.4053 H   0  0  0  0  0  0
  -23.3744  -35.9646   23.3318 H   0  0  0  0  0  0
  -24.3582  -36.8897   22.2047 H   0  0  0  0  0  0
  -23.7253  -37.6519   23.6637 H   0  0  0  0  0  0
  -26.0670  -31.5783   20.5984 H   0  0  0  0  0  0
  -26.8313  -30.8665   21.9902 H   0  0  0  0  0  0
  -28.1133  -29.0463   21.1795 H   0  0  0  0  0  0
  -26.0422  -25.9405   19.0249 H   0  0  0  0  0  0
  -23.9793  -27.2953   19.0249 H   0  0  0  0  0  0
  -23.7376  -30.5946   19.4034 H   0  0  0  0  0  0
  -22.7473  -29.2426   19.8632 H   0  0  0  0  0  0
  -25.1285  -36.1959   25.0828 H   0  0  0  0  0  0
  -20.9971  -28.3245   24.1419 H   0  0  0  0  0  0
  -20.5670  -26.2282   23.3606 H   0  0  0  0  0  0
  -21.6641  -26.7440   22.1210 H   0  0  0  0  0  0
  -19.6913  -25.6300   21.1231 H   0  0  0  0  0  0
  -19.6687  -27.3203   20.6745 H   0  0  0  0  0  0
  -17.4198  -26.6668   21.4025 H   0  0  0  0  0  0
  -18.0333  -26.0063   22.9018 H   0  0  0  0  0  0
  -19.7935  -30.7261   24.2274 H   0  0  0  0  0  0
  -17.5014  -31.6261   24.5168 H   0  0  0  0  0  0
  -15.5350  -30.2987   23.7643 H   0  0  0  0  0  0
  -15.8671  -28.0823   22.7054 H   0  0  0  0  0  0
  -24.5908  -30.7056   25.7795 H   0  0  0  0  0  0
  -24.8929  -32.2871   26.4897 H   0  0  0  0  0  0
  -25.8080  -30.8882   27.0220 H   0  0  0  0  0  0
  -26.2858  -29.6787   24.1153 H   0  0  0  0  0  0
  -27.4042  -29.7248   25.4587 H   0  0  0  0  0  0
  -27.8713  -30.4320   23.9296 H   0  0  0  0  0  0
  -27.2674  -33.3594   26.2086 H   0  0  0  0  0  0
  -28.3850  -32.6880   25.0298 H   0  0  0  0  0  0
  -28.0738  -31.8411   26.5373 H   0  0  0  0  0  0
  -28.2596  -38.0104   24.7516 H   0  0  0  0  0  0
  -28.1080  -36.2637   24.6271 H   0  0  0  0  0  0
  -27.2306  -37.1440   25.8866 H   0  0  0  0  0  0
  -20.9336  -29.8754   21.6914 H   0  0  0  0  0  0
  -26.0178  -38.2864   24.1414 H   0  0  0  0  0  0
  -31.9592  -17.3366   19.8463 H   0  0  0  0  0  0
  -29.8802  -21.8122   18.9487 H   0  0  0  0  0  0
  -28.2966  -21.1114   18.7501 H   0  0  0  0  0  0
  -29.9706  -21.3254   22.6997 H   0  0  0  0  0  0
  -30.8991  -21.9534   21.3630 H   0  0  0  0  0  0
  -27.2219  -22.9678   19.9450 H   0  0  0  0  0  0
  -28.1920  -23.6166   18.6568 H   0  0  0  0  0  0
  -29.8249  -23.7982   22.6314 H   0  0  0  0  0  0
  -28.2588  -23.0671   22.4459 H   0  0  0  0  0  0
  -28.0859  -20.8314   21.1899 H   0  0  0  0  0  0
  -29.9518  -24.3137   20.2397 H   0  0  0  0  0  0
  -28.5175  -25.7140   21.9627 H   0  0  0  0  0  0
  -27.1383  -25.1177   21.1202 H   0  0  0  0  0  0
  -28.9700  -15.2961   21.3158 H   0  0  0  0  0  0
  1 25  1  0  0  0
  1 30  2  0  0  0
  1 82  1  0  0  0
  2  3  1  0  0  0
  2 25  1  0  0  0
  2 84  1  0  0  0
  2 85  1  0  0  0
  3  4  1  0  0  0
  3 86  1  0  0  0
  3 87  1  0  0  0
  4  5  1  0  0  0
  4 88  1  0  0  0
  4 89  1  0  0  0
  5  6  1  0  0  0
  5 26  1  0  0  0
  5 90  1  0  0  0
  6 25  1  0  0  0
  6 91  1  0  0  0
  6 92  1  0  0  0
  7  8  2  0  0  0
  7 26  1  0  0  0
  7 29  1  0  0  0
  8  9  1  0  0  0
  8 22  1  0  0  0
  9 10  1  0  0  0
  9 27  2  0  0  0
 10 11  2  0  0  0
 10 15  1  0  0  0
 11 12  1  0  0  0
 11 93  1  0  0  0
 12 13  2  0  0  0
 12 94  1  0  0  0
 13 14  1  0  0  0
 13 31  1  0  0  0
 14 15  2  0  0  0
 14 95  1  0  0  0
 15 96  1  0  0  0
 16 17  2  0  0  0
 16 21  1  0  0  0
 16 31  1  0  0  0
 17 18  1  0  0  0
 17 97  1  0  0  0
 18 19  2  0  0  0
 18 98  1  0  0  0
 19 20  1  0  0  0
 19 24  1  0  0  0
 20 21  2  0  0  0
 20 99  1  0  0  0
 21 23  1  0  0  0
 22 28  1  0  0  0
 22 32  2  0  0  0
 26 27  1  0  0  0
 28100  1  0  0  0
 28101  1  0  0  0
 29102  1  0  0  0
 29103  1  0  0  0
 33 34  1  0  0  0
 33 66  1  0  0  0
 33 70  2  0  0  0
 34 36  1  0  0  0
 34 59  1  0  0  0
 34104  1  0  0  0
 35 44  2  0  0  0
 35 45  1  0  0  0
 35 68  1  0  0  0
 36 56  1  0  0  0
 36105  1  0  0  0
 37 39  1  0  0  0
 37 47  1  0  0  0
 37 66  1  0  0  0
 37106  1  0  0  0
 38 43  2  0  0  0
 38 46  1  0  0  0
 38 47  1  0  0  0
 39 64  1  0  0  0
 39 67  2  0  0  0
 40 52  1  0  0  0
 40 53  2  0  0  0
 40 58  1  0  0  0
 41107  1  0  0  0
 41108  1  0  0  0
 41109  1  0  0  0
 41 48  1  0  0  0
 42 43  1  0  0  0
 42 66  1  0  0  0
 42110  1  0  0  0
 42111  1  0  0  0
 43 44  1  0  0  0
 44112  1  0  0  0
 45 46  2  0  0  0
 45113  1  0  0  0
 46114  1  0  0  0
 47115  1  0  0  0
 47116  1  0  0  0
 48 56  1  0  0  0
 48 65  1  0  0  0
 48117  1  0  0  0
 49 50  1  0  0  0
 49 53  1  0  0  0
 49 64  1  0  0  0
 49118  1  0  0  0
 50 51  1  0  0  0
 50119  1  0  0  0
 50120  1  0  0  0
 51 52  1  0  0  0
 51121  1  0  0  0
 51122  1  0  0  0
 52123  1  0  0  0
 52124  1  0  0  0
 53 54  1  0  0  0
 54 55  2  0  0  0
 54125  1  0  0  0
 55 57  1  0  0  0
 55126  1  0  0  0
 56 69  2  0  0  0
 57 58  2  0  0  0
 57127  1  0  0  0
 58128  1  0  0  0
 59 60  1  0  0  0
 59 61  1  0  0  0
 59 62  1  0  0  0
 60129  1  0  0  0
 60130  1  0  0  0
 60131  1  0  0  0
 61132  1  0  0  0
 61133  1  0  0  0
 61134  1  0  0  0
 62135  1  0  0  0
 62136  1  0  0  0
 62137  1  0  0  0
 63 65  1  0  0  0
 63138  1  0  0  0
 63139  1  0  0  0
 63140  1  0  0  0
 64141  1  0  0  0
 65142  1  0  0  0
 68 80  1  0  0  0
 71 72  2  0  0  0
 71 81  1  0  0  0
 71143  1  0  0  0
 72 82  1  0  0  0
 72 83  1  0  0  0
 73 81  2  0  0  0
 73 83  1  0  0  0
 73 78  1  0  0  0
 74 76  1  0  0  0
 74 78  1  0  0  0
 74144  1  0  0  0
 74145  1  0  0  0
 75 77  1  0  0  0
 75 78  1  0  0  0
 75146  1  0  0  0
 75147  1  0  0  0
 76 79  1  0  0  0
 76148  1  0  0  0
 76149  1  0  0  0
 77 79  1  0  0  0
 77150  1  0  0  0
 77151  1  0  0  0
 78152  1  0  0  0
 79 80  1  0  0  0
 79153  1  0  0  0
 80154  1  0  0  0
 80155  1  0  0  0
 82156  1  0  0  0
M  ISO  4   1 100  68 101  80 101  82 100
M  END
> <chiral flag>
0

> <version>
0

> <s_m_source_file>
/data/baiqing/PycharmProjects/Reinvent-master-3.2/result/LINK_invent/BTK/process_docking_weight1_custom_product_contain_oxygen_bond_distance_aromatic_linkinvent_7_9_3/rearranged_h_0100.sdf

> <i_m_source_file_index>
44

> <r_mmod_Potential_Energy-OPLS-2005>
-10.1645841598511

> <r_mmod_Stretch_Energy-OPLS-2005>
52.5195121765137

> <r_mmod_Bend_Energy-OPLS-2005>
120.034507751465

> <r_mmod_Torsional_Energy-OPLS-2005>
228.221588134766

> <r_mmod_Improper_Torsional_Energy-OPLS-2005>
3.92369270324707

> <r_mmod_Van_der_Waal_Energy-OPLS-2005>
122.930488586426

> <r_mmod_Electrostatic_Energy-OPLS-2005>
-360.649810791016

> <r_mmod_Solvation_Energy-OPLS-2005>
-205.834014892578

> <b_mmod_Minimization_Converged-OPLS-2005>
0

> <r_mmod_RMS_Derivative-OPLS-2005>
0.296288222074509

$$$$
45
                    3D
 Structure written by MMmdl.
159167  0  0  1  0            999 V2000
  -30.7069  -14.4871   20.5965 C   0  0  0  0  0  0
  -30.4262  -12.3319   19.4113 C   0  0  0  0  0  0
  -29.4912  -12.5067   18.1979 C   0  0  0  0  0  0
  -28.0134  -12.3608   18.6149 C   0  0  0  0  0  0
  -27.6583  -13.2079   19.8665 C   0  0  2  0  0  0
  -28.7019  -12.9997   20.9846 C   0  0  0  0  0  0
  -25.2569  -13.8155   20.5664 C   0  0  0  0  0  0
  -24.1830  -13.0437   20.9168 C   0  0  0  0  0  0
  -24.6391  -11.6898   20.8727 C   0  0  0  0  0  0
  -23.9058  -10.4288   21.0401 C   0  0  0  0  0  0
  -24.3615   -9.4207   21.9186 C   0  0  0  0  0  0
  -23.6292   -8.2243   22.0755 C   0  0  0  0  0  0
  -22.4274   -8.0281   21.3541 C   0  0  0  0  0  0
  -21.9905   -9.0253   20.4642 C   0  0  0  0  0  0
  -22.7228  -10.2133   20.3053 C   0  0  0  0  0  0
  -21.6852   -6.0733   22.5277 C   0  0  0  0  0  0
  -21.4016   -6.5640   23.8208 C   0  0  0  0  0  0
  -21.3658   -5.6793   24.9174 C   0  0  0  0  0  0
  -21.6042   -4.3055   24.7224 C   0  0  0  0  0  0
  -21.8825   -3.8148   23.4343 C   0  0  0  0  0  0
  -21.9193   -4.6962   22.3401 C   0  0  0  0  0  0
  -22.7849  -13.5227   21.1840 C   0  0  0  0  0  0
  -22.1661   -4.2148   21.0977 F   0  0  0  0  0  0
  -21.5627   -3.4543   25.7738 F   0  0  0  0  0  0
  -30.0253  -13.3205   20.4240 N   0  0  0  0  0  0
  -26.3013  -12.9338   20.3340 N   0  0  0  0  0  0
  -25.9323  -11.6492   20.5751 N   0  0  0  0  0  0
  -22.0498  -12.8225   22.0396 N   0  0  0  0  0  0
  -25.4290  -15.1874   20.4061 N   0  0  0  0  0  0
  -31.8360  -14.6742   20.1370 O   0  0  0  0  0  0
  -21.6634   -6.8880   21.4239 O   0  0  0  0  0  0
  -22.3534  -14.5538   20.6688 O   0  0  0  0  0  0
  -24.6159  -31.8675   23.2084 C   0  0  0  0  0  0
  -25.9051  -32.4815   23.8373 C   0  0  1  0  0  0
  -27.2316  -27.4152   20.0877 C   0  0  0  0  0  0
  -25.5900  -33.8614   24.2299 N   0  0  0  0  0  0
  -23.4053  -30.4922   21.5500 C   0  0  2  0  0  0
  -24.8496  -28.9593   20.1114 C   0  0  0  0  0  0
  -22.7410  -29.4664   22.4968 C   0  0  0  0  0  0
  -18.0281  -28.1378   22.8465 C   0  0  0  0  0  0
  -24.1509  -36.7322   23.2635 C   0  0  0  0  0  0
  -25.9387  -30.8247   21.3678 C   0  0  0  0  0  0
  -26.0133  -29.4605   20.7087 C   0  0  0  0  0  0
  -27.2061  -28.6967   20.6926 C   0  0  0  0  0  0
  -26.0443  -26.9411   19.4786 C   0  0  0  0  0  0
  -24.8612  -27.7003   19.4923 C   0  0  0  0  0  0
  -23.6134  -29.8273   20.1643 C   0  0  0  0  0  0
  -25.4125  -36.3106   24.0334 C   0  0  1  0  0  0
  -20.5872  -28.3672   23.1297 C   0  0  2  0  0  0
  -20.6789  -26.9406   22.5409 C   0  0  0  0  0  0
  -19.5766  -26.6389   21.5202 C   0  0  0  0  0  0
  -18.1930  -26.7921   22.1607 C   0  0  0  0  0  0
  -19.1526  -28.8835   23.2876 C   0  0  0  0  0  0
  -18.9459  -30.1442   23.8884 C   0  0  0  0  0  0
  -17.6470  -30.6578   24.0561 C   0  0  0  0  0  0
  -25.9055  -34.9475   23.5115 C   0  0  0  0  0  0
  -16.5351  -29.9081   23.6337 C   0  0  0  0  0  0
  -16.7267  -28.6505   23.0336 C   0  0  0  0  0  0
  -26.4466  -31.6595   25.0707 C   0  0  0  0  0  0
  -25.3713  -31.3724   26.1445 C   0  0  0  0  0  0
  -27.0295  -30.3031   24.6114 C   0  0  0  0  0  0
  -27.6032  -32.4320   25.7469 C   0  0  0  0  0  0
  -27.5595  -37.1808   24.8454 C   0  0  0  0  0  0
  -21.4140  -29.3036   22.3704 N   0  0  0  0  0  0
  -26.4310  -37.3794   23.9402 N   0  0  0  0  0  0
  -24.6714  -31.0753   22.1002 N   0  0  0  0  0  0
  -23.4165  -28.8207   23.3025 O   0  0  0  0  0  0
  -28.3970  -26.6610   20.1118 O   0  0  0  0  0  0
  -26.5622  -34.8931   22.4685 O   0  0  0  0  0  0
  -23.5356  -32.1450   23.7467 O   0  0  0  0  0  0
  -30.1597  -18.4250   20.2737 C   0  0  0  0  0  0
  -30.5621  -20.4131   22.2133 C   0  0  0  0  0  0
  -30.4509  -18.0301   21.6048 C   0  0  0  0  0  0
  -30.6258  -19.0500   22.5796 C   0  0  0  0  0  0
  -30.0938  -19.7985   19.9148 C   0  0  0  0  0  0
  -30.3171  -20.8083   20.8861 C   0  0  0  0  0  0
  -30.9134  -18.7148   24.0371 C   0  0  0  0  0  0
  -30.6755  -16.5545   22.0129 C   0  0  0  0  0  0
  -29.4969  -24.4038   20.2981 C   0  0  0  0  0  0
  -28.2640  -25.2418   19.8816 C   0  0  0  0  0  0
  -29.2418  -22.8708   20.2416 C   0  0  0  0  0  0
  -29.8677  -20.1639   18.5888 N   0  0  0  0  0  0
  -30.0479  -15.4615   21.2542 N   0  0  0  0  0  0
  -30.4337  -22.1528   20.5720 O   0  0  0  0  0  0
  -31.4674  -12.4454   19.1045 H   0  0  0  0  0  0
  -30.3449  -11.3235   19.8200 H   0  0  0  0  0  0
  -29.7346  -11.7739   17.4269 H   0  0  0  0  0  0
  -29.6505  -13.4891   17.7490 H   0  0  0  0  0  0
  -27.8298  -11.3048   18.8191 H   0  0  0  0  0  0
  -27.3607  -12.6275   17.7824 H   0  0  0  0  0  0
  -27.6984  -14.2549   19.5632 H   0  0  0  0  0  0
  -28.6913  -11.9634   21.3251 H   0  0  0  0  0  0
  -28.4568  -13.5951   21.8650 H   0  0  0  0  0  0
  -25.2765   -9.5683   22.4751 H   0  0  0  0  0  0
  -24.0000   -7.4634   22.7477 H   0  0  0  0  0  0
  -21.0837   -8.8772   19.8949 H   0  0  0  0  0  0
  -22.3693  -10.9673   19.6156 H   0  0  0  0  0  0
  -21.2016   -7.6148   23.9715 H   0  0  0  0  0  0
  -21.1470   -6.0521   25.9074 H   0  0  0  0  0  0
  -22.0604   -2.7608   23.2844 H   0  0  0  0  0  0
  -22.4123  -11.9885   22.4777 H   0  0  0  0  0  0
  -21.1111  -13.1244   22.2607 H   0  0  0  0  0  0
  -24.6643  -15.8438   20.5162 H   0  0  0  0  0  0
  -26.2827  -15.6247   20.0843 H   0  0  0  0  0  0
  -26.7115  -32.5516   23.1122 H   0  0  0  0  0  0
  -25.0012  -33.9761   25.0422 H   0  0  0  0  0  0
  -22.6941  -31.3088   21.4097 H   0  0  0  0  0  0
  -23.3764  -35.9665   23.3301 H   0  0  0  0  0  0
  -24.3594  -36.8943   22.2052 H   0  0  0  0  0  0
  -23.7271  -37.6531   23.6650 H   0  0  0  0  0  0
  -26.0590  -31.5938   20.6038 H   0  0  0  0  0  0
  -26.8239  -30.8697   21.9912 H   0  0  0  0  0  0
  -28.1038  -29.0793   21.1561 H   0  0  0  0  0  0
  -26.0052  -25.9826   18.9815 H   0  0  0  0  0  0
  -23.9691  -27.3109   19.0217 H   0  0  0  0  0  0
  -23.7173  -30.6028   19.4035 H   0  0  0  0  0  0
  -22.7376  -29.2450   19.8718 H   0  0  0  0  0  0
  -25.1298  -36.1974   25.0829 H   0  0  0  0  0  0
  -20.9947  -28.3261   24.1426 H   0  0  0  0  0  0
  -20.5732  -26.2263   23.3597 H   0  0  0  0  0  0
  -21.6657  -26.7488   22.1158 H   0  0  0  0  0  0
  -19.6953  -25.6304   21.1223 H   0  0  0  0  0  0
  -19.6730  -27.3219   20.6743 H   0  0  0  0  0  0
  -17.4213  -26.6661   21.3999 H   0  0  0  0  0  0
  -18.0331  -26.0073   22.9015 H   0  0  0  0  0  0
  -19.7952  -30.7248   24.2254 H   0  0  0  0  0  0
  -17.5037  -31.6273   24.5153 H   0  0  0  0  0  0
  -15.5349  -30.2976   23.7696 H   0  0  0  0  0  0
  -15.8666  -28.0840   22.7031 H   0  0  0  0  0  0
  -24.5889  -30.7071   25.7787 H   0  0  0  0  0  0
  -24.8885  -32.2884   26.4863 H   0  0  0  0  0  0
  -25.8037  -30.8912   27.0223 H   0  0  0  0  0  0
  -26.2852  -29.6792   24.1154 H   0  0  0  0  0  0
  -27.4044  -29.7274   25.4580 H   0  0  0  0  0  0
  -27.8695  -30.4339   23.9285 H   0  0  0  0  0  0
  -27.2652  -33.3625   26.2053 H   0  0  0  0  0  0
  -28.3833  -32.6884   25.0283 H   0  0  0  0  0  0
  -28.0719  -31.8441   26.5381 H   0  0  0  0  0  0
  -28.2583  -38.0128   24.7526 H   0  0  0  0  0  0
  -28.1116  -36.2661   24.6247 H   0  0  0  0  0  0
  -27.2306  -37.1419   25.8850 H   0  0  0  0  0  0
  -20.9315  -29.8716   21.6885 H   0  0  0  0  0  0
  -26.0204  -38.2871   24.1412 H   0  0  0  0  0  0
  -30.0344  -17.6649   19.5153 H   0  0  0  0  0  0
  -30.7339  -21.1758   22.9590 H   0  0  0  0  0  0
  -31.2016  -19.5996   24.6049 H   0  0  0  0  0  0
  -31.7253  -17.9930   24.1307 H   0  0  0  0  0  0
  -30.0254  -18.2976   24.5123 H   0  0  0  0  0  0
  -30.2957  -16.4178   23.0256 H   0  0  0  0  0  0
  -31.7523  -16.3919   22.0910 H   0  0  0  0  0  0
  -29.7970  -24.6797   21.3097 H   0  0  0  0  0  0
  -30.3361  -24.6557   19.6486 H   0  0  0  0  0  0
  -27.4060  -24.8631   20.4403 H   0  0  0  0  0  0
  -28.0672  -25.0669   18.8229 H   0  0  0  0  0  0
  -28.9135  -22.5939   19.2415 H   0  0  0  0  0  0
  -28.4419  -22.6002   20.9324 H   0  0  0  0  0  0
  -30.0167  -19.4716   17.8639 H   0  0  0  0  0  0
  -30.2072  -21.0827   18.3243 H   0  0  0  0  0  0
  -29.0959  -15.2449   21.5060 H   0  0  0  0  0  0
  1 25  1  0  0  0
  1 30  2  0  0  0
  1 83  1  0  0  0
  2  3  1  0  0  0
  2 25  1  0  0  0
  2 85  1  0  0  0
  2 86  1  0  0  0
  3  4  1  0  0  0
  3 87  1  0  0  0
  3 88  1  0  0  0
  4  5  1  0  0  0
  4 89  1  0  0  0
  4 90  1  0  0  0
  5  6  1  0  0  0
  5 26  1  0  0  0
  5 91  1  0  0  0
  6 25  1  0  0  0
  6 92  1  0  0  0
  6 93  1  0  0  0
  7  8  2  0  0  0
  7 26  1  0  0  0
  7 29  1  0  0  0
  8  9  1  0  0  0
  8 22  1  0  0  0
  9 10  1  0  0  0
  9 27  2  0  0  0
 10 11  2  0  0  0
 10 15  1  0  0  0
 11 12  1  0  0  0
 11 94  1  0  0  0
 12 13  2  0  0  0
 12 95  1  0  0  0
 13 14  1  0  0  0
 13 31  1  0  0  0
 14 15  2  0  0  0
 14 96  1  0  0  0
 15 97  1  0  0  0
 16 17  2  0  0  0
 16 21  1  0  0  0
 16 31  1  0  0  0
 17 18  1  0  0  0
 17 98  1  0  0  0
 18 19  2  0  0  0
 18 99  1  0  0  0
 19 20  1  0  0  0
 19 24  1  0  0  0
 20 21  2  0  0  0
 20100  1  0  0  0
 21 23  1  0  0  0
 22 28  1  0  0  0
 22 32  2  0  0  0
 26 27  1  0  0  0
 28101  1  0  0  0
 28102  1  0  0  0
 29103  1  0  0  0
 29104  1  0  0  0
 33 34  1  0  0  0
 33 66  1  0  0  0
 33 70  2  0  0  0
 34 36  1  0  0  0
 34 59  1  0  0  0
 34105  1  0  0  0
 35 44  2  0  0  0
 35 45  1  0  0  0
 35 68  1  0  0  0
 36 56  1  0  0  0
 36106  1  0  0  0
 37 39  1  0  0  0
 37 47  1  0  0  0
 37 66  1  0  0  0
 37107  1  0  0  0
 38 43  2  0  0  0
 38 46  1  0  0  0
 38 47  1  0  0  0
 39 64  1  0  0  0
 39 67  2  0  0  0
 40 52  1  0  0  0
 40 53  2  0  0  0
 40 58  1  0  0  0
 41108  1  0  0  0
 41109  1  0  0  0
 41110  1  0  0  0
 41 48  1  0  0  0
 42 43  1  0  0  0
 42 66  1  0  0  0
 42111  1  0  0  0
 42112  1  0  0  0
 43 44  1  0  0  0
 44113  1  0  0  0
 45 46  2  0  0  0
 45114  1  0  0  0
 46115  1  0  0  0
 47116  1  0  0  0
 47117  1  0  0  0
 48 56  1  0  0  0
 48 65  1  0  0  0
 48118  1  0  0  0
 49 50  1  0  0  0
 49 53  1  0  0  0
 49 64  1  0  0  0
 49119  1  0  0  0
 50 51  1  0  0  0
 50120  1  0  0  0
 50121  1  0  0  0
 51 52  1  0  0  0
 51122  1  0  0  0
 51123  1  0  0  0
 52124  1  0  0  0
 52125  1  0  0  0
 53 54  1  0  0  0
 54 55  2  0  0  0
 54126  1  0  0  0
 55 57  1  0  0  0
 55127  1  0  0  0
 56 69  2  0  0  0
 57 58  2  0  0  0
 57128  1  0  0  0
 58129  1  0  0  0
 59 60  1  0  0  0
 59 61  1  0  0  0
 59 62  1  0  0  0
 60130  1  0  0  0
 60131  1  0  0  0
 60132  1  0  0  0
 61133  1  0  0  0
 61134  1  0  0  0
 61135  1  0  0  0
 62136  1  0  0  0
 62137  1  0  0  0
 62138  1  0  0  0
 63 65  1  0  0  0
 63139  1  0  0  0
 63140  1  0  0  0
 63141  1  0  0  0
 64142  1  0  0  0
 65143  1  0  0  0
 68 80  1  0  0  0
 71 73  2  0  0  0
 71 75  1  0  0  0
 71144  1  0  0  0
 72 74  2  0  0  0
 72 76  1  0  0  0
 72145  1  0  0  0
 73 74  1  0  0  0
 73 78  1  0  0  0
 74 77  1  0  0  0
 75 76  2  0  0  0
 75 82  1  0  0  0
 76 84  1  0  0  0
 77146  1  0  0  0
 77147  1  0  0  0
 77148  1  0  0  0
 78 83  1  0  0  0
 78149  1  0  0  0
 78150  1  0  0  0
 79 80  1  0  0  0
 79 81  1  0  0  0
 79151  1  0  0  0
 79152  1  0  0  0
 80153  1  0  0  0
 80154  1  0  0  0
 81 84  1  0  0  0
 81155  1  0  0  0
 81156  1  0  0  0
 82157  1  0  0  0
 82158  1  0  0  0
 83159  1  0  0  0
M  ISO  4   1 100  68 101  80 101  83 100
M  END
> <chiral flag>
0

> <version>
0

> <s_m_source_file>
/data/baiqing/PycharmProjects/Reinvent-master-3.2/result/LINK_invent/BTK/process_docking_weight1_custom_product_contain_oxygen_bond_distance_aromatic_linkinvent_7_9_3/rearranged_h_0100.sdf

> <i_m_source_file_index>
45

> <r_mmod_Potential_Energy-OPLS-2005>
-125.738906860352

> <r_mmod_Stretch_Energy-OPLS-2005>
41.6724700927734

> <r_mmod_Bend_Energy-OPLS-2005>
105.88077545166

> <r_mmod_Torsional_Energy-OPLS-2005>
230.931289672852

> <r_mmod_Improper_Torsional_Energy-OPLS-2005>
7.47360992431641

> <r_mmod_Van_der_Waal_Energy-OPLS-2005>
157.685958862305

> <r_mmod_Electrostatic_Energy-OPLS-2005>
-463.920684814453

> <r_mmod_Solvation_Energy-OPLS-2005>
-221.347640991211

> <b_mmod_Minimization_Converged-OPLS-2005>
0

> <r_mmod_RMS_Derivative-OPLS-2005>
2.43407273292542

$$$$
46
                    3D
 Structure written by MMmdl.
159168  0  0  1  0            999 V2000
  -30.6000  -14.7656   20.4730 C   0  0  0  0  0  0
  -30.4467  -12.4709   19.4719 C   0  0  0  0  0  0
  -29.5157  -12.5174   18.2384 C   0  0  0  0  0  0
  -28.0418  -12.3335   18.6519 C   0  0  0  0  0  0
  -27.6431  -13.2285   19.8551 C   0  0  2  0  0  0
  -28.6942  -13.1554   20.9874 C   0  0  0  0  0  0
  -25.2378  -13.8013   20.5593 C   0  0  0  0  0  0
  -24.1743  -13.0292   20.9243 C   0  0  0  0  0  0
  -24.6400  -11.6812   20.8797 C   0  0  0  0  0  0
  -23.9084  -10.4215   21.0432 C   0  0  0  0  0  0
  -24.3622   -9.4133   21.9210 C   0  0  0  0  0  0
  -23.6274   -8.2186   22.0764 C   0  0  0  0  0  0
  -22.4261   -8.0248   21.3545 C   0  0  0  0  0  0
  -21.9909   -9.0227   20.4649 C   0  0  0  0  0  0
  -22.7256  -10.2090   20.3064 C   0  0  0  0  0  0
  -21.6838   -6.0722   22.5279 C   0  0  0  0  0  0
  -21.4004   -6.5629   23.8213 C   0  0  0  0  0  0
  -21.3653   -5.6781   24.9175 C   0  0  0  0  0  0
  -21.6044   -4.3047   24.7226 C   0  0  0  0  0  0
  -21.8820   -3.8137   23.4349 C   0  0  0  0  0  0
  -21.9186   -4.6951   22.3405 C   0  0  0  0  0  0
  -22.7770  -13.5109   21.1881 C   0  0  0  0  0  0
  -22.1658   -4.2136   21.0982 F   0  0  0  0  0  0
  -21.5628   -3.4533   25.7743 F   0  0  0  0  0  0
  -29.9986  -13.5239   20.4115 N   0  0  0  0  0  0
  -26.2927  -12.9327   20.3296 N   0  0  0  0  0  0
  -25.9349  -11.6470   20.5823 N   0  0  0  0  0  0
  -22.0407  -12.8139   22.0459 N   0  0  0  0  0  0
  -25.3713  -15.1659   20.3725 N   0  0  0  0  0  0
  -31.7829  -14.8974   20.1456 O   0  0  0  0  0  0
  -21.6613   -6.8859   21.4242 O   0  0  0  0  0  0
  -22.3470  -14.5423   20.6718 O   0  0  0  0  0  0
  -24.6296  -31.8551   23.1986 C   0  0  0  0  0  0
  -25.9122  -32.4756   23.8338 C   0  0  1  0  0  0
  -27.2406  -27.2834   20.1360 C   0  0  0  0  0  0
  -25.5919  -33.8558   24.2261 N   0  0  0  0  0  0
  -23.4288  -30.4739   21.5402 C   0  0  2  0  0  0
  -24.8839  -28.9180   20.1170 C   0  0  0  0  0  0
  -22.7504  -29.4592   22.4916 C   0  0  0  0  0  0
  -18.0295  -28.1385   22.8481 C   0  0  0  0  0  0
  -24.1484  -36.7280   23.2640 C   0  0  0  0  0  0
  -25.9724  -30.7740   21.3775 C   0  0  0  0  0  0
  -26.0527  -29.3948   20.7271 C   0  0  0  0  0  0
  -27.2366  -28.5889   20.7287 C   0  0  0  0  0  0
  -26.0510  -26.8634   19.5084 C   0  0  0  0  0  0
  -24.8857  -27.6570   19.4984 C   0  0  0  0  0  0
  -23.6508  -29.8015   20.1592 C   0  0  0  0  0  0
  -25.4109  -36.3069   24.0330 C   0  0  1  0  0  0
  -20.5896  -28.3695   23.1266 C   0  0  2  0  0  0
  -20.6778  -26.9412   22.5406 C   0  0  0  0  0  0
  -19.5756  -26.6381   21.5208 C   0  0  0  0  0  0
  -18.1938  -26.7926   22.1623 C   0  0  0  0  0  0
  -19.1547  -28.8858   23.2868 C   0  0  0  0  0  0
  -18.9470  -30.1457   23.8890 C   0  0  0  0  0  0
  -17.6467  -30.6581   24.0565 C   0  0  0  0  0  0
  -25.9050  -34.9441   23.5100 C   0  0  0  0  0  0
  -16.5357  -29.9079   23.6331 C   0  0  0  0  0  0
  -16.7280  -28.6499   23.0350 C   0  0  0  0  0  0
  -26.4497  -31.6577   25.0722 C   0  0  0  0  0  0
  -25.3721  -31.3729   26.1445 C   0  0  0  0  0  0
  -27.0348  -30.2994   24.6204 C   0  0  0  0  0  0
  -27.6052  -32.4317   25.7490 C   0  0  0  0  0  0
  -27.5577  -37.1790   24.8462 C   0  0  0  0  0  0
  -21.4212  -29.3034   22.3653 N   0  0  0  0  0  0
  -26.4282  -37.3769   23.9417 N   0  0  0  0  0  0
  -24.6952  -31.0522   22.0956 N   0  0  0  0  0  0
  -23.4199  -28.8147   23.3032 O   0  0  0  0  0  0
  -28.3201  -26.3774   20.1147 O   0  0  0  0  0  0
  -26.5627  -34.8915   22.4671 O   0  0  0  0  0  0
  -23.5445  -32.1369   23.7278 O   0  0  0  0  0  0
  -28.6518  -19.5634   20.5779 C   0  0  0  0  0  0
  -31.0559  -18.1252   20.6944 C   0  0  0  0  0  0
  -28.6692  -18.1290   20.5813 C   0  0  0  0  0  0
  -29.8267  -20.3436   20.6767 C   0  0  0  0  0  0
  -29.8654  -17.3408   20.6409 C   0  0  0  0  0  0
  -31.0331  -19.5680   20.7332 C   0  0  0  0  0  0
  -28.7000  -24.0198   21.1392 C   0  0  0  0  0  0
  -28.3622  -25.3726   21.1053 C   0  0  0  0  0  0
  -28.7328  -23.2875   22.4622 C   0  0  0  0  0  0
  -29.1403  -22.9034   20.1313 C   0  0  0  0  0  0
  -29.7465  -22.1377   22.3092 C   0  0  0  0  0  0
  -27.3337  -17.4345   20.5408 C   0  0  0  0  0  0
  -29.8159  -21.7846   20.8930 N   0  0  0  0  0  0
  -32.2376  -20.2610   20.8594 N   0  0  0  0  0  0
  -29.7660  -15.8489   20.7115 N   0  0  0  0  0  0
  -31.4842  -12.6143   19.1650 H   0  0  0  0  0  0
  -30.4079  -11.4918   19.9519 H   0  0  0  0  0  0
  -29.8007  -11.7465   17.5211 H   0  0  0  0  0  0
  -29.6347  -13.4722   17.7240 H   0  0  0  0  0  0
  -27.9037  -11.2839   18.9137 H   0  0  0  0  0  0
  -27.3838  -12.5252   17.8033 H   0  0  0  0  0  0
  -27.6334  -14.2516   19.4798 H   0  0  0  0  0  0
  -28.7362  -12.1510   21.4107 H   0  0  0  0  0  0
  -28.4242  -13.8185   21.8104 H   0  0  0  0  0  0
  -25.2766   -9.5594   22.4789 H   0  0  0  0  0  0
  -23.9962   -7.4574   22.7490 H   0  0  0  0  0  0
  -21.0834   -8.8764   19.8961 H   0  0  0  0  0  0
  -22.3738  -10.9636   19.6174 H   0  0  0  0  0  0
  -21.1997   -7.6139   23.9711 H   0  0  0  0  0  0
  -21.1473   -6.0516   25.9075 H   0  0  0  0  0  0
  -22.0607   -2.7598   23.2859 H   0  0  0  0  0  0
  -22.4010  -11.9810   22.4871 H   0  0  0  0  0  0
  -21.1034  -13.1199   22.2658 H   0  0  0  0  0  0
  -24.5680  -15.7820   20.4321 H   0  0  0  0  0  0
  -26.1616  -15.5894   19.9088 H   0  0  0  0  0  0
  -26.7193  -32.5428   23.1089 H   0  0  0  0  0  0
  -25.0057  -33.9693   25.0398 H   0  0  0  0  0  0
  -22.7242  -31.2944   21.3898 H   0  0  0  0  0  0
  -23.3748  -35.9610   23.3295 H   0  0  0  0  0  0
  -24.3578  -36.8908   22.2055 H   0  0  0  0  0  0
  -23.7234  -37.6478   23.6666 H   0  0  0  0  0  0
  -26.1071  -31.5326   20.6052 H   0  0  0  0  0  0
  -26.8503  -30.8284   22.0092 H   0  0  0  0  0  0
  -28.1348  -28.9518   21.2082 H   0  0  0  0  0  0
  -26.0237  -25.8907   19.0381 H   0  0  0  0  0  0
  -23.9915  -27.2828   19.0189 H   0  0  0  0  0  0
  -23.7725  -30.5745   19.3995 H   0  0  0  0  0  0
  -22.7719  -29.2295   19.8566 H   0  0  0  0  0  0
  -25.1287  -36.1915   25.0822 H   0  0  0  0  0  0
  -20.9987  -28.3278   24.1387 H   0  0  0  0  0  0
  -20.5671  -26.2308   23.3611 H   0  0  0  0  0  0
  -21.6648  -26.7427   22.1208 H   0  0  0  0  0  0
  -19.6917  -25.6293   21.1234 H   0  0  0  0  0  0
  -19.6690  -27.3195   20.6742 H   0  0  0  0  0  0
  -17.4204  -26.6667   21.4031 H   0  0  0  0  0  0
  -18.0343  -26.0068   22.9021 H   0  0  0  0  0  0
  -19.7946  -30.7276   24.2252 H   0  0  0  0  0  0
  -17.5021  -31.6257   24.5173 H   0  0  0  0  0  0
  -15.5357  -30.2978   23.7659 H   0  0  0  0  0  0
  -15.8683  -28.0814   22.7069 H   0  0  0  0  0  0
  -24.5895  -30.7076   25.7777 H   0  0  0  0  0  0
  -24.8915  -32.2901   26.4861 H   0  0  0  0  0  0
  -25.8039  -30.8913   27.0228 H   0  0  0  0  0  0
  -26.2936  -29.6732   24.1223 H   0  0  0  0  0  0
  -27.4028  -29.7264   25.4726 H   0  0  0  0  0  0
  -27.8812  -30.4270   23.9452 H   0  0  0  0  0  0
  -27.2663  -33.3622   26.2055 H   0  0  0  0  0  0
  -28.3867  -32.6865   25.0320 H   0  0  0  0  0  0
  -28.0713  -31.8451   26.5415 H   0  0  0  0  0  0
  -28.2582  -38.0099   24.7528 H   0  0  0  0  0  0
  -28.1085  -36.2633   24.6258 H   0  0  0  0  0  0
  -27.2303  -37.1401   25.8866 H   0  0  0  0  0  0
  -20.9404  -29.8737   21.6835 H   0  0  0  0  0  0
  -26.0159  -38.2837   24.1438 H   0  0  0  0  0  0
  -27.7026  -20.0791   20.5612 H   0  0  0  0  0  0
  -32.0050  -17.6125   20.7551 H   0  0  0  0  0  0
  -28.1007  -25.8319   22.0493 H   0  0  0  0  0  0
  -27.7385  -22.8755   22.6403 H   0  0  0  0  0  0
  -28.9750  -23.9410   23.3015 H   0  0  0  0  0  0
  -29.8073  -23.3248   19.3777 H   0  0  0  0  0  0
  -28.2595  -22.5173   19.6165 H   0  0  0  0  0  0
  -29.4689  -21.2907   22.9403 H   0  0  0  0  0  0
  -30.7360  -22.4661   22.6306 H   0  0  0  0  0  0
  -26.5008  -18.1375   20.5791 H   0  0  0  0  0  0
  -27.2389  -16.7631   21.3948 H   0  0  0  0  0  0
  -27.2562  -16.8709   19.6120 H   0  0  0  0  0  0
  -33.0599  -19.8564   20.4255 H   0  0  0  0  0  0
  -32.1434  -21.2563   20.6754 H   0  0  0  0  0  0
  -28.8288  -15.5295   20.8971 H   0  0  0  0  0  0
  1 25  1  0  0  0
  1 30  2  0  0  0
  1 85  1  0  0  0
  2  3  1  0  0  0
  2 25  1  0  0  0
  2 86  1  0  0  0
  2 87  1  0  0  0
  3  4  1  0  0  0
  3 88  1  0  0  0
  3 89  1  0  0  0
  4  5  1  0  0  0
  4 90  1  0  0  0
  4 91  1  0  0  0
  5  6  1  0  0  0
  5 26  1  0  0  0
  5 92  1  0  0  0
  6 25  1  0  0  0
  6 93  1  0  0  0
  6 94  1  0  0  0
  7  8  2  0  0  0
  7 26  1  0  0  0
  7 29  1  0  0  0
  8  9  1  0  0  0
  8 22  1  0  0  0
  9 10  1  0  0  0
  9 27  2  0  0  0
 10 11  2  0  0  0
 10 15  1  0  0  0
 11 12  1  0  0  0
 11 95  1  0  0  0
 12 13  2  0  0  0
 12 96  1  0  0  0
 13 14  1  0  0  0
 13 31  1  0  0  0
 14 15  2  0  0  0
 14 97  1  0  0  0
 15 98  1  0  0  0
 16 17  2  0  0  0
 16 21  1  0  0  0
 16 31  1  0  0  0
 17 18  1  0  0  0
 17 99  1  0  0  0
 18 19  2  0  0  0
 18100  1  0  0  0
 19 20  1  0  0  0
 19 24  1  0  0  0
 20 21  2  0  0  0
 20101  1  0  0  0
 21 23  1  0  0  0
 22 28  1  0  0  0
 22 32  2  0  0  0
 26 27  1  0  0  0
 28102  1  0  0  0
 28103  1  0  0  0
 29104  1  0  0  0
 29105  1  0  0  0
 33 34  1  0  0  0
 33 66  1  0  0  0
 33 70  2  0  0  0
 34 36  1  0  0  0
 34 59  1  0  0  0
 34106  1  0  0  0
 35 44  2  0  0  0
 35 45  1  0  0  0
 35 68  1  0  0  0
 36 56  1  0  0  0
 36107  1  0  0  0
 37 39  1  0  0  0
 37 47  1  0  0  0
 37 66  1  0  0  0
 37108  1  0  0  0
 38 43  2  0  0  0
 38 46  1  0  0  0
 38 47  1  0  0  0
 39 64  1  0  0  0
 39 67  2  0  0  0
 40 52  1  0  0  0
 40 53  2  0  0  0
 40 58  1  0  0  0
 41109  1  0  0  0
 41110  1  0  0  0
 41111  1  0  0  0
 41 48  1  0  0  0
 42 43  1  0  0  0
 42 66  1  0  0  0
 42112  1  0  0  0
 42113  1  0  0  0
 43 44  1  0  0  0
 44114  1  0  0  0
 45 46  2  0  0  0
 45115  1  0  0  0
 46116  1  0  0  0
 47117  1  0  0  0
 47118  1  0  0  0
 48 56  1  0  0  0
 48 65  1  0  0  0
 48119  1  0  0  0
 49 50  1  0  0  0
 49 53  1  0  0  0
 49 64  1  0  0  0
 49120  1  0  0  0
 50 51  1  0  0  0
 50121  1  0  0  0
 50122  1  0  0  0
 51 52  1  0  0  0
 51123  1  0  0  0
 51124  1  0  0  0
 52125  1  0  0  0
 52126  1  0  0  0
 53 54  1  0  0  0
 54 55  2  0  0  0
 54127  1  0  0  0
 55 57  1  0  0  0
 55128  1  0  0  0
 56 69  2  0  0  0
 57 58  2  0  0  0
 57129  1  0  0  0
 58130  1  0  0  0
 59 60  1  0  0  0
 59 61  1  0  0  0
 59 62  1  0  0  0
 60131  1  0  0  0
 60132  1  0  0  0
 60133  1  0  0  0
 61134  1  0  0  0
 61135  1  0  0  0
 61136  1  0  0  0
 62137  1  0  0  0
 62138  1  0  0  0
 62139  1  0  0  0
 63 65  1  0  0  0
 63140  1  0  0  0
 63141  1  0  0  0
 63142  1  0  0  0
 64143  1  0  0  0
 65144  1  0  0  0
 68 78  1  0  0  0
 71 73  2  0  0  0
 71 74  1  0  0  0
 71145  1  0  0  0
 72 75  2  0  0  0
 72 76  1  0  0  0
 72146  1  0  0  0
 73 75  1  0  0  0
 73 82  1  0  0  0
 74 76  2  0  0  0
 74 83  1  0  0  0
 75 85  1  0  0  0
 76 84  1  0  0  0
 77 78  2  0  0  0
 77 79  1  0  0  0
 77 80  1  0  0  0
 78147  1  0  0  0
 79 81  1  0  0  0
 79148  1  0  0  0
 79149  1  0  0  0
 80 83  1  0  0  0
 80150  1  0  0  0
 80151  1  0  0  0
 81 83  1  0  0  0
 81152  1  0  0  0
 81153  1  0  0  0
 82154  1  0  0  0
 82155  1  0  0  0
 82156  1  0  0  0
 84157  1  0  0  0
 84158  1  0  0  0
 85159  1  0  0  0
M  ISO  4   1 100  68 101  78 101  85 100
M  END
> <chiral flag>
0

> <version>
0

> <s_m_source_file>
/data/baiqing/PycharmProjects/Reinvent-master-3.2/result/LINK_invent/BTK/process_docking_weight1_custom_product_contain_oxygen_bond_distance_aromatic_linkinvent_7_9_3/rearranged_h_0100.sdf

> <i_m_source_file_index>
46

> <r_mmod_Potential_Energy-OPLS-2005>
215.514038085938

> <r_mmod_Stretch_Energy-OPLS-2005>
105.005378723145

> <r_mmod_Bend_Energy-OPLS-2005>
236.760681152344

> <r_mmod_Torsional_Energy-OPLS-2005>
275.760650634766

> <r_mmod_Improper_Torsional_Energy-OPLS-2005>
14.0713300704956

> <r_mmod_Van_der_Waal_Energy-OPLS-2005>
135.39306640625

> <r_mmod_Electrostatic_Energy-OPLS-2005>
-414.231048583984

> <r_mmod_Solvation_Energy-OPLS-2005>
-222.462432861328

> <b_mmod_Minimization_Converged-OPLS-2005>
0

> <r_mmod_RMS_Derivative-OPLS-2005>
0.848019063472748

$$$$
47
                    3D
 Structure written by MMmdl.
174182  0  0  1  0            999 V2000
  -30.7892  -14.4368   20.6500 C   0  0  0  0  0  0
  -30.4048  -12.3083   19.4549 C   0  0  0  0  0  0
  -29.4919  -12.5099   18.2303 C   0  0  0  0  0  0
  -28.0151  -12.3691   18.6326 C   0  0  0  0  0  0
  -27.6600  -13.2092   19.8853 C   0  0  2  0  0  0
  -28.6957  -13.0210   21.0174 C   0  0  0  0  0  0
  -25.2579  -13.7978   20.5838 C   0  0  0  0  0  0
  -24.1782  -13.0292   20.9197 C   0  0  0  0  0  0
  -24.6364  -11.6798   20.8717 C   0  0  0  0  0  0
  -23.9028  -10.4213   21.0397 C   0  0  0  0  0  0
  -24.3583   -9.4152   21.9186 C   0  0  0  0  0  0
  -23.6258   -8.2196   22.0761 C   0  0  0  0  0  0
  -22.4239   -8.0246   21.3546 C   0  0  0  0  0  0
  -21.9870   -9.0209   20.4638 C   0  0  0  0  0  0
  -22.7203  -10.2082   20.3043 C   0  0  0  0  0  0
  -21.6826   -6.0708   22.5275 C   0  0  0  0  0  0
  -21.4000   -6.5625   23.8211 C   0  0  0  0  0  0
  -21.3665   -5.6783   24.9178 C   0  0  0  0  0  0
  -21.6043   -4.3042   24.7235 C   0  0  0  0  0  0
  -21.8824   -3.8131   23.4354 C   0  0  0  0  0  0
  -21.9195   -4.6938   22.3404 C   0  0  0  0  0  0
  -22.7828  -13.5174   21.1855 C   0  0  0  0  0  0
  -22.1663   -4.2127   21.0978 F   0  0  0  0  0  0
  -21.5642   -3.4529   25.7752 F   0  0  0  0  0  0
  -30.0389  -13.3060   20.4813 N   0  0  0  0  0  0
  -26.3017  -12.9223   20.3440 N   0  0  0  0  0  0
  -25.9304  -11.6372   20.5755 N   0  0  0  0  0  0
  -22.0435  -12.8174   22.0403 N   0  0  0  0  0  0
  -25.4362  -15.1602   20.4542 N   0  0  0  0  0  0
  -31.8397  -14.5894   20.0194 O   0  0  0  0  0  0
  -21.6608   -6.8841   21.4238 O   0  0  0  0  0  0
  -22.3558  -14.5497   20.6720 O   0  0  0  0  0  0
  -24.6162  -31.8673   23.2149 C   0  0  0  0  0  0
  -25.9057  -32.4824   23.8399 C   0  0  1  0  0  0
  -27.2373  -27.4393   20.0774 C   0  0  0  0  0  0
  -25.5905  -33.8626   24.2300 N   0  0  0  0  0  0
  -23.4031  -30.4910   21.5554 C   0  0  2  0  0  0
  -24.8488  -28.9635   20.1090 C   0  0  0  0  0  0
  -22.7421  -29.4603   22.4989 C   0  0  0  0  0  0
  -18.0267  -28.1382   22.8483 C   0  0  0  0  0  0
  -24.1498  -36.7333   23.2610 C   0  0  0  0  0  0
  -25.9343  -30.8296   21.3680 C   0  0  0  0  0  0
  -26.0082  -29.4664   20.7114 C   0  0  0  0  0  0
  -27.2037  -28.7116   20.6920 C   0  0  0  0  0  0
  -26.0636  -26.9667   19.4421 C   0  0  0  0  0  0
  -24.8728  -27.7162   19.4641 C   0  0  0  0  0  0
  -23.6093  -29.8265   20.1693 C   0  0  0  0  0  0
  -25.4110  -36.3073   24.0283 C   0  0  1  0  0  0
  -20.5858  -28.3614   23.1354 C   0  0  2  0  0  0
  -20.6735  -26.9354   22.5435 C   0  0  0  0  0  0
  -19.5710  -26.6372   21.5223 C   0  0  0  0  0  0
  -18.1892  -26.7935   22.1629 C   0  0  0  0  0  0
  -19.1523  -28.8835   23.2905 C   0  0  0  0  0  0
  -18.9436  -30.1464   23.8865 C   0  0  0  0  0  0
  -17.6424  -30.6557   24.0592 C   0  0  0  0  0  0
  -25.9040  -34.9456   23.5074 C   0  0  0  0  0  0
  -16.5321  -29.9049   23.6354 C   0  0  0  0  0  0
  -16.7257  -28.6520   23.0286 C   0  0  0  0  0  0
  -26.4483  -31.6630   25.0744 C   0  0  0  0  0  0
  -25.3733  -31.3742   26.1483 C   0  0  0  0  0  0
  -27.0293  -30.3050   24.6156 C   0  0  0  0  0  0
  -27.6048  -32.4355   25.7528 C   0  0  0  0  0  0
  -27.5574  -37.1783   24.8433 C   0  0  0  0  0  0
  -21.4147  -29.2996   22.3797 N   0  0  0  0  0  0
  -26.4287  -37.3759   23.9385 N   0  0  0  0  0  0
  -24.6704  -31.0776   22.1045 N   0  0  0  0  0  0
  -23.4206  -28.8088   23.2953 O   0  0  0  0  0  0
  -28.4125  -26.7101   20.1054 O   0  0  0  0  0  0
  -26.5645  -34.8925   22.4654 O   0  0  0  0  0  0
  -23.5345  -32.1442   23.7531 O   0  0  0  0  0  0
  -28.2704  -22.1438   21.6702 C   0  0  0  0  0  0
  -26.1047  -21.2846   20.1315 C   0  0  0  0  0  0
  -28.0369  -20.7487   21.5272 C   0  0  0  0  0  0
  -27.4393  -23.1063   21.0414 C   0  0  0  0  0  0
  -26.3403  -22.6548   20.2805 C   0  0  0  0  0  0
  -26.9519  -20.3165   20.7215 C   0  0  0  0  0  0
  -30.3286  -15.4818   21.5796 C   0  0  0  0  0  0
  -28.8668  -19.7607   22.2787 C   0  0  0  0  0  0
  -30.7651  -16.7717   21.4853 C   0  0  0  0  0  0
  -28.5924  -19.7581   23.7814 C   0  0  0  0  0  0
  -32.5296  -17.6532   23.9489 C   0  0  0  0  0  0
  -26.1867  -18.7848   18.1607 C   0  0  0  0  0  0
  -27.6889  -24.6043   21.2193 C   0  0  0  0  0  0
  -31.7180  -18.5798   23.0318 C   0  0  0  0  0  0
  -25.7614  -18.5311   19.6152 C   0  0  0  0  0  0
  -28.3421  -25.2773   19.9855 C   0  0  0  0  0  0
  -30.4301  -17.9336   22.4350 C   0  0  1  0  0  0
  -29.6759  -18.9495   21.6965 N   0  0  0  0  0  0
  -25.4427  -23.5314   19.6756 N   0  0  0  0  0  0
  -31.5955  -17.2143   20.5215 O   0  0  0  0  0  0
  -26.7365  -18.9620   20.5600 O   0  0  0  0  0  0
  -31.4520  -12.3676   19.1540 H   0  0  0  0  0  0
  -30.2822  -11.3039   19.8620 H   0  0  0  0  0  0
  -29.7389  -11.7855   17.4540 H   0  0  0  0  0  0
  -29.6622  -13.4967   17.7986 H   0  0  0  0  0  0
  -27.8238  -11.3133   18.8256 H   0  0  0  0  0  0
  -27.3652  -12.6457   17.8027 H   0  0  0  0  0  0
  -27.6969  -14.2562   19.5832 H   0  0  0  0  0  0
  -28.6606  -11.9965   21.3898 H   0  0  0  0  0  0
  -28.4237  -13.6426   21.8670 H   0  0  0  0  0  0
  -25.2722   -9.5637   22.4761 H   0  0  0  0  0  0
  -23.9961   -7.4590   22.7488 H   0  0  0  0  0  0
  -21.0799   -8.8719   19.8949 H   0  0  0  0  0  0
  -22.3662  -10.9615   19.6154 H   0  0  0  0  0  0
  -21.1969   -7.6133   23.9705 H   0  0  0  0  0  0
  -21.1493   -6.0513   25.9079 H   0  0  0  0  0  0
  -22.0601   -2.7592   23.2857 H   0  0  0  0  0  0
  -22.4015  -11.9800   22.4738 H   0  0  0  0  0  0
  -21.1076  -13.1252   22.2647 H   0  0  0  0  0  0
  -24.6889  -15.8244   20.6150 H   0  0  0  0  0  0
  -26.3206  -15.5936   20.2200 H   0  0  0  0  0  0
  -26.7099  -32.5585   23.1125 H   0  0  0  0  0  0
  -25.0002  -33.9798   25.0415 H   0  0  0  0  0  0
  -22.6888  -31.3041   21.4202 H   0  0  0  0  0  0
  -23.3741  -35.9685   23.3280 H   0  0  0  0  0  0
  -24.3542  -36.9014   22.2020 H   0  0  0  0  0  0
  -23.7354  -37.6547   23.6702 H   0  0  0  0  0  0
  -26.0473  -31.5936   20.5985 H   0  0  0  0  0  0
  -26.8224  -30.8841   21.9849 H   0  0  0  0  0  0
  -28.1039  -29.0941   21.1532 H   0  0  0  0  0  0
  -26.0502  -26.0332   18.9022 H   0  0  0  0  0  0
  -23.9930  -27.3395   18.9576 H   0  0  0  0  0  0
  -23.7014  -30.6051   19.4118 H   0  0  0  0  0  0
  -22.7390  -29.2312   19.8801 H   0  0  0  0  0  0
  -25.1300  -36.1859   25.0772 H   0  0  0  0  0  0
  -20.9942  -28.3178   24.1467 H   0  0  0  0  0  0
  -20.5646  -26.2192   23.3607 H   0  0  0  0  0  0
  -21.6593  -26.7391   22.1204 H   0  0  0  0  0  0
  -19.6877  -25.6290   21.1226 H   0  0  0  0  0  0
  -19.6685  -27.3210   20.6790 H   0  0  0  0  0  0
  -17.4154  -26.6684   21.4036 H   0  0  0  0  0  0
  -18.0288  -26.0099   22.9040 H   0  0  0  0  0  0
  -19.7905  -30.7340   24.2147 H   0  0  0  0  0  0
  -17.4958  -31.6233   24.5190 H   0  0  0  0  0  0
  -15.5304  -30.2886   23.7777 H   0  0  0  0  0  0
  -15.8670  -28.0902   22.6852 H   0  0  0  0  0  0
  -24.5893  -30.7111   25.7828 H   0  0  0  0  0  0
  -24.8932  -32.2884   26.4971 H   0  0  0  0  0  0
  -25.8061  -30.8886   27.0233 H   0  0  0  0  0  0
  -26.2823  -29.6819   24.1220 H   0  0  0  0  0  0
  -27.4014  -29.7287   25.4642 H   0  0  0  0  0  0
  -27.8693  -30.4338   23.9326 H   0  0  0  0  0  0
  -27.2656  -33.3636   26.2143 H   0  0  0  0  0  0
  -28.3850  -32.6945   25.0361 H   0  0  0  0  0  0
  -28.0721  -31.8466   26.5432 H   0  0  0  0  0  0
  -28.2507  -38.0148   24.7494 H   0  0  0  0  0  0
  -28.1120  -36.2657   24.6195 H   0  0  0  0  0  0
  -27.2267  -37.1381   25.8825 H   0  0  0  0  0  0
  -20.9290  -29.8767   21.7105 H   0  0  0  0  0  0
  -26.0139  -38.2796   24.1464 H   0  0  0  0  0  0
  -29.0854  -22.4800   22.2938 H   0  0  0  0  0  0
  -25.2407  -20.9972   19.5539 H   0  0  0  0  0  0
  -29.6587  -15.2395   22.3879 H   0  0  0  0  0  0
  -28.1659  -20.7081   24.1007 H   0  0  0  0  0  0
  -29.4866  -19.6059   24.3794 H   0  0  0  0  0  0
  -27.8797  -18.9716   24.0268 H   0  0  0  0  0  0
  -33.3905  -18.1833   24.3598 H   0  0  0  0  0  0
  -32.9017  -16.7788   23.4148 H   0  0  0  0  0  0
  -31.9337  -17.3057   24.7913 H   0  0  0  0  0  0
  -25.4964  -18.2952   17.4726 H   0  0  0  0  0  0
  -27.1887  -18.3923   17.9839 H   0  0  0  0  0  0
  -26.1909  -19.8422   17.8972 H   0  0  0  0  0  0
  -28.3082  -24.7752   22.0984 H   0  0  0  0  0  0
  -26.7318  -25.0764   21.4442 H   0  0  0  0  0  0
  -32.3598  -18.9515   22.2313 H   0  0  0  0  0  0
  -31.4756  -19.4670   23.6139 H   0  0  0  0  0  0
  -25.6836  -17.4630   19.7374 H   0  0  0  0  0  0
  -24.7647  -18.9089   19.8483 H   0  0  0  0  0  0
  -27.8552  -24.9797   19.0573 H   0  0  0  0  0  0
  -29.3602  -24.9001   19.8845 H   0  0  0  0  0  0
  -29.8279  -17.5137   23.2443 H   0  0  0  0  0  0
  -24.5751  -23.1380   19.3235 H   0  0  0  0  0  0
  -25.3033  -24.4289   20.1204 H   0  0  0  0  0  0
  -31.8587  -16.4534   20.0121 H   0  0  0  0  0  0
  1 25  1  0  0  0
  1 30  2  0  0  0
  1 77  1  0  0  0
  2  3  1  0  0  0
  2 25  1  0  0  0
  2 92  1  0  0  0
  2 93  1  0  0  0
  3  4  1  0  0  0
  3 94  1  0  0  0
  3 95  1  0  0  0
  4  5  1  0  0  0
  4 96  1  0  0  0
  4 97  1  0  0  0
  5  6  1  0  0  0
  5 26  1  0  0  0
  5 98  1  0  0  0
  6 25  1  0  0  0
  6 99  1  0  0  0
  6100  1  0  0  0
  7  8  2  0  0  0
  7 26  1  0  0  0
  7 29  1  0  0  0
  8  9  1  0  0  0
  8 22  1  0  0  0
  9 10  1  0  0  0
  9 27  2  0  0  0
 10 11  2  0  0  0
 10 15  1  0  0  0
 11 12  1  0  0  0
 11101  1  0  0  0
 12 13  2  0  0  0
 12102  1  0  0  0
 13 14  1  0  0  0
 13 31  1  0  0  0
 14 15  2  0  0  0
 14103  1  0  0  0
 15104  1  0  0  0
 16 17  2  0  0  0
 16 21  1  0  0  0
 16 31  1  0  0  0
 17 18  1  0  0  0
 17105  1  0  0  0
 18 19  2  0  0  0
 18106  1  0  0  0
 19 20  1  0  0  0
 19 24  1  0  0  0
 20 21  2  0  0  0
 20107  1  0  0  0
 21 23  1  0  0  0
 22 28  1  0  0  0
 22 32  2  0  0  0
 26 27  1  0  0  0
 28108  1  0  0  0
 28109  1  0  0  0
 29110  1  0  0  0
 29111  1  0  0  0
 33 34  1  0  0  0
 33 66  1  0  0  0
 33 70  2  0  0  0
 34 36  1  0  0  0
 34 59  1  0  0  0
 34112  1  0  0  0
 35 44  2  0  0  0
 35 45  1  0  0  0
 35 68  1  0  0  0
 36 56  1  0  0  0
 36113  1  0  0  0
 37 39  1  0  0  0
 37 47  1  0  0  0
 37 66  1  0  0  0
 37114  1  0  0  0
 38 43  2  0  0  0
 38 46  1  0  0  0
 38 47  1  0  0  0
 39 64  1  0  0  0
 39 67  2  0  0  0
 40 52  1  0  0  0
 40 53  2  0  0  0
 40 58  1  0  0  0
 41115  1  0  0  0
 41116  1  0  0  0
 41117  1  0  0  0
 41 48  1  0  0  0
 42 43  1  0  0  0
 42 66  1  0  0  0
 42118  1  0  0  0
 42119  1  0  0  0
 43 44  1  0  0  0
 44120  1  0  0  0
 45 46  2  0  0  0
 45121  1  0  0  0
 46122  1  0  0  0
 47123  1  0  0  0
 47124  1  0  0  0
 48 56  1  0  0  0
 48 65  1  0  0  0
 48125  1  0  0  0
 49 50  1  0  0  0
 49 53  1  0  0  0
 49 64  1  0  0  0
 49126  1  0  0  0
 50 51  1  0  0  0
 50127  1  0  0  0
 50128  1  0  0  0
 51 52  1  0  0  0
 51129  1  0  0  0
 51130  1  0  0  0
 52131  1  0  0  0
 52132  1  0  0  0
 53 54  1  0  0  0
 54 55  2  0  0  0
 54133  1  0  0  0
 55 57  1  0  0  0
 55134  1  0  0  0
 56 69  2  0  0  0
 57 58  2  0  0  0
 57135  1  0  0  0
 58136  1  0  0  0
 59 60  1  0  0  0
 59 61  1  0  0  0
 59 62  1  0  0  0
 60137  1  0  0  0
 60138  1  0  0  0
 60139  1  0  0  0
 61140  1  0  0  0
 61141  1  0  0  0
 61142  1  0  0  0
 62143  1  0  0  0
 62144  1  0  0  0
 62145  1  0  0  0
 63 65  1  0  0  0
 63146  1  0  0  0
 63147  1  0  0  0
 63148  1  0  0  0
 64149  1  0  0  0
 65150  1  0  0  0
 68 86  1  0  0  0
 71 73  2  0  0  0
 71 74  1  0  0  0
 71151  1  0  0  0
 72 75  1  0  0  0
 72 76  2  0  0  0
 72152  1  0  0  0
 73 76  1  0  0  0
 73 78  1  0  0  0
 74 75  2  0  0  0
 74 83  1  0  0  0
 75 89  1  0  0  0
 76 91  1  0  0  0
 77 79  2  0  0  0
 77153  1  0  0  0
 78 80  1  0  0  0
 78 88  2  0  0  0
 79 87  1  0  0  0
 79 90  1  0  0  0
 80154  1  0  0  0
 80155  1  0  0  0
 80156  1  0  0  0
 81 84  1  0  0  0
 81157  1  0  0  0
 81158  1  0  0  0
 81159  1  0  0  0
 82 85  1  0  0  0
 82160  1  0  0  0
 82161  1  0  0  0
 82162  1  0  0  0
 83 86  1  0  0  0
 83163  1  0  0  0
 83164  1  0  0  0
 84165  1  0  0  0
 84166  1  0  0  0
 84 87  1  0  0  0
 85 91  1  0  0  0
 85167  1  0  0  0
 85168  1  0  0  0
 86169  1  0  0  0
 86170  1  0  0  0
 87 88  1  0  0  0
 87171  1  0  0  0
 89172  1  0  0  0
 89173  1  0  0  0
 90174  1  0  0  0
M  ISO  4   1 100  68 101  77 100  86 101
M  END
> <chiral flag>
0

> <version>
0

> <s_m_source_file>
/data/baiqing/PycharmProjects/Reinvent-master-3.2/result/LINK_invent/BTK/process_docking_weight1_custom_product_contain_oxygen_bond_distance_aromatic_linkinvent_7_9_3/rearranged_h_0100.sdf

> <i_m_source_file_index>
47

> <r_mmod_Potential_Energy-OPLS-2005>
-33.9230728149414

> <r_mmod_Stretch_Energy-OPLS-2005>
46.2131500244141

> <r_mmod_Bend_Energy-OPLS-2005>
123.950134277344

> <r_mmod_Torsional_Energy-OPLS-2005>
179.128265380859

> <r_mmod_Improper_Torsional_Energy-OPLS-2005>
6.08045530319214

> <r_mmod_Van_der_Waal_Energy-OPLS-2005>
187.466247558594

> <r_mmod_Electrostatic_Energy-OPLS-2005>
-385.581207275391

> <r_mmod_Solvation_Energy-OPLS-2005>
-205.095077514648

> <b_mmod_Minimization_Converged-OPLS-2005>
0

> <r_mmod_RMS_Derivative-OPLS-2005>
4.79251670837402

$$$$
48
                    3D
 Structure written by MMmdl.
164173  0  0  1  0            999 V2000
  -30.6472  -14.7170   20.3470 C   0  0  0  0  0  0
  -30.4389  -12.4061   19.4591 C   0  0  0  0  0  0
  -29.5081  -12.3643   18.2279 C   0  0  0  0  0  0
  -28.0220  -12.2908   18.6463 C   0  0  0  0  0  0
  -27.6349  -13.2173   19.8361 C   0  0  2  0  0  0
  -28.6995  -13.2024   20.9527 C   0  0  0  0  0  0
  -25.2548  -13.8162   20.5731 C   0  0  0  0  0  0
  -24.1802  -13.0434   20.9198 C   0  0  0  0  0  0
  -24.6354  -11.6905   20.8771 C   0  0  0  0  0  0
  -23.9008  -10.4300   21.0421 C   0  0  0  0  0  0
  -24.3586   -9.4220   21.9193 C   0  0  0  0  0  0
  -23.6283   -8.2255   22.0743 C   0  0  0  0  0  0
  -22.4268   -8.0267   21.3540 C   0  0  0  0  0  0
  -21.9882   -9.0233   20.4638 C   0  0  0  0  0  0
  -22.7183  -10.2124   20.3069 C   0  0  0  0  0  0
  -21.6867   -6.0719   22.5294 C   0  0  0  0  0  0
  -21.4010   -6.5628   23.8224 C   0  0  0  0  0  0
  -21.3669   -5.6794   24.9190 C   0  0  0  0  0  0
  -21.6056   -4.3067   24.7235 C   0  0  0  0  0  0
  -21.8823   -3.8133   23.4361 C   0  0  0  0  0  0
  -21.9194   -4.6946   22.3408 C   0  0  0  0  0  0
  -22.7827  -13.5235   21.1878 C   0  0  0  0  0  0
  -22.1651   -4.2138   21.0980 F   0  0  0  0  0  0
  -21.5642   -3.4542   25.7745 F   0  0  0  0  0  0
  -29.9879  -13.5127   20.3228 N   0  0  0  0  0  0
  -26.2942  -12.9316   20.3340 N   0  0  0  0  0  0
  -25.9281  -11.6470   20.5825 N   0  0  0  0  0  0
  -22.0453  -12.8216   22.0419 N   0  0  0  0  0  0
  -25.4325  -15.1875   20.4189 N   0  0  0  0  0  0
  -31.8772  -14.7458   20.2777 O   0  0  0  0  0  0
  -21.6652   -6.8843   21.4241 O   0  0  0  0  0  0
  -22.3516  -14.5546   20.6733 O   0  0  0  0  0  0
  -24.6262  -31.8588   23.2016 C   0  0  0  0  0  0
  -25.9111  -32.4772   23.8338 C   0  0  1  0  0  0
  -27.2433  -27.3317   20.1124 C   0  0  0  0  0  0
  -25.5921  -33.8573   24.2268 N   0  0  0  0  0  0
  -23.4193  -30.4795   21.5448 C   0  0  2  0  0  0
  -24.8684  -28.9321   20.1143 C   0  0  0  0  0  0
  -22.7480  -29.4609   22.4964 C   0  0  0  0  0  0
  -18.0285  -28.1393   22.8493 C   0  0  0  0  0  0
  -24.1481  -36.7299   23.2640 C   0  0  0  0  0  0
  -25.9581  -30.7918   21.3687 C   0  0  0  0  0  0
  -26.0364  -29.4194   20.7131 C   0  0  0  0  0  0
  -27.2257  -28.6331   20.6984 C   0  0  0  0  0  0
  -26.0453  -26.8872   19.5037 C   0  0  0  0  0  0
  -24.8744  -27.6702   19.5009 C   0  0  0  0  0  0
  -23.6333  -29.8093   20.1616 C   0  0  0  0  0  0
  -25.4108  -36.3081   24.0328 C   0  0  1  0  0  0
  -20.5876  -28.3686   23.1299 C   0  0  2  0  0  0
  -20.6769  -26.9413   22.5419 C   0  0  0  0  0  0
  -19.5743  -26.6385   21.5226 C   0  0  0  0  0  0
  -18.1921  -26.7941   22.1637 C   0  0  0  0  0  0
  -19.1538  -28.8864   23.2883 C   0  0  0  0  0  0
  -18.9459  -30.1471   23.8890 C   0  0  0  0  0  0
  -17.6455  -30.6588   24.0572 C   0  0  0  0  0  0
  -25.9055  -34.9446   23.5102 C   0  0  0  0  0  0
  -16.5346  -29.9088   23.6332 C   0  0  0  0  0  0
  -16.7269  -28.6508   23.0350 C   0  0  0  0  0  0
  -26.4508  -31.6573   25.0700 C   0  0  0  0  0  0
  -25.3756  -31.3708   26.1441 C   0  0  0  0  0  0
  -27.0350  -30.2990   24.6142 C   0  0  0  0  0  0
  -27.6049  -32.4330   25.7486 C   0  0  0  0  0  0
  -27.5584  -37.1801   24.8466 C   0  0  0  0  0  0
  -21.4196  -29.3032   22.3702 N   0  0  0  0  0  0
  -26.4284  -37.3776   23.9419 N   0  0  0  0  0  0
  -24.6869  -31.0604   22.0961 N   0  0  0  0  0  0
  -23.4204  -28.8175   23.3061 O   0  0  0  0  0  0
  -28.3847  -26.5142   20.1512 O   0  0  0  0  0  0
  -26.5633  -34.8921   22.4677 O   0  0  0  0  0  0
  -23.5426  -32.1386   23.7342 O   0  0  0  0  0  0
  -31.1818  -19.3977   20.4721 C   0  0  0  0  0  0
  -31.1934  -17.9815   20.3190 C   0  0  0  0  0  0
  -28.8200  -19.3466   20.9073 C   0  0  0  0  0  0
  -29.9966  -20.1402   20.7672 C   0  0  0  0  0  0
  -30.0128  -17.2017   20.4271 C   0  0  0  0  0  0
  -28.8263  -17.9274   20.7300 C   0  0  0  0  0  0
  -30.9070  -22.0698   21.9275 C   0  0  0  0  0  0
  -29.2659  -22.5215   20.2525 C   0  0  0  0  0  0
  -31.1990  -17.0395   16.8295 C   0  0  0  0  0  0
  -30.8585  -15.9747   17.5729 C   0  0  0  0  0  0
  -31.2513  -23.5626   22.0540 C   0  0  0  0  0  0
  -30.0681  -24.4705   21.7223 C   0  0  0  0  0  0
  -29.4646  -24.1038   20.3635 C   0  0  2  0  0  0
  -29.6239  -15.8989   18.4624 C   0  0  0  0  0  0
  -28.2215  -25.0475   20.0273 C   0  0  0  0  0  0
  -30.0376  -21.6142   20.9735 N   0  0  0  0  0  0
  -29.9358  -15.8313   19.9109 N   0  0  0  0  0  0
  -31.4533  -21.3156   22.7441 O   0  0  0  0  0  0
  -28.3926  -22.1219   19.4735 O   0  0  0  0  0  0
  -27.6499  -17.2556   20.7844 F   0  0  0  0  0  0
  -31.4757  -12.5308   19.1420 H   0  0  0  0  0  0
  -30.4034  -11.4633   20.0057 H   0  0  0  0  0  0
  -29.7545  -11.4908   17.6212 H   0  0  0  0  0  0
  -29.7000  -13.2071   17.5717 H   0  0  0  0  0  0
  -27.8337  -11.2545   18.9314 H   0  0  0  0  0  0
  -27.3774  -12.4811   17.7871 H   0  0  0  0  0  0
  -27.5899  -14.2278   19.4416 H   0  0  0  0  0  0
  -28.7425  -12.2333   21.4499 H   0  0  0  0  0  0
  -28.4679  -13.9461   21.7175 H   0  0  0  0  0  0
  -25.2743   -9.5699   22.4765 H   0  0  0  0  0  0
  -24.0003   -7.4654   22.7456 H   0  0  0  0  0  0
  -21.0824   -8.8709   19.8947 H   0  0  0  0  0  0
  -22.3633  -10.9638   19.6179 H   0  0  0  0  0  0
  -21.1982   -7.6131   23.9703 H   0  0  0  0  0  0
  -21.1498   -6.0531   25.9091 H   0  0  0  0  0  0
  -22.0594   -2.7572   23.2875 H   0  0  0  0  0  0
  -22.4036  -11.9846   22.4774 H   0  0  0  0  0  0
  -21.1088  -13.1262   22.2664 H   0  0  0  0  0  0
  -24.6821  -15.8552   20.5524 H   0  0  0  0  0  0
  -26.3252  -15.6346   20.2317 H   0  0  0  0  0  0
  -26.7179  -32.5440   23.1088 H   0  0  0  0  0  0
  -25.0058  -33.9709   25.0408 H   0  0  0  0  0  0
  -22.7097  -31.2962   21.3997 H   0  0  0  0  0  0
  -23.3737  -35.9634   23.3282 H   0  0  0  0  0  0
  -24.3579  -36.8950   22.2060 H   0  0  0  0  0  0
  -23.7225  -37.6492   23.6673 H   0  0  0  0  0  0
  -26.0792  -31.5510   20.5949 H   0  0  0  0  0  0
  -26.8436  -30.8478   21.9903 H   0  0  0  0  0  0
  -28.1246  -29.0077   21.1664 H   0  0  0  0  0  0
  -25.9883  -25.9182   19.0288 H   0  0  0  0  0  0
  -23.9815  -27.2835   19.0292 H   0  0  0  0  0  0
  -23.7478  -30.5827   19.4015 H   0  0  0  0  0  0
  -22.7541  -29.2344   19.8656 H   0  0  0  0  0  0
  -25.1284  -36.1932   25.0816 H   0  0  0  0  0  0
  -20.9961  -28.3254   24.1426 H   0  0  0  0  0  0
  -20.5686  -26.2300   23.3623 H   0  0  0  0  0  0
  -21.6633  -26.7463   22.1195 H   0  0  0  0  0  0
  -19.6901  -25.6295   21.1257 H   0  0  0  0  0  0
  -19.6679  -27.3199   20.6758 H   0  0  0  0  0  0
  -17.4203  -26.6710   21.4019 H   0  0  0  0  0  0
  -18.0301  -26.0066   22.9020 H   0  0  0  0  0  0
  -19.7927  -30.7308   24.2229 H   0  0  0  0  0  0
  -17.5001  -31.6271   24.5186 H   0  0  0  0  0  0
  -15.5342  -30.2999   23.7652 H   0  0  0  0  0  0
  -15.8669  -28.0839   22.7050 H   0  0  0  0  0  0
  -24.5895  -30.7104   25.7772 H   0  0  0  0  0  0
  -24.9003  -32.2883   26.4910 H   0  0  0  0  0  0
  -25.8093  -30.8839   27.0183 H   0  0  0  0  0  0
  -26.2912  -29.6737   24.1190 H   0  0  0  0  0  0
  -27.4084  -29.7244   25.4630 H   0  0  0  0  0  0
  -27.8761  -30.4275   23.9326 H   0  0  0  0  0  0
  -27.2611  -33.3606   26.2067 H   0  0  0  0  0  0
  -28.3852  -32.6945   25.0328 H   0  0  0  0  0  0
  -28.0718  -31.8468   26.5408 H   0  0  0  0  0  0
  -28.2587  -38.0115   24.7533 H   0  0  0  0  0  0
  -28.1105  -36.2654   24.6256 H   0  0  0  0  0  0
  -27.2320  -37.1401   25.8875 H   0  0  0  0  0  0
  -20.9386  -29.8757   21.6909 H   0  0  0  0  0  0
  -26.0171  -38.2850   24.1426 H   0  0  0  0  0  0
  -32.1217  -19.9196   20.3505 H   0  0  0  0  0  0
  -32.1186  -17.4998   20.0323 H   0  0  0  0  0  0
  -27.8816  -19.8321   21.1329 H   0  0  0  0  0  0
  -32.0915  -17.0179   16.2158 H   0  0  0  0  0  0
  -30.6084  -17.9440   16.8183 H   0  0  0  0  0  0
  -31.4919  -15.0968   17.5485 H   0  0  0  0  0  0
  -32.0875  -23.7738   21.3847 H   0  0  0  0  0  0
  -31.6088  -23.7758   23.0633 H   0  0  0  0  0  0
  -30.4151  -25.5045   21.6983 H   0  0  0  0  0  0
  -29.3133  -24.4170   22.5086 H   0  0  0  0  0  0
  -30.2233  -24.3255   19.6091 H   0  0  0  0  0  0
  -29.0026  -15.0760   18.1390 H   0  0  0  0  0  0
  -29.0034  -16.7714   18.2473 H   0  0  0  0  0  0
  -27.3848  -24.7417   20.6555 H   0  0  0  0  0  0
  -27.9264  -24.8416   18.9985 H   0  0  0  0  0  0
  1 25  1  0  0  0
  1 30  2  0  0  0
  1 87  1  0  0  0
  2  3  1  0  0  0
  2 25  1  0  0  0
  2 91  1  0  0  0
  2 92  1  0  0  0
  3  4  1  0  0  0
  3 93  1  0  0  0
  3 94  1  0  0  0
  4  5  1  0  0  0
  4 95  1  0  0  0
  4 96  1  0  0  0
  5  6  1  0  0  0
  5 26  1  0  0  0
  5 97  1  0  0  0
  6 25  1  0  0  0
  6 98  1  0  0  0
  6 99  1  0  0  0
  7  8  2  0  0  0
  7 26  1  0  0  0
  7 29  1  0  0  0
  8  9  1  0  0  0
  8 22  1  0  0  0
  9 10  1  0  0  0
  9 27  2  0  0  0
 10 11  2  0  0  0
 10 15  1  0  0  0
 11 12  1  0  0  0
 11100  1  0  0  0
 12 13  2  0  0  0
 12101  1  0  0  0
 13 14  1  0  0  0
 13 31  1  0  0  0
 14 15  2  0  0  0
 14102  1  0  0  0
 15103  1  0  0  0
 16 17  2  0  0  0
 16 21  1  0  0  0
 16 31  1  0  0  0
 17 18  1  0  0  0
 17104  1  0  0  0
 18 19  2  0  0  0
 18105  1  0  0  0
 19 20  1  0  0  0
 19 24  1  0  0  0
 20 21  2  0  0  0
 20106  1  0  0  0
 21 23  1  0  0  0
 22 28  1  0  0  0
 22 32  2  0  0  0
 26 27  1  0  0  0
 28107  1  0  0  0
 28108  1  0  0  0
 29109  1  0  0  0
 29110  1  0  0  0
 33 34  1  0  0  0
 33 66  1  0  0  0
 33 70  2  0  0  0
 34 36  1  0  0  0
 34 59  1  0  0  0
 34111  1  0  0  0
 35 44  2  0  0  0
 35 45  1  0  0  0
 35 68  1  0  0  0
 36 56  1  0  0  0
 36112  1  0  0  0
 37 39  1  0  0  0
 37 47  1  0  0  0
 37 66  1  0  0  0
 37113  1  0  0  0
 38 43  2  0  0  0
 38 46  1  0  0  0
 38 47  1  0  0  0
 39 64  1  0  0  0
 39 67  2  0  0  0
 40 52  1  0  0  0
 40 53  2  0  0  0
 40 58  1  0  0  0
 41114  1  0  0  0
 41115  1  0  0  0
 41116  1  0  0  0
 41 48  1  0  0  0
 42 43  1  0  0  0
 42 66  1  0  0  0
 42117  1  0  0  0
 42118  1  0  0  0
 43 44  1  0  0  0
 44119  1  0  0  0
 45 46  2  0  0  0
 45120  1  0  0  0
 46121  1  0  0  0
 47122  1  0  0  0
 47123  1  0  0  0
 48 56  1  0  0  0
 48 65  1  0  0  0
 48124  1  0  0  0
 49 50  1  0  0  0
 49 53  1  0  0  0
 49 64  1  0  0  0
 49125  1  0  0  0
 50 51  1  0  0  0
 50126  1  0  0  0
 50127  1  0  0  0
 51 52  1  0  0  0
 51128  1  0  0  0
 51129  1  0  0  0
 52130  1  0  0  0
 52131  1  0  0  0
 53 54  1  0  0  0
 54 55  2  0  0  0
 54132  1  0  0  0
 55 57  1  0  0  0
 55133  1  0  0  0
 56 69  2  0  0  0
 57 58  2  0  0  0
 57134  1  0  0  0
 58135  1  0  0  0
 59 60  1  0  0  0
 59 61  1  0  0  0
 59 62  1  0  0  0
 60136  1  0  0  0
 60137  1  0  0  0
 60138  1  0  0  0
 61139  1  0  0  0
 61140  1  0  0  0
 61141  1  0  0  0
 62142  1  0  0  0
 62143  1  0  0  0
 62144  1  0  0  0
 63 65  1  0  0  0
 63145  1  0  0  0
 63146  1  0  0  0
 63147  1  0  0  0
 64148  1  0  0  0
 65149  1  0  0  0
 68 85  1  0  0  0
 71 72  2  0  0  0
 71 74  1  0  0  0
 71150  1  0  0  0
 72 75  1  0  0  0
 72151  1  0  0  0
 73 74  2  0  0  0
 73 76  1  0  0  0
 73152  1  0  0  0
 74 86  1  0  0  0
 75 76  2  0  0  0
 75 87  1  0  0  0
 76 90  1  0  0  0
 77 81  1  0  0  0
 77 86  1  0  0  0
 77 88  2  0  0  0
 78 83  1  0  0  0
 78 86  1  0  0  0
 78 89  2  0  0  0
 79 80  2  0  0  0
 79153  1  0  0  0
 79154  1  0  0  0
 80 84  1  0  0  0
 80155  1  0  0  0
 81 82  1  0  0  0
 81156  1  0  0  0
 81157  1  0  0  0
 82 83  1  0  0  0
 82158  1  0  0  0
 82159  1  0  0  0
 83 85  1  0  0  0
 83160  1  0  0  0
 84 87  1  0  0  0
 84161  1  0  0  0
 84162  1  0  0  0
 85163  1  0  0  0
 85164  1  0  0  0
M  ISO  4   1 100  68 101  85 101  87 100
M  END
> <chiral flag>
0

> <version>
0

> <s_m_source_file>
/data/baiqing/PycharmProjects/Reinvent-master-3.2/result/LINK_invent/BTK/process_docking_weight1_custom_product_contain_oxygen_bond_distance_aromatic_linkinvent_7_9_3/rearranged_h_0100.sdf

> <i_m_source_file_index>
48

> <r_mmod_Potential_Energy-OPLS-2005>
393.002075195312

> <r_mmod_Stretch_Energy-OPLS-2005>
100.204231262207

> <r_mmod_Bend_Energy-OPLS-2005>
151.527740478516

> <r_mmod_Torsional_Energy-OPLS-2005>
380.868041992188

> <r_mmod_Improper_Torsional_Energy-OPLS-2005>
22.7752475738525

> <r_mmod_Van_der_Waal_Energy-OPLS-2005>
160.511169433594

> <r_mmod_Electrostatic_Energy-OPLS-2005>
-292.292999267578

> <r_mmod_Solvation_Energy-OPLS-2005>
-207.939956665039

> <b_mmod_Minimization_Converged-OPLS-2005>
0

> <r_mmod_RMS_Derivative-OPLS-2005>
3.72237992286682

$$$$
49
                    3D
 Structure written by MMmdl.
159167  0  0  1  0            999 V2000
  -30.5464  -14.7600   20.4614 C   0  0  0  0  0  0
  -30.4356  -12.4584   19.4767 C   0  0  0  0  0  0
  -29.5076  -12.5119   18.2390 C   0  0  0  0  0  0
  -28.0285  -12.3297   18.6441 C   0  0  0  0  0  0
  -27.6375  -13.2166   19.8572 C   0  0  2  0  0  0
  -28.6830  -13.1011   20.9895 C   0  0  0  0  0  0
  -25.2471  -13.8196   20.5702 C   0  0  0  0  0  0
  -24.1748  -13.0473   20.9226 C   0  0  0  0  0  0
  -24.6286  -11.6938   20.8751 C   0  0  0  0  0  0
  -23.8993  -10.4317   21.0404 C   0  0  0  0  0  0
  -24.3555   -9.4233   21.9167 C   0  0  0  0  0  0
  -23.6244   -8.2263   22.0754 C   0  0  0  0  0  0
  -22.4224   -8.0269   21.3557 C   0  0  0  0  0  0
  -21.9852   -9.0247   20.4658 C   0  0  0  0  0  0
  -22.7172  -10.2130   20.3051 C   0  0  0  0  0  0
  -21.6853   -6.0687   22.5262 C   0  0  0  0  0  0
  -21.4007   -6.5585   23.8198 C   0  0  0  0  0  0
  -21.3680   -5.6738   24.9162 C   0  0  0  0  0  0
  -21.6058   -4.3008   24.7217 C   0  0  0  0  0  0
  -21.8827   -3.8101   23.4346 C   0  0  0  0  0  0
  -21.9199   -4.6916   22.3398 C   0  0  0  0  0  0
  -22.7761  -13.5285   21.1871 C   0  0  0  0  0  0
  -22.1678   -4.2091   21.0980 F   0  0  0  0  0  0
  -21.5630   -3.4504   25.7749 F   0  0  0  0  0  0
  -29.9801  -13.5003   20.4299 N   0  0  0  0  0  0
  -26.2869  -12.9359   20.3294 N   0  0  0  0  0  0
  -25.9206  -11.6510   20.5720 N   0  0  0  0  0  0
  -22.0363  -12.8324   22.0430 N   0  0  0  0  0  0
  -25.4233  -15.1927   20.4059 N   0  0  0  0  0  0
  -31.6938  -14.9139   20.0276 O   0  0  0  0  0  0
  -21.6636   -6.8829   21.4218 O   0  0  0  0  0  0
  -22.3494  -14.5580   20.6663 O   0  0  0  0  0  0
  -24.6358  -31.8521   23.1942 C   0  0  0  0  0  0
  -25.9205  -32.4684   23.8290 C   0  0  1  0  0  0
  -27.2147  -27.2115   20.1304 C   0  0  0  0  0  0
  -25.6012  -33.8484   24.2201 N   0  0  0  0  0  0
  -23.4328  -30.4725   21.5384 C   0  0  2  0  0  0
  -24.8829  -28.9117   20.1178 C   0  0  0  0  0  0
  -22.7474  -29.4642   22.4921 C   0  0  0  0  0  0
  -18.0301  -28.1334   22.8525 C   0  0  0  0  0  0
  -24.1511  -36.7234   23.2640 C   0  0  0  0  0  0
  -25.9832  -30.7417   21.3931 C   0  0  0  0  0  0
  -26.0560  -29.3618   20.7363 C   0  0  0  0  0  0
  -27.2199  -28.5195   20.7405 C   0  0  0  0  0  0
  -26.0276  -26.8661   19.4445 C   0  0  0  0  0  0
  -24.8747  -27.6732   19.4652 C   0  0  0  0  0  0
  -23.6589  -29.8015   20.1596 C   0  0  0  0  0  0
  -25.4143  -36.2995   24.0297 C   0  0  1  0  0  0
  -20.5895  -28.3704   23.1266 C   0  0  2  0  0  0
  -20.6806  -26.9433   22.5418 C   0  0  0  0  0  0
  -19.5783  -26.6470   21.5201 C   0  0  0  0  0  0
  -18.2014  -26.7823   22.1784 C   0  0  0  0  0  0
  -19.1554  -28.8879   23.2830 C   0  0  0  0  0  0
  -18.9485  -30.1510   23.8742 C   0  0  0  0  0  0
  -17.6495  -30.6636   24.0444 C   0  0  0  0  0  0
  -25.9114  -34.9380   23.5045 C   0  0  0  0  0  0
  -16.5385  -29.9065   23.6339 C   0  0  0  0  0  0
  -16.7291  -28.6446   23.0436 C   0  0  0  0  0  0
  -26.4562  -31.6502   25.0682 C   0  0  0  0  0  0
  -25.3781  -31.3705   26.1393 C   0  0  0  0  0  0
  -27.0425  -30.2887   24.6245 C   0  0  0  0  0  0
  -27.6091  -32.4269   25.7469 C   0  0  0  0  0  0
  -27.5568  -37.1765   24.8465 C   0  0  0  0  0  0
  -21.4204  -29.2971   22.3565 N   0  0  0  0  0  0
  -26.4277  -37.3712   23.9405 N   0  0  0  0  0  0
  -24.7020  -31.0425   22.0976 N   0  0  0  0  0  0
  -23.4149  -28.8322   23.3183 O   0  0  0  0  0  0
  -28.2897  -26.2783   20.2352 O   0  0  0  0  0  0
  -26.5649  -34.8846   22.4585 O   0  0  0  0  0  0
  -23.5490  -32.1467   23.7161 O   0  0  0  0  0  0
  -29.5034  -18.4642   20.9250 C   0  0  0  0  0  0
  -28.6029  -19.5810   18.9594 C   0  0  0  0  0  0
  -28.9987  -17.1467   18.9484 C   0  0  0  0  0  0
  -29.0579  -19.7051   20.2891 C   0  0  0  0  0  0
  -29.4981  -17.1585   20.2690 C   0  0  0  0  0  0
  -28.5354  -18.3236   18.3135 C   0  0  0  0  0  0
  -29.0064  -21.1078   20.9889 C   0  0  0  0  0  0
  -28.7199  -23.5666   20.6592 C   0  0  0  0  0  0
  -28.2487  -24.2354   23.0711 C   0  0  0  0  0  0
  -26.6983  -18.7536   16.8778 C   0  0  0  0  0  0
  -29.3170  -24.0295   21.9850 C   0  0  0  0  0  0
  -28.1860  -24.8225   19.7801 C   0  0  0  0  0  0
  -28.6475  -22.2984   20.2424 N   0  0  0  0  0  0
  -29.7862  -15.8390   20.9069 N   0  0  0  0  0  0
  -29.2646  -21.0891   22.1929 O   0  0  0  0  0  0
  -28.0072  -18.2041   17.0512 O   0  0  0  0  0  0
  -31.4752  -12.5950   19.1736 H   0  0  0  0  0  0
  -30.4012  -11.4727   19.9439 H   0  0  0  0  0  0
  -29.7990  -11.7497   17.5130 H   0  0  0  0  0  0
  -29.6316  -13.4730   17.7386 H   0  0  0  0  0  0
  -27.8754  -11.2793   18.8931 H   0  0  0  0  0  0
  -27.3744  -12.5334   17.7942 H   0  0  0  0  0  0
  -27.6402  -14.2415   19.4873 H   0  0  0  0  0  0
  -28.7276  -12.0704   21.3522 H   0  0  0  0  0  0
  -28.4095  -13.7129   21.8476 H   0  0  0  0  0  0
  -25.2712   -9.5731   22.4718 H   0  0  0  0  0  0
  -23.9976   -7.4670   22.7474 H   0  0  0  0  0  0
  -21.0795   -8.8766   19.8957 H   0  0  0  0  0  0
  -22.3659  -10.9643   19.6133 H   0  0  0  0  0  0
  -21.1980   -7.6089   23.9694 H   0  0  0  0  0  0
  -21.1504   -6.0459   25.9070 H   0  0  0  0  0  0
  -22.0590   -2.7555   23.2867 H   0  0  0  0  0  0
  -22.3941  -12.0020   22.4930 H   0  0  0  0  0  0
  -21.0961  -13.1365   22.2539 H   0  0  0  0  0  0
  -24.6531  -15.8469   20.4919 H   0  0  0  0  0  0
  -26.2553  -15.6159   20.0155 H   0  0  0  0  0  0
  -26.7263  -32.5333   23.1010 H   0  0  0  0  0  0
  -25.0150  -33.9597   25.0341 H   0  0  0  0  0  0
  -22.7366  -31.2965   21.3797 H   0  0  0  0  0  0
  -23.3741  -35.9597   23.3307 H   0  0  0  0  0  0
  -24.3614  -36.8874   22.2065 H   0  0  0  0  0  0
  -23.7293  -37.6438   23.6671 H   0  0  0  0  0  0
  -26.1403  -31.5014   20.6270 H   0  0  0  0  0  0
  -26.8506  -30.7831   22.0400 H   0  0  0  0  0  0
  -28.1110  -28.8449   21.2569 H   0  0  0  0  0  0
  -25.9364  -25.9558   18.8786 H   0  0  0  0  0  0
  -23.9841  -27.3255   18.9629 H   0  0  0  0  0  0
  -23.8037  -30.5732   19.4030 H   0  0  0  0  0  0
  -22.7794  -29.2332   19.8478 H   0  0  0  0  0  0
  -25.1338  -36.1806   25.0780 H   0  0  0  0  0  0
  -20.9927  -28.3354   24.1416 H   0  0  0  0  0  0
  -21.6708  -26.7547   22.1276 H   0  0  0  0  0  0
  -20.5679  -26.2278   23.3585 H   0  0  0  0  0  0
  -19.7019  -25.6451   21.1061 H   0  0  0  0  0  0
  -19.6598  -27.3425   20.6842 H   0  0  0  0  0  0
  -18.0765  -26.0077   22.9392 H   0  0  0  0  0  0
  -17.4139  -26.6185   21.4427 H   0  0  0  0  0  0
  -19.7925  -30.7429   24.2034 H   0  0  0  0  0  0
  -17.5073  -31.6376   24.4905 H   0  0  0  0  0  0
  -15.5389  -30.2962   23.7716 H   0  0  0  0  0  0
  -15.8698  -28.0673   22.7294 H   0  0  0  0  0  0
  -24.5953  -30.7052   25.7738 H   0  0  0  0  0  0
  -24.8994  -32.2910   26.4736 H   0  0  0  0  0  0
  -25.8095  -30.8951   27.0218 H   0  0  0  0  0  0
  -26.3043  -29.6572   24.1281 H   0  0  0  0  0  0
  -27.4108  -29.7178   25.4792 H   0  0  0  0  0  0
  -27.8914  -30.4133   23.9511 H   0  0  0  0  0  0
  -27.2670  -33.3566   26.2017 H   0  0  0  0  0  0
  -28.3887  -32.6844   25.0290 H   0  0  0  0  0  0
  -28.0756  -31.8437   26.5424 H   0  0  0  0  0  0
  -28.2566  -38.0077   24.7475 H   0  0  0  0  0  0
  -28.1070  -36.2592   24.6310 H   0  0  0  0  0  0
  -27.2282  -37.1428   25.8868 H   0  0  0  0  0  0
  -20.9420  -29.8333   21.6462 H   0  0  0  0  0  0
  -26.0128  -38.2759   24.1419 H   0  0  0  0  0  0
  -29.8479  -18.5260   21.9470 H   0  0  0  0  0  0
  -28.2797  -20.4642   18.4257 H   0  0  0  0  0  0
  -28.9033  -16.2106   18.4152 H   0  0  0  0  0  0
  -27.4605  -24.9091   22.7277 H   0  0  0  0  0  0
  -27.7761  -23.2953   23.3549 H   0  0  0  0  0  0
  -28.6888  -24.6708   23.9688 H   0  0  0  0  0  0
  -26.0106  -17.9517   16.6079 H   0  0  0  0  0  0
  -26.6844  -19.4857   16.0703 H   0  0  0  0  0  0
  -26.2899  -19.2335   17.7681 H   0  0  0  0  0  0
  -29.8404  -24.9664   21.8054 H   0  0  0  0  0  0
  -30.0980  -23.3516   22.3275 H   0  0  0  0  0  0
  -28.7379  -24.7799   18.8421 H   0  0  0  0  0  0
  -27.1749  -24.5385   19.5117 H   0  0  0  0  0  0
  -29.0608  -15.5537   21.5511 H   0  0  0  0  0  0
  1 25  1  0  0  0
  1 30  2  0  0  0
  1 84  1  0  0  0
  2  3  1  0  0  0
  2 25  1  0  0  0
  2 87  1  0  0  0
  2 88  1  0  0  0
  3  4  1  0  0  0
  3 89  1  0  0  0
  3 90  1  0  0  0
  4  5  1  0  0  0
  4 91  1  0  0  0
  4 92  1  0  0  0
  5  6  1  0  0  0
  5 26  1  0  0  0
  5 93  1  0  0  0
  6 25  1  0  0  0
  6 94  1  0  0  0
  6 95  1  0  0  0
  7  8  2  0  0  0
  7 26  1  0  0  0
  7 29  1  0  0  0
  8  9  1  0  0  0
  8 22  1  0  0  0
  9 10  1  0  0  0
  9 27  2  0  0  0
 10 11  2  0  0  0
 10 15  1  0  0  0
 11 12  1  0  0  0
 11 96  1  0  0  0
 12 13  2  0  0  0
 12 97  1  0  0  0
 13 14  1  0  0  0
 13 31  1  0  0  0
 14 15  2  0  0  0
 14 98  1  0  0  0
 15 99  1  0  0  0
 16 17  2  0  0  0
 16 21  1  0  0  0
 16 31  1  0  0  0
 17 18  1  0  0  0
 17100  1  0  0  0
 18 19  2  0  0  0
 18101  1  0  0  0
 19 20  1  0  0  0
 19 24  1  0  0  0
 20 21  2  0  0  0
 20102  1  0  0  0
 21 23  1  0  0  0
 22 28  1  0  0  0
 22 32  2  0  0  0
 26 27  1  0  0  0
 28103  1  0  0  0
 28104  1  0  0  0
 29105  1  0  0  0
 29106  1  0  0  0
 33 34  1  0  0  0
 33 66  1  0  0  0
 33 70  2  0  0  0
 34 36  1  0  0  0
 34 59  1  0  0  0
 34107  1  0  0  0
 35 44  2  0  0  0
 35 45  1  0  0  0
 35 68  1  0  0  0
 36 56  1  0  0  0
 36108  1  0  0  0
 37 39  1  0  0  0
 37 47  1  0  0  0
 37 66  1  0  0  0
 37109  1  0  0  0
 38 43  2  0  0  0
 38 46  1  0  0  0
 38 47  1  0  0  0
 39 64  1  0  0  0
 39 67  2  0  0  0
 40 52  1  0  0  0
 40 53  2  0  0  0
 40 58  1  0  0  0
 41110  1  0  0  0
 41111  1  0  0  0
 41112  1  0  0  0
 41 48  1  0  0  0
 42 43  1  0  0  0
 42 66  1  0  0  0
 42113  1  0  0  0
 42114  1  0  0  0
 43 44  1  0  0  0
 44115  1  0  0  0
 45 46  2  0  0  0
 45116  1  0  0  0
 46117  1  0  0  0
 47118  1  0  0  0
 47119  1  0  0  0
 48 56  1  0  0  0
 48 65  1  0  0  0
 48120  1  0  0  0
 49 50  1  0  0  0
 49 53  1  0  0  0
 49 64  1  0  0  0
 49121  1  0  0  0
 50 51  1  0  0  0
 50122  1  0  0  0
 50123  1  0  0  0
 51 52  1  0  0  0
 51124  1  0  0  0
 51125  1  0  0  0
 52126  1  0  0  0
 52127  1  0  0  0
 53 54  1  0  0  0
 54 55  2  0  0  0
 54128  1  0  0  0
 55 57  1  0  0  0
 55129  1  0  0  0
 56 69  2  0  0  0
 57 58  2  0  0  0
 57130  1  0  0  0
 58131  1  0  0  0
 59 60  1  0  0  0
 59 61  1  0  0  0
 59 62  1  0  0  0
 60132  1  0  0  0
 60133  1  0  0  0
 60134  1  0  0  0
 61135  1  0  0  0
 61136  1  0  0  0
 61137  1  0  0  0
 62138  1  0  0  0
 62139  1  0  0  0
 62140  1  0  0  0
 63 65  1  0  0  0
 63141  1  0  0  0
 63142  1  0  0  0
 63143  1  0  0  0
 64144  1  0  0  0
 65145  1  0  0  0
 68 82  1  0  0  0
 71 74  2  0  0  0
 71 75  1  0  0  0
 71146  1  0  0  0
 72 74  1  0  0  0
 72 76  2  0  0  0
 72147  1  0  0  0
 73 75  2  0  0  0
 73 76  1  0  0  0
 73148  1  0  0  0
 74 77  1  0  0  0
 75 84  1  0  0  0
 76 86  1  0  0  0
 77 83  1  0  0  0
 77 85  2  0  0  0
 78 81  1  0  0  0
 78 82  1  0  0  0
 78 83  2  0  0  0
 79 81  1  0  0  0
 79149  1  0  0  0
 79150  1  0  0  0
 79151  1  0  0  0
 80 86  1  0  0  0
 80152  1  0  0  0
 80153  1  0  0  0
 80154  1  0  0  0
 81155  1  0  0  0
 81156  1  0  0  0
 82157  1  0  0  0
 82158  1  0  0  0
 84159  1  0  0  0
M  ISO  4   1 100  68 101  82 101  84 100
M  END
> <chiral flag>
0

> <version>
0

> <s_m_source_file>
/data/baiqing/PycharmProjects/Reinvent-master-3.2/result/LINK_invent/BTK/process_docking_weight1_custom_product_contain_oxygen_bond_distance_aromatic_linkinvent_7_9_3/rearranged_h_0100.sdf

> <i_m_source_file_index>
49

> <r_mmod_Potential_Energy-OPLS-2005>
270.385955810547

> <r_mmod_Stretch_Energy-OPLS-2005>
153.483352661133

> <r_mmod_Bend_Energy-OPLS-2005>
194.04248046875

> <r_mmod_Torsional_Energy-OPLS-2005>
274.594299316406

> <r_mmod_Improper_Torsional_Energy-OPLS-2005>
5.54707050323486

> <r_mmod_Van_der_Waal_Energy-OPLS-2005>
148.160903930664

> <r_mmod_Electrostatic_Energy-OPLS-2005>
-402.135406494141

> <r_mmod_Solvation_Energy-OPLS-2005>
-210.447021484375

> <b_mmod_Minimization_Converged-OPLS-2005>
0

> <r_mmod_RMS_Derivative-OPLS-2005>
5.59756183624268

$$$$
50
                    3D
 Structure written by MMmdl.
150158  0  0  1  0            999 V2000
  -30.5547  -14.8920   20.4993 C   0  0  0  0  0  0
  -30.4493  -12.5602   19.5043 C   0  0  0  0  0  0
  -29.5270  -12.5531   18.2600 C   0  0  0  0  0  0
  -28.0550  -12.3391   18.6620 C   0  0  0  0  0  0
  -27.6432  -13.2364   19.8565 C   0  0  2  0  0  0
  -28.6807  -13.1697   20.9955 C   0  0  0  0  0  0
  -25.2513  -13.8192   20.5694 C   0  0  0  0  0  0
  -24.1804  -13.0432   20.9189 C   0  0  0  0  0  0
  -24.6401  -11.6913   20.8728 C   0  0  0  0  0  0
  -23.9075  -10.4291   21.0397 C   0  0  0  0  0  0
  -24.3623   -9.4208   21.9180 C   0  0  0  0  0  0
  -23.6292   -8.2247   22.0756 C   0  0  0  0  0  0
  -22.4277   -8.0282   21.3545 C   0  0  0  0  0  0
  -21.9911   -9.0257   20.4648 C   0  0  0  0  0  0
  -22.7243  -10.2132   20.3053 C   0  0  0  0  0  0
  -21.6854   -6.0734   22.5276 C   0  0  0  0  0  0
  -21.4016   -6.5638   23.8209 C   0  0  0  0  0  0
  -21.3661   -5.6791   24.9172 C   0  0  0  0  0  0
  -21.6044   -4.3054   24.7223 C   0  0  0  0  0  0
  -21.8818   -3.8145   23.4345 C   0  0  0  0  0  0
  -21.9193   -4.6961   22.3401 C   0  0  0  0  0  0
  -22.7828  -13.5217   21.1856 C   0  0  0  0  0  0
  -22.1660   -4.2146   21.0977 F   0  0  0  0  0  0
  -21.5628   -3.4538   25.7737 F   0  0  0  0  0  0
  -29.9751  -13.6174   20.4472 N   0  0  0  0  0  0
  -26.2940  -12.9402   20.3270 N   0  0  0  0  0  0
  -25.9332  -11.6537   20.5718 N   0  0  0  0  0  0
  -22.0479  -12.8210   22.0419 N   0  0  0  0  0  0
  -25.4201  -15.1919   20.4138 N   0  0  0  0  0  0
  -31.6744  -15.0342   19.9916 O   0  0  0  0  0  0
  -21.6642   -6.8880   21.4240 O   0  0  0  0  0  0
  -22.3508  -14.5520   20.6701 O   0  0  0  0  0  0
  -24.6415  -31.8460   23.1913 C   0  0  0  0  0  0
  -25.9195  -32.4704   23.8290 C   0  0  1  0  0  0
  -27.2174  -27.1535   20.1417 C   0  0  0  0  0  0
  -25.5952  -33.8512   24.2202 N   0  0  0  0  0  0
  -23.4444  -30.4675   21.5359 C   0  0  2  0  0  0
  -24.8952  -28.9031   20.1061 C   0  0  0  0  0  0
  -22.7559  -29.4557   22.4858 C   0  0  0  0  0  0
  -18.0303  -28.1398   22.8480 C   0  0  0  0  0  0
  -24.1492  -36.7261   23.2643 C   0  0  0  0  0  0
  -26.0005  -30.7222   21.3924 C   0  0  0  0  0  0
  -26.0704  -29.3366   20.7324 C   0  0  0  0  0  0
  -27.2297  -28.4749   20.7417 C   0  0  0  0  0  0
  -26.0232  -26.8351   19.4527 C   0  0  0  0  0  0
  -24.8841  -27.6648   19.4514 C   0  0  0  0  0  0
  -23.6702  -29.8014   20.1534 C   0  0  0  0  0  0
  -25.4124  -36.3037   24.0316 C   0  0  1  0  0  0
  -20.5915  -28.3723   23.1237 C   0  0  2  0  0  0
  -20.6791  -26.9427   22.5403 C   0  0  0  0  0  0
  -19.5762  -26.6382   21.5214 C   0  0  0  0  0  0
  -18.1941  -26.7937   22.1622 C   0  0  0  0  0  0
  -19.1559  -28.8879   23.2851 C   0  0  0  0  0  0
  -18.9478  -30.1474   23.8876 C   0  0  0  0  0  0
  -17.6476  -30.6594   24.0561 C   0  0  0  0  0  0
  -25.9072  -34.9412   23.5065 C   0  0  0  0  0  0
  -16.5366  -29.9088   23.6338 C   0  0  0  0  0  0
  -16.7288  -28.6507   23.0359 C   0  0  0  0  0  0
  -26.4522  -31.6571   25.0726 C   0  0  0  0  0  0
  -25.3708  -31.3760   26.1421 C   0  0  0  0  0  0
  -27.0392  -30.2969   24.6311 C   0  0  0  0  0  0
  -27.6047  -32.4350   25.7508 C   0  0  0  0  0  0
  -27.5574  -37.1788   24.8465 C   0  0  0  0  0  0
  -21.4252  -29.3051   22.3610 N   0  0  0  0  0  0
  -26.4288  -37.3748   23.9405 N   0  0  0  0  0  0
  -24.7148  -31.0329   22.0945 N   0  0  0  0  0  0
  -23.4208  -28.8094   23.2996 O   0  0  0  0  0  0
  -28.2594  -26.1604   20.2420 O   0  0  0  0  0  0
  -26.5654  -34.8904   22.4639 O   0  0  0  0  0  0
  -23.5537  -32.1334   23.7139 O   0  0  0  0  0  0
  -30.3643  -18.4768   19.9019 C   0  0  0  0  0  0
  -28.4461  -19.9895   21.2109 C   0  0  0  0  0  0
  -29.6105  -17.7034   20.8499 C   0  0  0  0  0  0
  -29.1963  -20.7445   20.2649 C   0  0  0  0  0  0
  -28.6172  -18.5729   21.4764 C   0  0  0  0  0  0
  -30.1640  -19.8933   19.6151 C   0  0  0  0  0  0
  -28.7315  -23.3152   20.4424 C   0  0  0  0  0  0
  -29.8469  -16.1477   21.2950 C   0  0  0  0  0  0
  -27.9937  -24.6814   19.8527 C   0  0  0  0  0  0
  -29.4867  -15.8631   22.4767 N   0  0  0  0  0  0
  -28.8476  -22.1306   19.8181 N   0  0  0  0  0  0
  -27.6958  -18.0738   22.4044 N   0  0  0  0  0  0
  -30.9354  -20.4464   18.6485 F   0  0  0  0  0  0
  -31.4841  -12.7185   19.1974 H   0  0  0  0  0  0
  -30.4415  -11.5841   19.9919 H   0  0  0  0  0  0
  -29.8411  -11.7774   17.5604 H   0  0  0  0  0  0
  -29.6257  -13.5020   17.7306 H   0  0  0  0  0  0
  -27.9344  -11.2891   18.9314 H   0  0  0  0  0  0
  -27.3975  -12.5129   17.8093 H   0  0  0  0  0  0
  -27.6361  -14.2599   19.4812 H   0  0  0  0  0  0
  -28.7581  -12.1531   21.3836 H   0  0  0  0  0  0
  -28.3430  -13.7661   21.8384 H   0  0  0  0  0  0
  -25.2768   -9.5683   22.4753 H   0  0  0  0  0  0
  -23.9998   -7.4643   22.7480 H   0  0  0  0  0  0
  -21.0840   -8.8779   19.8958 H   0  0  0  0  0  0
  -22.3703  -10.9671   19.6161 H   0  0  0  0  0  0
  -21.2011   -7.6147   23.9711 H   0  0  0  0  0  0
  -21.1481   -6.0523   25.9073 H   0  0  0  0  0  0
  -22.0596   -2.7607   23.2846 H   0  0  0  0  0  0
  -22.4103  -11.9876   22.4809 H   0  0  0  0  0  0
  -21.1100  -13.1237   22.2633 H   0  0  0  0  0  0
  -24.6542  -15.8458   20.5331 H   0  0  0  0  0  0
  -26.2723  -15.6348   20.0955 H   0  0  0  0  0  0
  -26.7257  -32.5313   23.1015 H   0  0  0  0  0  0
  -25.0087  -33.9636   25.0341 H   0  0  0  0  0  0
  -22.7459  -31.2931   21.3841 H   0  0  0  0  0  0
  -23.3755  -35.9592   23.3300 H   0  0  0  0  0  0
  -24.3575  -36.8897   22.2057 H   0  0  0  0  0  0
  -23.7251  -37.6458   23.6684 H   0  0  0  0  0  0
  -26.1585  -31.4775   20.6214 H   0  0  0  0  0  0
  -26.8705  -30.7692   22.0355 H   0  0  0  0  0  0
  -28.1188  -28.7968   21.2657 H   0  0  0  0  0  0
  -25.9226  -25.9048   18.9160 H   0  0  0  0  0  0
  -23.9922  -27.3341   18.9373 H   0  0  0  0  0  0
  -23.8023  -30.5780   19.3993 H   0  0  0  0  0  0
  -22.7861  -29.2413   19.8434 H   0  0  0  0  0  0
  -25.1311  -36.1867   25.0810 H   0  0  0  0  0  0
  -21.0012  -28.3315   24.1357 H   0  0  0  0  0  0
  -20.5694  -26.2333   23.3621 H   0  0  0  0  0  0
  -21.6654  -26.7438   22.1192 H   0  0  0  0  0  0
  -19.6924  -25.6288   21.1257 H   0  0  0  0  0  0
  -19.6702  -27.3181   20.6734 H   0  0  0  0  0  0
  -17.4212  -26.6686   21.4024 H   0  0  0  0  0  0
  -18.0338  -26.0083   22.9023 H   0  0  0  0  0  0
  -19.7953  -30.7296   24.2234 H   0  0  0  0  0  0
  -17.5028  -31.6274   24.5164 H   0  0  0  0  0  0
  -15.5366  -30.2982   23.7681 H   0  0  0  0  0  0
  -15.8686  -28.0821   22.7088 H   0  0  0  0  0  0
  -24.5897  -30.7096   25.7741 H   0  0  0  0  0  0
  -24.8885  -32.2939   26.4789 H   0  0  0  0  0  0
  -25.7989  -30.8971   27.0235 H   0  0  0  0  0  0
  -26.3014  -29.6688   24.1306 H   0  0  0  0  0  0
  -27.3990  -29.7272   25.4889 H   0  0  0  0  0  0
  -27.8925  -30.4204   23.9641 H   0  0  0  0  0  0
  -27.2634  -33.3674   26.2020 H   0  0  0  0  0  0
  -28.3885  -32.6882   25.0355 H   0  0  0  0  0  0
  -28.0685  -31.8525   26.5478 H   0  0  0  0  0  0
  -28.2585  -38.0088   24.7506 H   0  0  0  0  0  0
  -28.1076  -36.2618   24.6303 H   0  0  0  0  0  0
  -27.2289  -37.1444   25.8867 H   0  0  0  0  0  0
  -20.9460  -29.8770   21.6795 H   0  0  0  0  0  0
  -26.0155  -38.2815   24.1408 H   0  0  0  0  0  0
  -31.1457  -17.9692   19.3566 H   0  0  0  0  0  0
  -27.6514  -20.5136   21.7224 H   0  0  0  0  0  0
  -29.0737  -23.4297   21.4742 H   0  0  0  0  0  0
  -26.9486  -24.4858   20.0869 H   0  0  0  0  0  0
  -28.0607  -24.6340   18.7658 H   0  0  0  0  0  0
  -29.0807  -16.6936   22.9043 H   0  0  0  0  0  0
  -26.9014  -18.6594   22.6413 H   0  0  0  0  0  0
  -27.4272  -17.0967   22.3283 H   0  0  0  0  0  0
  1 25  1  0  0  0
  1 30  2  0  0  0
  1 78  1  0  0  0
  2  3  1  0  0  0
  2 25  1  0  0  0
  2 84  1  0  0  0
  2 85  1  0  0  0
  3  4  1  0  0  0
  3 86  1  0  0  0
  3 87  1  0  0  0
  4  5  1  0  0  0
  4 88  1  0  0  0
  4 89  1  0  0  0
  5  6  1  0  0  0
  5 26  1  0  0  0
  5 90  1  0  0  0
  6 25  1  0  0  0
  6 91  1  0  0  0
  6 92  1  0  0  0
  7  8  2  0  0  0
  7 26  1  0  0  0
  7 29  1  0  0  0
  8  9  1  0  0  0
  8 22  1  0  0  0
  9 10  1  0  0  0
  9 27  2  0  0  0
 10 11  2  0  0  0
 10 15  1  0  0  0
 11 12  1  0  0  0
 11 93  1  0  0  0
 12 13  2  0  0  0
 12 94  1  0  0  0
 13 14  1  0  0  0
 13 31  1  0  0  0
 14 15  2  0  0  0
 14 95  1  0  0  0
 15 96  1  0  0  0
 16 17  2  0  0  0
 16 21  1  0  0  0
 16 31  1  0  0  0
 17 18  1  0  0  0
 17 97  1  0  0  0
 18 19  2  0  0  0
 18 98  1  0  0  0
 19 20  1  0  0  0
 19 24  1  0  0  0
 20 21  2  0  0  0
 20 99  1  0  0  0
 21 23  1  0  0  0
 22 28  1  0  0  0
 22 32  2  0  0  0
 26 27  1  0  0  0
 28100  1  0  0  0
 28101  1  0  0  0
 29102  1  0  0  0
 29103  1  0  0  0
 33 34  1  0  0  0
 33 66  1  0  0  0
 33 70  2  0  0  0
 34 36  1  0  0  0
 34 59  1  0  0  0
 34104  1  0  0  0
 35 44  2  0  0  0
 35 45  1  0  0  0
 35 68  1  0  0  0
 36 56  1  0  0  0
 36105  1  0  0  0
 37 39  1  0  0  0
 37 47  1  0  0  0
 37 66  1  0  0  0
 37106  1  0  0  0
 38 43  2  0  0  0
 38 46  1  0  0  0
 38 47  1  0  0  0
 39 64  1  0  0  0
 39 67  2  0  0  0
 40 52  1  0  0  0
 40 53  2  0  0  0
 40 58  1  0  0  0
 41107  1  0  0  0
 41108  1  0  0  0
 41109  1  0  0  0
 41 48  1  0  0  0
 42 43  1  0  0  0
 42 66  1  0  0  0
 42110  1  0  0  0
 42111  1  0  0  0
 43 44  1  0  0  0
 44112  1  0  0  0
 45 46  2  0  0  0
 45113  1  0  0  0
 46114  1  0  0  0
 47115  1  0  0  0
 47116  1  0  0  0
 48 56  1  0  0  0
 48 65  1  0  0  0
 48117  1  0  0  0
 49 50  1  0  0  0
 49 53  1  0  0  0
 49 64  1  0  0  0
 49118  1  0  0  0
 50 51  1  0  0  0
 50119  1  0  0  0
 50120  1  0  0  0
 51 52  1  0  0  0
 51121  1  0  0  0
 51122  1  0  0  0
 52123  1  0  0  0
 52124  1  0  0  0
 53 54  1  0  0  0
 54 55  2  0  0  0
 54125  1  0  0  0
 55 57  1  0  0  0
 55126  1  0  0  0
 56 69  2  0  0  0
 57 58  2  0  0  0
 57127  1  0  0  0
 58128  1  0  0  0
 59 60  1  0  0  0
 59 61  1  0  0  0
 59 62  1  0  0  0
 60129  1  0  0  0
 60130  1  0  0  0
 60131  1  0  0  0
 61132  1  0  0  0
 61133  1  0  0  0
 61134  1  0  0  0
 62135  1  0  0  0
 62136  1  0  0  0
 62137  1  0  0  0
 63 65  1  0  0  0
 63138  1  0  0  0
 63139  1  0  0  0
 63140  1  0  0  0
 64141  1  0  0  0
 65142  1  0  0  0
 68 79  1  0  0  0
 71 73  2  0  0  0
 71 76  1  0  0  0
 71143  1  0  0  0
 72 74  1  0  0  0
 72 75  2  0  0  0
 72144  1  0  0  0
 73 75  1  0  0  0
 73 78  1  0  0  0
 74 76  2  0  0  0
 74 81  1  0  0  0
 75 82  1  0  0  0
 76 83  1  0  0  0
 77 79  1  0  0  0
 77 81  2  0  0  0
 77145  1  0  0  0
 78 80  2  0  0  0
 79146  1  0  0  0
 79147  1  0  0  0
 80148  1  0  0  0
 82149  1  0  0  0
 82150  1  0  0  0
M  ISO  4   1 100  68 101  78 100  79 101
M  END
> <chiral flag>
0

> <version>
0

> <s_m_source_file>
/data/baiqing/PycharmProjects/Reinvent-master-3.2/result/LINK_invent/BTK/process_docking_weight1_custom_product_contain_oxygen_bond_distance_aromatic_linkinvent_7_9_3/rearranged_h_0100.sdf

> <i_m_source_file_index>
50

> <r_mmod_Potential_Energy-OPLS-2005>
673.876220703125

> <r_mmod_Stretch_Energy-OPLS-2005>
245.072631835938

> <r_mmod_Bend_Energy-OPLS-2005>
281.245574951172

> <r_mmod_Torsional_Energy-OPLS-2005>
221.079772949219

> <r_mmod_Improper_Torsional_Energy-OPLS-2005>
9.15325164794922

> <r_mmod_Van_der_Waal_Energy-OPLS-2005>
152.56916809082

> <r_mmod_Electrostatic_Energy-OPLS-2005>
-190.898727416992

> <r_mmod_Solvation_Energy-OPLS-2005>
-210.032196044922

> <b_mmod_Minimization_Converged-OPLS-2005>
0

> <r_mmod_RMS_Derivative-OPLS-2005>
0.453529238700867

$$$$
51
                    3D
 Structure written by MMmdl.
161170  0  0  1  0            999 V2000
  -30.6057  -14.6628   20.4750 C   0  0  0  0  0  0
  -30.4442  -12.4036   19.4491 C   0  0  0  0  0  0
  -29.5086  -12.5034   18.2233 C   0  0  0  0  0  0
  -28.0327  -12.3331   18.6386 C   0  0  0  0  0  0
  -27.6489  -13.2120   19.8580 C   0  0  2  0  0  0
  -28.6986  -13.0826   20.9852 C   0  0  0  0  0  0
  -25.2520  -13.8114   20.5717 C   0  0  0  0  0  0
  -24.1791  -13.0386   20.9199 C   0  0  0  0  0  0
  -24.6372  -11.6867   20.8731 C   0  0  0  0  0  0
  -23.9050  -10.4259   21.0393 C   0  0  0  0  0  0
  -24.3600   -9.4181   21.9175 C   0  0  0  0  0  0
  -23.6273   -8.2220   22.0747 C   0  0  0  0  0  0
  -22.4253   -8.0266   21.3547 C   0  0  0  0  0  0
  -21.9890   -9.0238   20.4648 C   0  0  0  0  0  0
  -22.7223  -10.2110   20.3047 C   0  0  0  0  0  0
  -21.6846   -6.0722   22.5277 C   0  0  0  0  0  0
  -21.4010   -6.5625   23.8210 C   0  0  0  0  0  0
  -21.3661   -5.6778   24.9174 C   0  0  0  0  0  0
  -21.6043   -4.3045   24.7225 C   0  0  0  0  0  0
  -21.8820   -3.8137   23.4346 C   0  0  0  0  0  0
  -21.9191   -4.6953   22.3399 C   0  0  0  0  0  0
  -22.7818  -13.5196   21.1861 C   0  0  0  0  0  0
  -22.1662   -4.2141   21.0977 F   0  0  0  0  0  0
  -21.5630   -3.4528   25.7737 F   0  0  0  0  0  0
  -30.0102  -13.4297   20.4152 N   0  0  0  0  0  0
  -26.2955  -12.9307   20.3308 N   0  0  0  0  0  0
  -25.9299  -11.6467   20.5736 N   0  0  0  0  0  0
  -22.0454  -12.8208   22.0423 N   0  0  0  0  0  0
  -25.4170  -15.1828   20.4207 N   0  0  0  0  0  0
  -31.7874  -14.8265   20.1585 O   0  0  0  0  0  0
  -21.6626   -6.8864   21.4241 O   0  0  0  0  0  0
  -22.3517  -14.5512   20.6714 O   0  0  0  0  0  0
  -24.6258  -31.8606   23.2035 C   0  0  0  0  0  0
  -25.9105  -32.4783   23.8369 C   0  0  1  0  0  0
  -27.2273  -27.3304   20.1125 C   0  0  0  0  0  0
  -25.5922  -33.8582   24.2295 N   0  0  0  0  0  0
  -23.4196  -30.4837   21.5469 C   0  0  2  0  0  0
  -24.8669  -28.9406   20.1125 C   0  0  0  0  0  0
  -22.7476  -29.4617   22.4948 C   0  0  0  0  0  0
  -18.0287  -28.1381   22.8478 C   0  0  0  0  0  0
  -24.1487  -36.7292   23.2636 C   0  0  0  0  0  0
  -25.9603  -30.7925   21.3753 C   0  0  0  0  0  0
  -26.0355  -29.4209   20.7184 C   0  0  0  0  0  0
  -27.2202  -28.6272   20.7099 C   0  0  0  0  0  0
  -26.0419  -26.9075   19.4711 C   0  0  0  0  0  0
  -24.8715  -27.6880   19.4802 C   0  0  0  0  0  0
  -23.6342  -29.8192   20.1622 C   0  0  0  0  0  0
  -25.4104  -36.3085   24.0337 C   0  0  1  0  0  0
  -20.5884  -28.3678   23.1283 C   0  0  2  0  0  0
  -20.6772  -26.9402   22.5406 C   0  0  0  0  0  0
  -19.5750  -26.6380   21.5202 C   0  0  0  0  0  0
  -18.1929  -26.7923   22.1614 C   0  0  0  0  0  0
  -19.1539  -28.8847   23.2876 C   0  0  0  0  0  0
  -18.9461  -30.1447   23.8896 C   0  0  0  0  0  0
  -17.6459  -30.6581   24.0558 C   0  0  0  0  0  0
  -25.9045  -34.9453   23.5118 C   0  0  0  0  0  0
  -16.5352  -29.9076   23.6325 C   0  0  0  0  0  0
  -16.7273  -28.6496   23.0347 C   0  0  0  0  0  0
  -26.4490  -31.6588   25.0737 C   0  0  0  0  0  0
  -25.3732  -31.3725   26.1473 C   0  0  0  0  0  0
  -27.0321  -30.3014   24.6177 C   0  0  0  0  0  0
  -27.6066  -32.4313   25.7492 C   0  0  0  0  0  0
  -27.5587  -37.1785   24.8452 C   0  0  0  0  0  0
  -21.4190  -29.3035   22.3684 N   0  0  0  0  0  0
  -26.4279  -37.3785   23.9426 N   0  0  0  0  0  0
  -24.6872  -31.0623   22.0988 N   0  0  0  0  0  0
  -23.4202  -28.8154   23.3025 O   0  0  0  0  0  0
  -28.3418  -26.4806   20.1297 O   0  0  0  0  0  0
  -26.5612  -34.8921   22.4683 O   0  0  0  0  0  0
  -23.5422  -32.1397   23.7361 O   0  0  0  0  0  0
  -28.9581  -19.3374   19.7189 C   0  0  0  0  0  0
  -30.7372  -17.9331   21.3603 C   0  0  0  0  0  0
  -28.9884  -17.9073   19.7039 C   0  0  0  0  0  0
  -29.8016  -20.1172   20.5519 C   0  0  0  0  0  0
  -29.8747  -17.1626   20.5389 C   0  0  0  0  0  0
  -30.6984  -19.3629   21.3750 C   0  0  0  0  0  0
  -30.4621  -23.8495   20.5549 C   0  0  0  0  0  0
  -30.9193  -22.3912   20.3394 C   0  0  0  0  0  0
  -28.5538  -22.4117   20.3043 C   0  0  0  0  0  0
  -29.0276  -23.8949   20.0149 C   0  0  1  0  0  0
  -28.0306  -17.1942   18.7657 C   0  0  0  0  0  0
  -28.1136  -25.0809   20.5584 C   0  0  0  0  0  0
  -29.7407  -21.5634   20.5899 N   0  0  0  0  0  0
  -31.5139  -20.0332   22.2863 N   0  0  0  0  0  0
  -29.7417  -15.7091   20.6736 N   0  0  0  0  0  0
  -31.4835  -12.5399   19.1448 H   0  0  0  0  0  0
  -30.3891  -11.4124   19.9008 H   0  0  0  0  0  0
  -29.7771  -11.7495   17.4825 H   0  0  0  0  0  0
  -29.6429  -13.4709   17.7365 H   0  0  0  0  0  0
  -27.8805  -11.2813   18.8841 H   0  0  0  0  0  0
  -27.3758  -12.5479   17.7953 H   0  0  0  0  0  0
  -27.6566  -14.2409   19.5007 H   0  0  0  0  0  0
  -28.7171  -12.0650   21.3762 H   0  0  0  0  0  0
  -28.4442  -13.7236   21.8311 H   0  0  0  0  0  0
  -25.2742   -9.5658   22.4755 H   0  0  0  0  0  0
  -23.9985   -7.4606   22.7458 H   0  0  0  0  0  0
  -21.0821   -8.8757   19.8947 H   0  0  0  0  0  0
  -22.3684  -10.9649   19.6153 H   0  0  0  0  0  0
  -21.1998   -7.6128   23.9716 H   0  0  0  0  0  0
  -21.1483   -6.0503   25.9078 H   0  0  0  0  0  0
  -22.0597   -2.7595   23.2849 H   0  0  0  0  0  0
  -22.4052  -11.9876   22.4837 H   0  0  0  0  0  0
  -21.1077  -13.1262   22.2620 H   0  0  0  0  0  0
  -24.6457  -15.8306   20.5399 H   0  0  0  0  0  0
  -26.2634  -15.6321   20.1047 H   0  0  0  0  0  0
  -26.7172  -32.5454   23.1119 H   0  0  0  0  0  0
  -25.0081  -33.9731   25.0449 H   0  0  0  0  0  0
  -22.7128  -31.3039   21.4050 H   0  0  0  0  0  0
  -23.3757  -35.9614   23.3275 H   0  0  0  0  0  0
  -24.3599  -36.8931   22.2056 H   0  0  0  0  0  0
  -23.7223  -37.6483   23.6664 H   0  0  0  0  0  0
  -26.0920  -31.5547   20.6063 H   0  0  0  0  0  0
  -26.8407  -30.8415   22.0043 H   0  0  0  0  0  0
  -28.1172  -28.9904   21.1914 H   0  0  0  0  0  0
  -26.0071  -25.9599   18.9538 H   0  0  0  0  0  0
  -23.9810  -27.3182   18.9914 H   0  0  0  0  0  0
  -23.7532  -30.5959   19.4061 H   0  0  0  0  0  0
  -22.7539  -29.2488   19.8598 H   0  0  0  0  0  0
  -25.1273  -36.1941   25.0827 H   0  0  0  0  0  0
  -20.9978  -28.3254   24.1402 H   0  0  0  0  0  0
  -20.5661  -26.2286   23.3603 H   0  0  0  0  0  0
  -21.6646  -26.7429   22.1210 H   0  0  0  0  0  0
  -19.6911  -25.6291   21.1233 H   0  0  0  0  0  0
  -19.6686  -27.3189   20.6733 H   0  0  0  0  0  0
  -17.4196  -26.6665   21.4020 H   0  0  0  0  0  0
  -18.0333  -26.0069   22.9015 H   0  0  0  0  0  0
  -19.7938  -30.7261   24.2269 H   0  0  0  0  0  0
  -17.5016  -31.6263   24.5154 H   0  0  0  0  0  0
  -15.5351  -30.2977   23.7652 H   0  0  0  0  0  0
  -15.8674  -28.0811   22.7067 H   0  0  0  0  0  0
  -24.5911  -30.7059   25.7820 H   0  0  0  0  0  0
  -24.8908  -32.2883   26.4902 H   0  0  0  0  0  0
  -25.8069  -30.8916   27.0252 H   0  0  0  0  0  0
  -26.2882  -29.6777   24.1206 H   0  0  0  0  0  0
  -27.4028  -29.7261   25.4673 H   0  0  0  0  0  0
  -27.8754  -30.4304   23.9389 H   0  0  0  0  0  0
  -27.2698  -33.3621   26.2071 H   0  0  0  0  0  0
  -28.3868  -32.6858   25.0305 H   0  0  0  0  0  0
  -28.0742  -31.8434   26.5403 H   0  0  0  0  0  0
  -28.2563  -38.0125   24.7575 H   0  0  0  0  0  0
  -28.1127  -36.2667   24.6170 H   0  0  0  0  0  0
  -27.2326  -37.1312   25.8856 H   0  0  0  0  0  0
  -20.9366  -29.8769   21.6904 H   0  0  0  0  0  0
  -26.0163  -38.2851   24.1474 H   0  0  0  0  0  0
  -28.2592  -19.8418   19.0681 H   0  0  0  0  0  0
  -31.4023  -17.4152   22.0359 H   0  0  0  0  0  0
  -31.1172  -24.5698   20.0636 H   0  0  0  0  0  0
  -30.4642  -24.0798   21.6215 H   0  0  0  0  0  0
  -31.7658  -22.1596   20.9845 H   0  0  0  0  0  0
  -31.2470  -22.2425   19.3092 H   0  0  0  0  0  0
  -27.9776  -22.0302   19.4602 H   0  0  0  0  0  0
  -27.8946  -22.3905   21.1739 H   0  0  0  0  0  0
  -29.0881  -23.9987   18.9296 H   0  0  0  0  0  0
  -27.7683  -17.8297   17.9188 H   0  0  0  0  0  0
  -27.1088  -16.9476   19.2872 H   0  0  0  0  0  0
  -28.4669  -16.2815   18.3592 H   0  0  0  0  0  0
  -28.1732  -25.0812   21.6471 H   0  0  0  0  0  0
  -27.0902  -24.7735   20.3557 H   0  0  0  0  0  0
  -31.7163  -19.5556   23.1574 H   0  0  0  0  0  0
  -31.2156  -20.9922   22.4388 H   0  0  0  0  0  0
  -28.7939  -15.3902   20.7933 H   0  0  0  0  0  0
  1 25  1  0  0  0
  1 30  2  0  0  0
  1 85  1  0  0  0
  2  3  1  0  0  0
  2 25  1  0  0  0
  2 86  1  0  0  0
  2 87  1  0  0  0
  3  4  1  0  0  0
  3 88  1  0  0  0
  3 89  1  0  0  0
  4  5  1  0  0  0
  4 90  1  0  0  0
  4 91  1  0  0  0
  5  6  1  0  0  0
  5 26  1  0  0  0
  5 92  1  0  0  0
  6 25  1  0  0  0
  6 93  1  0  0  0
  6 94  1  0  0  0
  7  8  2  0  0  0
  7 26  1  0  0  0
  7 29  1  0  0  0
  8  9  1  0  0  0
  8 22  1  0  0  0
  9 10  1  0  0  0
  9 27  2  0  0  0
 10 11  2  0  0  0
 10 15  1  0  0  0
 11 12  1  0  0  0
 11 95  1  0  0  0
 12 13  2  0  0  0
 12 96  1  0  0  0
 13 14  1  0  0  0
 13 31  1  0  0  0
 14 15  2  0  0  0
 14 97  1  0  0  0
 15 98  1  0  0  0
 16 17  2  0  0  0
 16 21  1  0  0  0
 16 31  1  0  0  0
 17 18  1  0  0  0
 17 99  1  0  0  0
 18 19  2  0  0  0
 18100  1  0  0  0
 19 20  1  0  0  0
 19 24  1  0  0  0
 20 21  2  0  0  0
 20101  1  0  0  0
 21 23  1  0  0  0
 22 28  1  0  0  0
 22 32  2  0  0  0
 26 27  1  0  0  0
 28102  1  0  0  0
 28103  1  0  0  0
 29104  1  0  0  0
 29105  1  0  0  0
 33 34  1  0  0  0
 33 66  1  0  0  0
 33 70  2  0  0  0
 34 36  1  0  0  0
 34 59  1  0  0  0
 34106  1  0  0  0
 35 44  2  0  0  0
 35 45  1  0  0  0
 35 68  1  0  0  0
 36 56  1  0  0  0
 36107  1  0  0  0
 37 39  1  0  0  0
 37 47  1  0  0  0
 37 66  1  0  0  0
 37108  1  0  0  0
 38 43  2  0  0  0
 38 46  1  0  0  0
 38 47  1  0  0  0
 39 64  1  0  0  0
 39 67  2  0  0  0
 40 52  1  0  0  0
 40 53  2  0  0  0
 40 58  1  0  0  0
 41109  1  0  0  0
 41110  1  0  0  0
 41111  1  0  0  0
 41 48  1  0  0  0
 42 43  1  0  0  0
 42 66  1  0  0  0
 42112  1  0  0  0
 42113  1  0  0  0
 43 44  1  0  0  0
 44114  1  0  0  0
 45 46  2  0  0  0
 45115  1  0  0  0
 46116  1  0  0  0
 47117  1  0  0  0
 47118  1  0  0  0
 48 56  1  0  0  0
 48 65  1  0  0  0
 48119  1  0  0  0
 49 50  1  0  0  0
 49 53  1  0  0  0
 49 64  1  0  0  0
 49120  1  0  0  0
 50 51  1  0  0  0
 50121  1  0  0  0
 50122  1  0  0  0
 51 52  1  0  0  0
 51123  1  0  0  0
 51124  1  0  0  0
 52125  1  0  0  0
 52126  1  0  0  0
 53 54  1  0  0  0
 54 55  2  0  0  0
 54127  1  0  0  0
 55 57  1  0  0  0
 55128  1  0  0  0
 56 69  2  0  0  0
 57 58  2  0  0  0
 57129  1  0  0  0
 58130  1  0  0  0
 59 60  1  0  0  0
 59 61  1  0  0  0
 59 62  1  0  0  0
 60131  1  0  0  0
 60132  1  0  0  0
 60133  1  0  0  0
 61134  1  0  0  0
 61135  1  0  0  0
 61136  1  0  0  0
 62137  1  0  0  0
 62138  1  0  0  0
 62139  1  0  0  0
 63 65  1  0  0  0
 63140  1  0  0  0
 63141  1  0  0  0
 63142  1  0  0  0
 64143  1  0  0  0
 65144  1  0  0  0
 68 82  1  0  0  0
 71 73  2  0  0  0
 71 74  1  0  0  0
 71145  1  0  0  0
 72 75  2  0  0  0
 72 76  1  0  0  0
 72146  1  0  0  0
 73 75  1  0  0  0
 73 81  1  0  0  0
 74 76  2  0  0  0
 74 83  1  0  0  0
 75 85  1  0  0  0
 76 84  1  0  0  0
 77 78  1  0  0  0
 77 80  1  0  0  0
 77147  1  0  0  0
 77148  1  0  0  0
 78 83  1  0  0  0
 78149  1  0  0  0
 78150  1  0  0  0
 79 80  1  0  0  0
 79 83  1  0  0  0
 79151  1  0  0  0
 79152  1  0  0  0
 80 82  1  0  0  0
 80153  1  0  0  0
 81154  1  0  0  0
 81155  1  0  0  0
 81156  1  0  0  0
 82157  1  0  0  0
 82158  1  0  0  0
 84159  1  0  0  0
 84160  1  0  0  0
 85161  1  0  0  0
M  ISO  4   1 100  68 101  82 101  85 100
M  END
> <chiral flag>
0

> <version>
0

> <s_m_source_file>
/data/baiqing/PycharmProjects/Reinvent-master-3.2/result/LINK_invent/BTK/process_docking_weight1_custom_product_contain_oxygen_bond_distance_aromatic_linkinvent_7_9_3/rearranged_h_0100.sdf

> <i_m_source_file_index>
51

> <r_mmod_Potential_Energy-OPLS-2005>
139.106918334961

> <r_mmod_Stretch_Energy-OPLS-2005>
77.196533203125

> <r_mmod_Bend_Energy-OPLS-2005>
174.860992431641

> <r_mmod_Torsional_Energy-OPLS-2005>
320.17529296875

> <r_mmod_Improper_Torsional_Energy-OPLS-2005>
13.2441234588623

> <r_mmod_Van_der_Waal_Energy-OPLS-2005>
141.834381103516

> <r_mmod_Electrostatic_Energy-OPLS-2005>
-407.174560546875

> <r_mmod_Solvation_Energy-OPLS-2005>
-233.08674621582

> <b_mmod_Minimization_Converged-OPLS-2005>
0

> <r_mmod_RMS_Derivative-OPLS-2005>
1.28649711608887

$$$$
52
                    3D
 Structure written by MMmdl.
154162  0  0  1  0            999 V2000
  -30.6671  -14.6385   20.5486 C   0  0  0  0  0  0
  -30.4308  -12.4229   19.4298 C   0  0  0  0  0  0
  -29.4942  -12.5040   18.2083 C   0  0  0  0  0  0
  -28.0246  -12.3296   18.6373 C   0  0  0  0  0  0
  -27.6446  -13.2194   19.8519 C   0  0  2  0  0  0
  -28.6945  -13.1153   20.9768 C   0  0  0  0  0  0
  -25.2548  -13.8192   20.5687 C   0  0  0  0  0  0
  -24.1828  -13.0460   20.9214 C   0  0  0  0  0  0
  -24.6399  -11.6924   20.8781 C   0  0  0  0  0  0
  -23.9085  -10.4297   21.0448 C   0  0  0  0  0  0
  -24.3636   -9.4194   21.9210 C   0  0  0  0  0  0
  -23.6297   -8.2240   22.0772 C   0  0  0  0  0  0
  -22.4277   -8.0299   21.3560 C   0  0  0  0  0  0
  -21.9925   -9.0281   20.4659 C   0  0  0  0  0  0
  -22.7272  -10.2148   20.3075 C   0  0  0  0  0  0
  -21.6849   -6.0749   22.5287 C   0  0  0  0  0  0
  -21.4016   -6.5648   23.8225 C   0  0  0  0  0  0
  -21.3652   -5.6793   24.9181 C   0  0  0  0  0  0
  -21.6040   -4.3058   24.7221 C   0  0  0  0  0  0
  -21.8820   -3.8153   23.4342 C   0  0  0  0  0  0
  -21.9189   -4.6977   22.3405 C   0  0  0  0  0  0
  -22.7848  -13.5249   21.1853 C   0  0  0  0  0  0
  -22.1657   -4.2169   21.0983 F   0  0  0  0  0  0
  -21.5616   -3.4531   25.7727 F   0  0  0  0  0  0
  -29.9915  -13.4597   20.3833 N   0  0  0  0  0  0
  -26.2964  -12.9363   20.3315 N   0  0  0  0  0  0
  -25.9328  -11.6516   20.5804 N   0  0  0  0  0  0
  -22.0472  -12.8255   22.0403 N   0  0  0  0  0  0
  -25.4227  -15.1915   20.4085 N   0  0  0  0  0  0
  -31.8669  -14.7065   20.2652 O   0  0  0  0  0  0
  -21.6634   -6.8898   21.4254 O   0  0  0  0  0  0
  -22.3556  -14.5552   20.6684 O   0  0  0  0  0  0
  -24.6282  -31.8638   23.2042 C   0  0  0  0  0  0
  -25.9130  -32.4792   23.8366 C   0  0  1  0  0  0
  -27.1974  -27.2843   20.1122 C   0  0  0  0  0  0
  -25.5949  -33.8576   24.2335 N   0  0  0  0  0  0
  -23.4245  -30.4892   21.5522 C   0  0  2  0  0  0
  -24.8635  -28.9508   20.1118 C   0  0  0  0  0  0
  -22.7494  -29.4652   22.4956 C   0  0  0  0  0  0
  -18.0314  -28.1393   22.8492 C   0  0  0  0  0  0
  -24.1495  -36.7270   23.2641 C   0  0  0  0  0  0
  -25.9706  -30.7777   21.3858 C   0  0  0  0  0  0
  -26.0347  -29.4037   20.7266 C   0  0  0  0  0  0
  -27.2016  -28.5782   20.7294 C   0  0  0  0  0  0
  -26.0077  -26.9165   19.4384 C   0  0  0  0  0  0
  -24.8509  -27.7125   19.4615 C   0  0  0  0  0  0
  -23.6377  -29.8381   20.1648 C   0  0  0  0  0  0
  -25.4109  -36.3075   24.0358 C   0  0  1  0  0  0
  -20.5906  -28.3690   23.1288 C   0  0  2  0  0  0
  -20.6783  -26.9409   22.5416 C   0  0  0  0  0  0
  -19.5752  -26.6376   21.5217 C   0  0  0  0  0  0
  -18.1945  -26.7942   22.1627 C   0  0  0  0  0  0
  -19.1568  -28.8850   23.2894 C   0  0  0  0  0  0
  -18.9472  -30.1444   23.8918 C   0  0  0  0  0  0
  -17.6469  -30.6575   24.0550 C   0  0  0  0  0  0
  -25.9046  -34.9444   23.5141 C   0  0  0  0  0  0
  -16.5360  -29.9068   23.6323 C   0  0  0  0  0  0
  -16.7305  -28.6487   23.0361 C   0  0  0  0  0  0
  -26.4497  -31.6557   25.0726 C   0  0  0  0  0  0
  -25.3734  -31.3716   26.1466 C   0  0  0  0  0  0
  -27.0333  -30.2977   24.6157 C   0  0  0  0  0  0
  -27.6080  -32.4272   25.7494 C   0  0  0  0  0  0
  -27.5607  -37.1790   24.8483 C   0  0  0  0  0  0
  -21.4223  -29.3047   22.3676 N   0  0  0  0  0  0
  -26.4306  -37.3764   23.9430 N   0  0  0  0  0  0
  -24.6939  -31.0626   22.1016 N   0  0  0  0  0  0
  -23.4207  -28.8192   23.3046 O   0  0  0  0  0  0
  -28.2842  -26.3878   20.2074 O   0  0  0  0  0  0
  -26.5568  -34.8902   22.4695 O   0  0  0  0  0  0
  -23.5435  -32.1466   23.7322 O   0  0  0  0  0  0
  -29.6390  -18.7478   19.6206 C   0  0  0  0  0  0
  -29.3163  -20.0964   19.2888 C   0  0  0  0  0  0
  -29.1461  -20.6637   21.6151 C   0  0  0  0  0  0
  -29.7569  -18.3169   20.9660 C   0  0  0  0  0  0
  -29.0844  -21.1039   20.2678 C   0  0  0  0  0  0
  -29.4800  -19.3120   21.9580 C   0  0  0  0  0  0
  -30.3699  -16.9462   21.3232 C   0  0  0  0  0  0
  -28.4876  -24.9267   18.2925 C   0  0  0  0  0  0
  -28.8037  -23.7491   20.5778 C   0  0  0  0  0  0
  -28.1114  -24.9636   19.7866 C   0  0  1  0  0  0
  -28.7959  -22.4436   19.8328 N   0  0  0  0  0  0
  -29.9278  -15.7774   20.7563 N   0  0  0  0  0  0
  -31.2797  -16.9355   22.1594 O   0  0  0  0  0  0
  -29.5452  -18.9873   23.2732 F   0  0  0  0  0  0
  -31.4651  -12.5610   19.1101 H   0  0  0  0  0  0
  -30.3866  -11.4350   19.8905 H   0  0  0  0  0  0
  -29.7631  -11.7438   17.4737 H   0  0  0  0  0  0
  -29.6170  -13.4682   17.7099 H   0  0  0  0  0  0
  -27.8778  -11.2791   18.8907 H   0  0  0  0  0  0
  -27.3590  -12.5343   17.7977 H   0  0  0  0  0  0
  -27.6495  -14.2477   19.4920 H   0  0  0  0  0  0
  -28.7256  -12.1059   21.3915 H   0  0  0  0  0  0
  -28.4476  -13.7802   21.8070 H   0  0  0  0  0  0
  -25.2781   -9.5651   22.4789 H   0  0  0  0  0  0
  -23.9988   -7.4624   22.7493 H   0  0  0  0  0  0
  -21.0854   -8.8838   19.8955 H   0  0  0  0  0  0
  -22.3774  -10.9708   19.6181 H   0  0  0  0  0  0
  -21.2026   -7.6158   23.9745 H   0  0  0  0  0  0
  -21.1462   -6.0512   25.9086 H   0  0  0  0  0  0
  -22.0607   -2.7615   23.2841 H   0  0  0  0  0  0
  -22.4054  -11.9901   22.4791 H   0  0  0  0  0  0
  -21.1110  -13.1324   22.2619 H   0  0  0  0  0  0
  -24.6489  -15.8393   20.5128 H   0  0  0  0  0  0
  -26.2619  -15.6305   20.0554 H   0  0  0  0  0  0
  -26.7211  -32.5448   23.1115 H   0  0  0  0  0  0
  -25.0164  -33.9702   25.0521 H   0  0  0  0  0  0
  -22.7223  -31.3146   21.4158 H   0  0  0  0  0  0
  -23.3770  -35.9597   23.3296 H   0  0  0  0  0  0
  -24.3618  -36.8863   22.2064 H   0  0  0  0  0  0
  -23.7214  -37.6462   23.6646 H   0  0  0  0  0  0
  -26.1071  -31.5378   20.6153 H   0  0  0  0  0  0
  -26.8526  -30.8234   22.0127 H   0  0  0  0  0  0
  -28.0927  -28.9085   21.2453 H   0  0  0  0  0  0
  -25.9115  -25.9981   18.8817 H   0  0  0  0  0  0
  -23.9549  -27.3668   18.9633 H   0  0  0  0  0  0
  -23.7608  -30.6240   19.4192 H   0  0  0  0  0  0
  -22.7521  -29.2801   19.8549 H   0  0  0  0  0  0
  -25.1264  -36.1962   25.0849 H   0  0  0  0  0  0
  -21.0014  -28.3270   24.1400 H   0  0  0  0  0  0
  -20.5670  -26.2301   23.3618 H   0  0  0  0  0  0
  -21.6649  -26.7416   22.1208 H   0  0  0  0  0  0
  -19.6892  -25.6288   21.1243 H   0  0  0  0  0  0
  -19.6683  -27.3188   20.6755 H   0  0  0  0  0  0
  -17.4215  -26.6723   21.4042 H   0  0  0  0  0  0
  -18.0321  -26.0080   22.9011 H   0  0  0  0  0  0
  -19.7936  -30.7250   24.2324 H   0  0  0  0  0  0
  -17.5014  -31.6271   24.5125 H   0  0  0  0  0  0
  -15.5361  -30.2954   23.7608 H   0  0  0  0  0  0
  -15.8736  -28.0770   22.7077 H   0  0  0  0  0  0
  -24.5888  -30.7086   25.7807 H   0  0  0  0  0  0
  -24.8948  -32.2904   26.4873 H   0  0  0  0  0  0
  -25.8037  -30.8896   27.0252 H   0  0  0  0  0  0
  -26.2906  -29.6761   24.1136 H   0  0  0  0  0  0
  -27.4033  -29.7185   25.4622 H   0  0  0  0  0  0
  -27.8787  -30.4274   23.9386 H   0  0  0  0  0  0
  -27.2716  -33.3607   26.2015 H   0  0  0  0  0  0
  -28.3909  -32.6754   25.0319 H   0  0  0  0  0  0
  -28.0726  -31.8401   26.5419 H   0  0  0  0  0  0
  -28.2599  -38.0106   24.7525 H   0  0  0  0  0  0
  -28.1114  -36.2625   24.6298 H   0  0  0  0  0  0
  -27.2333  -37.1442   25.8887 H   0  0  0  0  0  0
  -20.9401  -29.8772   21.6872 H   0  0  0  0  0  0
  -26.0193  -38.2860   24.1378 H   0  0  0  0  0  0
  -29.8662  -18.0479   18.8264 H   0  0  0  0  0  0
  -29.2863  -20.3548   18.2383 H   0  0  0  0  0  0
  -28.9506  -21.3616   22.4167 H   0  0  0  0  0  0
  -28.0939  -24.0364   17.8053 H   0  0  0  0  0  0
  -29.5691  -24.9335   18.1655 H   0  0  0  0  0  0
  -28.0840  -25.7810   17.7516 H   0  0  0  0  0  0
  -28.3001  -23.6153   21.5381 H   0  0  0  0  0  0
  -29.8337  -24.0163   20.8128 H   0  0  0  0  0  0
  -27.0650  -24.6864   19.8858 H   0  0  0  0  0  0
  -28.7917  -22.5780   18.8255 H   0  0  0  0  0  0
  -28.9840  -15.7737   20.4131 H   0  0  0  0  0  0
  1 25  1  0  0  0
  1 30  2  0  0  0
  1 82  1  0  0  0
  2  3  1  0  0  0
  2 25  1  0  0  0
  2 85  1  0  0  0
  2 86  1  0  0  0
  3  4  1  0  0  0
  3 87  1  0  0  0
  3 88  1  0  0  0
  4  5  1  0  0  0
  4 89  1  0  0  0
  4 90  1  0  0  0
  5  6  1  0  0  0
  5 26  1  0  0  0
  5 91  1  0  0  0
  6 25  1  0  0  0
  6 92  1  0  0  0
  6 93  1  0  0  0
  7  8  2  0  0  0
  7 26  1  0  0  0
  7 29  1  0  0  0
  8  9  1  0  0  0
  8 22  1  0  0  0
  9 10  1  0  0  0
  9 27  2  0  0  0
 10 11  2  0  0  0
 10 15  1  0  0  0
 11 12  1  0  0  0
 11 94  1  0  0  0
 12 13  2  0  0  0
 12 95  1  0  0  0
 13 14  1  0  0  0
 13 31  1  0  0  0
 14 15  2  0  0  0
 14 96  1  0  0  0
 15 97  1  0  0  0
 16 17  2  0  0  0
 16 21  1  0  0  0
 16 31  1  0  0  0
 17 18  1  0  0  0
 17 98  1  0  0  0
 18 19  2  0  0  0
 18 99  1  0  0  0
 19 20  1  0  0  0
 19 24  1  0  0  0
 20 21  2  0  0  0
 20100  1  0  0  0
 21 23  1  0  0  0
 22 28  1  0  0  0
 22 32  2  0  0  0
 26 27  1  0  0  0
 28101  1  0  0  0
 28102  1  0  0  0
 29103  1  0  0  0
 29104  1  0  0  0
 33 34  1  0  0  0
 33 66  1  0  0  0
 33 70  2  0  0  0
 34 36  1  0  0  0
 34 59  1  0  0  0
 34105  1  0  0  0
 35 44  2  0  0  0
 35 45  1  0  0  0
 35 68  1  0  0  0
 36 56  1  0  0  0
 36106  1  0  0  0
 37 39  1  0  0  0
 37 47  1  0  0  0
 37 66  1  0  0  0
 37107  1  0  0  0
 38 43  2  0  0  0
 38 46  1  0  0  0
 38 47  1  0  0  0
 39 64  1  0  0  0
 39 67  2  0  0  0
 40 52  1  0  0  0
 40 53  2  0  0  0
 40 58  1  0  0  0
 41108  1  0  0  0
 41109  1  0  0  0
 41110  1  0  0  0
 41 48  1  0  0  0
 42 43  1  0  0  0
 42 66  1  0  0  0
 42111  1  0  0  0
 42112  1  0  0  0
 43 44  1  0  0  0
 44113  1  0  0  0
 45 46  2  0  0  0
 45114  1  0  0  0
 46115  1  0  0  0
 47116  1  0  0  0
 47117  1  0  0  0
 48 56  1  0  0  0
 48 65  1  0  0  0
 48118  1  0  0  0
 49 50  1  0  0  0
 49 53  1  0  0  0
 49 64  1  0  0  0
 49119  1  0  0  0
 50 51  1  0  0  0
 50120  1  0  0  0
 50121  1  0  0  0
 51 52  1  0  0  0
 51122  1  0  0  0
 51123  1  0  0  0
 52124  1  0  0  0
 52125  1  0  0  0
 53 54  1  0  0  0
 54 55  2  0  0  0
 54126  1  0  0  0
 55 57  1  0  0  0
 55127  1  0  0  0
 56 69  2  0  0  0
 57 58  2  0  0  0
 57128  1  0  0  0
 58129  1  0  0  0
 59 60  1  0  0  0
 59 61  1  0  0  0
 59 62  1  0  0  0
 60130  1  0  0  0
 60131  1  0  0  0
 60132  1  0  0  0
 61133  1  0  0  0
 61134  1  0  0  0
 61135  1  0  0  0
 62136  1  0  0  0
 62137  1  0  0  0
 62138  1  0  0  0
 63 65  1  0  0  0
 63139  1  0  0  0
 63140  1  0  0  0
 63141  1  0  0  0
 64142  1  0  0  0
 65143  1  0  0  0
 68 80  1  0  0  0
 71 72  2  0  0  0
 71 74  1  0  0  0
 71144  1  0  0  0
 72 75  1  0  0  0
 72145  1  0  0  0
 73 75  2  0  0  0
 73 76  1  0  0  0
 73146  1  0  0  0
 74 76  2  0  0  0
 74 77  1  0  0  0
 75 81  1  0  0  0
 76 84  1  0  0  0
 77 82  1  0  0  0
 77 83  2  0  0  0
 78147  1  0  0  0
 78148  1  0  0  0
 78149  1  0  0  0
 78 80  1  0  0  0
 79 80  1  0  0  0
 79 81  1  0  0  0
 79150  1  0  0  0
 79151  1  0  0  0
 80152  1  0  0  0
 81153  1  0  0  0
 82154  1  0  0  0
M  ISO  4   1 100  68 101  80 101  82 100
M  END
> <chiral flag>
0

> <version>
0

> <s_m_source_file>
/data/baiqing/PycharmProjects/Reinvent-master-3.2/result/LINK_invent/BTK/process_docking_weight1_custom_product_contain_oxygen_bond_distance_aromatic_linkinvent_7_9_3/rearranged_h_0100.sdf

> <i_m_source_file_index>
52

> <r_mmod_Potential_Energy-OPLS-2005>
84.2943954467773

> <r_mmod_Stretch_Energy-OPLS-2005>
82.9199066162109

> <r_mmod_Bend_Energy-OPLS-2005>
160.430389404297

> <r_mmod_Torsional_Energy-OPLS-2005>
255.974685668945

> <r_mmod_Improper_Torsional_Energy-OPLS-2005>
8.2853832244873

> <r_mmod_Van_der_Waal_Energy-OPLS-2005>
155.116943359375

> <r_mmod_Electrostatic_Energy-OPLS-2005>
-415.922943115234

> <r_mmod_Solvation_Energy-OPLS-2005>
-228.950729370117

> <b_mmod_Minimization_Converged-OPLS-2005>
0

> <r_mmod_RMS_Derivative-OPLS-2005>
4.16206073760986

$$$$
53
                    3D
 Structure written by MMmdl.
156164  0  0  1  0            999 V2000
  -30.6900  -14.4674   20.5587 C   0  0  0  0  0  0
  -30.4298  -12.2929   19.4347 C   0  0  0  0  0  0
  -29.5014  -12.4915   18.2174 C   0  0  0  0  0  0
  -28.0234  -12.3518   18.6308 C   0  0  0  0  0  0
  -27.6695  -13.1981   19.8831 C   0  0  2  0  0  0
  -28.7073  -12.9783   21.0065 C   0  0  0  0  0  0
  -25.2652  -13.8158   20.5704 C   0  0  0  0  0  0
  -24.1879  -13.0448   20.9165 C   0  0  0  0  0  0
  -24.6406  -11.6910   20.8726 C   0  0  0  0  0  0
  -23.9059  -10.4301   21.0395 C   0  0  0  0  0  0
  -24.3617   -9.4225   21.9181 C   0  0  0  0  0  0
  -23.6294   -8.2257   22.0774 C   0  0  0  0  0  0
  -22.4276   -8.0288   21.3556 C   0  0  0  0  0  0
  -21.9900   -9.0257   20.4657 C   0  0  0  0  0  0
  -22.7224  -10.2137   20.3057 C   0  0  0  0  0  0
  -21.6854   -6.0735   22.5275 C   0  0  0  0  0  0
  -21.4012   -6.5646   23.8206 C   0  0  0  0  0  0
  -21.3651   -5.6805   24.9173 C   0  0  0  0  0  0
  -21.6043   -4.3068   24.7223 C   0  0  0  0  0  0
  -21.8819   -3.8152   23.4346 C   0  0  0  0  0  0
  -21.9196   -4.6963   22.3400 C   0  0  0  0  0  0
  -22.7902  -13.5256   21.1810 C   0  0  0  0  0  0
  -22.1664   -4.2146   21.0976 F   0  0  0  0  0  0
  -21.5621   -3.4557   25.7736 F   0  0  0  0  0  0
  -30.0444  -13.2745   20.4605 N   0  0  0  0  0  0
  -26.3078  -12.9301   20.3409 N   0  0  0  0  0  0
  -25.9336  -11.6477   20.5786 N   0  0  0  0  0  0
  -22.0537  -12.8256   22.0370 N   0  0  0  0  0  0
  -25.4418  -15.1877   20.4153 N   0  0  0  0  0  0
  -31.8000  -14.6763   20.0595 O   0  0  0  0  0  0
  -21.6646   -6.8882   21.4239 O   0  0  0  0  0  0
  -22.3587  -14.5562   20.6656 O   0  0  0  0  0  0
  -24.6164  -31.8696   23.2115 C   0  0  0  0  0  0
  -25.9069  -32.4829   23.8398 C   0  0  1  0  0  0
  -27.2367  -27.4317   20.0844 C   0  0  0  0  0  0
  -25.5937  -33.8625   24.2337 N   0  0  0  0  0  0
  -23.4014  -30.4943   21.5538 C   0  0  2  0  0  0
  -24.8450  -28.9600   20.1197 C   0  0  0  0  0  0
  -22.7398  -29.4675   22.5002 C   0  0  0  0  0  0
  -18.0304  -28.1345   22.8485 C   0  0  0  0  0  0
  -24.1493  -36.7320   23.2628 C   0  0  0  0  0  0
  -25.9318  -30.8335   21.3643 C   0  0  0  0  0  0
  -26.0070  -29.4666   20.7123 C   0  0  0  0  0  0
  -27.2009  -28.7091   20.6937 C   0  0  0  0  0  0
  -26.0416  -26.9305   19.5117 C   0  0  0  0  0  0
  -24.8562  -27.6882   19.5251 C   0  0  0  0  0  0
  -23.6098  -29.8307   20.1672 C   0  0  0  0  0  0
  -25.4114  -36.3113   24.0328 C   0  0  1  0  0  0
  -20.5878  -28.3672   23.1345 C   0  0  2  0  0  0
  -20.6834  -26.9415   22.5439 C   0  0  0  0  0  0
  -19.5836  -26.6401   21.5211 C   0  0  0  0  0  0
  -18.2002  -26.7913   22.1602 C   0  0  0  0  0  0
  -19.1534  -28.8825   23.2918 C   0  0  0  0  0  0
  -18.9435  -30.1433   23.8911 C   0  0  0  0  0  0
  -17.6421  -30.6555   24.0526 C   0  0  0  0  0  0
  -25.9034  -34.9474   23.5120 C   0  0  0  0  0  0
  -16.5332  -29.9026   23.6259 C   0  0  0  0  0  0
  -16.7294  -28.6444   23.0303 C   0  0  0  0  0  0
  -26.4506  -31.6594   25.0718 C   0  0  0  0  0  0
  -25.3782  -31.3695   26.1472 C   0  0  0  0  0  0
  -27.0328  -30.3039   24.6085 C   0  0  0  0  0  0
  -27.6086  -32.4312   25.7489 C   0  0  0  0  0  0
  -27.5580  -37.1815   24.8455 C   0  0  0  0  0  0
  -21.4122  -29.3054   22.3753 N   0  0  0  0  0  0
  -26.4296  -37.3789   23.9389 N   0  0  0  0  0  0
  -24.6686  -31.0786   22.1033 N   0  0  0  0  0  0
  -23.4171  -28.8233   23.3054 O   0  0  0  0  0  0
  -28.4350  -26.7395   20.0811 O   0  0  0  0  0  0
  -26.5561  -34.8923   22.4661 O   0  0  0  0  0  0
  -23.5363  -32.1478   23.7506 O   0  0  0  0  0  0
  -29.7349  -18.4799   18.9216 C   0  0  0  0  0  0
  -30.1020  -17.1942   19.3709 C   0  0  0  0  0  0
  -28.8135  -18.9973   21.1095 C   0  0  0  0  0  0
  -29.0725  -19.3894   19.7763 C   0  0  0  0  0  0
  -29.7994  -16.7848   20.6919 C   0  0  0  0  0  0
  -29.1671  -17.7063   21.5572 C   0  0  0  0  0  0
  -28.5308  -20.6813   19.2182 C   0  0  0  0  0  0
  -28.5611  -24.2691   20.2289 C   0  0  0  0  0  0
  -26.3745  -22.9375   20.2428 C   0  0  0  0  0  0
  -28.5653  -25.5206   19.3258 C   0  0  0  0  0  0
  -27.8176  -23.0185   19.7127 C   0  0  2  0  0  0
  -29.9937  -15.4477   21.1579 N   0  0  0  0  0  0
  -28.5203  -21.7585   20.0196 N   0  0  0  0  0  0
  -28.1143  -20.7164   18.0584 O   0  0  0  0  0  0
  -29.1496  -24.2799   21.3166 O   0  0  0  0  0  0
  -28.8601  -17.3344   22.8239 F   0  0  0  0  0  0
  -31.4752  -12.3919   19.1364 H   0  0  0  0  0  0
  -30.3333  -11.2816   19.8341 H   0  0  0  0  0  0
  -29.7426  -11.7590   17.4461 H   0  0  0  0  0  0
  -29.6746  -13.4747   17.7762 H   0  0  0  0  0  0
  -27.8422  -11.2958   18.8392 H   0  0  0  0  0  0
  -27.3699  -12.6141   17.7982 H   0  0  0  0  0  0
  -27.7185  -14.2450   19.5847 H   0  0  0  0  0  0
  -28.6778  -11.9477   21.3615 H   0  0  0  0  0  0
  -28.4627  -13.5855   21.8786 H   0  0  0  0  0  0
  -25.2756   -9.5714   22.4767 H   0  0  0  0  0  0
  -23.9997   -7.4663   22.7520 H   0  0  0  0  0  0
  -21.0827   -8.8783   19.8974 H   0  0  0  0  0  0
  -22.3676  -10.9691   19.6187 H   0  0  0  0  0  0
  -21.2005   -7.6155   23.9704 H   0  0  0  0  0  0
  -21.1474   -6.0539   25.9074 H   0  0  0  0  0  0
  -22.0602   -2.7616   23.2849 H   0  0  0  0  0  0
  -22.4110  -11.9880   22.4720 H   0  0  0  0  0  0
  -21.1179  -13.1345   22.2604 H   0  0  0  0  0  0
  -24.6851  -15.8500   20.5419 H   0  0  0  0  0  0
  -26.3079  -15.6297   20.1323 H   0  0  0  0  0  0
  -26.7131  -32.5547   23.1155 H   0  0  0  0  0  0
  -25.0147  -33.9772   25.0523 H   0  0  0  0  0  0
  -22.6895  -31.3106   21.4185 H   0  0  0  0  0  0
  -23.3743  -35.9665   23.3312 H   0  0  0  0  0  0
  -24.3584  -36.8915   22.2040 H   0  0  0  0  0  0
  -23.7270  -37.6538   23.6632 H   0  0  0  0  0  0
  -26.0427  -31.6006   20.5967 H   0  0  0  0  0  0
  -26.8215  -30.8882   21.9806 H   0  0  0  0  0  0
  -28.1036  -29.1037   21.1427 H   0  0  0  0  0  0
  -25.9839  -25.9545   19.0583 H   0  0  0  0  0  0
  -23.9548  -27.2874   19.0827 H   0  0  0  0  0  0
  -23.7225  -30.6090   19.4125 H   0  0  0  0  0  0
  -22.7325  -29.2572   19.8651 H   0  0  0  0  0  0
  -25.1301  -36.1974   25.0823 H   0  0  0  0  0  0
  -20.9977  -28.3267   24.1457 H   0  0  0  0  0  0
  -20.5763  -26.2246   23.3610 H   0  0  0  0  0  0
  -21.6720  -26.7496   22.1236 H   0  0  0  0  0  0
  -19.6994  -25.6332   21.1208 H   0  0  0  0  0  0
  -19.6783  -27.3214   20.6751 H   0  0  0  0  0  0
  -17.4265  -26.6668   21.4006 H   0  0  0  0  0  0
  -18.0401  -26.0049   22.8977 H   0  0  0  0  0  0
  -19.7888  -30.7278   24.2272 H   0  0  0  0  0  0
  -17.4942  -31.6243   24.5079 H   0  0  0  0  0  0
  -15.5325  -30.2907   23.7526 H   0  0  0  0  0  0
  -15.8739  -28.0734   22.6959 H   0  0  0  0  0  0
  -24.5938  -30.7055   25.7809 H   0  0  0  0  0  0
  -24.8978  -32.2852   26.4939 H   0  0  0  0  0  0
  -25.8142  -30.8840   27.0215 H   0  0  0  0  0  0
  -26.2856  -29.6801   24.1156 H   0  0  0  0  0  0
  -27.4130  -29.7276   25.4523 H   0  0  0  0  0  0
  -27.8684  -30.4375   23.9213 H   0  0  0  0  0  0
  -27.2713  -33.3594   26.2107 H   0  0  0  0  0  0
  -28.3880  -32.6897   25.0313 H   0  0  0  0  0  0
  -28.0789  -31.8420   26.5366 H   0  0  0  0  0  0
  -28.2620  -38.0099   24.7492 H   0  0  0  0  0  0
  -28.1066  -36.2624   24.6311 H   0  0  0  0  0  0
  -27.2284  -37.1508   25.8857 H   0  0  0  0  0  0
  -20.9261  -29.8741   21.6969 H   0  0  0  0  0  0
  -26.0192  -38.2874   24.1369 H   0  0  0  0  0  0
  -29.9230  -18.7498   17.8901 H   0  0  0  0  0  0
  -30.5713  -16.5208   18.6682 H   0  0  0  0  0  0
  -28.2895  -19.6593   21.7837 H   0  0  0  0  0  0
  -25.8391  -22.0985   19.7985 H   0  0  0  0  0  0
  -25.8098  -23.8402   20.0143 H   0  0  0  0  0  0
  -26.3539  -22.8053   21.3268 H   0  0  0  0  0  0
  -27.8471  -25.4295   18.5131 H   0  0  0  0  0  0
  -29.5385  -25.5484   18.8343 H   0  0  0  0  0  0
  -27.7525  -23.1265   18.6284 H   0  0  0  0  0  0
  -29.2819  -15.1342   21.8004 H   0  0  0  0  0  0
  -28.9676  -21.6923   20.9236 H   0  0  0  0  0  0
  1 25  1  0  0  0
  1 30  2  0  0  0
  1 82  1  0  0  0
  2  3  1  0  0  0
  2 25  1  0  0  0
  2 87  1  0  0  0
  2 88  1  0  0  0
  3  4  1  0  0  0
  3 89  1  0  0  0
  3 90  1  0  0  0
  4  5  1  0  0  0
  4 91  1  0  0  0
  4 92  1  0  0  0
  5  6  1  0  0  0
  5 26  1  0  0  0
  5 93  1  0  0  0
  6 25  1  0  0  0
  6 94  1  0  0  0
  6 95  1  0  0  0
  7  8  2  0  0  0
  7 26  1  0  0  0
  7 29  1  0  0  0
  8  9  1  0  0  0
  8 22  1  0  0  0
  9 10  1  0  0  0
  9 27  2  0  0  0
 10 11  2  0  0  0
 10 15  1  0  0  0
 11 12  1  0  0  0
 11 96  1  0  0  0
 12 13  2  0  0  0
 12 97  1  0  0  0
 13 14  1  0  0  0
 13 31  1  0  0  0
 14 15  2  0  0  0
 14 98  1  0  0  0
 15 99  1  0  0  0
 16 17  2  0  0  0
 16 21  1  0  0  0
 16 31  1  0  0  0
 17 18  1  0  0  0
 17100  1  0  0  0
 18 19  2  0  0  0
 18101  1  0  0  0
 19 20  1  0  0  0
 19 24  1  0  0  0
 20 21  2  0  0  0
 20102  1  0  0  0
 21 23  1  0  0  0
 22 28  1  0  0  0
 22 32  2  0  0  0
 26 27  1  0  0  0
 28103  1  0  0  0
 28104  1  0  0  0
 29105  1  0  0  0
 29106  1  0  0  0
 33 34  1  0  0  0
 33 66  1  0  0  0
 33 70  2  0  0  0
 34 36  1  0  0  0
 34 59  1  0  0  0
 34107  1  0  0  0
 35 44  2  0  0  0
 35 45  1  0  0  0
 35 68  1  0  0  0
 36 56  1  0  0  0
 36108  1  0  0  0
 37 39  1  0  0  0
 37 47  1  0  0  0
 37 66  1  0  0  0
 37109  1  0  0  0
 38 43  2  0  0  0
 38 46  1  0  0  0
 38 47  1  0  0  0
 39 64  1  0  0  0
 39 67  2  0  0  0
 40 52  1  0  0  0
 40 53  2  0  0  0
 40 58  1  0  0  0
 41110  1  0  0  0
 41111  1  0  0  0
 41112  1  0  0  0
 41 48  1  0  0  0
 42 43  1  0  0  0
 42 66  1  0  0  0
 42113  1  0  0  0
 42114  1  0  0  0
 43 44  1  0  0  0
 44115  1  0  0  0
 45 46  2  0  0  0
 45116  1  0  0  0
 46117  1  0  0  0
 47118  1  0  0  0
 47119  1  0  0  0
 48 56  1  0  0  0
 48 65  1  0  0  0
 48120  1  0  0  0
 49 50  1  0  0  0
 49 53  1  0  0  0
 49 64  1  0  0  0
 49121  1  0  0  0
 50 51  1  0  0  0
 50122  1  0  0  0
 50123  1  0  0  0
 51 52  1  0  0  0
 51124  1  0  0  0
 51125  1  0  0  0
 52126  1  0  0  0
 52127  1  0  0  0
 53 54  1  0  0  0
 54 55  2  0  0  0
 54128  1  0  0  0
 55 57  1  0  0  0
 55129  1  0  0  0
 56 69  2  0  0  0
 57 58  2  0  0  0
 57130  1  0  0  0
 58131  1  0  0  0
 59 60  1  0  0  0
 59 61  1  0  0  0
 59 62  1  0  0  0
 60132  1  0  0  0
 60133  1  0  0  0
 60134  1  0  0  0
 61135  1  0  0  0
 61136  1  0  0  0
 61137  1  0  0  0
 62138  1  0  0  0
 62139  1  0  0  0
 62140  1  0  0  0
 63 65  1  0  0  0
 63141  1  0  0  0
 63142  1  0  0  0
 63143  1  0  0  0
 64144  1  0  0  0
 65145  1  0  0  0
 68 80  1  0  0  0
 71 72  2  0  0  0
 71 74  1  0  0  0
 71146  1  0  0  0
 72 75  1  0  0  0
 72147  1  0  0  0
 73 74  2  0  0  0
 73 76  1  0  0  0
 73148  1  0  0  0
 74 77  1  0  0  0
 75 76  2  0  0  0
 75 82  1  0  0  0
 76 86  1  0  0  0
 77 83  1  0  0  0
 77 84  2  0  0  0
 78 80  1  0  0  0
 78 81  1  0  0  0
 78 85  2  0  0  0
 79149  1  0  0  0
 79150  1  0  0  0
 79151  1  0  0  0
 79 81  1  0  0  0
 80152  1  0  0  0
 80153  1  0  0  0
 81 83  1  0  0  0
 81154  1  0  0  0
 82155  1  0  0  0
 83156  1  0  0  0
M  ISO  4   1 100  68 101  80 101  82 100
M  END
> <chiral flag>
0

> <version>
0

> <s_m_source_file>
/data/baiqing/PycharmProjects/Reinvent-master-3.2/result/LINK_invent/BTK/process_docking_weight1_custom_product_contain_oxygen_bond_distance_aromatic_linkinvent_7_9_3/rearranged_h_0100.sdf

> <i_m_source_file_index>
53

> <r_mmod_Potential_Energy-OPLS-2005>
-153.429046630859

> <r_mmod_Stretch_Energy-OPLS-2005>
37.5583534240723

> <r_mmod_Bend_Energy-OPLS-2005>
101.713005065918

> <r_mmod_Torsional_Energy-OPLS-2005>
245.756622314453

> <r_mmod_Improper_Torsional_Energy-OPLS-2005>
4.90842008590698

> <r_mmod_Van_der_Waal_Energy-OPLS-2005>
154.838470458984

> <r_mmod_Electrostatic_Energy-OPLS-2005>
-473.815002441406

> <r_mmod_Solvation_Energy-OPLS-2005>
-236.885818481445

> <b_mmod_Minimization_Converged-OPLS-2005>
0

> <r_mmod_RMS_Derivative-OPLS-2005>
2.7986843585968

$$$$
54
                    3D
 Structure written by MMmdl.
162170  0  0  1  0            999 V2000
  -30.5666  -14.6609   20.5182 C   0  0  0  0  0  0
  -30.4493  -12.4046   19.4570 C   0  0  0  0  0  0
  -29.5129  -12.5066   18.2295 C   0  0  0  0  0  0
  -28.0341  -12.3397   18.6370 C   0  0  0  0  0  0
  -27.6533  -13.2080   19.8644 C   0  0  2  0  0  0
  -28.6925  -13.0362   20.9942 C   0  0  0  0  0  0
  -25.2552  -13.8152   20.5643 C   0  0  0  0  0  0
  -24.1831  -13.0432   20.9197 C   0  0  0  0  0  0
  -24.6398  -11.6897   20.8758 C   0  0  0  0  0  0
  -23.9077  -10.4280   21.0416 C   0  0  0  0  0  0
  -24.3625   -9.4194   21.9198 C   0  0  0  0  0  0
  -23.6291   -8.2235   22.0764 C   0  0  0  0  0  0
  -22.4276   -8.0275   21.3541 C   0  0  0  0  0  0
  -21.9910   -9.0257   20.4652 C   0  0  0  0  0  0
  -22.7249  -10.2131   20.3060 C   0  0  0  0  0  0
  -21.6838   -6.0741   22.5285 C   0  0  0  0  0  0
  -21.4010   -6.5642   23.8224 C   0  0  0  0  0  0
  -21.3660   -5.6793   24.9184 C   0  0  0  0  0  0
  -21.6039   -4.3058   24.7226 C   0  0  0  0  0  0
  -21.8822   -3.8152   23.4348 C   0  0  0  0  0  0
  -21.9192   -4.6970   22.3405 C   0  0  0  0  0  0
  -22.7850  -13.5223   21.1870 C   0  0  0  0  0  0
  -22.1657   -4.2154   21.0979 F   0  0  0  0  0  0
  -21.5629   -3.4543   25.7739 F   0  0  0  0  0  0
  -30.0072  -13.4091   20.4463 N   0  0  0  0  0  0
  -26.2969  -12.9316   20.3281 N   0  0  0  0  0  0
  -25.9307  -11.6480   20.5738 N   0  0  0  0  0  0
  -22.0495  -12.8215   22.0434 N   0  0  0  0  0  0
  -25.4276  -15.1867   20.3983 N   0  0  0  0  0  0
  -31.7082  -14.8819   20.1016 O   0  0  0  0  0  0
  -21.6621   -6.8884   21.4244 O   0  0  0  0  0  0
  -22.3533  -14.5522   20.6712 O   0  0  0  0  0  0
  -24.6273  -31.8538   23.2024 C   0  0  0  0  0  0
  -25.9123  -32.4741   23.8325 C   0  0  1  0  0  0
  -27.2246  -27.3168   20.1083 C   0  0  0  0  0  0
  -25.5923  -33.8535   24.2243 N   0  0  0  0  0  0
  -23.4187  -30.4771   21.5441 C   0  0  2  0  0  0
  -24.8636  -28.9289   20.1041 C   0  0  0  0  0  0
  -22.7473  -29.4576   22.4949 C   0  0  0  0  0  0
  -18.0266  -28.1373   22.8464 C   0  0  0  0  0  0
  -24.1485  -36.7313   23.2637 C   0  0  0  0  0  0
  -25.9563  -30.7867   21.3695 C   0  0  0  0  0  0
  -26.0280  -29.4138   20.7099 C   0  0  0  0  0  0
  -27.2078  -28.6148   20.7067 C   0  0  0  0  0  0
  -26.0354  -26.8735   19.4875 C   0  0  0  0  0  0
  -24.8687  -27.6662   19.4869 C   0  0  0  0  0  0
  -23.6314  -29.8098   20.1584 C   0  0  0  0  0  0
  -25.4110  -36.3072   24.0322 C   0  0  1  0  0  0
  -20.5861  -28.3665   23.1287 C   0  0  2  0  0  0
  -20.6763  -26.9392   22.5409 C   0  0  0  0  0  0
  -19.5747  -26.6370   21.5200 C   0  0  0  0  0  0
  -18.1917  -26.7902   22.1612 C   0  0  0  0  0  0
  -19.1519  -28.8842   23.2859 C   0  0  0  0  0  0
  -18.9453  -30.1453   23.8860 C   0  0  0  0  0  0
  -17.6456  -30.6576   24.0555 C   0  0  0  0  0  0
  -25.9056  -34.9435   23.5096 C   0  0  0  0  0  0
  -16.5343  -29.9075   23.6337 C   0  0  0  0  0  0
  -16.7254  -28.6507   23.0322 C   0  0  0  0  0  0
  -26.4492  -31.6580   25.0705 C   0  0  0  0  0  0
  -25.3714  -31.3754   26.1434 C   0  0  0  0  0  0
  -27.0336  -30.2994   24.6192 C   0  0  0  0  0  0
  -27.6020  -32.4339   25.7489 C   0  0  0  0  0  0
  -27.5589  -37.1810   24.8456 C   0  0  0  0  0  0
  -21.4192  -29.3013   22.3702 N   0  0  0  0  0  0
  -26.4290  -37.3772   23.9407 N   0  0  0  0  0  0
  -24.6859  -31.0565   22.0960 N   0  0  0  0  0  0
  -23.4200  -28.8121   23.3024 O   0  0  0  0  0  0
  -28.3658  -26.5072   20.1874 O   0  0  0  0  0  0
  -26.5640  -34.8921   22.4669 O   0  0  0  0  0  0
  -23.5440  -32.1324   23.7393 O   0  0  0  0  0  0
  -30.4955  -18.0192   20.2671 C   0  0  0  0  0  0
  -28.2829  -17.6327   21.1144 C   0  0  0  0  0  0
  -29.5445  -17.0823   20.7722 C   0  0  0  0  0  0
  -30.1814  -19.4178   20.1025 C   0  0  0  0  0  0
  -28.8947  -19.9489   20.4415 C   0  0  0  0  0  0
  -27.9620  -19.0053   20.9442 C   0  0  0  0  0  0
  -28.1070  -23.8997   20.3658 C   0  0  0  0  0  0
  -31.0927  -23.8887   23.6595 C   0  0  0  0  0  0
  -28.4920  -25.1872   19.5295 C   0  0  0  0  0  0
  -30.5262  -23.9339   22.2362 C   0  0  0  0  0  0
  -29.7634  -22.6451   21.8719 C   0  0  0  0  0  0
  -29.0964  -22.6308   20.4726 C   0  0  1  0  0  0
  -31.1399  -20.2721   19.5567 N   0  0  0  0  0  0
  -29.7144  -15.6363   20.9771 N   0  0  0  0  0  0
  -28.4242  -21.3044   20.2627 N   0  0  0  0  0  0
  -27.0141  -23.8759   20.9407 O   0  0  0  0  0  0
  -26.7129  -19.4286   21.2646 F   0  0  0  0  0  0
  -31.4873  -12.5562   19.1558 H   0  0  0  0  0  0
  -30.4079  -11.4031   19.8895 H   0  0  0  0  0  0
  -29.7804  -11.7519   17.4874 H   0  0  0  0  0  0
  -29.6515  -13.4754   17.7477 H   0  0  0  0  0  0
  -27.8759  -11.2851   18.8704 H   0  0  0  0  0  0
  -27.3811  -12.5613   17.7932 H   0  0  0  0  0  0
  -27.6773  -14.2454   19.5289 H   0  0  0  0  0  0
  -28.7097  -12.0009   21.3354 H   0  0  0  0  0  0
  -28.4216  -13.6239   21.8717 H   0  0  0  0  0  0
  -25.2765   -9.5649   22.4775 H   0  0  0  0  0  0
  -23.9994   -7.4608   22.7471 H   0  0  0  0  0  0
  -21.0844   -8.8775   19.8942 H   0  0  0  0  0  0
  -22.3723  -10.9671   19.6162 H   0  0  0  0  0  0
  -21.2004   -7.6151   23.9725 H   0  0  0  0  0  0
  -21.1475   -6.0525   25.9084 H   0  0  0  0  0  0
  -22.0604   -2.7614   23.2842 H   0  0  0  0  0  0
  -22.4086  -11.9837   22.4791 H   0  0  0  0  0  0
  -21.1126  -13.1241   22.2673 H   0  0  0  0  0  0
  -24.6514  -15.8347   20.4704 H   0  0  0  0  0  0
  -26.2571  -15.6069   19.9998 H   0  0  0  0  0  0
  -26.7187  -32.5401   23.1071 H   0  0  0  0  0  0
  -25.0001  -33.9641   25.0342 H   0  0  0  0  0  0
  -22.7134  -31.2994   21.4040 H   0  0  0  0  0  0
  -23.3733  -35.9664   23.3280 H   0  0  0  0  0  0
  -24.3564  -36.8962   22.2058 H   0  0  0  0  0  0
  -23.7264  -37.6516   23.6670 H   0  0  0  0  0  0
  -26.0856  -31.5543   20.6048 H   0  0  0  0  0  0
  -26.8385  -30.8330   21.9955 H   0  0  0  0  0  0
  -28.1035  -28.9788   21.1902 H   0  0  0  0  0  0
  -25.9730  -25.8958   19.0303 H   0  0  0  0  0  0
  -23.9706  -27.2850   19.0225 H   0  0  0  0  0  0
  -23.7502  -30.5850   19.4005 H   0  0  0  0  0  0
  -22.7503  -29.2421   19.8542 H   0  0  0  0  0  0
  -25.1291  -36.1918   25.0818 H   0  0  0  0  0  0
  -20.9909  -28.3225   24.1436 H   0  0  0  0  0  0
  -20.5683  -26.2262   23.3599 H   0  0  0  0  0  0
  -21.6639  -26.7446   22.1212 H   0  0  0  0  0  0
  -19.6927  -25.6284   21.1238 H   0  0  0  0  0  0
  -19.6708  -27.3179   20.6721 H   0  0  0  0  0  0
  -17.4198  -26.6621   21.3998 H   0  0  0  0  0  0
  -18.0332  -26.0046   22.9017 H   0  0  0  0  0  0
  -19.7947  -30.7245   24.2224 H   0  0  0  0  0  0
  -17.5034  -31.6262   24.5146 H   0  0  0  0  0  0
  -15.5346  -30.2968   23.7723 H   0  0  0  0  0  0
  -15.8639  -28.0847   22.7032 H   0  0  0  0  0  0
  -24.5868  -30.7109   25.7795 H   0  0  0  0  0  0
  -24.8929  -32.2935   26.4848 H   0  0  0  0  0  0
  -25.8032  -30.8949   27.0226 H   0  0  0  0  0  0
  -26.2909  -29.6746   24.1198 H   0  0  0  0  0  0
  -27.3967  -29.7265   25.4744 H   0  0  0  0  0  0
  -27.8822  -30.4264   23.9459 H   0  0  0  0  0  0
  -27.2565  -33.3630   26.2050 H   0  0  0  0  0  0
  -28.3834  -32.6915   25.0326 H   0  0  0  0  0  0
  -28.0658  -31.8473   26.5435 H   0  0  0  0  0  0
  -28.2583  -38.0133   24.7507 H   0  0  0  0  0  0
  -28.1107  -36.2651   24.6256 H   0  0  0  0  0  0
  -27.2293  -37.1428   25.8857 H   0  0  0  0  0  0
  -20.9392  -29.8725   21.6907 H   0  0  0  0  0  0
  -26.0171  -38.2850   24.1415 H   0  0  0  0  0  0
  -31.4750  -17.6568   19.9863 H   0  0  0  0  0  0
  -27.5081  -16.9896   21.5055 H   0  0  0  0  0  0
  -31.5727  -24.8323   23.9181 H   0  0  0  0  0  0
  -31.8326  -23.0960   23.7744 H   0  0  0  0  0  0
  -30.2983  -23.7162   24.3858 H   0  0  0  0  0  0
  -27.9399  -25.1814   18.5902 H   0  0  0  0  0  0
  -29.5376  -25.0763   19.2472 H   0  0  0  0  0  0
  -31.3297  -24.1026   21.5178 H   0  0  0  0  0  0
  -29.8727  -24.8046   22.1762 H   0  0  0  0  0  0
  -28.9959  -22.4716   22.6286 H   0  0  0  0  0  0
  -30.4573  -21.8084   21.9591 H   0  0  0  0  0  0
  -29.8632  -22.7429   19.7058 H   0  0  0  0  0  0
  -32.1184  -20.0275   19.6574 H   0  0  0  0  0  0
  -30.9565  -21.2622   19.6789 H   0  0  0  0  0  0
  -28.8973  -15.2009   21.3786 H   0  0  0  0  0  0
  -27.4207  -21.3680   20.4165 H   0  0  0  0  0  0
  1 25  1  0  0  0
  1 30  2  0  0  0
  1 84  1  0  0  0
  2  3  1  0  0  0
  2 25  1  0  0  0
  2 88  1  0  0  0
  2 89  1  0  0  0
  3  4  1  0  0  0
  3 90  1  0  0  0
  3 91  1  0  0  0
  4  5  1  0  0  0
  4 92  1  0  0  0
  4 93  1  0  0  0
  5  6  1  0  0  0
  5 26  1  0  0  0
  5 94  1  0  0  0
  6 25  1  0  0  0
  6 95  1  0  0  0
  6 96  1  0  0  0
  7  8  2  0  0  0
  7 26  1  0  0  0
  7 29  1  0  0  0
  8  9  1  0  0  0
  8 22  1  0  0  0
  9 10  1  0  0  0
  9 27  2  0  0  0
 10 11  2  0  0  0
 10 15  1  0  0  0
 11 12  1  0  0  0
 11 97  1  0  0  0
 12 13  2  0  0  0
 12 98  1  0  0  0
 13 14  1  0  0  0
 13 31  1  0  0  0
 14 15  2  0  0  0
 14 99  1  0  0  0
 15100  1  0  0  0
 16 17  2  0  0  0
 16 21  1  0  0  0
 16 31  1  0  0  0
 17 18  1  0  0  0
 17101  1  0  0  0
 18 19  2  0  0  0
 18102  1  0  0  0
 19 20  1  0  0  0
 19 24  1  0  0  0
 20 21  2  0  0  0
 20103  1  0  0  0
 21 23  1  0  0  0
 22 28  1  0  0  0
 22 32  2  0  0  0
 26 27  1  0  0  0
 28104  1  0  0  0
 28105  1  0  0  0
 29106  1  0  0  0
 29107  1  0  0  0
 33 34  1  0  0  0
 33 66  1  0  0  0
 33 70  2  0  0  0
 34 36  1  0  0  0
 34 59  1  0  0  0
 34108  1  0  0  0
 35 44  2  0  0  0
 35 45  1  0  0  0
 35 68  1  0  0  0
 36 56  1  0  0  0
 36109  1  0  0  0
 37 39  1  0  0  0
 37 47  1  0  0  0
 37 66  1  0  0  0
 37110  1  0  0  0
 38 43  2  0  0  0
 38 46  1  0  0  0
 38 47  1  0  0  0
 39 64  1  0  0  0
 39 67  2  0  0  0
 40 52  1  0  0  0
 40 53  2  0  0  0
 40 58  1  0  0  0
 41111  1  0  0  0
 41112  1  0  0  0
 41113  1  0  0  0
 41 48  1  0  0  0
 42 43  1  0  0  0
 42 66  1  0  0  0
 42114  1  0  0  0
 42115  1  0  0  0
 43 44  1  0  0  0
 44116  1  0  0  0
 45 46  2  0  0  0
 45117  1  0  0  0
 46118  1  0  0  0
 47119  1  0  0  0
 47120  1  0  0  0
 48 56  1  0  0  0
 48 65  1  0  0  0
 48121  1  0  0  0
 49 50  1  0  0  0
 49 53  1  0  0  0
 49 64  1  0  0  0
 49122  1  0  0  0
 50 51  1  0  0  0
 50123  1  0  0  0
 50124  1  0  0  0
 51 52  1  0  0  0
 51125  1  0  0  0
 51126  1  0  0  0
 52127  1  0  0  0
 52128  1  0  0  0
 53 54  1  0  0  0
 54 55  2  0  0  0
 54129  1  0  0  0
 55 57  1  0  0  0
 55130  1  0  0  0
 56 69  2  0  0  0
 57 58  2  0  0  0
 57131  1  0  0  0
 58132  1  0  0  0
 59 60  1  0  0  0
 59 61  1  0  0  0
 59 62  1  0  0  0
 60133  1  0  0  0
 60134  1  0  0  0
 60135  1  0  0  0
 61136  1  0  0  0
 61137  1  0  0  0
 61138  1  0  0  0
 62139  1  0  0  0
 62140  1  0  0  0
 62141  1  0  0  0
 63 65  1  0  0  0
 63142  1  0  0  0
 63143  1  0  0  0
 63144  1  0  0  0
 64145  1  0  0  0
 65146  1  0  0  0
 68 79  1  0  0  0
 71 73  2  0  0  0
 71 74  1  0  0  0
 71147  1  0  0  0
 72 73  1  0  0  0
 72 76  2  0  0  0
 72148  1  0  0  0
 73 84  1  0  0  0
 74 75  2  0  0  0
 74 83  1  0  0  0
 75 76  1  0  0  0
 75 85  1  0  0  0
 76 87  1  0  0  0
 77 79  1  0  0  0
 77 82  1  0  0  0
 77 86  2  0  0  0
 78 80  1  0  0  0
 78149  1  0  0  0
 78150  1  0  0  0
 78151  1  0  0  0
 79152  1  0  0  0
 79153  1  0  0  0
 80 81  1  0  0  0
 80154  1  0  0  0
 80155  1  0  0  0
 81156  1  0  0  0
 81157  1  0  0  0
 81 82  1  0  0  0
 82 85  1  0  0  0
 82158  1  0  0  0
 83159  1  0  0  0
 83160  1  0  0  0
 84161  1  0  0  0
 85162  1  0  0  0
M  ISO  4   1 100  68 101  79 101  84 100
M  END
> <chiral flag>
0

> <version>
0

> <s_m_source_file>
/data/baiqing/PycharmProjects/Reinvent-master-3.2/result/LINK_invent/BTK/process_docking_weight1_custom_product_contain_oxygen_bond_distance_aromatic_linkinvent_7_9_3/rearranged_h_0100.sdf

> <i_m_source_file_index>
54

> <r_mmod_Potential_Energy-OPLS-2005>
153.410293579102

> <r_mmod_Stretch_Energy-OPLS-2005>
87.9861145019531

> <r_mmod_Bend_Energy-OPLS-2005>
189.543487548828

> <r_mmod_Torsional_Energy-OPLS-2005>
212.931442260742

> <r_mmod_Improper_Torsional_Energy-OPLS-2005>
9.98920059204102

> <r_mmod_Van_der_Waal_Energy-OPLS-2005>
133.157196044922

> <r_mmod_Electrostatic_Energy-OPLS-2005>
-304.938812255859

> <r_mmod_Solvation_Energy-OPLS-2005>
-228.742202758789

> <b_mmod_Minimization_Converged-OPLS-2005>
0

> <r_mmod_RMS_Derivative-OPLS-2005>
2.9204249382019

$$$$
55
                    3D
 Structure written by MMmdl.
162171  0  0  1  0            999 V2000
  -30.6980  -14.5264   20.5613 C   0  0  0  0  0  0
  -30.4223  -12.3427   19.4269 C   0  0  0  0  0  0
  -29.4922  -12.5010   18.2073 C   0  0  0  0  0  0
  -28.0166  -12.3530   18.6252 C   0  0  0  0  0  0
  -27.6553  -13.2127   19.8660 C   0  0  2  0  0  0
  -28.7002  -13.0369   20.9896 C   0  0  0  0  0  0
  -25.2568  -13.8175   20.5689 C   0  0  0  0  0  0
  -24.1831  -13.0444   20.9191 C   0  0  0  0  0  0
  -24.6394  -11.6912   20.8748 C   0  0  0  0  0  0
  -23.9063  -10.4299   21.0410 C   0  0  0  0  0  0
  -24.3615   -9.4214   21.9186 C   0  0  0  0  0  0
  -23.6292   -8.2248   22.0754 C   0  0  0  0  0  0
  -22.4273   -8.0286   21.3546 C   0  0  0  0  0  0
  -21.9911   -9.0259   20.4645 C   0  0  0  0  0  0
  -22.7236  -10.2141   20.3057 C   0  0  0  0  0  0
  -21.6853   -6.0739   22.5282 C   0  0  0  0  0  0
  -21.4011   -6.5643   23.8214 C   0  0  0  0  0  0
  -21.3659   -5.6795   24.9177 C   0  0  0  0  0  0
  -21.6043   -4.3057   24.7227 C   0  0  0  0  0  0
  -21.8821   -3.8150   23.4346 C   0  0  0  0  0  0
  -21.9191   -4.6966   22.3403 C   0  0  0  0  0  0
  -22.7853  -13.5241   21.1851 C   0  0  0  0  0  0
  -22.1662   -4.2151   21.0979 F   0  0  0  0  0  0
  -21.5629   -3.4538   25.7741 F   0  0  0  0  0  0
  -30.0210  -13.3505   20.4235 N   0  0  0  0  0  0
  -26.2995  -12.9350   20.3342 N   0  0  0  0  0  0
  -25.9318  -11.6505   20.5768 N   0  0  0  0  0  0
  -22.0492  -12.8232   22.0405 N   0  0  0  0  0  0
  -25.4297  -15.1892   20.4097 N   0  0  0  0  0  0
  -31.8430  -14.6775   20.1276 O   0  0  0  0  0  0
  -21.6638   -6.8881   21.4244 O   0  0  0  0  0  0
  -22.3544  -14.5551   20.6700 O   0  0  0  0  0  0
  -24.6199  -31.8653   23.2080 C   0  0  0  0  0  0
  -25.9078  -32.4806   23.8387 C   0  0  1  0  0  0
  -27.2325  -27.3949   20.0913 C   0  0  0  0  0  0
  -25.5921  -33.8606   24.2321 N   0  0  0  0  0  0
  -23.4095  -30.4894   21.5497 C   0  0  2  0  0  0
  -24.8555  -28.9523   20.1136 C   0  0  0  0  0  0
  -22.7439  -29.4647   22.4974 C   0  0  0  0  0  0
  -18.0282  -28.1372   22.8484 C   0  0  0  0  0  0
  -24.1490  -36.7312   23.2635 C   0  0  0  0  0  0
  -25.9436  -30.8177   21.3675 C   0  0  0  0  0  0
  -26.0206  -29.4495   20.7122 C   0  0  0  0  0  0
  -27.2117  -28.6771   20.7012 C   0  0  0  0  0  0
  -26.0396  -26.9189   19.5002 C   0  0  0  0  0  0
  -24.8604  -27.6866   19.5062 C   0  0  0  0  0  0
  -23.6208  -29.8252   20.1637 C   0  0  0  0  0  0
  -25.4109  -36.3099   24.0333 C   0  0  1  0  0  0
  -20.5878  -28.3673   23.1300 C   0  0  2  0  0  0
  -20.6772  -26.9404   22.5417 C   0  0  0  0  0  0
  -19.5752  -26.6378   21.5212 C   0  0  0  0  0  0
  -18.1930  -26.7920   22.1616 C   0  0  0  0  0  0
  -19.1533  -28.8838   23.2888 C   0  0  0  0  0  0
  -18.9457  -30.1444   23.8895 C   0  0  0  0  0  0
  -17.6459  -30.6577   24.0564 C   0  0  0  0  0  0
  -25.9039  -34.9465   23.5120 C   0  0  0  0  0  0
  -16.5351  -29.9081   23.6317 C   0  0  0  0  0  0
  -16.7272  -28.6498   23.0337 C   0  0  0  0  0  0
  -26.4487  -31.6586   25.0723 C   0  0  0  0  0  0
  -25.3745  -31.3702   26.1466 C   0  0  0  0  0  0
  -27.0324  -30.3025   24.6121 C   0  0  0  0  0  0
  -27.6056  -32.4312   25.7485 C   0  0  0  0  0  0
  -27.5584  -37.1808   24.8459 C   0  0  0  0  0  0
  -21.4162  -29.3036   22.3703 N   0  0  0  0  0  0
  -26.4294  -37.3787   23.9408 N   0  0  0  0  0  0
  -24.6762  -31.0720   22.1000 N   0  0  0  0  0  0
  -23.4189  -28.8186   23.3030 O   0  0  0  0  0  0
  -28.3618  -26.5863   20.1193 O   0  0  0  0  0  0
  -26.5600  -34.8917   22.4683 O   0  0  0  0  0  0
  -23.5379  -32.1432   23.7446 O   0  0  0  0  0  0
  -28.9070  -18.7445   21.1588 C   0  0  0  0  0  0
  -31.1390  -18.9536   20.2475 C   0  0  0  0  0  0
  -30.1859  -18.1760   20.9425 C   0  0  0  0  0  0
  -28.5906  -20.0588   20.7076 C   0  0  0  0  0  0
  -29.5594  -20.8446   20.0232 C   0  0  0  0  0  0
  -30.8373  -20.2629   19.8034 C   0  0  0  0  0  0
  -28.8929  -24.4395   19.0077 C   0  0  0  0  0  0
  -28.5945  -25.7676   19.0304 C   0  0  0  0  0  0
  -29.0922  -23.7023   17.6999 C   0  0  0  0  0  0
  -29.0524  -23.4115   20.1378 C   0  0  0  0  0  0
  -28.9884  -22.2129   18.0358 C   0  0  0  0  0  0
  -27.1952  -20.6042   20.9607 C   0  0  0  0  0  0
  -30.6141  -16.8331   21.5810 C   0  0  0  0  0  0
  -29.2709  -22.1207   19.4580 N   0  0  0  0  0  0
  -31.8172  -21.0046   19.1449 N   0  0  0  0  0  0
  -30.0180  -15.5638   21.1039 N   0  0  0  0  0  0
  -31.4649  -12.4469   19.1216 H   0  0  0  0  0  0
  -30.3356  -11.3411   19.8509 H   0  0  0  0  0  0
  -29.7406  -11.7610   17.4449 H   0  0  0  0  0  0
  -29.6484  -13.4782   17.7477 H   0  0  0  0  0  0
  -27.8403  -11.2989   18.8423 H   0  0  0  0  0  0
  -27.3614  -12.6036   17.7905 H   0  0  0  0  0  0
  -27.6868  -14.2537   19.5441 H   0  0  0  0  0  0
  -28.6930  -12.0114   21.3619 H   0  0  0  0  0  0
  -28.4574  -13.6636   21.8487 H   0  0  0  0  0  0
  -25.2761   -9.5690   22.4763 H   0  0  0  0  0  0
  -24.0002   -7.4638   22.7475 H   0  0  0  0  0  0
  -21.0844   -8.8778   19.8948 H   0  0  0  0  0  0
  -22.3696  -10.9681   19.6170 H   0  0  0  0  0  0
  -21.2004   -7.6151   23.9720 H   0  0  0  0  0  0
  -21.1477   -6.0523   25.9082 H   0  0  0  0  0  0
  -22.0599   -2.7611   23.2847 H   0  0  0  0  0  0
  -22.4105  -11.9885   22.4785 H   0  0  0  0  0  0
  -21.1110  -13.1259   22.2607 H   0  0  0  0  0  0
  -24.6638  -15.8452   20.5156 H   0  0  0  0  0  0
  -26.2818  -15.6264   20.0828 H   0  0  0  0  0  0
  -26.7146  -32.5504   23.1146 H   0  0  0  0  0  0
  -25.0083  -33.9763   25.0472 H   0  0  0  0  0  0
  -22.7002  -31.3079   21.4106 H   0  0  0  0  0  0
  -23.3748  -35.9650   23.3293 H   0  0  0  0  0  0
  -24.3584  -36.8942   22.2052 H   0  0  0  0  0  0
  -23.7248  -37.6516   23.6659 H   0  0  0  0  0  0
  -26.0619  -31.5828   20.5993 H   0  0  0  0  0  0
  -26.8297  -30.8707   21.9884 H   0  0  0  0  0  0
  -28.1092  -29.0526   21.1729 H   0  0  0  0  0  0
  -26.0061  -25.9379   19.0482 H   0  0  0  0  0  0
  -23.9613  -27.2930   19.0516 H   0  0  0  0  0  0
  -23.7355  -30.6031   19.4082 H   0  0  0  0  0  0
  -22.7422  -29.2518   19.8616 H   0  0  0  0  0  0
  -25.1283  -36.1961   25.0829 H   0  0  0  0  0  0
  -20.9970  -28.3246   24.1421 H   0  0  0  0  0  0
  -20.5673  -26.2282   23.3610 H   0  0  0  0  0  0
  -21.6642  -26.7440   22.1210 H   0  0  0  0  0  0
  -19.6911  -25.6291   21.1232 H   0  0  0  0  0  0
  -19.6687  -27.3189   20.6747 H   0  0  0  0  0  0
  -17.4208  -26.6686   21.4007 H   0  0  0  0  0  0
  -18.0315  -26.0052   22.8996 H   0  0  0  0  0  0
  -19.7936  -30.7260   24.2256 H   0  0  0  0  0  0
  -17.5015  -31.6246   24.5184 H   0  0  0  0  0  0
  -15.5349  -30.2982   23.7632 H   0  0  0  0  0  0
  -15.8678  -28.0818   22.7041 H   0  0  0  0  0  0
  -24.5934  -30.7024   25.7812 H   0  0  0  0  0  0
  -24.8911  -32.2855   26.4883 H   0  0  0  0  0  0
  -25.8098  -30.8901   27.0240 H   0  0  0  0  0  0
  -26.2875  -29.6774   24.1179 H   0  0  0  0  0  0
  -27.4094  -29.7268   25.4586 H   0  0  0  0  0  0
  -27.8709  -30.4334   23.9279 H   0  0  0  0  0  0
  -27.2677  -33.3613   26.2060 H   0  0  0  0  0  0
  -28.3862  -32.6869   25.0308 H   0  0  0  0  0  0
  -28.0727  -31.8437   26.5400 H   0  0  0  0  0  0
  -28.2596  -38.0112   24.7511 H   0  0  0  0  0  0
  -28.1091  -36.2642   24.6278 H   0  0  0  0  0  0
  -27.2302  -37.1452   25.8862 H   0  0  0  0  0  0
  -20.9330  -29.8779   21.6937 H   0  0  0  0  0  0
  -26.0182  -38.2865   24.1412 H   0  0  0  0  0  0
  -28.1680  -18.1757   21.7066 H   0  0  0  0  0  0
  -32.1295  -18.5511   20.0879 H   0  0  0  0  0  0
  -28.5079  -26.3294   18.1094 H   0  0  0  0  0  0
  -30.0914  -23.9314   17.3266 H   0  0  0  0  0  0
  -28.3714  -24.0059   16.9390 H   0  0  0  0  0  0
  -28.1549  -23.3878   20.7569 H   0  0  0  0  0  0
  -29.9043  -23.6692   20.7685 H   0  0  0  0  0  0
  -29.6715  -21.6140   17.4312 H   0  0  0  0  0  0
  -27.9765  -21.8495   17.8518 H   0  0  0  0  0  0
  -26.5134  -19.8212   21.2930 H   0  0  0  0  0  0
  -26.7800  -21.0429   20.0530 H   0  0  0  0  0  0
  -27.2268  -21.3746   21.7310 H   0  0  0  0  0  0
  -30.3813  -16.9032   22.6444 H   0  0  0  0  0  0
  -31.7033  -16.7681   21.5486 H   0  0  0  0  0  0
  -32.4267  -20.5009   18.5112 H   0  0  0  0  0  0
  -31.4236  -21.8424   18.7249 H   0  0  0  0  0  0
  -29.0617  -15.3841   21.3685 H   0  0  0  0  0  0
  1 25  1  0  0  0
  1 30  2  0  0  0
  1 86  1  0  0  0
  2  3  1  0  0  0
  2 25  1  0  0  0
  2 87  1  0  0  0
  2 88  1  0  0  0
  3  4  1  0  0  0
  3 89  1  0  0  0
  3 90  1  0  0  0
  4  5  1  0  0  0
  4 91  1  0  0  0
  4 92  1  0  0  0
  5  6  1  0  0  0
  5 26  1  0  0  0
  5 93  1  0  0  0
  6 25  1  0  0  0
  6 94  1  0  0  0
  6 95  1  0  0  0
  7  8  2  0  0  0
  7 26  1  0  0  0
  7 29  1  0  0  0
  8  9  1  0  0  0
  8 22  1  0  0  0
  9 10  1  0  0  0
  9 27  2  0  0  0
 10 11  2  0  0  0
 10 15  1  0  0  0
 11 12  1  0  0  0
 11 96  1  0  0  0
 12 13  2  0  0  0
 12 97  1  0  0  0
 13 14  1  0  0  0
 13 31  1  0  0  0
 14 15  2  0  0  0
 14 98  1  0  0  0
 15 99  1  0  0  0
 16 17  2  0  0  0
 16 21  1  0  0  0
 16 31  1  0  0  0
 17 18  1  0  0  0
 17100  1  0  0  0
 18 19  2  0  0  0
 18101  1  0  0  0
 19 20  1  0  0  0
 19 24  1  0  0  0
 20 21  2  0  0  0
 20102  1  0  0  0
 21 23  1  0  0  0
 22 28  1  0  0  0
 22 32  2  0  0  0
 26 27  1  0  0  0
 28103  1  0  0  0
 28104  1  0  0  0
 29105  1  0  0  0
 29106  1  0  0  0
 33 34  1  0  0  0
 33 66  1  0  0  0
 33 70  2  0  0  0
 34 36  1  0  0  0
 34 59  1  0  0  0
 34107  1  0  0  0
 35 44  2  0  0  0
 35 45  1  0  0  0
 35 68  1  0  0  0
 36 56  1  0  0  0
 36108  1  0  0  0
 37 39  1  0  0  0
 37 47  1  0  0  0
 37 66  1  0  0  0
 37109  1  0  0  0
 38 43  2  0  0  0
 38 46  1  0  0  0
 38 47  1  0  0  0
 39 64  1  0  0  0
 39 67  2  0  0  0
 40 52  1  0  0  0
 40 53  2  0  0  0
 40 58  1  0  0  0
 41110  1  0  0  0
 41111  1  0  0  0
 41112  1  0  0  0
 41 48  1  0  0  0
 42 43  1  0  0  0
 42 66  1  0  0  0
 42113  1  0  0  0
 42114  1  0  0  0
 43 44  1  0  0  0
 44115  1  0  0  0
 45 46  2  0  0  0
 45116  1  0  0  0
 46117  1  0  0  0
 47118  1  0  0  0
 47119  1  0  0  0
 48 56  1  0  0  0
 48 65  1  0  0  0
 48120  1  0  0  0
 49 50  1  0  0  0
 49 53  1  0  0  0
 49 64  1  0  0  0
 49121  1  0  0  0
 50 51  1  0  0  0
 50122  1  0  0  0
 50123  1  0  0  0
 51 52  1  0  0  0
 51124  1  0  0  0
 51125  1  0  0  0
 52126  1  0  0  0
 52127  1  0  0  0
 53 54  1  0  0  0
 54 55  2  0  0  0
 54128  1  0  0  0
 55 57  1  0  0  0
 55129  1  0  0  0
 56 69  2  0  0  0
 57 58  2  0  0  0
 57130  1  0  0  0
 58131  1  0  0  0
 59 60  1  0  0  0
 59 61  1  0  0  0
 59 62  1  0  0  0
 60132  1  0  0  0
 60133  1  0  0  0
 60134  1  0  0  0
 61135  1  0  0  0
 61136  1  0  0  0
 61137  1  0  0  0
 62138  1  0  0  0
 62139  1  0  0  0
 62140  1  0  0  0
 63 65  1  0  0  0
 63141  1  0  0  0
 63142  1  0  0  0
 63143  1  0  0  0
 64144  1  0  0  0
 65145  1  0  0  0
 68 78  1  0  0  0
 71 73  2  0  0  0
 71 74  1  0  0  0
 71146  1  0  0  0
 72 73  1  0  0  0
 72 76  2  0  0  0
 72147  1  0  0  0
 73 83  1  0  0  0
 74 75  2  0  0  0
 74 82  1  0  0  0
 75 76  1  0  0  0
 75 84  1  0  0  0
 76 85  1  0  0  0
 77 78  2  0  0  0
 77 79  1  0  0  0
 77 80  1  0  0  0
 78148  1  0  0  0
 79 81  1  0  0  0
 79149  1  0  0  0
 79150  1  0  0  0
 80 84  1  0  0  0
 80151  1  0  0  0
 80152  1  0  0  0
 81 84  1  0  0  0
 81153  1  0  0  0
 81154  1  0  0  0
 82155  1  0  0  0
 82156  1  0  0  0
 82157  1  0  0  0
 83 86  1  0  0  0
 83158  1  0  0  0
 83159  1  0  0  0
 85160  1  0  0  0
 85161  1  0  0  0
 86162  1  0  0  0
M  ISO  4   1 100  68 101  78 101  86 100
M  END
> <chiral flag>
0

> <version>
0

> <s_m_source_file>
/data/baiqing/PycharmProjects/Reinvent-master-3.2/result/LINK_invent/BTK/process_docking_weight1_custom_product_contain_oxygen_bond_distance_aromatic_linkinvent_7_9_3/rearranged_h_0100.sdf

> <i_m_source_file_index>
55

> <r_mmod_Potential_Energy-OPLS-2005>
-55.1361618041992

> <r_mmod_Stretch_Energy-OPLS-2005>
46.7050437927246

> <r_mmod_Bend_Energy-OPLS-2005>
160.666320800781

> <r_mmod_Torsional_Energy-OPLS-2005>
260.822174072266

> <r_mmod_Improper_Torsional_Energy-OPLS-2005>
8.73282909393311

> <r_mmod_Van_der_Waal_Energy-OPLS-2005>
146.932723999023

> <r_mmod_Electrostatic_Energy-OPLS-2005>
-481.977294921875

> <r_mmod_Solvation_Energy-OPLS-2005>
-219.379806518555

> <b_mmod_Minimization_Converged-OPLS-2005>
0

> <r_mmod_RMS_Derivative-OPLS-2005>
0.840202987194061

$$$$
56
                    3D
 Structure written by MMmdl.
165174  0  0  1  0            999 V2000
  -30.7603  -14.3952   20.6255 C   0  0  0  0  0  0
  -30.3957  -12.2802   19.4120 C   0  0  0  0  0  0
  -29.4860  -12.5195   18.1949 C   0  0  0  0  0  0
  -28.0093  -12.3741   18.6045 C   0  0  0  0  0  0
  -27.6588  -13.2065   19.8697 C   0  0  2  0  0  0
  -28.6941  -12.9936   20.9967 C   0  0  0  0  0  0
  -25.2602  -13.8177   20.5625 C   0  0  0  0  0  0
  -24.1827  -13.0470   20.9084 C   0  0  0  0  0  0
  -24.6375  -11.6914   20.8710 C   0  0  0  0  0  0
  -23.9033  -10.4317   21.0397 C   0  0  0  0  0  0
  -24.3615   -9.4226   21.9170 C   0  0  0  0  0  0
  -23.6295   -8.2257   22.0748 C   0  0  0  0  0  0
  -22.4275   -8.0287   21.3546 C   0  0  0  0  0  0
  -21.9883   -9.0250   20.4657 C   0  0  0  0  0  0
  -22.7203  -10.2140   20.3047 C   0  0  0  0  0  0
  -21.6847   -6.0740   22.5289 C   0  0  0  0  0  0
  -21.4020   -6.5653   23.8229 C   0  0  0  0  0  0
  -21.3657   -5.6792   24.9187 C   0  0  0  0  0  0
  -21.6023   -4.3048   24.7218 C   0  0  0  0  0  0
  -21.8819   -3.8140   23.4341 C   0  0  0  0  0  0
  -21.9201   -4.6967   22.3407 C   0  0  0  0  0  0
  -22.7862  -13.5262   21.1761 C   0  0  0  0  0  0
  -22.1686   -4.2156   21.0985 F   0  0  0  0  0  0
  -21.5594   -3.4548   25.7733 F   0  0  0  0  0  0
  -30.0338  -13.2615   20.4454 N   0  0  0  0  0  0
  -26.3008  -12.9320   20.3334 N   0  0  0  0  0  0
  -25.9308  -11.6485   20.5764 N   0  0  0  0  0  0
  -22.0518  -12.8215   22.0298 N   0  0  0  0  0  0
  -25.4412  -15.1890   20.3983 N   0  0  0  0  0  0
  -31.8239  -14.6075   20.0382 O   0  0  0  0  0  0
  -21.6645   -6.8892   21.4250 O   0  0  0  0  0  0
  -22.3557  -14.5590   20.6636 O   0  0  0  0  0  0
  -24.6072  -31.8746   23.2154 C   0  0  0  0  0  0
  -25.8998  -32.4851   23.8420 C   0  0  1  0  0  0
  -27.2334  -27.4718   20.0821 C   0  0  0  0  0  0
  -25.5884  -33.8645   24.2374 N   0  0  0  0  0  0
  -23.3927  -30.4986   21.5558 C   0  0  2  0  0  0
  -24.8407  -28.9640   20.1225 C   0  0  0  0  0  0
  -22.7353  -29.4682   22.5022 C   0  0  0  0  0  0
  -18.0234  -28.1374   22.8473 C   0  0  0  0  0  0
  -24.1488  -36.7300   23.2635 C   0  0  0  0  0  0
  -25.9179  -30.8499   21.3642 C   0  0  0  0  0  0
  -25.9996  -29.4831   20.7156 C   0  0  0  0  0  0
  -27.2001  -28.7407   20.7010 C   0  0  0  0  0  0
  -26.0629  -26.9599   19.4881 C   0  0  0  0  0  0
  -24.8621  -27.6955   19.5142 C   0  0  0  0  0  0
  -23.6028  -29.8324   20.1704 C   0  0  0  0  0  0
  -25.4109  -36.3117   24.0347 C   0  0  1  0  0  0
  -20.5819  -28.3649   23.1333 C   0  0  2  0  0  0
  -20.6729  -26.9401   22.5421 C   0  0  0  0  0  0
  -19.5729  -26.6387   21.5193 C   0  0  0  0  0  0
  -18.1896  -26.7923   22.1600 C   0  0  0  0  0  0
  -19.1488  -28.8821   23.2900 C   0  0  0  0  0  0
  -18.9438  -30.1414   23.8940 C   0  0  0  0  0  0
  -17.6455  -30.6595   24.0556 C   0  0  0  0  0  0
  -25.9027  -34.9480   23.5161 C   0  0  0  0  0  0
  -16.5339  -29.9112   23.6304 C   0  0  0  0  0  0
  -16.7232  -28.6512   23.0346 C   0  0  0  0  0  0
  -26.4464  -31.6577   25.0691 C   0  0  0  0  0  0
  -25.3750  -31.3637   26.1429 C   0  0  0  0  0  0
  -27.0281  -30.3036   24.5988 C   0  0  0  0  0  0
  -27.6092  -32.4233   25.7444 C   0  0  0  0  0  0
  -27.5581  -37.1793   24.8473 C   0  0  0  0  0  0
  -21.4092  -29.3039   22.3769 N   0  0  0  0  0  0
  -26.4312  -37.3787   23.9406 N   0  0  0  0  0  0
  -24.6574  -31.0866   22.1054 N   0  0  0  0  0  0
  -23.4137  -28.8199   23.3043 O   0  0  0  0  0  0
  -28.3898  -26.7401   19.9707 O   0  0  0  0  0  0
  -26.5577  -34.8916   22.4713 O   0  0  0  0  0  0
  -23.5284  -32.1527   23.7574 O   0  0  0  0  0  0
  -30.4426  -18.7163   22.9829 C   0  0  0  0  0  0
  -28.6942  -19.5805   20.9888 C   0  0  0  0  0  0
  -30.1551  -17.8393   21.9196 C   0  0  0  0  0  0
  -29.0065  -20.4782   22.0462 C   0  0  0  0  0  0
  -29.2629  -18.2850   20.9079 C   0  0  0  0  0  0
  -29.9005  -20.0110   23.0487 C   0  0  0  0  0  0
  -27.7357  -24.8893   22.7036 C   0  0  0  0  0  0
  -28.5695  -25.0098   21.6516 C   0  0  0  0  0  0
  -27.2653  -23.6042   23.3619 C   0  0  0  0  0  0
  -29.1348  -23.8434   20.8358 C   0  0  0  0  0  0
  -28.3228  -22.4866   23.3597 C   0  0  0  0  0  0
  -28.2989  -22.5484   20.8420 C   0  0  0  0  0  0
  -30.9413  -16.5189   21.8987 C   0  0  0  0  0  0
  -29.0369  -26.3810   21.1855 C   0  0  0  0  0  0
  -28.4323  -21.7815   22.0831 N   0  0  0  0  0  0
  -28.9512  -17.4827   19.8089 N   0  0  0  0  0  0
  -30.2488  -15.2998   21.4717 N   0  0  0  0  0  0
  -30.2919  -20.7964   24.0820 F   0  0  0  0  0  0
  -31.4474  -12.3322   19.1260 H   0  0  0  0  0  0
  -30.2456  -11.2719   19.7953 H   0  0  0  0  0  0
  -29.7252  -11.8158   17.3967 H   0  0  0  0  0  0
  -29.6605  -13.5165   17.7847 H   0  0  0  0  0  0
  -27.8151  -11.3158   18.7853 H   0  0  0  0  0  0
  -27.3656  -12.6630   17.7741 H   0  0  0  0  0  0
  -27.7018  -14.2531   19.5725 H   0  0  0  0  0  0
  -28.6560  -11.9713   21.3713 H   0  0  0  0  0  0
  -28.4455  -13.6232   21.8516 H   0  0  0  0  0  0
  -25.2782   -9.5685   22.4718 H   0  0  0  0  0  0
  -24.0003   -7.4645   22.7467 H   0  0  0  0  0  0
  -21.0813   -8.8738   19.8991 H   0  0  0  0  0  0
  -22.3644  -10.9649   19.6125 H   0  0  0  0  0  0
  -21.2044   -7.6168   23.9747 H   0  0  0  0  0  0
  -21.1474   -6.0522   25.9084 H   0  0  0  0  0  0
  -22.0610   -2.7607   23.2832 H   0  0  0  0  0  0
  -22.4194  -11.9881   22.4632 H   0  0  0  0  0  0
  -21.1122  -13.1181   22.2569 H   0  0  0  0  0  0
  -26.3207  -15.6189   20.1331 H   0  0  0  0  0  0
  -24.6750  -15.8521   20.4276 H   0  0  0  0  0  0
  -26.7046  -32.5629   23.1178 H   0  0  0  0  0  0
  -25.0036  -33.9838   25.0509 H   0  0  0  0  0  0
  -22.6797  -31.3153   21.4187 H   0  0  0  0  0  0
  -23.3764  -35.9623   23.3342 H   0  0  0  0  0  0
  -24.3582  -36.8877   22.2040 H   0  0  0  0  0  0
  -23.7221  -37.6510   23.6624 H   0  0  0  0  0  0
  -26.0120  -31.6233   20.5998 H   0  0  0  0  0  0
  -26.8120  -30.9155   21.9724 H   0  0  0  0  0  0
  -28.0989  -29.1527   21.1373 H   0  0  0  0  0  0
  -26.0820  -25.9939   19.0046 H   0  0  0  0  0  0
  -23.9684  -27.2901   19.0607 H   0  0  0  0  0  0
  -23.7215  -30.6149   19.4200 H   0  0  0  0  0  0
  -22.7271  -29.2613   19.8605 H   0  0  0  0  0  0
  -25.1272  -36.2013   25.0842 H   0  0  0  0  0  0
  -20.9900  -28.3221   24.1456 H   0  0  0  0  0  0
  -20.5581  -26.2282   23.3603 H   0  0  0  0  0  0
  -21.6610  -26.7447   22.1245 H   0  0  0  0  0  0
  -19.6927  -25.6301   21.1218 H   0  0  0  0  0  0
  -19.6667  -27.3209   20.6729 H   0  0  0  0  0  0
  -17.4153  -26.6625   21.4020 H   0  0  0  0  0  0
  -18.0332  -26.0071   22.9010 H   0  0  0  0  0  0
  -19.7934  -30.7173   24.2379 H   0  0  0  0  0  0
  -17.5037  -31.6297   24.5124 H   0  0  0  0  0  0
  -15.5351  -30.3043   23.7617 H   0  0  0  0  0  0
  -15.8611  -28.0842   22.7084 H   0  0  0  0  0  0
  -24.5959  -30.6952   25.7744 H   0  0  0  0  0  0
  -24.8869  -32.2761   26.4868 H   0  0  0  0  0  0
  -25.8097  -30.8809   27.0187 H   0  0  0  0  0  0
  -26.2819  -29.6799   24.1043 H   0  0  0  0  0  0
  -27.4118  -29.7218   25.4380 H   0  0  0  0  0  0
  -27.8609  -30.4381   23.9078 H   0  0  0  0  0  0
  -27.2796  -33.3543   26.2060 H   0  0  0  0  0  0
  -28.3879  -32.6759   25.0237 H   0  0  0  0  0  0
  -28.0762  -31.8294   26.5304 H   0  0  0  0  0  0
  -28.2602  -38.0083   24.7505 H   0  0  0  0  0  0
  -28.1064  -36.2607   24.6326 H   0  0  0  0  0  0
  -27.2286  -37.1474   25.8873 H   0  0  0  0  0  0
  -20.9253  -29.8795   21.7022 H   0  0  0  0  0  0
  -26.0212  -38.2871   24.1431 H   0  0  0  0  0  0
  -31.1253  -18.4112   23.7620 H   0  0  0  0  0  0
  -27.9966  -19.8890   20.2242 H   0  0  0  0  0  0
  -27.3582  -25.7918   23.1667 H   0  0  0  0  0  0
  -26.3140  -23.2812   22.9371 H   0  0  0  0  0  0
  -27.0630  -23.8593   24.4038 H   0  0  0  0  0  0
  -30.1656  -23.6441   21.1317 H   0  0  0  0  0  0
  -29.1848  -24.1781   19.7993 H   0  0  0  0  0  0
  -28.0585  -21.7687   24.1374 H   0  0  0  0  0  0
  -29.2920  -22.9089   23.6326 H   0  0  0  0  0  0
  -28.6221  -21.9542   19.9884 H   0  0  0  0  0  0
  -27.2475  -22.7779   20.6604 H   0  0  0  0  0  0
  -31.3207  -16.3146   22.9009 H   0  0  0  0  0  0
  -31.8271  -16.7039   21.2908 H   0  0  0  0  0  0
  -30.1117  -26.3380   21.0067 H   0  0  0  0  0  0
  -28.8991  -27.1240   21.9719 H   0  0  0  0  0  0
  -29.5542  -16.6861   19.6422 H   0  0  0  0  0  0
  -28.6569  -17.9354   18.9481 H   0  0  0  0  0  0
  -29.3690  -15.0835   21.9121 H   0  0  0  0  0  0
  1 25  1  0  0  0
  1 30  2  0  0  0
  1 87  1  0  0  0
  2  3  1  0  0  0
  2 25  1  0  0  0
  2 89  1  0  0  0
  2 90  1  0  0  0
  3  4  1  0  0  0
  3 91  1  0  0  0
  3 92  1  0  0  0
  4  5  1  0  0  0
  4 93  1  0  0  0
  4 94  1  0  0  0
  5  6  1  0  0  0
  5 26  1  0  0  0
  5 95  1  0  0  0
  6 25  1  0  0  0
  6 96  1  0  0  0
  6 97  1  0  0  0
  7  8  2  0  0  0
  7 26  1  0  0  0
  7 29  1  0  0  0
  8  9  1  0  0  0
  8 22  1  0  0  0
  9 10  1  0  0  0
  9 27  2  0  0  0
 10 11  2  0  0  0
 10 15  1  0  0  0
 11 12  1  0  0  0
 11 98  1  0  0  0
 12 13  2  0  0  0
 12 99  1  0  0  0
 13 14  1  0  0  0
 13 31  1  0  0  0
 14 15  2  0  0  0
 14100  1  0  0  0
 15101  1  0  0  0
 16 17  2  0  0  0
 16 21  1  0  0  0
 16 31  1  0  0  0
 17 18  1  0  0  0
 17102  1  0  0  0
 18 19  2  0  0  0
 18103  1  0  0  0
 19 20  1  0  0  0
 19 24  1  0  0  0
 20 21  2  0  0  0
 20104  1  0  0  0
 21 23  1  0  0  0
 22 28  1  0  0  0
 22 32  2  0  0  0
 26 27  1  0  0  0
 28105  1  0  0  0
 28106  1  0  0  0
 29107  1  0  0  0
 29108  1  0  0  0
 33 34  1  0  0  0
 33 66  1  0  0  0
 33 70  2  0  0  0
 34 36  1  0  0  0
 34 59  1  0  0  0
 34109  1  0  0  0
 35 44  2  0  0  0
 35 45  1  0  0  0
 35 68  1  0  0  0
 36 56  1  0  0  0
 36110  1  0  0  0
 37 39  1  0  0  0
 37 47  1  0  0  0
 37 66  1  0  0  0
 37111  1  0  0  0
 38 43  2  0  0  0
 38 46  1  0  0  0
 38 47  1  0  0  0
 39 64  1  0  0  0
 39 67  2  0  0  0
 40 52  1  0  0  0
 40 53  2  0  0  0
 40 58  1  0  0  0
 41112  1  0  0  0
 41113  1  0  0  0
 41114  1  0  0  0
 41 48  1  0  0  0
 42 43  1  0  0  0
 42 66  1  0  0  0
 42115  1  0  0  0
 42116  1  0  0  0
 43 44  1  0  0  0
 44117  1  0  0  0
 45 46  2  0  0  0
 45118  1  0  0  0
 46119  1  0  0  0
 47120  1  0  0  0
 47121  1  0  0  0
 48 56  1  0  0  0
 48 65  1  0  0  0
 48122  1  0  0  0
 49 50  1  0  0  0
 49 53  1  0  0  0
 49 64  1  0  0  0
 49123  1  0  0  0
 50 51  1  0  0  0
 50124  1  0  0  0
 50125  1  0  0  0
 51 52  1  0  0  0
 51126  1  0  0  0
 51127  1  0  0  0
 52128  1  0  0  0
 52129  1  0  0  0
 53 54  1  0  0  0
 54 55  2  0  0  0
 54130  1  0  0  0
 55 57  1  0  0  0
 55131  1  0  0  0
 56 69  2  0  0  0
 57 58  2  0  0  0
 57132  1  0  0  0
 58133  1  0  0  0
 59 60  1  0  0  0
 59 61  1  0  0  0
 59 62  1  0  0  0
 60134  1  0  0  0
 60135  1  0  0  0
 60136  1  0  0  0
 61137  1  0  0  0
 61138  1  0  0  0
 61139  1  0  0  0
 62140  1  0  0  0
 62141  1  0  0  0
 62142  1  0  0  0
 63 65  1  0  0  0
 63143  1  0  0  0
 63144  1  0  0  0
 63145  1  0  0  0
 64146  1  0  0  0
 65147  1  0  0  0
 68 84  1  0  0  0
 71 73  2  0  0  0
 71 76  1  0  0  0
 71148  1  0  0  0
 72 74  1  0  0  0
 72 75  2  0  0  0
 72149  1  0  0  0
 73 75  1  0  0  0
 73 83  1  0  0  0
 74 76  2  0  0  0
 74 85  1  0  0  0
 75 86  1  0  0  0
 76 88  1  0  0  0
 77 78  2  0  0  0
 77 79  1  0  0  0
 77150  1  0  0  0
 78 80  1  0  0  0
 78 84  1  0  0  0
 79 81  1  0  0  0
 79151  1  0  0  0
 79152  1  0  0  0
 80 82  1  0  0  0
 80153  1  0  0  0
 80154  1  0  0  0
 81 85  1  0  0  0
 81155  1  0  0  0
 81156  1  0  0  0
 82 85  1  0  0  0
 82157  1  0  0  0
 82158  1  0  0  0
 83 87  1  0  0  0
 83159  1  0  0  0
 83160  1  0  0  0
 84161  1  0  0  0
 84162  1  0  0  0
 86163  1  0  0  0
 86164  1  0  0  0
 87165  1  0  0  0
M  ISO  4   1 100  68 101  84 101  87 100
M  END
> <chiral flag>
0

> <version>
0

> <s_m_source_file>
/data/baiqing/PycharmProjects/Reinvent-master-3.2/result/LINK_invent/BTK/process_docking_weight1_custom_product_contain_oxygen_bond_distance_aromatic_linkinvent_7_9_3/rearranged_h_0100.sdf

> <i_m_source_file_index>
56

> <r_mmod_Potential_Energy-OPLS-2005>
-12.4342823028564

> <r_mmod_Stretch_Energy-OPLS-2005>
37.6784477233887

> <r_mmod_Bend_Energy-OPLS-2005>
120.781181335449

> <r_mmod_Torsional_Energy-OPLS-2005>
236.836242675781

> <r_mmod_Improper_Torsional_Energy-OPLS-2005>
6.54992198944092

> <r_mmod_Van_der_Waal_Energy-OPLS-2005>
169.024612426758

> <r_mmod_Electrostatic_Energy-OPLS-2005>
-378.352020263672

> <r_mmod_Solvation_Energy-OPLS-2005>
-212.627227783203

> <b_mmod_Minimization_Converged-OPLS-2005>
0

> <r_mmod_RMS_Derivative-OPLS-2005>
3.83631753921509

$$$$
57
                    3D
 Structure written by MMmdl.
161170  0  0  1  0            999 V2000
  -30.5214  -14.9455   20.5284 C   0  0  0  0  0  0
  -30.4314  -12.6009   19.5236 C   0  0  0  0  0  0
  -29.5189  -12.5386   18.2763 C   0  0  0  0  0  0
  -28.0564  -12.2945   18.6894 C   0  0  0  0  0  0
  -27.6177  -13.2404   19.8303 C   0  0  2  0  0  0
  -28.6364  -13.2498   20.9816 C   0  0  0  0  0  0
  -25.2376  -13.8228   20.5678 C   0  0  0  0  0  0
  -24.1712  -13.0434   20.9260 C   0  0  0  0  0  0
  -24.6331  -11.6934   20.8755 C   0  0  0  0  0  0
  -23.9023  -10.4298   21.0439 C   0  0  0  0  0  0
  -24.3593   -9.4206   21.9208 C   0  0  0  0  0  0
  -23.6276   -8.2231   22.0749 C   0  0  0  0  0  0
  -22.4245   -8.0264   21.3552 C   0  0  0  0  0  0
  -21.9877   -9.0240   20.4655 C   0  0  0  0  0  0
  -22.7199  -10.2132   20.3078 C   0  0  0  0  0  0
  -21.6827   -6.0739   22.5291 C   0  0  0  0  0  0
  -21.4020   -6.5633   23.8232 C   0  0  0  0  0  0
  -21.3672   -5.6792   24.9187 C   0  0  0  0  0  0
  -21.6042   -4.3056   24.7245 C   0  0  0  0  0  0
  -21.8799   -3.8140   23.4355 C   0  0  0  0  0  0
  -21.9174   -4.6967   22.3401 C   0  0  0  0  0  0
  -22.7739  -13.5216   21.1939 C   0  0  0  0  0  0
  -22.1630   -4.2139   21.0982 F   0  0  0  0  0  0
  -21.5623   -3.4535   25.7744 F   0  0  0  0  0  0
  -29.9340  -13.6769   20.4347 N   0  0  0  0  0  0
  -26.2756  -12.9437   20.3128 N   0  0  0  0  0  0
  -25.9239  -11.6574   20.5686 N   0  0  0  0  0  0
  -22.0358  -12.8247   22.0516 N   0  0  0  0  0  0
  -25.4059  -15.1968   20.4176 N   0  0  0  0  0  0
  -31.6437  -15.0694   20.0187 O   0  0  0  0  0  0
  -21.6607   -6.8860   21.4243 O   0  0  0  0  0  0
  -22.3416  -14.5490   20.6735 O   0  0  0  0  0  0
  -24.6401  -31.8442   23.1883 C   0  0  0  0  0  0
  -25.9215  -32.4670   23.8232 C   0  0  1  0  0  0
  -27.1890  -27.1335   20.1424 C   0  0  0  0  0  0
  -25.6024  -33.8485   24.2204 N   0  0  0  0  0  0
  -23.4429  -30.4667   21.5319 C   0  0  2  0  0  0
  -24.8869  -28.8963   20.0913 C   0  0  0  0  0  0
  -22.7581  -29.4524   22.4818 C   0  0  0  0  0  0
  -18.0332  -28.1413   22.8523 C   0  0  0  0  0  0
  -24.1472  -36.7167   23.2620 C   0  0  0  0  0  0
  -25.9949  -30.7072   21.3949 C   0  0  0  0  0  0
  -26.0581  -29.3209   20.7325 C   0  0  0  0  0  0
  -27.2039  -28.4492   20.7509 C   0  0  0  0  0  0
  -26.0153  -26.8166   19.4310 C   0  0  0  0  0  0
  -24.8817  -27.6629   19.4194 C   0  0  0  0  0  0
  -23.6688  -29.8071   20.1440 C   0  0  0  0  0  0
  -25.4112  -36.3011   24.0312 C   0  0  1  0  0  0
  -20.5951  -28.3710   23.1253 C   0  0  2  0  0  0
  -20.6838  -26.9413   22.5427 C   0  0  0  0  0  0
  -19.5792  -26.6402   21.5255 C   0  0  0  0  0  0
  -18.1969  -26.7973   22.1654 C   0  0  0  0  0  0
  -19.1587  -28.8879   23.2893 C   0  0  0  0  0  0
  -18.9499  -30.1491   23.8927 C   0  0  0  0  0  0
  -17.6488  -30.6619   24.0578 C   0  0  0  0  0  0
  -25.9094  -34.9392   23.5073 C   0  0  0  0  0  0
  -16.5385  -29.9127   23.6329 C   0  0  0  0  0  0
  -16.7313  -28.6532   23.0373 C   0  0  0  0  0  0
  -26.4599  -31.6536   25.0653 C   0  0  0  0  0  0
  -25.3812  -31.3688   26.1361 C   0  0  0  0  0  0
  -27.0470  -30.2961   24.6166 C   0  0  0  0  0  0
  -27.6172  -32.4270   25.7437 C   0  0  0  0  0  0
  -27.5598  -37.1714   24.8481 C   0  0  0  0  0  0
  -21.4279  -29.3024   22.3583 N   0  0  0  0  0  0
  -26.4278  -37.3739   23.9463 N   0  0  0  0  0  0
  -24.7115  -31.0296   22.0930 N   0  0  0  0  0  0
  -23.4262  -28.8096   23.2955 O   0  0  0  0  0  0
  -28.2326  -26.1623   20.3061 O   0  0  0  0  0  0
  -26.5648  -34.8889   22.4618 O   0  0  0  0  0  0
  -23.5538  -32.1371   23.7095 O   0  0  0  0  0  0
  -29.2944  -19.8694   22.0376 C   0  0  0  0  0  0
  -29.6371  -18.4765   22.0933 C   0  0  0  0  0  0
  -28.8219  -19.6800   19.7712 C   0  0  0  0  0  0
  -28.8466  -20.6118   20.8946 C   0  0  0  0  0  0
  -29.6201  -17.5308   21.0105 C   0  0  0  0  0  0
  -29.1909  -18.2419   19.8177 C   0  0  0  0  0  0
  -28.1995  -22.6553   22.2466 C   0  0  0  0  0  0
  -26.9144  -23.4817   22.3007 C   0  0  0  0  0  0
  -26.4346  -23.4604   20.8643 C   0  0  0  0  0  0
  -27.7396  -23.2009   20.1105 C   0  0  2  0  0  0
  -31.3686  -16.0517   23.3534 C   0  0  0  0  0  0
  -28.3613  -24.7265   19.7273 C   0  0  0  0  0  0
  -30.0059  -15.6905   22.7202 C   0  0  0  0  0  0
  -28.4597  -22.1349   21.0169 N   0  0  0  0  0  0
  -29.9203  -16.0132   21.2705 N   0  0  0  0  0  0
  -28.9096  -22.5679   23.2516 O   0  0  0  0  0  0
  -29.0860  -17.5230   18.6741 F   0  0  0  0  0  0
  -31.4673  -12.7654   19.2242 H   0  0  0  0  0  0
  -30.4318  -11.6422   20.0459 H   0  0  0  0  0  0
  -29.8492  -11.7485   17.6008 H   0  0  0  0  0  0
  -29.5963  -13.4754   17.7208 H   0  0  0  0  0  0
  -27.9812  -11.2612   19.0301 H   0  0  0  0  0  0
  -27.3912  -12.3778   17.8296 H   0  0  0  0  0  0
  -27.5909  -14.2397   19.3927 H   0  0  0  0  0  0
  -28.7100  -12.2704   21.4538 H   0  0  0  0  0  0
  -28.2685  -13.9276   21.7494 H   0  0  0  0  0  0
  -25.2726   -9.5668   22.4812 H   0  0  0  0  0  0
  -23.9963   -7.4616   22.7461 H   0  0  0  0  0  0
  -21.0799   -8.8782   19.8977 H   0  0  0  0  0  0
  -22.3651  -10.9685   19.6204 H   0  0  0  0  0  0
  -21.2021   -7.6145   23.9738 H   0  0  0  0  0  0
  -21.1518   -6.0522   25.9105 H   0  0  0  0  0  0
  -22.0563   -2.7588   23.2855 H   0  0  0  0  0  0
  -22.3903  -11.9937   22.5028 H   0  0  0  0  0  0
  -21.0987  -13.1332   22.2690 H   0  0  0  0  0  0
  -24.6385  -15.8478   20.5377 H   0  0  0  0  0  0
  -26.2589  -15.6450   20.1086 H   0  0  0  0  0  0
  -26.7253  -32.5277   23.0907 H   0  0  0  0  0  0
  -25.0288  -33.9577   25.0451 H   0  0  0  0  0  0
  -22.7437  -31.2933   21.3851 H   0  0  0  0  0  0
  -23.3795  -35.9439   23.3252 H   0  0  0  0  0  0
  -24.3573  -36.8821   22.2050 H   0  0  0  0  0  0
  -23.7135  -37.6310   23.6663 H   0  0  0  0  0  0
  -26.1639  -31.4578   20.6234 H   0  0  0  0  0  0
  -26.8667  -30.7497   22.0375 H   0  0  0  0  0  0
  -28.0877  -28.7556   21.2965 H   0  0  0  0  0  0
  -25.9439  -25.8751   18.9069 H   0  0  0  0  0  0
  -23.9979  -27.3522   18.8840 H   0  0  0  0  0  0
  -23.8190  -30.5940   19.4036 H   0  0  0  0  0  0
  -22.7773  -29.2661   19.8154 H   0  0  0  0  0  0
  -25.1267  -36.1839   25.0803 H   0  0  0  0  0  0
  -21.0074  -28.3332   24.1365 H   0  0  0  0  0  0
  -20.5822  -26.2293   23.3628 H   0  0  0  0  0  0
  -21.6680  -26.7507   22.1146 H   0  0  0  0  0  0
  -19.6928  -25.6326   21.1255 H   0  0  0  0  0  0
  -19.6714  -27.3254   20.6825 H   0  0  0  0  0  0
  -17.4251  -26.6758   21.4043 H   0  0  0  0  0  0
  -18.0333  -26.0116   22.9052 H   0  0  0  0  0  0
  -19.7964  -30.7311   24.2309 H   0  0  0  0  0  0
  -17.5039  -31.6309   24.5159 H   0  0  0  0  0  0
  -15.5389  -30.3032   23.7606 H   0  0  0  0  0  0
  -15.8734  -28.0845   22.7065 H   0  0  0  0  0  0
  -24.6028  -30.6979   25.7686 H   0  0  0  0  0  0
  -24.8919  -32.2840   26.4717 H   0  0  0  0  0  0
  -25.8128  -30.8940   27.0179 H   0  0  0  0  0  0
  -26.3055  -29.6652   24.1232 H   0  0  0  0  0  0
  -27.4254  -29.7271   25.4660 H   0  0  0  0  0  0
  -27.8918  -30.4232   23.9379 H   0  0  0  0  0  0
  -27.2838  -33.3601   26.1982 H   0  0  0  0  0  0
  -28.4032  -32.6769   25.0294 H   0  0  0  0  0  0
  -28.0797  -31.8389   26.5369 H   0  0  0  0  0  0
  -28.2557  -38.0075   24.7673 H   0  0  0  0  0  0
  -28.1166  -36.2621   24.6163 H   0  0  0  0  0  0
  -27.2333  -37.1196   25.8881 H   0  0  0  0  0  0
  -20.9485  -29.8637   21.6693 H   0  0  0  0  0  0
  -26.0136  -38.2774   24.1622 H   0  0  0  0  0  0
  -29.3802  -20.3494   22.9943 H   0  0  0  0  0  0
  -29.9164  -18.1666   23.0861 H   0  0  0  0  0  0
  -28.4961  -20.0627   18.8130 H   0  0  0  0  0  0
  -27.1368  -24.4964   22.6294 H   0  0  0  0  0  0
  -26.1725  -23.0558   22.9786 H   0  0  0  0  0  0
  -25.9514  -24.3943   20.5905 H   0  0  0  0  0  0
  -25.7067  -22.6642   20.7014 H   0  0  0  0  0  0
  -27.5078  -22.7028   19.1683 H   0  0  0  0  0  0
  -31.2688  -16.1669   24.4333 H   0  0  0  0  0  0
  -31.8023  -16.9715   22.9590 H   0  0  0  0  0  0
  -32.0958  -15.2559   23.1909 H   0  0  0  0  0  0
  -28.1077  -24.8724   18.6780 H   0  0  0  0  0  0
  -29.4430  -24.5656   19.7129 H   0  0  0  0  0  0
  -29.1856  -16.1758   23.2531 H   0  0  0  0  0  0
  -29.8534  -14.6351   22.9472 H   0  0  0  0  0  0
  1 25  1  0  0  0
  1 30  2  0  0  0
  1 85  1  0  0  0
  2  3  1  0  0  0
  2 25  1  0  0  0
  2 88  1  0  0  0
  2 89  1  0  0  0
  3  4  1  0  0  0
  3 90  1  0  0  0
  3 91  1  0  0  0
  4  5  1  0  0  0
  4 92  1  0  0  0
  4 93  1  0  0  0
  5  6  1  0  0  0
  5 26  1  0  0  0
  5 94  1  0  0  0
  6 25  1  0  0  0
  6 95  1  0  0  0
  6 96  1  0  0  0
  7  8  2  0  0  0
  7 26  1  0  0  0
  7 29  1  0  0  0
  8  9  1  0  0  0
  8 22  1  0  0  0
  9 10  1  0  0  0
  9 27  2  0  0  0
 10 11  2  0  0  0
 10 15  1  0  0  0
 11 12  1  0  0  0
 11 97  1  0  0  0
 12 13  2  0  0  0
 12 98  1  0  0  0
 13 14  1  0  0  0
 13 31  1  0  0  0
 14 15  2  0  0  0
 14 99  1  0  0  0
 15100  1  0  0  0
 16 17  2  0  0  0
 16 21  1  0  0  0
 16 31  1  0  0  0
 17 18  1  0  0  0
 17101  1  0  0  0
 18 19  2  0  0  0
 18102  1  0  0  0
 19 20  1  0  0  0
 19 24  1  0  0  0
 20 21  2  0  0  0
 20103  1  0  0  0
 21 23  1  0  0  0
 22 28  1  0  0  0
 22 32  2  0  0  0
 26 27  1  0  0  0
 28104  1  0  0  0
 28105  1  0  0  0
 29106  1  0  0  0
 29107  1  0  0  0
 33 34  1  0  0  0
 33 66  1  0  0  0
 33 70  2  0  0  0
 34 36  1  0  0  0
 34 59  1  0  0  0
 34108  1  0  0  0
 35 44  2  0  0  0
 35 45  1  0  0  0
 35 68  1  0  0  0
 36 56  1  0  0  0
 36109  1  0  0  0
 37 39  1  0  0  0
 37 47  1  0  0  0
 37 66  1  0  0  0
 37110  1  0  0  0
 38 43  2  0  0  0
 38 46  1  0  0  0
 38 47  1  0  0  0
 39 64  1  0  0  0
 39 67  2  0  0  0
 40 52  1  0  0  0
 40 53  2  0  0  0
 40 58  1  0  0  0
 41111  1  0  0  0
 41112  1  0  0  0
 41113  1  0  0  0
 41 48  1  0  0  0
 42 43  1  0  0  0
 42 66  1  0  0  0
 42114  1  0  0  0
 42115  1  0  0  0
 43 44  1  0  0  0
 44116  1  0  0  0
 45 46  2  0  0  0
 45117  1  0  0  0
 46118  1  0  0  0
 47119  1  0  0  0
 47120  1  0  0  0
 48 56  1  0  0  0
 48 65  1  0  0  0
 48121  1  0  0  0
 49 50  1  0  0  0
 49 53  1  0  0  0
 49 64  1  0  0  0
 49122  1  0  0  0
 50 51  1  0  0  0
 50123  1  0  0  0
 50124  1  0  0  0
 51 52  1  0  0  0
 51125  1  0  0  0
 51126  1  0  0  0
 52127  1  0  0  0
 52128  1  0  0  0
 53 54  1  0  0  0
 54 55  2  0  0  0
 54129  1  0  0  0
 55 57  1  0  0  0
 55130  1  0  0  0
 56 69  2  0  0  0
 57 58  2  0  0  0
 57131  1  0  0  0
 58132  1  0  0  0
 59 60  1  0  0  0
 59 61  1  0  0  0
 59 62  1  0  0  0
 60133  1  0  0  0
 60134  1  0  0  0
 60135  1  0  0  0
 61136  1  0  0  0
 61137  1  0  0  0
 61138  1  0  0  0
 62139  1  0  0  0
 62140  1  0  0  0
 62141  1  0  0  0
 63 65  1  0  0  0
 63142  1  0  0  0
 63143  1  0  0  0
 63144  1  0  0  0
 64145  1  0  0  0
 65146  1  0  0  0
 68 82  1  0  0  0
 71 72  2  0  0  0
 71 74  1  0  0  0
 71147  1  0  0  0
 72 75  1  0  0  0
 72148  1  0  0  0
 73 74  2  0  0  0
 73 76  1  0  0  0
 73149  1  0  0  0
 74 84  1  0  0  0
 75 76  2  0  0  0
 75 85  1  0  0  0
 76 87  1  0  0  0
 77 78  1  0  0  0
 77 84  1  0  0  0
 77 86  2  0  0  0
 78 79  1  0  0  0
 78150  1  0  0  0
 78151  1  0  0  0
 79 80  1  0  0  0
 79152  1  0  0  0
 79153  1  0  0  0
 80 82  1  0  0  0
 80 84  1  0  0  0
 80154  1  0  0  0
 81 83  1  0  0  0
 81155  1  0  0  0
 81156  1  0  0  0
 81157  1  0  0  0
 82158  1  0  0  0
 82159  1  0  0  0
 83 85  1  0  0  0
 83160  1  0  0  0
 83161  1  0  0  0
M  ISO  4   1 100  68 101  82 101  85 100
M  END
> <chiral flag>
0

> <version>
0

> <s_m_source_file>
/data/baiqing/PycharmProjects/Reinvent-master-3.2/result/LINK_invent/BTK/process_docking_weight1_custom_product_contain_oxygen_bond_distance_aromatic_linkinvent_7_9_3/rearranged_h_0100.sdf

> <i_m_source_file_index>
57

> <r_mmod_Potential_Energy-OPLS-2005>
922.313659667969

> <r_mmod_Stretch_Energy-OPLS-2005>
282.219787597656

> <r_mmod_Bend_Energy-OPLS-2005>
406.023895263672

> <r_mmod_Torsional_Energy-OPLS-2005>
360.499603271484

> <r_mmod_Improper_Torsional_Energy-OPLS-2005>
5.56132698059082

> <r_mmod_Van_der_Waal_Energy-OPLS-2005>
154.744445800781

> <r_mmod_Electrostatic_Energy-OPLS-2005>
-288.128082275391

> <r_mmod_Solvation_Energy-OPLS-2005>
-199.828201293945

> <b_mmod_Minimization_Converged-OPLS-2005>
0

> <r_mmod_RMS_Derivative-OPLS-2005>
5.91273307800293

$$$$
58
                    3D
 Structure written by MMmdl.
172180  0  0  1  0            999 V2000
  -30.6499  -14.4771   20.6813 C   0  0  0  0  0  0
  -30.4334  -12.3542   19.4128 C   0  0  0  0  0  0
  -29.4945  -12.5537   18.2024 C   0  0  0  0  0  0
  -28.0108  -12.3936   18.6065 C   0  0  0  0  0  0
  -27.6601  -13.2016   19.8849 C   0  0  2  0  0  0
  -28.6923  -12.9216   20.9964 C   0  0  0  0  0  0
  -25.2627  -13.8173   20.5745 C   0  0  0  0  0  0
  -24.1892  -13.0421   20.9252 C   0  0  0  0  0  0
  -24.6397  -11.6900   20.8758 C   0  0  0  0  0  0
  -23.9008  -10.4313   21.0406 C   0  0  0  0  0  0
  -24.3583   -9.4253   21.9186 C   0  0  0  0  0  0
  -23.6311   -8.2249   22.0747 C   0  0  0  0  0  0
  -22.4288   -8.0267   21.3527 C   0  0  0  0  0  0
  -21.9897   -9.0211   20.4619 C   0  0  0  0  0  0
  -22.7186  -10.2125   20.3036 C   0  0  0  0  0  0
  -21.6869   -6.0743   22.5276 C   0  0  0  0  0  0
  -21.4034   -6.5644   23.8223 C   0  0  0  0  0  0
  -21.3678   -5.6791   24.9188 C   0  0  0  0  0  0
  -21.6041   -4.3050   24.7231 C   0  0  0  0  0  0
  -21.8821   -3.8153   23.4349 C   0  0  0  0  0  0
  -21.9219   -4.6972   22.3415 C   0  0  0  0  0  0
  -22.7926  -13.5249   21.1854 C   0  0  0  0  0  0
  -22.1701   -4.2148   21.1003 F   0  0  0  0  0  0
  -21.5598   -3.4558   25.7760 F   0  0  0  0  0  0
  -30.0207  -13.2903   20.4664 N   0  0  0  0  0  0
  -26.3016  -12.9311   20.3372 N   0  0  0  0  0  0
  -25.9310  -11.6462   20.5749 N   0  0  0  0  0  0
  -22.0551  -12.8156   22.0368 N   0  0  0  0  0  0
  -25.4253  -15.1895   20.4172 N   0  0  0  0  0  0
  -31.7355  -14.7675   20.1654 O   0  0  0  0  0  0
  -21.6654   -6.8860   21.4224 O   0  0  0  0  0  0
  -22.3618  -14.5544   20.6688 O   0  0  0  0  0  0
  -24.6142  -31.8673   23.2119 C   0  0  0  0  0  0
  -25.9065  -32.4793   23.8384 C   0  0  1  0  0  0
  -27.2240  -27.4342   20.0484 C   0  0  0  0  0  0
  -25.5925  -33.8580   24.2331 N   0  0  0  0  0  0
  -23.3946  -30.4943   21.5571 C   0  0  2  0  0  0
  -24.8328  -28.9563   20.1092 C   0  0  0  0  0  0
  -22.7352  -29.4666   22.5039 C   0  0  0  0  0  0
  -18.0298  -28.1356   22.8507 C   0  0  0  0  0  0
  -24.1474  -36.7323   23.2652 C   0  0  0  0  0  0
  -25.9245  -30.8147   21.3747 C   0  0  0  0  0  0
  -25.9928  -29.4483   20.7233 C   0  0  0  0  0  0
  -27.1843  -28.6867   20.7100 C   0  0  0  0  0  0
  -26.0431  -26.9593   19.4331 C   0  0  0  0  0  0
  -24.8529  -27.7115   19.4604 C   0  0  0  0  0  0
  -23.5949  -29.8227   20.1720 C   0  0  0  0  0  0
  -25.4116  -36.3128   24.0365 C   0  0  1  0  0  0
  -20.5823  -28.3713   23.1344 C   0  0  2  0  0  0
  -20.6728  -26.9464   22.5456 C   0  0  0  0  0  0
  -19.5713  -26.6369   21.5251 C   0  0  0  0  0  0
  -18.1914  -26.7932   22.1627 C   0  0  0  0  0  0
  -19.1517  -28.8841   23.2924 C   0  0  0  0  0  0
  -18.9462  -30.1440   23.8926 C   0  0  0  0  0  0
  -17.6488  -30.6570   24.0592 C   0  0  0  0  0  0
  -25.9058  -34.9471   23.5163 C   0  0  0  0  0  0
  -16.5385  -29.9074   23.6269 C   0  0  0  0  0  0
  -16.7308  -28.6462   23.0350 C   0  0  0  0  0  0
  -26.4466  -31.6569   25.0722 C   0  0  0  0  0  0
  -25.3724  -31.3635   26.1482 C   0  0  0  0  0  0
  -27.0312  -30.3030   24.6046 C   0  0  0  0  0  0
  -27.6045  -32.4316   25.7472 C   0  0  0  0  0  0
  -27.5593  -37.1837   24.8486 C   0  0  0  0  0  0
  -21.4088  -29.3072   22.3748 N   0  0  0  0  0  0
  -26.4300  -37.3825   23.9438 N   0  0  0  0  0  0
  -24.6626  -31.0764   22.1021 N   0  0  0  0  0  0
  -23.4126  -28.8196   23.3098 O   0  0  0  0  0  0
  -28.4167  -26.7344   20.0269 O   0  0  0  0  0  0
  -26.5605  -34.8928   22.4727 O   0  0  0  0  0  0
  -23.5353  -32.1472   23.7499 O   0  0  0  0  0  0
  -29.4510  -18.7331   18.6115 C   0  0  0  0  0  0
  -29.9003  -17.7063   19.4539 C   0  0  0  0  0  0
  -28.5844  -19.7333   19.1031 C   0  0  0  0  0  0
  -29.4576  -17.6975   20.7854 C   0  0  0  0  0  0
  -28.1379  -19.5986   20.4504 C   0  0  0  0  0  0
  -30.5751  -20.6783   24.1561 C   0  0  0  0  0  0
  -26.6754  -20.2616   22.3004 C   0  0  0  0  0  0
  -31.1783  -19.7771   23.0644 C   0  0  0  0  0  0
  -31.3155  -18.2986   23.5099 C   0  0  0  0  0  0
  -28.1607  -24.2535   19.7220 C   0  0  0  0  0  0
  -28.7474  -22.9862   19.0484 C   0  0  0  0  0  0
  -31.3969  -17.2144   22.3947 C   0  0  0  0  0  0
  -28.6059  -25.6215   19.1302 C   0  0  0  0  0  0
  -27.6913  -21.9676   18.5786 C   0  0  0  0  0  0
  -30.0321  -16.7382   21.8223 C   0  0  2  0  0  0
  -28.5572  -18.5888   21.2451 N   0  0  0  0  0  0
  -29.9249  -15.3217   21.4337 N   0  0  0  0  0  0
  -28.2537  -20.7167   18.1868 O   0  0  0  0  0  0
  -27.2731  -20.5127   21.0226 O   0  0  0  0  0  0
  -31.4765  -12.4989   19.1255 H   0  0  0  0  0  0
  -30.3648  -11.3315   19.7820 H   0  0  0  0  0  0
  -29.7528  -11.8420   17.4141 H   0  0  0  0  0  0
  -29.6401  -13.5493   17.7772 H   0  0  0  0  0  0
  -27.8212  -11.3308   18.7690 H   0  0  0  0  0  0
  -27.3644  -12.7005   17.7794 H   0  0  0  0  0  0
  -27.7217  -14.2578   19.6216 H   0  0  0  0  0  0
  -28.6814  -11.8604   21.2460 H   0  0  0  0  0  0
  -28.4200  -13.4243   21.9276 H   0  0  0  0  0  0
  -25.2728   -9.5767   22.4754 H   0  0  0  0  0  0
  -24.0061   -7.4641   22.7456 H   0  0  0  0  0  0
  -21.0835   -8.8653   19.8931 H   0  0  0  0  0  0
  -22.3581  -10.9622   19.6123 H   0  0  0  0  0  0
  -21.2011   -7.6153   23.9727 H   0  0  0  0  0  0
  -21.1517   -6.0536   25.9093 H   0  0  0  0  0  0
  -22.0592   -2.7623   23.2851 H   0  0  0  0  0  0
  -22.4243  -11.9844   22.4708 H   0  0  0  0  0  0
  -21.1163  -13.1131   22.2623 H   0  0  0  0  0  0
  -24.6301  -15.8185   20.4660 H   0  0  0  0  0  0
  -26.2701  -15.6352   20.0797 H   0  0  0  0  0  0
  -26.7169  -32.5445   23.1165 H   0  0  0  0  0  0
  -25.0049  -33.9657   25.0457 H   0  0  0  0  0  0
  -22.6734  -31.3075   21.4294 H   0  0  0  0  0  0
  -23.3725  -35.9663   23.3340 H   0  0  0  0  0  0
  -24.3533  -36.8883   22.2052 H   0  0  0  0  0  0
  -23.7207  -37.6538   23.6624 H   0  0  0  0  0  0
  -26.0482  -31.5593   20.5890 H   0  0  0  0  0  0
  -26.8073  -30.8639   21.9974 H   0  0  0  0  0  0
  -28.0782  -29.0574   21.1988 H   0  0  0  0  0  0
  -26.0248  -26.0099   18.9164 H   0  0  0  0  0  0
  -23.9644  -27.3396   18.9705 H   0  0  0  0  0  0
  -23.6971  -30.5991   19.4156 H   0  0  0  0  0  0
  -22.7129  -29.2425   19.8873 H   0  0  0  0  0  0
  -25.1276  -36.2010   25.0852 H   0  0  0  0  0  0
  -20.9924  -28.3377   24.1443 H   0  0  0  0  0  0
  -20.5607  -26.2397   23.3673 H   0  0  0  0  0  0
  -21.6629  -26.7480   22.1333 H   0  0  0  0  0  0
  -19.6807  -25.6255   21.1319 H   0  0  0  0  0  0
  -19.6575  -27.3098   20.6726 H   0  0  0  0  0  0
  -17.4217  -26.6818   21.3987 H   0  0  0  0  0  0
  -18.0239  -26.0075   22.9016 H   0  0  0  0  0  0
  -19.7989  -30.7219   24.2291 H   0  0  0  0  0  0
  -17.5092  -31.6224   24.5264 H   0  0  0  0  0  0
  -15.5406  -30.2979   23.7523 H   0  0  0  0  0  0
  -15.8754  -28.0716   22.7041 H   0  0  0  0  0  0
  -24.5875  -30.7022   25.7794 H   0  0  0  0  0  0
  -24.8934  -32.2766   26.5026 H   0  0  0  0  0  0
  -25.8063  -30.8703   27.0193 H   0  0  0  0  0  0
  -26.2812  -29.6797   24.1155 H   0  0  0  0  0  0
  -27.4209  -29.7261   25.4443 H   0  0  0  0  0  0
  -27.8612  -30.4420   23.9120 H   0  0  0  0  0  0
  -27.2648  -33.3615   26.2065 H   0  0  0  0  0  0
  -28.3810  -32.6888   25.0248 H   0  0  0  0  0  0
  -28.0804  -31.8456   26.5349 H   0  0  0  0  0  0
  -28.2685  -38.0066   24.7536 H   0  0  0  0  0  0
  -28.1007  -36.2617   24.6326 H   0  0  0  0  0  0
  -27.2303  -37.1535   25.8879 H   0  0  0  0  0  0
  -20.9228  -29.8809   21.6991 H   0  0  0  0  0  0
  -26.0198  -38.2921   24.1343 H   0  0  0  0  0  0
  -29.7897  -18.7738   17.5853 H   0  0  0  0  0  0
  -30.6029  -16.9673   19.0887 H   0  0  0  0  0  0
  -31.1872  -20.7010   25.0587 H   0  0  0  0  0  0
  -29.5745  -20.3417   24.4367 H   0  0  0  0  0  0
  -30.4834  -21.7054   23.8001 H   0  0  0  0  0  0
  -27.3137  -19.7580   23.0282 H   0  0  0  0  0  0
  -25.7574  -19.6805   22.1957 H   0  0  0  0  0  0
  -26.4023  -21.2201   22.7402 H   0  0  0  0  0  0
  -30.5657  -19.8830   22.1726 H   0  0  0  0  0  0
  -32.1624  -20.1627   22.7915 H   0  0  0  0  0  0
  -30.5221  -18.0413   24.2178 H   0  0  0  0  0  0
  -32.2424  -18.2303   24.0844 H   0  0  0  0  0  0
  -28.4568  -24.2026   20.7697 H   0  0  0  0  0  0
  -27.0741  -24.2023   19.7419 H   0  0  0  0  0  0
  -29.4394  -22.5167   19.7477 H   0  0  0  0  0  0
  -29.3543  -23.2577   18.1881 H   0  0  0  0  0  0
  -31.8855  -16.3561   22.8485 H   0  0  0  0  0  0
  -32.0631  -17.5384   21.5942 H   0  0  0  0  0  0
  -28.1356  -25.8089   18.1619 H   0  0  0  0  0  0
  -29.6726  -25.5947   18.9045 H   0  0  0  0  0  0
  -27.2409  -22.3748   17.6698 H   0  0  0  0  0  0
  -26.8633  -21.8708   19.2761 H   0  0  0  0  0  0
  -29.3484  -16.7710   22.6695 H   0  0  0  0  0  0
  -29.0487  -14.9192   21.7268 H   0  0  0  0  0  0
  1 25  1  0  0  0
  1 30  2  0  0  0
  1 87  1  0  0  0
  2  3  1  0  0  0
  2 25  1  0  0  0
  2 90  1  0  0  0
  2 91  1  0  0  0
  3  4  1  0  0  0
  3 92  1  0  0  0
  3 93  1  0  0  0
  4  5  1  0  0  0
  4 94  1  0  0  0
  4 95  1  0  0  0
  5  6  1  0  0  0
  5 26  1  0  0  0
  5 96  1  0  0  0
  6 25  1  0  0  0
  6 97  1  0  0  0
  6 98  1  0  0  0
  7  8  2  0  0  0
  7 26  1  0  0  0
  7 29  1  0  0  0
  8  9  1  0  0  0
  8 22  1  0  0  0
  9 10  1  0  0  0
  9 27  2  0  0  0
 10 11  2  0  0  0
 10 15  1  0  0  0
 11 12  1  0  0  0
 11 99  1  0  0  0
 12 13  2  0  0  0
 12100  1  0  0  0
 13 14  1  0  0  0
 13 31  1  0  0  0
 14 15  2  0  0  0
 14101  1  0  0  0
 15102  1  0  0  0
 16 17  2  0  0  0
 16 21  1  0  0  0
 16 31  1  0  0  0
 17 18  1  0  0  0
 17103  1  0  0  0
 18 19  2  0  0  0
 18104  1  0  0  0
 19 20  1  0  0  0
 19 24  1  0  0  0
 20 21  2  0  0  0
 20105  1  0  0  0
 21 23  1  0  0  0
 22 28  1  0  0  0
 22 32  2  0  0  0
 26 27  1  0  0  0
 28106  1  0  0  0
 28107  1  0  0  0
 29108  1  0  0  0
 29109  1  0  0  0
 33 34  1  0  0  0
 33 66  1  0  0  0
 33 70  2  0  0  0
 34 36  1  0  0  0
 34 59  1  0  0  0
 34110  1  0  0  0
 35 44  2  0  0  0
 35 45  1  0  0  0
 35 68  1  0  0  0
 36 56  1  0  0  0
 36111  1  0  0  0
 37 39  1  0  0  0
 37 47  1  0  0  0
 37 66  1  0  0  0
 37112  1  0  0  0
 38 43  2  0  0  0
 38 46  1  0  0  0
 38 47  1  0  0  0
 39 64  1  0  0  0
 39 67  2  0  0  0
 40 52  1  0  0  0
 40 53  2  0  0  0
 40 58  1  0  0  0
 41113  1  0  0  0
 41114  1  0  0  0
 41115  1  0  0  0
 41 48  1  0  0  0
 42 43  1  0  0  0
 42 66  1  0  0  0
 42116  1  0  0  0
 42117  1  0  0  0
 43 44  1  0  0  0
 44118  1  0  0  0
 45 46  2  0  0  0
 45119  1  0  0  0
 46120  1  0  0  0
 47121  1  0  0  0
 47122  1  0  0  0
 48 56  1  0  0  0
 48 65  1  0  0  0
 48123  1  0  0  0
 49 50  1  0  0  0
 49 53  1  0  0  0
 49 64  1  0  0  0
 49124  1  0  0  0
 50 51  1  0  0  0
 50125  1  0  0  0
 50126  1  0  0  0
 51 52  1  0  0  0
 51127  1  0  0  0
 51128  1  0  0  0
 52129  1  0  0  0
 52130  1  0  0  0
 53 54  1  0  0  0
 54 55  2  0  0  0
 54131  1  0  0  0
 55 57  1  0  0  0
 55132  1  0  0  0
 56 69  2  0  0  0
 57 58  2  0  0  0
 57133  1  0  0  0
 58134  1  0  0  0
 59 60  1  0  0  0
 59 61  1  0  0  0
 59 62  1  0  0  0
 60135  1  0  0  0
 60136  1  0  0  0
 60137  1  0  0  0
 61138  1  0  0  0
 61139  1  0  0  0
 61140  1  0  0  0
 62141  1  0  0  0
 62142  1  0  0  0
 62143  1  0  0  0
 63 65  1  0  0  0
 63144  1  0  0  0
 63145  1  0  0  0
 63146  1  0  0  0
 64147  1  0  0  0
 65148  1  0  0  0
 68 83  1  0  0  0
 71 72  2  0  0  0
 71 73  1  0  0  0
 71149  1  0  0  0
 72 74  1  0  0  0
 72150  1  0  0  0
 73 75  2  0  0  0
 73 88  1  0  0  0
 74 85  1  0  0  0
 74 86  2  0  0  0
 75 86  1  0  0  0
 75 89  1  0  0  0
 76 78  1  0  0  0
 76151  1  0  0  0
 76152  1  0  0  0
 76153  1  0  0  0
 77 89  1  0  0  0
 77154  1  0  0  0
 77155  1  0  0  0
 77156  1  0  0  0
 78 79  1  0  0  0
 78157  1  0  0  0
 78158  1  0  0  0
 79 82  1  0  0  0
 79159  1  0  0  0
 79160  1  0  0  0
 80 81  1  0  0  0
 80 83  1  0  0  0
 80161  1  0  0  0
 80162  1  0  0  0
 81 84  1  0  0  0
 81163  1  0  0  0
 81164  1  0  0  0
 82165  1  0  0  0
 82166  1  0  0  0
 82 85  1  0  0  0
 83167  1  0  0  0
 83168  1  0  0  0
 84 88  1  0  0  0
 84169  1  0  0  0
 84170  1  0  0  0
 85 87  1  0  0  0
 85171  1  0  0  0
 87172  1  0  0  0
M  ISO  4   1 100  68 101  83 101  87 100
M  END
> <chiral flag>
0

> <version>
0

> <s_m_source_file>
/data/baiqing/PycharmProjects/Reinvent-master-3.2/result/LINK_invent/BTK/process_docking_weight1_custom_product_contain_oxygen_bond_distance_aromatic_linkinvent_7_9_3/rearranged_h_0100.sdf

> <i_m_source_file_index>
58

> <r_mmod_Potential_Energy-OPLS-2005>
-249.121475219727

> <r_mmod_Stretch_Energy-OPLS-2005>
40.6158790588379

> <r_mmod_Bend_Energy-OPLS-2005>
164.237808227539

> <r_mmod_Torsional_Energy-OPLS-2005>
196.588882446289

> <r_mmod_Improper_Torsional_Energy-OPLS-2005>
2.93615126609802

> <r_mmod_Van_der_Waal_Energy-OPLS-2005>
158.475402832031

> <r_mmod_Electrostatic_Energy-OPLS-2005>
-624.374084472656

> <r_mmod_Solvation_Energy-OPLS-2005>
-203.955047607422

> <b_mmod_Minimization_Converged-OPLS-2005>
0

> <r_mmod_RMS_Derivative-OPLS-2005>
8.84826850891113

$$$$
59
                    3D
 Structure written by MMmdl.
152160  0  0  1  0            999 V2000
  -30.6142  -14.7443   20.4753 C   0  0  0  0  0  0
  -30.4344  -12.4594   19.4655 C   0  0  0  0  0  0
  -29.5132  -12.5130   18.2285 C   0  0  0  0  0  0
  -28.0386  -12.3312   18.6405 C   0  0  0  0  0  0
  -27.6404  -13.2295   19.8420 C   0  0  2  0  0  0
  -28.6853  -13.1676   20.9768 C   0  0  0  0  0  0
  -25.2516  -13.8181   20.5668 C   0  0  0  0  0  0
  -24.1811  -13.0434   20.9205 C   0  0  0  0  0  0
  -24.6394  -11.6913   20.8738 C   0  0  0  0  0  0
  -23.9059  -10.4294   21.0381 C   0  0  0  0  0  0
  -24.3614   -9.4214   21.9164 C   0  0  0  0  0  0
  -23.6297   -8.2243   22.0747 C   0  0  0  0  0  0
  -22.4280   -8.0271   21.3535 C   0  0  0  0  0  0
  -21.9904   -9.0240   20.4632 C   0  0  0  0  0  0
  -22.7227  -10.2124   20.3031 C   0  0  0  0  0  0
  -21.6854   -6.0724   22.5269 C   0  0  0  0  0  0
  -21.4019   -6.5627   23.8209 C   0  0  0  0  0  0
  -21.3669   -5.6776   24.9170 C   0  0  0  0  0  0
  -21.6051   -4.3040   24.7217 C   0  0  0  0  0  0
  -21.8822   -3.8133   23.4336 C   0  0  0  0  0  0
  -21.9200   -4.6953   22.3392 C   0  0  0  0  0  0
  -22.7830  -13.5226   21.1853 C   0  0  0  0  0  0
  -22.1661   -4.2136   21.0973 F   0  0  0  0  0  0
  -21.5640   -3.4526   25.7731 F   0  0  0  0  0  0
  -29.9832  -13.5229   20.3910 N   0  0  0  0  0  0
  -26.2932  -12.9384   20.3225 N   0  0  0  0  0  0
  -25.9326  -11.6532   20.5728 N   0  0  0  0  0  0
  -22.0449  -12.8244   22.0407 N   0  0  0  0  0  0
  -25.4192  -15.1910   20.4107 N   0  0  0  0  0  0
  -31.8138  -14.8284   20.1974 O   0  0  0  0  0  0
  -21.6647   -6.8864   21.4228 O   0  0  0  0  0  0
  -22.3523  -14.5515   20.6667 O   0  0  0  0  0  0
  -24.6314  -31.8557   23.1963 C   0  0  0  0  0  0
  -25.9139  -32.4760   23.8324 C   0  0  1  0  0  0
  -27.2269  -27.2644   20.1430 C   0  0  0  0  0  0
  -25.5933  -33.8558   24.2258 N   0  0  0  0  0  0
  -23.4293  -30.4735   21.5406 C   0  0  2  0  0  0
  -24.8790  -28.9157   20.1162 C   0  0  0  0  0  0
  -22.7503  -29.4587   22.4924 C   0  0  0  0  0  0
  -18.0283  -28.1387   22.8490 C   0  0  0  0  0  0
  -24.1488  -36.7284   23.2639 C   0  0  0  0  0  0
  -25.9728  -30.7714   21.3730 C   0  0  0  0  0  0
  -26.0501  -29.3912   20.7219 C   0  0  0  0  0  0
  -27.2304  -28.5797   20.7178 C   0  0  0  0  0  0
  -26.0364  -26.8527   19.5100 C   0  0  0  0  0  0
  -24.8772  -27.6545   19.4983 C   0  0  0  0  0  0
  -23.6476  -29.8005   20.1594 C   0  0  0  0  0  0
  -25.4117  -36.3081   24.0328 C   0  0  1  0  0  0
  -20.5892  -28.3695   23.1281 C   0  0  2  0  0  0
  -20.6780  -26.9415   22.5413 C   0  0  0  0  0  0
  -19.5756  -26.6384   21.5221 C   0  0  0  0  0  0
  -18.1931  -26.7929   22.1625 C   0  0  0  0  0  0
  -19.1539  -28.8858   23.2878 C   0  0  0  0  0  0
  -18.9458  -30.1460   23.8898 C   0  0  0  0  0  0
  -17.6459  -30.6595   24.0555 C   0  0  0  0  0  0
  -25.9055  -34.9445   23.5099 C   0  0  0  0  0  0
  -16.5348  -29.9089   23.6331 C   0  0  0  0  0  0
  -16.7269  -28.6498   23.0363 C   0  0  0  0  0  0
  -26.4511  -31.6571   25.0701 C   0  0  0  0  0  0
  -25.3723  -31.3710   26.1402 C   0  0  0  0  0  0
  -27.0351  -30.2989   24.6174 C   0  0  0  0  0  0
  -27.6082  -32.4289   25.7483 C   0  0  0  0  0  0
  -27.5580  -37.1800   24.8464 C   0  0  0  0  0  0
  -21.4206  -29.3039   22.3665 N   0  0  0  0  0  0
  -26.4299  -37.3777   23.9401 N   0  0  0  0  0  0
  -24.6970  -31.0509   22.0938 N   0  0  0  0  0  0
  -23.4193  -28.8143   23.3040 O   0  0  0  0  0  0
  -28.3268  -26.3781   20.1532 O   0  0  0  0  0  0
  -26.5628  -34.8926   22.4669 O   0  0  0  0  0  0
  -23.5463  -32.1365   23.7266 O   0  0  0  0  0  0
  -31.3427  -17.5862   21.6292 C   0  0  0  0  0  0
  -30.9654  -20.0149   21.5100 C   0  0  0  0  0  0
  -29.4343  -18.4795   20.4126 C   0  0  0  0  0  0
  -31.7160  -18.9063   21.9604 C   0  0  0  0  0  0
  -30.1962  -17.3106   20.8494 C   0  0  0  0  0  0
  -29.8054  -19.8610   20.7114 C   0  0  0  0  0  0
  -28.9899  -22.3112   20.8862 C   0  0  0  0  0  0
  -28.7900  -23.6505   20.0208 C   0  0  0  0  0  0
  -28.1443  -24.9837   20.6978 C   0  0  0  0  0  0
  -32.8568  -19.1123   22.7380 N   0  0  0  0  0  0
  -29.8278  -15.8862   20.6049 N   0  0  0  0  0  0
  -29.0434  -22.4038   22.1153 O   0  0  0  0  0  0
  -29.1545  -21.0303   20.1933 O   0  0  0  0  0  0
  -31.4735  -12.5896   19.1613 H   0  0  0  0  0  0
  -30.3830  -11.4817   19.9464 H   0  0  0  0  0  0
  -29.8012  -11.7458   17.5081 H   0  0  0  0  0  0
  -29.6365  -13.4708   17.7204 H   0  0  0  0  0  0
  -27.9001  -11.2821   18.9030 H   0  0  0  0  0  0
  -27.3836  -12.5206   17.7887 H   0  0  0  0  0  0
  -27.6321  -14.2502   19.4613 H   0  0  0  0  0  0
  -28.7263  -12.1707   21.4185 H   0  0  0  0  0  0
  -28.4184  -13.8533   21.7835 H   0  0  0  0  0  0
  -25.2744   -9.5714   22.4752 H   0  0  0  0  0  0
  -24.0006   -7.4645   22.7479 H   0  0  0  0  0  0
  -21.0828   -8.8743   19.8948 H   0  0  0  0  0  0
  -22.3653  -10.9660   19.6149 H   0  0  0  0  0  0
  -21.1998   -7.6132   23.9707 H   0  0  0  0  0  0
  -21.1496   -6.0506   25.9079 H   0  0  0  0  0  0
  -22.0597   -2.7590   23.2838 H   0  0  0  0  0  0
  -22.4048  -11.9929   22.4857 H   0  0  0  0  0  0
  -21.1055  -13.1273   22.2539 H   0  0  0  0  0  0
  -24.6473  -15.8398   20.5185 H   0  0  0  0  0  0
  -26.2610  -15.6368   20.0705 H   0  0  0  0  0  0
  -26.7202  -32.5428   23.1067 H   0  0  0  0  0  0
  -25.0057  -33.9692   25.0390 H   0  0  0  0  0  0
  -22.7263  -31.2950   21.3906 H   0  0  0  0  0  0
  -23.3763  -35.9603   23.3302 H   0  0  0  0  0  0
  -24.3573  -36.8901   22.2051 H   0  0  0  0  0  0
  -23.7219  -37.6480   23.6655 H   0  0  0  0  0  0
  -26.1036  -31.5294   20.6003 H   0  0  0  0  0  0
  -26.8536  -30.8285   22.0004 H   0  0  0  0  0  0
  -28.1311  -28.9419   21.1926 H   0  0  0  0  0  0
  -25.9973  -25.8848   19.0297 H   0  0  0  0  0  0
  -23.9806  -27.2854   19.0175 H   0  0  0  0  0  0
  -23.7687  -30.5723   19.3986 H   0  0  0  0  0  0
  -22.7676  -29.2273   19.8601 H   0  0  0  0  0  0
  -25.1302  -36.1937   25.0822 H   0  0  0  0  0  0
  -20.9979  -28.3271   24.1407 H   0  0  0  0  0  0
  -20.5698  -26.2302   23.3610 H   0  0  0  0  0  0
  -21.6642  -26.7453   22.1194 H   0  0  0  0  0  0
  -19.6918  -25.6294   21.1258 H   0  0  0  0  0  0
  -19.6705  -27.3191   20.6750 H   0  0  0  0  0  0
  -17.4207  -26.6680   21.4019 H   0  0  0  0  0  0
  -18.0323  -26.0068   22.9019 H   0  0  0  0  0  0
  -19.7933  -30.7268   24.2272 H   0  0  0  0  0  0
  -17.5011  -31.6277   24.5148 H   0  0  0  0  0  0
  -15.5348  -30.2989   23.7654 H   0  0  0  0  0  0
  -15.8662  -28.0805   22.7105 H   0  0  0  0  0  0
  -24.5921  -30.7049   25.7696 H   0  0  0  0  0  0
  -24.8891  -32.2871   26.4806 H   0  0  0  0  0  0
  -25.8020  -30.8883   27.0187 H   0  0  0  0  0  0
  -26.2920  -29.6731   24.1215 H   0  0  0  0  0  0
  -27.4048  -29.7258   25.4687 H   0  0  0  0  0  0
  -27.8796  -30.4258   23.9396 H   0  0  0  0  0  0
  -27.2721  -33.3598   26.2062 H   0  0  0  0  0  0
  -28.3911  -32.6820   25.0319 H   0  0  0  0  0  0
  -28.0730  -31.8394   26.5396 H   0  0  0  0  0  0
  -28.2610  -38.0090   24.7525 H   0  0  0  0  0  0
  -28.1076  -36.2626   24.6293 H   0  0  0  0  0  0
  -27.2295  -37.1439   25.8869 H   0  0  0  0  0  0
  -20.9392  -29.8729   21.6841 H   0  0  0  0  0  0
  -26.0187  -38.2857   24.1408 H   0  0  0  0  0  0
  -31.9444  -16.7679   22.0000 H   0  0  0  0  0  0
  -31.3050  -21.0102   21.7587 H   0  0  0  0  0  0
  -28.5505  -18.3173   19.8127 H   0  0  0  0  0  0
  -28.2320  -23.3940   19.1208 H   0  0  0  0  0  0
  -29.7914  -23.9153   19.6829 H   0  0  0  0  0  0
  -28.5325  -25.0458   21.7143 H   0  0  0  0  0  0
  -27.0811  -24.7872   20.8348 H   0  0  0  0  0  0
  -33.2495  -18.3316   23.2549 H   0  0  0  0  0  0
  -32.9934  -20.0032   23.2050 H   0  0  0  0  0  0
  -28.8379  -15.7015   20.5606 H   0  0  0  0  0  0
  1 25  1  0  0  0
  1 30  2  0  0  0
  1 81  1  0  0  0
  2  3  1  0  0  0
  2 25  1  0  0  0
  2 84  1  0  0  0
  2 85  1  0  0  0
  3  4  1  0  0  0
  3 86  1  0  0  0
  3 87  1  0  0  0
  4  5  1  0  0  0
  4 88  1  0  0  0
  4 89  1  0  0  0
  5  6  1  0  0  0
  5 26  1  0  0  0
  5 90  1  0  0  0
  6 25  1  0  0  0
  6 91  1  0  0  0
  6 92  1  0  0  0
  7  8  2  0  0  0
  7 26  1  0  0  0
  7 29  1  0  0  0
  8  9  1  0  0  0
  8 22  1  0  0  0
  9 10  1  0  0  0
  9 27  2  0  0  0
 10 11  2  0  0  0
 10 15  1  0  0  0
 11 12  1  0  0  0
 11 93  1  0  0  0
 12 13  2  0  0  0
 12 94  1  0  0  0
 13 14  1  0  0  0
 13 31  1  0  0  0
 14 15  2  0  0  0
 14 95  1  0  0  0
 15 96  1  0  0  0
 16 17  2  0  0  0
 16 21  1  0  0  0
 16 31  1  0  0  0
 17 18  1  0  0  0
 17 97  1  0  0  0
 18 19  2  0  0  0
 18 98  1  0  0  0
 19 20  1  0  0  0
 19 24  1  0  0  0
 20 21  2  0  0  0
 20 99  1  0  0  0
 21 23  1  0  0  0
 22 28  1  0  0  0
 22 32  2  0  0  0
 26 27  1  0  0  0
 28100  1  0  0  0
 28101  1  0  0  0
 29102  1  0  0  0
 29103  1  0  0  0
 33 34  1  0  0  0
 33 66  1  0  0  0
 33 70  2  0  0  0
 34 36  1  0  0  0
 34 59  1  0  0  0
 34104  1  0  0  0
 35 44  2  0  0  0
 35 45  1  0  0  0
 35 68  1  0  0  0
 36 56  1  0  0  0
 36105  1  0  0  0
 37 39  1  0  0  0
 37 47  1  0  0  0
 37 66  1  0  0  0
 37106  1  0  0  0
 38 43  2  0  0  0
 38 46  1  0  0  0
 38 47  1  0  0  0
 39 64  1  0  0  0
 39 67  2  0  0  0
 40 52  1  0  0  0
 40 53  2  0  0  0
 40 58  1  0  0  0
 41107  1  0  0  0
 41108  1  0  0  0
 41109  1  0  0  0
 41 48  1  0  0  0
 42 43  1  0  0  0
 42 66  1  0  0  0
 42110  1  0  0  0
 42111  1  0  0  0
 43 44  1  0  0  0
 44112  1  0  0  0
 45 46  2  0  0  0
 45113  1  0  0  0
 46114  1  0  0  0
 47115  1  0  0  0
 47116  1  0  0  0
 48 56  1  0  0  0
 48 65  1  0  0  0
 48117  1  0  0  0
 49 50  1  0  0  0
 49 53  1  0  0  0
 49 64  1  0  0  0
 49118  1  0  0  0
 50 51  1  0  0  0
 50119  1  0  0  0
 50120  1  0  0  0
 51 52  1  0  0  0
 51121  1  0  0  0
 51122  1  0  0  0
 52123  1  0  0  0
 52124  1  0  0  0
 53 54  1  0  0  0
 54 55  2  0  0  0
 54125  1  0  0  0
 55 57  1  0  0  0
 55126  1  0  0  0
 56 69  2  0  0  0
 57 58  2  0  0  0
 57127  1  0  0  0
 58128  1  0  0  0
 59 60  1  0  0  0
 59 61  1  0  0  0
 59 62  1  0  0  0
 60129  1  0  0  0
 60130  1  0  0  0
 60131  1  0  0  0
 61132  1  0  0  0
 61133  1  0  0  0
 61134  1  0  0  0
 62135  1  0  0  0
 62136  1  0  0  0
 62137  1  0  0  0
 63 65  1  0  0  0
 63138  1  0  0  0
 63139  1  0  0  0
 63140  1  0  0  0
 64141  1  0  0  0
 65142  1  0  0  0
 68 79  1  0  0  0
 71 74  2  0  0  0
 71 75  1  0  0  0
 71143  1  0  0  0
 72 74  1  0  0  0
 72 76  2  0  0  0
 72144  1  0  0  0
 73 75  2  0  0  0
 73 76  1  0  0  0
 73145  1  0  0  0
 74 80  1  0  0  0
 75 81  1  0  0  0
 76 83  1  0  0  0
 77 78  1  0  0  0
 77 82  2  0  0  0
 77 83  1  0  0  0
 78 79  1  0  0  0
 78146  1  0  0  0
 78147  1  0  0  0
 79148  1  0  0  0
 79149  1  0  0  0
 80150  1  0  0  0
 80151  1  0  0  0
 81152  1  0  0  0
M  ISO  4   1 100  68 101  79 101  81 100
M  END
> <chiral flag>
0

> <version>
0

> <s_m_source_file>
/data/baiqing/PycharmProjects/Reinvent-master-3.2/result/LINK_invent/BTK/process_docking_weight1_custom_product_contain_oxygen_bond_distance_aromatic_linkinvent_7_9_3/rearranged_h_0100.sdf

> <i_m_source_file_index>
59

> <r_mmod_Potential_Energy-OPLS-2005>
218.509613037109

> <r_mmod_Stretch_Energy-OPLS-2005>
137.474563598633

> <r_mmod_Bend_Energy-OPLS-2005>
163.713485717773

> <r_mmod_Torsional_Energy-OPLS-2005>
247.810272216797

> <r_mmod_Improper_Torsional_Energy-OPLS-2005>
9.29837989807129

> <r_mmod_Van_der_Waal_Energy-OPLS-2005>
137.410659790039

> <r_mmod_Electrostatic_Energy-OPLS-2005>
-325.576507568359

> <r_mmod_Solvation_Energy-OPLS-2005>
-235.450988769531

> <b_mmod_Minimization_Converged-OPLS-2005>
0

> <r_mmod_RMS_Derivative-OPLS-2005>
1.87482762336731

$$$$
60
                    3D
 Structure written by MMmdl.
161170  0  0  1  0            999 V2000
  -30.4756  -15.1159   20.3810 C   0  0  0  0  0  0
  -30.4433  -12.7007   19.5038 C   0  0  0  0  0  0
  -29.5203  -12.5662   18.2700 C   0  0  0  0  0  0
  -28.0614  -12.3239   18.6987 C   0  0  0  0  0  0
  -27.6182  -13.2693   19.8429 C   0  0  2  0  0  0
  -28.6669  -13.3529   20.9733 C   0  0  0  0  0  0
  -25.2295  -13.8137   20.5802 C   0  0  0  0  0  0
  -24.1676  -13.0319   20.9256 C   0  0  0  0  0  0
  -24.6399  -11.6871   20.8790 C   0  0  0  0  0  0
  -23.9111  -10.4255   21.0433 C   0  0  0  0  0  0
  -24.3662   -9.4171   21.9210 C   0  0  0  0  0  0
  -23.6322   -8.2223   22.0761 C   0  0  0  0  0  0
  -22.4283   -8.0306   21.3555 C   0  0  0  0  0  0
  -21.9960   -9.0271   20.4651 C   0  0  0  0  0  0
  -22.7309  -10.2137   20.3055 C   0  0  0  0  0  0
  -21.6840   -6.0786   22.5298 C   0  0  0  0  0  0
  -21.4006   -6.5667   23.8233 C   0  0  0  0  0  0
  -21.3638   -5.6809   24.9185 C   0  0  0  0  0  0
  -21.6027   -4.3069   24.7223 C   0  0  0  0  0  0
  -21.8819   -3.8177   23.4328 C   0  0  0  0  0  0
  -21.9183   -4.7012   22.3399 C   0  0  0  0  0  0
  -22.7698  -13.5076   21.1902 C   0  0  0  0  0  0
  -22.1652   -4.2194   21.0973 F   0  0  0  0  0  0
  -21.5636   -3.4531   25.7722 F   0  0  0  0  0  0
  -29.9154  -13.8223   20.3499 N   0  0  0  0  0  0
  -26.2820  -12.9496   20.3327 N   0  0  0  0  0  0
  -25.9358  -11.6577   20.5803 N   0  0  0  0  0  0
  -22.0363  -12.8096   22.0459 N   0  0  0  0  0  0
  -25.3619  -15.1847   20.4388 N   0  0  0  0  0  0
  -31.6959  -15.1468   20.1693 O   0  0  0  0  0  0
  -21.6612   -6.8922   21.4266 O   0  0  0  0  0  0
  -22.3384  -14.5396   20.6742 O   0  0  0  0  0  0
  -24.6518  -31.8362   23.1805 C   0  0  0  0  0  0
  -25.9263  -32.4632   23.8221 C   0  0  1  0  0  0
  -27.2131  -27.0602   20.1575 C   0  0  0  0  0  0
  -25.5984  -33.8445   24.2144 N   0  0  0  0  0  0
  -23.4548  -30.4539   21.5287 C   0  0  2  0  0  0
  -24.9033  -28.8624   20.1083 C   0  0  0  0  0  0
  -22.7582  -29.4510   22.4830 C   0  0  0  0  0  0
  -18.0313  -28.1402   22.8451 C   0  0  0  0  0  0
  -24.1502  -36.7235   23.2640 C   0  0  0  0  0  0
  -26.0148  -30.6809   21.3884 C   0  0  0  0  0  0
  -26.0826  -29.2854   20.7324 C   0  0  0  0  0  0
  -27.2328  -28.4012   20.7430 C   0  0  0  0  0  0
  -26.0102  -26.7593   19.4782 C   0  0  0  0  0  0
  -24.8845  -27.6154   19.4630 C   0  0  0  0  0  0
  -23.6850  -29.7778   20.1487 C   0  0  0  0  0  0
  -25.4137  -36.2991   24.0300 C   0  0  1  0  0  0
  -20.5935  -28.3735   23.1192 C   0  0  2  0  0  0
  -20.6806  -26.9429   22.5397 C   0  0  0  0  0  0
  -19.5796  -26.6375   21.5203 C   0  0  0  0  0  0
  -18.1968  -26.7936   22.1600 C   0  0  0  0  0  0
  -19.1567  -28.8888   23.2815 C   0  0  0  0  0  0
  -18.9491  -30.1490   23.8844 C   0  0  0  0  0  0
  -17.6478  -30.6585   24.0563 C   0  0  0  0  0  0
  -25.9099  -34.9368   23.5032 C   0  0  0  0  0  0
  -16.5377  -29.9088   23.6340 C   0  0  0  0  0  0
  -16.7297  -28.6509   23.0337 C   0  0  0  0  0  0
  -26.4575  -31.6522   25.0689 C   0  0  0  0  0  0
  -25.3756  -31.3719   26.1389 C   0  0  0  0  0  0
  -27.0438  -30.2898   24.6308 C   0  0  0  0  0  0
  -27.6084  -32.4305   25.7487 C   0  0  0  0  0  0
  -27.5583  -37.1780   24.8466 C   0  0  0  0  0  0
  -21.4271  -29.3048   22.3571 N   0  0  0  0  0  0
  -26.4290  -37.3721   23.9405 N   0  0  0  0  0  0
  -24.7284  -31.0138   22.0884 N   0  0  0  0  0  0
  -23.4197  -28.8076   23.3011 O   0  0  0  0  0  0
  -28.2501  -26.0370   20.2598 O   0  0  0  0  0  0
  -26.5677  -34.8883   22.4607 O   0  0  0  0  0  0
  -23.5627  -32.1286   23.6998 O   0  0  0  0  0  0
  -26.9803  -20.8492   20.4460 C   0  0  0  0  0  0
  -26.0292  -18.6836   20.1141 C   0  0  0  0  0  0
  -28.5332  -18.8292   20.2927 C   0  0  0  0  0  0
  -25.8368  -20.0459   20.3192 C   0  0  0  0  0  0
  -28.3285  -20.3811   20.3673 C   0  0  0  0  0  0
  -27.3065  -18.1158   20.1048 C   0  0  0  0  0  0
  -23.9674  -21.4377   21.1845 C   0  0  0  0  0  0
  -29.7980  -17.7729   20.3453 C   0  0  0  0  0  0
  -22.5150  -21.7417   20.8465 C   0  0  0  0  0  0
  -22.1851  -20.7306   19.7488 C   0  0  0  0  0  0
  -23.5456  -20.2235   19.2552 C   0  0  0  0  0  0
  -28.0832  -24.4796   19.9508 C   0  0  0  0  0  0
  -28.8292  -23.1066   20.6950 C   0  0  0  0  0  0
  -24.5138  -20.5951   20.2872 N   0  0  0  0  0  0
  -29.6548  -16.3169   20.4403 N   0  0  0  0  0  0
  -24.5233  -21.9217   22.1743 O   0  0  0  0  0  0
  -30.9279  -18.2705   20.3075 O   0  0  0  0  0  0
  -29.1646  -21.5923   20.2758 O   0  0  0  0  0  0
  -27.3004  -16.7865   19.8576 F   0  0  0  0  0  0
  -31.4695  -12.8816   19.1778 H   0  0  0  0  0  0
  -30.4768  -11.7659   20.0626 H   0  0  0  0  0  0
  -29.8607  -11.7595   17.6207 H   0  0  0  0  0  0
  -29.5756  -13.4808   17.6788 H   0  0  0  0  0  0
  -27.9801  -11.2887   19.0322 H   0  0  0  0  0  0
  -27.3898  -12.4272   17.8442 H   0  0  0  0  0  0
  -27.5568  -14.2617   19.3960 H   0  0  0  0  0  0
  -28.8004  -12.3858   21.4598 H   0  0  0  0  0  0
  -28.3494  -14.0506   21.7495 H   0  0  0  0  0  0
  -25.2813   -9.5634   22.4793 H   0  0  0  0  0  0
  -24.0011   -7.4597   22.7473 H   0  0  0  0  0  0
  -21.0908   -8.8842   19.8929 H   0  0  0  0  0  0
  -22.3828  -10.9699   19.6159 H   0  0  0  0  0  0
  -21.2004   -7.6162   23.9745 H   0  0  0  0  0  0
  -21.1447   -6.0528   25.9082 H   0  0  0  0  0  0
  -22.0608   -2.7636   23.2818 H   0  0  0  0  0  0
  -22.4010  -11.9722   22.4753 H   0  0  0  0  0  0
  -21.0947  -13.1080   22.2613 H   0  0  0  0  0  0
  -24.5778  -15.8065   20.5889 H   0  0  0  0  0  0
  -26.2067  -15.6751   20.1568 H   0  0  0  0  0  0
  -26.7320  -32.5215   23.0938 H   0  0  0  0  0  0
  -25.0157  -33.9549   25.0310 H   0  0  0  0  0  0
  -22.7618  -31.2831   21.3686 H   0  0  0  0  0  0
  -23.3754  -35.9578   23.3274 H   0  0  0  0  0  0
  -24.3589  -36.8903   22.2064 H   0  0  0  0  0  0
  -23.7274  -37.6423   23.6703 H   0  0  0  0  0  0
  -26.1770  -31.4232   20.6070 H   0  0  0  0  0  0
  -26.8855  -30.7350   22.0298 H   0  0  0  0  0  0
  -28.1242  -28.7186   21.2664 H   0  0  0  0  0  0
  -25.9060  -25.8114   18.9697 H   0  0  0  0  0  0
  -23.9895  -27.2863   18.9554 H   0  0  0  0  0  0
  -23.8294  -30.5529   19.3949 H   0  0  0  0  0  0
  -22.7959  -29.2281   19.8332 H   0  0  0  0  0  0
  -25.1331  -36.1802   25.0789 H   0  0  0  0  0  0
  -21.0014  -28.3350   24.1322 H   0  0  0  0  0  0
  -20.5691  -26.2357   23.3637 H   0  0  0  0  0  0
  -21.6675  -26.7437   22.1221 H   0  0  0  0  0  0
  -19.6960  -25.6278   21.1270 H   0  0  0  0  0  0
  -19.6743  -27.3150   20.6715 H   0  0  0  0  0  0
  -17.4253  -26.6662   21.3999 H   0  0  0  0  0  0
  -18.0365  -26.0093   22.9012 H   0  0  0  0  0  0
  -19.7972  -30.7321   24.2161 H   0  0  0  0  0  0
  -17.5049  -31.6254   24.5193 H   0  0  0  0  0  0
  -15.5383  -30.2978   23.7697 H   0  0  0  0  0  0
  -15.8697  -28.0840   22.7048 H   0  0  0  0  0  0
  -24.5968  -30.7014   25.7748 H   0  0  0  0  0  0
  -24.8930  -32.2906   26.4731 H   0  0  0  0  0  0
  -25.8084  -30.8989   27.0220 H   0  0  0  0  0  0
  -26.3068  -29.6597   24.1324 H   0  0  0  0  0  0
  -27.4031  -29.7210   25.4898 H   0  0  0  0  0  0
  -27.8988  -30.4089   23.9647 H   0  0  0  0  0  0
  -27.2642  -33.3635   26.1964 H   0  0  0  0  0  0
  -28.3958  -32.6816   25.0362 H   0  0  0  0  0  0
  -28.0673  -31.8492   26.5499 H   0  0  0  0  0  0
  -28.2579  -38.0095   24.7506 H   0  0  0  0  0  0
  -28.1090  -36.2619   24.6291 H   0  0  0  0  0  0
  -27.2293  -37.1433   25.8866 H   0  0  0  0  0  0
  -20.9491  -29.8752   21.6740 H   0  0  0  0  0  0
  -26.0130  -38.2776   24.1407 H   0  0  0  0  0  0
  -26.7697  -21.9031   20.5248 H   0  0  0  0  0  0
  -25.1836  -18.0274   19.9783 H   0  0  0  0  0  0
  -22.4362  -22.7629   20.4797 H   0  0  0  0  0  0
  -21.8603  -21.6364   21.7111 H   0  0  0  0  0  0
  -21.5990  -21.1614   18.9366 H   0  0  0  0  0  0
  -21.5996  -19.9088   20.1660 H   0  0  0  0  0  0
  -23.8257  -20.7231   18.3272 H   0  0  0  0  0  0
  -23.5090  -19.1551   19.0501 H   0  0  0  0  0  0
  -27.0173  -24.2648   19.9991 H   0  0  0  0  0  0
  -28.3279  -24.4032   18.8898 H   0  0  0  0  0  0
  -28.3981  -23.0451   21.6957 H   0  0  0  0  0  0
  -29.8345  -23.4742   20.8969 H   0  0  0  0  0  0
  -28.6716  -16.0914   20.4805 H   0  0  0  0  0  0
  1 25  1  0  0  0
  1 30  2  0  0  0
  1 85  1  0  0  0
  2  3  1  0  0  0
  2 25  1  0  0  0
  2 90  1  0  0  0
  2 91  1  0  0  0
  3  4  1  0  0  0
  3 92  1  0  0  0
  3 93  1  0  0  0
  4  5  1  0  0  0
  4 94  1  0  0  0
  4 95  1  0  0  0
  5  6  1  0  0  0
  5 26  1  0  0  0
  5 96  1  0  0  0
  6 25  1  0  0  0
  6 97  1  0  0  0
  6 98  1  0  0  0
  7  8  2  0  0  0
  7 26  1  0  0  0
  7 29  1  0  0  0
  8  9  1  0  0  0
  8 22  1  0  0  0
  9 10  1  0  0  0
  9 27  2  0  0  0
 10 11  2  0  0  0
 10 15  1  0  0  0
 11 12  1  0  0  0
 11 99  1  0  0  0
 12 13  2  0  0  0
 12100  1  0  0  0
 13 14  1  0  0  0
 13 31  1  0  0  0
 14 15  2  0  0  0
 14101  1  0  0  0
 15102  1  0  0  0
 16 17  2  0  0  0
 16 21  1  0  0  0
 16 31  1  0  0  0
 17 18  1  0  0  0
 17103  1  0  0  0
 18 19  2  0  0  0
 18104  1  0  0  0
 19 20  1  0  0  0
 19 24  1  0  0  0
 20 21  2  0  0  0
 20105  1  0  0  0
 21 23  1  0  0  0
 22 28  1  0  0  0
 22 32  2  0  0  0
 26 27  1  0  0  0
 28106  1  0  0  0
 28107  1  0  0  0
 29108  1  0  0  0
 29109  1  0  0  0
 33 34  1  0  0  0
 33 66  1  0  0  0
 33 70  2  0  0  0
 34 36  1  0  0  0
 34 59  1  0  0  0
 34110  1  0  0  0
 35 44  2  0  0  0
 35 45  1  0  0  0
 35 68  1  0  0  0
 36 56  1  0  0  0
 36111  1  0  0  0
 37 39  1  0  0  0
 37 47  1  0  0  0
 37 66  1  0  0  0
 37112  1  0  0  0
 38 43  2  0  0  0
 38 46  1  0  0  0
 38 47  1  0  0  0
 39 64  1  0  0  0
 39 67  2  0  0  0
 40 52  1  0  0  0
 40 53  2  0  0  0
 40 58  1  0  0  0
 41113  1  0  0  0
 41114  1  0  0  0
 41115  1  0  0  0
 41 48  1  0  0  0
 42 43  1  0  0  0
 42 66  1  0  0  0
 42116  1  0  0  0
 42117  1  0  0  0
 43 44  1  0  0  0
 44118  1  0  0  0
 45 46  2  0  0  0
 45119  1  0  0  0
 46120  1  0  0  0
 47121  1  0  0  0
 47122  1  0  0  0
 48 56  1  0  0  0
 48 65  1  0  0  0
 48123  1  0  0  0
 49 50  1  0  0  0
 49 53  1  0  0  0
 49 64  1  0  0  0
 49124  1  0  0  0
 50 51  1  0  0  0
 50125  1  0  0  0
 50126  1  0  0  0
 51 52  1  0  0  0
 51127  1  0  0  0
 51128  1  0  0  0
 52129  1  0  0  0
 52130  1  0  0  0
 53 54  1  0  0  0
 54 55  2  0  0  0
 54131  1  0  0  0
 55 57  1  0  0  0
 55132  1  0  0  0
 56 69  2  0  0  0
 57 58  2  0  0  0
 57133  1  0  0  0
 58134  1  0  0  0
 59 60  1  0  0  0
 59 61  1  0  0  0
 59 62  1  0  0  0
 60135  1  0  0  0
 60136  1  0  0  0
 60137  1  0  0  0
 61138  1  0  0  0
 61139  1  0  0  0
 61140  1  0  0  0
 62141  1  0  0  0
 62142  1  0  0  0
 62143  1  0  0  0
 63 65  1  0  0  0
 63144  1  0  0  0
 63145  1  0  0  0
 63146  1  0  0  0
 64147  1  0  0  0
 65148  1  0  0  0
 68 82  1  0  0  0
 71 74  2  0  0  0
 71 75  1  0  0  0
 71149  1  0  0  0
 72 74  1  0  0  0
 72 76  2  0  0  0
 72150  1  0  0  0
 73 75  2  0  0  0
 73 76  1  0  0  0
 73 78  1  0  0  0
 74 84  1  0  0  0
 75 88  1  0  0  0
 76 89  1  0  0  0
 77 79  1  0  0  0
 77 84  1  0  0  0
 77 86  2  0  0  0
 78 85  1  0  0  0
 78 87  2  0  0  0
 79 80  1  0  0  0
 79151  1  0  0  0
 79152  1  0  0  0
 80 81  1  0  0  0
 80153  1  0  0  0
 80154  1  0  0  0
 81 84  1  0  0  0
 81155  1  0  0  0
 81156  1  0  0  0
 82 83  1  0  0  0
 82157  1  0  0  0
 82158  1  0  0  0
 83 88  1  0  0  0
 83159  1  0  0  0
 83160  1  0  0  0
 85161  1  0  0  0
M  ISO  4   1 100  68 101  82 101  85 100
M  END
> <chiral flag>
0

> <version>
0

> <s_m_source_file>
/data/baiqing/PycharmProjects/Reinvent-master-3.2/result/LINK_invent/BTK/process_docking_weight1_custom_product_contain_oxygen_bond_distance_aromatic_linkinvent_7_9_3/rearranged_h_0100.sdf

> <i_m_source_file_index>
60

> <r_mmod_Potential_Energy-OPLS-2005>
992.793090820312

> <r_mmod_Stretch_Energy-OPLS-2005>
413.439392089844

> <r_mmod_Bend_Energy-OPLS-2005>
447.387939453125

> <r_mmod_Torsional_Energy-OPLS-2005>
289.531829833984

> <r_mmod_Improper_Torsional_Energy-OPLS-2005>
5.05268287658691

> <r_mmod_Van_der_Waal_Energy-OPLS-2005>
151.436935424805

> <r_mmod_Electrostatic_Energy-OPLS-2005>
-367.334167480469

> <r_mmod_Solvation_Energy-OPLS-2005>
-246.699447631836

> <b_mmod_Minimization_Converged-OPLS-2005>
0

> <r_mmod_RMS_Derivative-OPLS-2005>
5.02247619628906

$$$$
61
                    3D
 Structure written by MMmdl.
157166  0  0  1  0            999 V2000
  -30.5730  -14.7042   20.5339 C   0  0  0  0  0  0
  -30.4617  -12.4431   19.4520 C   0  0  0  0  0  0
  -29.5189  -12.5264   18.2268 C   0  0  0  0  0  0
  -28.0424  -12.3456   18.6378 C   0  0  0  0  0  0
  -27.6569  -13.2118   19.8647 C   0  0  2  0  0  0
  -28.7042  -13.0567   20.9934 C   0  0  0  0  0  0
  -25.2580  -13.8140   20.5679 C   0  0  0  0  0  0
  -24.1851  -13.0417   20.9213 C   0  0  0  0  0  0
  -24.6408  -11.6888   20.8740 C   0  0  0  0  0  0
  -23.9071  -10.4280   21.0405 C   0  0  0  0  0  0
  -24.3618   -9.4196   21.9182 C   0  0  0  0  0  0
  -23.6291   -8.2233   22.0751 C   0  0  0  0  0  0
  -22.4271   -8.0277   21.3544 C   0  0  0  0  0  0
  -21.9912   -9.0251   20.4644 C   0  0  0  0  0  0
  -22.7243  -10.2127   20.3054 C   0  0  0  0  0  0
  -21.6850   -6.0739   22.5284 C   0  0  0  0  0  0
  -21.4013   -6.5641   23.8218 C   0  0  0  0  0  0
  -21.3656   -5.6791   24.9179 C   0  0  0  0  0  0
  -21.6044   -4.3055   24.7229 C   0  0  0  0  0  0
  -21.8819   -3.8150   23.4349 C   0  0  0  0  0  0
  -21.9191   -4.6968   22.3405 C   0  0  0  0  0  0
  -22.7871  -13.5220   21.1862 C   0  0  0  0  0  0
  -22.1659   -4.2155   21.0982 F   0  0  0  0  0  0
  -21.5630   -3.4538   25.7741 F   0  0  0  0  0  0
  -30.0171  -13.4453   20.4456 N   0  0  0  0  0  0
  -26.3003  -12.9313   20.3293 N   0  0  0  0  0  0
  -25.9335  -11.6478   20.5737 N   0  0  0  0  0  0
  -22.0493  -12.8218   22.0406 N   0  0  0  0  0  0
  -25.4277  -15.1866   20.4075 N   0  0  0  0  0  0
  -31.6928  -14.9584   20.0672 O   0  0  0  0  0  0
  -21.6632   -6.8877   21.4243 O   0  0  0  0  0  0
  -22.3569  -14.5529   20.6704 O   0  0  0  0  0  0
  -24.6310  -31.8573   23.2000 C   0  0  0  0  0  0
  -25.9139  -32.4768   23.8343 C   0  0  1  0  0  0
  -27.2271  -27.2762   20.1168 C   0  0  0  0  0  0
  -25.5939  -33.8570   24.2265 N   0  0  0  0  0  0
  -23.4274  -30.4814   21.5436 C   0  0  2  0  0  0
  -24.8758  -28.9350   20.1099 C   0  0  0  0  0  0
  -22.7501  -29.4615   22.4914 C   0  0  0  0  0  0
  -18.0292  -28.1390   22.8479 C   0  0  0  0  0  0
  -24.1490  -36.7284   23.2636 C   0  0  0  0  0  0
  -25.9742  -30.7735   21.3805 C   0  0  0  0  0  0
  -26.0483  -29.3986   20.7197 C   0  0  0  0  0  0
  -27.2255  -28.5820   20.7140 C   0  0  0  0  0  0
  -26.0270  -26.8873   19.4720 C   0  0  0  0  0  0
  -24.8700  -27.6860   19.4763 C   0  0  0  0  0  0
  -23.6454  -29.8188   20.1592 C   0  0  0  0  0  0
  -25.4118  -36.3075   24.0323 C   0  0  1  0  0  0
  -20.5895  -28.3701   23.1263 C   0  0  2  0  0  0
  -20.6782  -26.9419   22.5405 C   0  0  0  0  0  0
  -19.5758  -26.6382   21.5207 C   0  0  0  0  0  0
  -18.1936  -26.7931   22.1616 C   0  0  0  0  0  0
  -19.1545  -28.8861   23.2867 C   0  0  0  0  0  0
  -18.9466  -30.1459   23.8892 C   0  0  0  0  0  0
  -17.6467  -30.6589   24.0562 C   0  0  0  0  0  0
  -25.9058  -34.9447   23.5095 C   0  0  0  0  0  0
  -16.5358  -29.9087   23.6332 C   0  0  0  0  0  0
  -16.7278  -28.6505   23.0353 C   0  0  0  0  0  0
  -26.4503  -31.6590   25.0731 C   0  0  0  0  0  0
  -25.3718  -31.3741   26.1440 C   0  0  0  0  0  0
  -27.0351  -30.3006   24.6222 C   0  0  0  0  0  0
  -27.6054  -32.4329   25.7510 C   0  0  0  0  0  0
  -27.5581  -37.1798   24.8460 C   0  0  0  0  0  0
  -21.4208  -29.3054   22.3656 N   0  0  0  0  0  0
  -26.4291  -37.3775   23.9407 N   0  0  0  0  0  0
  -24.6965  -31.0546   22.0977 N   0  0  0  0  0  0
  -23.4203  -28.8150   23.3007 O   0  0  0  0  0  0
  -28.3206  -26.3751   20.1800 O   0  0  0  0  0  0
  -26.5628  -34.8920   22.4662 O   0  0  0  0  0  0
  -23.5461  -32.1390   23.7299 O   0  0  0  0  0  0
  -30.2916  -23.9987   20.7713 C   0  0  0  0  0  0
  -30.8067  -21.6372   20.9492 C   0  0  0  0  0  0
  -29.0502  -23.7602   20.3000 C   0  0  0  0  0  0
  -31.2055  -22.9163   21.1028 C   0  0  0  0  0  0
  -28.6397  -22.3127   20.1173 C   0  0  0  0  0  0
  -29.5450  -17.1427   21.0674 C   0  0  0  0  0  0
  -28.4321  -19.2816   21.6729 C   0  0  1  0  0  0
  -29.1478  -19.8015   20.4008 C   0  0  1  0  0  0
  -26.9535  -19.6886   21.7860 C   0  0  0  0  0  0
  -28.0322  -24.9211   19.9367 C   0  0  0  0  0  0
  -29.5331  -21.2897   20.4626 N   0  0  0  0  0  0
  -28.5934  -17.8030   21.7712 N   0  3  0  0  0  0
  -29.6860  -15.7516   21.0950 N   0  0  0  0  0  0
  -27.5231  -22.0293   19.6742 O   0  0  0  0  0  0
  -32.4324  -23.1790   21.5645 O   0  0  0  0  0  0
  -30.4227  -18.4446   20.0900 S   0  0  0  0  0  0
  -31.4960  -12.6095   19.1440 H   0  0  0  0  0  0
  -30.4385  -11.4427   19.8870 H   0  0  0  0  0  0
  -29.7953  -11.7733   17.4874 H   0  0  0  0  0  0
  -29.6446  -13.4924   17.7352 H   0  0  0  0  0  0
  -27.8904  -11.2909   18.8704 H   0  0  0  0  0  0
  -27.3858  -12.5678   17.7954 H   0  0  0  0  0  0
  -27.6735  -14.2477   19.5258 H   0  0  0  0  0  0
  -28.7346  -12.0214   21.3378 H   0  0  0  0  0  0
  -28.4270  -13.6414   21.8715 H   0  0  0  0  0  0
  -25.2761   -9.5668   22.4760 H   0  0  0  0  0  0
  -24.0002   -7.4620   22.7464 H   0  0  0  0  0  0
  -21.0847   -8.8767   19.8945 H   0  0  0  0  0  0
  -22.3701  -10.9667   19.6166 H   0  0  0  0  0  0
  -21.2003   -7.6148   23.9727 H   0  0  0  0  0  0
  -21.1478   -6.0519   25.9082 H   0  0  0  0  0  0
  -22.0600   -2.7613   23.2851 H   0  0  0  0  0  0
  -22.4091  -11.9883   22.4814 H   0  0  0  0  0  0
  -21.1099  -13.1238   22.2571 H   0  0  0  0  0  0
  -24.6321  -15.8126   20.4729 H   0  0  0  0  0  0
  -26.2160  -15.6062   19.9330 H   0  0  0  0  0  0
  -26.7208  -32.5424   23.1089 H   0  0  0  0  0  0
  -25.0093  -33.9716   25.0414 H   0  0  0  0  0  0
  -22.7234  -31.3034   21.3985 H   0  0  0  0  0  0
  -23.3759  -35.9608   23.3288 H   0  0  0  0  0  0
  -24.3577  -36.8922   22.2052 H   0  0  0  0  0  0
  -23.7237  -37.6478   23.6671 H   0  0  0  0  0  0
  -26.1135  -31.5365   20.6133 H   0  0  0  0  0  0
  -26.8514  -30.8203   22.0141 H   0  0  0  0  0  0
  -28.1207  -28.9321   21.2084 H   0  0  0  0  0  0
  -25.9395  -25.9398   18.9634 H   0  0  0  0  0  0
  -23.9744  -27.3261   18.9889 H   0  0  0  0  0  0
  -23.7677  -30.5959   19.4038 H   0  0  0  0  0  0
  -22.7647  -29.2507   19.8544 H   0  0  0  0  0  0
  -25.1302  -36.1922   25.0815 H   0  0  0  0  0  0
  -20.9987  -28.3282   24.1383 H   0  0  0  0  0  0
  -20.5675  -26.2316   23.3611 H   0  0  0  0  0  0
  -21.6652  -26.7440   22.1204 H   0  0  0  0  0  0
  -19.6923  -25.6289   21.1247 H   0  0  0  0  0  0
  -19.6700  -27.3185   20.6733 H   0  0  0  0  0  0
  -17.4206  -26.6674   21.4018 H   0  0  0  0  0  0
  -18.0338  -26.0075   22.9014 H   0  0  0  0  0  0
  -19.7943  -30.7275   24.2262 H   0  0  0  0  0  0
  -17.5022  -31.6270   24.5163 H   0  0  0  0  0  0
  -15.5359  -30.2990   23.7663 H   0  0  0  0  0  0
  -15.8674  -28.0825   22.7075 H   0  0  0  0  0  0
  -24.5906  -30.7078   25.7762 H   0  0  0  0  0  0
  -24.8891  -32.2909   26.4833 H   0  0  0  0  0  0
  -25.8025  -30.8939   27.0235 H   0  0  0  0  0  0
  -26.2941  -29.6753   24.1226 H   0  0  0  0  0  0
  -27.4005  -29.7272   25.4752 H   0  0  0  0  0  0
  -27.8830  -30.4275   23.9488 H   0  0  0  0  0  0
  -27.2662  -33.3635   26.2072 H   0  0  0  0  0  0
  -28.3876  -32.6880   25.0348 H   0  0  0  0  0  0
  -28.0705  -31.8461   26.5440 H   0  0  0  0  0  0
  -28.2585  -38.0108   24.7525 H   0  0  0  0  0  0
  -28.1093  -36.2639   24.6267 H   0  0  0  0  0  0
  -27.2297  -37.1423   25.8861 H   0  0  0  0  0  0
  -20.9391  -29.8786   21.6870 H   0  0  0  0  0  0
  -26.0168  -38.2845   24.1424 H   0  0  0  0  0  0
  -30.6021  -25.0260   20.9062 H   0  0  0  0  0  0
  -31.4387  -20.7958   21.1931 H   0  0  0  0  0  0
  -28.9594  -19.6822   22.5399 H   0  0  0  0  0  0
  -28.4560  -19.6908   19.5649 H   0  0  0  0  0  0
  -26.4244  -19.5479   20.8430 H   0  0  0  0  0  0
  -26.8587  -20.7373   22.0671 H   0  0  0  0  0  0
  -26.4334  -19.1063   22.5463 H   0  0  0  0  0  0
  -27.1167  -24.6683   20.4743 H   0  0  0  0  0  0
  -27.8175  -24.8004   18.8739 H   0  0  0  0  0  0
  -28.0379  -17.3320   22.4722 H   0  0  0  0  0  0
  -28.8936  -15.3769   21.5826 H   0  0  0  0  0  0
  -32.5393  -24.1227   21.5948 H   0  0  0  0  0  0
  1 25  1  0  0  0
  1 30  2  0  0  0
  1 83  1  0  0  0
  2  3  1  0  0  0
  2 25  1  0  0  0
  2 87  1  0  0  0
  2 88  1  0  0  0
  3  4  1  0  0  0
  3 89  1  0  0  0
  3 90  1  0  0  0
  4  5  1  0  0  0
  4 91  1  0  0  0
  4 92  1  0  0  0
  5  6  1  0  0  0
  5 26  1  0  0  0
  5 93  1  0  0  0
  6 25  1  0  0  0
  6 94  1  0  0  0
  6 95  1  0  0  0
  7  8  2  0  0  0
  7 26  1  0  0  0
  7 29  1  0  0  0
  8  9  1  0  0  0
  8 22  1  0  0  0
  9 10  1  0  0  0
  9 27  2  0  0  0
 10 11  2  0  0  0
 10 15  1  0  0  0
 11 12  1  0  0  0
 11 96  1  0  0  0
 12 13  2  0  0  0
 12 97  1  0  0  0
 13 14  1  0  0  0
 13 31  1  0  0  0
 14 15  2  0  0  0
 14 98  1  0  0  0
 15 99  1  0  0  0
 16 17  2  0  0  0
 16 21  1  0  0  0
 16 31  1  0  0  0
 17 18  1  0  0  0
 17100  1  0  0  0
 18 19  2  0  0  0
 18101  1  0  0  0
 19 20  1  0  0  0
 19 24  1  0  0  0
 20 21  2  0  0  0
 20102  1  0  0  0
 21 23  1  0  0  0
 22 28  1  0  0  0
 22 32  2  0  0  0
 26 27  1  0  0  0
 28103  1  0  0  0
 28104  1  0  0  0
 29105  1  0  0  0
 29106  1  0  0  0
 33 34  1  0  0  0
 33 66  1  0  0  0
 33 70  2  0  0  0
 34 36  1  0  0  0
 34 59  1  0  0  0
 34107  1  0  0  0
 35 44  2  0  0  0
 35 45  1  0  0  0
 35 68  1  0  0  0
 36 56  1  0  0  0
 36108  1  0  0  0
 37 39  1  0  0  0
 37 47  1  0  0  0
 37 66  1  0  0  0
 37109  1  0  0  0
 38 43  2  0  0  0
 38 46  1  0  0  0
 38 47  1  0  0  0
 39 64  1  0  0  0
 39 67  2  0  0  0
 40 52  1  0  0  0
 40 53  2  0  0  0
 40 58  1  0  0  0
 41110  1  0  0  0
 41111  1  0  0  0
 41112  1  0  0  0
 41 48  1  0  0  0
 42 43  1  0  0  0
 42 66  1  0  0  0
 42113  1  0  0  0
 42114  1  0  0  0
 43 44  1  0  0  0
 44115  1  0  0  0
 45 46  2  0  0  0
 45116  1  0  0  0
 46117  1  0  0  0
 47118  1  0  0  0
 47119  1  0  0  0
 48 56  1  0  0  0
 48 65  1  0  0  0
 48120  1  0  0  0
 49 50  1  0  0  0
 49 53  1  0  0  0
 49 64  1  0  0  0
 49121  1  0  0  0
 50 51  1  0  0  0
 50122  1  0  0  0
 50123  1  0  0  0
 51 52  1  0  0  0
 51124  1  0  0  0
 51125  1  0  0  0
 52126  1  0  0  0
 52127  1  0  0  0
 53 54  1  0  0  0
 54 55  2  0  0  0
 54128  1  0  0  0
 55 57  1  0  0  0
 55129  1  0  0  0
 56 69  2  0  0  0
 57 58  2  0  0  0
 57130  1  0  0  0
 58131  1  0  0  0
 59 60  1  0  0  0
 59 61  1  0  0  0
 59 62  1  0  0  0
 60132  1  0  0  0
 60133  1  0  0  0
 60134  1  0  0  0
 61135  1  0  0  0
 61136  1  0  0  0
 61137  1  0  0  0
 62138  1  0  0  0
 62139  1  0  0  0
 62140  1  0  0  0
 63 65  1  0  0  0
 63141  1  0  0  0
 63142  1  0  0  0
 63143  1  0  0  0
 64144  1  0  0  0
 65145  1  0  0  0
 68 80  1  0  0  0
 71 73  2  0  0  0
 71 74  1  0  0  0
 71146  1  0  0  0
 72 74  2  0  0  0
 72 81  1  0  0  0
 72147  1  0  0  0
 73 75  1  0  0  0
 73 80  1  0  0  0
 74 85  1  0  0  0
 75 81  1  0  0  0
 75 84  2  0  0  0
 76 82  2  0  0  0
 76 83  1  0  0  0
 76 86  1  0  0  0
 77 78  1  0  0  0
 77 79  1  0  0  0
 77 82  1  0  0  0
 77148  1  0  0  0
 78 81  1  0  0  0
 78 86  1  0  0  0
 78149  1  0  0  0
 79150  1  0  0  0
 79151  1  0  0  0
 79152  1  0  0  0
 80153  1  0  0  0
 80154  1  0  0  0
 82155  1  0  0  0
 83156  1  0  0  0
 85157  1  0  0  0
M  CHG  1  82   1
M  ISO  4   1 100  68 101  80 101  83 100
M  END
> <chiral flag>
0

> <version>
0

> <s_m_source_file>
/data/baiqing/PycharmProjects/Reinvent-master-3.2/result/LINK_invent/BTK/process_docking_weight1_custom_product_contain_oxygen_bond_distance_aromatic_linkinvent_7_9_3/rearranged_h_0100.sdf

> <i_m_source_file_index>
61

> <r_mmod_Potential_Energy-OPLS-2005>
21.6797904968262

> <r_mmod_Stretch_Energy-OPLS-2005>
117.02286529541

> <r_mmod_Bend_Energy-OPLS-2005>
242.6845703125

> <r_mmod_Torsional_Energy-OPLS-2005>
209.704238891602

> <r_mmod_Improper_Torsional_Energy-OPLS-2005>
4.81560850143433

> <r_mmod_Van_der_Waal_Energy-OPLS-2005>
144.239410400391

> <r_mmod_Electrostatic_Energy-OPLS-2005>
-284.710876464844

> <r_mmod_Solvation_Energy-OPLS-2005>
-486.966766357422

> <b_mmod_Minimization_Converged-OPLS-2005>
0

> <r_mmod_RMS_Derivative-OPLS-2005>
0.59059065580368

$$$$
62
                    3D
 Structure written by MMmdl.
161170  0  0  1  0            999 V2000
  -30.6120  -14.6451   20.5034 C   0  0  0  0  0  0
  -30.4437  -12.3956   19.4522 C   0  0  0  0  0  0
  -29.5106  -12.5060   18.2251 C   0  0  0  0  0  0
  -28.0332  -12.3406   18.6365 C   0  0  0  0  0  0
  -27.6545  -13.2126   19.8630 C   0  0  2  0  0  0
  -28.6991  -13.0629   20.9927 C   0  0  0  0  0  0
  -25.2565  -13.8160   20.5675 C   0  0  0  0  0  0
  -24.1830  -13.0437   20.9198 C   0  0  0  0  0  0
  -24.6388  -11.6906   20.8742 C   0  0  0  0  0  0
  -23.9056  -10.4293   21.0407 C   0  0  0  0  0  0
  -24.3607   -9.4208   21.9183 C   0  0  0  0  0  0
  -23.6284   -8.2244   22.0754 C   0  0  0  0  0  0
  -22.4265   -8.0282   21.3548 C   0  0  0  0  0  0
  -21.9900   -9.0257   20.4649 C   0  0  0  0  0  0
  -22.7229  -10.2135   20.3056 C   0  0  0  0  0  0
  -21.6854   -6.0730   22.5276 C   0  0  0  0  0  0
  -21.4015   -6.5633   23.8209 C   0  0  0  0  0  0
  -21.3660   -5.6788   24.9174 C   0  0  0  0  0  0
  -21.6042   -4.3051   24.7225 C   0  0  0  0  0  0
  -21.8819   -3.8142   23.4346 C   0  0  0  0  0  0
  -21.9193   -4.6958   22.3400 C   0  0  0  0  0  0
  -22.7851  -13.5239   21.1858 C   0  0  0  0  0  0
  -22.1660   -4.2143   21.0978 F   0  0  0  0  0  0
  -21.5630   -3.4535   25.7738 F   0  0  0  0  0  0
  -30.0157  -13.4125   20.4326 N   0  0  0  0  0  0
  -26.2989  -12.9329   20.3305 N   0  0  0  0  0  0
  -25.9314  -11.6491   20.5750 N   0  0  0  0  0  0
  -22.0486  -12.8240   22.0415 N   0  0  0  0  0  0
  -25.4280  -15.1876   20.4043 N   0  0  0  0  0  0
  -31.7733  -14.8201   20.1211 O   0  0  0  0  0  0
  -21.6638   -6.8873   21.4239 O   0  0  0  0  0  0
  -22.3542  -14.5547   20.6704 O   0  0  0  0  0  0
  -24.6262  -31.8605   23.2037 C   0  0  0  0  0  0
  -25.9112  -32.4783   23.8361 C   0  0  1  0  0  0
  -27.2217  -27.3196   20.1098 C   0  0  0  0  0  0
  -25.5924  -33.8581   24.2285 N   0  0  0  0  0  0
  -23.4195  -30.4870   21.5464 C   0  0  2  0  0  0
  -24.8649  -28.9466   20.1099 C   0  0  0  0  0  0
  -22.7474  -29.4632   22.4927 C   0  0  0  0  0  0
  -18.0286  -28.1390   22.8483 C   0  0  0  0  0  0
  -24.1489  -36.7297   23.2638 C   0  0  0  0  0  0
  -25.9624  -30.7912   21.3762 C   0  0  0  0  0  0
  -26.0354  -29.4200   20.7158 C   0  0  0  0  0  0
  -27.2161  -28.6184   20.7073 C   0  0  0  0  0  0
  -26.0252  -26.9057   19.4753 C   0  0  0  0  0  0
  -24.8617  -27.6943   19.4815 C   0  0  0  0  0  0
  -23.6342  -29.8273   20.1601 C   0  0  0  0  0  0
  -25.4113  -36.3085   24.0327 C   0  0  1  0  0  0
  -20.5887  -28.3694   23.1276 C   0  0  2  0  0  0
  -20.6777  -26.9416   22.5407 C   0  0  0  0  0  0
  -19.5755  -26.6388   21.5207 C   0  0  0  0  0  0
  -18.1934  -26.7933   22.1619 C   0  0  0  0  0  0
  -19.1539  -28.8858   23.2878 C   0  0  0  0  0  0
  -18.9463  -30.1459   23.8899 C   0  0  0  0  0  0
  -17.6463  -30.6589   24.0566 C   0  0  0  0  0  0
  -25.9050  -34.9454   23.5108 C   0  0  0  0  0  0
  -16.5354  -29.9091   23.6329 C   0  0  0  0  0  0
  -16.7272  -28.6508   23.0349 C   0  0  0  0  0  0
  -26.4496  -31.6588   25.0730 C   0  0  0  0  0  0
  -25.3730  -31.3728   26.1457 C   0  0  0  0  0  0
  -27.0339  -30.3010   24.6188 C   0  0  0  0  0  0
  -27.6061  -32.4320   25.7497 C   0  0  0  0  0  0
  -27.5579  -37.1804   24.8464 C   0  0  0  0  0  0
  -21.4188  -29.3047   22.3669 N   0  0  0  0  0  0
  -26.4292  -37.3778   23.9405 N   0  0  0  0  0  0
  -24.6883  -31.0625   22.0988 N   0  0  0  0  0  0
  -23.4200  -28.8163   23.2997 O   0  0  0  0  0  0
  -28.3352  -26.4606   20.1669 O   0  0  0  0  0  0
  -26.5621  -34.8918   22.4675 O   0  0  0  0  0  0
  -23.5426  -32.1401   23.7365 O   0  0  0  0  0  0
  -28.6423  -17.8712   20.9781 C   0  0  0  0  0  0
  -30.9750  -17.9094   20.4032 C   0  0  0  0  0  0
  -28.5712  -19.2970   20.9099 C   0  0  0  0  0  0
  -29.7188  -20.0773   20.5847 C   0  0  0  0  0  0
  -29.8325  -17.1334   20.7353 C   0  0  0  0  0  0
  -30.9159  -19.3376   20.3323 C   0  0  0  0  0  0
  -29.3651  -23.6052   21.7769 C   0  0  0  0  0  0
  -30.0178  -22.2002   21.8564 C   0  0  0  0  0  0
  -28.9269  -22.4394   19.7684 C   0  0  0  0  0  0
  -29.1880  -23.9079   20.2820 C   0  0  1  0  0  0
  -27.2386  -19.9580   21.2224 C   0  0  0  0  0  0
  -28.1041  -25.0169   19.9177 C   0  0  0  0  0  0
  -29.7540  -21.5221   20.5887 N   0  0  0  0  0  0
  -32.0706  -20.0547   20.0178 N   0  0  0  0  0  0
  -29.7794  -15.6731   20.8627 N   0  0  0  0  0  0
  -31.4842  -12.5276   19.1505 H   0  0  0  0  0  0
  -30.3857  -11.3992   19.8928 H   0  0  0  0  0  0
  -29.7767  -11.7539   17.4808 H   0  0  0  0  0  0
  -29.6501  -13.4747   17.7427 H   0  0  0  0  0  0
  -27.8730  -11.2877   18.8718 H   0  0  0  0  0  0
  -27.3785  -12.5669   17.7942 H   0  0  0  0  0  0
  -27.6738  -14.2473   19.5205 H   0  0  0  0  0  0
  -28.7120  -12.0381   21.3662 H   0  0  0  0  0  0
  -28.4412  -13.6856   21.8508 H   0  0  0  0  0  0
  -25.2751   -9.5683   22.4759 H   0  0  0  0  0  0
  -23.9995   -7.4631   22.7471 H   0  0  0  0  0  0
  -21.0831   -8.8773   19.8954 H   0  0  0  0  0  0
  -22.3686  -10.9672   19.6166 H   0  0  0  0  0  0
  -21.2008   -7.6140   23.9711 H   0  0  0  0  0  0
  -21.1481   -6.0518   25.9076 H   0  0  0  0  0  0
  -22.0598   -2.7606   23.2849 H   0  0  0  0  0  0
  -22.4087  -11.9902   22.4814 H   0  0  0  0  0  0
  -21.1106  -13.1276   22.2614 H   0  0  0  0  0  0
  -24.6535  -15.8361   20.4925 H   0  0  0  0  0  0
  -26.2565  -15.6154   20.0118 H   0  0  0  0  0  0
  -26.7179  -32.5453   23.1109 H   0  0  0  0  0  0
  -25.0067  -33.9729   25.0426 H   0  0  0  0  0  0
  -22.7132  -31.3078   21.4059 H   0  0  0  0  0  0
  -23.3747  -35.9635   23.3307 H   0  0  0  0  0  0
  -24.3582  -36.8911   22.2052 H   0  0  0  0  0  0
  -23.7253  -37.6504   23.6658 H   0  0  0  0  0  0
  -26.0969  -31.5552   20.6093 H   0  0  0  0  0  0
  -26.8420  -30.8367   22.0066 H   0  0  0  0  0  0
  -28.1131  -28.9765   21.1930 H   0  0  0  0  0  0
  -25.9496  -25.9536   18.9730 H   0  0  0  0  0  0
  -23.9657  -27.3277   18.9996 H   0  0  0  0  0  0
  -23.7555  -30.6067   19.4067 H   0  0  0  0  0  0
  -22.7532  -29.2601   19.8546 H   0  0  0  0  0  0
  -25.1293  -36.1940   25.0820 H   0  0  0  0  0  0
  -20.9982  -28.3274   24.1394 H   0  0  0  0  0  0
  -20.5676  -26.2302   23.3607 H   0  0  0  0  0  0
  -21.6648  -26.7447   22.1203 H   0  0  0  0  0  0
  -19.6917  -25.6299   21.1238 H   0  0  0  0  0  0
  -19.6694  -27.3195   20.6735 H   0  0  0  0  0  0
  -17.4201  -26.6674   21.4025 H   0  0  0  0  0  0
  -18.0337  -26.0077   22.9017 H   0  0  0  0  0  0
  -19.7940  -30.7273   24.2269 H   0  0  0  0  0  0
  -17.5020  -31.6268   24.5170 H   0  0  0  0  0  0
  -15.5357  -30.2995   23.7655 H   0  0  0  0  0  0
  -15.8670  -28.0830   22.7064 H   0  0  0  0  0  0
  -24.5902  -30.7079   25.7786 H   0  0  0  0  0  0
  -24.8924  -32.2895   26.4885 H   0  0  0  0  0  0
  -25.8052  -30.8904   27.0232 H   0  0  0  0  0  0
  -26.2914  -29.6758   24.1217 H   0  0  0  0  0  0
  -27.4036  -29.7271   25.4696 H   0  0  0  0  0  0
  -27.8784  -30.4291   23.9413 H   0  0  0  0  0  0
  -27.2677  -33.3617   26.2084 H   0  0  0  0  0  0
  -28.3867  -32.6883   25.0322 H   0  0  0  0  0  0
  -28.0735  -31.8439   26.5406 H   0  0  0  0  0  0
  -28.2602  -38.0094   24.7502 H   0  0  0  0  0  0
  -28.1069  -36.2626   24.6301 H   0  0  0  0  0  0
  -27.2298  -37.1471   25.8867 H   0  0  0  0  0  0
  -20.9357  -29.8778   21.6892 H   0  0  0  0  0  0
  -26.0174  -38.2853   24.1401 H   0  0  0  0  0  0
  -27.7440  -17.3280   21.2381 H   0  0  0  0  0  0
  -31.9133  -17.4106   20.2076 H   0  0  0  0  0  0
  -29.9510  -24.3678   22.2912 H   0  0  0  0  0  0
  -28.3873  -23.5713   22.2596 H   0  0  0  0  0  0
  -29.6352  -21.6346   22.7085 H   0  0  0  0  0  0
  -31.0969  -22.2943   21.9874 H   0  0  0  0  0  0
  -29.1797  -22.3438   18.7115 H   0  0  0  0  0  0
  -27.8714  -22.1913   19.8704 H   0  0  0  0  0  0
  -30.1495  -24.2297   19.8795 H   0  0  0  0  0  0
  -26.5730  -19.2804   21.7572 H   0  0  0  0  0  0
  -26.7407  -20.2534   20.2991 H   0  0  0  0  0  0
  -27.3713  -20.8425   21.8453 H   0  0  0  0  0  0
  -27.1843  -24.7201   20.4245 H   0  0  0  0  0  0
  -27.9111  -24.9159   18.8488 H   0  0  0  0  0  0
  -32.9443  -19.6991   20.3895 H   0  0  0  0  0  0
  -31.9464  -21.0482   20.1977 H   0  0  0  0  0  0
  -28.8828  -15.3233   21.1638 H   0  0  0  0  0  0
  1 25  1  0  0  0
  1 30  2  0  0  0
  1 85  1  0  0  0
  2  3  1  0  0  0
  2 25  1  0  0  0
  2 86  1  0  0  0
  2 87  1  0  0  0
  3  4  1  0  0  0
  3 88  1  0  0  0
  3 89  1  0  0  0
  4  5  1  0  0  0
  4 90  1  0  0  0
  4 91  1  0  0  0
  5  6  1  0  0  0
  5 26  1  0  0  0
  5 92  1  0  0  0
  6 25  1  0  0  0
  6 93  1  0  0  0
  6 94  1  0  0  0
  7  8  2  0  0  0
  7 26  1  0  0  0
  7 29  1  0  0  0
  8  9  1  0  0  0
  8 22  1  0  0  0
  9 10  1  0  0  0
  9 27  2  0  0  0
 10 11  2  0  0  0
 10 15  1  0  0  0
 11 12  1  0  0  0
 11 95  1  0  0  0
 12 13  2  0  0  0
 12 96  1  0  0  0
 13 14  1  0  0  0
 13 31  1  0  0  0
 14 15  2  0  0  0
 14 97  1  0  0  0
 15 98  1  0  0  0
 16 17  2  0  0  0
 16 21  1  0  0  0
 16 31  1  0  0  0
 17 18  1  0  0  0
 17 99  1  0  0  0
 18 19  2  0  0  0
 18100  1  0  0  0
 19 20  1  0  0  0
 19 24  1  0  0  0
 20 21  2  0  0  0
 20101  1  0  0  0
 21 23  1  0  0  0
 22 28  1  0  0  0
 22 32  2  0  0  0
 26 27  1  0  0  0
 28102  1  0  0  0
 28103  1  0  0  0
 29104  1  0  0  0
 29105  1  0  0  0
 33 34  1  0  0  0
 33 66  1  0  0  0
 33 70  2  0  0  0
 34 36  1  0  0  0
 34 59  1  0  0  0
 34106  1  0  0  0
 35 44  2  0  0  0
 35 45  1  0  0  0
 35 68  1  0  0  0
 36 56  1  0  0  0
 36107  1  0  0  0
 37 39  1  0  0  0
 37 47  1  0  0  0
 37 66  1  0  0  0
 37108  1  0  0  0
 38 43  2  0  0  0
 38 46  1  0  0  0
 38 47  1  0  0  0
 39 64  1  0  0  0
 39 67  2  0  0  0
 40 52  1  0  0  0
 40 53  2  0  0  0
 40 58  1  0  0  0
 41109  1  0  0  0
 41110  1  0  0  0
 41111  1  0  0  0
 41 48  1  0  0  0
 42 43  1  0  0  0
 42 66  1  0  0  0
 42112  1  0  0  0
 42113  1  0  0  0
 43 44  1  0  0  0
 44114  1  0  0  0
 45 46  2  0  0  0
 45115  1  0  0  0
 46116  1  0  0  0
 47117  1  0  0  0
 47118  1  0  0  0
 48 56  1  0  0  0
 48 65  1  0  0  0
 48119  1  0  0  0
 49 50  1  0  0  0
 49 53  1  0  0  0
 49 64  1  0  0  0
 49120  1  0  0  0
 50 51  1  0  0  0
 50121  1  0  0  0
 50122  1  0  0  0
 51 52  1  0  0  0
 51123  1  0  0  0
 51124  1  0  0  0
 52125  1  0  0  0
 52126  1  0  0  0
 53 54  1  0  0  0
 54 55  2  0  0  0
 54127  1  0  0  0
 55 57  1  0  0  0
 55128  1  0  0  0
 56 69  2  0  0  0
 57 58  2  0  0  0
 57129  1  0  0  0
 58130  1  0  0  0
 59 60  1  0  0  0
 59 61  1  0  0  0
 59 62  1  0  0  0
 60131  1  0  0  0
 60132  1  0  0  0
 60133  1  0  0  0
 61134  1  0  0  0
 61135  1  0  0  0
 61136  1  0  0  0
 62137  1  0  0  0
 62138  1  0  0  0
 62139  1  0  0  0
 63 65  1  0  0  0
 63140  1  0  0  0
 63141  1  0  0  0
 63142  1  0  0  0
 64143  1  0  0  0
 65144  1  0  0  0
 68 82  1  0  0  0
 71 73  2  0  0  0
 71 75  1  0  0  0
 71145  1  0  0  0
 72 75  2  0  0  0
 72 76  1  0  0  0
 72146  1  0  0  0
 73 74  1  0  0  0
 73 81  1  0  0  0
 74 76  2  0  0  0
 74 83  1  0  0  0
 75 85  1  0  0  0
 76 84  1  0  0  0
 77 78  1  0  0  0
 77 80  1  0  0  0
 77147  1  0  0  0
 77148  1  0  0  0
 78 83  1  0  0  0
 78149  1  0  0  0
 78150  1  0  0  0
 79 80  1  0  0  0
 79 83  1  0  0  0
 79151  1  0  0  0
 79152  1  0  0  0
 80 82  1  0  0  0
 80153  1  0  0  0
 81154  1  0  0  0
 81155  1  0  0  0
 81156  1  0  0  0
 82157  1  0  0  0
 82158  1  0  0  0
 84159  1  0  0  0
 84160  1  0  0  0
 85161  1  0  0  0
M  ISO  4   1 100  68 101  82 101  85 100
M  END
> <chiral flag>
0

> <version>
0

> <s_m_source_file>
/data/baiqing/PycharmProjects/Reinvent-master-3.2/result/LINK_invent/BTK/process_docking_weight1_custom_product_contain_oxygen_bond_distance_aromatic_linkinvent_7_9_3/rearranged_h_0100.sdf

> <i_m_source_file_index>
62

> <r_mmod_Potential_Energy-OPLS-2005>
128.812850952148

> <r_mmod_Stretch_Energy-OPLS-2005>
77.9679489135742

> <r_mmod_Bend_Energy-OPLS-2005>
180.554397583008

> <r_mmod_Torsional_Energy-OPLS-2005>
295.918487548828

> <r_mmod_Improper_Torsional_Energy-OPLS-2005>
12.0824670791626

> <r_mmod_Van_der_Waal_Energy-OPLS-2005>
145.215530395508

> <r_mmod_Electrostatic_Energy-OPLS-2005>
-407.599822998047

> <r_mmod_Solvation_Energy-OPLS-2005>
-225.704254150391

> <b_mmod_Minimization_Converged-OPLS-2005>
0

> <r_mmod_RMS_Derivative-OPLS-2005>
0.700770616531372

$$$$
63
                    3D
 Structure written by MMmdl.
158166  0  0  1  0            999 V2000
  -30.6012  -14.6200   20.5192 C   0  0  0  0  0  0
  -30.4449  -12.3838   19.4574 C   0  0  0  0  0  0
  -29.5316  -12.5600   18.2234 C   0  0  0  0  0  0
  -28.0422  -12.4068   18.6036 C   0  0  0  0  0  0
  -27.6607  -13.2171   19.8742 C   0  0  2  0  0  0
  -28.7018  -13.0178   21.0021 C   0  0  0  0  0  0
  -25.2567  -13.8141   20.5633 C   0  0  0  0  0  0
  -24.1810  -13.0420   20.9139 C   0  0  0  0  0  0
  -24.6365  -11.6892   20.8656 C   0  0  0  0  0  0
  -23.8997  -10.4298   21.0346 C   0  0  0  0  0  0
  -24.3553   -9.4258   21.9162 C   0  0  0  0  0  0
  -23.6251   -8.2290   22.0767 C   0  0  0  0  0  0
  -22.4251   -8.0270   21.3535 C   0  0  0  0  0  0
  -21.9848   -9.0238   20.4652 C   0  0  0  0  0  0
  -22.7150  -10.2132   20.3034 C   0  0  0  0  0  0
  -21.6873   -6.0700   22.5275 C   0  0  0  0  0  0
  -21.4021   -6.5608   23.8196 C   0  0  0  0  0  0
  -21.3661   -5.6761   24.9163 C   0  0  0  0  0  0
  -21.6052   -4.3021   24.7218 C   0  0  0  0  0  0
  -21.8825   -3.8107   23.4347 C   0  0  0  0  0  0
  -21.9204   -4.6924   22.3391 C   0  0  0  0  0  0
  -22.7857  -13.5287   21.1785 C   0  0  0  0  0  0
  -22.1672   -4.2104   21.0975 F   0  0  0  0  0  0
  -21.5634   -3.4511   25.7737 F   0  0  0  0  0  0
  -30.0202  -13.3803   20.4578 N   0  0  0  0  0  0
  -26.2999  -12.9321   20.3264 N   0  0  0  0  0  0
  -25.9302  -11.6478   20.5633 N   0  0  0  0  0  0
  -22.0406  -12.8361   22.0329 N   0  0  0  0  0  0
  -25.4216  -15.1860   20.4075 N   0  0  0  0  0  0
  -31.7576  -14.8108   20.1295 O   0  0  0  0  0  0
  -21.6643   -6.8851   21.4243 O   0  0  0  0  0  0
  -22.3607  -14.5611   20.6620 O   0  0  0  0  0  0
  -24.6269  -31.8595   23.2022 C   0  0  0  0  0  0
  -25.9101  -32.4773   23.8364 C   0  0  1  0  0  0
  -27.2176  -27.3104   20.0898 C   0  0  0  0  0  0
  -25.5902  -33.8574   24.2270 N   0  0  0  0  0  0
  -23.4214  -30.4838   21.5479 C   0  0  2  0  0  0
  -24.8643  -28.9386   20.1168 C   0  0  0  0  0  0
  -22.7480  -29.4613   22.4951 C   0  0  0  0  0  0
  -18.0287  -28.1368   22.8485 C   0  0  0  0  0  0
  -24.1478  -36.7272   23.2644 C   0  0  0  0  0  0
  -25.9674  -30.7835   21.3807 C   0  0  0  0  0  0
  -26.0387  -29.4125   20.7154 C   0  0  0  0  0  0
  -27.2200  -28.6100   20.6916 C   0  0  0  0  0  0
  -26.0236  -26.9063   19.4521 C   0  0  0  0  0  0
  -24.8578  -27.6899   19.4816 C   0  0  0  0  0  0
  -23.6347  -29.8196   20.1655 C   0  0  0  0  0  0
  -25.4109  -36.3073   24.0329 C   0  0  1  0  0  0
  -20.5886  -28.3673   23.1287 C   0  0  2  0  0  0
  -20.6767  -26.9395   22.5423 C   0  0  0  0  0  0
  -19.5753  -26.6361   21.5218 C   0  0  0  0  0  0
  -18.1922  -26.7913   22.1610 C   0  0  0  0  0  0
  -19.1537  -28.8842   23.2872 C   0  0  0  0  0  0
  -18.9457  -30.1445   23.8879 C   0  0  0  0  0  0
  -17.6460  -30.6584   24.0544 C   0  0  0  0  0  0
  -25.9054  -34.9445   23.5104 C   0  0  0  0  0  0
  -16.5354  -29.9077   23.6326 C   0  0  0  0  0  0
  -16.7274  -28.6489   23.0362 C   0  0  0  0  0  0
  -26.4456  -31.6590   25.0751 C   0  0  0  0  0  0
  -25.3670  -31.3762   26.1469 C   0  0  0  0  0  0
  -27.0274  -30.2989   24.6250 C   0  0  0  0  0  0
  -27.6013  -32.4323   25.7521 C   0  0  0  0  0  0
  -27.5585  -37.1776   24.8451 C   0  0  0  0  0  0
  -21.4196  -29.3025   22.3682 N   0  0  0  0  0  0
  -26.4276  -37.3783   23.9425 N   0  0  0  0  0  0
  -24.6906  -31.0594   22.0982 N   0  0  0  0  0  0
  -23.4205  -28.8148   23.3021 O   0  0  0  0  0  0
  -28.3261  -26.4461   20.0887 O   0  0  0  0  0  0
  -26.5644  -34.8916   22.4685 O   0  0  0  0  0  0
  -23.5421  -32.1391   23.7342 O   0  0  0  0  0  0
  -30.9875  -17.8449   20.4928 C   0  0  0  0  0  0
  -30.9464  -19.2589   20.3256 C   0  0  0  0  0  0
  -28.5940  -17.8311   20.6520 C   0  0  0  0  0  0
  -29.8054  -17.0872   20.6603 C   0  0  0  0  0  0
  -29.7415  -20.0134   20.3045 C   0  0  0  0  0  0
  -28.5391  -19.2547   20.4577 C   0  0  0  0  0  0
  -26.1321  -19.2009   20.2609 C   0  0  0  0  0  0
  -28.0823  -25.0021   20.3729 C   0  0  0  0  0  0
  -28.7651  -22.3806   20.2680 C   0  0  0  0  0  0
  -29.1163  -23.8909   19.8734 C   0  0  1  0  0  0
  -29.7529  -15.6383   20.8650 N   0  0  0  0  0  0
  -29.2738  -23.9563   18.3972 N   0  3  0  0  0  0
  -27.3438  -19.9352   20.3926 O   0  0  0  0  0  0
  -29.8545  -21.4128   20.0985 O   0  0  0  0  0  0
  -31.4958  -12.5039   19.1860 H   0  0  0  0  0  0
  -30.3513  -11.3756   19.8633 H   0  0  0  0  0  0
  -29.8112  -11.8553   17.4399 H   0  0  0  0  0  0
  -29.6908  -13.5561   17.8029 H   0  0  0  0  0  0
  -27.8433  -11.3454   18.7554 H   0  0  0  0  0  0
  -27.4165  -12.7189   17.7663 H   0  0  0  0  0  0
  -27.6909  -14.2667   19.5840 H   0  0  0  0  0  0
  -28.7096  -11.9751   21.3274 H   0  0  0  0  0  0
  -28.4487  -13.5987   21.8901 H   0  0  0  0  0  0
  -25.2700   -9.5787   22.4709 H   0  0  0  0  0  0
  -23.9961   -7.4720   22.7518 H   0  0  0  0  0  0
  -21.0762   -8.8726   19.8989 H   0  0  0  0  0  0
  -22.3565  -10.9633   19.6117 H   0  0  0  0  0  0
  -21.2017   -7.6117   23.9684 H   0  0  0  0  0  0
  -21.1480   -6.0488   25.9055 H   0  0  0  0  0  0
  -22.0603   -2.7572   23.2844 H   0  0  0  0  0  0
  -22.3899  -12.0031   22.4810 H   0  0  0  0  0  0
  -21.1043  -13.1525   22.2433 H   0  0  0  0  0  0
  -24.6337  -15.8163   20.4957 H   0  0  0  0  0  0
  -26.2425  -15.6221   20.0117 H   0  0  0  0  0  0
  -26.7170  -32.5423   23.1115 H   0  0  0  0  0  0
  -24.9974  -33.9714   25.0360 H   0  0  0  0  0  0
  -22.7157  -31.3042   21.4054 H   0  0  0  0  0  0
  -23.3773  -35.9572   23.3274 H   0  0  0  0  0  0
  -24.3573  -36.8937   22.2069 H   0  0  0  0  0  0
  -23.7195  -37.6442   23.6697 H   0  0  0  0  0  0
  -26.1132  -31.5544   20.6230 H   0  0  0  0  0  0
  -26.8399  -30.8188   22.0206 H   0  0  0  0  0  0
  -28.1254  -28.9690   21.1605 H   0  0  0  0  0  0
  -25.9672  -25.9771   18.9063 H   0  0  0  0  0  0
  -23.9580  -27.3282   19.0029 H   0  0  0  0  0  0
  -23.7560  -30.5929   19.4070 H   0  0  0  0  0  0
  -22.7548  -29.2479   19.8661 H   0  0  0  0  0  0
  -25.1288  -36.1912   25.0820 H   0  0  0  0  0  0
  -20.9974  -28.3249   24.1410 H   0  0  0  0  0  0
  -20.5655  -26.2290   23.3625 H   0  0  0  0  0  0
  -21.6639  -26.7410   22.1235 H   0  0  0  0  0  0
  -19.6913  -25.6261   21.1269 H   0  0  0  0  0  0
  -19.6705  -27.3156   20.6733 H   0  0  0  0  0  0
  -17.4208  -26.6689   21.3990 H   0  0  0  0  0  0
  -18.0298  -26.0047   22.8993 H   0  0  0  0  0  0
  -19.7932  -30.7256   24.2246 H   0  0  0  0  0  0
  -17.5020  -31.6267   24.5139 H   0  0  0  0  0  0
  -15.5350  -30.2976   23.7655 H   0  0  0  0  0  0
  -15.8673  -28.0801   22.7093 H   0  0  0  0  0  0
  -24.5833  -30.7122   25.7804 H   0  0  0  0  0  0
  -24.8862  -32.2939   26.4868 H   0  0  0  0  0  0
  -25.7966  -30.8954   27.0267 H   0  0  0  0  0  0
  -26.2853  -29.6779   24.1217 H   0  0  0  0  0  0
  -27.3852  -29.7221   25.4791 H   0  0  0  0  0  0
  -27.8790  -30.4227   23.9555 H   0  0  0  0  0  0
  -27.2615  -33.3634   26.2076 H   0  0  0  0  0  0
  -28.3833  -32.6870   25.0354 H   0  0  0  0  0  0
  -28.0667  -31.8459   26.5457 H   0  0  0  0  0  0
  -28.2560  -38.0115   24.7563 H   0  0  0  0  0  0
  -28.1113  -36.2644   24.6175 H   0  0  0  0  0  0
  -27.2312  -37.1313   25.8853 H   0  0  0  0  0  0
  -20.9378  -29.8742   21.6883 H   0  0  0  0  0  0
  -26.0147  -38.2848   24.1467 H   0  0  0  0  0  0
  -31.9479  -17.3492   20.4999 H   0  0  0  0  0  0
  -31.8834  -19.7842   20.2004 H   0  0  0  0  0  0
  -27.6832  -17.2704   20.7907 H   0  0  0  0  0  0
  -26.2065  -18.3637   19.5647 H   0  0  0  0  0  0
  -25.3653  -19.8666   19.8685 H   0  0  0  0  0  0
  -25.7899  -18.8341   21.2296 H   0  0  0  0  0  0
  -28.0408  -24.9316   21.4598 H   0  0  0  0  0  0
  -27.0943  -24.6731   20.0585 H   0  0  0  0  0  0
  -27.9201  -22.0749   19.6533 H   0  0  0  0  0  0
  -28.4364  -22.3410   21.3060 H   0  0  0  0  0  0
  -30.0808  -24.1398   20.3159 H   0  0  0  0  0  0
  -28.8530  -15.2863   21.1561 H   0  0  0  0  0  0
  -28.4646  -23.5918   17.9200 H   0  0  0  0  0  0
  -30.0644  -23.4025   18.1091 H   0  0  0  0  0  0
  -29.4248  -24.8982   18.0754 H   0  0  0  0  0  0
  1 25  1  0  0  0
  1 30  2  0  0  0
  1 81  1  0  0  0
  2  3  1  0  0  0
  2 25  1  0  0  0
  2 85  1  0  0  0
  2 86  1  0  0  0
  3  4  1  0  0  0
  3 87  1  0  0  0
  3 88  1  0  0  0
  4  5  1  0  0  0
  4 89  1  0  0  0
  4 90  1  0  0  0
  5  6  1  0  0  0
  5 26  1  0  0  0
  5 91  1  0  0  0
  6 25  1  0  0  0
  6 92  1  0  0  0
  6 93  1  0  0  0
  7  8  2  0  0  0
  7 26  1  0  0  0
  7 29  1  0  0  0
  8  9  1  0  0  0
  8 22  1  0  0  0
  9 10  1  0  0  0
  9 27  2  0  0  0
 10 11  2  0  0  0
 10 15  1  0  0  0
 11 12  1  0  0  0
 11 94  1  0  0  0
 12 13  2  0  0  0
 12 95  1  0  0  0
 13 14  1  0  0  0
 13 31  1  0  0  0
 14 15  2  0  0  0
 14 96  1  0  0  0
 15 97  1  0  0  0
 16 17  2  0  0  0
 16 21  1  0  0  0
 16 31  1  0  0  0
 17 18  1  0  0  0
 17 98  1  0  0  0
 18 19  2  0  0  0
 18 99  1  0  0  0
 19 20  1  0  0  0
 19 24  1  0  0  0
 20 21  2  0  0  0
 20100  1  0  0  0
 21 23  1  0  0  0
 22 28  1  0  0  0
 22 32  2  0  0  0
 26 27  1  0  0  0
 28101  1  0  0  0
 28102  1  0  0  0
 29103  1  0  0  0
 29104  1  0  0  0
 33 34  1  0  0  0
 33 66  1  0  0  0
 33 70  2  0  0  0
 34 36  1  0  0  0
 34 59  1  0  0  0
 34105  1  0  0  0
 35 44  2  0  0  0
 35 45  1  0  0  0
 35 68  1  0  0  0
 36 56  1  0  0  0
 36106  1  0  0  0
 37 39  1  0  0  0
 37 47  1  0  0  0
 37 66  1  0  0  0
 37107  1  0  0  0
 38 43  2  0  0  0
 38 46  1  0  0  0
 38 47  1  0  0  0
 39 64  1  0  0  0
 39 67  2  0  0  0
 40 52  1  0  0  0
 40 53  2  0  0  0
 40 58  1  0  0  0
 41108  1  0  0  0
 41109  1  0  0  0
 41110  1  0  0  0
 41 48  1  0  0  0
 42 43  1  0  0  0
 42 66  1  0  0  0
 42111  1  0  0  0
 42112  1  0  0  0
 43 44  1  0  0  0
 44113  1  0  0  0
 45 46  2  0  0  0
 45114  1  0  0  0
 46115  1  0  0  0
 47116  1  0  0  0
 47117  1  0  0  0
 48 56  1  0  0  0
 48 65  1  0  0  0
 48118  1  0  0  0
 49 50  1  0  0  0
 49 53  1  0  0  0
 49 64  1  0  0  0
 49119  1  0  0  0
 50 51  1  0  0  0
 50120  1  0  0  0
 50121  1  0  0  0
 51 52  1  0  0  0
 51122  1  0  0  0
 51123  1  0  0  0
 52124  1  0  0  0
 52125  1  0  0  0
 53 54  1  0  0  0
 54 55  2  0  0  0
 54126  1  0  0  0
 55 57  1  0  0  0
 55127  1  0  0  0
 56 69  2  0  0  0
 57 58  2  0  0  0
 57128  1  0  0  0
 58129  1  0  0  0
 59 60  1  0  0  0
 59 61  1  0  0  0
 59 62  1  0  0  0
 60130  1  0  0  0
 60131  1  0  0  0
 60132  1  0  0  0
 61133  1  0  0  0
 61134  1  0  0  0
 61135  1  0  0  0
 62136  1  0  0  0
 62137  1  0  0  0
 62138  1  0  0  0
 63 65  1  0  0  0
 63139  1  0  0  0
 63140  1  0  0  0
 63141  1  0  0  0
 64142  1  0  0  0
 65143  1  0  0  0
 68 78  1  0  0  0
 71 72  2  0  0  0
 71 74  1  0  0  0
 71144  1  0  0  0
 72 75  1  0  0  0
 72145  1  0  0  0
 73 74  2  0  0  0
 73 76  1  0  0  0
 73146  1  0  0  0
 74 81  1  0  0  0
 75 76  2  0  0  0
 75 84  1  0  0  0
 76 83  1  0  0  0
 77 83  1  0  0  0
 77147  1  0  0  0
 77148  1  0  0  0
 77149  1  0  0  0
 78 80  1  0  0  0
 78150  1  0  0  0
 78151  1  0  0  0
 79 80  1  0  0  0
 79 84  1  0  0  0
 79152  1  0  0  0
 79153  1  0  0  0
 80 82  1  0  0  0
 80154  1  0  0  0
 81155  1  0  0  0
 82156  1  0  0  0
 82157  1  0  0  0
 82158  1  0  0  0
M  CHG  1  82   1
M  ISO  4   1 100  68 101  78 101  81 100
M  END
> <chiral flag>
0

> <version>
0

> <s_m_source_file>
/data/baiqing/PycharmProjects/Reinvent-master-3.2/result/LINK_invent/BTK/process_docking_weight1_custom_product_contain_oxygen_bond_distance_aromatic_linkinvent_7_9_3/rearranged_h_0100.sdf

> <i_m_source_file_index>
63

> <r_mmod_Potential_Energy-OPLS-2005>
-88.3572769165039

> <r_mmod_Stretch_Energy-OPLS-2005>
84.9975814819336

> <r_mmod_Bend_Energy-OPLS-2005>
159.132507324219

> <r_mmod_Torsional_Energy-OPLS-2005>
240.414474487305

> <r_mmod_Improper_Torsional_Energy-OPLS-2005>
5.14879846572876

> <r_mmod_Van_der_Waal_Energy-OPLS-2005>
153.004379272461

> <r_mmod_Electrostatic_Energy-OPLS-2005>
-327.284515380859

> <r_mmod_Solvation_Energy-OPLS-2005>
-450.984283447266

> <b_mmod_Minimization_Converged-OPLS-2005>
0

> <r_mmod_RMS_Derivative-OPLS-2005>
4.05224895477295

$$$$
64
                    3D
 Structure written by MMmdl.
161170  0  0  1  0            999 V2000
  -30.6241  -14.6321   20.4989 C   0  0  0  0  0  0
  -30.4360  -12.3869   19.4524 C   0  0  0  0  0  0
  -29.5077  -12.5127   18.2241 C   0  0  0  0  0  0
  -28.0301  -12.3522   18.6342 C   0  0  0  0  0  0
  -27.6550  -13.2182   19.8665 C   0  0  2  0  0  0
  -28.6985  -13.0643   20.9957 C   0  0  0  0  0  0
  -25.2567  -13.8176   20.5698 C   0  0  0  0  0  0
  -24.1828  -13.0443   20.9187 C   0  0  0  0  0  0
  -24.6395  -11.6912   20.8734 C   0  0  0  0  0  0
  -23.9064  -10.4296   21.0401 C   0  0  0  0  0  0
  -24.3614   -9.4212   21.9179 C   0  0  0  0  0  0
  -23.6290   -8.2246   22.0752 C   0  0  0  0  0  0
  -22.4271   -8.0285   21.3548 C   0  0  0  0  0  0
  -21.9906   -9.0257   20.4650 C   0  0  0  0  0  0
  -22.7235  -10.2135   20.3053 C   0  0  0  0  0  0
  -21.6853   -6.0737   22.5280 C   0  0  0  0  0  0
  -21.4015   -6.5638   23.8212 C   0  0  0  0  0  0
  -21.3658   -5.6793   24.9175 C   0  0  0  0  0  0
  -21.6042   -4.3056   24.7224 C   0  0  0  0  0  0
  -21.8819   -3.8148   23.4346 C   0  0  0  0  0  0
  -21.9194   -4.6967   22.3404 C   0  0  0  0  0  0
  -22.7849  -13.5238   21.1851 C   0  0  0  0  0  0
  -22.1662   -4.2155   21.0982 F   0  0  0  0  0  0
  -21.5627   -3.4539   25.7734 F   0  0  0  0  0  0
  -30.0162  -13.4052   20.4361 N   0  0  0  0  0  0
  -26.2995  -12.9360   20.3331 N   0  0  0  0  0  0
  -25.9325  -11.6512   20.5746 N   0  0  0  0  0  0
  -22.0484  -12.8233   22.0407 N   0  0  0  0  0  0
  -25.4286  -15.1898   20.4145 N   0  0  0  0  0  0
  -31.7793  -14.7954   20.0966 O   0  0  0  0  0  0
  -21.6638   -6.8877   21.4240 O   0  0  0  0  0  0
  -22.3539  -14.5547   20.6701 O   0  0  0  0  0  0
  -24.6252  -31.8596   23.2027 C   0  0  0  0  0  0
  -25.9110  -32.4772   23.8349 C   0  0  1  0  0  0
  -27.2271  -27.3279   20.1247 C   0  0  0  0  0  0
  -25.5936  -33.8572   24.2286 N   0  0  0  0  0  0
  -23.4182  -30.4818   21.5447 C   0  0  2  0  0  0
  -24.8663  -28.9343   20.1143 C   0  0  0  0  0  0
  -22.7467  -29.4619   22.4945 C   0  0  0  0  0  0
  -18.0284  -28.1378   22.8482 C   0  0  0  0  0  0
  -24.1488  -36.7284   23.2634 C   0  0  0  0  0  0
  -25.9575  -30.7936   21.3722 C   0  0  0  0  0  0
  -26.0333  -29.4202   20.7181 C   0  0  0  0  0  0
  -27.2186  -28.6289   20.7116 C   0  0  0  0  0  0
  -26.0423  -26.8916   19.4935 C   0  0  0  0  0  0
  -24.8717  -27.6745   19.4935 C   0  0  0  0  0  0
  -23.6330  -29.8130   20.1611 C   0  0  0  0  0  0
  -25.4110  -36.3076   24.0329 C   0  0  1  0  0  0
  -20.5883  -28.3681   23.1285 C   0  0  2  0  0  0
  -20.6770  -26.9403   22.5413 C   0  0  0  0  0  0
  -19.5754  -26.6381   21.5206 C   0  0  0  0  0  0
  -18.1930  -26.7927   22.1611 C   0  0  0  0  0  0
  -19.1537  -28.8848   23.2878 C   0  0  0  0  0  0
  -18.9462  -30.1453   23.8890 C   0  0  0  0  0  0
  -17.6461  -30.6584   24.0558 C   0  0  0  0  0  0
  -25.9047  -34.9446   23.5105 C   0  0  0  0  0  0
  -16.5352  -29.9078   23.6328 C   0  0  0  0  0  0
  -16.7274  -28.6496   23.0351 C   0  0  0  0  0  0
  -26.4502  -31.6572   25.0713 C   0  0  0  0  0  0
  -25.3743  -31.3723   26.1449 C   0  0  0  0  0  0
  -27.0325  -30.2990   24.6156 C   0  0  0  0  0  0
  -27.6073  -32.4291   25.7481 C   0  0  0  0  0  0
  -27.5582  -37.1791   24.8459 C   0  0  0  0  0  0
  -21.4183  -29.3036   22.3684 N   0  0  0  0  0  0
  -26.4289  -37.3771   23.9410 N   0  0  0  0  0  0
  -24.6855  -31.0617   22.0971 N   0  0  0  0  0  0
  -23.4193  -28.8156   23.3020 O   0  0  0  0  0  0
  -28.3521  -26.4962   20.1314 O   0  0  0  0  0  0
  -26.5604  -34.8912   22.4663 O   0  0  0  0  0  0
  -23.5421  -32.1392   23.7365 O   0  0  0  0  0  0
  -29.4787  -19.4549   21.4458 C   0  0  0  0  0  0
  -30.2840  -19.0705   19.2161 C   0  0  0  0  0  0
  -29.4836  -18.0417   21.6808 C   0  0  0  0  0  0
  -29.9109  -20.0181   20.2163 C   0  0  0  0  0  0
  -29.9190  -17.1101   20.6893 C   0  0  0  0  0  0
  -30.2922  -17.6637   19.4361 C   0  0  0  0  0  0
  -31.2509  -21.9434   19.5433 C   0  0  0  0  0  0
  -31.4301  -23.4234   19.1736 C   0  0  0  0  0  0
  -30.5802  -24.3883   20.0011 C   0  0  0  0  0  0
  -29.0107  -22.4761   20.4690 C   0  0  0  0  0  0
  -29.1138  -23.9790   19.9234 C   0  0  1  0  0  0
  -29.0259  -17.5296   23.0359 C   0  0  0  0  0  0
  -28.1868  -25.0940   20.5796 C   0  0  0  0  0  0
  -30.0491  -21.4763   19.9983 N   0  0  0  0  0  0
  -29.8463  -15.6688   20.9384 N   0  0  0  0  0  0
  -32.2409  -21.2199   19.3832 O   0  0  0  0  0  0
  -30.6267  -16.8482   18.4071 F   0  0  0  0  0  0
  -31.4784  -12.5070   19.1520 H   0  0  0  0  0  0
  -30.3643  -11.3894   19.8878 H   0  0  0  0  0  0
  -29.7704  -11.7667   17.4729 H   0  0  0  0  0  0
  -29.6541  -13.4859   17.7523 H   0  0  0  0  0  0
  -27.8628  -11.2985   18.8599 H   0  0  0  0  0  0
  -27.3776  -12.5902   17.7934 H   0  0  0  0  0  0
  -27.6768  -14.2555   19.5319 H   0  0  0  0  0  0
  -28.7063  -12.0402   21.3719 H   0  0  0  0  0  0
  -28.4428  -13.6906   21.8514 H   0  0  0  0  0  0
  -25.2756   -9.5691   22.4756 H   0  0  0  0  0  0
  -24.0006   -7.4637   22.7469 H   0  0  0  0  0  0
  -21.0838   -8.8774   19.8954 H   0  0  0  0  0  0
  -22.3690  -10.9674   19.6163 H   0  0  0  0  0  0
  -21.2006   -7.6144   23.9717 H   0  0  0  0  0  0
  -21.1478   -6.0521   25.9079 H   0  0  0  0  0  0
  -22.0597   -2.7612   23.2844 H   0  0  0  0  0  0
  -22.4085  -11.9891   22.4800 H   0  0  0  0  0  0
  -21.1104  -13.1273   22.2605 H   0  0  0  0  0  0
  -24.6627  -15.8450   20.5272 H   0  0  0  0  0  0
  -26.2816  -15.6311   20.0948 H   0  0  0  0  0  0
  -26.7172  -32.5452   23.1093 H   0  0  0  0  0  0
  -25.0118  -33.9716   25.0458 H   0  0  0  0  0  0
  -22.7114  -31.3016   21.4004 H   0  0  0  0  0  0
  -23.3751  -35.9615   23.3295 H   0  0  0  0  0  0
  -24.3585  -36.8904   22.2049 H   0  0  0  0  0  0
  -23.7239  -37.6487   23.6653 H   0  0  0  0  0  0
  -26.0870  -31.5566   20.6031 H   0  0  0  0  0  0
  -26.8386  -30.8439   22.0002 H   0  0  0  0  0  0
  -28.1167  -28.9988   21.1862 H   0  0  0  0  0  0
  -26.0146  -25.9328   18.9956 H   0  0  0  0  0  0
  -23.9790  -27.2987   19.0125 H   0  0  0  0  0  0
  -23.7496  -30.5868   19.4012 H   0  0  0  0  0  0
  -22.7544  -29.2386   19.8620 H   0  0  0  0  0  0
  -25.1287  -36.1925   25.0821 H   0  0  0  0  0  0
  -20.9975  -28.3253   24.1406 H   0  0  0  0  0  0
  -20.5659  -26.2287   23.3608 H   0  0  0  0  0  0
  -21.6642  -26.7427   22.1216 H   0  0  0  0  0  0
  -19.6912  -25.6290   21.1240 H   0  0  0  0  0  0
  -19.6699  -27.3185   20.6730 H   0  0  0  0  0  0
  -17.4205  -26.6683   21.4006 H   0  0  0  0  0  0
  -18.0322  -26.0063   22.8999 H   0  0  0  0  0  0
  -19.7939  -30.7269   24.2253 H   0  0  0  0  0  0
  -17.5018  -31.6264   24.5157 H   0  0  0  0  0  0
  -15.5351  -30.2976   23.7656 H   0  0  0  0  0  0
  -15.8674  -28.0809   22.7071 H   0  0  0  0  0  0
  -24.5934  -30.7040   25.7803 H   0  0  0  0  0  0
  -24.8913  -32.2891   26.4835 H   0  0  0  0  0  0
  -25.8082  -30.8948   27.0243 H   0  0  0  0  0  0
  -26.2883  -29.6753   24.1191 H   0  0  0  0  0  0
  -27.4032  -29.7234   25.4648 H   0  0  0  0  0  0
  -27.8754  -30.4265   23.9360 H   0  0  0  0  0  0
  -27.2704  -33.3596   26.2058 H   0  0  0  0  0  0
  -28.3890  -32.6834   25.0312 H   0  0  0  0  0  0
  -28.0730  -31.8409   26.5398 H   0  0  0  0  0  0
  -28.2592  -38.0094   24.7514 H   0  0  0  0  0  0
  -28.1083  -36.2626   24.6266 H   0  0  0  0  0  0
  -27.2306  -37.1425   25.8864 H   0  0  0  0  0  0
  -20.9355  -29.8758   21.6897 H   0  0  0  0  0  0
  -26.0171  -38.2845   24.1417 H   0  0  0  0  0  0
  -29.1764  -20.1198   22.2429 H   0  0  0  0  0  0
  -30.5984  -19.4227   18.2445 H   0  0  0  0  0  0
  -31.1876  -23.5307   18.1160 H   0  0  0  0  0  0
  -32.4823  -23.6911   19.2737 H   0  0  0  0  0  0
  -30.7127  -25.4020   19.6210 H   0  0  0  0  0  0
  -30.9184  -24.3989   21.0386 H   0  0  0  0  0  0
  -28.0227  -22.0784   20.2360 H   0  0  0  0  0  0
  -29.0704  -22.5032   21.5574 H   0  0  0  0  0  0
  -28.8388  -23.9514   18.8677 H   0  0  0  0  0  0
  -28.8240  -18.3465   23.7293 H   0  0  0  0  0  0
  -29.7932  -16.8980   23.4849 H   0  0  0  0  0  0
  -28.1132  -16.9422   22.9331 H   0  0  0  0  0  0
  -28.3723  -25.0965   21.6544 H   0  0  0  0  0  0
  -27.1542  -24.7608   20.4825 H   0  0  0  0  0  0
  -29.0131  -15.3688   21.4184 H   0  0  0  0  0  0
  1 25  1  0  0  0
  1 30  2  0  0  0
  1 85  1  0  0  0
  2  3  1  0  0  0
  2 25  1  0  0  0
  2 88  1  0  0  0
  2 89  1  0  0  0
  3  4  1  0  0  0
  3 90  1  0  0  0
  3 91  1  0  0  0
  4  5  1  0  0  0
  4 92  1  0  0  0
  4 93  1  0  0  0
  5  6  1  0  0  0
  5 26  1  0  0  0
  5 94  1  0  0  0
  6 25  1  0  0  0
  6 95  1  0  0  0
  6 96  1  0  0  0
  7  8  2  0  0  0
  7 26  1  0  0  0
  7 29  1  0  0  0
  8  9  1  0  0  0
  8 22  1  0  0  0
  9 10  1  0  0  0
  9 27  2  0  0  0
 10 11  2  0  0  0
 10 15  1  0  0  0
 11 12  1  0  0  0
 11 97  1  0  0  0
 12 13  2  0  0  0
 12 98  1  0  0  0
 13 14  1  0  0  0
 13 31  1  0  0  0
 14 15  2  0  0  0
 14 99  1  0  0  0
 15100  1  0  0  0
 16 17  2  0  0  0
 16 21  1  0  0  0
 16 31  1  0  0  0
 17 18  1  0  0  0
 17101  1  0  0  0
 18 19  2  0  0  0
 18102  1  0  0  0
 19 20  1  0  0  0
 19 24  1  0  0  0
 20 21  2  0  0  0
 20103  1  0  0  0
 21 23  1  0  0  0
 22 28  1  0  0  0
 22 32  2  0  0  0
 26 27  1  0  0  0
 28104  1  0  0  0
 28105  1  0  0  0
 29106  1  0  0  0
 29107  1  0  0  0
 33 34  1  0  0  0
 33 66  1  0  0  0
 33 70  2  0  0  0
 34 36  1  0  0  0
 34 59  1  0  0  0
 34108  1  0  0  0
 35 44  2  0  0  0
 35 45  1  0  0  0
 35 68  1  0  0  0
 36 56  1  0  0  0
 36109  1  0  0  0
 37 39  1  0  0  0
 37 47  1  0  0  0
 37 66  1  0  0  0
 37110  1  0  0  0
 38 43  2  0  0  0
 38 46  1  0  0  0
 38 47  1  0  0  0
 39 64  1  0  0  0
 39 67  2  0  0  0
 40 52  1  0  0  0
 40 53  2  0  0  0
 40 58  1  0  0  0
 41111  1  0  0  0
 41112  1  0  0  0
 41113  1  0  0  0
 41 48  1  0  0  0
 42 43  1  0  0  0
 42 66  1  0  0  0
 42114  1  0  0  0
 42115  1  0  0  0
 43 44  1  0  0  0
 44116  1  0  0  0
 45 46  2  0  0  0
 45117  1  0  0  0
 46118  1  0  0  0
 47119  1  0  0  0
 47120  1  0  0  0
 48 56  1  0  0  0
 48 65  1  0  0  0
 48121  1  0  0  0
 49 50  1  0  0  0
 49 53  1  0  0  0
 49 64  1  0  0  0
 49122  1  0  0  0
 50 51  1  0  0  0
 50123  1  0  0  0
 50124  1  0  0  0
 51 52  1  0  0  0
 51125  1  0  0  0
 51126  1  0  0  0
 52127  1  0  0  0
 52128  1  0  0  0
 53 54  1  0  0  0
 54 55  2  0  0  0
 54129  1  0  0  0
 55 57  1  0  0  0
 55130  1  0  0  0
 56 69  2  0  0  0
 57 58  2  0  0  0
 57131  1  0  0  0
 58132  1  0  0  0
 59 60  1  0  0  0
 59 61  1  0  0  0
 59 62  1  0  0  0
 60133  1  0  0  0
 60134  1  0  0  0
 60135  1  0  0  0
 61136  1  0  0  0
 61137  1  0  0  0
 61138  1  0  0  0
 62139  1  0  0  0
 62140  1  0  0  0
 62141  1  0  0  0
 63 65  1  0  0  0
 63142  1  0  0  0
 63143  1  0  0  0
 63144  1  0  0  0
 64145  1  0  0  0
 65146  1  0  0  0
 68 83  1  0  0  0
 71 73  2  0  0  0
 71 74  1  0  0  0
 71147  1  0  0  0
 72 74  2  0  0  0
 72 76  1  0  0  0
 72148  1  0  0  0
 73 75  1  0  0  0
 73 82  1  0  0  0
 74 84  1  0  0  0
 75 76  2  0  0  0
 75 85  1  0  0  0
 76 87  1  0  0  0
 77 78  1  0  0  0
 77 84  1  0  0  0
 77 86  2  0  0  0
 78 79  1  0  0  0
 78149  1  0  0  0
 78150  1  0  0  0
 79 81  1  0  0  0
 79151  1  0  0  0
 79152  1  0  0  0
 80 81  1  0  0  0
 80 84  1  0  0  0
 80153  1  0  0  0
 80154  1  0  0  0
 81 83  1  0  0  0
 81155  1  0  0  0
 82156  1  0  0  0
 82157  1  0  0  0
 82158  1  0  0  0
 83159  1  0  0  0
 83160  1  0  0  0
 85161  1  0  0  0
M  ISO  4   1 100  68 101  83 101  85 100
M  END
> <chiral flag>
0

> <version>
0

> <s_m_source_file>
/data/baiqing/PycharmProjects/Reinvent-master-3.2/result/LINK_invent/BTK/process_docking_weight1_custom_product_contain_oxygen_bond_distance_aromatic_linkinvent_7_9_3/rearranged_h_0100.sdf

> <i_m_source_file_index>
64

> <r_mmod_Potential_Energy-OPLS-2005>
119.301200866699

> <r_mmod_Stretch_Energy-OPLS-2005>
87.0117263793945

> <r_mmod_Bend_Energy-OPLS-2005>
132.386535644531

> <r_mmod_Torsional_Energy-OPLS-2005>
300.284332275391

> <r_mmod_Improper_Torsional_Energy-OPLS-2005>
3.71174669265747

> <r_mmod_Van_der_Waal_Energy-OPLS-2005>
155.269409179688

> <r_mmod_Electrostatic_Energy-OPLS-2005>
-375.887634277344

> <r_mmod_Solvation_Energy-OPLS-2005>
-227.099044799805

> <b_mmod_Minimization_Converged-OPLS-2005>
0

> <r_mmod_RMS_Derivative-OPLS-2005>
0.695763826370239

$$$$
65
                    3D
 Structure written by MMmdl.
153161  0  0  1  0            999 V2000
  -30.7175  -14.6580   20.4578 C   0  0  0  0  0  0
  -30.3989  -12.3991   19.4776 C   0  0  0  0  0  0
  -29.4965  -12.4903   18.2327 C   0  0  0  0  0  0
  -28.0221  -12.3384   18.6444 C   0  0  0  0  0  0
  -27.6377  -13.2410   19.8486 C   0  0  2  0  0  0
  -28.6840  -13.1932   20.9854 C   0  0  0  0  0  0
  -25.2482  -13.8225   20.5716 C   0  0  0  0  0  0
  -24.1786  -13.0451   20.9220 C   0  0  0  0  0  0
  -24.6391  -11.6934   20.8759 C   0  0  0  0  0  0
  -23.9075  -10.4300   21.0408 C   0  0  0  0  0  0
  -24.3626   -9.4212   21.9183 C   0  0  0  0  0  0
  -23.6298   -8.2247   22.0752 C   0  0  0  0  0  0
  -22.4282   -8.0284   21.3542 C   0  0  0  0  0  0
  -21.9921   -9.0259   20.4645 C   0  0  0  0  0  0
  -22.7249  -10.2138   20.3056 C   0  0  0  0  0  0
  -21.6854   -6.0738   22.5278 C   0  0  0  0  0  0
  -21.4015   -6.5642   23.8212 C   0  0  0  0  0  0
  -21.3660   -5.6793   24.9174 C   0  0  0  0  0  0
  -21.6044   -4.3056   24.7224 C   0  0  0  0  0  0
  -21.8818   -3.8148   23.4345 C   0  0  0  0  0  0
  -21.9195   -4.6964   22.3402 C   0  0  0  0  0  0
  -22.7805  -13.5218   21.1868 C   0  0  0  0  0  0
  -22.1661   -4.2151   21.0978 F   0  0  0  0  0  0
  -21.5629   -3.4539   25.7735 F   0  0  0  0  0  0
  -29.9919  -13.4914   20.3940 N   0  0  0  0  0  0
  -26.2919  -12.9456   20.3302 N   0  0  0  0  0  0
  -25.9327  -11.6587   20.5773 N   0  0  0  0  0  0
  -22.0456  -12.8202   22.0424 N   0  0  0  0  0  0
  -25.4158  -15.1949   20.4118 N   0  0  0  0  0  0
  -31.9109  -14.5924   20.1575 O   0  0  0  0  0  0
  -21.6645   -6.8881   21.4240 O   0  0  0  0  0  0
  -22.3489  -14.5522   20.6711 O   0  0  0  0  0  0
  -24.6257  -31.8595   23.2039 C   0  0  0  0  0  0
  -25.9106  -32.4776   23.8361 C   0  0  1  0  0  0
  -27.2067  -27.3122   20.1322 C   0  0  0  0  0  0
  -25.5923  -33.8581   24.2288 N   0  0  0  0  0  0
  -23.4200  -30.4841   21.5449 C   0  0  2  0  0  0
  -24.8676  -28.9435   20.1049 C   0  0  0  0  0  0
  -22.7474  -29.4618   22.4925 C   0  0  0  0  0  0
  -18.0284  -28.1385   22.8480 C   0  0  0  0  0  0
  -24.1488  -36.7295   23.2637 C   0  0  0  0  0  0
  -25.9615  -30.7880   21.3782 C   0  0  0  0  0  0
  -26.0340  -29.4151   20.7224 C   0  0  0  0  0  0
  -27.2108  -28.6081   20.7321 C   0  0  0  0  0  0
  -26.0390  -26.9129   19.4522 C   0  0  0  0  0  0
  -24.8716  -27.6976   19.4584 C   0  0  0  0  0  0
  -23.6354  -29.8232   20.1579 C   0  0  0  0  0  0
  -25.4114  -36.3088   24.0326 C   0  0  1  0  0  0
  -20.5887  -28.3687   23.1280 C   0  0  2  0  0  0
  -20.6779  -26.9409   22.5409 C   0  0  0  0  0  0
  -19.5758  -26.6383   21.5212 C   0  0  0  0  0  0
  -18.1932  -26.7927   22.1619 C   0  0  0  0  0  0
  -19.1537  -28.8853   23.2873 C   0  0  0  0  0  0
  -18.9462  -30.1455   23.8892 C   0  0  0  0  0  0
  -17.6464  -30.6587   24.0560 C   0  0  0  0  0  0
  -25.9050  -34.9452   23.5109 C   0  0  0  0  0  0
  -16.5353  -29.9088   23.6328 C   0  0  0  0  0  0
  -16.7269  -28.6505   23.0349 C   0  0  0  0  0  0
  -26.4498  -31.6586   25.0730 C   0  0  0  0  0  0
  -25.3728  -31.3729   26.1456 C   0  0  0  0  0  0
  -27.0334  -30.3002   24.6189 C   0  0  0  0  0  0
  -27.6058  -32.4324   25.7497 C   0  0  0  0  0  0
  -27.5581  -37.1805   24.8466 C   0  0  0  0  0  0
  -21.4186  -29.3043   22.3672 N   0  0  0  0  0  0
  -26.4294  -37.3783   23.9410 N   0  0  0  0  0  0
  -24.6873  -31.0607   22.0989 N   0  0  0  0  0  0
  -23.4194  -28.8150   23.3003 O   0  0  0  0  0  0
  -28.2758  -26.4088   20.1819 O   0  0  0  0  0  0
  -26.5617  -34.8915   22.4675 O   0  0  0  0  0  0
  -23.5420  -32.1391   23.7368 O   0  0  0  0  0  0
  -30.8094  -19.6741   20.7870 C   0  0  0  0  0  0
  -30.3049  -21.0032   20.7751 C   0  0  0  0  0  0
  -28.6052  -18.7720   20.4859 C   0  0  0  0  0  0
  -29.9946  -18.5092   20.6311 C   0  0  0  0  0  0
  -28.9243  -21.2640   20.6254 C   0  0  0  0  0  0
  -28.0886  -20.1117   20.5011 C   0  0  0  0  0  0
  -30.6912  -17.1258   20.5084 C   0  0  0  0  0  0
  -28.8679  -23.8593   20.4504 C   0  0  0  0  0  0
  -26.6972  -24.8191   21.5102 C   0  0  0  0  0  0
  -28.1188  -25.1588   20.9912 C   0  0  2  0  0  0
  -28.3477  -22.6105   20.7023 N   0  0  0  0  0  0
  -30.0845  -15.8833   20.6382 N   0  0  0  0  0  0
  -31.9055  -17.2231   20.2898 O   0  0  0  0  0  0
  -29.9203  -24.0011   19.8217 O   0  0  0  0  0  0
  -26.7511  -20.2939   20.3872 F   0  0  0  0  0  0
  -31.4470  -12.4478   19.1786 H   0  0  0  0  0  0
  -30.2828  -11.4305   19.9669 H   0  0  0  0  0  0
  -29.7654  -11.7166   17.5122 H   0  0  0  0  0  0
  -29.6480  -13.4466   17.7290 H   0  0  0  0  0  0
  -27.8637  -11.2905   18.9017 H   0  0  0  0  0  0
  -27.3692  -12.5430   17.7955 H   0  0  0  0  0  0
  -27.6295  -14.2609   19.4635 H   0  0  0  0  0  0
  -28.6974  -12.2117   21.4619 H   0  0  0  0  0  0
  -28.4376  -13.9129   21.7676 H   0  0  0  0  0  0
  -25.2769   -9.5687   22.4762 H   0  0  0  0  0  0
  -24.0008   -7.4638   22.7470 H   0  0  0  0  0  0
  -21.0854   -8.8775   19.8950 H   0  0  0  0  0  0
  -22.3704  -10.9676   19.6168 H   0  0  0  0  0  0
  -21.2007   -7.6150   23.9714 H   0  0  0  0  0  0
  -21.1484   -6.0524   25.9075 H   0  0  0  0  0  0
  -22.0598   -2.7611   23.2844 H   0  0  0  0  0  0
  -22.4085  -11.9874   22.4818 H   0  0  0  0  0  0
  -21.1066  -13.1207   22.2619 H   0  0  0  0  0  0
  -24.6457  -15.8460   20.5176 H   0  0  0  0  0  0
  -26.2563  -15.6316   20.0574 H   0  0  0  0  0  0
  -26.7165  -32.5444   23.1099 H   0  0  0  0  0  0
  -25.0078  -33.9730   25.0439 H   0  0  0  0  0  0
  -22.7137  -31.3047   21.4032 H   0  0  0  0  0  0
  -23.3751  -35.9625   23.3305 H   0  0  0  0  0  0
  -24.3581  -36.8913   22.2053 H   0  0  0  0  0  0
  -23.7243  -37.6498   23.6656 H   0  0  0  0  0  0
  -26.0964  -31.5496   20.6089 H   0  0  0  0  0  0
  -26.8412  -30.8358   22.0083 H   0  0  0  0  0  0
  -28.1018  -28.9561   21.2353 H   0  0  0  0  0  0
  -26.0172  -25.9577   18.9471 H   0  0  0  0  0  0
  -23.9823  -27.3367   18.9603 H   0  0  0  0  0  0
  -23.7540  -30.6020   19.4037 H   0  0  0  0  0  0
  -22.7558  -29.2526   19.8540 H   0  0  0  0  0  0
  -25.1300  -36.1937   25.0817 H   0  0  0  0  0  0
  -20.9977  -28.3261   24.1402 H   0  0  0  0  0  0
  -20.5693  -26.2291   23.3605 H   0  0  0  0  0  0
  -21.6646  -26.7446   22.1196 H   0  0  0  0  0  0
  -19.6919  -25.6297   21.1236 H   0  0  0  0  0  0
  -19.6701  -27.3194   20.6741 H   0  0  0  0  0  0
  -17.4206  -26.6665   21.4018 H   0  0  0  0  0  0
  -18.0331  -26.0075   22.9021 H   0  0  0  0  0  0
  -19.7940  -30.7266   24.2264 H   0  0  0  0  0  0
  -17.5021  -31.6268   24.5162 H   0  0  0  0  0  0
  -15.5355  -30.2991   23.7665 H   0  0  0  0  0  0
  -15.8663  -28.0825   22.7076 H   0  0  0  0  0  0
  -24.5903  -30.7075   25.7789 H   0  0  0  0  0  0
  -24.8918  -32.2899   26.4870 H   0  0  0  0  0  0
  -25.8050  -30.8914   27.0236 H   0  0  0  0  0  0
  -26.2905  -29.6755   24.1211 H   0  0  0  0  0  0
  -27.4027  -29.7257   25.4697 H   0  0  0  0  0  0
  -27.8780  -30.4289   23.9416 H   0  0  0  0  0  0
  -27.2670  -33.3638   26.2048 H   0  0  0  0  0  0
  -28.3877  -32.6861   25.0327 H   0  0  0  0  0  0
  -28.0704  -31.8459   26.5435 H   0  0  0  0  0  0
  -28.2606  -38.0099   24.7511 H   0  0  0  0  0  0
  -28.1069  -36.2628   24.6293 H   0  0  0  0  0  0
  -27.2292  -37.1456   25.8868 H   0  0  0  0  0  0
  -20.9359  -29.8764   21.6885 H   0  0  0  0  0  0
  -26.0171  -38.2856   24.1408 H   0  0  0  0  0  0
  -31.8795  -19.5648   20.9008 H   0  0  0  0  0  0
  -30.9975  -21.8228   20.9029 H   0  0  0  0  0  0
  -27.9182  -17.9500   20.3509 H   0  0  0  0  0  0
  -26.2345  -25.6713   22.0079 H   0  0  0  0  0  0
  -26.7283  -24.0258   22.2570 H   0  0  0  0  0  0
  -26.0349  -24.4860   20.7114 H   0  0  0  0  0  0
  -28.6808  -25.4015   21.8937 H   0  0  0  0  0  0
  -27.3957  -22.6268   21.0416 H   0  0  0  0  0  0
  -29.0982  -15.8734   20.8315 H   0  0  0  0  0  0
  1 25  1  0  0  0
  1 30  2  0  0  0
  1 82  1  0  0  0
  2  3  1  0  0  0
  2 25  1  0  0  0
  2 86  1  0  0  0
  2 87  1  0  0  0
  3  4  1  0  0  0
  3 88  1  0  0  0
  3 89  1  0  0  0
  4  5  1  0  0  0
  4 90  1  0  0  0
  4 91  1  0  0  0
  5  6  1  0  0  0
  5 26  1  0  0  0
  5 92  1  0  0  0
  6 25  1  0  0  0
  6 93  1  0  0  0
  6 94  1  0  0  0
  7  8  2  0  0  0
  7 26  1  0  0  0
  7 29  1  0  0  0
  8  9  1  0  0  0
  8 22  1  0  0  0
  9 10  1  0  0  0
  9 27  2  0  0  0
 10 11  2  0  0  0
 10 15  1  0  0  0
 11 12  1  0  0  0
 11 95  1  0  0  0
 12 13  2  0  0  0
 12 96  1  0  0  0
 13 14  1  0  0  0
 13 31  1  0  0  0
 14 15  2  0  0  0
 14 97  1  0  0  0
 15 98  1  0  0  0
 16 17  2  0  0  0
 16 21  1  0  0  0
 16 31  1  0  0  0
 17 18  1  0  0  0
 17 99  1  0  0  0
 18 19  2  0  0  0
 18100  1  0  0  0
 19 20  1  0  0  0
 19 24  1  0  0  0
 20 21  2  0  0  0
 20101  1  0  0  0
 21 23  1  0  0  0
 22 28  1  0  0  0
 22 32  2  0  0  0
 26 27  1  0  0  0
 28102  1  0  0  0
 28103  1  0  0  0
 29104  1  0  0  0
 29105  1  0  0  0
 33 34  1  0  0  0
 33 66  1  0  0  0
 33 70  2  0  0  0
 34 36  1  0  0  0
 34 59  1  0  0  0
 34106  1  0  0  0
 35 44  2  0  0  0
 35 45  1  0  0  0
 35 68  1  0  0  0
 36 56  1  0  0  0
 36107  1  0  0  0
 37 39  1  0  0  0
 37 47  1  0  0  0
 37 66  1  0  0  0
 37108  1  0  0  0
 38 43  2  0  0  0
 38 46  1  0  0  0
 38 47  1  0  0  0
 39 64  1  0  0  0
 39 67  2  0  0  0
 40 52  1  0  0  0
 40 53  2  0  0  0
 40 58  1  0  0  0
 41109  1  0  0  0
 41110  1  0  0  0
 41111  1  0  0  0
 41 48  1  0  0  0
 42 43  1  0  0  0
 42 66  1  0  0  0
 42112  1  0  0  0
 42113  1  0  0  0
 43 44  1  0  0  0
 44114  1  0  0  0
 45 46  2  0  0  0
 45115  1  0  0  0
 46116  1  0  0  0
 47117  1  0  0  0
 47118  1  0  0  0
 48 56  1  0  0  0
 48 65  1  0  0  0
 48119  1  0  0  0
 49 50  1  0  0  0
 49 53  1  0  0  0
 49 64  1  0  0  0
 49120  1  0  0  0
 50 51  1  0  0  0
 50121  1  0  0  0
 50122  1  0  0  0
 51 52  1  0  0  0
 51123  1  0  0  0
 51124  1  0  0  0
 52125  1  0  0  0
 52126  1  0  0  0
 53 54  1  0  0  0
 54 55  2  0  0  0
 54127  1  0  0  0
 55 57  1  0  0  0
 55128  1  0  0  0
 56 69  2  0  0  0
 57 58  2  0  0  0
 57129  1  0  0  0
 58130  1  0  0  0
 59 60  1  0  0  0
 59 61  1  0  0  0
 59 62  1  0  0  0
 60131  1  0  0  0
 60132  1  0  0  0
 60133  1  0  0  0
 61134  1  0  0  0
 61135  1  0  0  0
 61136  1  0  0  0
 62137  1  0  0  0
 62138  1  0  0  0
 62139  1  0  0  0
 63 65  1  0  0  0
 63140  1  0  0  0
 63141  1  0  0  0
 63142  1  0  0  0
 64143  1  0  0  0
 65144  1  0  0  0
 68 80  1  0  0  0
 71 72  2  0  0  0
 71 74  1  0  0  0
 71145  1  0  0  0
 72 75  1  0  0  0
 72146  1  0  0  0
 73 74  2  0  0  0
 73 76  1  0  0  0
 73147  1  0  0  0
 74 77  1  0  0  0
 75 76  2  0  0  0
 75 81  1  0  0  0
 76 85  1  0  0  0
 77 82  1  0  0  0
 77 83  2  0  0  0
 78 80  1  0  0  0
 78 81  1  0  0  0
 78 84  2  0  0  0
 79148  1  0  0  0
 79149  1  0  0  0
 79150  1  0  0  0
 79 80  1  0  0  0
 80151  1  0  0  0
 81152  1  0  0  0
 82153  1  0  0  0
M  ISO  4   1 100  68 101  80 101  82 100
M  END
> <chiral flag>
0

> <version>
0

> <s_m_source_file>
/data/baiqing/PycharmProjects/Reinvent-master-3.2/result/LINK_invent/BTK/process_docking_weight1_custom_product_contain_oxygen_bond_distance_aromatic_linkinvent_7_9_3/rearranged_h_0100.sdf

> <i_m_source_file_index>
65

> <r_mmod_Potential_Energy-OPLS-2005>
28.4418468475342

> <r_mmod_Stretch_Energy-OPLS-2005>
91.9449462890625

> <r_mmod_Bend_Energy-OPLS-2005>
168.625457763672

> <r_mmod_Torsional_Energy-OPLS-2005>
264.355560302734

> <r_mmod_Improper_Torsional_Energy-OPLS-2005>
5.3709888458252

> <r_mmod_Van_der_Waal_Energy-OPLS-2005>
167.840835571289

> <r_mmod_Electrostatic_Energy-OPLS-2005>
-485.93603515625

> <r_mmod_Solvation_Energy-OPLS-2005>
-250.635452270508

> <b_mmod_Minimization_Converged-OPLS-2005>
0

> <r_mmod_RMS_Derivative-OPLS-2005>
0.750521659851074

$$$$
66
                    3D
 Structure written by MMmdl.
158166  0  0  1  0            999 V2000
  -30.7008  -14.4561   20.6302 C   0  0  0  0  0  0
  -30.4286  -12.3256   19.4061 C   0  0  0  0  0  0
  -29.4918  -12.5309   18.1983 C   0  0  0  0  0  0
  -28.0126  -12.3833   18.6144 C   0  0  0  0  0  0
  -27.6638  -13.2060   19.8833 C   0  0  2  0  0  0
  -28.7043  -12.9603   20.9960 C   0  0  0  0  0  0
  -25.2613  -13.8180   20.5698 C   0  0  0  0  0  0
  -24.1854  -13.0438   20.9149 C   0  0  0  0  0  0
  -24.6430  -11.6907   20.8743 C   0  0  0  0  0  0
  -23.9103  -10.4292   21.0402 C   0  0  0  0  0  0
  -24.3657   -9.4208   21.9191 C   0  0  0  0  0  0
  -23.6316   -8.2247   22.0755 C   0  0  0  0  0  0
  -22.4292   -8.0301   21.3537 C   0  0  0  0  0  0
  -21.9937   -9.0282   20.4647 C   0  0  0  0  0  0
  -22.7274  -10.2154   20.3054 C   0  0  0  0  0  0
  -21.6869   -6.0775   22.5285 C   0  0  0  0  0  0
  -21.4017   -6.5660   23.8225 C   0  0  0  0  0  0
  -21.3657   -5.6796   24.9174 C   0  0  0  0  0  0
  -21.6033   -4.3054   24.7206 C   0  0  0  0  0  0
  -21.8830   -3.8164   23.4320 C   0  0  0  0  0  0
  -21.9200   -4.7005   22.3389 C   0  0  0  0  0  0
  -22.7887  -13.5236   21.1823 C   0  0  0  0  0  0
  -22.1667   -4.2199   21.0968 F   0  0  0  0  0  0
  -21.5623   -3.4526   25.7712 F   0  0  0  0  0  0
  -30.0314  -13.2881   20.4453 N   0  0  0  0  0  0
  -26.3044  -12.9336   20.3412 N   0  0  0  0  0  0
  -25.9354  -11.6487   20.5793 N   0  0  0  0  0  0
  -22.0530  -12.8233   22.0389 N   0  0  0  0  0  0
  -25.4341  -15.1901   20.4190 N   0  0  0  0  0  0
  -31.8030  -14.6844   20.1209 O   0  0  0  0  0  0
  -21.6636   -6.8913   21.4239 O   0  0  0  0  0  0
  -22.3568  -14.5546   20.6692 O   0  0  0  0  0  0
  -24.6127  -31.8687   23.2086 C   0  0  0  0  0  0
  -25.9014  -32.4842   23.8392 C   0  0  1  0  0  0
  -27.2239  -27.4246   20.1059 C   0  0  0  0  0  0
  -25.5881  -33.8636   24.2336 N   0  0  0  0  0  0
  -23.4025  -30.4902   21.5491 C   0  0  2  0  0  0
  -24.8478  -28.9550   20.1145 C   0  0  0  0  0  0
  -22.7420  -29.4646   22.4981 C   0  0  0  0  0  0
  -18.0272  -28.1383   22.8472 C   0  0  0  0  0  0
  -24.1493  -36.7316   23.2641 C   0  0  0  0  0  0
  -25.9297  -30.8331   21.3601 C   0  0  0  0  0  0
  -26.0080  -29.4646   20.7130 C   0  0  0  0  0  0
  -27.2023  -28.7070   20.7033 C   0  0  0  0  0  0
  -26.0510  -26.9309   19.5002 C   0  0  0  0  0  0
  -24.8651  -27.6897   19.5033 C   0  0  0  0  0  0
  -23.6109  -29.8241   20.1629 C   0  0  0  0  0  0
  -25.4105  -36.3119   24.0347 C   0  0  1  0  0  0
  -20.5871  -28.3658   23.1328 C   0  0  2  0  0  0
  -20.6775  -26.9403   22.5412 C   0  0  0  0  0  0
  -19.5753  -26.6395   21.5211 C   0  0  0  0  0  0
  -18.1926  -26.7932   22.1611 C   0  0  0  0  0  0
  -19.1521  -28.8836   23.2896 C   0  0  0  0  0  0
  -18.9451  -30.1442   23.8910 C   0  0  0  0  0  0
  -17.6457  -30.6587   24.0564 C   0  0  0  0  0  0
  -25.9020  -34.9488   23.5139 C   0  0  0  0  0  0
  -16.5348  -29.9092   23.6322 C   0  0  0  0  0  0
  -16.7262  -28.6512   23.0331 C   0  0  0  0  0  0
  -26.4442  -31.6612   25.0715 C   0  0  0  0  0  0
  -25.3719  -31.3704   26.1482 C   0  0  0  0  0  0
  -27.0252  -30.3069   24.6022 C   0  0  0  0  0  0
  -27.6026  -32.4329   25.7480 C   0  0  0  0  0  0
  -27.5581  -37.1813   24.8467 C   0  0  0  0  0  0
  -21.4146  -29.3028   22.3745 N   0  0  0  0  0  0
  -26.4294  -37.3798   23.9409 N   0  0  0  0  0  0
  -24.6672  -31.0782   22.0984 N   0  0  0  0  0  0
  -23.4193  -28.8171   23.3009 O   0  0  0  0  0  0
  -28.3780  -26.6740   20.0934 O   0  0  0  0  0  0
  -26.5590  -34.8946   22.4706 O   0  0  0  0  0  0
  -23.5316  -32.1441   23.7475 O   0  0  0  0  0  0
  -30.6578  -18.9610   20.7341 C   0  0  0  0  0  0
  -27.9240  -19.3990   21.1432 C   0  0  0  0  0  0
  -30.0776  -20.1909   20.3374 C   0  0  0  0  0  0
  -29.8878  -17.9383   21.3329 C   0  0  0  0  0  0
  -28.6952  -20.4348   20.5644 C   0  0  0  0  0  0
  -28.5076  -18.1668   21.5225 C   0  0  0  0  0  0
  -30.9639  -21.2077   19.6367 C   0  0  0  0  0  0
  -30.5754  -16.6624   21.8430 C   0  0  0  0  0  0
  -28.1758  -24.1573   20.0379 C   0  0  0  0  0  0
  -28.4482  -22.8789   20.8781 C   0  0  0  0  0  0
  -28.3442  -25.4592   20.8650 C   0  0  0  0  0  0
  -28.0577  -21.6404   20.1906 N   0  0  0  0  0  0
  -30.0478  -15.3791   21.3586 N   0  0  0  0  0  0
  -27.7383  -17.2093   22.0948 F   0  0  0  0  0  0
  -31.4693  -12.4455   19.0988 H   0  0  0  0  0  0
  -30.3499  -11.3086   19.7915 H   0  0  0  0  0  0
  -29.7300  -11.8192   17.4079 H   0  0  0  0  0  0
  -29.6528  -13.5248   17.7768 H   0  0  0  0  0  0
  -27.8189  -11.3238   18.7865 H   0  0  0  0  0  0
  -27.3632  -12.6801   17.7910 H   0  0  0  0  0  0
  -27.7162  -14.2583   19.6052 H   0  0  0  0  0  0
  -28.6882  -11.9150   21.3060 H   0  0  0  0  0  0
  -28.4577  -13.5257   21.8955 H   0  0  0  0  0  0
  -25.2815   -9.5681   22.4747 H   0  0  0  0  0  0
  -24.0042   -7.4636   22.7457 H   0  0  0  0  0  0
  -21.0878   -8.8801   19.8940 H   0  0  0  0  0  0
  -22.3747  -10.9702   19.6151 H   0  0  0  0  0  0
  -21.2008   -7.6171   23.9749 H   0  0  0  0  0  0
  -21.1463   -6.0512   25.9088 H   0  0  0  0  0  0
  -22.0614   -2.7632   23.2793 H   0  0  0  0  0  0
  -22.4135  -11.9879   22.4754 H   0  0  0  0  0  0
  -21.1152  -13.1266   22.2583 H   0  0  0  0  0  0
  -24.6794  -15.8479   20.5817 H   0  0  0  0  0  0
  -26.3176  -15.6441   20.2220 H   0  0  0  0  0  0
  -26.7079  -32.5558   23.1158 H   0  0  0  0  0  0
  -25.0082  -33.9811   25.0511 H   0  0  0  0  0  0
  -22.6885  -31.3036   21.4061 H   0  0  0  0  0  0
  -23.3767  -35.9637   23.3312 H   0  0  0  0  0  0
  -24.3589  -36.8912   22.2051 H   0  0  0  0  0  0
  -23.7224  -37.6519   23.6640 H   0  0  0  0  0  0
  -26.0354  -31.5937   20.5840 H   0  0  0  0  0  0
  -26.8220  -30.8961   21.9713 H   0  0  0  0  0  0
  -28.1019  -29.0903   21.1660 H   0  0  0  0  0  0
  -26.0515  -25.9662   19.0172 H   0  0  0  0  0  0
  -23.9750  -27.2932   19.0347 H   0  0  0  0  0  0
  -23.7225  -30.5990   19.4029 H   0  0  0  0  0  0
  -22.7358  -29.2444   19.8653 H   0  0  0  0  0  0
  -25.1272  -36.2012   25.0837 H   0  0  0  0  0  0
  -20.9942  -28.3219   24.1458 H   0  0  0  0  0  0
  -20.5714  -26.2250   23.3578 H   0  0  0  0  0  0
  -21.6636  -26.7473   22.1180 H   0  0  0  0  0  0
  -19.6932  -25.6318   21.1214 H   0  0  0  0  0  0
  -19.6719  -27.3226   20.6763 H   0  0  0  0  0  0
  -17.4206  -26.6686   21.4008 H   0  0  0  0  0  0
  -18.0318  -26.0076   22.9004 H   0  0  0  0  0  0
  -19.7930  -30.7240   24.2307 H   0  0  0  0  0  0
  -17.5015  -31.6270   24.5160 H   0  0  0  0  0  0
  -15.5349  -30.2998   23.7644 H   0  0  0  0  0  0
  -15.8661  -28.0842   22.7039 H   0  0  0  0  0  0
  -24.5922  -30.7006   25.7841 H   0  0  0  0  0  0
  -24.8875  -32.2853   26.4912 H   0  0  0  0  0  0
  -25.8106  -30.8918   27.0247 H   0  0  0  0  0  0
  -26.2779  -29.6888   24.1045 H   0  0  0  0  0  0
  -27.4031  -29.7231   25.4414 H   0  0  0  0  0  0
  -27.8594  -30.4409   23.9137 H   0  0  0  0  0  0
  -27.2655  -33.3641   26.2041 H   0  0  0  0  0  0
  -28.3852  -32.6879   25.0323 H   0  0  0  0  0  0
  -28.0671  -31.8466   26.5412 H   0  0  0  0  0  0
  -28.2607  -38.0106   24.7519 H   0  0  0  0  0  0
  -28.1080  -36.2643   24.6300 H   0  0  0  0  0  0
  -27.2305  -37.1463   25.8873 H   0  0  0  0  0  0
  -20.9317  -29.8767   21.6983 H   0  0  0  0  0  0
  -26.0209  -38.2884   24.1419 H   0  0  0  0  0  0
  -31.7146  -18.7977   20.5811 H   0  0  0  0  0  0
  -26.8671  -19.5405   21.3150 H   0  0  0  0  0  0
  -30.3946  -21.7959   18.9154 H   0  0  0  0  0  0
  -31.7682  -20.7103   19.0943 H   0  0  0  0  0  0
  -31.4177  -21.8861   20.3582 H   0  0  0  0  0  0
  -30.4748  -16.6544   22.9301 H   0  0  0  0  0  0
  -31.6475  -16.7257   21.6594 H   0  0  0  0  0  0
  -27.1667  -24.1231   19.6298 H   0  0  0  0  0  0
  -28.8511  -24.1735   19.1812 H   0  0  0  0  0  0
  -27.8880  -22.9412   21.8132 H   0  0  0  0  0  0
  -29.5005  -22.8579   21.1627 H   0  0  0  0  0  0
  -27.5714  -25.5072   21.6354 H   0  0  0  0  0  0
  -29.2882  -25.4067   21.4093 H   0  0  0  0  0  0
  -27.0453  -21.5481   20.1390 H   0  0  0  0  0  0
  -29.1313  -15.1208   21.6941 H   0  0  0  0  0  0
  1 25  1  0  0  0
  1 30  2  0  0  0
  1 83  1  0  0  0
  2  3  1  0  0  0
  2 25  1  0  0  0
  2 85  1  0  0  0
  2 86  1  0  0  0
  3  4  1  0  0  0
  3 87  1  0  0  0
  3 88  1  0  0  0
  4  5  1  0  0  0
  4 89  1  0  0  0
  4 90  1  0  0  0
  5  6  1  0  0  0
  5 26  1  0  0  0
  5 91  1  0  0  0
  6 25  1  0  0  0
  6 92  1  0  0  0
  6 93  1  0  0  0
  7  8  2  0  0  0
  7 26  1  0  0  0
  7 29  1  0  0  0
  8  9  1  0  0  0
  8 22  1  0  0  0
  9 10  1  0  0  0
  9 27  2  0  0  0
 10 11  2  0  0  0
 10 15  1  0  0  0
 11 12  1  0  0  0
 11 94  1  0  0  0
 12 13  2  0  0  0
 12 95  1  0  0  0
 13 14  1  0  0  0
 13 31  1  0  0  0
 14 15  2  0  0  0
 14 96  1  0  0  0
 15 97  1  0  0  0
 16 17  2  0  0  0
 16 21  1  0  0  0
 16 31  1  0  0  0
 17 18  1  0  0  0
 17 98  1  0  0  0
 18 19  2  0  0  0
 18 99  1  0  0  0
 19 20  1  0  0  0
 19 24  1  0  0  0
 20 21  2  0  0  0
 20100  1  0  0  0
 21 23  1  0  0  0
 22 28  1  0  0  0
 22 32  2  0  0  0
 26 27  1  0  0  0
 28101  1  0  0  0
 28102  1  0  0  0
 29103  1  0  0  0
 29104  1  0  0  0
 33 34  1  0  0  0
 33 66  1  0  0  0
 33 70  2  0  0  0
 34 36  1  0  0  0
 34 59  1  0  0  0
 34105  1  0  0  0
 35 44  2  0  0  0
 35 45  1  0  0  0
 35 68  1  0  0  0
 36 56  1  0  0  0
 36106  1  0  0  0
 37 39  1  0  0  0
 37 47  1  0  0  0
 37 66  1  0  0  0
 37107  1  0  0  0
 38 43  2  0  0  0
 38 46  1  0  0  0
 38 47  1  0  0  0
 39 64  1  0  0  0
 39 67  2  0  0  0
 40 52  1  0  0  0
 40 53  2  0  0  0
 40 58  1  0  0  0
 41108  1  0  0  0
 41109  1  0  0  0
 41110  1  0  0  0
 41 48  1  0  0  0
 42 43  1  0  0  0
 42 66  1  0  0  0
 42111  1  0  0  0
 42112  1  0  0  0
 43 44  1  0  0  0
 44113  1  0  0  0
 45 46  2  0  0  0
 45114  1  0  0  0
 46115  1  0  0  0
 47116  1  0  0  0
 47117  1  0  0  0
 48 56  1  0  0  0
 48 65  1  0  0  0
 48118  1  0  0  0
 49 50  1  0  0  0
 49 53  1  0  0  0
 49 64  1  0  0  0
 49119  1  0  0  0
 50 51  1  0  0  0
 50120  1  0  0  0
 50121  1  0  0  0
 51 52  1  0  0  0
 51122  1  0  0  0
 51123  1  0  0  0
 52124  1  0  0  0
 52125  1  0  0  0
 53 54  1  0  0  0
 54 55  2  0  0  0
 54126  1  0  0  0
 55 57  1  0  0  0
 55127  1  0  0  0
 56 69  2  0  0  0
 57 58  2  0  0  0
 57128  1  0  0  0
 58129  1  0  0  0
 59 60  1  0  0  0
 59 61  1  0  0  0
 59 62  1  0  0  0
 60130  1  0  0  0
 60131  1  0  0  0
 60132  1  0  0  0
 61133  1  0  0  0
 61134  1  0  0  0
 61135  1  0  0  0
 62136  1  0  0  0
 62137  1  0  0  0
 62138  1  0  0  0
 63 65  1  0  0  0
 63139  1  0  0  0
 63140  1  0  0  0
 63141  1  0  0  0
 64142  1  0  0  0
 65143  1  0  0  0
 68 81  1  0  0  0
 71 73  2  0  0  0
 71 74  1  0  0  0
 71144  1  0  0  0
 72 75  2  0  0  0
 72 76  1  0  0  0
 72145  1  0  0  0
 73 75  1  0  0  0
 73 77  1  0  0  0
 74 76  2  0  0  0
 74 78  1  0  0  0
 75 82  1  0  0  0
 76 84  1  0  0  0
 77146  1  0  0  0
 77147  1  0  0  0
 77148  1  0  0  0
 78 83  1  0  0  0
 78149  1  0  0  0
 78150  1  0  0  0
 79 80  1  0  0  0
 79 81  1  0  0  0
 79151  1  0  0  0
 79152  1  0  0  0
 80 82  1  0  0  0
 80153  1  0  0  0
 80154  1  0  0  0
 81155  1  0  0  0
 81156  1  0  0  0
 82157  1  0  0  0
 83158  1  0  0  0
M  ISO  4   1 100  68 101  81 101  83 100
M  END
> <chiral flag>
0

> <version>
0

> <s_m_source_file>
/data/baiqing/PycharmProjects/Reinvent-master-3.2/result/LINK_invent/BTK/process_docking_weight1_custom_product_contain_oxygen_bond_distance_aromatic_linkinvent_7_9_3/rearranged_h_0100.sdf

> <i_m_source_file_index>
66

> <r_mmod_Potential_Energy-OPLS-2005>
-83.768928527832

> <r_mmod_Stretch_Energy-OPLS-2005>
38.4337043762207

> <r_mmod_Bend_Energy-OPLS-2005>
96.1016311645508

> <r_mmod_Torsional_Energy-OPLS-2005>
225.709732055664

> <r_mmod_Improper_Torsional_Energy-OPLS-2005>
6.89985370635986

> <r_mmod_Van_der_Waal_Energy-OPLS-2005>
146.823043823242

> <r_mmod_Electrostatic_Energy-OPLS-2005>
-402.617858886719

> <r_mmod_Solvation_Energy-OPLS-2005>
-206.730834960938

> <b_mmod_Minimization_Converged-OPLS-2005>
0

> <r_mmod_RMS_Derivative-OPLS-2005>
2.98958587646484

$$$$
67
                    3D
 Structure written by MMmdl.
158167  0  0  1  0            999 V2000
  -30.6261  -14.8030   20.4729 C   0  0  0  0  0  0
  -30.4282  -12.5009   19.4861 C   0  0  0  0  0  0
  -29.5127  -12.5280   18.2429 C   0  0  0  0  0  0
  -28.0391  -12.3469   18.6515 C   0  0  0  0  0  0
  -27.6381  -13.2464   19.8509 C   0  0  2  0  0  0
  -28.6824  -13.2150   20.9885 C   0  0  0  0  0  0
  -25.2479  -13.8221   20.5720 C   0  0  0  0  0  0
  -24.1780  -13.0443   20.9218 C   0  0  0  0  0  0
  -24.6395  -11.6923   20.8751 C   0  0  0  0  0  0
  -23.9080  -10.4290   21.0398 C   0  0  0  0  0  0
  -24.3628   -9.4212   21.9181 C   0  0  0  0  0  0
  -23.6297   -8.2250   22.0749 C   0  0  0  0  0  0
  -22.4285   -8.0280   21.3543 C   0  0  0  0  0  0
  -21.9922   -9.0252   20.4647 C   0  0  0  0  0  0
  -22.7250  -10.2132   20.3047 C   0  0  0  0  0  0
  -21.6859   -6.0735   22.5276 C   0  0  0  0  0  0
  -21.4025   -6.5635   23.8208 C   0  0  0  0  0  0
  -21.3656   -5.6787   24.9173 C   0  0  0  0  0  0
  -21.6044   -4.3047   24.7226 C   0  0  0  0  0  0
  -21.8810   -3.8146   23.4345 C   0  0  0  0  0  0
  -21.9197   -4.6962   22.3404 C   0  0  0  0  0  0
  -22.7797  -13.5213   21.1869 C   0  0  0  0  0  0
  -22.1661   -4.2139   21.0981 F   0  0  0  0  0  0
  -21.5629   -3.4535   25.7745 F   0  0  0  0  0  0
  -29.9758  -13.5825   20.3992 N   0  0  0  0  0  0
  -26.2919  -12.9461   20.3297 N   0  0  0  0  0  0
  -25.9335  -11.6593   20.5752 N   0  0  0  0  0  0
  -22.0446  -12.8191   22.0420 N   0  0  0  0  0  0
  -25.4143  -15.1946   20.4137 N   0  0  0  0  0  0
  -31.8160  -14.8372   20.1482 O   0  0  0  0  0  0
  -21.6641   -6.8882   21.4240 O   0  0  0  0  0  0
  -22.3482  -14.5518   20.6716 O   0  0  0  0  0  0
  -24.6346  -31.8558   23.1967 C   0  0  0  0  0  0
  -25.9161  -32.4761   23.8330 C   0  0  1  0  0  0
  -27.2062  -27.2317   20.1285 C   0  0  0  0  0  0
  -25.5937  -33.8549   24.2258 N   0  0  0  0  0  0
  -23.4313  -30.4778   21.5433 C   0  0  2  0  0  0
  -24.8799  -28.9289   20.1057 C   0  0  0  0  0  0
  -22.7520  -29.4592   22.4902 C   0  0  0  0  0  0
  -18.0290  -28.1385   22.8476 C   0  0  0  0  0  0
  -24.1479  -36.7264   23.2634 C   0  0  0  0  0  0
  -25.9820  -30.7563   21.3841 C   0  0  0  0  0  0
  -26.0550  -29.3788   20.7222 C   0  0  0  0  0  0
  -27.2242  -28.5410   20.7301 C   0  0  0  0  0  0
  -26.0191  -26.8803   19.4497 C   0  0  0  0  0  0
  -24.8699  -27.6880   19.4547 C   0  0  0  0  0  0
  -23.6501  -29.8146   20.1581 C   0  0  0  0  0  0
  -25.4109  -36.3069   24.0326 C   0  0  1  0  0  0
  -20.5898  -28.3696   23.1256 C   0  0  2  0  0  0
  -20.6769  -26.9414   22.5396 C   0  0  0  0  0  0
  -19.5743  -26.6390   21.5190 C   0  0  0  0  0  0
  -18.1930  -26.7927   22.1607 C   0  0  0  0  0  0
  -19.1544  -28.8855   23.2854 C   0  0  0  0  0  0
  -18.9468  -30.1460   23.8875 C   0  0  0  0  0  0
  -17.6458  -30.6579   24.0557 C   0  0  0  0  0  0
  -25.9035  -34.9434   23.5082 C   0  0  0  0  0  0
  -16.5356  -29.9064   23.6339 C   0  0  0  0  0  0
  -16.7276  -28.6492   23.0350 C   0  0  0  0  0  0
  -26.4497  -31.6579   25.0729 C   0  0  0  0  0  0
  -25.3707  -31.3795   26.1446 C   0  0  0  0  0  0
  -27.0322  -30.2980   24.6244 C   0  0  0  0  0  0
  -27.6054  -32.4315   25.7500 C   0  0  0  0  0  0
  -27.5575  -37.1793   24.8458 C   0  0  0  0  0  0
  -21.4216  -29.3040   22.3644 N   0  0  0  0  0  0
  -26.4276  -37.3780   23.9417 N   0  0  0  0  0  0
  -24.7021  -31.0471   22.0979 N   0  0  0  0  0  0
  -23.4229  -28.8135   23.2989 O   0  0  0  0  0  0
  -28.2061  -26.2220   20.2257 O   0  0  0  0  0  0
  -26.5624  -34.8924   22.4663 O   0  0  0  0  0  0
  -23.5483  -32.1345   23.7259 O   0  0  0  0  0  0
  -29.4724  -18.6290   20.6191 C   0  0  0  0  0  0
  -31.6996  -17.7278   20.9621 C   0  0  0  0  0  0
  -29.9306  -20.0308   20.6773 C   0  0  0  0  0  0
  -30.3341  -17.4382   20.7350 C   0  0  0  0  0  0
  -32.1877  -19.0464   21.0297 C   0  0  0  0  0  0
  -31.3340  -20.1686   20.8926 C   0  0  0  0  0  0
  -28.1156  -23.5903   20.6774 C   0  0  0  0  0  0
  -27.7280  -24.9396   20.6692 C   0  0  0  0  0  0
  -27.1568  -22.5647   21.2658 C   0  0  0  0  0  0
  -29.3337  -22.6985   20.2406 C   0  0  0  0  0  0
  -27.6698  -21.1339   20.9673 C   0  0  0  0  0  0
  -29.0736  -21.2332   20.6002 N   0  0  0  0  0  0
  -33.5527  -19.2572   21.2611 N   0  0  0  0  0  0
  -31.9379  -21.4136   21.0743 N   0  0  0  0  0  0
  -29.8998  -15.9894   20.6841 N   0  0  0  0  0  0
  -31.4698  -12.6153   19.1825 H   0  0  0  0  0  0
  -30.3733  -11.5326   19.9867 H   0  0  0  0  0  0
  -29.8071  -11.7508   17.5372 H   0  0  0  0  0  0
  -29.6367  -13.4787   17.7222 H   0  0  0  0  0  0
  -27.8941  -11.2977   18.9113 H   0  0  0  0  0  0
  -27.3860  -12.5425   17.8003 H   0  0  0  0  0  0
  -27.6213  -14.2648   19.4621 H   0  0  0  0  0  0
  -28.7316  -12.2238   21.4414 H   0  0  0  0  0  0
  -28.4037  -13.9035   21.7892 H   0  0  0  0  0  0
  -25.2774   -9.5674   22.4759 H   0  0  0  0  0  0
  -23.9996   -7.4638   22.7463 H   0  0  0  0  0  0
  -21.0856   -8.8779   19.8948 H   0  0  0  0  0  0
  -22.3718  -10.9671   19.6145 H   0  0  0  0  0  0
  -21.2018   -7.6140   23.9708 H   0  0  0  0  0  0
  -21.1489   -6.0522   25.9074 H   0  0  0  0  0  0
  -22.0597   -2.7605   23.2856 H   0  0  0  0  0  0
  -22.4060  -11.9847   22.4806 H   0  0  0  0  0  0
  -21.1047  -13.1192   22.2606 H   0  0  0  0  0  0
  -24.6440  -15.8458   20.5215 H   0  0  0  0  0  0
  -26.2548  -15.6358   20.0639 H   0  0  0  0  0  0
  -26.7237  -32.5406   23.1075 H   0  0  0  0  0  0
  -25.0101  -33.9688   25.0409 H   0  0  0  0  0  0
  -22.7293  -31.3020   21.4029 H   0  0  0  0  0  0
  -23.3735  -35.9596   23.3290 H   0  0  0  0  0  0
  -24.3551  -36.8880   22.2045 H   0  0  0  0  0  0
  -23.7233  -37.6462   23.6662 H   0  0  0  0  0  0
  -26.1241  -31.5161   20.6144 H   0  0  0  0  0  0
  -26.8602  -30.8064   22.0171 H   0  0  0  0  0  0
  -28.1146  -28.8678   21.2495 H   0  0  0  0  0  0
  -25.9520  -25.9215   18.9555 H   0  0  0  0  0  0
  -23.9745  -27.3410   18.9557 H   0  0  0  0  0  0
  -23.7739  -30.5952   19.4054 H   0  0  0  0  0  0
  -22.7663  -29.2511   19.8497 H   0  0  0  0  0  0
  -25.1295  -36.1910   25.0826 H   0  0  0  0  0  0
  -20.9994  -28.3275   24.1371 H   0  0  0  0  0  0
  -20.5615  -26.2310   23.3592 H   0  0  0  0  0  0
  -21.6647  -26.7402   22.1233 H   0  0  0  0  0  0
  -19.6881  -25.6294   21.1220 H   0  0  0  0  0  0
  -19.6686  -27.3191   20.6723 H   0  0  0  0  0  0
  -17.4204  -26.6665   21.4016 H   0  0  0  0  0  0
  -18.0340  -26.0064   22.9006 H   0  0  0  0  0  0
  -19.7941  -30.7279   24.2228 H   0  0  0  0  0  0
  -17.5018  -31.6257   24.5161 H   0  0  0  0  0  0
  -15.5347  -30.2965   23.7667 H   0  0  0  0  0  0
  -15.8676  -28.0800   22.7087 H   0  0  0  0  0  0
  -24.5906  -30.7092   25.7819 H   0  0  0  0  0  0
  -24.8856  -32.2986   26.4760 H   0  0  0  0  0  0
  -25.8004  -30.9094   27.0297 H   0  0  0  0  0  0
  -26.2920  -29.6751   24.1215 H   0  0  0  0  0  0
  -27.3893  -29.7248   25.4798 H   0  0  0  0  0  0
  -27.8856  -30.4189   23.9565 H   0  0  0  0  0  0
  -27.2692  -33.3665   26.1989 H   0  0  0  0  0  0
  -28.3926  -32.6770   25.0366 H   0  0  0  0  0  0
  -28.0635  -31.8476   26.5484 H   0  0  0  0  0  0
  -28.2607  -38.0074   24.7521 H   0  0  0  0  0  0
  -28.1075  -36.2619   24.6290 H   0  0  0  0  0  0
  -27.2302  -37.1455   25.8861 H   0  0  0  0  0  0
  -20.9392  -29.8773   21.6860 H   0  0  0  0  0  0
  -26.0140  -38.2850   24.1426 H   0  0  0  0  0  0
  -28.4174  -18.4609   20.4709 H   0  0  0  0  0  0
  -32.4092  -16.9318   21.1115 H   0  0  0  0  0  0
  -26.7648  -25.0984   21.1371 H   0  0  0  0  0  0
  -26.1502  -22.7036   20.8720 H   0  0  0  0  0  0
  -27.1072  -22.7240   22.3447 H   0  0  0  0  0  0
  -30.2239  -23.1165   20.7021 H   0  0  0  0  0  0
  -29.4539  -22.7816   19.1601 H   0  0  0  0  0  0
  -27.1177  -20.6980   20.1322 H   0  0  0  0  0  0
  -27.5195  -20.4848   21.8314 H   0  0  0  0  0  0
  -34.1830  -18.5056   21.0019 H   0  0  0  0  0  0
  -33.8865  -20.1528   20.9215 H   0  0  0  0  0  0
  -31.2797  -22.1067   21.4048 H   0  0  0  0  0  0
  -32.7330  -21.3352   21.6962 H   0  0  0  0  0  0
  -28.9087  -15.8375   20.7971 H   0  0  0  0  0  0
  1 25  1  0  0  0
  1 30  2  0  0  0
  1 85  1  0  0  0
  2  3  1  0  0  0
  2 25  1  0  0  0
  2 86  1  0  0  0
  2 87  1  0  0  0
  3  4  1  0  0  0
  3 88  1  0  0  0
  3 89  1  0  0  0
  4  5  1  0  0  0
  4 90  1  0  0  0
  4 91  1  0  0  0
  5  6  1  0  0  0
  5 26  1  0  0  0
  5 92  1  0  0  0
  6 25  1  0  0  0
  6 93  1  0  0  0
  6 94  1  0  0  0
  7  8  2  0  0  0
  7 26  1  0  0  0
  7 29  1  0  0  0
  8  9  1  0  0  0
  8 22  1  0  0  0
  9 10  1  0  0  0
  9 27  2  0  0  0
 10 11  2  0  0  0
 10 15  1  0  0  0
 11 12  1  0  0  0
 11 95  1  0  0  0
 12 13  2  0  0  0
 12 96  1  0  0  0
 13 14  1  0  0  0
 13 31  1  0  0  0
 14 15  2  0  0  0
 14 97  1  0  0  0
 15 98  1  0  0  0
 16 17  2  0  0  0
 16 21  1  0  0  0
 16 31  1  0  0  0
 17 18  1  0  0  0
 17 99  1  0  0  0
 18 19  2  0  0  0
 18100  1  0  0  0
 19 20  1  0  0  0
 19 24  1  0  0  0
 20 21  2  0  0  0
 20101  1  0  0  0
 21 23  1  0  0  0
 22 28  1  0  0  0
 22 32  2  0  0  0
 26 27  1  0  0  0
 28102  1  0  0  0
 28103  1  0  0  0
 29104  1  0  0  0
 29105  1  0  0  0
 33 34  1  0  0  0
 33 66  1  0  0  0
 33 70  2  0  0  0
 34 36  1  0  0  0
 34 59  1  0  0  0
 34106  1  0  0  0
 35 44  2  0  0  0
 35 45  1  0  0  0
 35 68  1  0  0  0
 36 56  1  0  0  0
 36107  1  0  0  0
 37 39  1  0  0  0
 37 47  1  0  0  0
 37 66  1  0  0  0
 37108  1  0  0  0
 38 43  2  0  0  0
 38 46  1  0  0  0
 38 47  1  0  0  0
 39 64  1  0  0  0
 39 67  2  0  0  0
 40 52  1  0  0  0
 40 53  2  0  0  0
 40 58  1  0  0  0
 41109  1  0  0  0
 41110  1  0  0  0
 41111  1  0  0  0
 41 48  1  0  0  0
 42 43  1  0  0  0
 42 66  1  0  0  0
 42112  1  0  0  0
 42113  1  0  0  0
 43 44  1  0  0  0
 44114  1  0  0  0
 45 46  2  0  0  0
 45115  1  0  0  0
 46116  1  0  0  0
 47117  1  0  0  0
 47118  1  0  0  0
 48 56  1  0  0  0
 48 65  1  0  0  0
 48119  1  0  0  0
 49 50  1  0  0  0
 49 53  1  0  0  0
 49 64  1  0  0  0
 49120  1  0  0  0
 50 51  1  0  0  0
 50121  1  0  0  0
 50122  1  0  0  0
 51 52  1  0  0  0
 51123  1  0  0  0
 51124  1  0  0  0
 52125  1  0  0  0
 52126  1  0  0  0
 53 54  1  0  0  0
 54 55  2  0  0  0
 54127  1  0  0  0
 55 57  1  0  0  0
 55128  1  0  0  0
 56 69  2  0  0  0
 57 58  2  0  0  0
 57129  1  0  0  0
 58130  1  0  0  0
 59 60  1  0  0  0
 59 61  1  0  0  0
 59 62  1  0  0  0
 60131  1  0  0  0
 60132  1  0  0  0
 60133  1  0  0  0
 61134  1  0  0  0
 61135  1  0  0  0
 61136  1  0  0  0
 62137  1  0  0  0
 62138  1  0  0  0
 62139  1  0  0  0
 63 65  1  0  0  0
 63140  1  0  0  0
 63141  1  0  0  0
 63142  1  0  0  0
 64143  1  0  0  0
 65144  1  0  0  0
 68 78  1  0  0  0
 71 73  2  0  0  0
 71 74  1  0  0  0
 71145  1  0  0  0
 72 74  2  0  0  0
 72 75  1  0  0  0
 72146  1  0  0  0
 73 76  1  0  0  0
 73 82  1  0  0  0
 74 85  1  0  0  0
 75 76  2  0  0  0
 75 83  1  0  0  0
 76 84  1  0  0  0
 77 78  2  0  0  0
 77 79  1  0  0  0
 77 80  1  0  0  0
 78147  1  0  0  0
 79 81  1  0  0  0
 79148  1  0  0  0
 79149  1  0  0  0
 80 82  1  0  0  0
 80150  1  0  0  0
 80151  1  0  0  0
 81 82  1  0  0  0
 81152  1  0  0  0
 81153  1  0  0  0
 83154  1  0  0  0
 83155  1  0  0  0
 84156  1  0  0  0
 84157  1  0  0  0
 85158  1  0  0  0
M  ISO  4   1 100  68 101  78 101  85 100
M  END
> <chiral flag>
0

> <version>
0

> <s_m_source_file>
/data/baiqing/PycharmProjects/Reinvent-master-3.2/result/LINK_invent/BTK/process_docking_weight1_custom_product_contain_oxygen_bond_distance_aromatic_linkinvent_7_9_3/rearranged_h_0100.sdf

> <i_m_source_file_index>
67

> <r_mmod_Potential_Energy-OPLS-2005>
282.750854492188

> <r_mmod_Stretch_Energy-OPLS-2005>
154.093078613281

> <r_mmod_Bend_Energy-OPLS-2005>
270.111175537109

> <r_mmod_Torsional_Energy-OPLS-2005>
248.869354248047

> <r_mmod_Improper_Torsional_Energy-OPLS-2005>
15.8932580947876

> <r_mmod_Van_der_Waal_Energy-OPLS-2005>
162.85595703125

> <r_mmod_Electrostatic_Energy-OPLS-2005>
-452.197906494141

> <r_mmod_Solvation_Energy-OPLS-2005>
-237.346649169922

> <b_mmod_Minimization_Converged-OPLS-2005>
0

> <r_mmod_RMS_Derivative-OPLS-2005>
3.5536208152771

$$$$
68
                    3D
 Structure written by MMmdl.
159167  0  0  1  0            999 V2000
  -30.7156  -14.4769   20.5862 C   0  0  0  0  0  0
  -30.4207  -12.3194   19.4179 C   0  0  0  0  0  0
  -29.4874  -12.4937   18.2028 C   0  0  0  0  0  0
  -28.0131  -12.3505   18.6255 C   0  0  0  0  0  0
  -27.6591  -13.2077   19.8700 C   0  0  2  0  0  0
  -28.7020  -13.0092   20.9924 C   0  0  0  0  0  0
  -25.2579  -13.8175   20.5674 C   0  0  0  0  0  0
  -24.1838  -13.0448   20.9193 C   0  0  0  0  0  0
  -24.6401  -11.6918   20.8768 C   0  0  0  0  0  0
  -23.9076  -10.4304   21.0436 C   0  0  0  0  0  0
  -24.3627   -9.4214   21.9207 C   0  0  0  0  0  0
  -23.6299   -8.2251   22.0768 C   0  0  0  0  0  0
  -22.4282   -8.0295   21.3554 C   0  0  0  0  0  0
  -21.9925   -9.0274   20.4658 C   0  0  0  0  0  0
  -22.7259  -10.2148   20.3076 C   0  0  0  0  0  0
  -21.6845   -6.0745   22.5281 C   0  0  0  0  0  0
  -21.4014   -6.5649   23.8219 C   0  0  0  0  0  0
  -21.3652   -5.6800   24.9180 C   0  0  0  0  0  0
  -21.6040   -4.3062   24.7230 C   0  0  0  0  0  0
  -21.8816   -3.8156   23.4353 C   0  0  0  0  0  0
  -21.9195   -4.6974   22.3407 C   0  0  0  0  0  0
  -22.7859  -13.5246   21.1850 C   0  0  0  0  0  0
  -22.1656   -4.2159   21.0983 F   0  0  0  0  0  0
  -21.5629   -3.4545   25.7742 F   0  0  0  0  0  0
  -30.0292  -13.3116   20.4321 N   0  0  0  0  0  0
  -26.3011  -12.9340   20.3357 N   0  0  0  0  0  0
  -25.9326  -11.6503   20.5803 N   0  0  0  0  0  0
  -22.0494  -12.8232   22.0400 N   0  0  0  0  0  0
  -25.4302  -15.1883   20.4038 N   0  0  0  0  0  0
  -31.8354  -14.6573   20.0998 O   0  0  0  0  0  0
  -21.6635   -6.8894   21.4249 O   0  0  0  0  0  0
  -22.3554  -14.5560   20.6712 O   0  0  0  0  0  0
  -24.6133  -31.8675   23.2080 C   0  0  0  0  0  0
  -25.9033  -32.4822   23.8367 C   0  0  1  0  0  0
  -27.2326  -27.4272   20.1032 C   0  0  0  0  0  0
  -25.5880  -33.8614   24.2306 N   0  0  0  0  0  0
  -23.4012  -30.4890   21.5498 C   0  0  2  0  0  0
  -24.8488  -28.9511   20.1178 C   0  0  0  0  0  0
  -22.7399  -29.4651   22.5007 C   0  0  0  0  0  0
  -18.0263  -28.1354   22.8498 C   0  0  0  0  0  0
  -24.1491  -36.7315   23.2643 C   0  0  0  0  0  0
  -25.9294  -30.8329   21.3605 C   0  0  0  0  0  0
  -26.0096  -29.4659   20.7075 C   0  0  0  0  0  0
  -27.2080  -28.7139   20.6921 C   0  0  0  0  0  0
  -26.0565  -26.9243   19.5116 C   0  0  0  0  0  0
  -24.8661  -27.6787   19.5180 C   0  0  0  0  0  0
  -23.6093  -29.8171   20.1665 C   0  0  0  0  0  0
  -25.4114  -36.3105   24.0335 C   0  0  1  0  0  0
  -20.5859  -28.3650   23.1327 C   0  0  2  0  0  0
  -20.6761  -26.9392   22.5423 C   0  0  0  0  0  0
  -19.5745  -26.6381   21.5211 C   0  0  0  0  0  0
  -18.1912  -26.7906   22.1611 C   0  0  0  0  0  0
  -19.1514  -28.8815   23.2904 C   0  0  0  0  0  0
  -18.9451  -30.1416   23.8925 C   0  0  0  0  0  0
  -17.6462  -30.6577   24.0555 C   0  0  0  0  0  0
  -25.9038  -34.9471   23.5122 C   0  0  0  0  0  0
  -16.5344  -29.9090   23.6315 C   0  0  0  0  0  0
  -16.7261  -28.6488   23.0369 C   0  0  0  0  0  0
  -26.4465  -31.6602   25.0689 C   0  0  0  0  0  0
  -25.3729  -31.3707   26.1434 C   0  0  0  0  0  0
  -27.0315  -30.3046   24.6075 C   0  0  0  0  0  0
  -27.6029  -32.4329   25.7467 C   0  0  0  0  0  0
  -27.5589  -37.1818   24.8463 C   0  0  0  0  0  0
  -21.4134  -29.3014   22.3739 N   0  0  0  0  0  0
  -26.4303  -37.3793   23.9407 N   0  0  0  0  0  0
  -24.6660  -31.0763   22.0991 N   0  0  0  0  0  0
  -23.4175  -28.8199   23.3054 O   0  0  0  0  0  0
  -28.3947  -26.6860   20.0827 O   0  0  0  0  0  0
  -26.5619  -34.8919   22.4692 O   0  0  0  0  0  0
  -23.5327  -32.1448   23.7477 O   0  0  0  0  0  0
  -28.7529  -18.1397   20.7907 C   0  0  0  0  0  0
  -28.2553  -19.3794   20.3192 C   0  0  0  0  0  0
  -30.9503  -19.1049   20.9732 C   0  0  0  0  0  0
  -30.1146  -17.9714   21.1506 C   0  0  0  0  0  0
  -29.0939  -20.5094   20.2043 C   0  0  0  0  0  0
  -30.4622  -20.3491   20.5194 C   0  0  0  0  0  0
  -30.4221  -16.8068   23.2495 C   0  0  0  0  0  0
  -31.3740  -17.6594   24.0793 C   0  0  0  0  0  0
  -28.3892  -24.1746   19.8345 C   0  0  0  0  0  0
  -28.3557  -25.4172   20.7648 C   0  0  0  0  0  0
  -28.6689  -22.8454   20.5920 C   0  0  0  0  0  0
  -30.6937  -16.6983   21.7369 C   0  0  1  0  0  0
  -30.0710  -15.4639   21.2310 N   0  0  0  0  0  0
  -29.4806  -16.2311   23.8056 O   0  0  0  0  0  0
  -28.5709  -21.7017   19.7301 O   0  0  0  0  0  0
  -31.3250  -21.3829   20.3760 F   0  0  0  0  0  0
  -31.4634  -12.4209   19.1109 H   0  0  0  0  0  0
  -30.3309  -11.3129   19.8291 H   0  0  0  0  0  0
  -29.7242  -11.7523   17.4386 H   0  0  0  0  0  0
  -29.6466  -13.4712   17.7455 H   0  0  0  0  0  0
  -27.8371  -11.2961   18.8419 H   0  0  0  0  0  0
  -27.3541  -12.6024   17.7939 H   0  0  0  0  0  0
  -27.6996  -14.2514   19.5562 H   0  0  0  0  0  0
  -28.6853  -11.9793   21.3523 H   0  0  0  0  0  0
  -28.4591  -13.6245   21.8597 H   0  0  0  0  0  0
  -25.2768   -9.5671   22.4793 H   0  0  0  0  0  0
  -23.9996   -7.4634   22.7486 H   0  0  0  0  0  0
  -21.0859   -8.8812   19.8959 H   0  0  0  0  0  0
  -22.3741  -10.9700   19.6192 H   0  0  0  0  0  0
  -21.2007   -7.6156   23.9727 H   0  0  0  0  0  0
  -21.1469   -6.0528   25.9080 H   0  0  0  0  0  0
  -22.0603   -2.7620   23.2853 H   0  0  0  0  0  0
  -22.4095  -11.9874   22.4757 H   0  0  0  0  0  0
  -21.1130  -13.1281   22.2647 H   0  0  0  0  0  0
  -24.6625  -15.8430   20.5067 H   0  0  0  0  0  0
  -26.2734  -15.6208   20.0483 H   0  0  0  0  0  0
  -26.7105  -32.5549   23.1142 H   0  0  0  0  0  0
  -24.9990  -33.9771   25.0420 H   0  0  0  0  0  0
  -22.6892  -31.3051   21.4101 H   0  0  0  0  0  0
  -23.3749  -35.9651   23.3297 H   0  0  0  0  0  0
  -24.3575  -36.8938   22.2056 H   0  0  0  0  0  0
  -23.7254  -37.6515   23.6674 H   0  0  0  0  0  0
  -26.0399  -31.6001   20.5911 H   0  0  0  0  0  0
  -26.8154  -30.8852   21.9810 H   0  0  0  0  0  0
  -28.1068  -29.1100   21.1455 H   0  0  0  0  0  0
  -26.0585  -25.9525   19.0398 H   0  0  0  0  0  0
  -23.9729  -27.2726   19.0634 H   0  0  0  0  0  0
  -23.7151  -30.5910   19.4057 H   0  0  0  0  0  0
  -22.7318  -29.2364   19.8739 H   0  0  0  0  0  0
  -25.1295  -36.1970   25.0831 H   0  0  0  0  0  0
  -20.9935  -28.3241   24.1456 H   0  0  0  0  0  0
  -20.5662  -26.2271   23.3615 H   0  0  0  0  0  0
  -21.6631  -26.7458   22.1214 H   0  0  0  0  0  0
  -19.6914  -25.6299   21.1225 H   0  0  0  0  0  0
  -19.6665  -27.3197   20.6744 H   0  0  0  0  0  0
  -17.4181  -26.6644   21.4007 H   0  0  0  0  0  0
  -18.0300  -26.0034   22.8996 H   0  0  0  0  0  0
  -19.7933  -30.7192   24.2329 H   0  0  0  0  0  0
  -17.5031  -31.6267   24.5148 H   0  0  0  0  0  0
  -15.5350  -30.3010   23.7622 H   0  0  0  0  0  0
  -15.8655  -28.0810   22.7117 H   0  0  0  0  0  0
  -24.5892  -30.7083   25.7763 H   0  0  0  0  0  0
  -24.8933  -32.2860   26.4905 H   0  0  0  0  0  0
  -25.8053  -30.8852   27.0192 H   0  0  0  0  0  0
  -26.2869  -29.6784   24.1152 H   0  0  0  0  0  0
  -27.4117  -29.7312   25.4543 H   0  0  0  0  0  0
  -27.8686  -30.4362   23.9211 H   0  0  0  0  0  0
  -27.2631  -33.3626   26.2052 H   0  0  0  0  0  0
  -28.3835  -32.6900   25.0292 H   0  0  0  0  0  0
  -28.0694  -31.8440   26.5377 H   0  0  0  0  0  0
  -28.2615  -38.0114   24.7530 H   0  0  0  0  0  0
  -28.1076  -36.2648   24.6274 H   0  0  0  0  0  0
  -27.2288  -37.1448   25.8859 H   0  0  0  0  0  0
  -20.9293  -29.8760   21.6980 H   0  0  0  0  0  0
  -26.0188  -38.2873   24.1394 H   0  0  0  0  0  0
  -28.0630  -17.3142   20.8967 H   0  0  0  0  0  0
  -27.2098  -19.4683   20.0622 H   0  0  0  0  0  0
  -32.0026  -19.0336   21.2089 H   0  0  0  0  0  0
  -31.3484  -18.6950   23.7437 H   0  0  0  0  0  0
  -32.3943  -17.2878   23.9842 H   0  0  0  0  0  0
  -31.0946  -17.6319   25.1316 H   0  0  0  0  0  0
  -29.1592  -24.3141   19.0747 H   0  0  0  0  0  0
  -27.4434  -24.0955   19.3001 H   0  0  0  0  0  0
  -29.2344  -25.3908   21.4099 H   0  0  0  0  0  0
  -27.5042  -25.3525   21.4441 H   0  0  0  0  0  0
  -27.9378  -22.7238   21.3926 H   0  0  0  0  0  0
  -29.6425  -22.9075   21.0749 H   0  0  0  0  0  0
  -31.7744  -16.6720   21.5846 H   0  0  0  0  0  0
  -29.1678  -15.2398   21.6188 H   0  0  0  0  0  0
  1 25  1  0  0  0
  1 30  2  0  0  0
  1 83  1  0  0  0
  2  3  1  0  0  0
  2 25  1  0  0  0
  2 87  1  0  0  0
  2 88  1  0  0  0
  3  4  1  0  0  0
  3 89  1  0  0  0
  3 90  1  0  0  0
  4  5  1  0  0  0
  4 91  1  0  0  0
  4 92  1  0  0  0
  5  6  1  0  0  0
  5 26  1  0  0  0
  5 93  1  0  0  0
  6 25  1  0  0  0
  6 94  1  0  0  0
  6 95  1  0  0  0
  7  8  2  0  0  0
  7 26  1  0  0  0
  7 29  1  0  0  0
  8  9  1  0  0  0
  8 22  1  0  0  0
  9 10  1  0  0  0
  9 27  2  0  0  0
 10 11  2  0  0  0
 10 15  1  0  0  0
 11 12  1  0  0  0
 11 96  1  0  0  0
 12 13  2  0  0  0
 12 97  1  0  0  0
 13 14  1  0  0  0
 13 31  1  0  0  0
 14 15  2  0  0  0
 14 98  1  0  0  0
 15 99  1  0  0  0
 16 17  2  0  0  0
 16 21  1  0  0  0
 16 31  1  0  0  0
 17 18  1  0  0  0
 17100  1  0  0  0
 18 19  2  0  0  0
 18101  1  0  0  0
 19 20  1  0  0  0
 19 24  1  0  0  0
 20 21  2  0  0  0
 20102  1  0  0  0
 21 23  1  0  0  0
 22 28  1  0  0  0
 22 32  2  0  0  0
 26 27  1  0  0  0
 28103  1  0  0  0
 28104  1  0  0  0
 29105  1  0  0  0
 29106  1  0  0  0
 33 34  1  0  0  0
 33 66  1  0  0  0
 33 70  2  0  0  0
 34 36  1  0  0  0
 34 59  1  0  0  0
 34107  1  0  0  0
 35 44  2  0  0  0
 35 45  1  0  0  0
 35 68  1  0  0  0
 36 56  1  0  0  0
 36108  1  0  0  0
 37 39  1  0  0  0
 37 47  1  0  0  0
 37 66  1  0  0  0
 37109  1  0  0  0
 38 43  2  0  0  0
 38 46  1  0  0  0
 38 47  1  0  0  0
 39 64  1  0  0  0
 39 67  2  0  0  0
 40 52  1  0  0  0
 40 53  2  0  0  0
 40 58  1  0  0  0
 41110  1  0  0  0
 41111  1  0  0  0
 41112  1  0  0  0
 41 48  1  0  0  0
 42 43  1  0  0  0
 42 66  1  0  0  0
 42113  1  0  0  0
 42114  1  0  0  0
 43 44  1  0  0  0
 44115  1  0  0  0
 45 46  2  0  0  0
 45116  1  0  0  0
 46117  1  0  0  0
 47118  1  0  0  0
 47119  1  0  0  0
 48 56  1  0  0  0
 48 65  1  0  0  0
 48120  1  0  0  0
 49 50  1  0  0  0
 49 53  1  0  0  0
 49 64  1  0  0  0
 49121  1  0  0  0
 50 51  1  0  0  0
 50122  1  0  0  0
 50123  1  0  0  0
 51 52  1  0  0  0
 51124  1  0  0  0
 51125  1  0  0  0
 52126  1  0  0  0
 52127  1  0  0  0
 53 54  1  0  0  0
 54 55  2  0  0  0
 54128  1  0  0  0
 55 57  1  0  0  0
 55129  1  0  0  0
 56 69  2  0  0  0
 57 58  2  0  0  0
 57130  1  0  0  0
 58131  1  0  0  0
 59 60  1  0  0  0
 59 61  1  0  0  0
 59 62  1  0  0  0
 60132  1  0  0  0
 60133  1  0  0  0
 60134  1  0  0  0
 61135  1  0  0  0
 61136  1  0  0  0
 61137  1  0  0  0
 62138  1  0  0  0
 62139  1  0  0  0
 62140  1  0  0  0
 63 65  1  0  0  0
 63141  1  0  0  0
 63142  1  0  0  0
 63143  1  0  0  0
 64144  1  0  0  0
 65145  1  0  0  0
 68 80  1  0  0  0
 71 72  2  0  0  0
 71 74  1  0  0  0
 71146  1  0  0  0
 72 75  1  0  0  0
 72147  1  0  0  0
 73 74  2  0  0  0
 73 76  1  0  0  0
 73148  1  0  0  0
 74 82  1  0  0  0
 75 76  2  0  0  0
 75 85  1  0  0  0
 76 86  1  0  0  0
 77 78  1  0  0  0
 77 82  1  0  0  0
 77 84  2  0  0  0
 78149  1  0  0  0
 78150  1  0  0  0
 78151  1  0  0  0
 79 80  1  0  0  0
 79 81  1  0  0  0
 79152  1  0  0  0
 79153  1  0  0  0
 80154  1  0  0  0
 80155  1  0  0  0
 81 85  1  0  0  0
 81156  1  0  0  0
 81157  1  0  0  0
 82 83  1  0  0  0
 82158  1  0  0  0
 83159  1  0  0  0
M  ISO  4   1 100  68 101  80 101  83 100
M  END
> <chiral flag>
0

> <version>
0

> <s_m_source_file>
/data/baiqing/PycharmProjects/Reinvent-master-3.2/result/LINK_invent/BTK/process_docking_weight1_custom_product_contain_oxygen_bond_distance_aromatic_linkinvent_7_9_3/rearranged_h_0100.sdf

> <i_m_source_file_index>
68

> <r_mmod_Potential_Energy-OPLS-2005>
-147.099594116211

> <r_mmod_Stretch_Energy-OPLS-2005>
40.3532104492188

> <r_mmod_Bend_Energy-OPLS-2005>
100.513046264648

> <r_mmod_Torsional_Energy-OPLS-2005>
224.518127441406

> <r_mmod_Improper_Torsional_Energy-OPLS-2005>
3.23307061195374

> <r_mmod_Van_der_Waal_Energy-OPLS-2005>
147.294204711914

> <r_mmod_Electrostatic_Energy-OPLS-2005>
-465.569763183594

> <r_mmod_Solvation_Energy-OPLS-2005>
-210.492691040039

> <b_mmod_Minimization_Converged-OPLS-2005>
0

> <r_mmod_RMS_Derivative-OPLS-2005>
2.12002539634705

$$$$
69
                    3D
 Structure written by MMmdl.
161170  0  0  1  0            999 V2000
  -30.7383  -14.4535   20.6234 C   0  0  0  0  0  0
  -30.4158  -12.3204   19.4140 C   0  0  0  0  0  0
  -29.4855  -12.5123   18.2012 C   0  0  0  0  0  0
  -28.0105  -12.3647   18.6195 C   0  0  0  0  0  0
  -27.6586  -13.2097   19.8730 C   0  0  2  0  0  0
  -28.7005  -13.0001   20.9936 C   0  0  0  0  0  0
  -25.2576  -13.8171   20.5681 C   0  0  0  0  0  0
  -24.1829  -13.0447   20.9177 C   0  0  0  0  0  0
  -24.6384  -11.6913   20.8737 C   0  0  0  0  0  0
  -23.9056  -10.4295   21.0408 C   0  0  0  0  0  0
  -24.3610   -9.4210   21.9185 C   0  0  0  0  0  0
  -23.6290   -8.2246   22.0751 C   0  0  0  0  0  0
  -22.4274   -8.0281   21.3541 C   0  0  0  0  0  0
  -21.9905   -9.0251   20.4643 C   0  0  0  0  0  0
  -22.7230  -10.2134   20.3054 C   0  0  0  0  0  0
  -21.6849   -6.0734   22.5278 C   0  0  0  0  0  0
  -21.4013   -6.5638   23.8211 C   0  0  0  0  0  0
  -21.3659   -5.6791   24.9175 C   0  0  0  0  0  0
  -21.6043   -4.3055   24.7225 C   0  0  0  0  0  0
  -21.8819   -3.8147   23.4347 C   0  0  0  0  0  0
  -21.9195   -4.6964   22.3404 C   0  0  0  0  0  0
  -22.7852  -13.5239   21.1852 C   0  0  0  0  0  0
  -22.1662   -4.2151   21.0980 F   0  0  0  0  0  0
  -21.5631   -3.4537   25.7737 F   0  0  0  0  0  0
  -30.0306  -13.3047   20.4394 N   0  0  0  0  0  0
  -26.3009  -12.9343   20.3367 N   0  0  0  0  0  0
  -25.9314  -11.6500   20.5775 N   0  0  0  0  0  0
  -22.0494  -12.8222   22.0405 N   0  0  0  0  0  0
  -25.4317  -15.1889   20.4088 N   0  0  0  0  0  0
  -31.8278  -14.6533   20.0787 O   0  0  0  0  0  0
  -21.6639   -6.8879   21.4240 O   0  0  0  0  0  0
  -22.3537  -14.5552   20.6716 O   0  0  0  0  0  0
  -24.6150  -31.8673   23.2103 C   0  0  0  0  0  0
  -25.9040  -32.4820   23.8394 C   0  0  1  0  0  0
  -27.2235  -27.4185   20.0911 C   0  0  0  0  0  0
  -25.5891  -33.8618   24.2318 N   0  0  0  0  0  0
  -23.4027  -30.4935   21.5515 C   0  0  2  0  0  0
  -24.8456  -28.9621   20.1110 C   0  0  0  0  0  0
  -22.7413  -29.4656   22.4986 C   0  0  0  0  0  0
  -18.0270  -28.1383   22.8490 C   0  0  0  0  0  0
  -24.1480  -36.7299   23.2646 C   0  0  0  0  0  0
  -25.9345  -30.8274   21.3661 C   0  0  0  0  0  0
  -26.0085  -29.4629   20.7090 C   0  0  0  0  0  0
  -27.2003  -28.7003   20.6930 C   0  0  0  0  0  0
  -26.0415  -26.9441   19.4745 C   0  0  0  0  0  0
  -24.8580  -27.7026   19.4909 C   0  0  0  0  0  0
  -23.6096  -29.8309   20.1644 C   0  0  0  0  0  0
  -25.4109  -36.3110   24.0348 C   0  0  1  0  0  0
  -20.5864  -28.3657   23.1315 C   0  0  2  0  0  0
  -20.6758  -26.9395   22.5413 C   0  0  0  0  0  0
  -19.5738  -26.6385   21.5208 C   0  0  0  0  0  0
  -18.1915  -26.7923   22.1627 C   0  0  0  0  0  0
  -19.1528  -28.8839   23.2894 C   0  0  0  0  0  0
  -18.9466  -30.1442   23.8901 C   0  0  0  0  0  0
  -17.6475  -30.6584   24.0569 C   0  0  0  0  0  0
  -25.9043  -34.9476   23.5134 C   0  0  0  0  0  0
  -16.5355  -29.9092   23.6337 C   0  0  0  0  0  0
  -16.7261  -28.6515   23.0346 C   0  0  0  0  0  0
  -26.4460  -31.6602   25.0723 C   0  0  0  0  0  0
  -25.3727  -31.3715   26.1478 C   0  0  0  0  0  0
  -27.0294  -30.3052   24.6087 C   0  0  0  0  0  0
  -27.6032  -32.4320   25.7491 C   0  0  0  0  0  0
  -27.5576  -37.1800   24.8475 C   0  0  0  0  0  0
  -21.4142  -29.3025   22.3721 N   0  0  0  0  0  0
  -26.4286  -37.3798   23.9431 N   0  0  0  0  0  0
  -24.6695  -31.0773   22.1005 N   0  0  0  0  0  0
  -23.4184  -28.8191   23.3020 O   0  0  0  0  0  0
  -28.3816  -26.6618   20.1231 O   0  0  0  0  0  0
  -26.5609  -34.8928   22.4695 O   0  0  0  0  0  0
  -23.5347  -32.1421   23.7501 O   0  0  0  0  0  0
  -29.3313  -18.4585   21.7581 C   0  0  0  0  0  0
  -31.7180  -18.7932   21.4680 C   0  0  0  0  0  0
  -29.1270  -19.8605   21.6737 C   0  0  0  0  0  0
  -31.5181  -20.1862   21.3872 C   0  0  0  0  0  0
  -30.6377  -17.9164   21.7078 C   0  0  0  0  0  0
  -30.2288  -20.7440   21.5531 C   0  0  0  0  0  0
  -30.6275  -22.7511   22.8262 C   0  0  0  0  0  0
  -30.5777  -24.2735   22.9996 C   0  0  0  0  0  0
  -29.4107  -24.9409   22.2746 C   0  0  0  0  0  0
  -29.1970  -22.9217   20.7937 C   0  0  0  0  0  0
  -29.3549  -24.4769   20.8185 C   0  0  1  0  0  0
  -30.9463  -16.4584   22.0839 C   0  0  0  0  0  0
  -28.2331  -25.2264   20.0556 C   0  0  0  0  0  0
  -30.0848  -22.1687   21.7171 N   0  0  0  0  0  0
  -30.1912  -15.3756   21.4370 N   0  0  0  0  0  0
  -31.1977  -22.1098   23.7167 O   0  0  0  0  0  0
  -31.4590  -12.4175   19.1076 H   0  0  0  0  0  0
  -30.3203  -11.3098   19.8144 H   0  0  0  0  0  0
  -29.7259  -11.7870   17.4226 H   0  0  0  0  0  0
  -29.6471  -13.4987   17.7634 H   0  0  0  0  0  0
  -27.8276  -11.3085   18.8228 H   0  0  0  0  0  0
  -27.3546  -12.6307   17.7901 H   0  0  0  0  0  0
  -27.7011  -14.2567   19.5720 H   0  0  0  0  0  0
  -28.6810  -11.9656   21.3405 H   0  0  0  0  0  0
  -28.4512  -13.6027   21.8678 H   0  0  0  0  0  0
  -25.2756   -9.5688   22.4758 H   0  0  0  0  0  0
  -24.0003   -7.4632   22.7468 H   0  0  0  0  0  0
  -21.0841   -8.8766   19.8946 H   0  0  0  0  0  0
  -22.3690  -10.9671   19.6160 H   0  0  0  0  0  0
  -21.1999   -7.6147   23.9716 H   0  0  0  0  0  0
  -21.1481   -6.0520   25.9076 H   0  0  0  0  0  0
  -22.0600   -2.7609   23.2844 H   0  0  0  0  0  0
  -22.4108  -11.9871   22.4770 H   0  0  0  0  0  0
  -21.1123  -13.1246   22.2636 H   0  0  0  0  0  0
  -24.6705  -15.8505   20.5179 H   0  0  0  0  0  0
  -26.2923  -15.6224   20.0967 H   0  0  0  0  0  0
  -26.7105  -32.5520   23.1150 H   0  0  0  0  0  0
  -25.0032  -33.9783   25.0454 H   0  0  0  0  0  0
  -22.6920  -31.3113   21.4157 H   0  0  0  0  0  0
  -23.3750  -35.9621   23.3324 H   0  0  0  0  0  0
  -24.3565  -36.8894   22.2054 H   0  0  0  0  0  0
  -23.7215  -37.6504   23.6641 H   0  0  0  0  0  0
  -26.0520  -31.5958   20.6005 H   0  0  0  0  0  0
  -26.8203  -30.8750   21.9877 H   0  0  0  0  0  0
  -28.0968  -29.0812   21.1619 H   0  0  0  0  0  0
  -26.0140  -25.9877   18.9737 H   0  0  0  0  0  0
  -23.9658  -27.3144   19.0191 H   0  0  0  0  0  0
  -23.7178  -30.6068   19.4063 H   0  0  0  0  0  0
  -22.7318  -29.2534   19.8674 H   0  0  0  0  0  0
  -25.1275  -36.1975   25.0839 H   0  0  0  0  0  0
  -20.9955  -28.3216   24.1439 H   0  0  0  0  0  0
  -20.5665  -26.2262   23.3599 H   0  0  0  0  0  0
  -21.6628  -26.7435   22.1204 H   0  0  0  0  0  0
  -19.6908  -25.6303   21.1223 H   0  0  0  0  0  0
  -19.6687  -27.3211   20.6749 H   0  0  0  0  0  0
  -17.4185  -26.6673   21.4027 H   0  0  0  0  0  0
  -18.0320  -26.0063   22.9025 H   0  0  0  0  0  0
  -19.7947  -30.7248   24.2270 H   0  0  0  0  0  0
  -17.5036  -31.6272   24.5160 H   0  0  0  0  0  0
  -15.5357  -30.3003   23.7664 H   0  0  0  0  0  0
  -15.8661  -28.0842   22.7055 H   0  0  0  0  0  0
  -24.5903  -30.7054   25.7827 H   0  0  0  0  0  0
  -24.8916  -32.2873   26.4921 H   0  0  0  0  0  0
  -25.8087  -30.8897   27.0239 H   0  0  0  0  0  0
  -26.2832  -29.6827   24.1133 H   0  0  0  0  0  0
  -27.4078  -29.7273   25.4528 H   0  0  0  0  0  0
  -27.8660  -30.4403   23.9229 H   0  0  0  0  0  0
  -27.2645  -33.3615   26.2088 H   0  0  0  0  0  0
  -28.3832  -32.6889   25.0308 H   0  0  0  0  0  0
  -28.0701  -31.8426   26.5396 H   0  0  0  0  0  0
  -28.2602  -38.0089   24.7516 H   0  0  0  0  0  0
  -28.1058  -36.2617   24.6298 H   0  0  0  0  0  0
  -27.2291  -37.1450   25.8877 H   0  0  0  0  0  0
  -20.9301  -29.8762   21.6960 H   0  0  0  0  0  0
  -26.0178  -38.2879   24.1431 H   0  0  0  0  0  0
  -28.4862  -17.8109   21.9465 H   0  0  0  0  0  0
  -32.7279  -18.4097   21.4227 H   0  0  0  0  0  0
  -28.1273  -20.2545   21.7958 H   0  0  0  0  0  0
  -32.3777  -20.8334   21.2800 H   0  0  0  0  0  0
  -31.5202  -24.6770   22.6286 H   0  0  0  0  0  0
  -30.5352  -24.5141   24.0624 H   0  0  0  0  0  0
  -29.5286  -26.0238   22.3278 H   0  0  0  0  0  0
  -28.4726  -24.7092   22.7815 H   0  0  0  0  0  0
  -29.3587  -22.5590   19.7777 H   0  0  0  0  0  0
  -28.1690  -22.6622   21.0495 H   0  0  0  0  0  0
  -30.3032  -24.7319   20.3413 H   0  0  0  0  0  0
  -30.7590  -16.3693   23.1548 H   0  0  0  0  0  0
  -32.0201  -16.2846   21.9848 H   0  0  0  0  0  0
  -27.2843  -24.9104   20.4934 H   0  0  0  0  0  0
  -28.2219  -24.9187   19.0097 H   0  0  0  0  0  0
  -29.2789  -15.1655   21.8125 H   0  0  0  0  0  0
  1 25  1  0  0  0
  1 30  2  0  0  0
  1 85  1  0  0  0
  2  3  1  0  0  0
  2 25  1  0  0  0
  2 87  1  0  0  0
  2 88  1  0  0  0
  3  4  1  0  0  0
  3 89  1  0  0  0
  3 90  1  0  0  0
  4  5  1  0  0  0
  4 91  1  0  0  0
  4 92  1  0  0  0
  5  6  1  0  0  0
  5 26  1  0  0  0
  5 93  1  0  0  0
  6 25  1  0  0  0
  6 94  1  0  0  0
  6 95  1  0  0  0
  7  8  2  0  0  0
  7 26  1  0  0  0
  7 29  1  0  0  0
  8  9  1  0  0  0
  8 22  1  0  0  0
  9 10  1  0  0  0
  9 27  2  0  0  0
 10 11  2  0  0  0
 10 15  1  0  0  0
 11 12  1  0  0  0
 11 96  1  0  0  0
 12 13  2  0  0  0
 12 97  1  0  0  0
 13 14  1  0  0  0
 13 31  1  0  0  0
 14 15  2  0  0  0
 14 98  1  0  0  0
 15 99  1  0  0  0
 16 17  2  0  0  0
 16 21  1  0  0  0
 16 31  1  0  0  0
 17 18  1  0  0  0
 17100  1  0  0  0
 18 19  2  0  0  0
 18101  1  0  0  0
 19 20  1  0  0  0
 19 24  1  0  0  0
 20 21  2  0  0  0
 20102  1  0  0  0
 21 23  1  0  0  0
 22 28  1  0  0  0
 22 32  2  0  0  0
 26 27  1  0  0  0
 28103  1  0  0  0
 28104  1  0  0  0
 29105  1  0  0  0
 29106  1  0  0  0
 33 34  1  0  0  0
 33 66  1  0  0  0
 33 70  2  0  0  0
 34 36  1  0  0  0
 34 59  1  0  0  0
 34107  1  0  0  0
 35 44  2  0  0  0
 35 45  1  0  0  0
 35 68  1  0  0  0
 36 56  1  0  0  0
 36108  1  0  0  0
 37 39  1  0  0  0
 37 47  1  0  0  0
 37 66  1  0  0  0
 37109  1  0  0  0
 38 43  2  0  0  0
 38 46  1  0  0  0
 38 47  1  0  0  0
 39 64  1  0  0  0
 39 67  2  0  0  0
 40 52  1  0  0  0
 40 53  2  0  0  0
 40 58  1  0  0  0
 41110  1  0  0  0
 41111  1  0  0  0
 41112  1  0  0  0
 41 48  1  0  0  0
 42 43  1  0  0  0
 42 66  1  0  0  0
 42113  1  0  0  0
 42114  1  0  0  0
 43 44  1  0  0  0
 44115  1  0  0  0
 45 46  2  0  0  0
 45116  1  0  0  0
 46117  1  0  0  0
 47118  1  0  0  0
 47119  1  0  0  0
 48 56  1  0  0  0
 48 65  1  0  0  0
 48120  1  0  0  0
 49 50  1  0  0  0
 49 53  1  0  0  0
 49 64  1  0  0  0
 49121  1  0  0  0
 50 51  1  0  0  0
 50122  1  0  0  0
 50123  1  0  0  0
 51 52  1  0  0  0
 51124  1  0  0  0
 51125  1  0  0  0
 52126  1  0  0  0
 52127  1  0  0  0
 53 54  1  0  0  0
 54 55  2  0  0  0
 54128  1  0  0  0
 55 57  1  0  0  0
 55129  1  0  0  0
 56 69  2  0  0  0
 57 58  2  0  0  0
 57130  1  0  0  0
 58131  1  0  0  0
 59 60  1  0  0  0
 59 61  1  0  0  0
 59 62  1  0  0  0
 60132  1  0  0  0
 60133  1  0  0  0
 60134  1  0  0  0
 61135  1  0  0  0
 61136  1  0  0  0
 61137  1  0  0  0
 62138  1  0  0  0
 62139  1  0  0  0
 62140  1  0  0  0
 63 65  1  0  0  0
 63141  1  0  0  0
 63142  1  0  0  0
 63143  1  0  0  0
 64144  1  0  0  0
 65145  1  0  0  0
 68 83  1  0  0  0
 71 73  2  0  0  0
 71 75  1  0  0  0
 71146  1  0  0  0
 72 74  1  0  0  0
 72 75  2  0  0  0
 72147  1  0  0  0
 73 76  1  0  0  0
 73148  1  0  0  0
 74 76  2  0  0  0
 74149  1  0  0  0
 75 82  1  0  0  0
 76 84  1  0  0  0
 77 78  1  0  0  0
 77 84  1  0  0  0
 77 86  2  0  0  0
 78 79  1  0  0  0
 78150  1  0  0  0
 78151  1  0  0  0
 79 81  1  0  0  0
 79152  1  0  0  0
 79153  1  0  0  0
 80 81  1  0  0  0
 80 84  1  0  0  0
 80154  1  0  0  0
 80155  1  0  0  0
 81 83  1  0  0  0
 81156  1  0  0  0
 82 85  1  0  0  0
 82157  1  0  0  0
 82158  1  0  0  0
 83159  1  0  0  0
 83160  1  0  0  0
 85161  1  0  0  0
M  ISO  4   1 100  68 101  83 101  85 100
M  END
> <chiral flag>
0

> <version>
0

> <s_m_source_file>
/data/baiqing/PycharmProjects/Reinvent-master-3.2/result/LINK_invent/BTK/process_docking_weight1_custom_product_contain_oxygen_bond_distance_aromatic_linkinvent_7_9_3/rearranged_h_0100.sdf

> <i_m_source_file_index>
69

> <r_mmod_Potential_Energy-OPLS-2005>
4.68270874023438

> <r_mmod_Stretch_Energy-OPLS-2005>
44.2813720703125

> <r_mmod_Bend_Energy-OPLS-2005>
103.789657592773

> <r_mmod_Torsional_Energy-OPLS-2005>
276.015960693359

> <r_mmod_Improper_Torsional_Energy-OPLS-2005>
3.86651659011841

> <r_mmod_Van_der_Waal_Energy-OPLS-2005>
167.382125854492

> <r_mmod_Electrostatic_Energy-OPLS-2005>
-377.897888183594

> <r_mmod_Solvation_Energy-OPLS-2005>
-226.050811767578

> <b_mmod_Minimization_Converged-OPLS-2005>
0

> <r_mmod_RMS_Derivative-OPLS-2005>
1.20815706253052

$$$$
70
                    3D
 Structure written by MMmdl.
161169  0  0  1  0            999 V2000
  -30.7472  -14.4103   20.6448 C   0  0  0  0  0  0
  -30.4143  -12.3001   19.4051 C   0  0  0  0  0  0
  -29.4847  -12.5203   18.1956 C   0  0  0  0  0  0
  -28.0085  -12.3796   18.6123 C   0  0  0  0  0  0
  -27.6630  -13.2085   19.8782 C   0  0  2  0  0  0
  -28.7031  -12.9657   20.9943 C   0  0  0  0  0  0
  -25.2596  -13.8166   20.5715 C   0  0  0  0  0  0
  -24.1836  -13.0439   20.9180 C   0  0  0  0  0  0
  -24.6393  -11.6908   20.8731 C   0  0  0  0  0  0
  -23.9057  -10.4293   21.0407 C   0  0  0  0  0  0
  -24.3609   -9.4209   21.9193 C   0  0  0  0  0  0
  -23.6287   -8.2244   22.0755 C   0  0  0  0  0  0
  -22.4264   -8.0278   21.3540 C   0  0  0  0  0  0
  -21.9897   -9.0261   20.4636 C   0  0  0  0  0  0
  -22.7235  -10.2141   20.3062 C   0  0  0  0  0  0
  -21.6852   -6.0730   22.5272 C   0  0  0  0  0  0
  -21.4013   -6.5635   23.8209 C   0  0  0  0  0  0
  -21.3664   -5.6783   24.9169 C   0  0  0  0  0  0
  -21.6049   -4.3053   24.7214 C   0  0  0  0  0  0
  -21.8816   -3.8150   23.4338 C   0  0  0  0  0  0
  -21.9191   -4.6959   22.3402 C   0  0  0  0  0  0
  -22.7853  -13.5249   21.1844 C   0  0  0  0  0  0
  -22.1658   -4.2147   21.0975 F   0  0  0  0  0  0
  -21.5638   -3.4540   25.7734 F   0  0  0  0  0  0
  -30.0386  -13.2652   20.4494 N   0  0  0  0  0  0
  -26.3032  -12.9342   20.3390 N   0  0  0  0  0  0
  -25.9321  -11.6491   20.5748 N   0  0  0  0  0  0
  -22.0481  -12.8241   22.0385 N   0  0  0  0  0  0
  -25.4326  -15.1886   20.4143 N   0  0  0  0  0  0
  -31.8138  -14.6444   20.0701 O   0  0  0  0  0  0
  -21.6633   -6.8875   21.4232 O   0  0  0  0  0  0
  -22.3543  -14.5568   20.6699 O   0  0  0  0  0  0
  -24.6133  -31.8699   23.2082 C   0  0  0  0  0  0
  -25.9028  -32.4836   23.8412 C   0  0  1  0  0  0
  -27.2413  -27.4580   20.0640 C   0  0  0  0  0  0
  -25.5916  -33.8640   24.2323 N   0  0  0  0  0  0
  -23.4006  -30.4928   21.5494 C   0  0  2  0  0  0
  -24.8462  -28.9612   20.1143 C   0  0  0  0  0  0
  -22.7401  -29.4673   22.4995 C   0  0  0  0  0  0
  -18.0273  -28.1340   22.8430 C   0  0  0  0  0  0
  -24.1502  -36.7316   23.2632 C   0  0  0  0  0  0
  -25.9301  -30.8366   21.3669 C   0  0  0  0  0  0
  -26.0042  -29.4733   20.7127 C   0  0  0  0  0  0
  -27.1998  -28.7242   20.6890 C   0  0  0  0  0  0
  -26.0581  -26.9485   19.4846 C   0  0  0  0  0  0
  -24.8678  -27.6965   19.5027 C   0  0  0  0  0  0
  -23.6076  -29.8224   20.1660 C   0  0  0  0  0  0
  -25.4104  -36.3107   24.0346 C   0  0  1  0  0  0
  -20.5859  -28.3638   23.1283 C   0  0  2  0  0  0
  -20.6771  -26.9372   22.5389 C   0  0  0  0  0  0
  -19.5784  -26.6342   21.5170 C   0  0  0  0  0  0
  -18.1942  -26.7881   22.1536 C   0  0  0  0  0  0
  -19.1515  -28.8800   23.2865 C   0  0  0  0  0  0
  -18.9453  -30.1400   23.8897 C   0  0  0  0  0  0
  -17.6471  -30.6556   24.0538 C   0  0  0  0  0  0
  -25.9034  -34.9485   23.5112 C   0  0  0  0  0  0
  -16.5356  -29.9034   23.6340 C   0  0  0  0  0  0
  -16.7269  -28.6460   23.0320 C   0  0  0  0  0  0
  -26.4438  -31.6620   25.0760 C   0  0  0  0  0  0
  -25.3663  -31.3827   26.1506 C   0  0  0  0  0  0
  -27.0236  -30.3035   24.6191 C   0  0  0  0  0  0
  -27.6067  -32.4316   25.7467 C   0  0  0  0  0  0
  -27.5598  -37.1788   24.8444 C   0  0  0  0  0  0
  -21.4136  -29.3026   22.3721 N   0  0  0  0  0  0
  -26.4287  -37.3791   23.9422 N   0  0  0  0  0  0
  -24.6659  -31.0801   22.1002 N   0  0  0  0  0  0
  -23.4174  -28.8199   23.3012 O   0  0  0  0  0  0
  -28.4172  -26.7405   20.0982 O   0  0  0  0  0  0
  -26.5559  -34.8936   22.4656 O   0  0  0  0  0  0
  -23.5315  -32.1468   23.7460 O   0  0  0  0  0  0
  -31.1007  -18.7256   20.7269 C   0  0  0  0  0  0
  -30.5618  -19.9364   20.2443 C   0  0  0  0  0  0
  -28.9327  -18.1247   21.6569 C   0  0  0  0  0  0
  -30.2858  -17.8077   21.4262 C   0  0  0  0  0  0
  -29.2031  -20.2554   20.4812 C   0  0  0  0  0  0
  -28.3910  -19.3532   21.2090 C   0  0  0  0  0  0
  -29.0586  -22.6995   19.9689 C   0  0  0  0  0  0
  -26.6062  -19.4673   22.7810 C   0  0  0  0  0  0
  -30.8698  -16.5118   21.9803 C   0  0  0  0  0  0
  -28.0162  -23.8009   19.7148 C   0  0  0  0  0  0
  -28.3291  -24.7496   18.5328 C   0  0  0  0  0  0
  -28.9068  -26.1359   18.8975 C   0  0  0  0  0  0
  -28.5807  -21.4429   20.0036 N   0  0  0  0  0  0
  -30.2146  -15.2886   21.5074 N   0  0  0  0  0  0
  -30.2454  -22.9916   20.1326 O   0  0  0  0  0  0
  -27.0844  -19.7117   21.4592 O   0  0  0  0  0  0
  -31.4584  -12.3929   19.1035 H   0  0  0  0  0  0
  -30.3099  -11.2831   19.7855 H   0  0  0  0  0  0
  -29.7181  -11.8042   17.4064 H   0  0  0  0  0  0
  -29.6569  -13.5108   17.7712 H   0  0  0  0  0  0
  -27.8155  -11.3215   18.7972 H   0  0  0  0  0  0
  -27.3567  -12.6674   17.7847 H   0  0  0  0  0  0
  -27.7143  -14.2613   19.5987 H   0  0  0  0  0  0
  -28.6717  -11.9221   21.3132 H   0  0  0  0  0  0
  -28.4558  -13.5449   21.8839 H   0  0  0  0  0  0
  -25.2750   -9.5687   22.4771 H   0  0  0  0  0  0
  -23.9995   -7.4628   22.7483 H   0  0  0  0  0  0
  -21.0833   -8.8784   19.8946 H   0  0  0  0  0  0
  -22.3701  -10.9679   19.6176 H   0  0  0  0  0  0
  -21.1997   -7.6145   23.9708 H   0  0  0  0  0  0
  -21.1498   -6.0518   25.9066 H   0  0  0  0  0  0
  -22.0594   -2.7603   23.2840 H   0  0  0  0  0  0
  -22.4082  -11.9892   22.4773 H   0  0  0  0  0  0
  -21.1101  -13.1268   22.2582 H   0  0  0  0  0  0
  -24.6736  -15.8492   20.5388 H   0  0  0  0  0  0
  -26.2932  -15.6263   20.1110 H   0  0  0  0  0  0
  -26.7106  -32.5556   23.1179 H   0  0  0  0  0  0
  -25.0209  -33.9886   25.0559 H   0  0  0  0  0  0
  -22.6889  -31.3093   21.4042 H   0  0  0  0  0  0
  -23.3807  -35.9604   23.3243 H   0  0  0  0  0  0
  -24.3606  -36.8941   22.2055 H   0  0  0  0  0  0
  -23.7212  -37.6500   23.6651 H   0  0  0  0  0  0
  -26.0469  -31.6070   20.6022 H   0  0  0  0  0  0
  -26.8138  -30.8821   21.9920 H   0  0  0  0  0  0
  -28.0987  -29.1175   21.1432 H   0  0  0  0  0  0
  -26.0252  -25.9689   19.0410 H   0  0  0  0  0  0
  -23.9732  -27.2942   19.0478 H   0  0  0  0  0  0
  -23.7111  -30.5945   19.4026 H   0  0  0  0  0  0
  -22.7342  -29.2367   19.8729 H   0  0  0  0  0  0
  -25.1260  -36.1979   25.0829 H   0  0  0  0  0  0
  -20.9955  -28.3194   24.1399 H   0  0  0  0  0  0
  -20.5591  -26.2262   23.3579 H   0  0  0  0  0  0
  -21.6651  -26.7351   22.1251 H   0  0  0  0  0  0
  -19.6983  -25.6234   21.1238 H   0  0  0  0  0  0
  -19.6783  -27.3113   20.6666 H   0  0  0  0  0  0
  -17.4226  -26.6639   21.3917 H   0  0  0  0  0  0
  -18.0340  -25.9984   22.8887 H   0  0  0  0  0  0
  -19.7933  -30.7192   24.2282 H   0  0  0  0  0  0
  -17.5030  -31.6260   24.5085 H   0  0  0  0  0  0
  -15.5359  -30.2938   23.7682 H   0  0  0  0  0  0
  -15.8653  -28.0805   22.7009 H   0  0  0  0  0  0
  -24.5862  -30.7107   25.7890 H   0  0  0  0  0  0
  -24.8838  -32.3038   26.4825 H   0  0  0  0  0  0
  -25.7982  -30.9132   27.0355 H   0  0  0  0  0  0
  -26.2809  -29.6853   24.1142 H   0  0  0  0  0  0
  -27.3849  -29.7226   25.4684 H   0  0  0  0  0  0
  -27.8694  -30.4302   23.9428 H   0  0  0  0  0  0
  -27.2773  -33.3661   26.2023 H   0  0  0  0  0  0
  -28.3879  -32.6779   25.0257 H   0  0  0  0  0  0
  -28.0736  -31.8445   26.5395 H   0  0  0  0  0  0
  -28.2555  -38.0146   24.7555 H   0  0  0  0  0  0
  -28.1160  -36.2686   24.6148 H   0  0  0  0  0  0
  -27.2374  -37.1276   25.8860 H   0  0  0  0  0  0
  -20.9327  -29.8782   21.6945 H   0  0  0  0  0  0
  -26.0202  -38.2852   24.1478 H   0  0  0  0  0  0
  -32.1473  -18.5047   20.5570 H   0  0  0  0  0  0
  -31.2036  -20.6109   19.6963 H   0  0  0  0  0  0
  -28.3172  -17.4135   22.1867 H   0  0  0  0  0  0
  -25.5568  -19.7580   22.8338 H   0  0  0  0  0  0
  -27.1541  -20.0664   23.5131 H   0  0  0  0  0  0
  -26.6515  -18.4207   23.0842 H   0  0  0  0  0  0
  -30.7664  -16.5409   23.0650 H   0  0  0  0  0  0
  -31.9468  -16.4841   21.7981 H   0  0  0  0  0  0
  -27.8636  -24.3579   20.6409 H   0  0  0  0  0  0
  -27.0563  -23.3240   19.5154 H   0  0  0  0  0  0
  -27.4291  -24.8825   17.9339 H   0  0  0  0  0  0
  -29.0206  -24.2659   17.8406 H   0  0  0  0  0  0
  -28.7752  -26.8211   18.0573 H   0  0  0  0  0  0
  -29.9843  -26.0413   19.0266 H   0  0  0  0  0  0
  -27.5838  -21.3587   19.8543 H   0  0  0  0  0  0
  -29.3300  -15.0389   21.9235 H   0  0  0  0  0  0
  1 25  1  0  0  0
  1 30  2  0  0  0
  1 84  1  0  0  0
  2  3  1  0  0  0
  2 25  1  0  0  0
  2 87  1  0  0  0
  2 88  1  0  0  0
  3  4  1  0  0  0
  3 89  1  0  0  0
  3 90  1  0  0  0
  4  5  1  0  0  0
  4 91  1  0  0  0
  4 92  1  0  0  0
  5  6  1  0  0  0
  5 26  1  0  0  0
  5 93  1  0  0  0
  6 25  1  0  0  0
  6 94  1  0  0  0
  6 95  1  0  0  0
  7  8  2  0  0  0
  7 26  1  0  0  0
  7 29  1  0  0  0
  8  9  1  0  0  0
  8 22  1  0  0  0
  9 10  1  0  0  0
  9 27  2  0  0  0
 10 11  2  0  0  0
 10 15  1  0  0  0
 11 12  1  0  0  0
 11 96  1  0  0  0
 12 13  2  0  0  0
 12 97  1  0  0  0
 13 14  1  0  0  0
 13 31  1  0  0  0
 14 15  2  0  0  0
 14 98  1  0  0  0
 15 99  1  0  0  0
 16 17  2  0  0  0
 16 21  1  0  0  0
 16 31  1  0  0  0
 17 18  1  0  0  0
 17100  1  0  0  0
 18 19  2  0  0  0
 18101  1  0  0  0
 19 20  1  0  0  0
 19 24  1  0  0  0
 20 21  2  0  0  0
 20102  1  0  0  0
 21 23  1  0  0  0
 22 28  1  0  0  0
 22 32  2  0  0  0
 26 27  1  0  0  0
 28103  1  0  0  0
 28104  1  0  0  0
 29105  1  0  0  0
 29106  1  0  0  0
 33 34  1  0  0  0
 33 66  1  0  0  0
 33 70  2  0  0  0
 34 36  1  0  0  0
 34 59  1  0  0  0
 34107  1  0  0  0
 35 44  2  0  0  0
 35 45  1  0  0  0
 35 68  1  0  0  0
 36 56  1  0  0  0
 36108  1  0  0  0
 37 39  1  0  0  0
 37 47  1  0  0  0
 37 66  1  0  0  0
 37109  1  0  0  0
 38 43  2  0  0  0
 38 46  1  0  0  0
 38 47  1  0  0  0
 39 64  1  0  0  0
 39 67  2  0  0  0
 40 52  1  0  0  0
 40 53  2  0  0  0
 40 58  1  0  0  0
 41110  1  0  0  0
 41111  1  0  0  0
 41112  1  0  0  0
 41 48  1  0  0  0
 42 43  1  0  0  0
 42 66  1  0  0  0
 42113  1  0  0  0
 42114  1  0  0  0
 43 44  1  0  0  0
 44115  1  0  0  0
 45 46  2  0  0  0
 45116  1  0  0  0
 46117  1  0  0  0
 47118  1  0  0  0
 47119  1  0  0  0
 48 56  1  0  0  0
 48 65  1  0  0  0
 48120  1  0  0  0
 49 50  1  0  0  0
 49 53  1  0  0  0
 49 64  1  0  0  0
 49121  1  0  0  0
 50 51  1  0  0  0
 50122  1  0  0  0
 50123  1  0  0  0
 51 52  1  0  0  0
 51124  1  0  0  0
 51125  1  0  0  0
 52126  1  0  0  0
 52127  1  0  0  0
 53 54  1  0  0  0
 54 55  2  0  0  0
 54128  1  0  0  0
 55 57  1  0  0  0
 55129  1  0  0  0
 56 69  2  0  0  0
 57 58  2  0  0  0
 57130  1  0  0  0
 58131  1  0  0  0
 59 60  1  0  0  0
 59 61  1  0  0  0
 59 62  1  0  0  0
 60132  1  0  0  0
 60133  1  0  0  0
 60134  1  0  0  0
 61135  1  0  0  0
 61136  1  0  0  0
 61137  1  0  0  0
 62138  1  0  0  0
 62139  1  0  0  0
 62140  1  0  0  0
 63 65  1  0  0  0
 63141  1  0  0  0
 63142  1  0  0  0
 63143  1  0  0  0
 64144  1  0  0  0
 65145  1  0  0  0
 68 82  1  0  0  0
 71 72  2  0  0  0
 71 74  1  0  0  0
 71146  1  0  0  0
 72 75  1  0  0  0
 72147  1  0  0  0
 73 74  2  0  0  0
 73 76  1  0  0  0
 73148  1  0  0  0
 74 79  1  0  0  0
 75 76  2  0  0  0
 75 83  1  0  0  0
 76 86  1  0  0  0
 77 80  1  0  0  0
 77 83  1  0  0  0
 77 85  2  0  0  0
 78 86  1  0  0  0
 78149  1  0  0  0
 78150  1  0  0  0
 78151  1  0  0  0
 79 84  1  0  0  0
 79152  1  0  0  0
 79153  1  0  0  0
 80 81  1  0  0  0
 80154  1  0  0  0
 80155  1  0  0  0
 81 82  1  0  0  0
 81156  1  0  0  0
 81157  1  0  0  0
 82158  1  0  0  0
 82159  1  0  0  0
 83160  1  0  0  0
 84161  1  0  0  0
M  ISO  4   1 100  68 101  82 101  84 100
M  END
> <chiral flag>
0

> <version>
0

> <s_m_source_file>
/data/baiqing/PycharmProjects/Reinvent-master-3.2/result/LINK_invent/BTK/process_docking_weight1_custom_product_contain_oxygen_bond_distance_aromatic_linkinvent_7_9_3/rearranged_h_0100.sdf

> <i_m_source_file_index>
70

> <r_mmod_Potential_Energy-OPLS-2005>
-186.449447631836

> <r_mmod_Stretch_Energy-OPLS-2005>
35.2556610107422

> <r_mmod_Bend_Energy-OPLS-2005>
109.760635375977

> <r_mmod_Torsional_Energy-OPLS-2005>
246.041351318359

> <r_mmod_Improper_Torsional_Energy-OPLS-2005>
2.37800574302673

> <r_mmod_Van_der_Waal_Energy-OPLS-2005>
156.288421630859

> <r_mmod_Electrostatic_Energy-OPLS-2005>
-510.529479980469

> <r_mmod_Solvation_Energy-OPLS-2005>
-234.821105957031

> <b_mmod_Minimization_Converged-OPLS-2005>
0

> <r_mmod_RMS_Derivative-OPLS-2005>
3.96351218223572

$$$$
71
                    3D
 Structure written by MMmdl.
158167  0  0  1  0            999 V2000
  -30.6916  -14.5040   20.5501 C   0  0  0  0  0  0
  -30.4241  -12.3190   19.4395 C   0  0  0  0  0  0
  -29.5002  -12.5120   18.2184 C   0  0  0  0  0  0
  -28.0204  -12.3719   18.6259 C   0  0  0  0  0  0
  -27.6626  -13.2139   19.8813 C   0  0  2  0  0  0
  -28.7049  -13.0084   21.0059 C   0  0  0  0  0  0
  -25.2571  -13.8179   20.5690 C   0  0  0  0  0  0
  -24.1835  -13.0435   20.9184 C   0  0  0  0  0  0
  -24.6401  -11.6903   20.8745 C   0  0  0  0  0  0
  -23.9066  -10.4286   21.0406 C   0  0  0  0  0  0
  -24.3617   -9.4202   21.9188 C   0  0  0  0  0  0
  -23.6281   -8.2244   22.0756 C   0  0  0  0  0  0
  -22.4264   -8.0284   21.3547 C   0  0  0  0  0  0
  -21.9904   -9.0256   20.4648 C   0  0  0  0  0  0
  -22.7238  -10.2131   20.3051 C   0  0  0  0  0  0
  -21.6841   -6.0739   22.5273 C   0  0  0  0  0  0
  -21.4013   -6.5639   23.8208 C   0  0  0  0  0  0
  -21.3664   -5.6791   24.9171 C   0  0  0  0  0  0
  -21.6042   -4.3051   24.7223 C   0  0  0  0  0  0
  -21.8817   -3.8145   23.4344 C   0  0  0  0  0  0
  -21.9186   -4.6965   22.3403 C   0  0  0  0  0  0
  -22.7858  -13.5220   21.1839 C   0  0  0  0  0  0
  -22.1646   -4.2152   21.0973 F   0  0  0  0  0  0
  -21.5645   -3.4532   25.7739 F   0  0  0  0  0  0
  -30.0367  -13.3115   20.4567 N   0  0  0  0  0  0
  -26.3026  -12.9366   20.3399 N   0  0  0  0  0  0
  -25.9331  -11.6511   20.5779 N   0  0  0  0  0  0
  -22.0486  -12.8224   22.0393 N   0  0  0  0  0  0
  -25.4268  -15.1907   20.4103 N   0  0  0  0  0  0
  -31.8168  -14.6823   20.0761 O   0  0  0  0  0  0
  -21.6630   -6.8881   21.4233 O   0  0  0  0  0  0
  -22.3531  -14.5519   20.6679 O   0  0  0  0  0  0
  -24.6194  -31.8663   23.2097 C   0  0  0  0  0  0
  -25.9075  -32.4813   23.8401 C   0  0  1  0  0  0
  -27.2268  -27.3979   20.0927 C   0  0  0  0  0  0
  -25.5919  -33.8614   24.2325 N   0  0  0  0  0  0
  -23.4086  -30.4928   21.5510 C   0  0  2  0  0  0
  -24.8526  -28.9624   20.1097 C   0  0  0  0  0  0
  -22.7439  -29.4656   22.4973 C   0  0  0  0  0  0
  -18.0276  -28.1380   22.8493 C   0  0  0  0  0  0
  -24.1481  -36.7306   23.2639 C   0  0  0  0  0  0
  -25.9432  -30.8213   21.3694 C   0  0  0  0  0  0
  -26.0180  -29.4567   20.7081 C   0  0  0  0  0  0
  -27.2087  -28.6854   20.6909 C   0  0  0  0  0  0
  -26.0374  -26.9380   19.4765 C   0  0  0  0  0  0
  -24.8601  -27.7057   19.4870 C   0  0  0  0  0  0
  -23.6168  -29.8324   20.1636 C   0  0  0  0  0  0
  -25.4103  -36.3104   24.0337 C   0  0  1  0  0  0
  -20.5873  -28.3670   23.1304 C   0  0  2  0  0  0
  -20.6760  -26.9403   22.5410 C   0  0  0  0  0  0
  -19.5737  -26.6389   21.5207 C   0  0  0  0  0  0
  -18.1921  -26.7925   22.1625 C   0  0  0  0  0  0
  -19.1528  -28.8843   23.2895 C   0  0  0  0  0  0
  -18.9452  -30.1445   23.8911 C   0  0  0  0  0  0
  -17.6453  -30.6582   24.0566 C   0  0  0  0  0  0
  -25.9035  -34.9471   23.5121 C   0  0  0  0  0  0
  -16.5343  -29.9084   23.6327 C   0  0  0  0  0  0
  -16.7265  -28.6500   23.0352 C   0  0  0  0  0  0
  -26.4488  -31.6607   25.0747 C   0  0  0  0  0  0
  -25.3739  -31.3719   26.1482 C   0  0  0  0  0  0
  -27.0328  -30.3045   24.6158 C   0  0  0  0  0  0
  -27.6067  -32.4329   25.7501 C   0  0  0  0  0  0
  -27.5576  -37.1809   24.8466 C   0  0  0  0  0  0
  -21.4160  -29.3042   22.3718 N   0  0  0  0  0  0
  -26.4291  -37.3793   23.9406 N   0  0  0  0  0  0
  -24.6757  -31.0746   22.1009 N   0  0  0  0  0  0
  -23.4198  -28.8188   23.3019 O   0  0  0  0  0  0
  -28.3758  -26.6148   20.1313 O   0  0  0  0  0  0
  -26.5600  -34.8928   22.4684 O   0  0  0  0  0  0
  -23.5375  -32.1434   23.7466 O   0  0  0  0  0  0
  -29.8394  -18.5938   18.9136 C   0  0  0  0  0  0
  -30.5569  -19.2778   21.1246 C   0  0  0  0  0  0
  -29.7484  -17.2526   19.3462 C   0  0  0  0  0  0
  -30.4593  -17.9295   21.5651 C   0  0  0  0  0  0
  -30.2609  -19.6290   19.7834 C   0  0  0  0  0  0
  -30.0862  -16.8956   20.6708 C   0  0  0  0  0  0
  -30.5613  -21.0037   19.2044 C   0  0  0  0  0  0
  -30.6515  -24.4961   19.5509 C   0  0  0  0  0  0
  -31.4486  -23.2121   19.7860 C   0  0  0  0  0  0
  -29.1785  -22.7582   20.3064 C   0  0  0  0  0  0
  -29.4032  -24.3001   20.3944 C   0  0  2  0  0  0
  -28.1978  -25.1845   19.9637 C   0  0  0  0  0  0
  -30.4719  -22.1267   19.9680 N   0  0  0  0  0  0
  -29.9963  -15.5285   21.0928 N   0  0  0  0  0  0
  -30.9622  -21.0588   18.0360 O   0  0  0  0  0  0
  -31.4701  -12.4148   19.1412 H   0  0  0  0  0  0
  -30.3227  -11.3093   19.8414 H   0  0  0  0  0  0
  -29.7444  -11.7863   17.4414 H   0  0  0  0  0  0
  -29.6713  -13.4954   17.7788 H   0  0  0  0  0  0
  -27.8319  -11.3160   18.8226 H   0  0  0  0  0  0
  -27.3711  -12.6452   17.7933 H   0  0  0  0  0  0
  -27.7000  -14.2617   19.5822 H   0  0  0  0  0  0
  -28.6845  -11.9767   21.3604 H   0  0  0  0  0  0
  -28.4671  -13.6233   21.8749 H   0  0  0  0  0  0
  -25.2763   -9.5673   22.4761 H   0  0  0  0  0  0
  -23.9985   -7.4635   22.7474 H   0  0  0  0  0  0
  -21.0837   -8.8777   19.8951 H   0  0  0  0  0  0
  -22.3701  -10.9671   19.6166 H   0  0  0  0  0  0
  -21.1996   -7.6143   23.9712 H   0  0  0  0  0  0
  -21.1493   -6.0524   25.9075 H   0  0  0  0  0  0
  -22.0589   -2.7610   23.2838 H   0  0  0  0  0  0
  -22.4065  -11.9879   22.4793 H   0  0  0  0  0  0
  -21.1115  -13.1276   22.2597 H   0  0  0  0  0  0
  -24.6600  -15.8453   20.5237 H   0  0  0  0  0  0
  -26.2820  -15.6340   20.0973 H   0  0  0  0  0  0
  -26.7149  -32.5507   23.1163 H   0  0  0  0  0  0
  -25.0073  -33.9774   25.0477 H   0  0  0  0  0  0
  -22.6987  -31.3112   21.4153 H   0  0  0  0  0  0
  -23.3741  -35.9639   23.3307 H   0  0  0  0  0  0
  -24.3571  -36.8918   22.2052 H   0  0  0  0  0  0
  -23.7232  -37.6511   23.6651 H   0  0  0  0  0  0
  -26.0669  -31.5926   20.6079 H   0  0  0  0  0  0
  -26.8260  -30.8648   21.9953 H   0  0  0  0  0  0
  -28.1073  -29.0650   21.1565 H   0  0  0  0  0  0
  -25.9899  -25.9818   18.9778 H   0  0  0  0  0  0
  -23.9673  -27.3261   19.0092 H   0  0  0  0  0  0
  -23.7269  -30.6117   19.4091 H   0  0  0  0  0  0
  -22.7385  -29.2577   19.8636 H   0  0  0  0  0  0
  -25.1280  -36.1965   25.0831 H   0  0  0  0  0  0
  -20.9963  -28.3226   24.1423 H   0  0  0  0  0  0
  -20.5650  -26.2282   23.3598 H   0  0  0  0  0  0
  -21.6628  -26.7435   22.1205 H   0  0  0  0  0  0
  -19.6893  -25.6302   21.1229 H   0  0  0  0  0  0
  -19.6668  -27.3203   20.6739 H   0  0  0  0  0  0
  -17.4186  -26.6678   21.4033 H   0  0  0  0  0  0
  -18.0324  -26.0064   22.9019 H   0  0  0  0  0  0
  -19.7923  -30.7262   24.2289 H   0  0  0  0  0  0
  -17.5001  -31.6264   24.5166 H   0  0  0  0  0  0
  -15.5340  -30.2986   23.7644 H   0  0  0  0  0  0
  -15.8668  -28.0819   22.7061 H   0  0  0  0  0  0
  -24.5898  -30.7093   25.7797 H   0  0  0  0  0  0
  -24.8950  -32.2877   26.4957 H   0  0  0  0  0  0
  -25.8074  -30.8851   27.0228 H   0  0  0  0  0  0
  -26.2893  -29.6800   24.1194 H   0  0  0  0  0  0
  -27.4059  -29.7292   25.4643 H   0  0  0  0  0  0
  -27.8744  -30.4348   23.9350 H   0  0  0  0  0  0
  -27.2697  -33.3621   26.2105 H   0  0  0  0  0  0
  -28.3860  -32.6904   25.0317 H   0  0  0  0  0  0
  -28.0758  -31.8442   26.5395 H   0  0  0  0  0  0
  -28.2601  -38.0102   24.7510 H   0  0  0  0  0  0
  -28.1068  -36.2635   24.6289 H   0  0  0  0  0  0
  -27.2298  -37.1455   25.8873 H   0  0  0  0  0  0
  -20.9322  -29.8786   21.6956 H   0  0  0  0  0  0
  -26.0175  -38.2869   24.1403 H   0  0  0  0  0  0
  -29.6273  -18.8204   17.8780 H   0  0  0  0  0  0
  -30.9042  -20.0345   21.8152 H   0  0  0  0  0  0
  -29.4404  -16.4936   18.6402 H   0  0  0  0  0  0
  -30.7108  -17.6913   22.5896 H   0  0  0  0  0  0
  -30.3835  -24.5680   18.4959 H   0  0  0  0  0  0
  -31.2047  -25.3979   19.8157 H   0  0  0  0  0  0
  -32.0296  -23.2974   20.7050 H   0  0  0  0  0  0
  -32.1649  -23.0432   18.9785 H   0  0  0  0  0  0
  -28.4491  -22.5293   19.5273 H   0  0  0  0  0  0
  -28.7874  -22.3543   21.2408 H   0  0  0  0  0  0
  -29.6545  -24.5422   21.4282 H   0  0  0  0  0  0
  -27.3382  -24.8604   20.5541 H   0  0  0  0  0  0
  -27.9686  -24.9730   18.9183 H   0  0  0  0  0  0
  -29.1530  -15.2674   21.5816 H   0  0  0  0  0  0
  1 25  1  0  0  0
  1 30  2  0  0  0
  1 84  1  0  0  0
  2  3  1  0  0  0
  2 25  1  0  0  0
  2 86  1  0  0  0
  2 87  1  0  0  0
  3  4  1  0  0  0
  3 88  1  0  0  0
  3 89  1  0  0  0
  4  5  1  0  0  0
  4 90  1  0  0  0
  4 91  1  0  0  0
  5  6  1  0  0  0
  5 26  1  0  0  0
  5 92  1  0  0  0
  6 25  1  0  0  0
  6 93  1  0  0  0
  6 94  1  0  0  0
  7  8  2  0  0  0
  7 26  1  0  0  0
  7 29  1  0  0  0
  8  9  1  0  0  0
  8 22  1  0  0  0
  9 10  1  0  0  0
  9 27  2  0  0  0
 10 11  2  0  0  0
 10 15  1  0  0  0
 11 12  1  0  0  0
 11 95  1  0  0  0
 12 13  2  0  0  0
 12 96  1  0  0  0
 13 14  1  0  0  0
 13 31  1  0  0  0
 14 15  2  0  0  0
 14 97  1  0  0  0
 15 98  1  0  0  0
 16 17  2  0  0  0
 16 21  1  0  0  0
 16 31  1  0  0  0
 17 18  1  0  0  0
 17 99  1  0  0  0
 18 19  2  0  0  0
 18100  1  0  0  0
 19 20  1  0  0  0
 19 24  1  0  0  0
 20 21  2  0  0  0
 20101  1  0  0  0
 21 23  1  0  0  0
 22 28  1  0  0  0
 22 32  2  0  0  0
 26 27  1  0  0  0
 28102  1  0  0  0
 28103  1  0  0  0
 29104  1  0  0  0
 29105  1  0  0  0
 33 34  1  0  0  0
 33 66  1  0  0  0
 33 70  2  0  0  0
 34 36  1  0  0  0
 34 59  1  0  0  0
 34106  1  0  0  0
 35 44  2  0  0  0
 35 45  1  0  0  0
 35 68  1  0  0  0
 36 56  1  0  0  0
 36107  1  0  0  0
 37 39  1  0  0  0
 37 47  1  0  0  0
 37 66  1  0  0  0
 37108  1  0  0  0
 38 43  2  0  0  0
 38 46  1  0  0  0
 38 47  1  0  0  0
 39 64  1  0  0  0
 39 67  2  0  0  0
 40 52  1  0  0  0
 40 53  2  0  0  0
 40 58  1  0  0  0
 41109  1  0  0  0
 41110  1  0  0  0
 41111  1  0  0  0
 41 48  1  0  0  0
 42 43  1  0  0  0
 42 66  1  0  0  0
 42112  1  0  0  0
 42113  1  0  0  0
 43 44  1  0  0  0
 44114  1  0  0  0
 45 46  2  0  0  0
 45115  1  0  0  0
 46116  1  0  0  0
 47117  1  0  0  0
 47118  1  0  0  0
 48 56  1  0  0  0
 48 65  1  0  0  0
 48119  1  0  0  0
 49 50  1  0  0  0
 49 53  1  0  0  0
 49 64  1  0  0  0
 49120  1  0  0  0
 50 51  1  0  0  0
 50121  1  0  0  0
 50122  1  0  0  0
 51 52  1  0  0  0
 51123  1  0  0  0
 51124  1  0  0  0
 52125  1  0  0  0
 52126  1  0  0  0
 53 54  1  0  0  0
 54 55  2  0  0  0
 54127  1  0  0  0
 55 57  1  0  0  0
 55128  1  0  0  0
 56 69  2  0  0  0
 57 58  2  0  0  0
 57129  1  0  0  0
 58130  1  0  0  0
 59 60  1  0  0  0
 59 61  1  0  0  0
 59 62  1  0  0  0
 60131  1  0  0  0
 60132  1  0  0  0
 60133  1  0  0  0
 61134  1  0  0  0
 61135  1  0  0  0
 61136  1  0  0  0
 62137  1  0  0  0
 62138  1  0  0  0
 62139  1  0  0  0
 63 65  1  0  0  0
 63140  1  0  0  0
 63141  1  0  0  0
 63142  1  0  0  0
 64143  1  0  0  0
 65144  1  0  0  0
 68 82  1  0  0  0
 71 73  2  0  0  0
 71 75  1  0  0  0
 71145  1  0  0  0
 72 74  1  0  0  0
 72 75  2  0  0  0
 72146  1  0  0  0
 73 76  1  0  0  0
 73147  1  0  0  0
 74 76  2  0  0  0
 74148  1  0  0  0
 75 77  1  0  0  0
 76 84  1  0  0  0
 77 83  1  0  0  0
 77 85  2  0  0  0
 78 79  1  0  0  0
 78 81  1  0  0  0
 78149  1  0  0  0
 78150  1  0  0  0
 79 83  1  0  0  0
 79151  1  0  0  0
 79152  1  0  0  0
 80 81  1  0  0  0
 80 83  1  0  0  0
 80153  1  0  0  0
 80154  1  0  0  0
 81 82  1  0  0  0
 81155  1  0  0  0
 82156  1  0  0  0
 82157  1  0  0  0
 84158  1  0  0  0
M  ISO  4   1 100  68 101  82 101  84 100
M  END
> <chiral flag>
0

> <version>
0

> <s_m_source_file>
/data/baiqing/PycharmProjects/Reinvent-master-3.2/result/LINK_invent/BTK/process_docking_weight1_custom_product_contain_oxygen_bond_distance_aromatic_linkinvent_7_9_3/rearranged_h_0100.sdf

> <i_m_source_file_index>
71

> <r_mmod_Potential_Energy-OPLS-2005>
169.046356201172

> <r_mmod_Stretch_Energy-OPLS-2005>
46.9154281616211

> <r_mmod_Bend_Energy-OPLS-2005>
123.765090942383

> <r_mmod_Torsional_Energy-OPLS-2005>
369.393096923828

> <r_mmod_Improper_Torsional_Energy-OPLS-2005>
8.84942054748535

> <r_mmod_Van_der_Waal_Energy-OPLS-2005>
151.936553955078

> <r_mmod_Electrostatic_Energy-OPLS-2005>
-320.800689697266

> <r_mmod_Solvation_Energy-OPLS-2005>
-229.641067504883

> <b_mmod_Minimization_Converged-OPLS-2005>
0

> <r_mmod_RMS_Derivative-OPLS-2005>
1.67473006248474

$$$$
72
                    3D
 Structure written by MMmdl.
158167  0  0  1  0            999 V2000
  -30.6789  -14.4732   20.5973 C   0  0  0  0  0  0
  -30.4327  -12.3144   19.4214 C   0  0  0  0  0  0
  -29.4987  -12.4991   18.2058 C   0  0  0  0  0  0
  -28.0176  -12.3682   18.6146 C   0  0  0  0  0  0
  -27.6650  -13.2014   19.8767 C   0  0  2  0  0  0
  -28.7033  -12.9554   20.9944 C   0  0  0  0  0  0
  -25.2585  -13.8145   20.5666 C   0  0  0  0  0  0
  -24.1844  -13.0444   20.9188 C   0  0  0  0  0  0
  -24.6394  -11.6908   20.8774 C   0  0  0  0  0  0
  -23.9065  -10.4306   21.0438 C   0  0  0  0  0  0
  -24.3623   -9.4212   21.9187 C   0  0  0  0  0  0
  -23.6313   -8.2244   22.0739 C   0  0  0  0  0  0
  -22.4288   -8.0291   21.3552 C   0  0  0  0  0  0
  -21.9922   -9.0265   20.4647 C   0  0  0  0  0  0
  -22.7246  -10.2149   20.3070 C   0  0  0  0  0  0
  -21.6841   -6.0752   22.5295 C   0  0  0  0  0  0
  -21.4013   -6.5648   23.8234 C   0  0  0  0  0  0
  -21.3663   -5.6789   24.9187 C   0  0  0  0  0  0
  -21.6032   -4.3053   24.7226 C   0  0  0  0  0  0
  -21.8823   -3.8160   23.4347 C   0  0  0  0  0  0
  -21.9190   -4.6981   22.3411 C   0  0  0  0  0  0
  -22.7866  -13.5259   21.1840 C   0  0  0  0  0  0
  -22.1655   -4.2167   21.0987 F   0  0  0  0  0  0
  -21.5623   -3.4538   25.7739 F   0  0  0  0  0  0
  -30.0365  -13.2802   20.4584 N   0  0  0  0  0  0
  -26.3021  -12.9315   20.3357 N   0  0  0  0  0  0
  -25.9308  -11.6479   20.5792 N   0  0  0  0  0  0
  -22.0500  -12.8294   22.0416 N   0  0  0  0  0  0
  -25.4287  -15.1861   20.4047 N   0  0  0  0  0  0
  -31.7785  -14.6871   20.0813 O   0  0  0  0  0  0
  -21.6631   -6.8908   21.4265 O   0  0  0  0  0  0
  -22.3572  -14.5563   20.6650 O   0  0  0  0  0  0
  -24.6168  -31.8659   23.2068 C   0  0  0  0  0  0
  -25.9051  -32.4817   23.8373 C   0  0  1  0  0  0
  -27.2316  -27.4134   20.1201 C   0  0  0  0  0  0
  -25.5905  -33.8613   24.2306 N   0  0  0  0  0  0
  -23.4062  -30.4886   21.5441 C   0  0  2  0  0  0
  -24.8551  -28.9444   20.1173 C   0  0  0  0  0  0
  -22.7414  -29.4669   22.4961 C   0  0  0  0  0  0
  -18.0276  -28.1383   22.8494 C   0  0  0  0  0  0
  -24.1486  -36.7304   23.2642 C   0  0  0  0  0  0
  -25.9357  -30.8227   21.3645 C   0  0  0  0  0  0
  -26.0132  -29.4533   20.7197 C   0  0  0  0  0  0
  -27.2070  -28.6937   20.7213 C   0  0  0  0  0  0
  -26.0641  -26.9214   19.5062 C   0  0  0  0  0  0
  -24.8751  -27.6767   19.5068 C   0  0  0  0  0  0
  -23.6190  -29.8149   20.1610 C   0  0  0  0  0  0
  -25.4111  -36.3102   24.0342 C   0  0  1  0  0  0
  -20.5872  -28.3680   23.1314 C   0  0  2  0  0  0
  -20.6772  -26.9416   22.5421 C   0  0  0  0  0  0
  -19.5754  -26.6397   21.5211 C   0  0  0  0  0  0
  -18.1931  -26.7933   22.1619 C   0  0  0  0  0  0
  -19.1526  -28.8849   23.2903 C   0  0  0  0  0  0
  -18.9459  -30.1457   23.8916 C   0  0  0  0  0  0
  -17.6468  -30.6592   24.0574 C   0  0  0  0  0  0
  -25.9036  -34.9471   23.5113 C   0  0  0  0  0  0
  -16.5359  -29.9095   23.6335 C   0  0  0  0  0  0
  -16.7270  -28.6512   23.0352 C   0  0  0  0  0  0
  -26.4481  -31.6598   25.0707 C   0  0  0  0  0  0
  -25.3766  -31.3715   26.1471 C   0  0  0  0  0  0
  -27.0307  -30.3037   24.6083 C   0  0  0  0  0  0
  -27.6046  -32.4333   25.7487 C   0  0  0  0  0  0
  -27.5575  -37.1810   24.8467 C   0  0  0  0  0  0
  -21.4144  -29.3040   22.3708 N   0  0  0  0  0  0
  -26.4289  -37.3793   23.9413 N   0  0  0  0  0  0
  -24.6704  -31.0754   22.0965 N   0  0  0  0  0  0
  -23.4174  -28.8224   23.3025 O   0  0  0  0  0  0
  -28.3742  -26.6425   20.1039 O   0  0  0  0  0  0
  -26.5602  -34.8937   22.4674 O   0  0  0  0  0  0
  -23.5353  -32.1418   23.7448 O   0  0  0  0  0  0
  -28.6594  -18.8714   20.5575 C   0  0  0  0  0  0
  -28.7251  -17.4888   20.8628 C   0  0  0  0  0  0
  -31.0821  -18.9779   20.6062 C   0  0  0  0  0  0
  -29.8436  -19.6331   20.4054 C   0  0  0  0  0  0
  -29.9695  -16.8279   21.0137 C   0  0  0  0  0  0
  -31.1508  -17.6064   20.9355 C   0  0  0  0  0  0
  -29.8411  -21.0650   19.8997 C   0  0  0  0  0  0
  -28.0483  -23.3760   22.1871 C   0  0  0  0  0  0
  -28.2960  -21.9288   21.7194 C   0  0  0  0  0  0
  -29.1512  -23.4486   20.0711 C   0  0  0  0  0  0
  -28.1491  -24.2456   20.9278 C   0  0  2  0  0  0
  -28.5165  -25.7358   21.2141 C   0  0  0  0  0  0
  -29.1029  -22.0370   20.5038 N   0  0  0  0  0  0
  -29.9758  -15.4156   21.2635 N   0  0  0  0  0  0
  -30.5678  -21.3270   18.9373 O   0  0  0  0  0  0
  -32.3622  -17.0596   21.1901 F   0  0  0  0  0  0
  -31.4735  -12.4295   19.1170 H   0  0  0  0  0  0
  -30.3531  -11.2988   19.8111 H   0  0  0  0  0  0
  -29.7368  -11.7613   17.4380 H   0  0  0  0  0  0
  -29.6672  -13.4772   17.7547 H   0  0  0  0  0  0
  -27.8210  -11.3135   18.8053 H   0  0  0  0  0  0
  -27.3709  -12.6467   17.7819 H   0  0  0  0  0  0
  -27.7219  -14.2548   19.5970 H   0  0  0  0  0  0
  -28.6794  -11.9079   21.2966 H   0  0  0  0  0  0
  -28.4497  -13.5162   21.8962 H   0  0  0  0  0  0
  -25.2782   -9.5677   22.4740 H   0  0  0  0  0  0
  -24.0017   -7.4638   22.7448 H   0  0  0  0  0  0
  -21.0842   -8.8804   19.8977 H   0  0  0  0  0  0
  -22.3719  -10.9679   19.6175 H   0  0  0  0  0  0
  -21.2011   -7.6156   23.9758 H   0  0  0  0  0  0
  -21.1466   -6.0506   25.9090 H   0  0  0  0  0  0
  -22.0597   -2.7623   23.2841 H   0  0  0  0  0  0
  -22.4096  -11.9984   22.4862 H   0  0  0  0  0  0
  -21.1110  -13.1322   22.2591 H   0  0  0  0  0  0
  -24.6548  -15.8333   20.5063 H   0  0  0  0  0  0
  -26.2607  -15.6185   20.0262 H   0  0  0  0  0  0
  -26.7118  -32.5521   23.1131 H   0  0  0  0  0  0
  -25.0097  -33.9769   25.0477 H   0  0  0  0  0  0
  -22.6965  -31.3065   21.3990 H   0  0  0  0  0  0
  -23.3742  -35.9643   23.3332 H   0  0  0  0  0  0
  -24.3580  -36.8876   22.2048 H   0  0  0  0  0  0
  -23.7251  -37.6525   23.6633 H   0  0  0  0  0  0
  -26.0539  -31.5824   20.5906 H   0  0  0  0  0  0
  -26.8225  -30.8787   21.9840 H   0  0  0  0  0  0
  -28.1036  -29.0789   21.1873 H   0  0  0  0  0  0
  -26.0749  -25.9490   19.0349 H   0  0  0  0  0  0
  -23.9859  -27.2767   19.0389 H   0  0  0  0  0  0
  -23.7337  -30.5845   19.3982 H   0  0  0  0  0  0
  -22.7436  -29.2358   19.8626 H   0  0  0  0  0  0
  -25.1288  -36.1959   25.0838 H   0  0  0  0  0  0
  -20.9985  -28.3244   24.1418 H   0  0  0  0  0  0
  -20.5664  -26.2283   23.3609 H   0  0  0  0  0  0
  -21.6644  -26.7440   22.1217 H   0  0  0  0  0  0
  -19.6911  -25.6305   21.1228 H   0  0  0  0  0  0
  -19.6689  -27.3218   20.6757 H   0  0  0  0  0  0
  -17.4199  -26.6692   21.4016 H   0  0  0  0  0  0
  -18.0320  -26.0067   22.9009 H   0  0  0  0  0  0
  -19.7943  -30.7265   24.2274 H   0  0  0  0  0  0
  -17.5028  -31.6267   24.5171 H   0  0  0  0  0  0
  -15.5360  -30.3000   23.7660 H   0  0  0  0  0  0
  -15.8670  -28.0845   22.7045 H   0  0  0  0  0  0
  -24.5934  -30.7049   25.7828 H   0  0  0  0  0  0
  -24.8979  -32.2874   26.4940 H   0  0  0  0  0  0
  -25.8159  -30.8887   27.0204 H   0  0  0  0  0  0
  -26.2828  -29.6821   24.1133 H   0  0  0  0  0  0
  -27.4057  -29.7267   25.4541 H   0  0  0  0  0  0
  -27.8687  -30.4355   23.9238 H   0  0  0  0  0  0
  -27.2626  -33.3603   26.2114 H   0  0  0  0  0  0
  -28.3850  -32.6945   25.0321 H   0  0  0  0  0  0
  -28.0721  -31.8428   26.5373 H   0  0  0  0  0  0
  -28.2611  -38.0091   24.7506 H   0  0  0  0  0  0
  -28.1056  -36.2623   24.6300 H   0  0  0  0  0  0
  -27.2302  -37.1468   25.8875 H   0  0  0  0  0  0
  -20.9300  -29.8765   21.6937 H   0  0  0  0  0  0
  -26.0174  -38.2869   24.1402 H   0  0  0  0  0  0
  -27.6942  -19.3272   20.3800 H   0  0  0  0  0  0
  -27.8024  -16.9300   20.9455 H   0  0  0  0  0  0
  -32.0033  -19.5308   20.4937 H   0  0  0  0  0  0
  -28.8242  -23.6655   22.8988 H   0  0  0  0  0  0
  -27.0889  -23.4902   22.6929 H   0  0  0  0  0  0
  -27.3498  -21.4419   21.4777 H   0  0  0  0  0  0
  -28.7929  -21.3327   22.4887 H   0  0  0  0  0  0
  -30.1643  -23.8214   20.2266 H   0  0  0  0  0  0
  -28.9229  -23.5419   19.0074 H   0  0  0  0  0  0
  -27.1767  -24.2126   20.4358 H   0  0  0  0  0  0
  -29.5525  -25.7874   21.5504 H   0  0  0  0  0  0
  -27.9267  -26.0931   22.0609 H   0  0  0  0  0  0
  -29.1325  -15.0483   21.6741 H   0  0  0  0  0  0
  1 25  1  0  0  0
  1 30  2  0  0  0
  1 84  1  0  0  0
  2  3  1  0  0  0
  2 25  1  0  0  0
  2 87  1  0  0  0
  2 88  1  0  0  0
  3  4  1  0  0  0
  3 89  1  0  0  0
  3 90  1  0  0  0
  4  5  1  0  0  0
  4 91  1  0  0  0
  4 92  1  0  0  0
  5  6  1  0  0  0
  5 26  1  0  0  0
  5 93  1  0  0  0
  6 25  1  0  0  0
  6 94  1  0  0  0
  6 95  1  0  0  0
  7  8  2  0  0  0
  7 26  1  0  0  0
  7 29  1  0  0  0
  8  9  1  0  0  0
  8 22  1  0  0  0
  9 10  1  0  0  0
  9 27  2  0  0  0
 10 11  2  0  0  0
 10 15  1  0  0  0
 11 12  1  0  0  0
 11 96  1  0  0  0
 12 13  2  0  0  0
 12 97  1  0  0  0
 13 14  1  0  0  0
 13 31  1  0  0  0
 14 15  2  0  0  0
 14 98  1  0  0  0
 15 99  1  0  0  0
 16 17  2  0  0  0
 16 21  1  0  0  0
 16 31  1  0  0  0
 17 18  1  0  0  0
 17100  1  0  0  0
 18 19  2  0  0  0
 18101  1  0  0  0
 19 20  1  0  0  0
 19 24  1  0  0  0
 20 21  2  0  0  0
 20102  1  0  0  0
 21 23  1  0  0  0
 22 28  1  0  0  0
 22 32  2  0  0  0
 26 27  1  0  0  0
 28103  1  0  0  0
 28104  1  0  0  0
 29105  1  0  0  0
 29106  1  0  0  0
 33 34  1  0  0  0
 33 66  1  0  0  0
 33 70  2  0  0  0
 34 36  1  0  0  0
 34 59  1  0  0  0
 34107  1  0  0  0
 35 44  2  0  0  0
 35 45  1  0  0  0
 35 68  1  0  0  0
 36 56  1  0  0  0
 36108  1  0  0  0
 37 39  1  0  0  0
 37 47  1  0  0  0
 37 66  1  0  0  0
 37109  1  0  0  0
 38 43  2  0  0  0
 38 46  1  0  0  0
 38 47  1  0  0  0
 39 64  1  0  0  0
 39 67  2  0  0  0
 40 52  1  0  0  0
 40 53  2  0  0  0
 40 58  1  0  0  0
 41110  1  0  0  0
 41111  1  0  0  0
 41112  1  0  0  0
 41 48  1  0  0  0
 42 43  1  0  0  0
 42 66  1  0  0  0
 42113  1  0  0  0
 42114  1  0  0  0
 43 44  1  0  0  0
 44115  1  0  0  0
 45 46  2  0  0  0
 45116  1  0  0  0
 46117  1  0  0  0
 47118  1  0  0  0
 47119  1  0  0  0
 48 56  1  0  0  0
 48 65  1  0  0  0
 48120  1  0  0  0
 49 50  1  0  0  0
 49 53  1  0  0  0
 49 64  1  0  0  0
 49121  1  0  0  0
 50 51  1  0  0  0
 50122  1  0  0  0
 50123  1  0  0  0
 51 52  1  0  0  0
 51124  1  0  0  0
 51125  1  0  0  0
 52126  1  0  0  0
 52127  1  0  0  0
 53 54  1  0  0  0
 54 55  2  0  0  0
 54128  1  0  0  0
 55 57  1  0  0  0
 55129  1  0  0  0
 56 69  2  0  0  0
 57 58  2  0  0  0
 57130  1  0  0  0
 58131  1  0  0  0
 59 60  1  0  0  0
 59 61  1  0  0  0
 59 62  1  0  0  0
 60132  1  0  0  0
 60133  1  0  0  0
 60134  1  0  0  0
 61135  1  0  0  0
 61136  1  0  0  0
 61137  1  0  0  0
 62138  1  0  0  0
 62139  1  0  0  0
 62140  1  0  0  0
 63 65  1  0  0  0
 63141  1  0  0  0
 63142  1  0  0  0
 63143  1  0  0  0
 64144  1  0  0  0
 65145  1  0  0  0
 68 82  1  0  0  0
 71 72  2  0  0  0
 71 74  1  0  0  0
 71146  1  0  0  0
 72 75  1  0  0  0
 72147  1  0  0  0
 73 74  2  0  0  0
 73 76  1  0  0  0
 73148  1  0  0  0
 74 77  1  0  0  0
 75 76  2  0  0  0
 75 84  1  0  0  0
 76 86  1  0  0  0
 77 83  1  0  0  0
 77 85  2  0  0  0
 78 79  1  0  0  0
 78 81  1  0  0  0
 78149  1  0  0  0
 78150  1  0  0  0
 79 83  1  0  0  0
 79151  1  0  0  0
 79152  1  0  0  0
 80 81  1  0  0  0
 80 83  1  0  0  0
 80153  1  0  0  0
 80154  1  0  0  0
 81 82  1  0  0  0
 81155  1  0  0  0
 82156  1  0  0  0
 82157  1  0  0  0
 84158  1  0  0  0
M  ISO  4   1 100  68 101  82 101  84 100
M  END
> <chiral flag>
0

> <version>
0

> <s_m_source_file>
/data/baiqing/PycharmProjects/Reinvent-master-3.2/result/LINK_invent/BTK/process_docking_weight1_custom_product_contain_oxygen_bond_distance_aromatic_linkinvent_7_9_3/rearranged_h_0100.sdf

> <i_m_source_file_index>
72

> <r_mmod_Potential_Energy-OPLS-2005>
61.5994758605957

> <r_mmod_Stretch_Energy-OPLS-2005>
42.0884399414062

> <r_mmod_Bend_Energy-OPLS-2005>
121.888999938965

> <r_mmod_Torsional_Energy-OPLS-2005>
345.329681396484

> <r_mmod_Improper_Torsional_Energy-OPLS-2005>
5.24740695953369

> <r_mmod_Van_der_Waal_Energy-OPLS-2005>
143.141616821289

> <r_mmod_Electrostatic_Energy-OPLS-2005>
-371.111633300781

> <r_mmod_Solvation_Energy-OPLS-2005>
-238.52311706543

> <b_mmod_Minimization_Converged-OPLS-2005>
0

> <r_mmod_RMS_Derivative-OPLS-2005>
3.09271645545959

$$$$
73
                    3D
 Structure written by MMmdl.
147155  0  0  1  0            999 V2000
  -30.4962  -15.0343   20.4020 C   0  0  0  0  0  0
  -30.4467  -12.6433   19.5048 C   0  0  0  0  0  0
  -29.5276  -12.5411   18.2635 C   0  0  0  0  0  0
  -28.0634  -12.3110   18.6833 C   0  0  0  0  0  0
  -27.6273  -13.2522   19.8357 C   0  0  2  0  0  0
  -28.6694  -13.3078   20.9730 C   0  0  0  0  0  0
  -25.2452  -13.8216   20.5713 C   0  0  0  0  0  0
  -24.1776  -13.0435   20.9237 C   0  0  0  0  0  0
  -24.6399  -11.6923   20.8759 C   0  0  0  0  0  0
  -23.9084  -10.4292   21.0409 C   0  0  0  0  0  0
  -24.3630   -9.4205   21.9186 C   0  0  0  0  0  0
  -23.6301   -8.2242   22.0754 C   0  0  0  0  0  0
  -22.4281   -8.0283   21.3545 C   0  0  0  0  0  0
  -21.9922   -9.0257   20.4646 C   0  0  0  0  0  0
  -22.7256  -10.2134   20.3057 C   0  0  0  0  0  0
  -21.6854   -6.0738   22.5279 C   0  0  0  0  0  0
  -21.4014   -6.5641   23.8213 C   0  0  0  0  0  0
  -21.3660   -5.6793   24.9175 C   0  0  0  0  0  0
  -21.6044   -4.3056   24.7224 C   0  0  0  0  0  0
  -21.8819   -3.8148   23.4345 C   0  0  0  0  0  0
  -21.9193   -4.6966   22.3401 C   0  0  0  0  0  0
  -22.7795  -13.5203   21.1890 C   0  0  0  0  0  0
  -22.1662   -4.2152   21.0979 F   0  0  0  0  0  0
  -21.5628   -3.4538   25.7736 F   0  0  0  0  0  0
  -29.9349  -13.7495   20.3705 N   0  0  0  0  0  0
  -26.2878  -12.9454   20.3236 N   0  0  0  0  0  0
  -25.9332  -11.6581   20.5736 N   0  0  0  0  0  0
  -22.0447  -12.8188   22.0443 N   0  0  0  0  0  0
  -25.4098  -15.1947   20.4124 N   0  0  0  0  0  0
  -31.7046  -15.1055   20.1431 O   0  0  0  0  0  0
  -21.6643   -6.8882   21.4242 O   0  0  0  0  0  0
  -22.3479  -14.5507   20.6734 O   0  0  0  0  0  0
  -24.6499  -31.8379   23.1828 C   0  0  0  0  0  0
  -25.9242  -32.4663   23.8241 C   0  0  1  0  0  0
  -27.2178  -27.0731   20.1593 C   0  0  0  0  0  0
  -25.5965  -33.8471   24.2155 N   0  0  0  0  0  0
  -23.4570  -30.4555   21.5296 C   0  0  2  0  0  0
  -24.9081  -28.8714   20.1106 C   0  0  0  0  0  0
  -22.7602  -29.4516   22.4833 C   0  0  0  0  0  0
  -18.0311  -28.1401   22.8474 C   0  0  0  0  0  0
  -24.1491  -36.7239   23.2645 C   0  0  0  0  0  0
  -26.0178  -30.6916   21.3915 C   0  0  0  0  0  0
  -26.0885  -29.2966   20.7333 C   0  0  0  0  0  0
  -27.2434  -28.4155   20.7378 C   0  0  0  0  0  0
  -26.0096  -26.7672   19.4936 C   0  0  0  0  0  0
  -24.8854  -27.6226   19.4733 C   0  0  0  0  0  0
  -23.6877  -29.7814   20.1510 C   0  0  0  0  0  0
  -25.4127  -36.3012   24.0311 C   0  0  1  0  0  0
  -20.5928  -28.3733   23.1218 C   0  0  2  0  0  0
  -20.6793  -26.9430   22.5401 C   0  0  0  0  0  0
  -19.5766  -26.6381   21.5212 C   0  0  0  0  0  0
  -18.1947  -26.7938   22.1623 C   0  0  0  0  0  0
  -19.1570  -28.8886   23.2836 C   0  0  0  0  0  0
  -18.9484  -30.1480   23.8865 C   0  0  0  0  0  0
  -17.6479  -30.6595   24.0558 C   0  0  0  0  0  0
  -25.9082  -34.9389   23.5044 C   0  0  0  0  0  0
  -16.5370  -29.9085   23.6339 C   0  0  0  0  0  0
  -16.7295  -28.6505   23.0359 C   0  0  0  0  0  0
  -26.4540  -31.6555   25.0710 C   0  0  0  0  0  0
  -25.3706  -31.3763   26.1392 C   0  0  0  0  0  0
  -27.0418  -30.2942   24.6342 C   0  0  0  0  0  0
  -27.6056  -32.4336   25.7502 C   0  0  0  0  0  0
  -27.5570  -37.1781   24.8470 C   0  0  0  0  0  0
  -21.4287  -29.3048   22.3582 N   0  0  0  0  0  0
  -26.4286  -37.3731   23.9404 N   0  0  0  0  0  0
  -24.7285  -31.0178   22.0892 N   0  0  0  0  0  0
  -23.4215  -28.8070   23.3012 O   0  0  0  0  0  0
  -28.2439  -26.0390   20.2315 O   0  0  0  0  0  0
  -26.5672  -34.8899   22.4626 O   0  0  0  0  0  0
  -23.5602  -32.1281   23.7010 O   0  0  0  0  0  0
  -30.9830  -18.5415   20.2551 C   0  0  0  0  0  0
  -30.6726  -19.9045   20.1996 C   0  0  0  0  0  0
  -28.8017  -18.7800   20.4576 C   0  0  0  0  0  0
  -29.7956  -17.7553   20.4195 C   0  0  0  0  0  0
  -28.9368  -23.1963   20.3210 C   0  0  0  0  0  0
  -28.5001  -21.5661   20.2402 C   0  0  0  0  0  0
  -27.8913  -24.4985   20.0813 C   0  0  0  0  0  0
  -29.2982  -20.1540   20.3203 N   0  0  0  0  0  0
  -29.6634  -16.2035   20.5267 N   0  0  0  0  0  0
  -30.1184  -23.4571   20.5750 O   0  0  0  0  0  0
  -31.4752  -12.8216   19.1876 H   0  0  0  0  0  0
  -30.4648  -11.7005   20.0537 H   0  0  0  0  0  0
  -29.8614  -11.7348   17.6091 H   0  0  0  0  0  0
  -29.5998  -13.4599   17.6793 H   0  0  0  0  0  0
  -27.9741  -11.2728   19.0054 H   0  0  0  0  0  0
  -27.3983  -12.4227   17.8260 H   0  0  0  0  0  0
  -27.5804  -14.2476   19.3931 H   0  0  0  0  0  0
  -28.7776  -12.3368   21.4582 H   0  0  0  0  0  0
  -28.3539  -14.0071   21.7487 H   0  0  0  0  0  0
  -25.2773   -9.5681   22.4765 H   0  0  0  0  0  0
  -24.0007   -7.4632   22.7473 H   0  0  0  0  0  0
  -21.0854   -8.8780   19.8950 H   0  0  0  0  0  0
  -22.3715  -10.9675   19.6168 H   0  0  0  0  0  0
  -21.2007   -7.6150   23.9717 H   0  0  0  0  0  0
  -21.1481   -6.0523   25.9078 H   0  0  0  0  0  0
  -22.0598   -2.7611   23.2843 H   0  0  0  0  0  0
  -22.4073  -11.9853   22.4831 H   0  0  0  0  0  0
  -21.1061  -13.1203   22.2649 H   0  0  0  0  0  0
  -24.6345  -15.8403   20.5174 H   0  0  0  0  0  0
  -26.2406  -15.6351   20.0400 H   0  0  0  0  0  0
  -26.7309  -32.5248   23.0965 H   0  0  0  0  0  0
  -25.0090  -33.9575   25.0288 H   0  0  0  0  0  0
  -22.7630  -31.2833   21.3704 H   0  0  0  0  0  0
  -23.3756  -35.9569   23.3305 H   0  0  0  0  0  0
  -24.3570  -36.8876   22.2060 H   0  0  0  0  0  0
  -23.7249  -37.6434   23.6687 H   0  0  0  0  0  0
  -26.1817  -31.4425   20.6173 H   0  0  0  0  0  0
  -26.8848  -30.7430   22.0384 H   0  0  0  0  0  0
  -28.1398  -28.7365   21.2494 H   0  0  0  0  0  0
  -25.8960  -25.8149   18.9987 H   0  0  0  0  0  0
  -23.9862  -27.2927   18.9710 H   0  0  0  0  0  0
  -23.8302  -30.5542   19.3948 H   0  0  0  0  0  0
  -22.8009  -29.2276   19.8375 H   0  0  0  0  0  0
  -25.1321  -36.1830   25.0805 H   0  0  0  0  0  0
  -21.0019  -28.3328   24.1339 H   0  0  0  0  0  0
  -20.5681  -26.2351   23.3628 H   0  0  0  0  0  0
  -21.6658  -26.7425   22.1202 H   0  0  0  0  0  0
  -19.6926  -25.6283   21.1262 H   0  0  0  0  0  0
  -19.6702  -27.3174   20.6728 H   0  0  0  0  0  0
  -17.4216  -26.6681   21.4027 H   0  0  0  0  0  0
  -18.0347  -26.0088   22.9027 H   0  0  0  0  0  0
  -19.7961  -30.7306   24.2218 H   0  0  0  0  0  0
  -17.5032  -31.6271   24.5166 H   0  0  0  0  0  0
  -15.5368  -30.2976   23.7685 H   0  0  0  0  0  0
  -15.8695  -28.0813   22.7092 H   0  0  0  0  0  0
  -24.5900  -30.7096   25.7710 H   0  0  0  0  0  0
  -24.8879  -32.2950   26.4735 H   0  0  0  0  0  0
  -25.7974  -30.8992   27.0223 H   0  0  0  0  0  0
  -26.3055  -29.6648   24.1333 H   0  0  0  0  0  0
  -27.3989  -29.7265   25.4945 H   0  0  0  0  0  0
  -27.8979  -30.4162   23.9704 H   0  0  0  0  0  0
  -27.2641  -33.3667   26.1996 H   0  0  0  0  0  0
  -28.3912  -32.6848   25.0363 H   0  0  0  0  0  0
  -28.0675  -31.8516   26.5488 H   0  0  0  0  0  0
  -28.2591  -38.0073   24.7493 H   0  0  0  0  0  0
  -28.1060  -36.2599   24.6327 H   0  0  0  0  0  0
  -27.2282  -37.1464   25.8872 H   0  0  0  0  0  0
  -20.9512  -29.8756   21.6747 H   0  0  0  0  0  0
  -26.0146  -38.2798   24.1396 H   0  0  0  0  0  0
  -31.9895  -18.1526   20.1772 H   0  0  0  0  0  0
  -31.3411  -20.7467   20.0705 H   0  0  0  0  0  0
  -27.7313  -18.6563   20.5626 H   0  0  0  0  0  0
  -27.9447  -21.5100   19.3044 H   0  0  0  0  0  0
  -27.7256  -21.4848   21.0021 H   0  0  0  0  0  0
  -27.0363  -24.3130   20.7316 H   0  0  0  0  0  0
  -27.5163  -24.3665   19.0669 H   0  0  0  0  0  0
  -28.7117  -15.9148   20.6956 H   0  0  0  0  0  0
  1 25  1  0  0  0
  1 30  2  0  0  0
  1 79  1  0  0  0
  2  3  1  0  0  0
  2 25  1  0  0  0
  2 81  1  0  0  0
  2 82  1  0  0  0
  3  4  1  0  0  0
  3 83  1  0  0  0
  3 84  1  0  0  0
  4  5  1  0  0  0
  4 85  1  0  0  0
  4 86  1  0  0  0
  5  6  1  0  0  0
  5 26  1  0  0  0
  5 87  1  0  0  0
  6 25  1  0  0  0
  6 88  1  0  0  0
  6 89  1  0  0  0
  7  8  2  0  0  0
  7 26  1  0  0  0
  7 29  1  0  0  0
  8  9  1  0  0  0
  8 22  1  0  0  0
  9 10  1  0  0  0
  9 27  2  0  0  0
 10 11  2  0  0  0
 10 15  1  0  0  0
 11 12  1  0  0  0
 11 90  1  0  0  0
 12 13  2  0  0  0
 12 91  1  0  0  0
 13 14  1  0  0  0
 13 31  1  0  0  0
 14 15  2  0  0  0
 14 92  1  0  0  0
 15 93  1  0  0  0
 16 17  2  0  0  0
 16 21  1  0  0  0
 16 31  1  0  0  0
 17 18  1  0  0  0
 17 94  1  0  0  0
 18 19  2  0  0  0
 18 95  1  0  0  0
 19 20  1  0  0  0
 19 24  1  0  0  0
 20 21  2  0  0  0
 20 96  1  0  0  0
 21 23  1  0  0  0
 22 28  1  0  0  0
 22 32  2  0  0  0
 26 27  1  0  0  0
 28 97  1  0  0  0
 28 98  1  0  0  0
 29 99  1  0  0  0
 29100  1  0  0  0
 33 34  1  0  0  0
 33 66  1  0  0  0
 33 70  2  0  0  0
 34 36  1  0  0  0
 34 59  1  0  0  0
 34101  1  0  0  0
 35 44  2  0  0  0
 35 45  1  0  0  0
 35 68  1  0  0  0
 36 56  1  0  0  0
 36102  1  0  0  0
 37 39  1  0  0  0
 37 47  1  0  0  0
 37 66  1  0  0  0
 37103  1  0  0  0
 38 43  2  0  0  0
 38 46  1  0  0  0
 38 47  1  0  0  0
 39 64  1  0  0  0
 39 67  2  0  0  0
 40 52  1  0  0  0
 40 53  2  0  0  0
 40 58  1  0  0  0
 41104  1  0  0  0
 41105  1  0  0  0
 41106  1  0  0  0
 41 48  1  0  0  0
 42 43  1  0  0  0
 42 66  1  0  0  0
 42107  1  0  0  0
 42108  1  0  0  0
 43 44  1  0  0  0
 44109  1  0  0  0
 45 46  2  0  0  0
 45110  1  0  0  0
 46111  1  0  0  0
 47112  1  0  0  0
 47113  1  0  0  0
 48 56  1  0  0  0
 48 65  1  0  0  0
 48114  1  0  0  0
 49 50  1  0  0  0
 49 53  1  0  0  0
 49 64  1  0  0  0
 49115  1  0  0  0
 50 51  1  0  0  0
 50116  1  0  0  0
 50117  1  0  0  0
 51 52  1  0  0  0
 51118  1  0  0  0
 51119  1  0  0  0
 52120  1  0  0  0
 52121  1  0  0  0
 53 54  1  0  0  0
 54 55  2  0  0  0
 54122  1  0  0  0
 55 57  1  0  0  0
 55123  1  0  0  0
 56 69  2  0  0  0
 57 58  2  0  0  0
 57124  1  0  0  0
 58125  1  0  0  0
 59 60  1  0  0  0
 59 61  1  0  0  0
 59 62  1  0  0  0
 60126  1  0  0  0
 60127  1  0  0  0
 60128  1  0  0  0
 61129  1  0  0  0
 61130  1  0  0  0
 61131  1  0  0  0
 62132  1  0  0  0
 62133  1  0  0  0
 62134  1  0  0  0
 63 65  1  0  0  0
 63135  1  0  0  0
 63136  1  0  0  0
 63137  1  0  0  0
 64138  1  0  0  0
 65139  1  0  0  0
 68 77  1  0  0  0
 71 72  2  0  0  0
 71 74  1  0  0  0
 71140  1  0  0  0
 72 78  1  0  0  0
 72141  1  0  0  0
 73 74  2  0  0  0
 73 78  1  0  0  0
 73142  1  0  0  0
 74 79  1  0  0  0
 75 76  1  0  0  0
 75 77  1  0  0  0
 75 80  2  0  0  0
 76 78  1  0  0  0
 76143  1  0  0  0
 76144  1  0  0  0
 77145  1  0  0  0
 77146  1  0  0  0
 79147  1  0  0  0
M  ISO  4   1 100  68 101  77 101  79 100
M  END
> <chiral flag>
0

> <version>
0

> <s_m_source_file>
/data/baiqing/PycharmProjects/Reinvent-master-3.2/result/LINK_invent/BTK/process_docking_weight1_custom_product_contain_oxygen_bond_distance_aromatic_linkinvent_7_9_3/rearranged_h_0100.sdf

> <i_m_source_file_index>
73

> <r_mmod_Potential_Energy-OPLS-2005>
644.922180175781

> <r_mmod_Stretch_Energy-OPLS-2005>
319.083770751953

> <r_mmod_Bend_Energy-OPLS-2005>
290.304962158203

> <r_mmod_Torsional_Energy-OPLS-2005>
217.962615966797

> <r_mmod_Improper_Torsional_Energy-OPLS-2005>
4.47090625762939

> <r_mmod_Van_der_Waal_Energy-OPLS-2005>
107.645248413086

> <r_mmod_Electrostatic_Energy-OPLS-2005>
-299.496398925781

> <r_mmod_Solvation_Energy-OPLS-2005>
-253.017562866211

> <b_mmod_Minimization_Converged-OPLS-2005>
0

> <r_mmod_RMS_Derivative-OPLS-2005>
0.238593354821205

$$$$
74
                    3D
 Structure written by MMmdl.
151159  0  0  1  0            999 V2000
  -30.6289  -14.7183   20.4493 C   0  0  0  0  0  0
  -30.4260  -12.4338   19.4813 C   0  0  0  0  0  0
  -29.5080  -12.5032   18.2408 C   0  0  0  0  0  0
  -28.0330  -12.3350   18.6519 C   0  0  0  0  0  0
  -27.6435  -13.2327   19.8573 C   0  0  2  0  0  0
  -28.6882  -13.1596   20.9939 C   0  0  0  0  0  0
  -25.2512  -13.8211   20.5711 C   0  0  0  0  0  0
  -24.1802  -13.0450   20.9214 C   0  0  0  0  0  0
  -24.6392  -11.6927   20.8752 C   0  0  0  0  0  0
  -23.9068  -10.4301   21.0406 C   0  0  0  0  0  0
  -24.3619   -9.4217   21.9183 C   0  0  0  0  0  0
  -23.6294   -8.2250   22.0749 C   0  0  0  0  0  0
  -22.4277   -8.0286   21.3541 C   0  0  0  0  0  0
  -21.9916   -9.0262   20.4647 C   0  0  0  0  0  0
  -22.7240  -10.2143   20.3059 C   0  0  0  0  0  0
  -21.6851   -6.0739   22.5273 C   0  0  0  0  0  0
  -21.4013   -6.5638   23.8212 C   0  0  0  0  0  0
  -21.3659   -5.6789   24.9176 C   0  0  0  0  0  0
  -21.6046   -4.3053   24.7222 C   0  0  0  0  0  0
  -21.8820   -3.8145   23.4345 C   0  0  0  0  0  0
  -21.9195   -4.6964   22.3399 C   0  0  0  0  0  0
  -22.7823  -13.5225   21.1874 C   0  0  0  0  0  0
  -22.1662   -4.2143   21.0981 F   0  0  0  0  0  0
  -21.5630   -3.4541   25.7742 F   0  0  0  0  0  0
  -29.9944  -13.4974   20.4172 N   0  0  0  0  0  0
  -26.2945  -12.9414   20.3321 N   0  0  0  0  0  0
  -25.9325  -11.6553   20.5771 N   0  0  0  0  0  0
  -22.0472  -12.8213   22.0433 N   0  0  0  0  0  0
  -25.4215  -15.1934   20.4135 N   0  0  0  0  0  0
  -31.8156  -14.7939   20.1198 O   0  0  0  0  0  0
  -21.6643   -6.8883   21.4237 O   0  0  0  0  0  0
  -22.3512  -14.5532   20.6728 O   0  0  0  0  0  0
  -24.6299  -31.8571   23.2024 C   0  0  0  0  0  0
  -25.9131  -32.4768   23.8348 C   0  0  1  0  0  0
  -27.2188  -27.2679   20.1236 C   0  0  0  0  0  0
  -25.5936  -33.8565   24.2271 N   0  0  0  0  0  0
  -23.4264  -30.4812   21.5453 C   0  0  2  0  0  0
  -24.8742  -28.9338   20.1076 C   0  0  0  0  0  0
  -22.7502  -29.4591   22.4912 C   0  0  0  0  0  0
  -18.0298  -28.1368   22.8477 C   0  0  0  0  0  0
  -24.1492  -36.7277   23.2635 C   0  0  0  0  0  0
  -25.9727  -30.7686   21.3871 C   0  0  0  0  0  0
  -26.0438  -29.3939   20.7245 C   0  0  0  0  0  0
  -27.2163  -28.5711   20.7269 C   0  0  0  0  0  0
  -26.0304  -26.8905   19.4558 C   0  0  0  0  0  0
  -24.8718  -27.6890   19.4631 C   0  0  0  0  0  0
  -23.6447  -29.8196   20.1587 C   0  0  0  0  0  0
  -25.4121  -36.3067   24.0322 C   0  0  1  0  0  0
  -20.5905  -28.3679   23.1263 C   0  0  2  0  0  0
  -20.6786  -26.9391   22.5407 C   0  0  0  0  0  0
  -19.5757  -26.6368   21.5207 C   0  0  0  0  0  0
  -18.1935  -26.7915   22.1611 C   0  0  0  0  0  0
  -19.1553  -28.8837   23.2864 C   0  0  0  0  0  0
  -18.9473  -30.1439   23.8883 C   0  0  0  0  0  0
  -17.6470  -30.6574   24.0542 C   0  0  0  0  0  0
  -25.9058  -34.9437   23.5094 C   0  0  0  0  0  0
  -16.5357  -29.9064   23.6328 C   0  0  0  0  0  0
  -16.7284  -28.6479   23.0357 C   0  0  0  0  0  0
  -26.4507  -31.6595   25.0733 C   0  0  0  0  0  0
  -25.3723  -31.3730   26.1451 C   0  0  0  0  0  0
  -27.0379  -30.3013   24.6235 C   0  0  0  0  0  0
  -27.6066  -32.4345   25.7497 C   0  0  0  0  0  0
  -27.5586  -37.1796   24.8462 C   0  0  0  0  0  0
  -21.4215  -29.3026   22.3646 N   0  0  0  0  0  0
  -26.4304  -37.3766   23.9398 N   0  0  0  0  0  0
  -24.6947  -31.0540   22.1003 N   0  0  0  0  0  0
  -23.4211  -28.8119   23.2989 O   0  0  0  0  0  0
  -28.3099  -26.3677   20.2129 O   0  0  0  0  0  0
  -26.5621  -34.8911   22.4659 O   0  0  0  0  0  0
  -23.5457  -32.1391   23.7337 O   0  0  0  0  0  0
  -29.5201  -18.4661   20.7195 C   0  0  0  0  0  0
  -30.7902  -17.4119   18.9393 C   0  0  0  0  0  0
  -30.4166  -19.8380   18.9218 C   0  0  0  0  0  0
  -30.0749  -17.2442   20.1490 C   0  0  0  0  0  0
  -29.6739  -19.7908   20.1239 C   0  0  0  0  0  0
  -30.9597  -18.6761   18.3431 C   0  0  0  0  0  0
  -28.9601  -23.7070   20.5524 C   0  0  0  0  0  0
  -28.1149  -24.9116   19.8842 C   0  0  0  0  0  0
  -28.8055  -22.2169   19.9379 C   0  0  0  0  0  0
  -29.8835  -15.8670   20.6849 N   0  0  0  0  0  0
  -29.1884  -20.9956   20.7184 O   0  0  0  0  0  0
  -31.6619  -18.7755   17.1888 F   0  0  0  0  0  0
  -31.4696  -12.5392   19.1824 H   0  0  0  0  0  0
  -30.3537  -11.4560   19.9588 H   0  0  0  0  0  0
  -29.7841  -11.7309   17.5219 H   0  0  0  0  0  0
  -29.6417  -13.4593   17.7319 H   0  0  0  0  0  0
  -27.8852  -11.2860   18.9101 H   0  0  0  0  0  0
  -27.3763  -12.5321   17.8036 H   0  0  0  0  0  0
  -27.6413  -14.2559   19.4810 H   0  0  0  0  0  0
  -28.7150  -12.1612   21.4334 H   0  0  0  0  0  0
  -28.4291  -13.8415   21.8046 H   0  0  0  0  0  0
  -25.2761   -9.5696   22.4765 H   0  0  0  0  0  0
  -24.0001   -7.4644   22.7469 H   0  0  0  0  0  0
  -21.0846   -8.8789   19.8952 H   0  0  0  0  0  0
  -22.3695  -10.9692   19.6177 H   0  0  0  0  0  0
  -21.2000   -7.6145   23.9711 H   0  0  0  0  0  0
  -21.1478   -6.0525   25.9079 H   0  0  0  0  0  0
  -22.0598   -2.7605   23.2852 H   0  0  0  0  0  0
  -22.4092  -11.9871   22.4810 H   0  0  0  0  0  0
  -21.1094  -13.1240   22.2650 H   0  0  0  0  0  0
  -24.6540  -15.8477   20.5229 H   0  0  0  0  0  0
  -26.2711  -15.6330   20.0815 H   0  0  0  0  0  0
  -26.7178  -32.5426   23.1078 H   0  0  0  0  0  0
  -25.0081  -33.9686   25.0410 H   0  0  0  0  0  0
  -22.7213  -31.3031   21.4032 H   0  0  0  0  0  0
  -23.3767  -35.9597   23.3300 H   0  0  0  0  0  0
  -24.3563  -36.8903   22.2046 H   0  0  0  0  0  0
  -23.7247  -37.6471   23.6673 H   0  0  0  0  0  0
  -26.1166  -31.5322   20.6226 H   0  0  0  0  0  0
  -26.8471  -30.8112   22.0254 H   0  0  0  0  0  0
  -28.1063  -28.9121   21.2377 H   0  0  0  0  0  0
  -25.9549  -25.9533   18.9264 H   0  0  0  0  0  0
  -23.9786  -27.3360   18.9649 H   0  0  0  0  0  0
  -23.7650  -30.5988   19.4050 H   0  0  0  0  0  0
  -22.7626  -29.2518   19.8549 H   0  0  0  0  0  0
  -25.1312  -36.1916   25.0821 H   0  0  0  0  0  0
  -21.0003  -28.3294   24.1385 H   0  0  0  0  0  0
  -20.5694  -26.2281   23.3613 H   0  0  0  0  0  0
  -21.6654  -26.7424   22.1187 H   0  0  0  0  0  0
  -19.6908  -25.6279   21.1230 H   0  0  0  0  0  0
  -19.6709  -27.3180   20.6736 H   0  0  0  0  0  0
  -17.4209  -26.6657   21.4011 H   0  0  0  0  0  0
  -18.0319  -26.0065   22.9013 H   0  0  0  0  0  0
  -19.7952  -30.7236   24.2269 H   0  0  0  0  0  0
  -17.5029  -31.6266   24.5124 H   0  0  0  0  0  0
  -15.5353  -30.2944   23.7682 H   0  0  0  0  0  0
  -15.8686  -28.0786   22.7092 H   0  0  0  0  0  0
  -24.5906  -30.7084   25.7756 H   0  0  0  0  0  0
  -24.8898  -32.2882   26.4893 H   0  0  0  0  0  0
  -25.8032  -30.8888   27.0223 H   0  0  0  0  0  0
  -26.2975  -29.6731   24.1271 H   0  0  0  0  0  0
  -27.4057  -29.7318   25.4775 H   0  0  0  0  0  0
  -27.8854  -30.4271   23.9492 H   0  0  0  0  0  0
  -27.2694  -33.3666   26.2049 H   0  0  0  0  0  0
  -28.3897  -32.6878   25.0334 H   0  0  0  0  0  0
  -28.0712  -31.8475   26.5432 H   0  0  0  0  0  0
  -28.2605  -38.0092   24.7526 H   0  0  0  0  0  0
  -28.1086  -36.2626   24.6300 H   0  0  0  0  0  0
  -27.2280  -37.1454   25.8855 H   0  0  0  0  0  0
  -20.9398  -29.8749   21.6852 H   0  0  0  0  0  0
  -26.0187  -38.2838   24.1423 H   0  0  0  0  0  0
  -28.9605  -18.3933   21.6419 H   0  0  0  0  0  0
  -31.2184  -16.5650   18.4261 H   0  0  0  0  0  0
  -30.6236  -20.7690   18.4196 H   0  0  0  0  0  0
  -28.6915  -23.6659   21.6080 H   0  0  0  0  0  0
  -30.0178  -23.9708   20.5326 H   0  0  0  0  0  0
  -27.0851  -24.6376   20.1064 H   0  0  0  0  0  0
  -28.2217  -24.8316   18.8020 H   0  0  0  0  0  0
  -29.2854  -22.2368   18.9632 H   0  0  0  0  0  0
  -27.7481  -22.0775   19.7111 H   0  0  0  0  0  0
  -28.9993  -15.7039   21.1441 H   0  0  0  0  0  0
  1 25  1  0  0  0
  1 30  2  0  0  0
  1 80  1  0  0  0
  2  3  1  0  0  0
  2 25  1  0  0  0
  2 83  1  0  0  0
  2 84  1  0  0  0
  3  4  1  0  0  0
  3 85  1  0  0  0
  3 86  1  0  0  0
  4  5  1  0  0  0
  4 87  1  0  0  0
  4 88  1  0  0  0
  5  6  1  0  0  0
  5 26  1  0  0  0
  5 89  1  0  0  0
  6 25  1  0  0  0
  6 90  1  0  0  0
  6 91  1  0  0  0
  7  8  2  0  0  0
  7 26  1  0  0  0
  7 29  1  0  0  0
  8  9  1  0  0  0
  8 22  1  0  0  0
  9 10  1  0  0  0
  9 27  2  0  0  0
 10 11  2  0  0  0
 10 15  1  0  0  0
 11 12  1  0  0  0
 11 92  1  0  0  0
 12 13  2  0  0  0
 12 93  1  0  0  0
 13 14  1  0  0  0
 13 31  1  0  0  0
 14 15  2  0  0  0
 14 94  1  0  0  0
 15 95  1  0  0  0
 16 17  2  0  0  0
 16 21  1  0  0  0
 16 31  1  0  0  0
 17 18  1  0  0  0
 17 96  1  0  0  0
 18 19  2  0  0  0
 18 97  1  0  0  0
 19 20  1  0  0  0
 19 24  1  0  0  0
 20 21  2  0  0  0
 20 98  1  0  0  0
 21 23  1  0  0  0
 22 28  1  0  0  0
 22 32  2  0  0  0
 26 27  1  0  0  0
 28 99  1  0  0  0
 28100  1  0  0  0
 29101  1  0  0  0
 29102  1  0  0  0
 33 34  1  0  0  0
 33 66  1  0  0  0
 33 70  2  0  0  0
 34 36  1  0  0  0
 34 59  1  0  0  0
 34103  1  0  0  0
 35 44  2  0  0  0
 35 45  1  0  0  0
 35 68  1  0  0  0
 36 56  1  0  0  0
 36104  1  0  0  0
 37 39  1  0  0  0
 37 47  1  0  0  0
 37 66  1  0  0  0
 37105  1  0  0  0
 38 43  2  0  0  0
 38 46  1  0  0  0
 38 47  1  0  0  0
 39 64  1  0  0  0
 39 67  2  0  0  0
 40 52  1  0  0  0
 40 53  2  0  0  0
 40 58  1  0  0  0
 41106  1  0  0  0
 41107  1  0  0  0
 41108  1  0  0  0
 41 48  1  0  0  0
 42 43  1  0  0  0
 42 66  1  0  0  0
 42109  1  0  0  0
 42110  1  0  0  0
 43 44  1  0  0  0
 44111  1  0  0  0
 45 46  2  0  0  0
 45112  1  0  0  0
 46113  1  0  0  0
 47114  1  0  0  0
 47115  1  0  0  0
 48 56  1  0  0  0
 48 65  1  0  0  0
 48116  1  0  0  0
 49 50  1  0  0  0
 49 53  1  0  0  0
 49 64  1  0  0  0
 49117  1  0  0  0
 50 51  1  0  0  0
 50118  1  0  0  0
 50119  1  0  0  0
 51 52  1  0  0  0
 51120  1  0  0  0
 51121  1  0  0  0
 52122  1  0  0  0
 52123  1  0  0  0
 53 54  1  0  0  0
 54 55  2  0  0  0
 54124  1  0  0  0
 55 57  1  0  0  0
 55125  1  0  0  0
 56 69  2  0  0  0
 57 58  2  0  0  0
 57126  1  0  0  0
 58127  1  0  0  0
 59 60  1  0  0  0
 59 61  1  0  0  0
 59 62  1  0  0  0
 60128  1  0  0  0
 60129  1  0  0  0
 60130  1  0  0  0
 61131  1  0  0  0
 61132  1  0  0  0
 61133  1  0  0  0
 62134  1  0  0  0
 62135  1  0  0  0
 62136  1  0  0  0
 63 65  1  0  0  0
 63137  1  0  0  0
 63138  1  0  0  0
 63139  1  0  0  0
 64140  1  0  0  0
 65141  1  0  0  0
 68 78  1  0  0  0
 71 74  2  0  0  0
 71 75  1  0  0  0
 71142  1  0  0  0
 72 74  1  0  0  0
 72 76  2  0  0  0
 72143  1  0  0  0
 73 75  2  0  0  0
 73 76  1  0  0  0
 73144  1  0  0  0
 74 80  1  0  0  0
 75 81  1  0  0  0
 76 82  1  0  0  0
 77 78  1  0  0  0
 77 79  1  0  0  0
 77145  1  0  0  0
 77146  1  0  0  0
 78147  1  0  0  0
 78148  1  0  0  0
 79 81  1  0  0  0
 79149  1  0  0  0
 79150  1  0  0  0
 80151  1  0  0  0
M  ISO  4   1 100  68 101  78 101  80 100
M  END
> <chiral flag>
0

> <version>
0

> <s_m_source_file>
/data/baiqing/PycharmProjects/Reinvent-master-3.2/result/LINK_invent/BTK/process_docking_weight1_custom_product_contain_oxygen_bond_distance_aromatic_linkinvent_7_9_3/rearranged_h_0100.sdf

> <i_m_source_file_index>
74

> <r_mmod_Potential_Energy-OPLS-2005>
199.648544311523

> <r_mmod_Stretch_Energy-OPLS-2005>
123.214569091797

> <r_mmod_Bend_Energy-OPLS-2005>
166.177627563477

> <r_mmod_Torsional_Energy-OPLS-2005>
232.734649658203

> <r_mmod_Improper_Torsional_Energy-OPLS-2005>
4.42447233200073

> <r_mmod_Van_der_Waal_Energy-OPLS-2005>
150.046035766602

> <r_mmod_Electrostatic_Energy-OPLS-2005>
-344.304046630859

> <r_mmod_Solvation_Energy-OPLS-2005>
-212.241958618164

> <b_mmod_Minimization_Converged-OPLS-2005>
0

> <r_mmod_RMS_Derivative-OPLS-2005>
1.65730953216553

$$$$
75
                    3D
 Structure written by MMmdl.
160169  0  0  1  0            999 V2000
  -30.6542  -14.7417   20.4565 C   0  0  0  0  0  0
  -30.4198  -12.4541   19.4792 C   0  0  0  0  0  0
  -29.5042  -12.4986   18.2377 C   0  0  0  0  0  0
  -28.0333  -12.3246   18.6543 C   0  0  0  0  0  0
  -27.6380  -13.2381   19.8457 C   0  0  2  0  0  0
  -28.6829  -13.2040   20.9827 C   0  0  0  0  0  0
  -25.2482  -13.8217   20.5689 C   0  0  0  0  0  0
  -24.1786  -13.0448   20.9206 C   0  0  0  0  0  0
  -24.6394  -11.6937   20.8739 C   0  0  0  0  0  0
  -23.9073  -10.4309   21.0411 C   0  0  0  0  0  0
  -24.3618   -9.4221   21.9188 C   0  0  0  0  0  0
  -23.6294   -8.2259   22.0766 C   0  0  0  0  0  0
  -22.4276   -8.0290   21.3553 C   0  0  0  0  0  0
  -21.9911   -9.0268   20.4654 C   0  0  0  0  0  0
  -22.7248  -10.2146   20.3066 C   0  0  0  0  0  0
  -21.6850   -6.0739   22.5277 C   0  0  0  0  0  0
  -21.4015   -6.5637   23.8210 C   0  0  0  0  0  0
  -21.3659   -5.6791   24.9170 C   0  0  0  0  0  0
  -21.6036   -4.3055   24.7214 C   0  0  0  0  0  0
  -21.8820   -3.8150   23.4336 C   0  0  0  0  0  0
  -21.9189   -4.6967   22.3399 C   0  0  0  0  0  0
  -22.7810  -13.5228   21.1868 C   0  0  0  0  0  0
  -22.1659   -4.2153   21.0977 F   0  0  0  0  0  0
  -21.5633   -3.4545   25.7728 F   0  0  0  0  0  0
  -29.9854  -13.5372   20.3943 N   0  0  0  0  0  0
  -26.2915  -12.9439   20.3269 N   0  0  0  0  0  0
  -25.9325  -11.6577   20.5748 N   0  0  0  0  0  0
  -22.0450  -12.8217   22.0420 N   0  0  0  0  0  0
  -25.4163  -15.1940   20.4115 N   0  0  0  0  0  0
  -31.8424  -14.7652   20.1317 O   0  0  0  0  0  0
  -21.6641   -6.8886   21.4242 O   0  0  0  0  0  0
  -22.3500  -14.5532   20.6717 O   0  0  0  0  0  0
  -24.6293  -31.8557   23.1983 C   0  0  0  0  0  0
  -25.9126  -32.4750   23.8307 C   0  0  1  0  0  0
  -27.2131  -27.2502   20.1198 C   0  0  0  0  0  0
  -25.5932  -33.8553   24.2237 N   0  0  0  0  0  0
  -23.4259  -30.4768   21.5443 C   0  0  2  0  0  0
  -24.8741  -28.9318   20.1037 C   0  0  0  0  0  0
  -22.7495  -29.4564   22.4917 C   0  0  0  0  0  0
  -18.0291  -28.1358   22.8473 C   0  0  0  0  0  0
  -24.1502  -36.7283   23.2638 C   0  0  0  0  0  0
  -25.9740  -30.7594   21.3873 C   0  0  0  0  0  0
  -26.0443  -29.3841   20.7252 C   0  0  0  0  0  0
  -27.2122  -28.5518   20.7311 C   0  0  0  0  0  0
  -26.0249  -26.8890   19.4413 C   0  0  0  0  0  0
  -24.8703  -27.6923   19.4504 C   0  0  0  0  0  0
  -23.6445  -29.8190   20.1574 C   0  0  0  0  0  0
  -25.4128  -36.3052   24.0316 C   0  0  1  0  0  0
  -20.5897  -28.3658   23.1282 C   0  0  2  0  0  0
  -20.6766  -26.9375   22.5410 C   0  0  0  0  0  0
  -19.5744  -26.6361   21.5202 C   0  0  0  0  0  0
  -18.1928  -26.7901   22.1611 C   0  0  0  0  0  0
  -19.1546  -28.8829   23.2864 C   0  0  0  0  0  0
  -18.9471  -30.1438   23.8863 C   0  0  0  0  0  0
  -17.6471  -30.6565   24.0548 C   0  0  0  0  0  0
  -25.9071  -34.9430   23.5076 C   0  0  0  0  0  0
  -16.5363  -29.9059   23.6327 C   0  0  0  0  0  0
  -16.7279  -28.6483   23.0333 C   0  0  0  0  0  0
  -26.4493  -31.6581   25.0699 C   0  0  0  0  0  0
  -25.3705  -31.3717   26.1408 C   0  0  0  0  0  0
  -27.0360  -30.2995   24.6198 C   0  0  0  0  0  0
  -27.6032  -32.4335   25.7467 C   0  0  0  0  0  0
  -27.5593  -37.1785   24.8452 C   0  0  0  0  0  0
  -21.4199  -29.3007   22.3677 N   0  0  0  0  0  0
  -26.4296  -37.3761   23.9401 N   0  0  0  0  0  0
  -24.6946  -31.0485   22.0987 N   0  0  0  0  0  0
  -23.4209  -28.8102   23.2993 O   0  0  0  0  0  0
  -28.2980  -26.3388   20.2096 O   0  0  0  0  0  0
  -26.5656  -34.8904   22.4650 O   0  0  0  0  0  0
  -23.5440  -32.1419   23.7255 O   0  0  0  0  0  0
  -31.7447  -17.6975   20.5940 C   0  0  0  0  0  0
  -29.8719  -19.9005   20.5254 C   0  0  0  0  0  0
  -32.1868  -19.0334   20.5352 C   0  0  0  0  0  0
  -30.3676  -17.3595   20.6037 C   0  0  0  0  0  0
  -31.2782  -20.1131   20.4985 C   0  0  0  0  0  0
  -29.4478  -18.4954   20.5843 C   0  0  0  0  0  0
  -28.2811  -23.0921   21.7461 C   0  0  0  0  0  0
  -28.8065  -21.6428   21.9234 C   0  0  0  0  0  0
  -29.0153  -22.2514   19.6604 C   0  0  0  0  0  0
  -28.9171  -23.6364   20.4568 C   0  0  1  0  0  0
  -28.1421  -24.8982   19.7838 C   0  0  0  0  0  0
  -28.9869  -21.0656   20.5905 N   0  0  0  0  0  0
  -33.5541  -19.3214   20.5218 N   0  0  0  0  0  0
  -31.8241  -21.4013   20.5129 N   0  0  0  0  0  0
  -29.9410  -15.9215   20.6648 N   0  0  0  0  0  0
  -28.1201  -18.2226   20.6368 F   0  0  0  0  0  0
  -31.4628  -12.5527   19.1729 H   0  0  0  0  0  0
  -30.3491  -11.4864   19.9795 H   0  0  0  0  0  0
  -29.7883  -11.7151   17.5330 H   0  0  0  0  0  0
  -29.6303  -13.4471   17.7126 H   0  0  0  0  0  0
  -27.8968  -11.2784   18.9320 H   0  0  0  0  0  0
  -27.3736  -12.5016   17.8031 H   0  0  0  0  0  0
  -27.6239  -14.2543   19.4493 H   0  0  0  0  0  0
  -28.7154  -12.2221   21.4576 H   0  0  0  0  0  0
  -28.4162  -13.9174   21.7645 H   0  0  0  0  0  0
  -25.2761   -9.5688   22.4766 H   0  0  0  0  0  0
  -23.9996   -7.4641   22.7491 H   0  0  0  0  0  0
  -21.0846   -8.8795   19.8951 H   0  0  0  0  0  0
  -22.3719  -10.9689   19.6176 H   0  0  0  0  0  0
  -21.2022   -7.6144   23.9713 H   0  0  0  0  0  0
  -21.1474   -6.0522   25.9071 H   0  0  0  0  0  0
  -22.0596   -2.7611   23.2836 H   0  0  0  0  0  0
  -22.4074  -11.9880   22.4802 H   0  0  0  0  0  0
  -21.1073  -13.1254   22.2623 H   0  0  0  0  0  0
  -24.6486  -15.8445   20.5351 H   0  0  0  0  0  0
  -26.2635  -15.6436   20.0890 H   0  0  0  0  0  0
  -26.7181  -32.5399   23.1044 H   0  0  0  0  0  0
  -25.0027  -33.9691   25.0331 H   0  0  0  0  0  0
  -22.7183  -31.2970   21.4016 H   0  0  0  0  0  0
  -23.3766  -35.9609   23.3265 H   0  0  0  0  0  0
  -24.3600  -36.8953   22.2062 H   0  0  0  0  0  0
  -23.7263  -37.6463   23.6704 H   0  0  0  0  0  0
  -26.1178  -31.5230   20.6223 H   0  0  0  0  0  0
  -26.8488  -30.8041   22.0237 H   0  0  0  0  0  0
  -28.1013  -28.8836   21.2481 H   0  0  0  0  0  0
  -25.9373  -25.9664   18.8916 H   0  0  0  0  0  0
  -23.9827  -27.3445   18.9396 H   0  0  0  0  0  0
  -23.7639  -30.5998   19.4065 H   0  0  0  0  0  0
  -22.7627  -29.2537   19.8504 H   0  0  0  0  0  0
  -25.1309  -36.1882   25.0809 H   0  0  0  0  0  0
  -20.9984  -28.3248   24.1407 H   0  0  0  0  0  0
  -20.5661  -26.2252   23.3601 H   0  0  0  0  0  0
  -21.6635  -26.7383   22.1212 H   0  0  0  0  0  0
  -19.6893  -25.6270   21.1223 H   0  0  0  0  0  0
  -19.6689  -27.3163   20.6724 H   0  0  0  0  0  0
  -17.4185  -26.6628   21.4025 H   0  0  0  0  0  0
  -18.0326  -26.0048   22.9016 H   0  0  0  0  0  0
  -19.7955  -30.7252   24.2214 H   0  0  0  0  0  0
  -17.5024  -31.6241   24.5154 H   0  0  0  0  0  0
  -15.5363  -30.2942   23.7674 H   0  0  0  0  0  0
  -15.8681  -28.0807   22.7038 H   0  0  0  0  0  0
  -24.5899  -30.7060   25.7712 H   0  0  0  0  0  0
  -24.8874  -32.2878   26.4816 H   0  0  0  0  0  0
  -25.8018  -30.8898   27.0199 H   0  0  0  0  0  0
  -26.2956  -29.6711   24.1239 H   0  0  0  0  0  0
  -27.4064  -29.7278   25.4716 H   0  0  0  0  0  0
  -27.8812  -30.4255   23.9428 H   0  0  0  0  0  0
  -27.2635  -33.3656   26.1986 H   0  0  0  0  0  0
  -28.3865  -32.6877   25.0317 H   0  0  0  0  0  0
  -28.0661  -31.8497   26.5430 H   0  0  0  0  0  0
  -28.2566  -38.0128   24.7570 H   0  0  0  0  0  0
  -28.1155  -36.2668   24.6216 H   0  0  0  0  0  0
  -27.2302  -37.1342   25.8847 H   0  0  0  0  0  0
  -20.9358  -29.8786   21.6951 H   0  0  0  0  0  0
  -26.0174  -38.2818   24.1450 H   0  0  0  0  0  0
  -32.5050  -16.9362   20.6513 H   0  0  0  0  0  0
  -28.4967  -23.7176   22.6127 H   0  0  0  0  0  0
  -27.1959  -23.0631   21.6312 H   0  0  0  0  0  0
  -28.1105  -21.0485   22.5187 H   0  0  0  0  0  0
  -29.7584  -21.6529   22.4575 H   0  0  0  0  0  0
  -29.8839  -22.2375   18.9995 H   0  0  0  0  0  0
  -28.1494  -22.1598   19.0027 H   0  0  0  0  0  0
  -29.9379  -23.9499   20.6810 H   0  0  0  0  0  0
  -27.0994  -24.5976   19.8376 H   0  0  0  0  0  0
  -28.3879  -24.8955   18.7216 H   0  0  0  0  0  0
  -34.1762  -18.5951   20.1848 H   0  0  0  0  0  0
  -33.7585  -20.2195   20.0938 H   0  0  0  0  0  0
  -31.1492  -22.0908   20.8196 H   0  0  0  0  0  0
  -32.6882  -21.4473   21.0401 H   0  0  0  0  0  0
  -28.9539  -15.7854   20.8218 H   0  0  0  0  0  0
  1 25  1  0  0  0
  1 30  2  0  0  0
  1 85  1  0  0  0
  2  3  1  0  0  0
  2 25  1  0  0  0
  2 87  1  0  0  0
  2 88  1  0  0  0
  3  4  1  0  0  0
  3 89  1  0  0  0
  3 90  1  0  0  0
  4  5  1  0  0  0
  4 91  1  0  0  0
  4 92  1  0  0  0
  5  6  1  0  0  0
  5 26  1  0  0  0
  5 93  1  0  0  0
  6 25  1  0  0  0
  6 94  1  0  0  0
  6 95  1  0  0  0
  7  8  2  0  0  0
  7 26  1  0  0  0
  7 29  1  0  0  0
  8  9  1  0  0  0
  8 22  1  0  0  0
  9 10  1  0  0  0
  9 27  2  0  0  0
 10 11  2  0  0  0
 10 15  1  0  0  0
 11 12  1  0  0  0
 11 96  1  0  0  0
 12 13  2  0  0  0
 12 97  1  0  0  0
 13 14  1  0  0  0
 13 31  1  0  0  0
 14 15  2  0  0  0
 14 98  1  0  0  0
 15 99  1  0  0  0
 16 17  2  0  0  0
 16 21  1  0  0  0
 16 31  1  0  0  0
 17 18  1  0  0  0
 17100  1  0  0  0
 18 19  2  0  0  0
 18101  1  0  0  0
 19 20  1  0  0  0
 19 24  1  0  0  0
 20 21  2  0  0  0
 20102  1  0  0  0
 21 23  1  0  0  0
 22 28  1  0  0  0
 22 32  2  0  0  0
 26 27  1  0  0  0
 28103  1  0  0  0
 28104  1  0  0  0
 29105  1  0  0  0
 29106  1  0  0  0
 33 34  1  0  0  0
 33 66  1  0  0  0
 33 70  2  0  0  0
 34 36  1  0  0  0
 34 59  1  0  0  0
 34107  1  0  0  0
 35 44  2  0  0  0
 35 45  1  0  0  0
 35 68  1  0  0  0
 36 56  1  0  0  0
 36108  1  0  0  0
 37 39  1  0  0  0
 37 47  1  0  0  0
 37 66  1  0  0  0
 37109  1  0  0  0
 38 43  2  0  0  0
 38 46  1  0  0  0
 38 47  1  0  0  0
 39 64  1  0  0  0
 39 67  2  0  0  0
 40 52  1  0  0  0
 40 53  2  0  0  0
 40 58  1  0  0  0
 41110  1  0  0  0
 41111  1  0  0  0
 41112  1  0  0  0
 41 48  1  0  0  0
 42 43  1  0  0  0
 42 66  1  0  0  0
 42113  1  0  0  0
 42114  1  0  0  0
 43 44  1  0  0  0
 44115  1  0  0  0
 45 46  2  0  0  0
 45116  1  0  0  0
 46117  1  0  0  0
 47118  1  0  0  0
 47119  1  0  0  0
 48 56  1  0  0  0
 48 65  1  0  0  0
 48120  1  0  0  0
 49 50  1  0  0  0
 49 53  1  0  0  0
 49 64  1  0  0  0
 49121  1  0  0  0
 50 51  1  0  0  0
 50122  1  0  0  0
 50123  1  0  0  0
 51 52  1  0  0  0
 51124  1  0  0  0
 51125  1  0  0  0
 52126  1  0  0  0
 52127  1  0  0  0
 53 54  1  0  0  0
 54 55  2  0  0  0
 54128  1  0  0  0
 55 57  1  0  0  0
 55129  1  0  0  0
 56 69  2  0  0  0
 57 58  2  0  0  0
 57130  1  0  0  0
 58131  1  0  0  0
 59 60  1  0  0  0
 59 61  1  0  0  0
 59 62  1  0  0  0
 60132  1  0  0  0
 60133  1  0  0  0
 60134  1  0  0  0
 61135  1  0  0  0
 61136  1  0  0  0
 61137  1  0  0  0
 62138  1  0  0  0
 62139  1  0  0  0
 62140  1  0  0  0
 63 65  1  0  0  0
 63141  1  0  0  0
 63142  1  0  0  0
 63143  1  0  0  0
 64144  1  0  0  0
 65145  1  0  0  0
 68 81  1  0  0  0
 71 73  2  0  0  0
 71 74  1  0  0  0
 71146  1  0  0  0
 72 75  2  0  0  0
 72 76  1  0  0  0
 72 82  1  0  0  0
 73 75  1  0  0  0
 73 83  1  0  0  0
 74 76  2  0  0  0
 74 85  1  0  0  0
 75 84  1  0  0  0
 76 86  1  0  0  0
 77 78  1  0  0  0
 77 80  1  0  0  0
 77147  1  0  0  0
 77148  1  0  0  0
 78 82  1  0  0  0
 78149  1  0  0  0
 78150  1  0  0  0
 79 80  1  0  0  0
 79 82  1  0  0  0
 79151  1  0  0  0
 79152  1  0  0  0
 80 81  1  0  0  0
 80153  1  0  0  0
 81154  1  0  0  0
 81155  1  0  0  0
 83156  1  0  0  0
 83157  1  0  0  0
 84158  1  0  0  0
 84159  1  0  0  0
 85160  1  0  0  0
M  ISO  4   1 100  68 101  81 101  85 100
M  END
> <chiral flag>
0

> <version>
0

> <s_m_source_file>
/data/baiqing/PycharmProjects/Reinvent-master-3.2/result/LINK_invent/BTK/process_docking_weight1_custom_product_contain_oxygen_bond_distance_aromatic_linkinvent_7_9_3/rearranged_h_0100.sdf

> <i_m_source_file_index>
75

> <r_mmod_Potential_Energy-OPLS-2005>
253.54328918457

> <r_mmod_Stretch_Energy-OPLS-2005>
131.649291992188

> <r_mmod_Bend_Energy-OPLS-2005>
199.919174194336

> <r_mmod_Torsional_Energy-OPLS-2005>
303.773956298828

> <r_mmod_Improper_Torsional_Energy-OPLS-2005>
19.4691562652588

> <r_mmod_Van_der_Waal_Energy-OPLS-2005>
161.859313964844

> <r_mmod_Electrostatic_Energy-OPLS-2005>
-432.549072265625

> <r_mmod_Solvation_Energy-OPLS-2005>
-221.797653198242

> <b_mmod_Minimization_Converged-OPLS-2005>
0

> <r_mmod_RMS_Derivative-OPLS-2005>
2.33259892463684

$$$$
76
                    3D
 Structure written by MMmdl.
157165  0  0  1  0            999 V2000
  -30.7175  -14.5304   20.4890 C   0  0  0  0  0  0
  -30.4092  -12.3064   19.4509 C   0  0  0  0  0  0
  -29.4864  -12.4273   18.2198 C   0  0  0  0  0  0
  -28.0176  -12.2236   18.6431 C   0  0  0  0  0  0
  -27.6234  -13.1409   19.8230 C   0  0  2  0  0  0
  -28.6748  -13.0885   20.9616 C   0  0  0  0  0  0
  -25.2552  -13.7953   20.5646 C   0  0  0  0  0  0
  -24.1766  -13.0329   20.9206 C   0  0  0  0  0  0
  -24.6254  -11.6765   20.8825 C   0  0  0  0  0  0
  -23.8930  -10.4200   21.0499 C   0  0  0  0  0  0
  -24.3513   -9.4110   21.9256 C   0  0  0  0  0  0
  -23.6206   -8.2148   22.0776 C   0  0  0  0  0  0
  -22.4204   -8.0207   21.3543 C   0  0  0  0  0  0
  -21.9826   -9.0189   20.4651 C   0  0  0  0  0  0
  -22.7139  -10.2060   20.3093 C   0  0  0  0  0  0
  -21.6801   -6.0695   22.5287 C   0  0  0  0  0  0
  -21.3969   -6.5614   23.8219 C   0  0  0  0  0  0
  -21.3651   -5.6772   24.9197 C   0  0  0  0  0  0
  -21.6052   -4.3043   24.7245 C   0  0  0  0  0  0
  -21.8817   -3.8111   23.4375 C   0  0  0  0  0  0
  -21.9170   -4.6927   22.3412 C   0  0  0  0  0  0
  -22.7803  -13.5198   21.1898 C   0  0  0  0  0  0
  -22.1641   -4.2103   21.0988 F   0  0  0  0  0  0
  -21.5645   -3.4543   25.7774 F   0  0  0  0  0  0
  -30.0107  -13.3608   20.3988 N   0  0  0  0  0  0
  -26.2817  -12.8944   20.3185 N   0  0  0  0  0  0
  -25.9128  -11.6203   20.5789 N   0  0  0  0  0  0
  -22.0421  -12.8236   22.0458 N   0  0  0  0  0  0
  -25.4446  -15.1652   20.4031 N   0  0  0  0  0  0
  -31.9075  -14.6132   20.1813 O   0  0  0  0  0  0
  -21.6568   -6.8823   21.4235 O   0  0  0  0  0  0
  -22.3536  -14.5538   20.6745 O   0  0  0  0  0  0
  -24.6189  -31.8636   23.2064 C   0  0  0  0  0  0
  -25.9075  -32.4781   23.8335 C   0  0  1  0  0  0
  -27.2163  -27.3999   20.0903 C   0  0  0  0  0  0
  -25.5937  -33.8575   24.2285 N   0  0  0  0  0  0
  -23.4035  -30.4938   21.5447 C   0  0  2  0  0  0
  -24.8424  -28.9585   20.1025 C   0  0  0  0  0  0
  -22.7400  -29.4693   22.4928 C   0  0  0  0  0  0
  -18.0285  -28.1361   22.8487 C   0  0  0  0  0  0
  -24.1466  -36.7285   23.2643 C   0  0  0  0  0  0
  -25.9359  -30.8145   21.3633 C   0  0  0  0  0  0
  -26.0002  -29.4461   20.7171 C   0  0  0  0  0  0
  -27.1838  -28.6693   20.7169 C   0  0  0  0  0  0
  -26.0442  -26.9518   19.4317 C   0  0  0  0  0  0
  -24.8617  -27.7146   19.4533 C   0  0  0  0  0  0
  -23.6065  -29.8298   20.1561 C   0  0  0  0  0  0
  -25.4083  -36.3063   24.0333 C   0  0  1  0  0  0
  -20.5875  -28.3668   23.1270 C   0  0  2  0  0  0
  -20.6749  -26.9389   22.5391 C   0  0  0  0  0  0
  -19.5739  -26.6375   21.5179 C   0  0  0  0  0  0
  -18.1921  -26.7913   22.1592 C   0  0  0  0  0  0
  -19.1534  -28.8825   23.2897 C   0  0  0  0  0  0
  -18.9469  -30.1423   23.8915 C   0  0  0  0  0  0
  -17.6473  -30.6573   24.0567 C   0  0  0  0  0  0
  -25.9025  -34.9454   23.5101 C   0  0  0  0  0  0
  -16.5363  -29.9069   23.6342 C   0  0  0  0  0  0
  -16.7276  -28.6484   23.0369 C   0  0  0  0  0  0
  -26.4494  -31.6576   25.0684 C   0  0  0  0  0  0
  -25.3792  -31.3696   26.1467 C   0  0  0  0  0  0
  -27.0318  -30.3008   24.6070 C   0  0  0  0  0  0
  -27.6068  -32.4307   25.7451 C   0  0  0  0  0  0
  -27.5556  -37.1778   24.8478 C   0  0  0  0  0  0
  -21.4133  -29.3058   22.3670 N   0  0  0  0  0  0
  -26.4252  -37.3772   23.9443 N   0  0  0  0  0  0
  -24.6711  -31.0729   22.0957 N   0  0  0  0  0  0
  -23.4160  -28.8205   23.2961 O   0  0  0  0  0  0
  -28.3955  -26.6714   20.1393 O   0  0  0  0  0  0
  -26.5583  -34.8926   22.4657 O   0  0  0  0  0  0
  -23.5385  -32.1399   23.7459 O   0  0  0  0  0  0
  -31.5534  -18.2714   23.1110 C   0  0  0  0  0  0
  -31.1374  -19.5065   22.5744 C   0  0  0  0  0  0
  -30.0229  -18.3089   20.7995 C   0  0  0  0  0  0
  -30.4143  -17.0386   21.3185 C   0  0  0  0  0  0
  -31.1870  -17.0361   22.5221 C   0  0  0  0  0  0
  -30.3439  -19.5320   21.4123 C   0  0  0  0  0  0
  -29.8980  -15.8384   20.5584 C   0  0  0  0  0  0
  -29.1124  -22.9093   20.5695 C   0  0  0  0  0  0
  -29.0429  -24.4072   20.9682 C   0  0  0  0  0  0
  -29.9522  -21.9492   21.4474 C   0  0  0  0  0  0
  -28.3999  -25.2574   19.8407 C   0  0  0  0  0  0
  -28.8556  -15.9831   19.8507 N   0  0  0  0  0  0
  -31.5929  -15.8776   23.1981 N   0  0  0  0  0  0
  -29.8457  -20.6722   20.8111 O   0  0  0  0  0  0
  -31.4569  -12.3731   19.1556 H   0  0  0  0  0  0
  -30.2907  -11.3261   19.9147 H   0  0  0  0  0  0
  -29.7605  -11.6753   17.4785 H   0  0  0  0  0  0
  -29.6166  -13.3981   17.7382 H   0  0  0  0  0  0
  -27.9046  -11.1807   18.9406 H   0  0  0  0  0  0
  -27.3466  -12.3684   17.7950 H   0  0  0  0  0  0
  -27.5603  -14.1095   19.3562 H   0  0  0  0  0  0
  -28.6657  -12.1074   21.4364 H   0  0  0  0  0  0
  -28.4166  -13.7994   21.7486 H   0  0  0  0  0  0
  -25.2654   -9.5573   22.4837 H   0  0  0  0  0  0
  -23.9911   -7.4515   22.7465 H   0  0  0  0  0  0
  -21.0774   -8.8701   19.8932 H   0  0  0  0  0  0
  -22.3639  -10.9619   19.6197 H   0  0  0  0  0  0
  -21.1931   -7.6122   23.9715 H   0  0  0  0  0  0
  -21.1488   -6.0508   25.9096 H   0  0  0  0  0  0
  -22.0603   -2.7572   23.2892 H   0  0  0  0  0  0
  -22.3957  -11.9850   22.4849 H   0  0  0  0  0  0
  -21.1063  -13.1312   22.2679 H   0  0  0  0  0  0
  -24.6906  -15.8388   20.4904 H   0  0  0  0  0  0
  -26.3305  -15.5904   20.1473 H   0  0  0  0  0  0
  -26.7161  -32.5442   23.1087 H   0  0  0  0  0  0
  -25.0134  -33.9726   25.0466 H   0  0  0  0  0  0
  -22.6989  -31.3169   21.4060 H   0  0  0  0  0  0
  -23.3719  -35.9631   23.3303 H   0  0  0  0  0  0
  -24.3574  -36.8879   22.2060 H   0  0  0  0  0  0
  -23.7222  -37.6494   23.6656 H   0  0  0  0  0  0
  -26.0518  -31.5686   20.5837 H   0  0  0  0  0  0
  -26.8285  -30.8686   21.9733 H   0  0  0  0  0  0
  -28.0713  -29.0328   21.2125 H   0  0  0  0  0  0
  -26.0048  -26.0324   18.8672 H   0  0  0  0  0  0
  -23.9783  -27.3547   18.9419 H   0  0  0  0  0  0
  -23.7084  -30.6053   19.3949 H   0  0  0  0  0  0
  -22.7283  -29.2510   19.8633 H   0  0  0  0  0  0
  -25.1249  -36.1907   25.0822 H   0  0  0  0  0  0
  -21.0005  -28.3236   24.1374 H   0  0  0  0  0  0
  -20.5584  -26.2290   23.3592 H   0  0  0  0  0  0
  -21.6626  -26.7376   22.1213 H   0  0  0  0  0  0
  -19.6889  -25.6295   21.1190 H   0  0  0  0  0  0
  -19.6664  -27.3206   20.6732 H   0  0  0  0  0  0
  -17.4177  -26.6688   21.4001 H   0  0  0  0  0  0
  -18.0322  -26.0030   22.8964 H   0  0  0  0  0  0
  -19.7958  -30.7228   24.2267 H   0  0  0  0  0  0
  -17.5047  -31.6251   24.5172 H   0  0  0  0  0  0
  -15.5369  -30.2988   23.7661 H   0  0  0  0  0  0
  -15.8665  -28.0802   22.7104 H   0  0  0  0  0  0
  -24.5995  -30.6963   25.7870 H   0  0  0  0  0  0
  -24.8957  -32.2861   26.4876 H   0  0  0  0  0  0
  -25.8202  -30.8945   27.0239 H   0  0  0  0  0  0
  -26.2816  -29.6738   24.1226 H   0  0  0  0  0  0
  -27.4193  -29.7275   25.4500 H   0  0  0  0  0  0
  -27.8614  -30.4296   23.9111 H   0  0  0  0  0  0
  -27.2663  -33.3606   26.2014 H   0  0  0  0  0  0
  -28.3889  -32.6857   25.0292 H   0  0  0  0  0  0
  -28.0719  -31.8435   26.5373 H   0  0  0  0  0  0
  -28.2587  -38.0067   24.7519 H   0  0  0  0  0  0
  -28.1016  -36.2594   24.6271 H   0  0  0  0  0  0
  -27.2290  -37.1400   25.8887 H   0  0  0  0  0  0
  -20.9261  -29.8795   21.6922 H   0  0  0  0  0  0
  -26.0111  -38.2829   24.1489 H   0  0  0  0  0  0
  -32.1528  -18.2926   24.0109 H   0  0  0  0  0  0
  -31.4306  -20.4217   23.0657 H   0  0  0  0  0  0
  -29.4238  -18.3728   19.9004 H   0  0  0  0  0  0
  -29.5050  -22.8423   19.5544 H   0  0  0  0  0  0
  -28.0946  -22.5222   20.5134 H   0  0  0  0  0  0
  -30.0400  -24.7884   21.1918 H   0  0  0  0  0  0
  -28.4576  -24.5134   21.8827 H   0  0  0  0  0  0
  -29.5725  -21.9139   22.4696 H   0  0  0  0  0  0
  -30.9979  -22.2623   21.4839 H   0  0  0  0  0  0
  -27.4206  -24.8240   19.6516 H   0  0  0  0  0  0
  -28.9684  -25.1178   18.9188 H   0  0  0  0  0  0
  -28.6979  -15.1401   19.3119 H   0  0  0  0  0  0
  -31.9470  -15.9646   24.1468 H   0  0  0  0  0  0
  -31.1187  -14.9938   23.0502 H   0  0  0  0  0  0
  1 25  1  0  0  0
  1 30  2  0  0  0
  1 77  1  0  0  0
  2  3  1  0  0  0
  2 25  1  0  0  0
  2 85  1  0  0  0
  2 86  1  0  0  0
  3  4  1  0  0  0
  3 87  1  0  0  0
  3 88  1  0  0  0
  4  5  1  0  0  0
  4 89  1  0  0  0
  4 90  1  0  0  0
  5  6  1  0  0  0
  5 26  1  0  0  0
  5 91  1  0  0  0
  6 25  1  0  0  0
  6 92  1  0  0  0
  6 93  1  0  0  0
  7  8  2  0  0  0
  7 26  1  0  0  0
  7 29  1  0  0  0
  8  9  1  0  0  0
  8 22  1  0  0  0
  9 10  1  0  0  0
  9 27  2  0  0  0
 10 11  2  0  0  0
 10 15  1  0  0  0
 11 12  1  0  0  0
 11 94  1  0  0  0
 12 13  2  0  0  0
 12 95  1  0  0  0
 13 14  1  0  0  0
 13 31  1  0  0  0
 14 15  2  0  0  0
 14 96  1  0  0  0
 15 97  1  0  0  0
 16 17  2  0  0  0
 16 21  1  0  0  0
 16 31  1  0  0  0
 17 18  1  0  0  0
 17 98  1  0  0  0
 18 19  2  0  0  0
 18 99  1  0  0  0
 19 20  1  0  0  0
 19 24  1  0  0  0
 20 21  2  0  0  0
 20100  1  0  0  0
 21 23  1  0  0  0
 22 28  1  0  0  0
 22 32  2  0  0  0
 26 27  1  0  0  0
 28101  1  0  0  0
 28102  1  0  0  0
 29103  1  0  0  0
 29104  1  0  0  0
 33 34  1  0  0  0
 33 66  1  0  0  0
 33 70  2  0  0  0
 34 36  1  0  0  0
 34 59  1  0  0  0
 34105  1  0  0  0
 35 44  2  0  0  0
 35 45  1  0  0  0
 35 68  1  0  0  0
 36 56  1  0  0  0
 36106  1  0  0  0
 37 39  1  0  0  0
 37 47  1  0  0  0
 37 66  1  0  0  0
 37107  1  0  0  0
 38 43  2  0  0  0
 38 46  1  0  0  0
 38 47  1  0  0  0
 39 64  1  0  0  0
 39 67  2  0  0  0
 40 52  1  0  0  0
 40 53  2  0  0  0
 40 58  1  0  0  0
 41108  1  0  0  0
 41109  1  0  0  0
 41110  1  0  0  0
 41 48  1  0  0  0
 42 43  1  0  0  0
 42 66  1  0  0  0
 42111  1  0  0  0
 42112  1  0  0  0
 43 44  1  0  0  0
 44113  1  0  0  0
 45 46  2  0  0  0
 45114  1  0  0  0
 46115  1  0  0  0
 47116  1  0  0  0
 47117  1  0  0  0
 48 56  1  0  0  0
 48 65  1  0  0  0
 48118  1  0  0  0
 49 50  1  0  0  0
 49 53  1  0  0  0
 49 64  1  0  0  0
 49119  1  0  0  0
 50 51  1  0  0  0
 50120  1  0  0  0
 50121  1  0  0  0
 51 52  1  0  0  0
 51122  1  0  0  0
 51123  1  0  0  0
 52124  1  0  0  0
 52125  1  0  0  0
 53 54  1  0  0  0
 54 55  2  0  0  0
 54126  1  0  0  0
 55 57  1  0  0  0
 55127  1  0  0  0
 56 69  2  0  0  0
 57 58  2  0  0  0
 57128  1  0  0  0
 58129  1  0  0  0
 59 60  1  0  0  0
 59 61  1  0  0  0
 59 62  1  0  0  0
 60130  1  0  0  0
 60131  1  0  0  0
 60132  1  0  0  0
 61133  1  0  0  0
 61134  1  0  0  0
 61135  1  0  0  0
 62136  1  0  0  0
 62137  1  0  0  0
 62138  1  0  0  0
 63 65  1  0  0  0
 63139  1  0  0  0
 63140  1  0  0  0
 63141  1  0  0  0
 64142  1  0  0  0
 65143  1  0  0  0
 68 81  1  0  0  0
 71 72  2  0  0  0
 71 75  1  0  0  0
 71144  1  0  0  0
 72 76  1  0  0  0
 72145  1  0  0  0
 73 74  1  0  0  0
 73 76  2  0  0  0
 73146  1  0  0  0
 74 75  2  0  0  0
 74 77  1  0  0  0
 75 83  1  0  0  0
 76 84  1  0  0  0
 77 82  2  0  0  0
 78 79  1  0  0  0
 78 80  1  0  0  0
 78147  1  0  0  0
 78148  1  0  0  0
 79 81  1  0  0  0
 79149  1  0  0  0
 79150  1  0  0  0
 80 84  1  0  0  0
 80151  1  0  0  0
 80152  1  0  0  0
 81153  1  0  0  0
 81154  1  0  0  0
 82155  1  0  0  0
 83156  1  0  0  0
 83157  1  0  0  0
M  ISO  4   1 100  68 101  77 100  81 101
M  END
> <chiral flag>
0

> <version>
0

> <s_m_source_file>
/data/baiqing/PycharmProjects/Reinvent-master-3.2/result/LINK_invent/BTK/process_docking_weight1_custom_product_contain_oxygen_bond_distance_aromatic_linkinvent_7_9_3/rearranged_h_0100.sdf

> <i_m_source_file_index>
76

> <r_mmod_Potential_Energy-OPLS-2005>
172.251586914062

> <r_mmod_Stretch_Energy-OPLS-2005>
47.1577339172363

> <r_mmod_Bend_Energy-OPLS-2005>
143.449172973633

> <r_mmod_Torsional_Energy-OPLS-2005>
208.498352050781

> <r_mmod_Improper_Torsional_Energy-OPLS-2005>
14.5609312057495

> <r_mmod_Van_der_Waal_Energy-OPLS-2005>
178.037200927734

> <r_mmod_Electrostatic_Energy-OPLS-2005>
-245.374160766602

> <r_mmod_Solvation_Energy-OPLS-2005>
-208.010864257812

> <b_mmod_Minimization_Converged-OPLS-2005>
0

> <r_mmod_RMS_Derivative-OPLS-2005>
4.22738695144653

$$$$
77
                    3D
 Structure written by MMmdl.
156164  0  0  1  0            999 V2000
  -30.6556  -14.5702   20.5052 C   0  0  0  0  0  0
  -30.4138  -12.3374   19.4558 C   0  0  0  0  0  0
  -29.5082  -12.5136   18.2194 C   0  0  0  0  0  0
  -28.0245  -12.3712   18.6188 C   0  0  0  0  0  0
  -27.6514  -13.2239   19.8653 C   0  0  2  0  0  0
  -28.6913  -13.0622   20.9967 C   0  0  0  0  0  0
  -25.2514  -13.8184   20.5735 C   0  0  0  0  0  0
  -24.1796  -13.0434   20.9215 C   0  0  0  0  0  0
  -24.6403  -11.6922   20.8725 C   0  0  0  0  0  0
  -23.9087  -10.4305   21.0397 C   0  0  0  0  0  0
  -24.3649   -9.4215   21.9158 C   0  0  0  0  0  0
  -23.6341   -8.2251   22.0730 C   0  0  0  0  0  0
  -22.4328   -8.0295   21.3527 C   0  0  0  0  0  0
  -21.9946   -9.0278   20.4646 C   0  0  0  0  0  0
  -22.7265  -10.2149   20.3050 C   0  0  0  0  0  0
  -21.6855   -6.0761   22.5274 C   0  0  0  0  0  0
  -21.4022   -6.5664   23.8222 C   0  0  0  0  0  0
  -21.3690   -5.6785   24.9180 C   0  0  0  0  0  0
  -21.6038   -4.3041   24.7202 C   0  0  0  0  0  0
  -21.8816   -3.8149   23.4322 C   0  0  0  0  0  0
  -21.9197   -4.6984   22.3392 C   0  0  0  0  0  0
  -22.7815  -13.5230   21.1857 C   0  0  0  0  0  0
  -22.1645   -4.2191   21.0964 F   0  0  0  0  0  0
  -21.5661   -3.4521   25.7705 F   0  0  0  0  0  0
  -30.0107  -13.3674   20.4302 N   0  0  0  0  0  0
  -26.2983  -12.9414   20.3358 N   0  0  0  0  0  0
  -25.9326  -11.6569   20.5720 N   0  0  0  0  0  0
  -22.0454  -12.8236   22.0432 N   0  0  0  0  0  0
  -25.4113  -15.1906   20.4223 N   0  0  0  0  0  0
  -31.8234  -14.7016   20.1336 O   0  0  0  0  0  0
  -21.6660   -6.8906   21.4250 O   0  0  0  0  0  0
  -22.3529  -14.5539   20.6692 O   0  0  0  0  0  0
  -24.6188  -31.8638   23.2038 C   0  0  0  0  0  0
  -25.9047  -32.4802   23.8357 C   0  0  1  0  0  0
  -27.2342  -27.3741   20.0988 C   0  0  0  0  0  0
  -25.5897  -33.8596   24.2308 N   0  0  0  0  0  0
  -23.4087  -30.4856   21.5468 C   0  0  2  0  0  0
  -24.8566  -28.9434   20.1068 C   0  0  0  0  0  0
  -22.7431  -29.4641   22.4964 C   0  0  0  0  0  0
  -18.0277  -28.1347   22.8485 C   0  0  0  0  0  0
  -24.1505  -36.7303   23.2643 C   0  0  0  0  0  0
  -25.9436  -30.8050   21.3710 C   0  0  0  0  0  0
  -26.0186  -29.4387   20.7126 C   0  0  0  0  0  0
  -27.2049  -28.6580   20.7066 C   0  0  0  0  0  0
  -26.0523  -26.9119   19.4776 C   0  0  0  0  0  0
  -24.8749  -27.6833   19.4829 C   0  0  0  0  0  0
  -23.6196  -29.8137   20.1617 C   0  0  0  0  0  0
  -25.4115  -36.3096   24.0343 C   0  0  1  0  0  0
  -20.5871  -28.3654   23.1297 C   0  0  2  0  0  0
  -20.6774  -26.9399   22.5398 C   0  0  0  0  0  0
  -19.5745  -26.6366   21.5192 C   0  0  0  0  0  0
  -18.1926  -26.7898   22.1602 C   0  0  0  0  0  0
  -19.1528  -28.8803   23.2889 C   0  0  0  0  0  0
  -18.9465  -30.1409   23.8912 C   0  0  0  0  0  0
  -17.6470  -30.6577   24.0537 C   0  0  0  0  0  0
  -25.9040  -34.9465   23.5122 C   0  0  0  0  0  0
  -16.5355  -29.9071   23.6305 C   0  0  0  0  0  0
  -16.7264  -28.6464   23.0355 C   0  0  0  0  0  0
  -26.4443  -31.6580   25.0705 C   0  0  0  0  0  0
  -25.3695  -31.3679   26.1448 C   0  0  0  0  0  0
  -27.0283  -30.3021   24.6083 C   0  0  0  0  0  0
  -27.6034  -32.4278   25.7463 C   0  0  0  0  0  0
  -27.5596  -37.1806   24.8454 C   0  0  0  0  0  0
  -21.4159  -29.3023   22.3698 N   0  0  0  0  0  0
  -26.4296  -37.3792   23.9415 N   0  0  0  0  0  0
  -24.6758  -31.0670   22.0983 N   0  0  0  0  0  0
  -23.4178  -28.8215   23.3058 O   0  0  0  0  0  0
  -28.3970  -26.6128   20.1597 O   0  0  0  0  0  0
  -26.5628  -34.8918   22.4709 O   0  0  0  0  0  0
  -23.5351  -32.1444   23.7374 O   0  0  0  0  0  0
  -28.1302  -17.9320   19.7980 C   0  0  0  0  0  0
  -29.7525  -19.5886   20.5431 C   0  0  0  0  0  0
  -27.6556  -20.3328   19.5622 C   0  0  0  0  0  0
  -29.3809  -18.2144   20.3951 C   0  0  0  0  0  0
  -27.2838  -18.9830   19.3688 C   0  0  0  0  0  0
  -28.8998  -20.6640   20.1435 C   0  0  0  0  0  0
  -30.3524  -17.0800   20.8380 C   0  0  0  0  0  0
  -27.7603  -24.0880   20.2119 C   0  0  0  0  0  0
  -28.5034  -25.2960   19.5405 C   0  0  0  0  0  0
  -28.5762  -22.9706   20.9616 C   0  0  0  0  0  0
  -26.0843  -18.6839   18.7190 N   0  0  0  0  0  0
  -29.8983  -15.6555   20.8209 N   0  0  0  0  0  0
  -29.3304  -21.9910   20.2008 O   0  0  0  0  0  0
  -31.4664  -12.4152   19.1771 H   0  0  0  0  0  0
  -30.2924  -11.3380   19.8807 H   0  0  0  0  0  0
  -29.7661  -11.7873   17.4488 H   0  0  0  0  0  0
  -29.6778  -13.4982   17.7816 H   0  0  0  0  0  0
  -27.8369  -11.3172   18.8203 H   0  0  0  0  0  0
  -27.3848  -12.6350   17.7734 H   0  0  0  0  0  0
  -27.6738  -14.2639   19.5389 H   0  0  0  0  0  0
  -28.6786  -12.0452   21.3947 H   0  0  0  0  0  0
  -28.4554  -13.7171   21.8371 H   0  0  0  0  0  0
  -25.2802   -9.5716   22.4715 H   0  0  0  0  0  0
  -24.0055   -7.4659   22.7477 H   0  0  0  0  0  0
  -21.0856   -8.8796   19.9003 H   0  0  0  0  0  0
  -22.3701  -10.9683   19.6148 H   0  0  0  0  0  0
  -21.1993   -7.6155   23.9728 H   0  0  0  0  0  0
  -21.1529   -6.0514   25.9080 H   0  0  0  0  0  0
  -22.0563   -2.7619   23.2773 H   0  0  0  0  0  0
  -22.4063  -11.9929   22.4889 H   0  0  0  0  0  0
  -21.1067  -13.1274   22.2612 H   0  0  0  0  0  0
  -24.6318  -15.8257   20.5431 H   0  0  0  0  0  0
  -26.2567  -15.6512   20.1133 H   0  0  0  0  0  0
  -26.7115  -32.5489   23.1116 H   0  0  0  0  0  0
  -25.0047  -33.9754   25.0432 H   0  0  0  0  0  0
  -22.6988  -31.3030   21.4020 H   0  0  0  0  0  0
  -23.3781  -35.9622   23.3276 H   0  0  0  0  0  0
  -24.3605  -36.8946   22.2061 H   0  0  0  0  0  0
  -23.7241  -37.6484   23.6677 H   0  0  0  0  0  0
  -26.0712  -31.5752   20.6096 H   0  0  0  0  0  0
  -26.8239  -30.8534   21.9983 H   0  0  0  0  0  0
  -28.0944  -29.0295   21.1948 H   0  0  0  0  0  0
  -26.0211  -25.9456   18.9961 H   0  0  0  0  0  0
  -23.9851  -27.2991   19.0046 H   0  0  0  0  0  0
  -23.7249  -30.5866   19.4011 H   0  0  0  0  0  0
  -22.7431  -29.2316   19.8648 H   0  0  0  0  0  0
  -25.1295  -36.1955   25.0838 H   0  0  0  0  0  0
  -20.9946  -28.3227   24.1420 H   0  0  0  0  0  0
  -20.5658  -26.2279   23.3589 H   0  0  0  0  0  0
  -21.6650  -26.7443   22.1218 H   0  0  0  0  0  0
  -19.6936  -25.6270   21.1224 H   0  0  0  0  0  0
  -19.6696  -27.3166   20.6702 H   0  0  0  0  0  0
  -17.4215  -26.6644   21.3990 H   0  0  0  0  0  0
  -18.0356  -26.0015   22.8979 H   0  0  0  0  0  0
  -19.7945  -30.7190   24.2324 H   0  0  0  0  0  0
  -17.5031  -31.6267   24.5140 H   0  0  0  0  0  0
  -15.5353  -30.2974   23.7600 H   0  0  0  0  0  0
  -15.8670  -28.0752   22.7096 H   0  0  0  0  0  0
  -24.5821  -30.7106   25.7740 H   0  0  0  0  0  0
  -24.8942  -32.2841   26.4963 H   0  0  0  0  0  0
  -25.8016  -30.8748   27.0170 H   0  0  0  0  0  0
  -26.2841  -29.6791   24.1117 H   0  0  0  0  0  0
  -27.4043  -29.7227   25.4527 H   0  0  0  0  0  0
  -27.8682  -30.4340   23.9260 H   0  0  0  0  0  0
  -27.2674  -33.3556   26.2086 H   0  0  0  0  0  0
  -28.3812  -32.6862   25.0275 H   0  0  0  0  0  0
  -28.0743  -31.8377   26.5325 H   0  0  0  0  0  0
  -28.2584  -38.0132   24.7548 H   0  0  0  0  0  0
  -28.1124  -36.2673   24.6220 H   0  0  0  0  0  0
  -27.2333  -37.1382   25.8858 H   0  0  0  0  0  0
  -20.9330  -29.8711   21.6889 H   0  0  0  0  0  0
  -26.0188  -38.2873   24.1390 H   0  0  0  0  0  0
  -27.8329  -16.9058   19.6434 H   0  0  0  0  0  0
  -30.7169  -19.8206   20.9695 H   0  0  0  0  0  0
  -27.0036  -21.1254   19.2222 H   0  0  0  0  0  0
  -30.6744  -17.3017   21.8549 H   0  0  0  0  0  0
  -31.2485  -17.1796   20.2228 H   0  0  0  0  0  0
  -27.1324  -23.6093   19.4629 H   0  0  0  0  0  0
  -27.0597  -24.5071   20.9341 H   0  0  0  0  0  0
  -28.1936  -25.3836   18.4987 H   0  0  0  0  0  0
  -29.5668  -25.0582   19.4816 H   0  0  0  0  0  0
  -27.8975  -22.4465   21.6367 H   0  0  0  0  0  0
  -29.2849  -23.4689   21.6219 H   0  0  0  0  0  0
  -25.9771  -17.7711   18.2856 H   0  0  0  0  0  0
  -25.6193  -19.4141   18.1838 H   0  0  0  0  0  0
  -28.9491  -15.4736   21.1124 H   0  0  0  0  0  0
  1 25  1  0  0  0
  1 30  2  0  0  0
  1 82  1  0  0  0
  2  3  1  0  0  0
  2 25  1  0  0  0
  2 84  1  0  0  0
  2 85  1  0  0  0
  3  4  1  0  0  0
  3 86  1  0  0  0
  3 87  1  0  0  0
  4  5  1  0  0  0
  4 88  1  0  0  0
  4 89  1  0  0  0
  5  6  1  0  0  0
  5 26  1  0  0  0
  5 90  1  0  0  0
  6 25  1  0  0  0
  6 91  1  0  0  0
  6 92  1  0  0  0
  7  8  2  0  0  0
  7 26  1  0  0  0
  7 29  1  0  0  0
  8  9  1  0  0  0
  8 22  1  0  0  0
  9 10  1  0  0  0
  9 27  2  0  0  0
 10 11  2  0  0  0
 10 15  1  0  0  0
 11 12  1  0  0  0
 11 93  1  0  0  0
 12 13  2  0  0  0
 12 94  1  0  0  0
 13 14  1  0  0  0
 13 31  1  0  0  0
 14 15  2  0  0  0
 14 95  1  0  0  0
 15 96  1  0  0  0
 16 17  2  0  0  0
 16 21  1  0  0  0
 16 31  1  0  0  0
 17 18  1  0  0  0
 17 97  1  0  0  0
 18 19  2  0  0  0
 18 98  1  0  0  0
 19 20  1  0  0  0
 19 24  1  0  0  0
 20 21  2  0  0  0
 20 99  1  0  0  0
 21 23  1  0  0  0
 22 28  1  0  0  0
 22 32  2  0  0  0
 26 27  1  0  0  0
 28100  1  0  0  0
 28101  1  0  0  0
 29102  1  0  0  0
 29103  1  0  0  0
 33 34  1  0  0  0
 33 66  1  0  0  0
 33 70  2  0  0  0
 34 36  1  0  0  0
 34 59  1  0  0  0
 34104  1  0  0  0
 35 44  2  0  0  0
 35 45  1  0  0  0
 35 68  1  0  0  0
 36 56  1  0  0  0
 36105  1  0  0  0
 37 39  1  0  0  0
 37 47  1  0  0  0
 37 66  1  0  0  0
 37106  1  0  0  0
 38 43  2  0  0  0
 38 46  1  0  0  0
 38 47  1  0  0  0
 39 64  1  0  0  0
 39 67  2  0  0  0
 40 52  1  0  0  0
 40 53  2  0  0  0
 40 58  1  0  0  0
 41107  1  0  0  0
 41108  1  0  0  0
 41109  1  0  0  0
 41 48  1  0  0  0
 42 43  1  0  0  0
 42 66  1  0  0  0
 42110  1  0  0  0
 42111  1  0  0  0
 43 44  1  0  0  0
 44112  1  0  0  0
 45 46  2  0  0  0
 45113  1  0  0  0
 46114  1  0  0  0
 47115  1  0  0  0
 47116  1  0  0  0
 48 56  1  0  0  0
 48 65  1  0  0  0
 48117  1  0  0  0
 49 50  1  0  0  0
 49 53  1  0  0  0
 49 64  1  0  0  0
 49118  1  0  0  0
 50 51  1  0  0  0
 50119  1  0  0  0
 50120  1  0  0  0
 51 52  1  0  0  0
 51121  1  0  0  0
 51122  1  0  0  0
 52123  1  0  0  0
 52124  1  0  0  0
 53 54  1  0  0  0
 54 55  2  0  0  0
 54125  1  0  0  0
 55 57  1  0  0  0
 55126  1  0  0  0
 56 69  2  0  0  0
 57 58  2  0  0  0
 57127  1  0  0  0
 58128  1  0  0  0
 59 60  1  0  0  0
 59 61  1  0  0  0
 59 62  1  0  0  0
 60129  1  0  0  0
 60130  1  0  0  0
 60131  1  0  0  0
 61132  1  0  0  0
 61133  1  0  0  0
 61134  1  0  0  0
 62135  1  0  0  0
 62136  1  0  0  0
 62137  1  0  0  0
 63 65  1  0  0  0
 63138  1  0  0  0
 63139  1  0  0  0
 63140  1  0  0  0
 64141  1  0  0  0
 65142  1  0  0  0
 68 79  1  0  0  0
 71 74  2  0  0  0
 71 75  1  0  0  0
 71143  1  0  0  0
 72 74  1  0  0  0
 72 76  2  0  0  0
 72144  1  0  0  0
 73 75  2  0  0  0
 73 76  1  0  0  0
 73145  1  0  0  0
 74 77  1  0  0  0
 75 81  1  0  0  0
 76 83  1  0  0  0
 77 82  1  0  0  0
 77146  1  0  0  0
 77147  1  0  0  0
 78 79  1  0  0  0
 78 80  1  0  0  0
 78148  1  0  0  0
 78149  1  0  0  0
 79150  1  0  0  0
 79151  1  0  0  0
 80 83  1  0  0  0
 80152  1  0  0  0
 80153  1  0  0  0
 81154  1  0  0  0
 81155  1  0  0  0
 82156  1  0  0  0
M  ISO  4   1 100  68 101  79 101  82 100
M  END
> <chiral flag>
0

> <version>
0

> <s_m_source_file>
/data/baiqing/PycharmProjects/Reinvent-master-3.2/result/LINK_invent/BTK/process_docking_weight1_custom_product_contain_oxygen_bond_distance_aromatic_linkinvent_7_9_3/rearranged_h_0100.sdf

> <i_m_source_file_index>
77

> <r_mmod_Potential_Energy-OPLS-2005>
-48.485538482666

> <r_mmod_Stretch_Energy-OPLS-2005>
56.9920501708984

> <r_mmod_Bend_Energy-OPLS-2005>
137.023544311523

> <r_mmod_Torsional_Energy-OPLS-2005>
227.085906982422

> <r_mmod_Improper_Torsional_Energy-OPLS-2005>
7.9225492477417

> <r_mmod_Van_der_Waal_Energy-OPLS-2005>
137.56901550293

> <r_mmod_Electrostatic_Energy-OPLS-2005>
-424.033782958984

> <r_mmod_Solvation_Energy-OPLS-2005>
-220.001480102539

> <b_mmod_Minimization_Converged-OPLS-2005>
0

> <r_mmod_RMS_Derivative-OPLS-2005>
4.73496103286743

$$$$
78
                    3D
 Structure written by MMmdl.
153161  0  0  1  0            999 V2000
  -30.6228  -14.6841   20.5023 C   0  0  0  0  0  0
  -30.4342  -12.4261   19.4686 C   0  0  0  0  0  0
  -29.5095  -12.5302   18.2325 C   0  0  0  0  0  0
  -28.0256  -12.3772   18.6295 C   0  0  0  0  0  0
  -27.6480  -13.2287   19.8723 C   0  0  2  0  0  0
  -28.6911  -13.0565   20.9941 C   0  0  0  0  0  0
  -25.2495  -13.8190   20.5725 C   0  0  0  0  0  0
  -24.1791  -13.0432   20.9208 C   0  0  0  0  0  0
  -24.6392  -11.6905   20.8750 C   0  0  0  0  0  0
  -23.9076  -10.4281   21.0401 C   0  0  0  0  0  0
  -24.3615   -9.4200   21.9180 C   0  0  0  0  0  0
  -23.6288   -8.2247   22.0765 C   0  0  0  0  0  0
  -22.4266   -8.0283   21.3562 C   0  0  0  0  0  0
  -21.9904   -9.0259   20.4664 C   0  0  0  0  0  0
  -22.7243  -10.2126   20.3066 C   0  0  0  0  0  0
  -21.6861   -6.0731   22.5278 C   0  0  0  0  0  0
  -21.4024   -6.5642   23.8216 C   0  0  0  0  0  0
  -21.3670   -5.6795   24.9176 C   0  0  0  0  0  0
  -21.6054   -4.3054   24.7218 C   0  0  0  0  0  0
  -21.8821   -3.8148   23.4340 C   0  0  0  0  0  0
  -21.9197   -4.6962   22.3400 C   0  0  0  0  0  0
  -22.7808  -13.5199   21.1862 C   0  0  0  0  0  0
  -22.1655   -4.2156   21.0978 F   0  0  0  0  0  0
  -21.5628   -3.4529   25.7730 F   0  0  0  0  0  0
  -30.0005  -13.4513   20.4499 N   0  0  0  0  0  0
  -26.2955  -12.9409   20.3379 N   0  0  0  0  0  0
  -25.9324  -11.6538   20.5769 N   0  0  0  0  0  0
  -22.0470  -12.8189   22.0426 N   0  0  0  0  0  0
  -25.4167  -15.1915   20.4090 N   0  0  0  0  0  0
  -31.7761  -14.8077   20.0713 O   0  0  0  0  0  0
  -21.6648   -6.8874   21.4241 O   0  0  0  0  0  0
  -22.3475  -14.5504   20.6707 O   0  0  0  0  0  0
  -24.6268  -31.8581   23.2018 C   0  0  0  0  0  0
  -25.9094  -32.4779   23.8362 C   0  0  1  0  0  0
  -27.2089  -27.2706   20.1156 C   0  0  0  0  0  0
  -25.5908  -33.8583   24.2280 N   0  0  0  0  0  0
  -23.4238  -30.4817   21.5441 C   0  0  2  0  0  0
  -24.8715  -28.9402   20.1079 C   0  0  0  0  0  0
  -22.7490  -29.4600   22.4911 C   0  0  0  0  0  0
  -18.0295  -28.1355   22.8493 C   0  0  0  0  0  0
  -24.1492  -36.7288   23.2643 C   0  0  0  0  0  0
  -25.9713  -30.7720   21.3859 C   0  0  0  0  0  0
  -26.0422  -29.3952   20.7271 C   0  0  0  0  0  0
  -27.2109  -28.5668   20.7326 C   0  0  0  0  0  0
  -26.0197  -26.9015   19.4430 C   0  0  0  0  0  0
  -24.8636  -27.6995   19.4590 C   0  0  0  0  0  0
  -23.6424  -29.8236   20.1572 C   0  0  0  0  0  0
  -25.4117  -36.3078   24.0325 C   0  0  1  0  0  0
  -20.5902  -28.3663   23.1281 C   0  0  2  0  0  0
  -20.6774  -26.9375   22.5424 C   0  0  0  0  0  0
  -19.5754  -26.6355   21.5216 C   0  0  0  0  0  0
  -18.1928  -26.7905   22.1615 C   0  0  0  0  0  0
  -19.1548  -28.8828   23.2881 C   0  0  0  0  0  0
  -18.9467  -30.1432   23.8891 C   0  0  0  0  0  0
  -17.6467  -30.6561   24.0548 C   0  0  0  0  0  0
  -25.9055  -34.9448   23.5108 C   0  0  0  0  0  0
  -16.5361  -29.9054   23.6317 C   0  0  0  0  0  0
  -16.7284  -28.6468   23.0355 C   0  0  0  0  0  0
  -26.4493  -31.6592   25.0733 C   0  0  0  0  0  0
  -25.3732  -31.3742   26.1468 C   0  0  0  0  0  0
  -27.0334  -30.3007   24.6205 C   0  0  0  0  0  0
  -27.6057  -32.4329   25.7494 C   0  0  0  0  0  0
  -27.5589  -37.1790   24.8457 C   0  0  0  0  0  0
  -21.4203  -29.3014   22.3671 N   0  0  0  0  0  0
  -26.4293  -37.3770   23.9421 N   0  0  0  0  0  0
  -24.6928  -31.0548   22.0997 N   0  0  0  0  0  0
  -23.4211  -28.8125   23.2977 O   0  0  0  0  0  0
  -28.2928  -26.3627   20.1904 O   0  0  0  0  0  0
  -26.5625  -34.8910   22.4678 O   0  0  0  0  0  0
  -23.5414  -32.1411   23.7299 O   0  0  0  0  0  0
  -29.5461  -18.6368   20.7563 C   0  0  0  0  0  0
  -30.3553  -17.3368   18.8796 C   0  0  0  0  0  0
  -30.0184  -19.7618   18.6633 C   0  0  0  0  0  0
  -29.9309  -17.3345   20.2277 C   0  0  0  0  0  0
  -29.5735  -19.8767   20.0024 C   0  0  0  0  0  0
  -30.4044  -18.5209   18.1202 C   0  0  0  0  0  0
  -29.7125  -23.9693   21.4860 C   0  0  0  0  0  0
  -29.8355  -15.9883   21.0047 C   0  0  0  0  0  0
  -28.9344  -23.7588   20.4137 C   0  0  0  0  0  0
  -28.0593  -24.9283   19.8084 C   0  0  0  0  0  0
  -28.8865  -22.3287   19.7371 C   0  0  0  0  0  0
  -29.1436  -15.9691   22.0670 N   0  0  0  0  0  0
  -29.2214  -21.1365   20.5677 O   0  0  0  0  0  0
  -30.8332  -18.4617   16.8363 F   0  0  0  0  0  0
  -31.4756  -12.5501   19.1651 H   0  0  0  0  0  0
  -30.3798  -11.4292   19.9071 H   0  0  0  0  0  0
  -29.7783  -11.7732   17.4960 H   0  0  0  0  0  0
  -29.6588  -13.4938   17.7441 H   0  0  0  0  0  0
  -27.8403  -11.3222   18.8328 H   0  0  0  0  0  0
  -27.3831  -12.6398   17.7886 H   0  0  0  0  0  0
  -27.6677  -14.2718   19.5584 H   0  0  0  0  0  0
  -28.7151  -12.0145   21.3164 H   0  0  0  0  0  0
  -28.4160  -13.6072   21.8893 H   0  0  0  0  0  0
  -25.2749   -9.5669   22.4762 H   0  0  0  0  0  0
  -24.0013   -7.4626   22.7460 H   0  0  0  0  0  0
  -21.0855   -8.8764   19.8947 H   0  0  0  0  0  0
  -22.3707  -10.9660   19.6176 H   0  0  0  0  0  0
  -21.2028   -7.6152   23.9723 H   0  0  0  0  0  0
  -21.1496   -6.0518   25.9076 H   0  0  0  0  0  0
  -22.0597   -2.7605   23.2838 H   0  0  0  0  0  0
  -22.4067  -11.9837   22.4802 H   0  0  0  0  0  0
  -21.1109  -13.1257   22.2686 H   0  0  0  0  0  0
  -24.6527  -15.8492   20.5155 H   0  0  0  0  0  0
  -26.2820  -15.6316   20.1243 H   0  0  0  0  0  0
  -26.7163  -32.5442   23.1109 H   0  0  0  0  0  0
  -25.0044  -33.9752   25.0417 H   0  0  0  0  0  0
  -22.7172  -31.3016   21.3995 H   0  0  0  0  0  0
  -23.3763  -35.9608   23.3276 H   0  0  0  0  0  0
  -24.3594  -36.8946   22.2066 H   0  0  0  0  0  0
  -23.7235  -37.6471   23.6697 H   0  0  0  0  0  0
  -26.1100  -31.5361   20.6191 H   0  0  0  0  0  0
  -26.8483  -30.8218   22.0189 H   0  0  0  0  0  0
  -28.0998  -28.8968   21.2513 H   0  0  0  0  0  0
  -25.9403  -25.9725   18.8990 H   0  0  0  0  0  0
  -23.9696  -27.3520   18.9590 H   0  0  0  0  0  0
  -23.7655  -30.6019   19.4031 H   0  0  0  0  0  0
  -22.7622  -29.2549   19.8516 H   0  0  0  0  0  0
  -25.1305  -36.1924   25.0815 H   0  0  0  0  0  0
  -21.0000  -28.3221   24.1396 H   0  0  0  0  0  0
  -20.5638  -26.2262   23.3621 H   0  0  0  0  0  0
  -21.6641  -26.7365   22.1237 H   0  0  0  0  0  0
  -19.6902  -25.6262   21.1242 H   0  0  0  0  0  0
  -19.6696  -27.3168   20.6748 H   0  0  0  0  0  0
  -17.4204  -26.6676   21.4004 H   0  0  0  0  0  0
  -18.0300  -26.0037   22.8996 H   0  0  0  0  0  0
  -19.7942  -30.7259   24.2248 H   0  0  0  0  0  0
  -17.5012  -31.6247   24.5134 H   0  0  0  0  0  0
  -15.5355  -30.2953   23.7634 H   0  0  0  0  0  0
  -15.8685  -28.0782   22.7073 H   0  0  0  0  0  0
  -24.5868  -30.7142   25.7798 H   0  0  0  0  0  0
  -24.8976  -32.2915   26.4939 H   0  0  0  0  0  0
  -25.8050  -30.8873   27.0218 H   0  0  0  0  0  0
  -26.2908  -29.6752   24.1236 H   0  0  0  0  0  0
  -27.4035  -29.7275   25.4716 H   0  0  0  0  0  0
  -27.8783  -30.4294   23.9437 H   0  0  0  0  0  0
  -27.2679  -33.3637   26.2061 H   0  0  0  0  0  0
  -28.3863  -32.6870   25.0313 H   0  0  0  0  0  0
  -28.0723  -31.8455   26.5414 H   0  0  0  0  0  0
  -28.2575  -38.0116   24.7531 H   0  0  0  0  0  0
  -28.1115  -36.2646   24.6241 H   0  0  0  0  0  0
  -27.2317  -37.1387   25.8859 H   0  0  0  0  0  0
  -20.9352  -29.8786   21.6948 H   0  0  0  0  0  0
  -26.0166  -38.2836   24.1439 H   0  0  0  0  0  0
  -29.2105  -18.6925   21.7819 H   0  0  0  0  0  0
  -30.6491  -16.4194   18.3919 H   0  0  0  0  0  0
  -30.0995  -20.6169   18.0140 H   0  0  0  0  0  0
  -29.7624  -24.9396   21.9569 H   0  0  0  0  0  0
  -30.3111  -23.1722   21.9040 H   0  0  0  0  0  0
  -27.0443  -24.6314   20.0734 H   0  0  0  0  0  0
  -28.1363  -24.8652   18.7216 H   0  0  0  0  0  0
  -29.5378  -22.4069   18.8698 H   0  0  0  0  0  0
  -27.8779  -22.1776   19.3461 H   0  0  0  0  0  0
  -28.7298  -16.8754   22.2467 H   0  0  0  0  0  0
  1 25  1  0  0  0
  1 30  2  0  0  0
  1 78  1  0  0  0
  2  3  1  0  0  0
  2 25  1  0  0  0
  2 85  1  0  0  0
  2 86  1  0  0  0
  3  4  1  0  0  0
  3 87  1  0  0  0
  3 88  1  0  0  0
  4  5  1  0  0  0
  4 89  1  0  0  0
  4 90  1  0  0  0
  5  6  1  0  0  0
  5 26  1  0  0  0
  5 91  1  0  0  0
  6 25  1  0  0  0
  6 92  1  0  0  0
  6 93  1  0  0  0
  7  8  2  0  0  0
  7 26  1  0  0  0
  7 29  1  0  0  0
  8  9  1  0  0  0
  8 22  1  0  0  0
  9 10  1  0  0  0
  9 27  2  0  0  0
 10 11  2  0  0  0
 10 15  1  0  0  0
 11 12  1  0  0  0
 11 94  1  0  0  0
 12 13  2  0  0  0
 12 95  1  0  0  0
 13 14  1  0  0  0
 13 31  1  0  0  0
 14 15  2  0  0  0
 14 96  1  0  0  0
 15 97  1  0  0  0
 16 17  2  0  0  0
 16 21  1  0  0  0
 16 31  1  0  0  0
 17 18  1  0  0  0
 17 98  1  0  0  0
 18 19  2  0  0  0
 18 99  1  0  0  0
 19 20  1  0  0  0
 19 24  1  0  0  0
 20 21  2  0  0  0
 20100  1  0  0  0
 21 23  1  0  0  0
 22 28  1  0  0  0
 22 32  2  0  0  0
 26 27  1  0  0  0
 28101  1  0  0  0
 28102  1  0  0  0
 29103  1  0  0  0
 29104  1  0  0  0
 33 34  1  0  0  0
 33 66  1  0  0  0
 33 70  2  0  0  0
 34 36  1  0  0  0
 34 59  1  0  0  0
 34105  1  0  0  0
 35 44  2  0  0  0
 35 45  1  0  0  0
 35 68  1  0  0  0
 36 56  1  0  0  0
 36106  1  0  0  0
 37 39  1  0  0  0
 37 47  1  0  0  0
 37 66  1  0  0  0
 37107  1  0  0  0
 38 43  2  0  0  0
 38 46  1  0  0  0
 38 47  1  0  0  0
 39 64  1  0  0  0
 39 67  2  0  0  0
 40 52  1  0  0  0
 40 53  2  0  0  0
 40 58  1  0  0  0
 41108  1  0  0  0
 41109  1  0  0  0
 41110  1  0  0  0
 41 48  1  0  0  0
 42 43  1  0  0  0
 42 66  1  0  0  0
 42111  1  0  0  0
 42112  1  0  0  0
 43 44  1  0  0  0
 44113  1  0  0  0
 45 46  2  0  0  0
 45114  1  0  0  0
 46115  1  0  0  0
 47116  1  0  0  0
 47117  1  0  0  0
 48 56  1  0  0  0
 48 65  1  0  0  0
 48118  1  0  0  0
 49 50  1  0  0  0
 49 53  1  0  0  0
 49 64  1  0  0  0
 49119  1  0  0  0
 50 51  1  0  0  0
 50120  1  0  0  0
 50121  1  0  0  0
 51 52  1  0  0  0
 51122  1  0  0  0
 51123  1  0  0  0
 52124  1  0  0  0
 52125  1  0  0  0
 53 54  1  0  0  0
 54 55  2  0  0  0
 54126  1  0  0  0
 55 57  1  0  0  0
 55127  1  0  0  0
 56 69  2  0  0  0
 57 58  2  0  0  0
 57128  1  0  0  0
 58129  1  0  0  0
 59 60  1  0  0  0
 59 61  1  0  0  0
 59 62  1  0  0  0
 60130  1  0  0  0
 60131  1  0  0  0
 60132  1  0  0  0
 61133  1  0  0  0
 61134  1  0  0  0
 61135  1  0  0  0
 62136  1  0  0  0
 62137  1  0  0  0
 62138  1  0  0  0
 63 65  1  0  0  0
 63139  1  0  0  0
 63140  1  0  0  0
 63141  1  0  0  0
 64142  1  0  0  0
 65143  1  0  0  0
 68 80  1  0  0  0
 71 74  2  0  0  0
 71 75  1  0  0  0
 71144  1  0  0  0
 72 74  1  0  0  0
 72 76  2  0  0  0
 72145  1  0  0  0
 73 75  2  0  0  0
 73 76  1  0  0  0
 73146  1  0  0  0
 74 78  1  0  0  0
 75 83  1  0  0  0
 76 84  1  0  0  0
 77 79  2  0  0  0
 77147  1  0  0  0
 77148  1  0  0  0
 78 82  2  0  0  0
 79 80  1  0  0  0
 79 81  1  0  0  0
 80149  1  0  0  0
 80150  1  0  0  0
 81 83  1  0  0  0
 81151  1  0  0  0
 81152  1  0  0  0
 82153  1  0  0  0
M  ISO  4   1 100  68 101  78 100  80 101
M  END
> <chiral flag>
0

> <version>
0

> <s_m_source_file>
/data/baiqing/PycharmProjects/Reinvent-master-3.2/result/LINK_invent/BTK/process_docking_weight1_custom_product_contain_oxygen_bond_distance_aromatic_linkinvent_7_9_3/rearranged_h_0100.sdf

> <i_m_source_file_index>
78

> <r_mmod_Potential_Energy-OPLS-2005>
258.427520751953

> <r_mmod_Stretch_Energy-OPLS-2005>
124.26099395752

> <r_mmod_Bend_Energy-OPLS-2005>
160.744125366211

> <r_mmod_Torsional_Energy-OPLS-2005>
194.668197631836

> <r_mmod_Improper_Torsional_Energy-OPLS-2005>
2.91998052597046

> <r_mmod_Van_der_Waal_Energy-OPLS-2005>
156.65705871582

> <r_mmod_Electrostatic_Energy-OPLS-2005>
-250.175201416016

> <r_mmod_Solvation_Energy-OPLS-2005>
-198.733261108398

> <b_mmod_Minimization_Converged-OPLS-2005>
0

> <r_mmod_RMS_Derivative-OPLS-2005>
2.76724815368652

$$$$
79
                    3D
 Structure written by MMmdl.
151159  0  0  1  0            999 V2000
  -30.6166  -14.7521   20.4453 C   0  0  0  0  0  0
  -30.4266  -12.4545   19.4812 C   0  0  0  0  0  0
  -29.5093  -12.4995   18.2396 C   0  0  0  0  0  0
  -28.0352  -12.3276   18.6513 C   0  0  0  0  0  0
  -27.6386  -13.2339   19.8477 C   0  0  2  0  0  0
  -28.6816  -13.1822   20.9855 C   0  0  0  0  0  0
  -25.2495  -13.8209   20.5694 C   0  0  0  0  0  0
  -24.1799  -13.0449   20.9213 C   0  0  0  0  0  0
  -24.6396  -11.6927   20.8754 C   0  0  0  0  0  0
  -23.9075  -10.4298   21.0408 C   0  0  0  0  0  0
  -24.3622   -9.4209   21.9184 C   0  0  0  0  0  0
  -23.6295   -8.2246   22.0753 C   0  0  0  0  0  0
  -22.4279   -8.0288   21.3542 C   0  0  0  0  0  0
  -21.9916   -9.0264   20.4643 C   0  0  0  0  0  0
  -22.7246  -10.2140   20.3056 C   0  0  0  0  0  0
  -21.6857   -6.0739   22.5277 C   0  0  0  0  0  0
  -21.4011   -6.5639   23.8211 C   0  0  0  0  0  0
  -21.3655   -5.6791   24.9174 C   0  0  0  0  0  0
  -21.6048   -4.3057   24.7226 C   0  0  0  0  0  0
  -21.8819   -3.8149   23.4345 C   0  0  0  0  0  0
  -21.9191   -4.6966   22.3399 C   0  0  0  0  0  0
  -22.7817  -13.5219   21.1885 C   0  0  0  0  0  0
  -22.1661   -4.2149   21.0978 F   0  0  0  0  0  0
  -21.5629   -3.4541   25.7738 F   0  0  0  0  0  0
  -29.9817  -13.5291   20.4015 N   0  0  0  0  0  0
  -26.2916  -12.9419   20.3261 N   0  0  0  0  0  0
  -25.9320  -11.6562   20.5746 N   0  0  0  0  0  0
  -22.0470  -12.8199   22.0434 N   0  0  0  0  0  0
  -25.4182  -15.1937   20.4093 N   0  0  0  0  0  0
  -31.8129  -14.8000   20.1493 O   0  0  0  0  0  0
  -21.6644   -6.8886   21.4241 O   0  0  0  0  0  0
  -22.3494  -14.5530   20.6739 O   0  0  0  0  0  0
  -24.6287  -31.8556   23.1968 C   0  0  0  0  0  0
  -25.9109  -32.4765   23.8318 C   0  0  1  0  0  0
  -27.2233  -27.2618   20.1258 C   0  0  0  0  0  0
  -25.5894  -33.8567   24.2246 N   0  0  0  0  0  0
  -23.4266  -30.4762   21.5403 C   0  0  2  0  0  0
  -24.8742  -28.9208   20.1086 C   0  0  0  0  0  0
  -22.7492  -29.4599   22.4913 C   0  0  0  0  0  0
  -18.0282  -28.1403   22.8482 C   0  0  0  0  0  0
  -24.1487  -36.7300   23.2643 C   0  0  0  0  0  0
  -25.9698  -30.7674   21.3760 C   0  0  0  0  0  0
  -26.0420  -29.3883   20.7216 C   0  0  0  0  0  0
  -27.2141  -28.5679   20.7233 C   0  0  0  0  0  0
  -26.0279  -26.8560   19.4899 C   0  0  0  0  0  0
  -24.8716  -27.6643   19.4822 C   0  0  0  0  0  0
  -23.6443  -29.8073   20.1566 C   0  0  0  0  0  0
  -25.4116  -36.3086   24.0326 C   0  0  1  0  0  0
  -20.5882  -28.3715   23.1273 C   0  0  2  0  0  0
  -20.6773  -26.9435   22.5418 C   0  0  0  0  0  0
  -19.5752  -26.6396   21.5218 C   0  0  0  0  0  0
  -18.1931  -26.7942   22.1622 C   0  0  0  0  0  0
  -19.1534  -28.8870   23.2876 C   0  0  0  0  0  0
  -18.9462  -30.1462   23.8912 C   0  0  0  0  0  0
  -17.6467  -30.6608   24.0565 C   0  0  0  0  0  0
  -25.9052  -34.9454   23.5103 C   0  0  0  0  0  0
  -16.5356  -29.9116   23.6325 C   0  0  0  0  0  0
  -16.7269  -28.6527   23.0352 C   0  0  0  0  0  0
  -26.4479  -31.6586   25.0708 C   0  0  0  0  0  0
  -25.3690  -31.3727   26.1417 C   0  0  0  0  0  0
  -27.0314  -30.3005   24.6175 C   0  0  0  0  0  0
  -27.6065  -32.4306   25.7461 C   0  0  0  0  0  0
  -27.5585  -37.1805   24.8464 C   0  0  0  0  0  0
  -21.4197  -29.3062   22.3667 N   0  0  0  0  0  0
  -26.4299  -37.3782   23.9403 N   0  0  0  0  0  0
  -24.6942  -31.0512   22.0947 N   0  0  0  0  0  0
  -23.4190  -28.8135   23.3008 O   0  0  0  0  0  0
  -28.3460  -26.4065   20.2144 O   0  0  0  0  0  0
  -26.5653  -34.8930   22.4687 O   0  0  0  0  0  0
  -23.5437  -32.1376   23.7269 O   0  0  0  0  0  0
  -29.2369  -18.4653   20.6332 C   0  0  0  0  0  0
  -30.8059  -20.1410   19.8154 C   0  0  0  0  0  0
  -31.4131  -17.7569   19.8437 C   0  0  0  0  0  0
  -29.5360  -19.8709   20.3585 C   0  0  0  0  0  0
  -30.1614  -17.3609   20.3823 C   0  0  0  0  0  0
  -31.7253  -19.1044   19.5667 C   0  0  0  0  0  0
  -28.3741  -23.7370   20.5136 C   0  0  0  0  0  0
  -28.5717  -21.1051   20.6673 C   0  0  0  0  0  0
  -28.4464  -25.0434   19.5845 C   0  0  0  0  0  0
  -29.8578  -15.9111   20.6326 N   0  0  0  0  0  0
  -28.7898  -22.4933   20.0555 N   0  0  0  0  0  0
  -27.9029  -23.8502   21.6468 O   0  0  0  0  0  0
  -32.9400  -19.4103   19.0511 F   0  0  0  0  0  0
  -31.4688  -12.5677   19.1779 H   0  0  0  0  0  0
  -30.3656  -11.4826   19.9728 H   0  0  0  0  0  0
  -29.7922  -11.7183   17.5327 H   0  0  0  0  0  0
  -29.6399  -13.4487   17.7172 H   0  0  0  0  0  0
  -27.8908  -11.2800   18.9183 H   0  0  0  0  0  0
  -27.3801  -12.5156   17.7995 H   0  0  0  0  0  0
  -27.6301  -14.2523   19.4597 H   0  0  0  0  0  0
  -28.7168  -12.1906   21.4382 H   0  0  0  0  0  0
  -28.4159  -13.8739   21.7855 H   0  0  0  0  0  0
  -25.2770   -9.5688   22.4757 H   0  0  0  0  0  0
  -24.0005   -7.4639   22.7473 H   0  0  0  0  0  0
  -21.0848   -8.8789   19.8948 H   0  0  0  0  0  0
  -22.3711  -10.9682   19.6167 H   0  0  0  0  0  0
  -21.2002   -7.6151   23.9713 H   0  0  0  0  0  0
  -21.1474   -6.0523   25.9075 H   0  0  0  0  0  0
  -22.0602   -2.7610   23.2848 H   0  0  0  0  0  0
  -22.4089  -11.9849   22.4805 H   0  0  0  0  0  0
  -21.1086  -13.1211   22.2656 H   0  0  0  0  0  0
  -24.6505  -15.8468   20.5245 H   0  0  0  0  0  0
  -26.2574  -15.6314   20.0510 H   0  0  0  0  0  0
  -26.7178  -32.5430   23.1060 H   0  0  0  0  0  0
  -24.9934  -33.9685   25.0314 H   0  0  0  0  0  0
  -22.7237  -31.2989   21.3940 H   0  0  0  0  0  0
  -23.3757  -35.9626   23.3288 H   0  0  0  0  0  0
  -24.3565  -36.8949   22.2061 H   0  0  0  0  0  0
  -23.7241  -37.6488   23.6689 H   0  0  0  0  0  0
  -26.1003  -31.5246   20.6020 H   0  0  0  0  0  0
  -26.8495  -30.8254   22.0040 H   0  0  0  0  0  0
  -28.1077  -28.9173   21.2210 H   0  0  0  0  0  0
  -25.9423  -25.8899   19.0187 H   0  0  0  0  0  0
  -23.9740  -27.3032   18.9980 H   0  0  0  0  0  0
  -23.7690  -30.5831   19.4005 H   0  0  0  0  0  0
  -22.7627  -29.2396   19.8516 H   0  0  0  0  0  0
  -25.1303  -36.1944   25.0824 H   0  0  0  0  0  0
  -20.9964  -28.3316   24.1399 H   0  0  0  0  0  0
  -20.5678  -26.2331   23.3631 H   0  0  0  0  0  0
  -21.6645  -26.7471   22.1213 H   0  0  0  0  0  0
  -19.6918  -25.6301   21.1265 H   0  0  0  0  0  0
  -19.6696  -27.3192   20.6734 H   0  0  0  0  0  0
  -17.4201  -26.6673   21.4035 H   0  0  0  0  0  0
  -18.0331  -26.0095   22.9027 H   0  0  0  0  0  0
  -19.7941  -30.7250   24.2322 H   0  0  0  0  0  0
  -17.5034  -31.6292   24.5161 H   0  0  0  0  0  0
  -15.5360  -30.3031   23.7649 H   0  0  0  0  0  0
  -15.8660  -28.0858   22.7072 H   0  0  0  0  0  0
  -24.5894  -30.7063   25.7712 H   0  0  0  0  0  0
  -24.8835  -32.2879   26.4815 H   0  0  0  0  0  0
  -25.7976  -30.8913   27.0213 H   0  0  0  0  0  0
  -26.2879  -29.6746   24.1228 H   0  0  0  0  0  0
  -27.4021  -29.7286   25.4686 H   0  0  0  0  0  0
  -27.8748  -30.4266   23.9384 H   0  0  0  0  0  0
  -27.2743  -33.3664   26.1966 H   0  0  0  0  0  0
  -28.3903  -32.6757   25.0282 H   0  0  0  0  0  0
  -28.0689  -31.8454   26.5416 H   0  0  0  0  0  0
  -28.2614  -38.0093   24.7506 H   0  0  0  0  0  0
  -28.1077  -36.2624   24.6308 H   0  0  0  0  0  0
  -27.2293  -37.1471   25.8865 H   0  0  0  0  0  0
  -20.9388  -29.8794   21.6873 H   0  0  0  0  0  0
  -26.0186  -38.2863   24.1393 H   0  0  0  0  0  0
  -28.2679  -18.2336   21.0539 H   0  0  0  0  0  0
  -31.0989  -21.1566   19.5941 H   0  0  0  0  0  0
  -32.1846  -17.0418   19.6122 H   0  0  0  0  0  0
  -28.5452  -21.2196   21.7517 H   0  0  0  0  0  0
  -27.5631  -20.7985   20.3888 H   0  0  0  0  0  0
  -27.7633  -24.9175   18.7470 H   0  0  0  0  0  0
  -29.4352  -25.0183   19.1248 H   0  0  0  0  0  0
  -28.9057  -15.7198   20.9058 H   0  0  0  0  0  0
  -29.1781  -22.4933   19.1222 H   0  0  0  0  0  0
  1 25  1  0  0  0
  1 30  2  0  0  0
  1 80  1  0  0  0
  2  3  1  0  0  0
  2 25  1  0  0  0
  2 84  1  0  0  0
  2 85  1  0  0  0
  3  4  1  0  0  0
  3 86  1  0  0  0
  3 87  1  0  0  0
  4  5  1  0  0  0
  4 88  1  0  0  0
  4 89  1  0  0  0
  5  6  1  0  0  0
  5 26  1  0  0  0
  5 90  1  0  0  0
  6 25  1  0  0  0
  6 91  1  0  0  0
  6 92  1  0  0  0
  7  8  2  0  0  0
  7 26  1  0  0  0
  7 29  1  0  0  0
  8  9  1  0  0  0
  8 22  1  0  0  0
  9 10  1  0  0  0
  9 27  2  0  0  0
 10 11  2  0  0  0
 10 15  1  0  0  0
 11 12  1  0  0  0
 11 93  1  0  0  0
 12 13  2  0  0  0
 12 94  1  0  0  0
 13 14  1  0  0  0
 13 31  1  0  0  0
 14 15  2  0  0  0
 14 95  1  0  0  0
 15 96  1  0  0  0
 16 17  2  0  0  0
 16 21  1  0  0  0
 16 31  1  0  0  0
 17 18  1  0  0  0
 17 97  1  0  0  0
 18 19  2  0  0  0
 18 98  1  0  0  0
 19 20  1  0  0  0
 19 24  1  0  0  0
 20 21  2  0  0  0
 20 99  1  0  0  0
 21 23  1  0  0  0
 22 28  1  0  0  0
 22 32  2  0  0  0
 26 27  1  0  0  0
 28100  1  0  0  0
 28101  1  0  0  0
 29102  1  0  0  0
 29103  1  0  0  0
 33 34  1  0  0  0
 33 66  1  0  0  0
 33 70  2  0  0  0
 34 36  1  0  0  0
 34 59  1  0  0  0
 34104  1  0  0  0
 35 44  2  0  0  0
 35 45  1  0  0  0
 35 68  1  0  0  0
 36 56  1  0  0  0
 36105  1  0  0  0
 37 39  1  0  0  0
 37 47  1  0  0  0
 37 66  1  0  0  0
 37106  1  0  0  0
 38 43  2  0  0  0
 38 46  1  0  0  0
 38 47  1  0  0  0
 39 64  1  0  0  0
 39 67  2  0  0  0
 40 52  1  0  0  0
 40 53  2  0  0  0
 40 58  1  0  0  0
 41107  1  0  0  0
 41108  1  0  0  0
 41109  1  0  0  0
 41 48  1  0  0  0
 42 43  1  0  0  0
 42 66  1  0  0  0
 42110  1  0  0  0
 42111  1  0  0  0
 43 44  1  0  0  0
 44112  1  0  0  0
 45 46  2  0  0  0
 45113  1  0  0  0
 46114  1  0  0  0
 47115  1  0  0  0
 47116  1  0  0  0
 48 56  1  0  0  0
 48 65  1  0  0  0
 48117  1  0  0  0
 49 50  1  0  0  0
 49 53  1  0  0  0
 49 64  1  0  0  0
 49118  1  0  0  0
 50 51  1  0  0  0
 50119  1  0  0  0
 50120  1  0  0  0
 51 52  1  0  0  0
 51121  1  0  0  0
 51122  1  0  0  0
 52123  1  0  0  0
 52124  1  0  0  0
 53 54  1  0  0  0
 54 55  2  0  0  0
 54125  1  0  0  0
 55 57  1  0  0  0
 55126  1  0  0  0
 56 69  2  0  0  0
 57 58  2  0  0  0
 57127  1  0  0  0
 58128  1  0  0  0
 59 60  1  0  0  0
 59 61  1  0  0  0
 59 62  1  0  0  0
 60129  1  0  0  0
 60130  1  0  0  0
 60131  1  0  0  0
 61132  1  0  0  0
 61133  1  0  0  0
 61134  1  0  0  0
 62135  1  0  0  0
 62136  1  0  0  0
 62137  1  0  0  0
 63 65  1  0  0  0
 63138  1  0  0  0
 63139  1  0  0  0
 63140  1  0  0  0
 64141  1  0  0  0
 65142  1  0  0  0
 68 79  1  0  0  0
 71 74  2  0  0  0
 71 75  1  0  0  0
 71143  1  0  0  0
 72 74  1  0  0  0
 72 76  2  0  0  0
 72144  1  0  0  0
 73 75  2  0  0  0
 73 76  1  0  0  0
 73145  1  0  0  0
 74 78  1  0  0  0
 75 80  1  0  0  0
 76 83  1  0  0  0
 77 79  1  0  0  0
 77 81  1  0  0  0
 77 82  2  0  0  0
 78 81  1  0  0  0
 78146  1  0  0  0
 78147  1  0  0  0
 79148  1  0  0  0
 79149  1  0  0  0
 80150  1  0  0  0
 81151  1  0  0  0
M  ISO  4   1 100  68 101  79 101  80 100
M  END
> <chiral flag>
0

> <version>
0

> <s_m_source_file>
/data/baiqing/PycharmProjects/Reinvent-master-3.2/result/LINK_invent/BTK/process_docking_weight1_custom_product_contain_oxygen_bond_distance_aromatic_linkinvent_7_9_3/rearranged_h_0100.sdf

> <i_m_source_file_index>
79

> <r_mmod_Potential_Energy-OPLS-2005>
89.4891815185547

> <r_mmod_Stretch_Energy-OPLS-2005>
128.946075439453

> <r_mmod_Bend_Energy-OPLS-2005>
170.053680419922

> <r_mmod_Torsional_Energy-OPLS-2005>
203.771942138672

> <r_mmod_Improper_Torsional_Energy-OPLS-2005>
4.68630838394165

> <r_mmod_Van_der_Waal_Energy-OPLS-2005>
141.076446533203

> <r_mmod_Electrostatic_Energy-OPLS-2005>
-395.608764648438

> <r_mmod_Solvation_Energy-OPLS-2005>
-248.721405029297

> <b_mmod_Minimization_Converged-OPLS-2005>
0

> <r_mmod_RMS_Derivative-OPLS-2005>
1.40360414981842

$$$$
80
                    3D
 Structure written by MMmdl.
159168  0  0  1  0            999 V2000
  -30.6656  -14.5900   20.5132 C   0  0  0  0  0  0
  -30.4274  -12.3848   19.4220 C   0  0  0  0  0  0
  -29.4794  -12.4786   18.2061 C   0  0  0  0  0  0
  -28.0065  -12.3347   18.6356 C   0  0  0  0  0  0
  -27.6461  -13.2172   19.8562 C   0  0  2  0  0  0
  -28.6923  -13.0960   20.9873 C   0  0  0  0  0  0
  -25.2573  -13.8171   20.5754 C   0  0  0  0  0  0
  -24.1842  -13.0445   20.9212 C   0  0  0  0  0  0
  -24.6401  -11.6928   20.8794 C   0  0  0  0  0  0
  -23.9079  -10.4327   21.0418 C   0  0  0  0  0  0
  -24.3659   -9.4253   21.9175 C   0  0  0  0  0  0
  -23.6346   -8.2285   22.0738 C   0  0  0  0  0  0
  -22.4317   -8.0319   21.3552 C   0  0  0  0  0  0
  -21.9969   -9.0282   20.4633 C   0  0  0  0  0  0
  -22.7278  -10.2169   20.3039 C   0  0  0  0  0  0
  -21.6868   -6.0781   22.5284 C   0  0  0  0  0  0
  -21.3996   -6.5657   23.8225 C   0  0  0  0  0  0
  -21.3671   -5.6801   24.9188 C   0  0  0  0  0  0
  -21.6054   -4.3068   24.7227 C   0  0  0  0  0  0
  -21.8817   -3.8172   23.4345 C   0  0  0  0  0  0
  -21.9211   -4.7006   22.3408 C   0  0  0  0  0  0
  -22.7875  -13.5273   21.1857 C   0  0  0  0  0  0
  -22.1667   -4.2192   21.0986 F   0  0  0  0  0  0
  -21.5677   -3.4541   25.7738 F   0  0  0  0  0  0
  -30.0099  -13.3938   20.4101 N   0  0  0  0  0  0
  -26.2987  -12.9378   20.3354 N   0  0  0  0  0  0
  -25.9325  -11.6557   20.5808 N   0  0  0  0  0  0
  -22.0534  -12.8214   22.0392 N   0  0  0  0  0  0
  -25.4266  -15.1861   20.4149 N   0  0  0  0  0  0
  -31.8351  -14.7312   20.1595 O   0  0  0  0  0  0
  -21.6657   -6.8934   21.4253 O   0  0  0  0  0  0
  -22.3564  -14.5602   20.6718 O   0  0  0  0  0  0
  -24.6122  -31.8521   23.2097 C   0  0  0  0  0  0
  -25.9028  -32.4751   23.8354 C   0  0  1  0  0  0
  -27.2128  -27.3445   20.1014 C   0  0  0  0  0  0
  -25.5853  -33.8558   24.2271 N   0  0  0  0  0  0
  -23.4157  -30.4548   21.5635 C   0  0  2  0  0  0
  -24.8632  -28.9308   20.1160 C   0  0  0  0  0  0
  -22.7506  -29.4296   22.5155 C   0  0  0  0  0  0
  -18.0262  -28.1479   22.8618 C   0  0  0  0  0  0
  -24.1505  -36.7277   23.2641 C   0  0  0  0  0  0
  -25.9486  -30.7842   21.3834 C   0  0  0  0  0  0
  -26.0309  -29.4181   20.7146 C   0  0  0  0  0  0
  -27.2190  -28.6384   20.7018 C   0  0  0  0  0  0
  -26.0367  -26.9019   19.4711 C   0  0  0  0  0  0
  -24.8672  -27.6783   19.4695 C   0  0  0  0  0  0
  -23.6297  -29.8045   20.1745 C   0  0  0  0  0  0
  -25.4118  -36.3024   24.0333 C   0  0  1  0  0  0
  -20.5825  -28.3597   23.1795 C   0  0  2  0  0  0
  -20.6550  -26.9251   22.6028 C   0  0  0  0  0  0
  -19.6172  -26.7471   21.4910 C   0  0  0  0  0  0
  -18.2168  -26.8254   22.1322 C   0  0  0  0  0  0
  -19.1454  -28.8857   23.3182 C   0  0  0  0  0  0
  -18.9236  -30.1542   23.8999 C   0  0  0  0  0  0
  -17.6207  -30.6708   24.0598 C   0  0  0  0  0  0
  -25.9025  -34.9436   23.5117 C   0  0  0  0  0  0
  -16.5163  -29.9184   23.6313 C   0  0  0  0  0  0
  -16.7258  -28.6670   23.0231 C   0  0  0  0  0  0
  -26.4422  -31.6527   25.0699 C   0  0  0  0  0  0
  -25.3695  -31.3728   26.1471 C   0  0  0  0  0  0
  -27.0312  -30.2982   24.6131 C   0  0  0  0  0  0
  -27.5933  -32.4297   25.7453 C   0  0  0  0  0  0
  -27.5583  -37.1788   24.8467 C   0  0  0  0  0  0
  -21.4251  -29.2606   22.3915 N   0  0  0  0  0  0
  -26.4279  -37.3734   23.9412 N   0  0  0  0  0  0
  -24.6784  -31.0440   22.1108 N   0  0  0  0  0  0
  -23.4301  -28.7955   23.3385 O   0  0  0  0  0  0
  -28.2334  -26.4125   20.2033 O   0  0  0  0  0  0
  -26.5581  -34.8850   22.4676 O   0  0  0  0  0  0
  -23.5285  -32.1341   23.7381 O   0  0  0  0  0  0
  -27.8409  -17.5394   20.0465 C   0  0  0  0  0  0
  -26.7067  -18.3521   19.9082 C   0  0  0  0  0  0
  -29.1455  -19.4956   20.7285 C   0  0  0  0  0  0
  -29.0616  -18.0768   20.4966 C   0  0  0  0  0  0
  -27.9890  -20.3475   20.6360 C   0  0  0  0  0  0
  -26.7623  -19.7155   20.2516 C   0  0  0  0  0  0
  -28.0584  -24.1380   21.3413 C   0  0  0  0  0  0
  -28.0035  -25.5049   21.2372 C   0  0  0  0  0  0
  -27.6310  -23.4897   22.6421 C   0  0  0  0  0  0
  -28.3768  -22.9663   20.3659 C   0  0  0  0  0  0
  -27.2549  -22.0501   22.2867 C   0  0  0  0  0  0
  -30.2443  -17.1094   20.7609 C   0  0  0  0  0  0
  -28.0179  -21.7123   21.0879 N   0  0  0  0  0  0
  -25.5555  -20.4079   20.2147 N   0  0  0  0  0  0
  -29.8891  -15.6578   20.8375 N   0  0  0  0  0  0
  -31.4547  -12.5340   19.0954 H   0  0  0  0  0  0
  -30.3822  -11.3896   19.8683 H   0  0  0  0  0  0
  -29.7166  -11.6936   17.4896 H   0  0  0  0  0  0
  -29.6245  -13.4289   17.6824 H   0  0  0  0  0  0
  -27.8486  -11.2833   18.8868 H   0  0  0  0  0  0
  -27.3319  -12.5455   17.8035 H   0  0  0  0  0  0
  -27.6581  -14.2459   19.4871 H   0  0  0  0  0  0
  -28.6978  -12.0875   21.4056 H   0  0  0  0  0  0
  -28.4335  -13.7590   21.8181 H   0  0  0  0  0  0
  -25.2794   -9.5753   22.4766 H   0  0  0  0  0  0
  -24.0068   -7.4674   22.7430 H   0  0  0  0  0  0
  -21.0927   -8.8845   19.8890 H   0  0  0  0  0  0
  -22.3765  -10.9757   19.6187 H   0  0  0  0  0  0
  -21.1906   -7.6142   23.9765 H   0  0  0  0  0  0
  -21.1491   -6.0495   25.9112 H   0  0  0  0  0  0
  -22.0564   -2.7628   23.2823 H   0  0  0  0  0  0
  -22.4130  -11.9814   22.4715 H   0  0  0  0  0  0
  -21.1149  -13.1252   22.2561 H   0  0  0  0  0  0
  -24.6798  -15.8567   20.5448 H   0  0  0  0  0  0
  -26.2861  -15.6211   20.1167 H   0  0  0  0  0  0
  -26.6997  -32.5324   23.0963 H   0  0  0  0  0  0
  -25.0066  -33.9738   25.0465 H   0  0  0  0  0  0
  -22.6867  -31.2555   21.4480 H   0  0  0  0  0  0
  -23.3741  -35.9634   23.3282 H   0  0  0  0  0  0
  -24.3602  -36.8910   22.2053 H   0  0  0  0  0  0
  -23.7281  -37.6497   23.6672 H   0  0  0  0  0  0
  -26.0668  -31.5450   20.6112 H   0  0  0  0  0  0
  -26.8364  -30.8341   22.0026 H   0  0  0  0  0  0
  -28.1138  -28.9755   21.2059 H   0  0  0  0  0  0
  -26.0193  -25.9144   19.0157 H   0  0  0  0  0  0
  -23.9708  -27.2973   18.9888 H   0  0  0  0  0  0
  -23.7721  -30.5923   19.4403 H   0  0  0  0  0  0
  -22.7546  -29.2377   19.8503 H   0  0  0  0  0  0
  -25.1293  -36.1876   25.0825 H   0  0  0  0  0  0
  -20.9855  -28.3069   24.1888 H   0  0  0  0  0  0
  -21.6612  -26.6326   22.3054 H   0  0  0  0  0  0
  -20.3793  -26.2255   23.3887 H   0  0  0  0  0  0
  -19.7787  -25.8373   20.9153 H   0  0  0  0  0  0
  -19.7528  -27.5748   20.7894 H   0  0  0  0  0  0
  -17.4548  -26.6980   21.3609 H   0  0  0  0  0  0
  -18.0981  -26.0073   22.8545 H   0  0  0  0  0  0
  -19.7745  -30.7489   24.2028 H   0  0  0  0  0  0
  -17.4668  -31.6421   24.5085 H   0  0  0  0  0  0
  -15.5110  -30.3051   23.7429 H   0  0  0  0  0  0
  -15.8776  -28.1397   22.6253 H   0  0  0  0  0  0
  -24.5827  -30.7079   25.7869 H   0  0  0  0  0  0
  -24.8903  -32.2935   26.4838 H   0  0  0  0  0  0
  -25.7995  -30.8968   27.0297 H   0  0  0  0  0  0
  -26.2929  -29.6725   24.1087 H   0  0  0  0  0  0
  -27.4019  -29.7197   25.4596 H   0  0  0  0  0  0
  -27.8756  -30.4330   23.9367 H   0  0  0  0  0  0
  -27.2511  -33.3606   26.1987 H   0  0  0  0  0  0
  -28.3737  -32.6853   25.0287 H   0  0  0  0  0  0
  -28.0582  -31.8469   26.5402 H   0  0  0  0  0  0
  -28.2566  -38.0112   24.7487 H   0  0  0  0  0  0
  -28.1109  -36.2634   24.6308 H   0  0  0  0  0  0
  -27.2310  -37.1454   25.8873 H   0  0  0  0  0  0
  -20.9532  -29.7709   21.6577 H   0  0  0  0  0  0
  -26.0152  -38.2812   24.1406 H   0  0  0  0  0  0
  -27.7285  -16.4923   19.8160 H   0  0  0  0  0  0
  -25.7765  -17.9062   19.5962 H   0  0  0  0  0  0
  -30.0785  -19.9419   21.0592 H   0  0  0  0  0  0
  -27.6854  -26.0481   22.1143 H   0  0  0  0  0  0
  -26.7969  -24.0261   23.1134 H   0  0  0  0  0  0
  -28.4792  -23.4828   23.3233 H   0  0  0  0  0  0
  -29.4435  -22.9630   20.1231 H   0  0  0  0  0  0
  -27.8245  -23.0754   19.4325 H   0  0  0  0  0  0
  -26.1892  -22.0374   22.0645 H   0  0  0  0  0  0
  -27.4196  -21.3601   23.1186 H   0  0  0  0  0  0
  -30.9906  -17.2910   19.9817 H   0  0  0  0  0  0
  -30.7060  -17.3901   21.7118 H   0  0  0  0  0  0
  -25.5685  -21.2491   20.7720 H   0  0  0  0  0  0
  -24.7438  -19.8363   20.4246 H   0  0  0  0  0  0
  -28.9385  -15.4409   21.0935 H   0  0  0  0  0  0
  1 25  1  0  0  0
  1 30  2  0  0  0
  1 85  1  0  0  0
  2  3  1  0  0  0
  2 25  1  0  0  0
  2 86  1  0  0  0
  2 87  1  0  0  0
  3  4  1  0  0  0
  3 88  1  0  0  0
  3 89  1  0  0  0
  4  5  1  0  0  0
  4 90  1  0  0  0
  4 91  1  0  0  0
  5  6  1  0  0  0
  5 26  1  0  0  0
  5 92  1  0  0  0
  6 25  1  0  0  0
  6 93  1  0  0  0
  6 94  1  0  0  0
  7  8  2  0  0  0
  7 26  1  0  0  0
  7 29  1  0  0  0
  8  9  1  0  0  0
  8 22  1  0  0  0
  9 10  1  0  0  0
  9 27  2  0  0  0
 10 11  2  0  0  0
 10 15  1  0  0  0
 11 12  1  0  0  0
 11 95  1  0  0  0
 12 13  2  0  0  0
 12 96  1  0  0  0
 13 14  1  0  0  0
 13 31  1  0  0  0
 14 15  2  0  0  0
 14 97  1  0  0  0
 15 98  1  0  0  0
 16 17  2  0  0  0
 16 21  1  0  0  0
 16 31  1  0  0  0
 17 18  1  0  0  0
 17 99  1  0  0  0
 18 19  2  0  0  0
 18100  1  0  0  0
 19 20  1  0  0  0
 19 24  1  0  0  0
 20 21  2  0  0  0
 20101  1  0  0  0
 21 23  1  0  0  0
 22 28  1  0  0  0
 22 32  2  0  0  0
 26 27  1  0  0  0
 28102  1  0  0  0
 28103  1  0  0  0
 29104  1  0  0  0
 29105  1  0  0  0
 33 34  1  0  0  0
 33 66  1  0  0  0
 33 70  2  0  0  0
 34 36  1  0  0  0
 34 59  1  0  0  0
 34106  1  0  0  0
 35 44  2  0  0  0
 35 45  1  0  0  0
 35 68  1  0  0  0
 36 56  1  0  0  0
 36107  1  0  0  0
 37 39  1  0  0  0
 37 47  1  0  0  0
 37 66  1  0  0  0
 37108  1  0  0  0
 38 43  2  0  0  0
 38 46  1  0  0  0
 38 47  1  0  0  0
 39 64  1  0  0  0
 39 67  2  0  0  0
 40 52  1  0  0  0
 40 53  2  0  0  0
 40 58  1  0  0  0
 41109  1  0  0  0
 41110  1  0  0  0
 41111  1  0  0  0
 41 48  1  0  0  0
 42 43  1  0  0  0
 42 66  1  0  0  0
 42112  1  0  0  0
 42113  1  0  0  0
 43 44  1  0  0  0
 44114  1  0  0  0
 45 46  2  0  0  0
 45115  1  0  0  0
 46116  1  0  0  0
 47117  1  0  0  0
 47118  1  0  0  0
 48 56  1  0  0  0
 48 65  1  0  0  0
 48119  1  0  0  0
 49 50  1  0  0  0
 49 53  1  0  0  0
 49 64  1  0  0  0
 49120  1  0  0  0
 50 51  1  0  0  0
 50121  1  0  0  0
 50122  1  0  0  0
 51 52  1  0  0  0
 51123  1  0  0  0
 51124  1  0  0  0
 52125  1  0  0  0
 52126  1  0  0  0
 53 54  1  0  0  0
 54 55  2  0  0  0
 54127  1  0  0  0
 55 57  1  0  0  0
 55128  1  0  0  0
 56 69  2  0  0  0
 57 58  2  0  0  0
 57129  1  0  0  0
 58130  1  0  0  0
 59 60  1  0  0  0
 59 61  1  0  0  0
 59 62  1  0  0  0
 60131  1  0  0  0
 60132  1  0  0  0
 60133  1  0  0  0
 61134  1  0  0  0
 61135  1  0  0  0
 61136  1  0  0  0
 62137  1  0  0  0
 62138  1  0  0  0
 62139  1  0  0  0
 63 65  1  0  0  0
 63140  1  0  0  0
 63141  1  0  0  0
 63142  1  0  0  0
 64143  1  0  0  0
 65144  1  0  0  0
 68 78  1  0  0  0
 71 72  2  0  0  0
 71 74  1  0  0  0
 71145  1  0  0  0
 72 76  1  0  0  0
 72146  1  0  0  0
 73 74  2  0  0  0
 73 75  1  0  0  0
 73147  1  0  0  0
 74 82  1  0  0  0
 75 76  2  0  0  0
 75 83  1  0  0  0
 76 84  1  0  0  0
 77 78  2  0  0  0
 77 79  1  0  0  0
 77 80  1  0  0  0
 78148  1  0  0  0
 79 81  1  0  0  0
 79149  1  0  0  0
 79150  1  0  0  0
 80 83  1  0  0  0
 80151  1  0  0  0
 80152  1  0  0  0
 81 83  1  0  0  0
 81153  1  0  0  0
 81154  1  0  0  0
 82 85  1  0  0  0
 82155  1  0  0  0
 82156  1  0  0  0
 84157  1  0  0  0
 84158  1  0  0  0
 85159  1  0  0  0
M  ISO  4   1 100  68 101  78 101  85 100
M  END
> <chiral flag>
0

> <version>
0

> <s_m_source_file>
/data/baiqing/PycharmProjects/Reinvent-master-3.2/result/LINK_invent/BTK/process_docking_weight1_custom_product_contain_oxygen_bond_distance_aromatic_linkinvent_7_9_3/rearranged_h_0100.sdf

> <i_m_source_file_index>
80

> <r_mmod_Potential_Energy-OPLS-2005>
51.0344009399414

> <r_mmod_Stretch_Energy-OPLS-2005>
63.3758659362793

> <r_mmod_Bend_Energy-OPLS-2005>
188.172317504883

> <r_mmod_Torsional_Energy-OPLS-2005>
273.479187011719

> <r_mmod_Improper_Torsional_Energy-OPLS-2005>
12.0142431259155

> <r_mmod_Van_der_Waal_Energy-OPLS-2005>
143.833862304688

> <r_mmod_Electrostatic_Energy-OPLS-2005>
-460.504028320312

> <r_mmod_Solvation_Energy-OPLS-2005>
-222.732879638672

> <b_mmod_Minimization_Converged-OPLS-2005>
0

> <r_mmod_RMS_Derivative-OPLS-2005>
15.3118753433228

$$$$
81
                    3D
 Structure written by MMmdl.
165174  0  0  1  0            999 V2000
  -30.6083  -14.6616   20.5398 C   0  0  0  0  0  0
  -30.4439  -12.4205   19.4482 C   0  0  0  0  0  0
  -29.4968  -12.5217   18.2302 C   0  0  0  0  0  0
  -28.0277  -12.3359   18.6527 C   0  0  0  0  0  0
  -27.6548  -13.2048   19.8794 C   0  0  2  0  0  0
  -28.7039  -13.0586   21.0048 C   0  0  0  0  0  0
  -25.2561  -13.8177   20.5691 C   0  0  0  0  0  0
  -24.1813  -13.0439   20.9181 C   0  0  0  0  0  0
  -24.6379  -11.6912   20.8758 C   0  0  0  0  0  0
  -23.9046  -10.4294   21.0425 C   0  0  0  0  0  0
  -24.3612   -9.4216   21.9189 C   0  0  0  0  0  0
  -23.6303   -8.2243   22.0757 C   0  0  0  0  0  0
  -22.4283   -8.0273   21.3548 C   0  0  0  0  0  0
  -21.9918   -9.0245   20.4648 C   0  0  0  0  0  0
  -22.7236  -10.2128   20.3073 C   0  0  0  0  0  0
  -21.6845   -6.0740   22.5285 C   0  0  0  0  0  0
  -21.4009   -6.5652   23.8215 C   0  0  0  0  0  0
  -21.3666   -5.6804   24.9176 C   0  0  0  0  0  0
  -21.6053   -4.3069   24.7216 C   0  0  0  0  0  0
  -21.8817   -3.8158   23.4337 C   0  0  0  0  0  0
  -21.9197   -4.6977   22.3398 C   0  0  0  0  0  0
  -22.7848  -13.5243   21.1829 C   0  0  0  0  0  0
  -22.1663   -4.2173   21.0970 F   0  0  0  0  0  0
  -21.5636   -3.4547   25.7716 F   0  0  0  0  0  0
  -30.0144  -13.4267   20.4452 N   0  0  0  0  0  0
  -26.2983  -12.9315   20.3438 N   0  0  0  0  0  0
  -25.9304  -11.6483   20.5836 N   0  0  0  0  0  0
  -22.0494  -12.8251   22.0423 N   0  0  0  0  0  0
  -25.4297  -15.1866   20.4014 N   0  0  0  0  0  0
  -31.7389  -14.8620   20.0803 O   0  0  0  0  0  0
  -21.6653   -6.8871   21.4234 O   0  0  0  0  0  0
  -22.3562  -14.5545   20.6666 O   0  0  0  0  0  0
  -24.6261  -31.8594   23.2011 C   0  0  0  0  0  0
  -25.9111  -32.4774   23.8337 C   0  0  1  0  0  0
  -27.2556  -27.3398   20.1347 C   0  0  0  0  0  0
  -25.5942  -33.8567   24.2271 N   0  0  0  0  0  0
  -23.4204  -30.4788   21.5399 C   0  0  2  0  0  0
  -24.8749  -28.9193   20.1229 C   0  0  0  0  0  0
  -22.7450  -29.4647   22.4914 C   0  0  0  0  0  0
  -18.0320  -28.1416   22.8459 C   0  0  0  0  0  0
  -24.1498  -36.7305   23.2634 C   0  0  0  0  0  0
  -25.9570  -30.7963   21.3677 C   0  0  0  0  0  0
  -26.0374  -29.4162   20.7271 C   0  0  0  0  0  0
  -27.2310  -28.6400   20.7217 C   0  0  0  0  0  0
  -26.0752  -26.8826   19.5127 C   0  0  0  0  0  0
  -24.8938  -27.6550   19.5092 C   0  0  0  0  0  0
  -23.6366  -29.7929   20.1624 C   0  0  0  0  0  0
  -25.4121  -36.3058   24.0311 C   0  0  1  0  0  0
  -20.5884  -28.3717   23.1243 C   0  0  2  0  0  0
  -20.6830  -26.9441   22.5416 C   0  0  0  0  0  0
  -19.5779  -26.6372   21.5252 C   0  0  0  0  0  0
  -18.1957  -26.7938   22.1652 C   0  0  0  0  0  0
  -19.1558  -28.8889   23.2862 C   0  0  0  0  0  0
  -18.9475  -30.1479   23.8918 C   0  0  0  0  0  0
  -17.6446  -30.6550   24.0656 C   0  0  0  0  0  0
  -25.9058  -34.9430   23.5077 C   0  0  0  0  0  0
  -16.5355  -29.9071   23.6354 C   0  0  0  0  0  0
  -16.7301  -28.6528   23.0287 C   0  0  0  0  0  0
  -26.4474  -31.6565   25.0710 C   0  0  0  0  0  0
  -25.3718  -31.3706   26.1443 C   0  0  0  0  0  0
  -27.0306  -30.2985   24.6141 C   0  0  0  0  0  0
  -27.6028  -32.4291   25.7526 C   0  0  0  0  0  0
  -27.5575  -37.1813   24.8463 C   0  0  0  0  0  0
  -21.4169  -29.3021   22.3589 N   0  0  0  0  0  0
  -26.4296  -37.3761   23.9390 N   0  0  0  0  0  0
  -24.6863  -31.0616   22.0940 N   0  0  0  0  0  0
  -23.4153  -28.8247   23.3044 O   0  0  0  0  0  0
  -28.4224  -26.5850   19.9994 O   0  0  0  0  0  0
  -26.5604  -34.8905   22.4636 O   0  0  0  0  0  0
  -23.5428  -32.1386   23.7346 O   0  0  0  0  0  0
  -30.3280  -18.0917   21.6534 C   0  0  0  0  0  0
  -28.5217  -18.9286   19.7181 C   0  0  0  0  0  0
  -29.9873  -19.4822   21.5410 C   0  0  0  0  0  0
  -29.0365  -19.9506   20.5788 C   0  0  0  0  0  0
  -29.7587  -17.0886   20.8252 C   0  0  0  0  0  0
  -28.8511  -17.5367   19.8341 C   0  0  0  0  0  0
  -26.8390  -23.7174   21.2698 C   0  0  0  0  0  0
  -26.3830  -22.2820   21.5050 C   0  0  0  0  0  0
  -26.9983  -21.2862   20.5077 C   0  0  0  0  0  0
  -29.1010  -22.6464   20.7446 C   0  0  0  0  0  0
  -28.1520  -23.9328   20.4957 C   0  0  2  0  0  0
  -30.5951  -20.4299   22.5551 C   0  0  0  0  0  0
  -27.4829  -16.9043   17.9459 C   0  0  0  0  0  0
  -28.7308  -25.3952   20.8146 C   0  0  0  0  0  0
  -28.4658  -21.2894   20.5209 N   0  0  0  0  0  0
  -29.8669  -15.6569   21.1209 N   0  0  0  0  0  0
  -26.1734  -24.6531   21.7218 O   0  0  0  0  0  0
  -28.2857  -16.5432   19.0605 O   0  0  0  0  0  0
  -31.4749  -12.5804   19.1302 H   0  0  0  0  0  0
  -30.4163  -11.4187   19.8827 H   0  0  0  0  0  0
  -29.7670  -11.7806   17.4758 H   0  0  0  0  0  0
  -29.6126  -13.4975   17.7553 H   0  0  0  0  0  0
  -27.8837  -11.2821   18.8941 H   0  0  0  0  0  0
  -27.3611  -12.5513   17.8180 H   0  0  0  0  0  0
  -27.6688  -14.2358   19.5362 H   0  0  0  0  0  0
  -28.7346  -12.0292   21.3629 H   0  0  0  0  0  0
  -28.4380  -13.6601   21.8746 H   0  0  0  0  0  0
  -25.2752   -9.5713   22.4769 H   0  0  0  0  0  0
  -24.0026   -7.4648   22.7494 H   0  0  0  0  0  0
  -21.0852   -8.8763   19.8951 H   0  0  0  0  0  0
  -22.3698  -10.9664   19.6195 H   0  0  0  0  0  0
  -21.1995   -7.6162   23.9722 H   0  0  0  0  0  0
  -21.1493   -6.0532   25.9083 H   0  0  0  0  0  0
  -22.0589   -2.7623   23.2821 H   0  0  0  0  0  0
  -22.4155  -11.9939   22.4821 H   0  0  0  0  0  0
  -21.1117  -13.1267   22.2648 H   0  0  0  0  0  0
  -24.6491  -15.8292   20.4726 H   0  0  0  0  0  0
  -26.2849  -15.6265   20.0812 H   0  0  0  0  0  0
  -26.7190  -32.5430   23.1105 H   0  0  0  0  0  0
  -25.0117  -33.9720   25.0428 H   0  0  0  0  0  0
  -22.7183  -31.3018   21.3846 H   0  0  0  0  0  0
  -23.3729  -35.9675   23.3298 H   0  0  0  0  0  0
  -24.3585  -36.8921   22.2051 H   0  0  0  0  0  0
  -23.7316  -37.6530   23.6668 H   0  0  0  0  0  0
  -26.0754  -31.5496   20.5883 H   0  0  0  0  0  0
  -26.8436  -30.8581   21.9876 H   0  0  0  0  0  0
  -28.1314  -29.0411   21.1678 H   0  0  0  0  0  0
  -26.0726  -25.9220   19.0204 H   0  0  0  0  0  0
  -24.0064  -27.2657   19.0310 H   0  0  0  0  0  0
  -23.7358  -30.5519   19.3857 H   0  0  0  0  0  0
  -22.7638  -29.2032   19.8803 H   0  0  0  0  0  0
  -25.1310  -36.1881   25.0804 H   0  0  0  0  0  0
  -20.9936  -28.3352   24.1375 H   0  0  0  0  0  0
  -20.5709  -26.2412   23.3681 H   0  0  0  0  0  0
  -21.6769  -26.7536   22.1289 H   0  0  0  0  0  0
  -19.6931  -25.6285   21.1270 H   0  0  0  0  0  0
  -19.6701  -27.3195   20.6796 H   0  0  0  0  0  0
  -17.4188  -26.6614   21.4107 H   0  0  0  0  0  0
  -18.0427  -26.0181   22.9169 H   0  0  0  0  0  0
  -19.7950  -30.7309   24.2273 H   0  0  0  0  0  0
  -17.4985  -31.6195   24.5347 H   0  0  0  0  0  0
  -15.5336  -30.2948   23.7669 H   0  0  0  0  0  0
  -15.8746  -28.0858   22.6897 H   0  0  0  0  0  0
  -24.5898  -30.7050   25.7754 H   0  0  0  0  0  0
  -24.8932  -32.2891   26.4855 H   0  0  0  0  0  0
  -25.8060  -30.8881   27.0215 H   0  0  0  0  0  0
  -26.2872  -29.6781   24.1129 H   0  0  0  0  0  0
  -27.3944  -29.7192   25.4634 H   0  0  0  0  0  0
  -27.8758  -30.4240   23.9383 H   0  0  0  0  0  0
  -27.2593  -33.3559   26.2138 H   0  0  0  0  0  0
  -28.3862  -32.6894   25.0398 H   0  0  0  0  0  0
  -28.0680  -31.8400   26.5445 H   0  0  0  0  0  0
  -28.2594  -38.0105   24.7483 H   0  0  0  0  0  0
  -28.1065  -36.2636   24.6312 H   0  0  0  0  0  0
  -27.2292  -37.1493   25.8866 H   0  0  0  0  0  0
  -20.9373  -29.8498   21.6584 H   0  0  0  0  0  0
  -26.0145  -38.2820   24.1388 H   0  0  0  0  0  0
  -30.9948  -17.7820   22.4473 H   0  0  0  0  0  0
  -27.7954  -19.2277   18.9791 H   0  0  0  0  0  0
  -25.2960  -22.2541   21.4391 H   0  0  0  0  0  0
  -26.6483  -22.0013   22.5254 H   0  0  0  0  0  0
  -26.6408  -21.4972   19.4988 H   0  0  0  0  0  0
  -26.6151  -20.2988   20.7686 H   0  0  0  0  0  0
  -29.4625  -22.7034   21.7705 H   0  0  0  0  0  0
  -29.9866  -22.7371   20.1149 H   0  0  0  0  0  0
  -27.8926  -23.9273   19.4393 H   0  0  0  0  0  0
  -31.2093  -19.8955   23.2811 H   0  0  0  0  0  0
  -29.8113  -20.9508   23.1078 H   0  0  0  0  0  0
  -31.2267  -21.1618   22.0530 H   0  0  0  0  0  0
  -27.2218  -16.0002   17.3952 H   0  0  0  0  0  0
  -28.0185  -17.5593   17.2611 H   0  0  0  0  0  0
  -26.5514  -17.3763   18.2563 H   0  0  0  0  0  0
  -29.8157  -25.3178   20.7414 H   0  0  0  0  0  0
  -28.5667  -25.6555   21.8606 H   0  0  0  0  0  0
  -29.0348  -15.2858   21.5529 H   0  0  0  0  0  0
  1 25  1  0  0  0
  1 30  2  0  0  0
  1 86  1  0  0  0
  2  3  1  0  0  0
  2 25  1  0  0  0
  2 89  1  0  0  0
  2 90  1  0  0  0
  3  4  1  0  0  0
  3 91  1  0  0  0
  3 92  1  0  0  0
  4  5  1  0  0  0
  4 93  1  0  0  0
  4 94  1  0  0  0
  5  6  1  0  0  0
  5 26  1  0  0  0
  5 95  1  0  0  0
  6 25  1  0  0  0
  6 96  1  0  0  0
  6 97  1  0  0  0
  7  8  2  0  0  0
  7 26  1  0  0  0
  7 29  1  0  0  0
  8  9  1  0  0  0
  8 22  1  0  0  0
  9 10  1  0  0  0
  9 27  2  0  0  0
 10 11  2  0  0  0
 10 15  1  0  0  0
 11 12  1  0  0  0
 11 98  1  0  0  0
 12 13  2  0  0  0
 12 99  1  0  0  0
 13 14  1  0  0  0
 13 31  1  0  0  0
 14 15  2  0  0  0
 14100  1  0  0  0
 15101  1  0  0  0
 16 17  2  0  0  0
 16 21  1  0  0  0
 16 31  1  0  0  0
 17 18  1  0  0  0
 17102  1  0  0  0
 18 19  2  0  0  0
 18103  1  0  0  0
 19 20  1  0  0  0
 19 24  1  0  0  0
 20 21  2  0  0  0
 20104  1  0  0  0
 21 23  1  0  0  0
 22 28  1  0  0  0
 22 32  2  0  0  0
 26 27  1  0  0  0
 28105  1  0  0  0
 28106  1  0  0  0
 29107  1  0  0  0
 29108  1  0  0  0
 33 34  1  0  0  0
 33 66  1  0  0  0
 33 70  2  0  0  0
 34 36  1  0  0  0
 34 59  1  0  0  0
 34109  1  0  0  0
 35 44  2  0  0  0
 35 45  1  0  0  0
 35 68  1  0  0  0
 36 56  1  0  0  0
 36110  1  0  0  0
 37 39  1  0  0  0
 37 47  1  0  0  0
 37 66  1  0  0  0
 37111  1  0  0  0
 38 43  2  0  0  0
 38 46  1  0  0  0
 38 47  1  0  0  0
 39 64  1  0  0  0
 39 67  2  0  0  0
 40 52  1  0  0  0
 40 53  2  0  0  0
 40 58  1  0  0  0
 41112  1  0  0  0
 41113  1  0  0  0
 41114  1  0  0  0
 41 48  1  0  0  0
 42 43  1  0  0  0
 42 66  1  0  0  0
 42115  1  0  0  0
 42116  1  0  0  0
 43 44  1  0  0  0
 44117  1  0  0  0
 45 46  2  0  0  0
 45118  1  0  0  0
 46119  1  0  0  0
 47120  1  0  0  0
 47121  1  0  0  0
 48 56  1  0  0  0
 48 65  1  0  0  0
 48122  1  0  0  0
 49 50  1  0  0  0
 49 53  1  0  0  0
 49 64  1  0  0  0
 49123  1  0  0  0
 50 51  1  0  0  0
 50124  1  0  0  0
 50125  1  0  0  0
 51 52  1  0  0  0
 51126  1  0  0  0
 51127  1  0  0  0
 52128  1  0  0  0
 52129  1  0  0  0
 53 54  1  0  0  0
 54 55  2  0  0  0
 54130  1  0  0  0
 55 57  1  0  0  0
 55131  1  0  0  0
 56 69  2  0  0  0
 57 58  2  0  0  0
 57132  1  0  0  0
 58133  1  0  0  0
 59 60  1  0  0  0
 59 61  1  0  0  0
 59 62  1  0  0  0
 60134  1  0  0  0
 60135  1  0  0  0
 60136  1  0  0  0
 61137  1  0  0  0
 61138  1  0  0  0
 61139  1  0  0  0
 62140  1  0  0  0
 62141  1  0  0  0
 62142  1  0  0  0
 63 65  1  0  0  0
 63143  1  0  0  0
 63144  1  0  0  0
 63145  1  0  0  0
 64146  1  0  0  0
 65147  1  0  0  0
 68 84  1  0  0  0
 71 73  2  0  0  0
 71 75  1  0  0  0
 71148  1  0  0  0
 72 74  2  0  0  0
 72 76  1  0  0  0
 72149  1  0  0  0
 73 74  1  0  0  0
 73 82  1  0  0  0
 74 85  1  0  0  0
 75 76  2  0  0  0
 75 86  1  0  0  0
 76 88  1  0  0  0
 77 78  1  0  0  0
 77 81  1  0  0  0
 77 87  2  0  0  0
 78 79  1  0  0  0
 78150  1  0  0  0
 78151  1  0  0  0
 79 85  1  0  0  0
 79152  1  0  0  0
 79153  1  0  0  0
 80 81  1  0  0  0
 80 85  1  0  0  0
 80154  1  0  0  0
 80155  1  0  0  0
 81 84  1  0  0  0
 81156  1  0  0  0
 82157  1  0  0  0
 82158  1  0  0  0
 82159  1  0  0  0
 83 88  1  0  0  0
 83160  1  0  0  0
 83161  1  0  0  0
 83162  1  0  0  0
 84163  1  0  0  0
 84164  1  0  0  0
 86165  1  0  0  0
M  ISO  4   1 100  68 101  84 101  86 100
M  END
> <chiral flag>
0

> <version>
0

> <s_m_source_file>
/data/baiqing/PycharmProjects/Reinvent-master-3.2/result/LINK_invent/BTK/process_docking_weight1_custom_product_contain_oxygen_bond_distance_aromatic_linkinvent_7_9_3/rearranged_h_0100.sdf

> <i_m_source_file_index>
81

> <r_mmod_Potential_Energy-OPLS-2005>
73.5071411132812

> <r_mmod_Stretch_Energy-OPLS-2005>
92.7694320678711

> <r_mmod_Bend_Energy-OPLS-2005>
186.851501464844

> <r_mmod_Torsional_Energy-OPLS-2005>
268.07666015625

> <r_mmod_Improper_Torsional_Energy-OPLS-2005>
7.7061767578125

> <r_mmod_Van_der_Waal_Energy-OPLS-2005>
145.135375976562

> <r_mmod_Electrostatic_Energy-OPLS-2005>
-435.118011474609

> <r_mmod_Solvation_Energy-OPLS-2005>
-235.109405517578

> <b_mmod_Minimization_Converged-OPLS-2005>
0

> <r_mmod_RMS_Derivative-OPLS-2005>
4.9241509437561

$$$$
82
                    3D
 Structure written by MMmdl.
163171  0  0  1  0            999 V2000
  -30.7245  -14.4138   20.6459 C   0  0  0  0  0  0
  -30.4247  -12.2986   19.4029 C   0  0  0  0  0  0
  -29.4896  -12.5160   18.1962 C   0  0  0  0  0  0
  -28.0125  -12.3715   18.6123 C   0  0  0  0  0  0
  -27.6657  -13.1987   19.8785 C   0  0  2  0  0  0
  -28.7038  -12.9428   20.9929 C   0  0  0  0  0  0
  -25.2609  -13.8145   20.5665 C   0  0  0  0  0  0
  -24.1849  -13.0436   20.9164 C   0  0  0  0  0  0
  -24.6395  -11.6899   20.8728 C   0  0  0  0  0  0
  -23.9061  -10.4291   21.0408 C   0  0  0  0  0  0
  -24.3615   -9.4208   21.9188 C   0  0  0  0  0  0
  -23.6290   -8.2241   22.0760 C   0  0  0  0  0  0
  -22.4272   -8.0281   21.3547 C   0  0  0  0  0  0
  -21.9908   -9.0255   20.4649 C   0  0  0  0  0  0
  -22.7236  -10.2134   20.3057 C   0  0  0  0  0  0
  -21.6849   -6.0736   22.5279 C   0  0  0  0  0  0
  -21.4014   -6.5642   23.8215 C   0  0  0  0  0  0
  -21.3657   -5.6793   24.9174 C   0  0  0  0  0  0
  -21.6042   -4.3055   24.7227 C   0  0  0  0  0  0
  -21.8819   -3.8151   23.4347 C   0  0  0  0  0  0
  -21.9195   -4.6964   22.3402 C   0  0  0  0  0  0
  -22.7874  -13.5244   21.1831 C   0  0  0  0  0  0
  -22.1660   -4.2152   21.0979 F   0  0  0  0  0  0
  -21.5629   -3.4540   25.7738 F   0  0  0  0  0  0
  -30.0403  -13.2549   20.4516 N   0  0  0  0  0  0
  -26.3041  -12.9301   20.3365 N   0  0  0  0  0  0
  -25.9319  -11.6468   20.5758 N   0  0  0  0  0  0
  -22.0512  -12.8237   22.0384 N   0  0  0  0  0  0
  -25.4353  -15.1859   20.4063 N   0  0  0  0  0  0
  -31.8073  -14.6522   20.1005 O   0  0  0  0  0  0
  -21.6635   -6.8878   21.4243 O   0  0  0  0  0  0
  -22.3566  -14.5555   20.6683 O   0  0  0  0  0  0
  -24.6118  -31.8691   23.2118 C   0  0  0  0  0  0
  -25.9026  -32.4825   23.8401 C   0  0  1  0  0  0
  -27.2402  -27.4591   20.1000 C   0  0  0  0  0  0
  -25.5905  -33.8620   24.2341 N   0  0  0  0  0  0
  -23.3988  -30.4914   21.5503 C   0  0  2  0  0  0
  -24.8481  -28.9533   20.1215 C   0  0  0  0  0  0
  -22.7393  -29.4661   22.5003 C   0  0  0  0  0  0
  -18.0270  -28.1367   22.8494 C   0  0  0  0  0  0
  -24.1491  -36.7311   23.2639 C   0  0  0  0  0  0
  -25.9236  -30.8404   21.3621 C   0  0  0  0  0  0
  -26.0034  -29.4712   20.7222 C   0  0  0  0  0  0
  -27.2026  -28.7273   20.7176 C   0  0  0  0  0  0
  -26.0755  -26.9478   19.4945 C   0  0  0  0  0  0
  -24.8758  -27.6862   19.5100 C   0  0  0  0  0  0
  -23.6081  -29.8184   20.1663 C   0  0  0  0  0  0
  -25.4107  -36.3105   24.0345 C   0  0  1  0  0  0
  -20.5858  -28.3647   23.1334 C   0  0  2  0  0  0
  -20.6758  -26.9388   22.5419 C   0  0  0  0  0  0
  -19.5742  -26.6382   21.5207 C   0  0  0  0  0  0
  -18.1919  -26.7915   22.1620 C   0  0  0  0  0  0
  -19.1518  -28.8823   23.2908 C   0  0  0  0  0  0
  -18.9448  -30.1428   23.8916 C   0  0  0  0  0  0
  -17.6451  -30.6575   24.0562 C   0  0  0  0  0  0
  -25.9034  -34.9473   23.5136 C   0  0  0  0  0  0
  -16.5343  -29.9078   23.6322 C   0  0  0  0  0  0
  -16.7260  -28.6495   23.0346 C   0  0  0  0  0  0
  -26.4467  -31.6591   25.0711 C   0  0  0  0  0  0
  -25.3751  -31.3686   26.1473 C   0  0  0  0  0  0
  -27.0291  -30.3047   24.6035 C   0  0  0  0  0  0
  -27.6046  -32.4301   25.7475 C   0  0  0  0  0  0
  -27.5579  -37.1810   24.8467 C   0  0  0  0  0  0
  -21.4126  -29.3018   22.3744 N   0  0  0  0  0  0
  -26.4294  -37.3784   23.9411 N   0  0  0  0  0  0
  -24.6623  -31.0821   22.1000 N   0  0  0  0  0  0
  -23.4177  -28.8208   23.3038 O   0  0  0  0  0  0
  -28.4071  -26.7440   20.0128 O   0  0  0  0  0  0
  -26.5580  -34.8925   22.4686 O   0  0  0  0  0  0
  -23.5323  -32.1430   23.7536 O   0  0  0  0  0  0
  -29.4719  -17.6133   21.9165 C   0  0  0  0  0  0
  -31.1400  -19.2673   22.5689 C   0  0  0  0  0  0
  -31.8209  -16.9899   22.0237 C   0  0  0  0  0  0
  -29.7891  -18.9382   22.2990 C   0  0  0  0  0  0
  -30.4781  -16.6372   21.7622 C   0  0  0  0  0  0
  -32.1628  -18.2945   22.4326 C   0  0  0  0  0  0
  -28.6807  -19.9476   22.4739 C   0  0  0  0  0  0
  -28.2442  -22.3355   22.3757 C   0  0  0  0  0  0
  -35.3987  -19.7906   23.4044 C   0  0  0  0  0  0
  -28.9408  -23.6956   22.2255 C   0  0  0  0  0  0
  -28.2969  -24.5943   21.1463 C   0  0  0  0  0  0
  -33.8885  -19.8101   23.1583 C   0  0  0  0  0  0
  -28.8010  -26.0487   21.1925 C   0  0  0  0  0  0
  -30.0850  -15.3144   21.4140 N   0  0  0  0  0  0
  -29.0233  -21.2388   22.2945 N   0  0  0  0  0  0
  -27.5390  -19.5456   22.7274 O   0  0  0  0  0  0
  -27.0248  -22.3236   22.5774 O   0  0  0  0  0  0
  -33.4976  -18.5275   22.6858 O   0  0  0  0  0  0
  -31.4672  -12.4083   19.0976 H   0  0  0  0  0  0
  -30.3330  -11.2782   19.7787 H   0  0  0  0  0  0
  -29.7253  -11.8035   17.4047 H   0  0  0  0  0  0
  -29.6569  -13.5083   17.7740 H   0  0  0  0  0  0
  -27.8231  -11.3140   18.7993 H   0  0  0  0  0  0
  -27.3589  -12.6547   17.7864 H   0  0  0  0  0  0
  -27.7221  -14.2512   19.6013 H   0  0  0  0  0  0
  -28.6757  -11.8958   21.2984 H   0  0  0  0  0  0
  -28.4528  -13.5041   21.8933 H   0  0  0  0  0  0
  -25.2763   -9.5676   22.4758 H   0  0  0  0  0  0
  -23.9997   -7.4632   22.7479 H   0  0  0  0  0  0
  -21.0839   -8.8777   19.8952 H   0  0  0  0  0  0
  -22.3706  -10.9673   19.6161 H   0  0  0  0  0  0
  -21.2006   -7.6150   23.9718 H   0  0  0  0  0  0
  -21.1477   -6.0523   25.9076 H   0  0  0  0  0  0
  -22.0602   -2.7614   23.2847 H   0  0  0  0  0  0
  -22.4119  -11.9890   22.4760 H   0  0  0  0  0  0
  -21.1134  -13.1274   22.2594 H   0  0  0  0  0  0
  -24.6709  -15.8440   20.5124 H   0  0  0  0  0  0
  -26.2896  -15.6215   20.0826 H   0  0  0  0  0  0
  -26.7099  -32.5558   23.1176 H   0  0  0  0  0  0
  -25.0095  -33.9774   25.0512 H   0  0  0  0  0  0
  -22.6868  -31.3069   21.4095 H   0  0  0  0  0  0
  -23.3746  -35.9650   23.3309 H   0  0  0  0  0  0
  -24.3599  -36.8909   22.2051 H   0  0  0  0  0  0
  -23.7251  -37.6527   23.6642 H   0  0  0  0  0  0
  -26.0278  -31.6010   20.5867 H   0  0  0  0  0  0
  -26.8154  -30.9024   21.9737 H   0  0  0  0  0  0
  -28.0993  -29.1282   21.1681 H   0  0  0  0  0  0
  -26.1017  -25.9828   19.0082 H   0  0  0  0  0  0
  -23.9886  -27.2812   19.0430 H   0  0  0  0  0  0
  -23.7145  -30.5903   19.4033 H   0  0  0  0  0  0
  -22.7341  -29.2343   19.8728 H   0  0  0  0  0  0
  -25.1280  -36.1971   25.0839 H   0  0  0  0  0  0
  -20.9946  -28.3201   24.1457 H   0  0  0  0  0  0
  -20.5666  -26.2245   23.3597 H   0  0  0  0  0  0
  -21.6630  -26.7435   22.1210 H   0  0  0  0  0  0
  -19.6907  -25.6298   21.1219 H   0  0  0  0  0  0
  -19.6691  -27.3207   20.6753 H   0  0  0  0  0  0
  -17.4189  -26.6672   21.4017 H   0  0  0  0  0  0
  -18.0316  -26.0043   22.9006 H   0  0  0  0  0  0
  -19.7928  -30.7231   24.2304 H   0  0  0  0  0  0
  -17.5011  -31.6265   24.5149 H   0  0  0  0  0  0
  -15.5347  -30.2985   23.7635 H   0  0  0  0  0  0
  -15.8660  -28.0821   22.7052 H   0  0  0  0  0  0
  -24.5918  -30.7034   25.7821 H   0  0  0  0  0  0
  -24.8954  -32.2842   26.4945 H   0  0  0  0  0  0
  -25.8123  -30.8846   27.0215 H   0  0  0  0  0  0
  -26.2811  -29.6819   24.1115 H   0  0  0  0  0  0
  -27.4122  -29.7262   25.4453 H   0  0  0  0  0  0
  -27.8620  -30.4392   23.9129 H   0  0  0  0  0  0
  -27.2660  -33.3588   26.2079 H   0  0  0  0  0  0
  -28.3846  -32.6874   25.0297 H   0  0  0  0  0  0
  -28.0719  -31.8405   26.5372 H   0  0  0  0  0  0
  -28.2595  -38.0104   24.7501 H   0  0  0  0  0  0
  -28.1069  -36.2635   24.6301 H   0  0  0  0  0  0
  -27.2300  -37.1471   25.8870 H   0  0  0  0  0  0
  -20.9279  -29.8740   21.6973 H   0  0  0  0  0  0
  -26.0186  -38.2867   24.1401 H   0  0  0  0  0  0
  -28.4388  -17.3473   21.7381 H   0  0  0  0  0  0
  -31.3810  -20.2669   22.8988 H   0  0  0  0  0  0
  -32.6066  -16.2531   21.9392 H   0  0  0  0  0  0
  -35.7456  -20.7575   23.7694 H   0  0  0  0  0  0
  -35.9430  -19.5648   22.4873 H   0  0  0  0  0  0
  -35.6655  -19.0386   24.1472 H   0  0  0  0  0  0
  -30.0018  -23.5617   22.0127 H   0  0  0  0  0  0
  -28.8854  -24.1940   23.1941 H   0  0  0  0  0  0
  -27.2105  -24.5948   21.2416 H   0  0  0  0  0  0
  -28.5172  -24.1706   20.1657 H   0  0  0  0  0  0
  -33.6455  -20.5788   22.4234 H   0  0  0  0  0  0
  -33.3704  -20.0494   24.0882 H   0  0  0  0  0  0
  -29.8908  -26.0599   21.2263 H   0  0  0  0  0  0
  -28.4575  -26.5514   22.0994 H   0  0  0  0  0  0
  -29.1583  -15.0348   21.6963 H   0  0  0  0  0  0
  -29.9947  -21.3958   22.0849 H   0  0  0  0  0  0
  1 25  1  0  0  0
  1 30  2  0  0  0
  1 84  1  0  0  0
  2  3  1  0  0  0
  2 25  1  0  0  0
  2 89  1  0  0  0
  2 90  1  0  0  0
  3  4  1  0  0  0
  3 91  1  0  0  0
  3 92  1  0  0  0
  4  5  1  0  0  0
  4 93  1  0  0  0
  4 94  1  0  0  0
  5  6  1  0  0  0
  5 26  1  0  0  0
  5 95  1  0  0  0
  6 25  1  0  0  0
  6 96  1  0  0  0
  6 97  1  0  0  0
  7  8  2  0  0  0
  7 26  1  0  0  0
  7 29  1  0  0  0
  8  9  1  0  0  0
  8 22  1  0  0  0
  9 10  1  0  0  0
  9 27  2  0  0  0
 10 11  2  0  0  0
 10 15  1  0  0  0
 11 12  1  0  0  0
 11 98  1  0  0  0
 12 13  2  0  0  0
 12 99  1  0  0  0
 13 14  1  0  0  0
 13 31  1  0  0  0
 14 15  2  0  0  0
 14100  1  0  0  0
 15101  1  0  0  0
 16 17  2  0  0  0
 16 21  1  0  0  0
 16 31  1  0  0  0
 17 18  1  0  0  0
 17102  1  0  0  0
 18 19  2  0  0  0
 18103  1  0  0  0
 19 20  1  0  0  0
 19 24  1  0  0  0
 20 21  2  0  0  0
 20104  1  0  0  0
 21 23  1  0  0  0
 22 28  1  0  0  0
 22 32  2  0  0  0
 26 27  1  0  0  0
 28105  1  0  0  0
 28106  1  0  0  0
 29107  1  0  0  0
 29108  1  0  0  0
 33 34  1  0  0  0
 33 66  1  0  0  0
 33 70  2  0  0  0
 34 36  1  0  0  0
 34 59  1  0  0  0
 34109  1  0  0  0
 35 44  2  0  0  0
 35 45  1  0  0  0
 35 68  1  0  0  0
 36 56  1  0  0  0
 36110  1  0  0  0
 37 39  1  0  0  0
 37 47  1  0  0  0
 37 66  1  0  0  0
 37111  1  0  0  0
 38 43  2  0  0  0
 38 46  1  0  0  0
 38 47  1  0  0  0
 39 64  1  0  0  0
 39 67  2  0  0  0
 40 52  1  0  0  0
 40 53  2  0  0  0
 40 58  1  0  0  0
 41112  1  0  0  0
 41113  1  0  0  0
 41114  1  0  0  0
 41 48  1  0  0  0
 42 43  1  0  0  0
 42 66  1  0  0  0
 42115  1  0  0  0
 42116  1  0  0  0
 43 44  1  0  0  0
 44117  1  0  0  0
 45 46  2  0  0  0
 45118  1  0  0  0
 46119  1  0  0  0
 47120  1  0  0  0
 47121  1  0  0  0
 48 56  1  0  0  0
 48 65  1  0  0  0
 48122  1  0  0  0
 49 50  1  0  0  0
 49 53  1  0  0  0
 49 64  1  0  0  0
 49123  1  0  0  0
 50 51  1  0  0  0
 50124  1  0  0  0
 50125  1  0  0  0
 51 52  1  0  0  0
 51126  1  0  0  0
 51127  1  0  0  0
 52128  1  0  0  0
 52129  1  0  0  0
 53 54  1  0  0  0
 54 55  2  0  0  0
 54130  1  0  0  0
 55 57  1  0  0  0
 55131  1  0  0  0
 56 69  2  0  0  0
 57 58  2  0  0  0
 57132  1  0  0  0
 58133  1  0  0  0
 59 60  1  0  0  0
 59 61  1  0  0  0
 59 62  1  0  0  0
 60134  1  0  0  0
 60135  1  0  0  0
 60136  1  0  0  0
 61137  1  0  0  0
 61138  1  0  0  0
 61139  1  0  0  0
 62140  1  0  0  0
 62141  1  0  0  0
 62142  1  0  0  0
 63 65  1  0  0  0
 63143  1  0  0  0
 63144  1  0  0  0
 63145  1  0  0  0
 64146  1  0  0  0
 65147  1  0  0  0
 68 83  1  0  0  0
 71 74  2  0  0  0
 71 75  1  0  0  0
 71148  1  0  0  0
 72 74  1  0  0  0
 72 76  2  0  0  0
 72149  1  0  0  0
 73 75  2  0  0  0
 73 76  1  0  0  0
 73150  1  0  0  0
 74 77  1  0  0  0
 75 84  1  0  0  0
 76 88  1  0  0  0
 77 85  1  0  0  0
 77 86  2  0  0  0
 78 80  1  0  0  0
 78 85  1  0  0  0
 78 87  2  0  0  0
 79 82  1  0  0  0
 79151  1  0  0  0
 79152  1  0  0  0
 79153  1  0  0  0
 80 81  1  0  0  0
 80154  1  0  0  0
 80155  1  0  0  0
 81 83  1  0  0  0
 81156  1  0  0  0
 81157  1  0  0  0
 82 88  1  0  0  0
 82158  1  0  0  0
 82159  1  0  0  0
 83160  1  0  0  0
 83161  1  0  0  0
 84162  1  0  0  0
 85163  1  0  0  0
M  ISO  4   1 100  68 101  83 101  84 100
M  END
> <chiral flag>
0

> <version>
0

> <s_m_source_file>
/data/baiqing/PycharmProjects/Reinvent-master-3.2/result/LINK_invent/BTK/process_docking_weight1_custom_product_contain_oxygen_bond_distance_aromatic_linkinvent_7_9_3/rearranged_h_0100.sdf

> <i_m_source_file_index>
82

> <r_mmod_Potential_Energy-OPLS-2005>
-246.069641113281

> <r_mmod_Stretch_Energy-OPLS-2005>
34.7931365966797

> <r_mmod_Bend_Energy-OPLS-2005>
104.745765686035

> <r_mmod_Torsional_Energy-OPLS-2005>
243.0234375

> <r_mmod_Improper_Torsional_Energy-OPLS-2005>
2.80037474632263

> <r_mmod_Van_der_Waal_Energy-OPLS-2005>
164.881134033203

> <r_mmod_Electrostatic_Energy-OPLS-2005>
-529.526794433594

> <r_mmod_Solvation_Energy-OPLS-2005>
-274.022888183594

> <b_mmod_Minimization_Converged-OPLS-2005>
0

> <r_mmod_RMS_Derivative-OPLS-2005>
0.929022610187531

$$$$
83
                    3D
 Structure written by MMmdl.
157165  0  0  1  0            999 V2000
  -30.7406  -14.3501   20.7050 C   0  0  0  0  0  0
  -30.4223  -12.2884   19.3794 C   0  0  0  0  0  0
  -29.4822  -12.5318   18.1834 C   0  0  0  0  0  0
  -28.0055  -12.3849   18.5984 C   0  0  0  0  0  0
  -27.6654  -13.1946   19.8759 C   0  0  2  0  0  0
  -28.6990  -12.9006   20.9839 C   0  0  0  0  0  0
  -25.2577  -13.8116   20.5603 C   0  0  0  0  0  0
  -24.1837  -13.0410   20.9164 C   0  0  0  0  0  0
  -24.6389  -11.6882   20.8743 C   0  0  0  0  0  0
  -23.9045  -10.4273   21.0428 C   0  0  0  0  0  0
  -24.3607   -9.4190   21.9201 C   0  0  0  0  0  0
  -23.6287   -8.2222   22.0763 C   0  0  0  0  0  0
  -22.4271   -8.0264   21.3551 C   0  0  0  0  0  0
  -21.9895   -9.0241   20.4659 C   0  0  0  0  0  0
  -22.7220  -10.2118   20.3075 C   0  0  0  0  0  0
  -21.6845   -6.0734   22.5284 C   0  0  0  0  0  0
  -21.4011   -6.5639   23.8222 C   0  0  0  0  0  0
  -21.3660   -5.6793   24.9181 C   0  0  0  0  0  0
  -21.6042   -4.3054   24.7230 C   0  0  0  0  0  0
  -21.8825   -3.8146   23.4351 C   0  0  0  0  0  0
  -21.9186   -4.6959   22.3409 C   0  0  0  0  0  0
  -22.7858  -13.5214   21.1822 C   0  0  0  0  0  0
  -22.1644   -4.2149   21.0983 F   0  0  0  0  0  0
  -21.5633   -3.4537   25.7738 F   0  0  0  0  0  0
  -30.0457  -13.2092   20.4614 N   0  0  0  0  0  0
  -26.3020  -12.9274   20.3326 N   0  0  0  0  0  0
  -25.9299  -11.6441   20.5739 N   0  0  0  0  0  0
  -22.0504  -12.8217   22.0398 N   0  0  0  0  0  0
  -25.4249  -15.1808   20.3895 N   0  0  0  0  0  0
  -31.7539  -14.6814   20.0808 O   0  0  0  0  0  0
  -21.6640   -6.8863   21.4245 O   0  0  0  0  0  0
  -22.3556  -14.5526   20.6685 O   0  0  0  0  0  0
  -24.6114  -31.8715   23.2109 C   0  0  0  0  0  0
  -25.9032  -32.4839   23.8404 C   0  0  1  0  0  0
  -27.2402  -27.4617   20.0800 C   0  0  0  0  0  0
  -25.5902  -33.8636   24.2350 N   0  0  0  0  0  0
  -23.3971  -30.4941   21.5519 C   0  0  2  0  0  0
  -24.8412  -28.9617   20.1172 C   0  0  0  0  0  0
  -22.7399  -29.4657   22.4987 C   0  0  0  0  0  0
  -18.0273  -28.1372   22.8501 C   0  0  0  0  0  0
  -24.1486  -36.7310   23.2638 C   0  0  0  0  0  0
  -25.9224  -30.8459   21.3557 C   0  0  0  0  0  0
  -25.9988  -29.4806   20.7068 C   0  0  0  0  0  0
  -27.1970  -28.7373   20.6858 C   0  0  0  0  0  0
  -26.0548  -26.9454   19.5010 C   0  0  0  0  0  0
  -24.8622  -27.6920   19.5158 C   0  0  0  0  0  0
  -23.6040  -29.8278   20.1661 C   0  0  0  0  0  0
  -25.4105  -36.3112   24.0340 C   0  0  1  0  0  0
  -20.5860  -28.3657   23.1334 C   0  0  2  0  0  0
  -20.6753  -26.9399   22.5426 C   0  0  0  0  0  0
  -19.5729  -26.6391   21.5227 C   0  0  0  0  0  0
  -18.1910  -26.7919   22.1636 C   0  0  0  0  0  0
  -19.1521  -28.8830   23.2919 C   0  0  0  0  0  0
  -18.9441  -30.1435   23.8926 C   0  0  0  0  0  0
  -17.6440  -30.6579   24.0568 C   0  0  0  0  0  0
  -25.9028  -34.9480   23.5134 C   0  0  0  0  0  0
  -16.5337  -29.9083   23.6317 C   0  0  0  0  0  0
  -16.7261  -28.6499   23.0352 C   0  0  0  0  0  0
  -26.4484  -31.6590   25.0706 C   0  0  0  0  0  0
  -25.3774  -31.3678   26.1469 C   0  0  0  0  0  0
  -27.0289  -30.3028   24.6040 C   0  0  0  0  0  0
  -27.6074  -32.4288   25.7467 C   0  0  0  0  0  0
  -27.5571  -37.1823   24.8475 C   0  0  0  0  0  0
  -21.4129  -29.3032   22.3731 N   0  0  0  0  0  0
  -26.4286  -37.3799   23.9413 N   0  0  0  0  0  0
  -24.6621  -31.0848   22.0982 N   0  0  0  0  0  0
  -23.4192  -28.8220   23.3021 O   0  0  0  0  0  0
  -28.4499  -26.7977   20.0752 O   0  0  0  0  0  0
  -26.5588  -34.8912   22.4695 O   0  0  0  0  0  0
  -23.5317  -32.1459   23.7529 O   0  0  0  0  0  0
  -28.5072  -17.3021   21.0453 C   0  0  0  0  0  0
  -27.6676  -18.3700   20.6763 C   0  0  0  0  0  0
  -29.2502  -19.9505   21.6273 C   0  0  0  0  0  0
  -29.7325  -17.5478   21.7066 C   0  0  0  0  0  0
  -28.0240  -19.7012   20.9675 C   0  0  0  0  0  0
  -30.0943  -18.8821   21.9934 C   0  0  0  0  0  0
  -28.1660  -24.4303   20.6611 C   0  0  0  0  0  0
  -30.6652  -16.4144   22.1321 C   0  0  0  0  0  0
  -28.1378  -22.9638   20.2213 C   0  0  0  0  0  0
  -28.5364  -25.4565   19.5807 C   0  0  0  0  0  0
  -27.2447  -22.0777   21.1065 C   0  0  0  0  0  0
  -27.1333  -20.7169   20.5844 N   0  0  0  0  0  0
  -30.2403  -15.0848   21.7047 N   0  0  0  0  0  0
  -27.9374  -24.7609   21.8300 O   0  0  0  0  0  0
  -31.2604  -19.1430   22.6317 F   0  0  0  0  0  0
  -31.4622  -12.4135   19.0706 H   0  0  0  0  0  0
  -30.3348  -11.2570   19.7238 H   0  0  0  0  0  0
  -29.7141  -11.8359   17.3751 H   0  0  0  0  0  0
  -29.6527  -13.5328   17.7832 H   0  0  0  0  0  0
  -27.8133  -11.3246   18.7691 H   0  0  0  0  0  0
  -27.3505  -12.6839   17.7791 H   0  0  0  0  0  0
  -27.7334  -14.2529   19.6211 H   0  0  0  0  0  0
  -28.6576  -11.8445   21.2557 H   0  0  0  0  0  0
  -28.4348  -13.4335   21.8974 H   0  0  0  0  0  0
  -25.2762   -9.5678   22.4752 H   0  0  0  0  0  0
  -24.0022   -7.4629   22.7478 H   0  0  0  0  0  0
  -21.0820   -8.8773   19.8961 H   0  0  0  0  0  0
  -22.3704  -10.9669   19.6184 H   0  0  0  0  0  0
  -21.2014   -7.6153   23.9725 H   0  0  0  0  0  0
  -21.1463   -6.0521   25.9087 H   0  0  0  0  0  0
  -22.0604   -2.7607   23.2861 H   0  0  0  0  0  0
  -22.4089  -11.9873   22.4793 H   0  0  0  0  0  0
  -21.1131  -13.1281   22.2606 H   0  0  0  0  0  0
  -24.6432  -15.8230   20.4602 H   0  0  0  0  0  0
  -26.2495  -15.6024   19.9845 H   0  0  0  0  0  0
  -26.7111  -32.5580   23.1180 H   0  0  0  0  0  0
  -25.0079  -33.9811   25.0511 H   0  0  0  0  0  0
  -22.6816  -31.3076   21.4183 H   0  0  0  0  0  0
  -23.3723  -35.9668   23.3327 H   0  0  0  0  0  0
  -24.3573  -36.8894   22.2043 H   0  0  0  0  0  0
  -23.7261  -37.6536   23.6632 H   0  0  0  0  0  0
  -26.0268  -31.6093   20.5834 H   0  0  0  0  0  0
  -26.8123  -30.9044   21.9703 H   0  0  0  0  0  0
  -28.0923  -29.1460   21.1320 H   0  0  0  0  0  0
  -26.0224  -25.9752   19.0303 H   0  0  0  0  0  0
  -23.9687  -27.2863   19.0614 H   0  0  0  0  0  0
  -23.7104  -30.6034   19.4061 H   0  0  0  0  0  0
  -22.7295  -29.2455   19.8721 H   0  0  0  0  0  0
  -25.1282  -36.1967   25.0831 H   0  0  0  0  0  0
  -20.9970  -28.3222   24.1445 H   0  0  0  0  0  0
  -20.5656  -26.2283   23.3621 H   0  0  0  0  0  0
  -21.6628  -26.7440   22.1228 H   0  0  0  0  0  0
  -19.6882  -25.6319   21.1225 H   0  0  0  0  0  0
  -19.6644  -27.3217   20.6768 H   0  0  0  0  0  0
  -17.4198  -26.6697   21.4019 H   0  0  0  0  0  0
  -18.0284  -26.0047   22.9008 H   0  0  0  0  0  0
  -19.7916  -30.7255   24.2307 H   0  0  0  0  0  0
  -17.4991  -31.6252   24.5177 H   0  0  0  0  0  0
  -15.5338  -30.2996   23.7599 H   0  0  0  0  0  0
  -15.8669  -28.0816   22.7053 H   0  0  0  0  0  0
  -24.5927  -30.7050   25.7803 H   0  0  0  0  0  0
  -24.8994  -32.2828   26.4969 H   0  0  0  0  0  0
  -25.8134  -30.8807   27.0196 H   0  0  0  0  0  0
  -26.2811  -29.6817   24.1090 H   0  0  0  0  0  0
  -27.4068  -29.7222   25.4470 H   0  0  0  0  0  0
  -27.8642  -30.4343   23.9153 H   0  0  0  0  0  0
  -27.2706  -33.3564   26.2097 H   0  0  0  0  0  0
  -28.3853  -32.6885   25.0276 H   0  0  0  0  0  0
  -28.0781  -31.8386   26.5345 H   0  0  0  0  0  0
  -28.2632  -38.0078   24.7469 H   0  0  0  0  0  0
  -28.1022  -36.2610   24.6359 H   0  0  0  0  0  0
  -27.2290  -37.1536   25.8883 H   0  0  0  0  0  0
  -20.9278  -29.8753   21.6959 H   0  0  0  0  0  0
  -26.0162  -38.2882   24.1376 H   0  0  0  0  0  0
  -28.1875  -16.2971   20.8200 H   0  0  0  0  0  0
  -26.7388  -18.1518   20.1677 H   0  0  0  0  0  0
  -29.5641  -20.9544   21.8656 H   0  0  0  0  0  0
  -31.6788  -16.6332   21.7924 H   0  0  0  0  0  0
  -30.7106  -16.4077   23.2217 H   0  0  0  0  0  0
  -29.1623  -22.5918   20.2128 H   0  0  0  0  0  0
  -27.7867  -22.9282   19.1903 H   0  0  0  0  0  0
  -29.5736  -25.2728   19.2970 H   0  0  0  0  0  0
  -27.9459  -25.3007   18.6801 H   0  0  0  0  0  0
  -26.2384  -22.5015   21.1437 H   0  0  0  0  0  0
  -27.5987  -22.0730   22.1383 H   0  0  0  0  0  0
  -26.2242  -20.4342   20.2224 H   0  0  0  0  0  0
  -29.4416  -14.6927   22.1800 H   0  0  0  0  0  0
  1 25  1  0  0  0
  1 30  2  0  0  0
  1 83  1  0  0  0
  2  3  1  0  0  0
  2 25  1  0  0  0
  2 86  1  0  0  0
  2 87  1  0  0  0
  3  4  1  0  0  0
  3 88  1  0  0  0
  3 89  1  0  0  0
  4  5  1  0  0  0
  4 90  1  0  0  0
  4 91  1  0  0  0
  5  6  1  0  0  0
  5 26  1  0  0  0
  5 92  1  0  0  0
  6 25  1  0  0  0
  6 93  1  0  0  0
  6 94  1  0  0  0
  7  8  2  0  0  0
  7 26  1  0  0  0
  7 29  1  0  0  0
  8  9  1  0  0  0
  8 22  1  0  0  0
  9 10  1  0  0  0
  9 27  2  0  0  0
 10 11  2  0  0  0
 10 15  1  0  0  0
 11 12  1  0  0  0
 11 95  1  0  0  0
 12 13  2  0  0  0
 12 96  1  0  0  0
 13 14  1  0  0  0
 13 31  1  0  0  0
 14 15  2  0  0  0
 14 97  1  0  0  0
 15 98  1  0  0  0
 16 17  2  0  0  0
 16 21  1  0  0  0
 16 31  1  0  0  0
 17 18  1  0  0  0
 17 99  1  0  0  0
 18 19  2  0  0  0
 18100  1  0  0  0
 19 20  1  0  0  0
 19 24  1  0  0  0
 20 21  2  0  0  0
 20101  1  0  0  0
 21 23  1  0  0  0
 22 28  1  0  0  0
 22 32  2  0  0  0
 26 27  1  0  0  0
 28102  1  0  0  0
 28103  1  0  0  0
 29104  1  0  0  0
 29105  1  0  0  0
 33 34  1  0  0  0
 33 66  1  0  0  0
 33 70  2  0  0  0
 34 36  1  0  0  0
 34 59  1  0  0  0
 34106  1  0  0  0
 35 44  2  0  0  0
 35 45  1  0  0  0
 35 68  1  0  0  0
 36 56  1  0  0  0
 36107  1  0  0  0
 37 39  1  0  0  0
 37 47  1  0  0  0
 37 66  1  0  0  0
 37108  1  0  0  0
 38 43  2  0  0  0
 38 46  1  0  0  0
 38 47  1  0  0  0
 39 64  1  0  0  0
 39 67  2  0  0  0
 40 52  1  0  0  0
 40 53  2  0  0  0
 40 58  1  0  0  0
 41109  1  0  0  0
 41110  1  0  0  0
 41111  1  0  0  0
 41 48  1  0  0  0
 42 43  1  0  0  0
 42 66  1  0  0  0
 42112  1  0  0  0
 42113  1  0  0  0
 43 44  1  0  0  0
 44114  1  0  0  0
 45 46  2  0  0  0
 45115  1  0  0  0
 46116  1  0  0  0
 47117  1  0  0  0
 47118  1  0  0  0
 48 56  1  0  0  0
 48 65  1  0  0  0
 48119  1  0  0  0
 49 50  1  0  0  0
 49 53  1  0  0  0
 49 64  1  0  0  0
 49120  1  0  0  0
 50 51  1  0  0  0
 50121  1  0  0  0
 50122  1  0  0  0
 51 52  1  0  0  0
 51123  1  0  0  0
 51124  1  0  0  0
 52125  1  0  0  0
 52126  1  0  0  0
 53 54  1  0  0  0
 54 55  2  0  0  0
 54127  1  0  0  0
 55 57  1  0  0  0
 55128  1  0  0  0
 56 69  2  0  0  0
 57 58  2  0  0  0
 57129  1  0  0  0
 58130  1  0  0  0
 59 60  1  0  0  0
 59 61  1  0  0  0
 59 62  1  0  0  0
 60131  1  0  0  0
 60132  1  0  0  0
 60133  1  0  0  0
 61134  1  0  0  0
 61135  1  0  0  0
 61136  1  0  0  0
 62137  1  0  0  0
 62138  1  0  0  0
 62139  1  0  0  0
 63 65  1  0  0  0
 63140  1  0  0  0
 63141  1  0  0  0
 63142  1  0  0  0
 64143  1  0  0  0
 65144  1  0  0  0
 68 80  1  0  0  0
 71 72  2  0  0  0
 71 74  1  0  0  0
 71145  1  0  0  0
 72 75  1  0  0  0
 72146  1  0  0  0
 73 75  2  0  0  0
 73 76  1  0  0  0
 73147  1  0  0  0
 74 76  2  0  0  0
 74 78  1  0  0  0
 75 82  1  0  0  0
 76 85  1  0  0  0
 77 79  1  0  0  0
 77 80  1  0  0  0
 77 84  2  0  0  0
 78 83  1  0  0  0
 78148  1  0  0  0
 78149  1  0  0  0
 79 81  1  0  0  0
 79150  1  0  0  0
 79151  1  0  0  0
 80152  1  0  0  0
 80153  1  0  0  0
 81 82  1  0  0  0
 81154  1  0  0  0
 81155  1  0  0  0
 82156  1  0  0  0
 83157  1  0  0  0
M  ISO  4   1 100  68 101  80 101  83 100
M  END
> <chiral flag>
0

> <version>
0

> <s_m_source_file>
/data/baiqing/PycharmProjects/Reinvent-master-3.2/result/LINK_invent/BTK/process_docking_weight1_custom_product_contain_oxygen_bond_distance_aromatic_linkinvent_7_9_3/rearranged_h_0100.sdf

> <i_m_source_file_index>
83

> <r_mmod_Potential_Energy-OPLS-2005>
-104.126159667969

> <r_mmod_Stretch_Energy-OPLS-2005>
33.3457565307617

> <r_mmod_Bend_Energy-OPLS-2005>
105.513343811035

> <r_mmod_Torsional_Energy-OPLS-2005>
168.590789794922

> <r_mmod_Improper_Torsional_Energy-OPLS-2005>
3.61632633209229

> <r_mmod_Van_der_Waal_Energy-OPLS-2005>
155.813507080078

> <r_mmod_Electrostatic_Energy-OPLS-2005>
-338.108367919922

> <r_mmod_Solvation_Energy-OPLS-2005>
-241.136428833008

> <b_mmod_Minimization_Converged-OPLS-2005>
0

> <r_mmod_RMS_Derivative-OPLS-2005>
2.50281977653503

$$$$
84
                    3D
 Structure written by MMmdl.
158167  0  0  1  0            999 V2000
  -30.6636  -14.7433   20.4451 C   0  0  0  0  0  0
  -30.4204  -12.4556   19.4759 C   0  0  0  0  0  0
  -29.5023  -12.4941   18.2355 C   0  0  0  0  0  0
  -28.0344  -12.3139   18.6585 C   0  0  0  0  0  0
  -27.6375  -13.2371   19.8418 C   0  0  2  0  0  0
  -28.6840  -13.2163   20.9783 C   0  0  0  0  0  0
  -25.2498  -13.8211   20.5692 C   0  0  0  0  0  0
  -24.1798  -13.0461   20.9211 C   0  0  0  0  0  0
  -24.6395  -11.6937   20.8741 C   0  0  0  0  0  0
  -23.9077  -10.4314   21.0411 C   0  0  0  0  0  0
  -24.3618   -9.4227   21.9194 C   0  0  0  0  0  0
  -23.6293   -8.2254   22.0769 C   0  0  0  0  0  0
  -22.4271   -8.0294   21.3553 C   0  0  0  0  0  0
  -21.9912   -9.0267   20.4652 C   0  0  0  0  0  0
  -22.7243  -10.2153   20.3062 C   0  0  0  0  0  0
  -21.6849   -6.0740   22.5274 C   0  0  0  0  0  0
  -21.4020   -6.5639   23.8206 C   0  0  0  0  0  0
  -21.3653   -5.6794   24.9169 C   0  0  0  0  0  0
  -21.6037   -4.3057   24.7219 C   0  0  0  0  0  0
  -21.8816   -3.8148   23.4339 C   0  0  0  0  0  0
  -21.9193   -4.6969   22.3397 C   0  0  0  0  0  0
  -22.7822  -13.5233   21.1870 C   0  0  0  0  0  0
  -22.1658   -4.2157   21.0977 F   0  0  0  0  0  0
  -21.5628   -3.4542   25.7732 F   0  0  0  0  0  0
  -29.9878  -13.5438   20.3871 N   0  0  0  0  0  0
  -26.2924  -12.9434   20.3262 N   0  0  0  0  0  0
  -25.9325  -11.6574   20.5754 N   0  0  0  0  0  0
  -22.0449  -12.8232   22.0415 N   0  0  0  0  0  0
  -25.4212  -15.1937   20.4111 N   0  0  0  0  0  0
  -31.8560  -14.7498   20.1396 O   0  0  0  0  0  0
  -21.6640   -6.8889   21.4239 O   0  0  0  0  0  0
  -22.3520  -14.5546   20.6723 O   0  0  0  0  0  0
  -24.6290  -31.8553   23.1985 C   0  0  0  0  0  0
  -25.9117  -32.4752   23.8308 C   0  0  1  0  0  0
  -27.2131  -27.2547   20.1230 C   0  0  0  0  0  0
  -25.5929  -33.8549   24.2234 N   0  0  0  0  0  0
  -23.4255  -30.4782   21.5437 C   0  0  2  0  0  0
  -24.8736  -28.9325   20.1053 C   0  0  0  0  0  0
  -22.7498  -29.4572   22.4905 C   0  0  0  0  0  0
  -18.0293  -28.1365   22.8476 C   0  0  0  0  0  0
  -24.1498  -36.7271   23.2637 C   0  0  0  0  0  0
  -25.9739  -30.7629   21.3857 C   0  0  0  0  0  0
  -26.0452  -29.3870   20.7240 C   0  0  0  0  0  0
  -27.2151  -28.5590   20.7271 C   0  0  0  0  0  0
  -26.0231  -26.8844   19.4546 C   0  0  0  0  0  0
  -24.8690  -27.6876   19.4599 C   0  0  0  0  0  0
  -23.6439  -29.8187   20.1579 C   0  0  0  0  0  0
  -25.4123  -36.3051   24.0319 C   0  0  1  0  0  0
  -20.5897  -28.3659   23.1277 C   0  0  2  0  0  0
  -20.6767  -26.9377   22.5404 C   0  0  0  0  0  0
  -19.5739  -26.6359   21.5204 C   0  0  0  0  0  0
  -18.1918  -26.7906   22.1618 C   0  0  0  0  0  0
  -19.1549  -28.8833   23.2865 C   0  0  0  0  0  0
  -18.9475  -30.1444   23.8859 C   0  0  0  0  0  0
  -17.6478  -30.6561   24.0552 C   0  0  0  0  0  0
  -25.9078  -34.9427   23.5087 C   0  0  0  0  0  0
  -16.5368  -29.9059   23.6328 C   0  0  0  0  0  0
  -16.7286  -28.6489   23.0335 C   0  0  0  0  0  0
  -26.4503  -31.6570   25.0685 C   0  0  0  0  0  0
  -25.3719  -31.3703   26.1397 C   0  0  0  0  0  0
  -27.0380  -30.2989   24.6181 C   0  0  0  0  0  0
  -27.6036  -32.4338   25.7458 C   0  0  0  0  0  0
  -27.5590  -37.1778   24.8456 C   0  0  0  0  0  0
  -21.4208  -29.3013   22.3673 N   0  0  0  0  0  0
  -26.4291  -37.3751   23.9409 N   0  0  0  0  0  0
  -24.6949  -31.0497   22.0985 N   0  0  0  0  0  0
  -23.4219  -28.8098   23.2980 O   0  0  0  0  0  0
  -28.2958  -26.3416   20.2077 O   0  0  0  0  0  0
  -26.5655  -34.8902   22.4661 O   0  0  0  0  0  0
  -23.5446  -32.1411   23.7262 O   0  0  0  0  0  0
  -29.4893  -18.5274   20.5951 C   0  0  0  0  0  0
  -31.7367  -17.6987   20.2305 C   0  0  0  0  0  0
  -29.9100  -19.9195   20.4314 C   0  0  0  0  0  0
  -30.3809  -17.3718   20.4869 C   0  0  0  0  0  0
  -31.2896  -20.1164   20.1520 C   0  0  0  0  0  0
  -32.1769  -19.0242   20.0632 C   0  0  0  0  0  0
  -28.5936  -23.1607   21.8258 C   0  0  0  0  0  0
  -29.1449  -21.7155   21.9464 C   0  0  0  0  0  0
  -28.8991  -22.2363   19.6667 C   0  0  0  0  0  0
  -28.9624  -23.6490   20.4170 C   0  0  1  0  0  0
  -28.0765  -24.8908   19.8586 C   0  0  0  0  0  0
  -29.0510  -21.0848   20.6262 N   0  0  0  0  0  0
  -31.8179  -21.4030   20.0154 N   0  0  0  0  0  0
  -29.9610  -15.9352   20.6374 N   0  0  0  0  0  0
  -33.4946  -19.2546   19.8311 F   0  0  0  0  0  0
  -31.4624  -12.5513   19.1658 H   0  0  0  0  0  0
  -30.3503  -11.4907   19.9816 H   0  0  0  0  0  0
  -29.7865  -11.7092   17.5330 H   0  0  0  0  0  0
  -29.6226  -13.4409   17.7065 H   0  0  0  0  0  0
  -27.9065  -11.2703   18.9484 H   0  0  0  0  0  0
  -27.3694  -12.4752   17.8083 H   0  0  0  0  0  0
  -27.6193  -14.2485   19.4344 H   0  0  0  0  0  0
  -28.7185  -12.2397   21.4636 H   0  0  0  0  0  0
  -28.4189  -13.9392   21.7531 H   0  0  0  0  0  0
  -25.2757   -9.5686   22.4773 H   0  0  0  0  0  0
  -23.9990   -7.4641   22.7495 H   0  0  0  0  0  0
  -21.0846   -8.8790   19.8951 H   0  0  0  0  0  0
  -22.3715  -10.9688   19.6176 H   0  0  0  0  0  0
  -21.2021   -7.6146   23.9714 H   0  0  0  0  0  0
  -21.1472   -6.0524   25.9072 H   0  0  0  0  0  0
  -22.0600   -2.7614   23.2838 H   0  0  0  0  0  0
  -22.4071  -11.9880   22.4775 H   0  0  0  0  0  0
  -21.1069  -13.1280   22.2615 H   0  0  0  0  0  0
  -24.6529  -15.8472   20.5145 H   0  0  0  0  0  0
  -26.2667  -15.6320   20.0689 H   0  0  0  0  0  0
  -26.7169  -32.5401   23.1033 H   0  0  0  0  0  0
  -25.0025  -33.9694   25.0346 H   0  0  0  0  0  0
  -22.7180  -31.2977   21.4001 H   0  0  0  0  0  0
  -23.3768  -35.9594   23.3269 H   0  0  0  0  0  0
  -24.3593  -36.8942   22.2060 H   0  0  0  0  0  0
  -23.7254  -37.6456   23.6705 H   0  0  0  0  0  0
  -26.1175  -31.5245   20.6188 H   0  0  0  0  0  0
  -26.8504  -30.8075   22.0210 H   0  0  0  0  0  0
  -28.1056  -28.8942   21.2387 H   0  0  0  0  0  0
  -25.9399  -25.9466   18.9263 H   0  0  0  0  0  0
  -23.9765  -27.3370   18.9585 H   0  0  0  0  0  0
  -23.7641  -30.5997   19.4063 H   0  0  0  0  0  0
  -22.7626  -29.2537   19.8500 H   0  0  0  0  0  0
  -25.1307  -36.1881   25.0810 H   0  0  0  0  0  0
  -20.9999  -28.3247   24.1399 H   0  0  0  0  0  0
  -20.5666  -26.2258   23.3602 H   0  0  0  0  0  0
  -21.6627  -26.7376   22.1196 H   0  0  0  0  0  0
  -19.6884  -25.6275   21.1218 H   0  0  0  0  0  0
  -19.6676  -27.3174   20.6740 H   0  0  0  0  0  0
  -17.4181  -26.6647   21.4025 H   0  0  0  0  0  0
  -18.0308  -26.0051   22.9015 H   0  0  0  0  0  0
  -19.7958  -30.7259   24.2203 H   0  0  0  0  0  0
  -17.5025  -31.6241   24.5157 H   0  0  0  0  0  0
  -15.5366  -30.2940   23.7682 H   0  0  0  0  0  0
  -15.8683  -28.0814   22.7038 H   0  0  0  0  0  0
  -24.5912  -30.7059   25.7696 H   0  0  0  0  0  0
  -24.8884  -32.2857   26.4814 H   0  0  0  0  0  0
  -25.8012  -30.8869   27.0180 H   0  0  0  0  0  0
  -26.2973  -29.6696   24.1238 H   0  0  0  0  0  0
  -27.4124  -29.7288   25.4696 H   0  0  0  0  0  0
  -27.8813  -30.4275   23.9385 H   0  0  0  0  0  0
  -27.2646  -33.3672   26.1964 H   0  0  0  0  0  0
  -28.3875  -32.6868   25.0304 H   0  0  0  0  0  0
  -28.0668  -31.8507   26.5435 H   0  0  0  0  0  0
  -28.2562  -38.0127   24.7573 H   0  0  0  0  0  0
  -28.1158  -36.2658   24.6221 H   0  0  0  0  0  0
  -27.2292  -37.1331   25.8854 H   0  0  0  0  0  0
  -20.9375  -29.8799   21.6943 H   0  0  0  0  0  0
  -26.0172  -38.2815   24.1462 H   0  0  0  0  0  0
  -28.4475  -18.3450   20.8162 H   0  0  0  0  0  0
  -32.5095  -16.9531   20.1627 H   0  0  0  0  0  0
  -28.9770  -23.8178   22.6081 H   0  0  0  0  0  0
  -27.5071  -23.1361   21.9302 H   0  0  0  0  0  0
  -28.5888  -21.1499   22.6952 H   0  0  0  0  0  0
  -30.1853  -21.7412   22.2759 H   0  0  0  0  0  0
  -29.6170  -22.1924   18.8453 H   0  0  0  0  0  0
  -27.9192  -22.1324   19.2001 H   0  0  0  0  0  0
  -30.0089  -23.9584   20.4213 H   0  0  0  0  0  0
  -27.0537  -24.6145   20.1141 H   0  0  0  0  0  0
  -28.1252  -24.8517   18.7696 H   0  0  0  0  0  0
  -31.2363  -22.1296   20.4136 H   0  0  0  0  0  0
  -32.8044  -21.5021   20.2254 H   0  0  0  0  0  0
  -28.9834  -15.7934   20.8438 H   0  0  0  0  0  0
  1 25  1  0  0  0
  1 30  2  0  0  0
  1 84  1  0  0  0
  2  3  1  0  0  0
  2 25  1  0  0  0
  2 86  1  0  0  0
  2 87  1  0  0  0
  3  4  1  0  0  0
  3 88  1  0  0  0
  3 89  1  0  0  0
  4  5  1  0  0  0
  4 90  1  0  0  0
  4 91  1  0  0  0
  5  6  1  0  0  0
  5 26  1  0  0  0
  5 92  1  0  0  0
  6 25  1  0  0  0
  6 93  1  0  0  0
  6 94  1  0  0  0
  7  8  2  0  0  0
  7 26  1  0  0  0
  7 29  1  0  0  0
  8  9  1  0  0  0
  8 22  1  0  0  0
  9 10  1  0  0  0
  9 27  2  0  0  0
 10 11  2  0  0  0
 10 15  1  0  0  0
 11 12  1  0  0  0
 11 95  1  0  0  0
 12 13  2  0  0  0
 12 96  1  0  0  0
 13 14  1  0  0  0
 13 31  1  0  0  0
 14 15  2  0  0  0
 14 97  1  0  0  0
 15 98  1  0  0  0
 16 17  2  0  0  0
 16 21  1  0  0  0
 16 31  1  0  0  0
 17 18  1  0  0  0
 17 99  1  0  0  0
 18 19  2  0  0  0
 18100  1  0  0  0
 19 20  1  0  0  0
 19 24  1  0  0  0
 20 21  2  0  0  0
 20101  1  0  0  0
 21 23  1  0  0  0
 22 28  1  0  0  0
 22 32  2  0  0  0
 26 27  1  0  0  0
 28102  1  0  0  0
 28103  1  0  0  0
 29104  1  0  0  0
 29105  1  0  0  0
 33 34  1  0  0  0
 33 66  1  0  0  0
 33 70  2  0  0  0
 34 36  1  0  0  0
 34 59  1  0  0  0
 34106  1  0  0  0
 35 44  2  0  0  0
 35 45  1  0  0  0
 35 68  1  0  0  0
 36 56  1  0  0  0
 36107  1  0  0  0
 37 39  1  0  0  0
 37 47  1  0  0  0
 37 66  1  0  0  0
 37108  1  0  0  0
 38 43  2  0  0  0
 38 46  1  0  0  0
 38 47  1  0  0  0
 39 64  1  0  0  0
 39 67  2  0  0  0
 40 52  1  0  0  0
 40 53  2  0  0  0
 40 58  1  0  0  0
 41109  1  0  0  0
 41110  1  0  0  0
 41111  1  0  0  0
 41 48  1  0  0  0
 42 43  1  0  0  0
 42 66  1  0  0  0
 42112  1  0  0  0
 42113  1  0  0  0
 43 44  1  0  0  0
 44114  1  0  0  0
 45 46  2  0  0  0
 45115  1  0  0  0
 46116  1  0  0  0
 47117  1  0  0  0
 47118  1  0  0  0
 48 56  1  0  0  0
 48 65  1  0  0  0
 48119  1  0  0  0
 49 50  1  0  0  0
 49 53  1  0  0  0
 49 64  1  0  0  0
 49120  1  0  0  0
 50 51  1  0  0  0
 50121  1  0  0  0
 50122  1  0  0  0
 51 52  1  0  0  0
 51123  1  0  0  0
 51124  1  0  0  0
 52125  1  0  0  0
 52126  1  0  0  0
 53 54  1  0  0  0
 54 55  2  0  0  0
 54127  1  0  0  0
 55 57  1  0  0  0
 55128  1  0  0  0
 56 69  2  0  0  0
 57 58  2  0  0  0
 57129  1  0  0  0
 58130  1  0  0  0
 59 60  1  0  0  0
 59 61  1  0  0  0
 59 62  1  0  0  0
 60131  1  0  0  0
 60132  1  0  0  0
 60133  1  0  0  0
 61134  1  0  0  0
 61135  1  0  0  0
 61136  1  0  0  0
 62137  1  0  0  0
 62138  1  0  0  0
 62139  1  0  0  0
 63 65  1  0  0  0
 63140  1  0  0  0
 63141  1  0  0  0
 63142  1  0  0  0
 64143  1  0  0  0
 65144  1  0  0  0
 68 81  1  0  0  0
 71 73  2  0  0  0
 71 74  1  0  0  0
 71145  1  0  0  0
 72 74  2  0  0  0
 72 76  1  0  0  0
 72146  1  0  0  0
 73 75  1  0  0  0
 73 82  1  0  0  0
 74 84  1  0  0  0
 75 76  2  0  0  0
 75 83  1  0  0  0
 76 85  1  0  0  0
 77 78  1  0  0  0
 77 80  1  0  0  0
 77147  1  0  0  0
 77148  1  0  0  0
 78 82  1  0  0  0
 78149  1  0  0  0
 78150  1  0  0  0
 79 80  1  0  0  0
 79 82  1  0  0  0
 79151  1  0  0  0
 79152  1  0  0  0
 80 81  1  0  0  0
 80153  1  0  0  0
 81154  1  0  0  0
 81155  1  0  0  0
 83156  1  0  0  0
 83157  1  0  0  0
 84158  1  0  0  0
M  ISO  4   1 100  68 101  81 101  84 100
M  END
> <chiral flag>
0

> <version>
0

> <s_m_source_file>
/data/baiqing/PycharmProjects/Reinvent-master-3.2/result/LINK_invent/BTK/process_docking_weight1_custom_product_contain_oxygen_bond_distance_aromatic_linkinvent_7_9_3/rearranged_h_0100.sdf

> <i_m_source_file_index>
84

> <r_mmod_Potential_Energy-OPLS-2005>
293.949096679688

> <r_mmod_Stretch_Energy-OPLS-2005>
129.217178344727

> <r_mmod_Bend_Energy-OPLS-2005>
197.304611206055

> <r_mmod_Torsional_Energy-OPLS-2005>
296.195739746094

> <r_mmod_Improper_Torsional_Energy-OPLS-2005>
13.4818334579468

> <r_mmod_Van_der_Waal_Energy-OPLS-2005>
156.04248046875

> <r_mmod_Electrostatic_Energy-OPLS-2005>
-362.713165283203

> <r_mmod_Solvation_Energy-OPLS-2005>
-227.476913452148

> <b_mmod_Minimization_Converged-OPLS-2005>
0

> <r_mmod_RMS_Derivative-OPLS-2005>
2.43413114547729

$$$$
85
                    3D
 Structure written by MMmdl.
157165  0  0  1  0            999 V2000
  -30.6811  -14.5216   20.5708 C   0  0  0  0  0  0
  -30.4176  -12.3357   19.4405 C   0  0  0  0  0  0
  -29.5027  -12.5329   18.2130 C   0  0  0  0  0  0
  -28.0227  -12.3687   18.6107 C   0  0  0  0  0  0
  -27.6514  -13.2086   19.8604 C   0  0  2  0  0  0
  -28.6920  -13.0079   20.9855 C   0  0  0  0  0  0
  -25.2525  -13.8147   20.5593 C   0  0  0  0  0  0
  -24.1781  -13.0434   20.9127 C   0  0  0  0  0  0
  -24.6340  -11.6888   20.8677 C   0  0  0  0  0  0
  -23.8961  -10.4293   21.0309 C   0  0  0  0  0  0
  -24.3517   -9.4246   21.9100 C   0  0  0  0  0  0
  -23.6251   -8.2259   22.0698 C   0  0  0  0  0  0
  -22.4247   -8.0234   21.3505 C   0  0  0  0  0  0
  -21.9841   -9.0157   20.4594 C   0  0  0  0  0  0
  -22.7106  -10.2079   20.2977 C   0  0  0  0  0  0
  -21.6881   -6.0706   22.5274 C   0  0  0  0  0  0
  -21.4027   -6.5625   23.8203 C   0  0  0  0  0  0
  -21.3674   -5.6756   24.9160 C   0  0  0  0  0  0
  -21.6060   -4.3019   24.7227 C   0  0  0  0  0  0
  -21.8818   -3.8126   23.4343 C   0  0  0  0  0  0
  -21.9211   -4.6939   22.3399 C   0  0  0  0  0  0
  -22.7800  -13.5217   21.1819 C   0  0  0  0  0  0
  -22.1662   -4.2122   21.0988 F   0  0  0  0  0  0
  -21.5645   -3.4524   25.7753 F   0  0  0  0  0  0
  -30.0122  -13.3365   20.4429 N   0  0  0  0  0  0
  -26.2938  -12.9322   20.3240 N   0  0  0  0  0  0
  -25.9252  -11.6474   20.5641 N   0  0  0  0  0  0
  -22.0449  -12.8185   22.0403 N   0  0  0  0  0  0
  -25.4355  -15.1838   20.4009 N   0  0  0  0  0  0
  -31.8259  -14.6262   20.1207 O   0  0  0  0  0  0
  -21.6634   -6.8817   21.4217 O   0  0  0  0  0  0
  -22.3502  -14.5539   20.6709 O   0  0  0  0  0  0
  -24.6254  -31.8630   23.1994 C   0  0  0  0  0  0
  -25.9077  -32.4810   23.8334 C   0  0  1  0  0  0
  -27.2536  -27.3869   20.1233 C   0  0  0  0  0  0
  -25.5914  -33.8626   24.2299 N   0  0  0  0  0  0
  -23.4178  -30.4809   21.5420 C   0  0  2  0  0  0
  -24.8681  -28.9358   20.1102 C   0  0  0  0  0  0
  -22.7442  -29.4656   22.4963 C   0  0  0  0  0  0
  -18.0261  -28.1403   22.8424 C   0  0  0  0  0  0
  -24.1466  -36.7301   23.2644 C   0  0  0  0  0  0
  -25.9473  -30.8195   21.3484 C   0  0  0  0  0  0
  -26.0267  -29.4457   20.7087 C   0  0  0  0  0  0
  -27.2238  -28.6823   20.7007 C   0  0  0  0  0  0
  -26.0813  -26.9062   19.5056 C   0  0  0  0  0  0
  -24.8950  -27.6694   19.4946 C   0  0  0  0  0  0
  -23.6264  -29.7977   20.1617 C   0  0  0  0  0  0
  -25.4087  -36.3099   24.0335 C   0  0  1  0  0  0
  -20.5866  -28.3698   23.1300 C   0  0  2  0  0  0
  -20.6745  -26.9427   22.5436 C   0  0  0  0  0  0
  -19.5749  -26.6388   21.5209 C   0  0  0  0  0  0
  -18.1910  -26.7943   22.1574 C   0  0  0  0  0  0
  -19.1513  -28.8851   23.2878 C   0  0  0  0  0  0
  -18.9450  -30.1430   23.8933 C   0  0  0  0  0  0
  -17.6464  -30.6607   24.0551 C   0  0  0  0  0  0
  -25.9024  -34.9471   23.5116 C   0  0  0  0  0  0
  -16.5335  -29.9107   23.6334 C   0  0  0  0  0  0
  -16.7259  -28.6519   23.0343 C   0  0  0  0  0  0
  -26.4495  -31.6585   25.0673 C   0  0  0  0  0  0
  -25.3758  -31.3668   26.1402 C   0  0  0  0  0  0
  -27.0367  -30.3043   24.6058 C   0  0  0  0  0  0
  -27.6091  -32.4282   25.7420 C   0  0  0  0  0  0
  -27.5558  -37.1781   24.8489 C   0  0  0  0  0  0
  -21.4159  -29.3085   22.3711 N   0  0  0  0  0  0
  -26.4247  -37.3796   23.9436 N   0  0  0  0  0  0
  -24.6837  -31.0660   22.0932 N   0  0  0  0  0  0
  -23.4173  -28.8173   23.3028 O   0  0  0  0  0  0
  -28.4043  -26.6074   20.1080 O   0  0  0  0  0  0
  -26.5626  -34.8937   22.4696 O   0  0  0  0  0  0
  -23.5408  -32.1378   23.7364 O   0  0  0  0  0  0
  -28.5972  -17.7653   22.7258 C   0  0  0  0  0  0
  -27.7889  -18.8291   23.1839 C   0  0  0  0  0  0
  -29.4649  -19.2474   21.0052 C   0  0  0  0  0  0
  -29.4355  -17.9562   21.6092 C   0  0  0  0  0  0
  -27.8270  -20.1152   22.5806 C   0  0  0  0  0  0
  -28.7062  -20.3580   21.4878 C   0  0  0  0  0  0
  -30.3957  -16.8729   21.1425 C   0  0  0  0  0  0
  -26.6247  -21.1796   24.3725 C   0  0  0  0  0  0
  -28.6914  -24.0673   20.4228 C   0  0  0  0  0  0
  -28.4704  -25.4959   21.0455 C   0  0  0  0  0  0
  -28.6298  -22.8845   21.4562 C   0  0  0  0  0  0
  -29.9753  -15.5782   21.0657 N   0  0  0  0  0  0
  -31.5278  -17.2528   20.8241 O   0  0  0  0  0  0
  -26.9660  -21.1090   22.9916 O   0  0  0  0  0  0
  -28.8644  -21.5876   20.8237 O   0  0  0  0  0  0
  -31.4681  -12.4241   19.1535 H   0  0  0  0  0  0
  -30.3159  -11.3280   19.8491 H   0  0  0  0  0  0
  -29.7703  -11.8330   17.4215 H   0  0  0  0  0  0
  -29.6503  -13.5338   17.7992 H   0  0  0  0  0  0
  -27.8413  -11.3113   18.8006 H   0  0  0  0  0  0
  -27.3815  -12.6476   17.7716 H   0  0  0  0  0  0
  -27.6866  -14.2494   19.5416 H   0  0  0  0  0  0
  -28.6909  -11.9651   21.2998 H   0  0  0  0  0  0
  -28.4471  -13.5875   21.8737 H   0  0  0  0  0  0
  -25.2639   -9.5817   22.4671 H   0  0  0  0  0  0
  -24.0034   -7.4663   22.7391 H   0  0  0  0  0  0
  -21.0803   -8.8523   19.8875 H   0  0  0  0  0  0
  -22.3437  -10.9536   19.6071 H   0  0  0  0  0  0
  -21.1993   -7.6121   23.9702 H   0  0  0  0  0  0
  -21.1508   -6.0495   25.9062 H   0  0  0  0  0  0
  -22.0607   -2.7586   23.2848 H   0  0  0  0  0  0
  -22.4062  -11.9880   22.4846 H   0  0  0  0  0  0
  -21.1009  -13.1127   22.2478 H   0  0  0  0  0  0
  -24.6749  -15.8499   20.4776 H   0  0  0  0  0  0
  -26.2883  -15.6022   20.0521 H   0  0  0  0  0  0
  -26.7128  -32.5482   23.1086 H   0  0  0  0  0  0
  -25.0081  -33.9756   25.0446 H   0  0  0  0  0  0
  -22.7133  -31.3002   21.3865 H   0  0  0  0  0  0
  -23.3755  -35.9616   23.3344 H   0  0  0  0  0  0
  -24.3561  -36.8900   22.2057 H   0  0  0  0  0  0
  -23.7183  -37.6479   23.6667 H   0  0  0  0  0  0
  -26.0515  -31.5729   20.5648 H   0  0  0  0  0  0
  -26.8388  -30.8909   21.9560 H   0  0  0  0  0  0
  -28.1228  -29.0864   21.1423 H   0  0  0  0  0  0
  -26.0924  -25.9345   19.0372 H   0  0  0  0  0  0
  -24.0106  -27.2748   19.0167 H   0  0  0  0  0  0
  -23.7303  -30.5633   19.3955 H   0  0  0  0  0  0
  -22.7550  -29.2070   19.8707 H   0  0  0  0  0  0
  -25.1264  -36.1956   25.0821 H   0  0  0  0  0  0
  -20.9921  -28.3257   24.1432 H   0  0  0  0  0  0
  -20.5639  -26.2317   23.3641 H   0  0  0  0  0  0
  -21.6624  -26.7485   22.1224 H   0  0  0  0  0  0
  -19.6972  -25.6318   21.1218 H   0  0  0  0  0  0
  -19.6701  -27.3212   20.6762 H   0  0  0  0  0  0
  -17.4196  -26.6672   21.3954 H   0  0  0  0  0  0
  -18.0293  -26.0121   22.9013 H   0  0  0  0  0  0
  -19.7943  -30.7216   24.2326 H   0  0  0  0  0  0
  -17.5034  -31.6298   24.5170 H   0  0  0  0  0  0
  -15.5344  -30.3039   23.7665 H   0  0  0  0  0  0
  -15.8613  -28.0858   22.7074 H   0  0  0  0  0  0
  -24.5967  -30.6989   25.7725 H   0  0  0  0  0  0
  -24.8894  -32.2798   26.4839 H   0  0  0  0  0  0
  -25.8046  -30.8835   27.0188 H   0  0  0  0  0  0
  -26.2918  -29.6721   24.1217 H   0  0  0  0  0  0
  -27.4300  -29.7332   25.4483 H   0  0  0  0  0  0
  -27.8661  -30.4422   23.9109 H   0  0  0  0  0  0
  -27.2791  -33.3616   26.1981 H   0  0  0  0  0  0
  -28.3881  -32.6790   25.0214 H   0  0  0  0  0  0
  -28.0812  -31.8439   26.5310 H   0  0  0  0  0  0
  -28.2608  -38.0053   24.7550 H   0  0  0  0  0  0
  -28.0972  -36.2589   24.6259 H   0  0  0  0  0  0
  -27.2299  -37.1424   25.8893 H   0  0  0  0  0  0
  -20.9329  -29.8798   21.6910 H   0  0  0  0  0  0
  -26.0157  -38.2868   24.1432 H   0  0  0  0  0  0
  -28.5899  -16.8174   23.2474 H   0  0  0  0  0  0
  -27.1292  -18.6349   24.0135 H   0  0  0  0  0  0
  -30.1225  -19.3960   20.1576 H   0  0  0  0  0  0
  -26.0923  -22.1129   24.5623 H   0  0  0  0  0  0
  -27.5247  -21.1975   24.9897 H   0  0  0  0  0  0
  -25.9680  -20.3706   24.7027 H   0  0  0  0  0  0
  -29.6653  -24.0471   19.9246 H   0  0  0  0  0  0
  -27.9428  -23.8848   19.6485 H   0  0  0  0  0  0
  -29.3192  -25.6986   21.7049 H   0  0  0  0  0  0
  -27.6037  -25.4914   21.7046 H   0  0  0  0  0  0
  -27.6460  -22.9678   21.9123 H   0  0  0  0  0  0
  -29.3697  -23.0463   22.2513 H   0  0  0  0  0  0
  -29.0336  -15.3901   21.3689 H   0  0  0  0  0  0
  1 25  1  0  0  0
  1 30  2  0  0  0
  1 82  1  0  0  0
  2  3  1  0  0  0
  2 25  1  0  0  0
  2 86  1  0  0  0
  2 87  1  0  0  0
  3  4  1  0  0  0
  3 88  1  0  0  0
  3 89  1  0  0  0
  4  5  1  0  0  0
  4 90  1  0  0  0
  4 91  1  0  0  0
  5  6  1  0  0  0
  5 26  1  0  0  0
  5 92  1  0  0  0
  6 25  1  0  0  0
  6 93  1  0  0  0
  6 94  1  0  0  0
  7  8  2  0  0  0
  7 26  1  0  0  0
  7 29  1  0  0  0
  8  9  1  0  0  0
  8 22  1  0  0  0
  9 10  1  0  0  0
  9 27  2  0  0  0
 10 11  2  0  0  0
 10 15  1  0  0  0
 11 12  1  0  0  0
 11 95  1  0  0  0
 12 13  2  0  0  0
 12 96  1  0  0  0
 13 14  1  0  0  0
 13 31  1  0  0  0
 14 15  2  0  0  0
 14 97  1  0  0  0
 15 98  1  0  0  0
 16 17  2  0  0  0
 16 21  1  0  0  0
 16 31  1  0  0  0
 17 18  1  0  0  0
 17 99  1  0  0  0
 18 19  2  0  0  0
 18100  1  0  0  0
 19 20  1  0  0  0
 19 24  1  0  0  0
 20 21  2  0  0  0
 20101  1  0  0  0
 21 23  1  0  0  0
 22 28  1  0  0  0
 22 32  2  0  0  0
 26 27  1  0  0  0
 28102  1  0  0  0
 28103  1  0  0  0
 29104  1  0  0  0
 29105  1  0  0  0
 33 34  1  0  0  0
 33 66  1  0  0  0
 33 70  2  0  0  0
 34 36  1  0  0  0
 34 59  1  0  0  0
 34106  1  0  0  0
 35 44  2  0  0  0
 35 45  1  0  0  0
 35 68  1  0  0  0
 36 56  1  0  0  0
 36107  1  0  0  0
 37 39  1  0  0  0
 37 47  1  0  0  0
 37 66  1  0  0  0
 37108  1  0  0  0
 38 43  2  0  0  0
 38 46  1  0  0  0
 38 47  1  0  0  0
 39 64  1  0  0  0
 39 67  2  0  0  0
 40 52  1  0  0  0
 40 53  2  0  0  0
 40 58  1  0  0  0
 41109  1  0  0  0
 41110  1  0  0  0
 41111  1  0  0  0
 41 48  1  0  0  0
 42 43  1  0  0  0
 42 66  1  0  0  0
 42112  1  0  0  0
 42113  1  0  0  0
 43 44  1  0  0  0
 44114  1  0  0  0
 45 46  2  0  0  0
 45115  1  0  0  0
 46116  1  0  0  0
 47117  1  0  0  0
 47118  1  0  0  0
 48 56  1  0  0  0
 48 65  1  0  0  0
 48119  1  0  0  0
 49 50  1  0  0  0
 49 53  1  0  0  0
 49 64  1  0  0  0
 49120  1  0  0  0
 50 51  1  0  0  0
 50121  1  0  0  0
 50122  1  0  0  0
 51 52  1  0  0  0
 51123  1  0  0  0
 51124  1  0  0  0
 52125  1  0  0  0
 52126  1  0  0  0
 53 54  1  0  0  0
 54 55  2  0  0  0
 54127  1  0  0  0
 55 57  1  0  0  0
 55128  1  0  0  0
 56 69  2  0  0  0
 57 58  2  0  0  0
 57129  1  0  0  0
 58130  1  0  0  0
 59 60  1  0  0  0
 59 61  1  0  0  0
 59 62  1  0  0  0
 60131  1  0  0  0
 60132  1  0  0  0
 60133  1  0  0  0
 61134  1  0  0  0
 61135  1  0  0  0
 61136  1  0  0  0
 62137  1  0  0  0
 62138  1  0  0  0
 62139  1  0  0  0
 63 65  1  0  0  0
 63140  1  0  0  0
 63141  1  0  0  0
 63142  1  0  0  0
 64143  1  0  0  0
 65144  1  0  0  0
 68 80  1  0  0  0
 71 72  2  0  0  0
 71 74  1  0  0  0
 71145  1  0  0  0
 72 75  1  0  0  0
 72146  1  0  0  0
 73 74  2  0  0  0
 73 76  1  0  0  0
 73147  1  0  0  0
 74 77  1  0  0  0
 75 76  2  0  0  0
 75 84  1  0  0  0
 76 85  1  0  0  0
 77 82  1  0  0  0
 77 83  2  0  0  0
 78 84  1  0  0  0
 78148  1  0  0  0
 78149  1  0  0  0
 78150  1  0  0  0
 79 80  1  0  0  0
 79 81  1  0  0  0
 79151  1  0  0  0
 79152  1  0  0  0
 80153  1  0  0  0
 80154  1  0  0  0
 81 85  1  0  0  0
 81155  1  0  0  0
 81156  1  0  0  0
 82157  1  0  0  0
M  ISO  4   1 100  68 101  80 101  82 100
M  END
> <chiral flag>
0

> <version>
0

> <s_m_source_file>
/data/baiqing/PycharmProjects/Reinvent-master-3.2/result/LINK_invent/BTK/process_docking_weight1_custom_product_contain_oxygen_bond_distance_aromatic_linkinvent_7_9_3/rearranged_h_0100.sdf

> <i_m_source_file_index>
85

> <r_mmod_Potential_Energy-OPLS-2005>
-61.0235404968262

> <r_mmod_Stretch_Energy-OPLS-2005>
58.0008316040039

> <r_mmod_Bend_Energy-OPLS-2005>
130.420318603516

> <r_mmod_Torsional_Energy-OPLS-2005>
252.742965698242

> <r_mmod_Improper_Torsional_Energy-OPLS-2005>
4.30885028839111

> <r_mmod_Van_der_Waal_Energy-OPLS-2005>
159.467361450195

> <r_mmod_Electrostatic_Energy-OPLS-2005>
-453.601684570312

> <r_mmod_Solvation_Energy-OPLS-2005>
-233.183578491211

> <b_mmod_Minimization_Converged-OPLS-2005>
0

> <r_mmod_RMS_Derivative-OPLS-2005>
7.61469125747681

$$$$
86
                    3D
 Structure written by MMmdl.
171179  0  0  1  0            999 V2000
  -30.6720  -14.4719   20.5305 C   0  0  0  0  0  0
  -30.4306  -12.2920   19.4330 C   0  0  0  0  0  0
  -29.5109  -12.4980   18.2110 C   0  0  0  0  0  0
  -28.0253  -12.3681   18.6097 C   0  0  0  0  0  0
  -27.6665  -13.2003   19.8713 C   0  0  2  0  0  0
  -28.7028  -12.9824   20.9979 C   0  0  0  0  0  0
  -25.2632  -13.8140   20.5631 C   0  0  0  0  0  0
  -24.1876  -13.0425   20.9133 C   0  0  0  0  0  0
  -24.6426  -11.6894   20.8697 C   0  0  0  0  0  0
  -23.9077  -10.4288   21.0378 C   0  0  0  0  0  0
  -24.3626   -9.4210   21.9158 C   0  0  0  0  0  0
  -23.6302   -8.2257   22.0739 C   0  0  0  0  0  0
  -22.4282   -8.0293   21.3537 C   0  0  0  0  0  0
  -21.9918   -9.0267   20.4626 C   0  0  0  0  0  0
  -22.7256  -10.2142   20.3024 C   0  0  0  0  0  0
  -21.6867   -6.0739   22.5273 C   0  0  0  0  0  0
  -21.4022   -6.5635   23.8208 C   0  0  0  0  0  0
  -21.3639   -5.6789   24.9167 C   0  0  0  0  0  0
  -21.6042   -4.3055   24.7227 C   0  0  0  0  0  0
  -21.8833   -3.8152   23.4348 C   0  0  0  0  0  0
  -21.9202   -4.6963   22.3398 C   0  0  0  0  0  0
  -22.7902  -13.5223   21.1817 C   0  0  0  0  0  0
  -22.1676   -4.2140   21.0983 F   0  0  0  0  0  0
  -21.5611   -3.4544   25.7741 F   0  0  0  0  0  0
  -30.0344  -13.2748   20.4510 N   0  0  0  0  0  0
  -26.3061  -12.9291   20.3314 N   0  0  0  0  0  0
  -25.9353  -11.6460   20.5716 N   0  0  0  0  0  0
  -22.0555  -12.8197   22.0365 N   0  0  0  0  0  0
  -25.4373  -15.1863   20.4035 N   0  0  0  0  0  0
  -31.8258  -14.6422   20.1260 O   0  0  0  0  0  0
  -21.6647   -6.8887   21.4232 O   0  0  0  0  0  0
  -22.3580  -14.5525   20.6661 O   0  0  0  0  0  0
  -24.6114  -31.8701   23.2122 C   0  0  0  0  0  0
  -25.9032  -32.4829   23.8403 C   0  0  1  0  0  0
  -27.2337  -27.4591   20.1069 C   0  0  0  0  0  0
  -25.5901  -33.8620   24.2341 N   0  0  0  0  0  0
  -23.3974  -30.4952   21.5497 C   0  0  2  0  0  0
  -24.8476  -28.9613   20.1147 C   0  0  0  0  0  0
  -22.7376  -29.4687   22.4989 C   0  0  0  0  0  0
  -18.0260  -28.1386   22.8492 C   0  0  0  0  0  0
  -24.1478  -36.7277   23.2628 C   0  0  0  0  0  0
  -25.9222  -30.8444   21.3621 C   0  0  0  0  0  0
  -26.0015  -29.4773   20.7189 C   0  0  0  0  0  0
  -27.1987  -28.7291   20.7228 C   0  0  0  0  0  0
  -26.0739  -26.9556   19.4882 C   0  0  0  0  0  0
  -24.8759  -27.6966   19.4988 C   0  0  0  0  0  0
  -23.6071  -29.8257   20.1639 C   0  0  0  0  0  0
  -25.4089  -36.3092   24.0343 C   0  0  1  0  0  0
  -20.5850  -28.3669   23.1323 C   0  0  2  0  0  0
  -20.6757  -26.9409   22.5422 C   0  0  0  0  0  0
  -19.5742  -26.6394   21.5204 C   0  0  0  0  0  0
  -18.1912  -26.7940   22.1602 C   0  0  0  0  0  0
  -19.1505  -28.8839   23.2909 C   0  0  0  0  0  0
  -18.9452  -30.1438   23.8928 C   0  0  0  0  0  0
  -17.6465  -30.6603   24.0560 C   0  0  0  0  0  0
  -25.9032  -34.9473   23.5129 C   0  0  0  0  0  0
  -16.5345  -29.9108   23.6325 C   0  0  0  0  0  0
  -16.7256  -28.6512   23.0364 C   0  0  0  0  0  0
  -26.4467  -31.6585   25.0712 C   0  0  0  0  0  0
  -25.3748  -31.3704   26.1481 C   0  0  0  0  0  0
  -27.0273  -30.3033   24.6040 C   0  0  0  0  0  0
  -27.6053  -32.4284   25.7469 C   0  0  0  0  0  0
  -27.5590  -37.1748   24.8430 C   0  0  0  0  0  0
  -21.4112  -29.3048   22.3733 N   0  0  0  0  0  0
  -26.4248  -37.3804   23.9467 N   0  0  0  0  0  0
  -24.6613  -31.0844   22.1004 N   0  0  0  0  0  0
  -23.4175  -28.8225   23.3012 O   0  0  0  0  0  0
  -28.3735  -26.6960   20.0786 O   0  0  0  0  0  0
  -26.5589  -34.8925   22.4690 O   0  0  0  0  0  0
  -23.5315  -32.1441   23.7538 O   0  0  0  0  0  0
  -30.2816  -18.5036   22.0371 C   0  0  0  0  0  0
  -29.9581  -19.7278   22.6561 C   0  0  0  0  0  0
  -28.3207  -18.7133   20.6220 C   0  0  0  0  0  0
  -29.5011  -18.0136   20.9701 C   0  0  0  0  0  0
  -28.8560  -20.4892   22.2082 C   0  0  0  0  0  0
  -28.0041  -19.9654   21.2109 C   0  0  0  0  0  0
  -29.3314  -17.9065   16.3996 C   0  0  0  0  0  0
  -26.1744  -20.3317   19.6991 C   0  0  0  0  0  0
  -29.9262  -17.9576   17.8113 C   0  0  0  0  0  0
  -29.5091  -24.1470   22.6719 C   0  0  0  0  0  0
  -28.9004  -24.7042   21.3691 C   0  0  0  0  0  0
  -29.4838  -16.7699   18.6848 C   0  0  0  0  0  0
  -29.8141  -22.6378   22.6560 C   0  0  0  0  0  0
  -28.8271  -26.2456   21.3550 C   0  0  0  0  0  0
  -30.0230  -16.8270   20.1422 C   0  0  2  0  0  0
  -28.6228  -21.7922   22.6773 N   0  0  0  0  0  0
  -29.8589  -15.5165   20.7828 N   0  0  0  0  0  0
  -26.9342  -20.7491   20.8268 O   0  0  0  0  0  0
  -31.4781  -12.3904   19.1406 H   0  0  0  0  0  0
  -30.3264  -11.2813   19.8296 H   0  0  0  0  0  0
  -29.7540  -11.7786   17.4273 H   0  0  0  0  0  0
  -29.6924  -13.4832   17.7804 H   0  0  0  0  0  0
  -27.8233  -11.3119   18.7874 H   0  0  0  0  0  0
  -27.3876  -12.6625   17.7743 H   0  0  0  0  0  0
  -27.7062  -14.2465   19.5696 H   0  0  0  0  0  0
  -28.6735  -11.9502   21.3511 H   0  0  0  0  0  0
  -28.4776  -13.5985   21.8699 H   0  0  0  0  0  0
  -25.2791   -9.5705   22.4693 H   0  0  0  0  0  0
  -24.0018   -7.4660   22.7469 H   0  0  0  0  0  0
  -21.0856   -8.8802   19.8943 H   0  0  0  0  0  0
  -22.3727  -10.9670   19.6109 H   0  0  0  0  0  0
  -21.2021   -7.6145   23.9703 H   0  0  0  0  0  0
  -21.1422   -6.0517   25.9062 H   0  0  0  0  0  0
  -22.0621   -2.7619   23.2857 H   0  0  0  0  0  0
  -22.4158  -11.9817   22.4693 H   0  0  0  0  0  0
  -21.1183  -13.1229   22.2579 H   0  0  0  0  0  0
  -24.6710  -15.8430   20.5003 H   0  0  0  0  0  0
  -26.2933  -15.6227   20.0909 H   0  0  0  0  0  0
  -26.7105  -32.5557   23.1170 H   0  0  0  0  0  0
  -25.0106  -33.9792   25.0519 H   0  0  0  0  0  0
  -22.6849  -31.3114   21.4110 H   0  0  0  0  0  0
  -23.3790  -35.9547   23.3203 H   0  0  0  0  0  0
  -24.3605  -36.8980   22.2063 H   0  0  0  0  0  0
  -23.7158  -37.6420   23.6700 H   0  0  0  0  0  0
  -26.0282  -31.6077   20.5902 H   0  0  0  0  0  0
  -26.8130  -30.9031   21.9750 H   0  0  0  0  0  0
  -28.0882  -29.1242   21.1926 H   0  0  0  0  0  0
  -26.0977  -25.9844   19.0143 H   0  0  0  0  0  0
  -23.9892  -27.2926   19.0303 H   0  0  0  0  0  0
  -23.7114  -30.5980   19.4009 H   0  0  0  0  0  0
  -22.7333  -29.2417   19.8726 H   0  0  0  0  0  0
  -25.1243  -36.1915   25.0827 H   0  0  0  0  0  0
  -20.9957  -28.3236   24.1433 H   0  0  0  0  0  0
  -20.5662  -26.2275   23.3604 H   0  0  0  0  0  0
  -21.6627  -26.7468   22.1216 H   0  0  0  0  0  0
  -19.6910  -25.6303   21.1246 H   0  0  0  0  0  0
  -19.6705  -27.3190   20.6722 H   0  0  0  0  0  0
  -17.4206  -26.6727   21.3973 H   0  0  0  0  0  0
  -18.0284  -26.0060   22.8970 H   0  0  0  0  0  0
  -19.7943  -30.7221   24.2328 H   0  0  0  0  0  0
  -17.5042  -31.6293   24.5148 H   0  0  0  0  0  0
  -15.5351  -30.3030   23.7640 H   0  0  0  0  0  0
  -15.8647  -28.0832   22.7095 H   0  0  0  0  0  0
  -24.5875  -30.7099   25.7837 H   0  0  0  0  0  0
  -24.8993  -32.2872   26.4965 H   0  0  0  0  0  0
  -25.8114  -30.8842   27.0212 H   0  0  0  0  0  0
  -26.2784  -29.6814   24.1126 H   0  0  0  0  0  0
  -27.4108  -29.7246   25.4452 H   0  0  0  0  0  0
  -27.8594  -30.4371   23.9122 H   0  0  0  0  0  0
  -27.2695  -33.3601   26.2026 H   0  0  0  0  0  0
  -28.3867  -32.6803   25.0291 H   0  0  0  0  0  0
  -28.0697  -31.8405   26.5393 H   0  0  0  0  0  0
  -28.2475  -38.0180   24.7696 H   0  0  0  0  0  0
  -28.1215  -36.2729   24.5951 H   0  0  0  0  0  0
  -27.2363  -37.1044   25.8835 H   0  0  0  0  0  0
  -20.9264  -29.8763   21.6960 H   0  0  0  0  0  0
  -26.0115  -38.2834   24.1623 H   0  0  0  0  0  0
  -31.1714  -17.9726   22.3449 H   0  0  0  0  0  0
  -30.5976  -20.1026   23.4421 H   0  0  0  0  0  0
  -27.6986  -18.3231   19.8344 H   0  0  0  0  0  0
  -29.6997  -18.7359   15.7945 H   0  0  0  0  0  0
  -28.2434  -17.9747   16.4279 H   0  0  0  0  0  0
  -29.5936  -16.9803   15.8873 H   0  0  0  0  0  0
  -25.3814  -21.0537   19.5044 H   0  0  0  0  0  0
  -25.7009  -19.3644   19.8724 H   0  0  0  0  0  0
  -26.7952  -20.2731   18.8032 H   0  0  0  0  0  0
  -29.6513  -18.9063   18.2733 H   0  0  0  0  0  0
  -31.0150  -17.9606   17.7443 H   0  0  0  0  0  0
  -28.8817  -24.4010   23.5270 H   0  0  0  0  0  0
  -30.4587  -24.6590   22.8395 H   0  0  0  0  0  0
  -27.9019  -24.2910   21.2230 H   0  0  0  0  0  0
  -29.4964  -24.3700   20.5194 H   0  0  0  0  0  0
  -29.8476  -15.8644   18.1981 H   0  0  0  0  0  0
  -28.3983  -16.6686   18.6749 H   0  0  0  0  0  0
  -30.4200  -22.3992   23.5318 H   0  0  0  0  0  0
  -30.4253  -22.4023   21.7813 H   0  0  0  0  0  0
  -29.8135  -26.6737   21.5361 H   0  0  0  0  0  0
  -28.1858  -26.5831   22.1729 H   0  0  0  0  0  0
  -31.0955  -17.0192   20.0543 H   0  0  0  0  0  0
  -27.8077  -22.2041   22.2277 H   0  0  0  0  0  0
  -28.9413  -15.3010   21.1389 H   0  0  0  0  0  0
  1 25  1  0  0  0
  1 30  2  0  0  0
  1 87  1  0  0  0
  2  3  1  0  0  0
  2 25  1  0  0  0
  2 89  1  0  0  0
  2 90  1  0  0  0
  3  4  1  0  0  0
  3 91  1  0  0  0
  3 92  1  0  0  0
  4  5  1  0  0  0
  4 93  1  0  0  0
  4 94  1  0  0  0
  5  6  1  0  0  0
  5 26  1  0  0  0
  5 95  1  0  0  0
  6 25  1  0  0  0
  6 96  1  0  0  0
  6 97  1  0  0  0
  7  8  2  0  0  0
  7 26  1  0  0  0
  7 29  1  0  0  0
  8  9  1  0  0  0
  8 22  1  0  0  0
  9 10  1  0  0  0
  9 27  2  0  0  0
 10 11  2  0  0  0
 10 15  1  0  0  0
 11 12  1  0  0  0
 11 98  1  0  0  0
 12 13  2  0  0  0
 12 99  1  0  0  0
 13 14  1  0  0  0
 13 31  1  0  0  0
 14 15  2  0  0  0
 14100  1  0  0  0
 15101  1  0  0  0
 16 17  2  0  0  0
 16 21  1  0  0  0
 16 31  1  0  0  0
 17 18  1  0  0  0
 17102  1  0  0  0
 18 19  2  0  0  0
 18103  1  0  0  0
 19 20  1  0  0  0
 19 24  1  0  0  0
 20 21  2  0  0  0
 20104  1  0  0  0
 21 23  1  0  0  0
 22 28  1  0  0  0
 22 32  2  0  0  0
 26 27  1  0  0  0
 28105  1  0  0  0
 28106  1  0  0  0
 29107  1  0  0  0
 29108  1  0  0  0
 33 34  1  0  0  0
 33 66  1  0  0  0
 33 70  2  0  0  0
 34 36  1  0  0  0
 34 59  1  0  0  0
 34109  1  0  0  0
 35 44  2  0  0  0
 35 45  1  0  0  0
 35 68  1  0  0  0
 36 56  1  0  0  0
 36110  1  0  0  0
 37 39  1  0  0  0
 37 47  1  0  0  0
 37 66  1  0  0  0
 37111  1  0  0  0
 38 43  2  0  0  0
 38 46  1  0  0  0
 38 47  1  0  0  0
 39 64  1  0  0  0
 39 67  2  0  0  0
 40 52  1  0  0  0
 40 53  2  0  0  0
 40 58  1  0  0  0
 41112  1  0  0  0
 41113  1  0  0  0
 41114  1  0  0  0
 41 48  1  0  0  0
 42 43  1  0  0  0
 42 66  1  0  0  0
 42115  1  0  0  0
 42116  1  0  0  0
 43 44  1  0  0  0
 44117  1  0  0  0
 45 46  2  0  0  0
 45118  1  0  0  0
 46119  1  0  0  0
 47120  1  0  0  0
 47121  1  0  0  0
 48 56  1  0  0  0
 48 65  1  0  0  0
 48122  1  0  0  0
 49 50  1  0  0  0
 49 53  1  0  0  0
 49 64  1  0  0  0
 49123  1  0  0  0
 50 51  1  0  0  0
 50124  1  0  0  0
 50125  1  0  0  0
 51 52  1  0  0  0
 51126  1  0  0  0
 51127  1  0  0  0
 52128  1  0  0  0
 52129  1  0  0  0
 53 54  1  0  0  0
 54 55  2  0  0  0
 54130  1  0  0  0
 55 57  1  0  0  0
 55131  1  0  0  0
 56 69  2  0  0  0
 57 58  2  0  0  0
 57132  1  0  0  0
 58133  1  0  0  0
 59 60  1  0  0  0
 59 61  1  0  0  0
 59 62  1  0  0  0
 60134  1  0  0  0
 60135  1  0  0  0
 60136  1  0  0  0
 61137  1  0  0  0
 61138  1  0  0  0
 61139  1  0  0  0
 62140  1  0  0  0
 62141  1  0  0  0
 62142  1  0  0  0
 63 65  1  0  0  0
 63143  1  0  0  0
 63144  1  0  0  0
 63145  1  0  0  0
 64146  1  0  0  0
 65147  1  0  0  0
 68 84  1  0  0  0
 71 72  2  0  0  0
 71 74  1  0  0  0
 71148  1  0  0  0
 72 75  1  0  0  0
 72149  1  0  0  0
 73 74  2  0  0  0
 73 76  1  0  0  0
 73150  1  0  0  0
 74 85  1  0  0  0
 75 76  2  0  0  0
 75 86  1  0  0  0
 76 88  1  0  0  0
 77 79  1  0  0  0
 77151  1  0  0  0
 77152  1  0  0  0
 77153  1  0  0  0
 78 88  1  0  0  0
 78154  1  0  0  0
 78155  1  0  0  0
 78156  1  0  0  0
 79 82  1  0  0  0
 79157  1  0  0  0
 79158  1  0  0  0
 80 81  1  0  0  0
 80 83  1  0  0  0
 80159  1  0  0  0
 80160  1  0  0  0
 81 84  1  0  0  0
 81161  1  0  0  0
 81162  1  0  0  0
 82163  1  0  0  0
 82164  1  0  0  0
 82 85  1  0  0  0
 83 86  1  0  0  0
 83165  1  0  0  0
 83166  1  0  0  0
 84167  1  0  0  0
 84168  1  0  0  0
 85 87  1  0  0  0
 85169  1  0  0  0
 86170  1  0  0  0
 87171  1  0  0  0
M  ISO  4   1 100  68 101  84 101  87 100
M  END
> <chiral flag>
0

> <version>
0

> <s_m_source_file>
/data/baiqing/PycharmProjects/Reinvent-master-3.2/result/LINK_invent/BTK/process_docking_weight1_custom_product_contain_oxygen_bond_distance_aromatic_linkinvent_7_9_3/rearranged_h_0100.sdf

> <i_m_source_file_index>
86

> <r_mmod_Potential_Energy-OPLS-2005>
-86.3091430664062

> <r_mmod_Stretch_Energy-OPLS-2005>
35.5525283813477

> <r_mmod_Bend_Energy-OPLS-2005>
96.5199432373047

> <r_mmod_Torsional_Energy-OPLS-2005>
256.166839599609

> <r_mmod_Improper_Torsional_Energy-OPLS-2005>
14.7155494689941

> <r_mmod_Van_der_Waal_Energy-OPLS-2005>
156.023208618164

> <r_mmod_Electrostatic_Energy-OPLS-2005>
-444.280944824219

> <r_mmod_Solvation_Energy-OPLS-2005>
-213.657760620117

> <b_mmod_Minimization_Converged-OPLS-2005>
0

> <r_mmod_RMS_Derivative-OPLS-2005>
2.82213926315308

$$$$
87
                    3D
 Structure written by MMmdl.
153161  0  0  1  0            999 V2000
  -30.6912  -14.7059   20.2688 C   0  0  0  0  0  0
  -30.4233  -12.3991   19.4534 C   0  0  0  0  0  0
  -29.4918  -12.4057   18.2224 C   0  0  0  0  0  0
  -28.0181  -12.2616   18.6575 C   0  0  0  0  0  0
  -27.6200  -13.1968   19.8320 C   0  0  2  0  0  0
  -28.6960  -13.2389   20.9379 C   0  0  0  0  0  0
  -25.2489  -13.8077   20.5838 C   0  0  0  0  0  0
  -24.1736  -13.0351   20.9231 C   0  0  0  0  0  0
  -24.6312  -11.6830   20.8802 C   0  0  0  0  0  0
  -23.9001  -10.4237   21.0435 C   0  0  0  0  0  0
  -24.3578   -9.4161   21.9194 C   0  0  0  0  0  0
  -23.6267   -8.2195   22.0751 C   0  0  0  0  0  0
  -22.4250   -8.0243   21.3539 C   0  0  0  0  0  0
  -21.9875   -9.0214   20.4643 C   0  0  0  0  0  0
  -22.7193  -10.2096   20.3064 C   0  0  0  0  0  0
  -21.6834   -6.0714   22.5279 C   0  0  0  0  0  0
  -21.3998   -6.5626   23.8211 C   0  0  0  0  0  0
  -21.3656   -5.6785   24.9175 C   0  0  0  0  0  0
  -21.6045   -4.3049   24.7227 C   0  0  0  0  0  0
  -21.8823   -3.8136   23.4350 C   0  0  0  0  0  0
  -21.9190   -4.6947   22.3404 C   0  0  0  0  0  0
  -22.7778  -13.5185   21.1869 C   0  0  0  0  0  0
  -22.1660   -4.2136   21.0982 F   0  0  0  0  0  0
  -21.5634   -3.4535   25.7742 F   0  0  0  0  0  0
  -30.0053  -13.5135   20.3223 N   0  0  0  0  0  0
  -26.2871  -12.9194   20.3430 N   0  0  0  0  0  0
  -25.9238  -11.6380   20.5880 N   0  0  0  0  0  0
  -22.0405  -12.8199   22.0430 N   0  0  0  0  0  0
  -25.4159  -15.1833   20.4425 N   0  0  0  0  0  0
  -31.9147  -14.6833   20.3879 O   0  0  0  0  0  0
  -21.6613   -6.8846   21.4237 O   0  0  0  0  0  0
  -22.3505  -14.5510   20.6725 O   0  0  0  0  0  0
  -24.6238  -31.8629   23.2052 C   0  0  0  0  0  0
  -25.9103  -32.4793   23.8364 C   0  0  1  0  0  0
  -27.2245  -27.3408   20.1164 C   0  0  0  0  0  0
  -25.5927  -33.8593   24.2295 N   0  0  0  0  0  0
  -23.4163  -30.4887   21.5461 C   0  0  2  0  0  0
  -24.8621  -28.9474   20.1101 C   0  0  0  0  0  0
  -22.7464  -29.4657   22.4937 C   0  0  0  0  0  0
  -18.0287  -28.1391   22.8485 C   0  0  0  0  0  0
  -24.1490  -36.7303   23.2640 C   0  0  0  0  0  0
  -25.9557  -30.7987   21.3766 C   0  0  0  0  0  0
  -26.0278  -29.4284   20.7187 C   0  0  0  0  0  0
  -27.2094  -28.6343   20.7171 C   0  0  0  0  0  0
  -26.0405  -26.9172   19.4666 C   0  0  0  0  0  0
  -24.8691  -27.6962   19.4761 C   0  0  0  0  0  0
  -23.6299  -29.8254   20.1598 C   0  0  0  0  0  0
  -25.4115  -36.3104   24.0339 C   0  0  1  0  0  0
  -20.5884  -28.3705   23.1274 C   0  0  2  0  0  0
  -20.6778  -26.9430   22.5401 C   0  0  0  0  0  0
  -19.5754  -26.6394   21.5207 C   0  0  0  0  0  0
  -18.1935  -26.7933   22.1624 C   0  0  0  0  0  0
  -19.1537  -28.8861   23.2878 C   0  0  0  0  0  0
  -18.9463  -30.1459   23.8902 C   0  0  0  0  0  0
  -17.6464  -30.6593   24.0569 C   0  0  0  0  0  0
  -25.9050  -34.9466   23.5120 C   0  0  0  0  0  0
  -16.5355  -29.9096   23.6327 C   0  0  0  0  0  0
  -16.7274  -28.6511   23.0350 C   0  0  0  0  0  0
  -26.4485  -31.6596   25.0732 C   0  0  0  0  0  0
  -25.3711  -31.3734   26.1455 C   0  0  0  0  0  0
  -27.0331  -30.3017   24.6192 C   0  0  0  0  0  0
  -27.6052  -32.4323   25.7491 C   0  0  0  0  0  0
  -27.5584  -37.1813   24.8468 C   0  0  0  0  0  0
  -21.4181  -29.3064   22.3676 N   0  0  0  0  0  0
  -26.4299  -37.3789   23.9411 N   0  0  0  0  0  0
  -24.6834  -31.0663   22.0991 N   0  0  0  0  0  0
  -23.4195  -28.8201   23.3017 O   0  0  0  0  0  0
  -28.3506  -26.5119   20.1905 O   0  0  0  0  0  0
  -26.5616  -34.8926   22.4683 O   0  0  0  0  0  0
  -23.5408  -32.1415   23.7399 O   0  0  0  0  0  0
  -29.4767  -17.7939   21.2470 C   0  0  0  0  0  0
  -29.2905  -19.1694   21.5947 C   0  0  0  0  0  0
  -30.5327  -18.4896   19.2232 C   0  0  0  0  0  0
  -30.0976  -17.3960   20.0315 C   0  0  0  0  0  0
  -29.6904  -20.2417   20.7484 C   0  0  0  0  0  0
  -30.3364  -19.8576   19.5482 C   0  0  0  0  0  0
  -29.1082  -22.5782   20.4238 C   0  0  0  0  0  0
  -29.0528  -24.0994   20.7770 C   0  0  0  0  0  0
  -28.1970  -25.0711   19.8929 C   0  0  0  0  0  0
  -30.1775  -15.9744   19.4227 C   0  0  1  0  0  0
  -29.5461  -21.6051   21.1691 N   0  0  0  0  0  0
  -29.0517  -15.7828   18.5047 N   0  3  0  0  0  0
  -29.6460  -24.5486   21.7675 O   0  0  0  0  0  0
  -30.7900  -20.8045   18.6905 F   0  0  0  0  0  0
  -31.4655  -12.4871   19.1400 H   0  0  0  0  0  0
  -30.3489  -11.4526   19.9917 H   0  0  0  0  0  0
  -29.7558  -11.5772   17.5637 H   0  0  0  0  0  0
  -29.6342  -13.3059   17.6270 H   0  0  0  0  0  0
  -27.8856  -11.2240   18.9665 H   0  0  0  0  0  0
  -27.3500  -12.4042   17.8073 H   0  0  0  0  0  0
  -27.5287  -14.1814   19.4046 H   0  0  0  0  0  0
  -28.7292  -12.2921   21.4799 H   0  0  0  0  0  0
  -28.4534  -14.0078   21.6734 H   0  0  0  0  0  0
  -25.2725   -9.5637   22.4767 H   0  0  0  0  0  0
  -23.9980   -7.4579   22.7463 H   0  0  0  0  0  0
  -21.0805   -8.8726   19.8951 H   0  0  0  0  0  0
  -22.3651  -10.9636   19.6180 H   0  0  0  0  0  0
  -21.1981   -7.6134   23.9705 H   0  0  0  0  0  0
  -21.1474   -6.0516   25.9074 H   0  0  0  0  0  0
  -22.0607   -2.7598   23.2852 H   0  0  0  0  0  0
  -22.4011  -11.9872   22.4844 H   0  0  0  0  0  0
  -21.1017  -13.1228   22.2607 H   0  0  0  0  0  0
  -24.6374  -15.8111   20.6131 H   0  0  0  0  0  0
  -26.3009  -15.6666   20.4323 H   0  0  0  0  0  0
  -26.7178  -32.5462   23.1118 H   0  0  0  0  0  0
  -25.0077  -33.9726   25.0445 H   0  0  0  0  0  0
  -22.7095  -31.3094   21.4049 H   0  0  0  0  0  0
  -23.3754  -35.9632   23.3310 H   0  0  0  0  0  0
  -24.3586  -36.8906   22.2052 H   0  0  0  0  0  0
  -23.7233  -37.6509   23.6640 H   0  0  0  0  0  0
  -26.0911  -31.5632   20.6103 H   0  0  0  0  0  0
  -26.8350  -30.8413   22.0075 H   0  0  0  0  0  0
  -28.1009  -28.9981   21.2083 H   0  0  0  0  0  0
  -25.9860  -25.9759   18.9417 H   0  0  0  0  0  0
  -23.9782  -27.3270   18.9862 H   0  0  0  0  0  0
  -23.7500  -30.6027   19.4043 H   0  0  0  0  0  0
  -22.7497  -29.2554   19.8566 H   0  0  0  0  0  0
  -25.1290  -36.1968   25.0831 H   0  0  0  0  0  0
  -20.9975  -28.3284   24.1395 H   0  0  0  0  0  0
  -20.5683  -26.2324   23.3609 H   0  0  0  0  0  0
  -21.6649  -26.7467   22.1194 H   0  0  0  0  0  0
  -19.6920  -25.6304   21.1242 H   0  0  0  0  0  0
  -19.6679  -27.3201   20.6732 H   0  0  0  0  0  0
  -17.4201  -26.6674   21.4031 H   0  0  0  0  0  0
  -18.0343  -26.0073   22.9017 H   0  0  0  0  0  0
  -19.7939  -30.7271   24.2277 H   0  0  0  0  0  0
  -17.5023  -31.6272   24.5180 H   0  0  0  0  0  0
  -15.5358  -30.3009   23.7644 H   0  0  0  0  0  0
  -15.8672  -28.0838   22.7062 H   0  0  0  0  0  0
  -24.5888  -30.7082   25.7776 H   0  0  0  0  0  0
  -24.8893  -32.2897   26.4868 H   0  0  0  0  0  0
  -25.8019  -30.8911   27.0237 H   0  0  0  0  0  0
  -26.2908  -29.6771   24.1205 H   0  0  0  0  0  0
  -27.4016  -29.7273   25.4703 H   0  0  0  0  0  0
  -27.8783  -30.4309   23.9430 H   0  0  0  0  0  0
  -27.2675  -33.3623   26.2071 H   0  0  0  0  0  0
  -28.3846  -32.6880   25.0302 H   0  0  0  0  0  0
  -28.0738  -31.8446   26.5397 H   0  0  0  0  0  0
  -28.2617  -38.0099   24.7516 H   0  0  0  0  0  0
  -28.1068  -36.2632   24.6294 H   0  0  0  0  0  0
  -27.2305  -37.1464   25.8874 H   0  0  0  0  0  0
  -20.9365  -29.8791   21.6885 H   0  0  0  0  0  0
  -26.0195  -38.2876   24.1378 H   0  0  0  0  0  0
  -29.1020  -17.0373   21.9229 H   0  0  0  0  0  0
  -28.8134  -19.4013   22.5371 H   0  0  0  0  0  0
  -31.0115  -18.2881   18.2756 H   0  0  0  0  0  0
  -28.7192  -22.3370   19.4304 H   0  0  0  0  0  0
  -27.1713  -24.7499   20.0668 H   0  0  0  0  0  0
  -28.4189  -24.8955   18.8406 H   0  0  0  0  0  0
  -30.9929  -16.0369   18.6991 H   0  0  0  0  0  0
  -28.9799  -16.5871   17.9081 H   0  0  0  0  0  0
  -28.1896  -15.6957   19.0053 H   0  0  0  0  0  0
  -29.2058  -14.9799   17.9208 H   0  0  0  0  0  0
  1 25  1  0  0  0
  1 30  2  0  0  0
  1 80  1  0  0  0
  2  3  1  0  0  0
  2 25  1  0  0  0
  2 85  1  0  0  0
  2 86  1  0  0  0
  3  4  1  0  0  0
  3 87  1  0  0  0
  3 88  1  0  0  0
  4  5  1  0  0  0
  4 89  1  0  0  0
  4 90  1  0  0  0
  5  6  1  0  0  0
  5 26  1  0  0  0
  5 91  1  0  0  0
  6 25  1  0  0  0
  6 92  1  0  0  0
  6 93  1  0  0  0
  7  8  2  0  0  0
  7 26  1  0  0  0
  7 29  1  0  0  0
  8  9  1  0  0  0
  8 22  1  0  0  0
  9 10  1  0  0  0
  9 27  2  0  0  0
 10 11  2  0  0  0
 10 15  1  0  0  0
 11 12  1  0  0  0
 11 94  1  0  0  0
 12 13  2  0  0  0
 12 95  1  0  0  0
 13 14  1  0  0  0
 13 31  1  0  0  0
 14 15  2  0  0  0
 14 96  1  0  0  0
 15 97  1  0  0  0
 16 17  2  0  0  0
 16 21  1  0  0  0
 16 31  1  0  0  0
 17 18  1  0  0  0
 17 98  1  0  0  0
 18 19  2  0  0  0
 18 99  1  0  0  0
 19 20  1  0  0  0
 19 24  1  0  0  0
 20 21  2  0  0  0
 20100  1  0  0  0
 21 23  1  0  0  0
 22 28  1  0  0  0
 22 32  2  0  0  0
 26 27  1  0  0  0
 28101  1  0  0  0
 28102  1  0  0  0
 29103  1  0  0  0
 29104  1  0  0  0
 33 34  1  0  0  0
 33 66  1  0  0  0
 33 70  2  0  0  0
 34 36  1  0  0  0
 34 59  1  0  0  0
 34105  1  0  0  0
 35 44  2  0  0  0
 35 45  1  0  0  0
 35 68  1  0  0  0
 36 56  1  0  0  0
 36106  1  0  0  0
 37 39  1  0  0  0
 37 47  1  0  0  0
 37 66  1  0  0  0
 37107  1  0  0  0
 38 43  2  0  0  0
 38 46  1  0  0  0
 38 47  1  0  0  0
 39 64  1  0  0  0
 39 67  2  0  0  0
 40 52  1  0  0  0
 40 53  2  0  0  0
 40 58  1  0  0  0
 41108  1  0  0  0
 41109  1  0  0  0
 41110  1  0  0  0
 41 48  1  0  0  0
 42 43  1  0  0  0
 42 66  1  0  0  0
 42111  1  0  0  0
 42112  1  0  0  0
 43 44  1  0  0  0
 44113  1  0  0  0
 45 46  2  0  0  0
 45114  1  0  0  0
 46115  1  0  0  0
 47116  1  0  0  0
 47117  1  0  0  0
 48 56  1  0  0  0
 48 65  1  0  0  0
 48118  1  0  0  0
 49 50  1  0  0  0
 49 53  1  0  0  0
 49 64  1  0  0  0
 49119  1  0  0  0
 50 51  1  0  0  0
 50120  1  0  0  0
 50121  1  0  0  0
 51 52  1  0  0  0
 51122  1  0  0  0
 51123  1  0  0  0
 52124  1  0  0  0
 52125  1  0  0  0
 53 54  1  0  0  0
 54 55  2  0  0  0
 54126  1  0  0  0
 55 57  1  0  0  0
 55127  1  0  0  0
 56 69  2  0  0  0
 57 58  2  0  0  0
 57128  1  0  0  0
 58129  1  0  0  0
 59 60  1  0  0  0
 59 61  1  0  0  0
 59 62  1  0  0  0
 60130  1  0  0  0
 60131  1  0  0  0
 60132  1  0  0  0
 61133  1  0  0  0
 61134  1  0  0  0
 61135  1  0  0  0
 62136  1  0  0  0
 62137  1  0  0  0
 62138  1  0  0  0
 63 65  1  0  0  0
 63139  1  0  0  0
 63140  1  0  0  0
 63141  1  0  0  0
 64142  1  0  0  0
 65143  1  0  0  0
 68 79  1  0  0  0
 71 72  2  0  0  0
 71 74  1  0  0  0
 71144  1  0  0  0
 72 75  1  0  0  0
 72145  1  0  0  0
 73 74  2  0  0  0
 73 76  1  0  0  0
 73146  1  0  0  0
 74 80  1  0  0  0
 75 76  2  0  0  0
 75 81  1  0  0  0
 76 84  1  0  0  0
 77 78  1  0  0  0
 77 81  2  0  0  0
 77147  1  0  0  0
 78 79  1  0  0  0
 78 83  2  0  0  0
 79148  1  0  0  0
 79149  1  0  0  0
 80 82  1  0  0  0
 80150  1  0  0  0
 82151  1  0  0  0
 82152  1  0  0  0
 82153  1  0  0  0
M  CHG  1  82   1
M  ISO  4   1 100  68 101  79 101  80 100
M  END
> <chiral flag>
0

> <version>
0

> <s_m_source_file>
/data/baiqing/PycharmProjects/Reinvent-master-3.2/result/LINK_invent/BTK/process_docking_weight1_custom_product_contain_oxygen_bond_distance_aromatic_linkinvent_7_9_3/rearranged_h_0100.sdf

> <i_m_source_file_index>
87

> <r_mmod_Potential_Energy-OPLS-2005>
4.95023536682129

> <r_mmod_Stretch_Energy-OPLS-2005>
81.8722839355469

> <r_mmod_Bend_Energy-OPLS-2005>
185.327880859375

> <r_mmod_Torsional_Energy-OPLS-2005>
248.071014404297

> <r_mmod_Improper_Torsional_Energy-OPLS-2005>
23.0461521148682

> <r_mmod_Van_der_Waal_Energy-OPLS-2005>
148.743011474609

> <r_mmod_Electrostatic_Energy-OPLS-2005>
-218.083862304688

> <r_mmod_Solvation_Energy-OPLS-2005>
-554.149291992188

> <b_mmod_Minimization_Converged-OPLS-2005>
0

> <r_mmod_RMS_Derivative-OPLS-2005>
1.09058403968811

$$$$
88
                    3D
 Structure written by MMmdl.
163172  0  0  1  0            999 V2000
  -30.6707  -14.6091   20.5998 C   0  0  0  0  0  0
  -30.4283  -12.4082   19.4462 C   0  0  0  0  0  0
  -29.5019  -12.5326   18.2188 C   0  0  0  0  0  0
  -28.0270  -12.3509   18.6272 C   0  0  0  0  0  0
  -27.6475  -13.2192   19.8550 C   0  0  2  0  0  0
  -28.6815  -13.0577   20.9851 C   0  0  0  0  0  0
  -25.2535  -13.8200   20.5680 C   0  0  0  0  0  0
  -24.1794  -13.0452   20.9191 C   0  0  0  0  0  0
  -24.6373  -11.6924   20.8732 C   0  0  0  0  0  0
  -23.9050  -10.4298   21.0403 C   0  0  0  0  0  0
  -24.3610   -9.4213   21.9176 C   0  0  0  0  0  0
  -23.6299   -8.2237   22.0739 C   0  0  0  0  0  0
  -22.4275   -8.0279   21.3541 C   0  0  0  0  0  0
  -21.9901   -9.0242   20.4631 C   0  0  0  0  0  0
  -22.7225  -10.2129   20.3043 C   0  0  0  0  0  0
  -21.6850   -6.0735   22.5279 C   0  0  0  0  0  0
  -21.4006   -6.5632   23.8216 C   0  0  0  0  0  0
  -21.3667   -5.6787   24.9177 C   0  0  0  0  0  0
  -21.6051   -4.3051   24.7222 C   0  0  0  0  0  0
  -21.8816   -3.8142   23.4343 C   0  0  0  0  0  0
  -21.9191   -4.6960   22.3406 C   0  0  0  0  0  0
  -22.7824  -13.5241   21.1876 C   0  0  0  0  0  0
  -22.1660   -4.2150   21.0982 F   0  0  0  0  0  0
  -21.5636   -3.4533   25.7734 F   0  0  0  0  0  0
  -30.0076  -13.4125   20.4481 N   0  0  0  0  0  0
  -26.2932  -12.9368   20.3246 N   0  0  0  0  0  0
  -25.9283  -11.6522   20.5705 N   0  0  0  0  0  0
  -22.0470  -12.8223   22.0440 N   0  0  0  0  0  0
  -25.4287  -15.1915   20.4138 N   0  0  0  0  0  0
  -31.7520  -14.8040   20.0347 O   0  0  0  0  0  0
  -21.6649   -6.8871   21.4240 O   0  0  0  0  0  0
  -22.3493  -14.5547   20.6740 O   0  0  0  0  0  0
  -24.6264  -31.8589   23.2029 C   0  0  0  0  0  0
  -25.9114  -32.4758   23.8359 C   0  0  1  0  0  0
  -27.2290  -27.3241   20.1179 C   0  0  0  0  0  0
  -25.5917  -33.8556   24.2299 N   0  0  0  0  0  0
  -23.4195  -30.4860   21.5416 C   0  0  2  0  0  0
  -24.8687  -28.9389   20.1084 C   0  0  0  0  0  0
  -22.7470  -29.4649   22.4896 C   0  0  0  0  0  0
  -18.0291  -28.1365   22.8488 C   0  0  0  0  0  0
  -24.1475  -36.7292   23.2650 C   0  0  0  0  0  0
  -25.9610  -30.7887   21.3783 C   0  0  0  0  0  0
  -26.0349  -29.4175   20.7197 C   0  0  0  0  0  0
  -27.2194  -28.6225   20.7136 C   0  0  0  0  0  0
  -26.0527  -26.9080   19.4597 C   0  0  0  0  0  0
  -24.8809  -27.6909   19.4656 C   0  0  0  0  0  0
  -23.6351  -29.8196   20.1569 C   0  0  0  0  0  0
  -25.4102  -36.3079   24.0351 C   0  0  1  0  0  0
  -20.5890  -28.3709   23.1233 C   0  0  2  0  0  0
  -20.6762  -26.9421   22.5386 C   0  0  0  0  0  0
  -19.5731  -26.6380   21.5194 C   0  0  0  0  0  0
  -18.1925  -26.7907   22.1624 C   0  0  0  0  0  0
  -19.1541  -28.8848   23.2861 C   0  0  0  0  0  0
  -18.9471  -30.1435   23.8897 C   0  0  0  0  0  0
  -17.6471  -30.6567   24.0555 C   0  0  0  0  0  0
  -25.9048  -34.9440   23.5137 C   0  0  0  0  0  0
  -16.5363  -29.9077   23.6299 C   0  0  0  0  0  0
  -16.7279  -28.6480   23.0356 C   0  0  0  0  0  0
  -26.4507  -31.6561   25.0728 C   0  0  0  0  0  0
  -25.3748  -31.3696   26.1467 C   0  0  0  0  0  0
  -27.0378  -30.2982   24.6209 C   0  0  0  0  0  0
  -27.6046  -32.4342   25.7484 C   0  0  0  0  0  0
  -27.5574  -37.1799   24.8464 C   0  0  0  0  0  0
  -21.4182  -29.3073   22.3626 N   0  0  0  0  0  0
  -26.4270  -37.3780   23.9424 N   0  0  0  0  0  0
  -24.6866  -31.0628   22.0957 N   0  0  0  0  0  0
  -23.4204  -28.8179   23.2958 O   0  0  0  0  0  0
  -28.3404  -26.4692   20.1369 O   0  0  0  0  0  0
  -26.5628  -34.8909   22.4710 O   0  0  0  0  0  0
  -23.5434  -32.1377   23.7371 O   0  0  0  0  0  0
  -29.8620  -19.4205   21.7912 C   0  0  0  0  0  0
  -29.9685  -18.0285   22.0743 C   0  0  0  0  0  0
  -29.7354  -17.5121   19.7452 C   0  0  0  0  0  0
  -29.7234  -19.9121   20.4699 C   0  0  0  0  0  0
  -29.9533  -17.0177   21.0637 C   0  0  0  0  0  0
  -29.6203  -18.9125   19.4537 C   0  0  0  0  0  0
  -31.1265  -21.7494   19.7915 C   0  0  0  0  0  0
  -31.3921  -23.2124   19.4100 C   0  0  0  0  0  0
  -30.5189  -24.2353   20.1435 C   0  0  0  0  0  0
  -28.8409  -22.3975   20.5264 C   0  0  0  0  0  0
  -29.0430  -23.8955   19.9747 C   0  0  1  0  0  0
  -30.1798  -15.2543   22.8421 C   0  0  0  0  0  0
  -28.1294  -25.0632   20.5756 C   0  0  0  0  0  0
  -29.8809  -21.3504   20.1732 N   0  0  0  0  0  0
  -29.4064  -19.2985   18.1311 N   0  0  0  0  0  0
  -30.1177  -15.5827   21.4068 N   0  0  0  0  0  0
  -32.0869  -20.9741   19.7101 O   0  0  0  0  0  0
  -31.4694  -12.5329   19.1441 H   0  0  0  0  0  0
  -30.3678  -11.4057   19.8711 H   0  0  0  0  0  0
  -29.7783  -11.7973   17.4613 H   0  0  0  0  0  0
  -29.6369  -13.5133   17.7587 H   0  0  0  0  0  0
  -27.8723  -11.2961   18.8579 H   0  0  0  0  0  0
  -27.3721  -12.5758   17.7845 H   0  0  0  0  0  0
  -27.6714  -14.2580   19.5258 H   0  0  0  0  0  0
  -28.6901  -12.0283   21.3447 H   0  0  0  0  0  0
  -28.3819  -13.6653   21.8367 H   0  0  0  0  0  0
  -25.2749   -9.5705   22.4757 H   0  0  0  0  0  0
  -24.0022   -7.4622   22.7441 H   0  0  0  0  0  0
  -21.0833   -8.8744   19.8934 H   0  0  0  0  0  0
  -22.3669  -10.9664   19.6150 H   0  0  0  0  0  0
  -21.1984   -7.6138   23.9722 H   0  0  0  0  0  0
  -21.1508   -6.0516   25.9090 H   0  0  0  0  0  0
  -22.0592   -2.7602   23.2848 H   0  0  0  0  0  0
  -22.4086  -11.9896   22.4849 H   0  0  0  0  0  0
  -21.1079  -13.1228   22.2633 H   0  0  0  0  0  0
  -24.6738  -15.8591   20.5320 H   0  0  0  0  0  0
  -26.2978  -15.6276   20.1289 H   0  0  0  0  0  0
  -26.7162  -32.5430   23.1083 H   0  0  0  0  0  0
  -25.0013  -33.9662   25.0418 H   0  0  0  0  0  0
  -22.7139  -31.3074   21.3989 H   0  0  0  0  0  0
  -23.3731  -35.9628   23.3307 H   0  0  0  0  0  0
  -24.3552  -36.8918   22.2060 H   0  0  0  0  0  0
  -23.7226  -37.6498   23.6669 H   0  0  0  0  0  0
  -26.1088  -31.5528   20.6142 H   0  0  0  0  0  0
  -26.8328  -30.8244   22.0187 H   0  0  0  0  0  0
  -28.1138  -28.9903   21.1971 H   0  0  0  0  0  0
  -26.0414  -25.9692   18.9257 H   0  0  0  0  0  0
  -23.9964  -27.3354   18.9565 H   0  0  0  0  0  0
  -23.7495  -30.5963   19.3993 H   0  0  0  0  0  0
  -22.7540  -29.2495   19.8576 H   0  0  0  0  0  0
  -25.1277  -36.1925   25.0842 H   0  0  0  0  0  0
  -21.0004  -28.3295   24.1343 H   0  0  0  0  0  0
  -20.5592  -26.2359   23.3622 H   0  0  0  0  0  0
  -21.6632  -26.7389   22.1221 H   0  0  0  0  0  0
  -19.6888  -25.6291   21.1219 H   0  0  0  0  0  0
  -19.6620  -27.3183   20.6714 H   0  0  0  0  0  0
  -17.4183  -26.6645   21.4038 H   0  0  0  0  0  0
  -18.0335  -26.0032   22.9006 H   0  0  0  0  0  0
  -19.7954  -30.7228   24.2287 H   0  0  0  0  0  0
  -17.5036  -31.6243   24.5171 H   0  0  0  0  0  0
  -15.5365  -30.2991   23.7595 H   0  0  0  0  0  0
  -15.8685  -28.0774   22.7107 H   0  0  0  0  0  0
  -24.5854  -30.7134   25.7783 H   0  0  0  0  0  0
  -24.9030  -32.2870   26.4989 H   0  0  0  0  0  0
  -25.8055  -30.8763   27.0188 H   0  0  0  0  0  0
  -26.2973  -29.6697   24.1246 H   0  0  0  0  0  0
  -27.4082  -29.7255   25.4722 H   0  0  0  0  0  0
  -27.8832  -30.4258   23.9446 H   0  0  0  0  0  0
  -27.2604  -33.3609   26.2084 H   0  0  0  0  0  0
  -28.3808  -32.6981   25.0290 H   0  0  0  0  0  0
  -28.0783  -31.8492   26.5374 H   0  0  0  0  0  0
  -28.2603  -38.0088   24.7518 H   0  0  0  0  0  0
  -28.1051  -36.2622   24.6268 H   0  0  0  0  0  0
  -27.2290  -37.1436   25.8865 H   0  0  0  0  0  0
  -20.9372  -29.8824   21.6849 H   0  0  0  0  0  0
  -26.0155  -38.2858   24.1408 H   0  0  0  0  0  0
  -29.9549  -20.1199   22.6091 H   0  0  0  0  0  0
  -30.1015  -17.7655   23.1128 H   0  0  0  0  0  0
  -29.6661  -16.8052   18.9298 H   0  0  0  0  0  0
  -31.2410  -23.3015   18.3341 H   0  0  0  0  0  0
  -32.4415  -23.4400   19.5986 H   0  0  0  0  0  0
  -30.7158  -25.2295   19.7428 H   0  0  0  0  0  0
  -30.7820  -24.2704   21.2016 H   0  0  0  0  0  0
  -27.8615  -22.0286   20.2180 H   0  0  0  0  0  0
  -28.8146  -22.4310   21.6154 H   0  0  0  0  0  0
  -28.8335  -23.8790   18.9023 H   0  0  0  0  0  0
  -29.2861  -15.6059   23.3588 H   0  0  0  0  0  0
  -31.0538  -15.7177   23.3005 H   0  0  0  0  0  0
  -30.2642  -14.1858   23.0522 H   0  0  0  0  0  0
  -28.2718  -25.0676   21.6561 H   0  0  0  0  0  0
  -27.0914  -24.7608   20.4468 H   0  0  0  0  0  0
  -28.9326  -18.6337   17.5274 H   0  0  0  0  0  0
  -29.0729  -20.2435   17.9777 H   0  0  0  0  0  0
  1 25  1  0  0  0
  1 30  2  0  0  0
  1 86  1  0  0  0
  2  3  1  0  0  0
  2 25  1  0  0  0
  2 88  1  0  0  0
  2 89  1  0  0  0
  3  4  1  0  0  0
  3 90  1  0  0  0
  3 91  1  0  0  0
  4  5  1  0  0  0
  4 92  1  0  0  0
  4 93  1  0  0  0
  5  6  1  0  0  0
  5 26  1  0  0  0
  5 94  1  0  0  0
  6 25  1  0  0  0
  6 95  1  0  0  0
  6 96  1  0  0  0
  7  8  2  0  0  0
  7 26  1  0  0  0
  7 29  1  0  0  0
  8  9  1  0  0  0
  8 22  1  0  0  0
  9 10  1  0  0  0
  9 27  2  0  0  0
 10 11  2  0  0  0
 10 15  1  0  0  0
 11 12  1  0  0  0
 11 97  1  0  0  0
 12 13  2  0  0  0
 12 98  1  0  0  0
 13 14  1  0  0  0
 13 31  1  0  0  0
 14 15  2  0  0  0
 14 99  1  0  0  0
 15100  1  0  0  0
 16 17  2  0  0  0
 16 21  1  0  0  0
 16 31  1  0  0  0
 17 18  1  0  0  0
 17101  1  0  0  0
 18 19  2  0  0  0
 18102  1  0  0  0
 19 20  1  0  0  0
 19 24  1  0  0  0
 20 21  2  0  0  0
 20103  1  0  0  0
 21 23  1  0  0  0
 22 28  1  0  0  0
 22 32  2  0  0  0
 26 27  1  0  0  0
 28104  1  0  0  0
 28105  1  0  0  0
 29106  1  0  0  0
 29107  1  0  0  0
 33 34  1  0  0  0
 33 66  1  0  0  0
 33 70  2  0  0  0
 34 36  1  0  0  0
 34 59  1  0  0  0
 34108  1  0  0  0
 35 44  2  0  0  0
 35 45  1  0  0  0
 35 68  1  0  0  0
 36 56  1  0  0  0
 36109  1  0  0  0
 37 39  1  0  0  0
 37 47  1  0  0  0
 37 66  1  0  0  0
 37110  1  0  0  0
 38 43  2  0  0  0
 38 46  1  0  0  0
 38 47  1  0  0  0
 39 64  1  0  0  0
 39 67  2  0  0  0
 40 52  1  0  0  0
 40 53  2  0  0  0
 40 58  1  0  0  0
 41111  1  0  0  0
 41112  1  0  0  0
 41113  1  0  0  0
 41 48  1  0  0  0
 42 43  1  0  0  0
 42 66  1  0  0  0
 42114  1  0  0  0
 42115  1  0  0  0
 43 44  1  0  0  0
 44116  1  0  0  0
 45 46  2  0  0  0
 45117  1  0  0  0
 46118  1  0  0  0
 47119  1  0  0  0
 47120  1  0  0  0
 48 56  1  0  0  0
 48 65  1  0  0  0
 48121  1  0  0  0
 49 50  1  0  0  0
 49 53  1  0  0  0
 49 64  1  0  0  0
 49122  1  0  0  0
 50 51  1  0  0  0
 50123  1  0  0  0
 50124  1  0  0  0
 51 52  1  0  0  0
 51125  1  0  0  0
 51126  1  0  0  0
 52127  1  0  0  0
 52128  1  0  0  0
 53 54  1  0  0  0
 54 55  2  0  0  0
 54129  1  0  0  0
 55 57  1  0  0  0
 55130  1  0  0  0
 56 69  2  0  0  0
 57 58  2  0  0  0
 57131  1  0  0  0
 58132  1  0  0  0
 59 60  1  0  0  0
 59 61  1  0  0  0
 59 62  1  0  0  0
 60133  1  0  0  0
 60134  1  0  0  0
 60135  1  0  0  0
 61136  1  0  0  0
 61137  1  0  0  0
 61138  1  0  0  0
 62139  1  0  0  0
 62140  1  0  0  0
 62141  1  0  0  0
 63 65  1  0  0  0
 63142  1  0  0  0
 63143  1  0  0  0
 63144  1  0  0  0
 64145  1  0  0  0
 65146  1  0  0  0
 68 83  1  0  0  0
 71 72  2  0  0  0
 71 74  1  0  0  0
 71147  1  0  0  0
 72 75  1  0  0  0
 72148  1  0  0  0
 73 75  2  0  0  0
 73 76  1  0  0  0
 73149  1  0  0  0
 74 76  2  0  0  0
 74 84  1  0  0  0
 75 86  1  0  0  0
 76 85  1  0  0  0
 77 78  1  0  0  0
 77 84  1  0  0  0
 77 87  2  0  0  0
 78 79  1  0  0  0
 78150  1  0  0  0
 78151  1  0  0  0
 79 81  1  0  0  0
 79152  1  0  0  0
 79153  1  0  0  0
 80 81  1  0  0  0
 80 84  1  0  0  0
 80154  1  0  0  0
 80155  1  0  0  0
 81 83  1  0  0  0
 81156  1  0  0  0
 82 86  1  0  0  0
 82157  1  0  0  0
 82158  1  0  0  0
 82159  1  0  0  0
 83160  1  0  0  0
 83161  1  0  0  0
 85162  1  0  0  0
 85163  1  0  0  0
M  ISO  4   1 100  68 101  83 101  86 100
M  END
> <chiral flag>
0

> <version>
0

> <s_m_source_file>
/data/baiqing/PycharmProjects/Reinvent-master-3.2/result/LINK_invent/BTK/process_docking_weight1_custom_product_contain_oxygen_bond_distance_aromatic_linkinvent_7_9_3/rearranged_h_0100.sdf

> <i_m_source_file_index>
88

> <r_mmod_Potential_Energy-OPLS-2005>
307.712585449219

> <r_mmod_Stretch_Energy-OPLS-2005>
99.0898208618164

> <r_mmod_Bend_Energy-OPLS-2005>
146.066162109375

> <r_mmod_Torsional_Energy-OPLS-2005>
372.039245605469

> <r_mmod_Improper_Torsional_Energy-OPLS-2005>
8.39142227172852

> <r_mmod_Van_der_Waal_Energy-OPLS-2005>
160.405776977539

> <r_mmod_Electrostatic_Energy-OPLS-2005>
-292.878509521484

> <r_mmod_Solvation_Energy-OPLS-2005>
-227.696426391602

> <b_mmod_Minimization_Converged-OPLS-2005>
0

> <r_mmod_RMS_Derivative-OPLS-2005>
2.94302463531494

$$$$
89
                    3D
 Structure written by MMmdl.
156164  0  0  1  0            999 V2000
  -30.7424  -14.4438   20.6121 C   0  0  0  0  0  0
  -30.4125  -12.3077   19.4154 C   0  0  0  0  0  0
  -29.4861  -12.5068   18.2010 C   0  0  0  0  0  0
  -28.0099  -12.3658   18.6180 C   0  0  0  0  0  0
  -27.6593  -13.2100   19.8728 C   0  0  2  0  0  0
  -28.7007  -12.9991   20.9938 C   0  0  0  0  0  0
  -25.2578  -13.8169   20.5682 C   0  0  0  0  0  0
  -24.1833  -13.0440   20.9171 C   0  0  0  0  0  0
  -24.6392  -11.6908   20.8732 C   0  0  0  0  0  0
  -23.9059  -10.4294   21.0398 C   0  0  0  0  0  0
  -24.3610   -9.4212   21.9180 C   0  0  0  0  0  0
  -23.6287   -8.2244   22.0751 C   0  0  0  0  0  0
  -22.4269   -8.0280   21.3543 C   0  0  0  0  0  0
  -21.9906   -9.0250   20.4642 C   0  0  0  0  0  0
  -22.7230  -10.2131   20.3052 C   0  0  0  0  0  0
  -21.6854   -6.0734   22.5276 C   0  0  0  0  0  0
  -21.4011   -6.5636   23.8208 C   0  0  0  0  0  0
  -21.3660   -5.6789   24.9170 C   0  0  0  0  0  0
  -21.6044   -4.3055   24.7219 C   0  0  0  0  0  0
  -21.8821   -3.8147   23.4342 C   0  0  0  0  0  0
  -21.9190   -4.6964   22.3400 C   0  0  0  0  0  0
  -22.7857  -13.5237   21.1839 C   0  0  0  0  0  0
  -22.1661   -4.2152   21.0980 F   0  0  0  0  0  0
  -21.5630   -3.4540   25.7731 F   0  0  0  0  0  0
  -30.0318  -13.2958   20.4392 N   0  0  0  0  0  0
  -26.3011  -12.9346   20.3359 N   0  0  0  0  0  0
  -25.9319  -11.6502   20.5768 N   0  0  0  0  0  0
  -22.0497  -12.8227   22.0393 N   0  0  0  0  0  0
  -25.4312  -15.1885   20.4092 N   0  0  0  0  0  0
  -31.8373  -14.6272   20.0749 O   0  0  0  0  0  0
  -21.6636   -6.8876   21.4239 O   0  0  0  0  0  0
  -22.3542  -14.5544   20.6688 O   0  0  0  0  0  0
  -24.6152  -31.8678   23.2111 C   0  0  0  0  0  0
  -25.9052  -32.4821   23.8400 C   0  0  1  0  0  0
  -27.2252  -27.4165   20.0925 C   0  0  0  0  0  0
  -25.5908  -33.8617   24.2330 N   0  0  0  0  0  0
  -23.4029  -30.4945   21.5525 C   0  0  2  0  0  0
  -24.8457  -28.9645   20.1118 C   0  0  0  0  0  0
  -22.7418  -29.4658   22.4990 C   0  0  0  0  0  0
  -18.0278  -28.1381   22.8492 C   0  0  0  0  0  0
  -24.1490  -36.7306   23.2638 C   0  0  0  0  0  0
  -25.9350  -30.8273   21.3688 C   0  0  0  0  0  0
  -26.0080  -29.4622   20.7136 C   0  0  0  0  0  0
  -27.1971  -28.6945   20.7044 C   0  0  0  0  0  0
  -26.0436  -26.9516   19.4649 C   0  0  0  0  0  0
  -24.8604  -27.7094   19.4848 C   0  0  0  0  0  0
  -23.6095  -29.8329   20.1653 C   0  0  0  0  0  0
  -25.4111  -36.3110   24.0340 C   0  0  1  0  0  0
  -20.5867  -28.3662   23.1323 C   0  0  2  0  0  0
  -20.6766  -26.9401   22.5416 C   0  0  0  0  0  0
  -19.5744  -26.6388   21.5218 C   0  0  0  0  0  0
  -18.1918  -26.7928   22.1624 C   0  0  0  0  0  0
  -19.1527  -28.8839   23.2901 C   0  0  0  0  0  0
  -18.9460  -30.1444   23.8911 C   0  0  0  0  0  0
  -17.6463  -30.6583   24.0565 C   0  0  0  0  0  0
  -25.9043  -34.9471   23.5129 C   0  0  0  0  0  0
  -16.5351  -29.9086   23.6334 C   0  0  0  0  0  0
  -16.7267  -28.6506   23.0349 C   0  0  0  0  0  0
  -26.4478  -31.6599   25.0728 C   0  0  0  0  0  0
  -25.3746  -31.3700   26.1479 C   0  0  0  0  0  0
  -27.0314  -30.3041   24.6104 C   0  0  0  0  0  0
  -27.6056  -32.4311   25.7493 C   0  0  0  0  0  0
  -27.5581  -37.1801   24.8465 C   0  0  0  0  0  0
  -21.4146  -29.3027   22.3722 N   0  0  0  0  0  0
  -26.4291  -37.3797   23.9419 N   0  0  0  0  0  0
  -24.6699  -31.0778   22.1019 N   0  0  0  0  0  0
  -23.4195  -28.8191   23.3018 O   0  0  0  0  0  0
  -28.3913  -26.6691   20.1325 O   0  0  0  0  0  0
  -26.5603  -34.8926   22.4692 O   0  0  0  0  0  0
  -23.5342  -32.1438   23.7499 O   0  0  0  0  0  0
  -29.8843  -19.9417   20.3572 C   0  0  0  0  0  0
  -30.3036  -17.9695   21.7439 C   0  0  0  0  0  0
  -30.2502  -18.5833   20.4717 C   0  0  0  0  0  0
  -29.9378  -18.7749   22.8512 C   0  0  0  0  0  0
  -29.5943  -20.6660   21.5273 C   0  0  0  0  0  0
  -29.2050  -24.3925   20.7152 C   0  0  0  0  0  0
  -29.9259  -18.2393   24.2721 C   0  0  0  0  0  0
  -30.9081  -16.5602   21.9241 C   0  0  0  0  0  0
  -29.3348  -22.8948   20.3677 C   0  0  0  0  0  0
  -28.3107  -25.2611   19.8091 C   0  0  0  0  0  0
  -29.6011  -20.0818   22.7373 N   0  0  0  0  0  0
  -29.3028  -22.0363   21.5552 N   0  0  0  0  0  0
  -30.1815  -15.3951   21.3852 N   0  0  0  0  0  0
  -29.7685  -24.8563   21.7141 O   0  0  0  0  0  0
  -30.5902  -17.8863   19.3615 F   0  0  0  0  0  0
  -31.4569  -12.3935   19.1112 H   0  0  0  0  0  0
  -30.3056  -11.2981   19.8152 H   0  0  0  0  0  0
  -29.7240  -11.7804   17.4227 H   0  0  0  0  0  0
  -29.6534  -13.4922   17.7629 H   0  0  0  0  0  0
  -27.8240  -11.3098   18.8183 H   0  0  0  0  0  0
  -27.3560  -12.6348   17.7878 H   0  0  0  0  0  0
  -27.7025  -14.2575   19.5724 H   0  0  0  0  0  0
  -28.6751  -11.9653   21.3416 H   0  0  0  0  0  0
  -28.4568  -13.6053   21.8662 H   0  0  0  0  0  0
  -25.2757   -9.5685   22.4756 H   0  0  0  0  0  0
  -23.9996   -7.4635   22.7475 H   0  0  0  0  0  0
  -21.0841   -8.8768   19.8948 H   0  0  0  0  0  0
  -22.3693  -10.9668   19.6159 H   0  0  0  0  0  0
  -21.2004   -7.6143   23.9712 H   0  0  0  0  0  0
  -21.1481   -6.0520   25.9072 H   0  0  0  0  0  0
  -22.0601   -2.7609   23.2839 H   0  0  0  0  0  0
  -22.4109  -11.9879   22.4768 H   0  0  0  0  0  0
  -21.1117  -13.1256   22.2602 H   0  0  0  0  0  0
  -24.6690  -15.8485   20.5175 H   0  0  0  0  0  0
  -26.2912  -15.6244   20.1000 H   0  0  0  0  0  0
  -26.7114  -32.5536   23.1154 H   0  0  0  0  0  0
  -25.0064  -33.9778   25.0477 H   0  0  0  0  0  0
  -22.6920  -31.3122   21.4162 H   0  0  0  0  0  0
  -23.3750  -35.9640   23.3311 H   0  0  0  0  0  0
  -24.3578  -36.8920   22.2050 H   0  0  0  0  0  0
  -23.7239  -37.6512   23.6644 H   0  0  0  0  0  0
  -26.0526  -31.5937   20.6020 H   0  0  0  0  0  0
  -26.8216  -30.8770   21.9890 H   0  0  0  0  0  0
  -28.0914  -29.0718   21.1804 H   0  0  0  0  0  0
  -26.0027  -26.0084   18.9412 H   0  0  0  0  0  0
  -23.9703  -27.3254   19.0048 H   0  0  0  0  0  0
  -23.7161  -30.6109   19.4083 H   0  0  0  0  0  0
  -22.7325  -29.2552   19.8670 H   0  0  0  0  0  0
  -25.1278  -36.1971   25.0829 H   0  0  0  0  0  0
  -20.9960  -28.3225   24.1446 H   0  0  0  0  0  0
  -20.5690  -26.2268   23.3601 H   0  0  0  0  0  0
  -21.6630  -26.7451   22.1191 H   0  0  0  0  0  0
  -19.6912  -25.6311   21.1221 H   0  0  0  0  0  0
  -19.6683  -27.3219   20.6761 H   0  0  0  0  0  0
  -17.4191  -26.6688   21.4023 H   0  0  0  0  0  0
  -18.0307  -26.0067   22.9020 H   0  0  0  0  0  0
  -19.7937  -30.7246   24.2285 H   0  0  0  0  0  0
  -17.5023  -31.6271   24.5155 H   0  0  0  0  0  0
  -15.5351  -30.2990   23.7660 H   0  0  0  0  0  0
  -15.8668  -28.0827   22.7059 H   0  0  0  0  0  0
  -24.5918  -30.7046   25.7818 H   0  0  0  0  0  0
  -24.8931  -32.2850   26.4933 H   0  0  0  0  0  0
  -25.8098  -30.8863   27.0232 H   0  0  0  0  0  0
  -26.2852  -29.6801   24.1163 H   0  0  0  0  0  0
  -27.4104  -29.7276   25.4557 H   0  0  0  0  0  0
  -27.8687  -30.4374   23.9246 H   0  0  0  0  0  0
  -27.2679  -33.3607   26.2078 H   0  0  0  0  0  0
  -28.3860  -32.6870   25.0316 H   0  0  0  0  0  0
  -28.0722  -31.8424   26.5403 H   0  0  0  0  0  0
  -28.2585  -38.0110   24.7523 H   0  0  0  0  0  0
  -28.1087  -36.2640   24.6267 H   0  0  0  0  0  0
  -27.2298  -37.1425   25.8867 H   0  0  0  0  0  0
  -20.9301  -29.8751   21.6952 H   0  0  0  0  0  0
  -26.0184  -38.2875   24.1427 H   0  0  0  0  0  0
  -29.8714  -20.4038   19.3812 H   0  0  0  0  0  0
  -29.3369  -17.3241   24.3299 H   0  0  0  0  0  0
  -29.4877  -18.9543   24.9692 H   0  0  0  0  0  0
  -30.9390  -18.0262   24.6122 H   0  0  0  0  0  0
  -31.0807  -16.3477   22.9775 H   0  0  0  0  0  0
  -31.9135  -16.6177   21.5036 H   0  0  0  0  0  0
  -30.2735  -22.7478   19.8322 H   0  0  0  0  0  0
  -28.5274  -22.6111   19.6921 H   0  0  0  0  0  0
  -27.3110  -24.8615   19.9649 H   0  0  0  0  0  0
  -28.5746  -25.1035   18.7627 H   0  0  0  0  0  0
  -29.2792  -22.5134   22.4508 H   0  0  0  0  0  0
  -29.2728  -15.1867   21.7705 H   0  0  0  0  0  0
  1 25  1  0  0  0
  1 30  2  0  0  0
  1 83  1  0  0  0
  2  3  1  0  0  0
  2 25  1  0  0  0
  2 86  1  0  0  0
  2 87  1  0  0  0
  3  4  1  0  0  0
  3 88  1  0  0  0
  3 89  1  0  0  0
  4  5  1  0  0  0
  4 90  1  0  0  0
  4 91  1  0  0  0
  5  6  1  0  0  0
  5 26  1  0  0  0
  5 92  1  0  0  0
  6 25  1  0  0  0
  6 93  1  0  0  0
  6 94  1  0  0  0
  7  8  2  0  0  0
  7 26  1  0  0  0
  7 29  1  0  0  0
  8  9  1  0  0  0
  8 22  1  0  0  0
  9 10  1  0  0  0
  9 27  2  0  0  0
 10 11  2  0  0  0
 10 15  1  0  0  0
 11 12  1  0  0  0
 11 95  1  0  0  0
 12 13  2  0  0  0
 12 96  1  0  0  0
 13 14  1  0  0  0
 13 31  1  0  0  0
 14 15  2  0  0  0
 14 97  1  0  0  0
 15 98  1  0  0  0
 16 17  2  0  0  0
 16 21  1  0  0  0
 16 31  1  0  0  0
 17 18  1  0  0  0
 17 99  1  0  0  0
 18 19  2  0  0  0
 18100  1  0  0  0
 19 20  1  0  0  0
 19 24  1  0  0  0
 20 21  2  0  0  0
 20101  1  0  0  0
 21 23  1  0  0  0
 22 28  1  0  0  0
 22 32  2  0  0  0
 26 27  1  0  0  0
 28102  1  0  0  0
 28103  1  0  0  0
 29104  1  0  0  0
 29105  1  0  0  0
 33 34  1  0  0  0
 33 66  1  0  0  0
 33 70  2  0  0  0
 34 36  1  0  0  0
 34 59  1  0  0  0
 34106  1  0  0  0
 35 44  2  0  0  0
 35 45  1  0  0  0
 35 68  1  0  0  0
 36 56  1  0  0  0
 36107  1  0  0  0
 37 39  1  0  0  0
 37 47  1  0  0  0
 37 66  1  0  0  0
 37108  1  0  0  0
 38 43  2  0  0  0
 38 46  1  0  0  0
 38 47  1  0  0  0
 39 64  1  0  0  0
 39 67  2  0  0  0
 40 52  1  0  0  0
 40 53  2  0  0  0
 40 58  1  0  0  0
 41109  1  0  0  0
 41110  1  0  0  0
 41111  1  0  0  0
 41 48  1  0  0  0
 42 43  1  0  0  0
 42 66  1  0  0  0
 42112  1  0  0  0
 42113  1  0  0  0
 43 44  1  0  0  0
 44114  1  0  0  0
 45 46  2  0  0  0
 45115  1  0  0  0
 46116  1  0  0  0
 47117  1  0  0  0
 47118  1  0  0  0
 48 56  1  0  0  0
 48 65  1  0  0  0
 48119  1  0  0  0
 49 50  1  0  0  0
 49 53  1  0  0  0
 49 64  1  0  0  0
 49120  1  0  0  0
 50 51  1  0  0  0
 50121  1  0  0  0
 50122  1  0  0  0
 51 52  1  0  0  0
 51123  1  0  0  0
 51124  1  0  0  0
 52125  1  0  0  0
 52126  1  0  0  0
 53 54  1  0  0  0
 54 55  2  0  0  0
 54127  1  0  0  0
 55 57  1  0  0  0
 55128  1  0  0  0
 56 69  2  0  0  0
 57 58  2  0  0  0
 57129  1  0  0  0
 58130  1  0  0  0
 59 60  1  0  0  0
 59 61  1  0  0  0
 59 62  1  0  0  0
 60131  1  0  0  0
 60132  1  0  0  0
 60133  1  0  0  0
 61134  1  0  0  0
 61135  1  0  0  0
 61136  1  0  0  0
 62137  1  0  0  0
 62138  1  0  0  0
 62139  1  0  0  0
 63 65  1  0  0  0
 63140  1  0  0  0
 63141  1  0  0  0
 63142  1  0  0  0
 64143  1  0  0  0
 65144  1  0  0  0
 68 80  1  0  0  0
 71 73  2  0  0  0
 71 75  1  0  0  0
 71145  1  0  0  0
 72 73  1  0  0  0
 72 74  2  0  0  0
 72 78  1  0  0  0
 73 85  1  0  0  0
 74 77  1  0  0  0
 74 81  1  0  0  0
 75 81  2  0  0  0
 75 82  1  0  0  0
 76 79  1  0  0  0
 76 80  1  0  0  0
 76 84  2  0  0  0
 77146  1  0  0  0
 77147  1  0  0  0
 77148  1  0  0  0
 78 83  1  0  0  0
 78149  1  0  0  0
 78150  1  0  0  0
 79 82  1  0  0  0
 79151  1  0  0  0
 79152  1  0  0  0
 80153  1  0  0  0
 80154  1  0  0  0
 82155  1  0  0  0
 83156  1  0  0  0
M  ISO  4   1 100  68 101  80 101  83 100
M  END
> <chiral flag>
0

> <version>
0

> <s_m_source_file>
/data/baiqing/PycharmProjects/Reinvent-master-3.2/result/LINK_invent/BTK/process_docking_weight1_custom_product_contain_oxygen_bond_distance_aromatic_linkinvent_7_9_3/rearranged_h_0100.sdf

> <i_m_source_file_index>
89

> <r_mmod_Potential_Energy-OPLS-2005>
-312.034515380859

> <r_mmod_Stretch_Energy-OPLS-2005>
38.8387031555176

> <r_mmod_Bend_Energy-OPLS-2005>
115.557403564453

> <r_mmod_Torsional_Energy-OPLS-2005>
192.673034667969

> <r_mmod_Improper_Torsional_Energy-OPLS-2005>
3.57240176200867

> <r_mmod_Van_der_Waal_Energy-OPLS-2005>
162.263442993164

> <r_mmod_Electrostatic_Energy-OPLS-2005>
-584.590393066406

> <r_mmod_Solvation_Energy-OPLS-2005>
-253.64225769043

> <b_mmod_Minimization_Converged-OPLS-2005>
0

> <r_mmod_RMS_Derivative-OPLS-2005>
1.18098258972168

$$$$
90
                    3D
 Structure written by MMmdl.
165174  0  0  1  0            999 V2000
  -30.6562  -14.5444   20.5297 C   0  0  0  0  0  0
  -30.4313  -12.3415   19.4255 C   0  0  0  0  0  0
  -29.4972  -12.4982   18.2069 C   0  0  0  0  0  0
  -28.0193  -12.3473   18.6230 C   0  0  0  0  0  0
  -27.6545  -13.2051   19.8641 C   0  0  2  0  0  0
  -28.7004  -13.0250   20.9870 C   0  0  0  0  0  0
  -25.2570  -13.8145   20.5667 C   0  0  0  0  0  0
  -24.1828  -13.0429   20.9185 C   0  0  0  0  0  0
  -24.6381  -11.6894   20.8739 C   0  0  0  0  0  0
  -23.9048  -10.4284   21.0410 C   0  0  0  0  0  0
  -24.3606   -9.4201   21.9187 C   0  0  0  0  0  0
  -23.6285   -8.2237   22.0757 C   0  0  0  0  0  0
  -22.4268   -8.0274   21.3547 C   0  0  0  0  0  0
  -21.9898   -9.0245   20.4648 C   0  0  0  0  0  0
  -22.7223  -10.2128   20.3057 C   0  0  0  0  0  0
  -21.6849   -6.0730   22.5277 C   0  0  0  0  0  0
  -21.4011   -6.5636   23.8209 C   0  0  0  0  0  0
  -21.3659   -5.6792   24.9173 C   0  0  0  0  0  0
  -21.6045   -4.3054   24.7225 C   0  0  0  0  0  0
  -21.8820   -3.8143   23.4347 C   0  0  0  0  0  0
  -21.9192   -4.6958   22.3400 C   0  0  0  0  0  0
  -22.7852  -13.5235   21.1847 C   0  0  0  0  0  0
  -22.1660   -4.2144   21.0977 F   0  0  0  0  0  0
  -21.5631   -3.4537   25.7739 F   0  0  0  0  0  0
  -30.0196  -13.3445   20.4195 N   0  0  0  0  0  0
  -26.2990  -12.9306   20.3324 N   0  0  0  0  0  0
  -25.9305  -11.6472   20.5760 N   0  0  0  0  0  0
  -22.0492  -12.8229   22.0403 N   0  0  0  0  0  0
  -25.4275  -15.1864   20.4051 N   0  0  0  0  0  0
  -31.8291  -14.7077   20.1798 O   0  0  0  0  0  0
  -21.6637   -6.8873   21.4240 O   0  0  0  0  0  0
  -22.3543  -14.5547   20.6701 O   0  0  0  0  0  0
  -24.6182  -31.8650   23.2072 C   0  0  0  0  0  0
  -25.9062  -32.4807   23.8384 C   0  0  1  0  0  0
  -27.2350  -27.3975   20.1151 C   0  0  0  0  0  0
  -25.5925  -33.8610   24.2322 N   0  0  0  0  0  0
  -23.4086  -30.4862   21.5481 C   0  0  2  0  0  0
  -24.8564  -28.9398   20.1230 C   0  0  0  0  0  0
  -22.7427  -29.4642   22.4981 C   0  0  0  0  0  0
  -18.0276  -28.1379   22.8488 C   0  0  0  0  0  0
  -24.1484  -36.7300   23.2635 C   0  0  0  0  0  0
  -25.9395  -30.8202   21.3643 C   0  0  0  0  0  0
  -26.0173  -29.4469   20.7212 C   0  0  0  0  0  0
  -27.2118  -28.6836   20.7115 C   0  0  0  0  0  0
  -26.0602  -26.9123   19.5084 C   0  0  0  0  0  0
  -24.8734  -27.6720   19.5142 C   0  0  0  0  0  0
  -23.6204  -29.8120   20.1656 C   0  0  0  0  0  0
  -25.4110  -36.3100   24.0329 C   0  0  1  0  0  0
  -20.5866  -28.3666   23.1312 C   0  0  2  0  0  0
  -20.6765  -26.9401   22.5414 C   0  0  0  0  0  0
  -19.5743  -26.6384   21.5214 C   0  0  0  0  0  0
  -18.1919  -26.7928   22.1623 C   0  0  0  0  0  0
  -19.1524  -28.8840   23.2897 C   0  0  0  0  0  0
  -18.9450  -30.1445   23.8907 C   0  0  0  0  0  0
  -17.6453  -30.6584   24.0567 C   0  0  0  0  0  0
  -25.9041  -34.9465   23.5117 C   0  0  0  0  0  0
  -16.5345  -29.9080   23.6330 C   0  0  0  0  0  0
  -16.7265  -28.6498   23.0345 C   0  0  0  0  0  0
  -26.4488  -31.6590   25.0715 C   0  0  0  0  0  0
  -25.3751  -31.3686   26.1458 C   0  0  0  0  0  0
  -27.0321  -30.3033   24.6093 C   0  0  0  0  0  0
  -27.6068  -32.4308   25.7469 C   0  0  0  0  0  0
  -27.5574  -37.1805   24.8469 C   0  0  0  0  0  0
  -21.4150  -29.3036   22.3723 N   0  0  0  0  0  0
  -26.4290  -37.3790   23.9409 N   0  0  0  0  0  0
  -24.6741  -31.0719   22.0989 N   0  0  0  0  0  0
  -23.4184  -28.8188   23.3038 O   0  0  0  0  0  0
  -28.4003  -26.6589   20.0337 O   0  0  0  0  0  0
  -26.5587  -34.8914   22.4671 O   0  0  0  0  0  0
  -23.5366  -32.1416   23.7450 O   0  0  0  0  0  0
  -30.7714  -19.6789   21.6528 C   0  0  0  0  0  0
  -31.0304  -17.2926   22.1300 C   0  0  0  0  0  0
  -29.6320  -18.0261   20.2710 C   0  0  0  0  0  0
  -31.3116  -18.6428   22.4477 C   0  0  0  0  0  0
  -29.9371  -19.3903   20.5536 C   0  0  0  0  0  0
  -30.1908  -16.9667   21.0434 C   0  0  0  0  0  0
  -27.2180  -21.2548   20.2181 C   0  0  0  0  0  0
  -32.2222  -18.9845   23.5904 C   0  0  0  0  0  0
  -26.1842  -22.3768   20.3966 C   0  0  0  0  0  0
  -26.7397  -23.6750   20.9973 C   0  0  0  0  0  0
  -29.0615  -22.9268   20.4560 C   0  0  0  0  0  0
  -28.0388  -24.1085   20.3073 C   0  0  2  0  0  0
  -29.4898  -20.5420   19.6259 C   0  0  0  0  0  0
  -28.5394  -25.4879   20.8718 C   0  0  0  0  0  0
  -28.5370  -21.5613   20.1500 N   0  0  0  0  0  0
  -32.1070  -18.2351   24.6780 N   0  0  0  0  0  0
  -29.8423  -15.5954   20.7991 N   0  0  0  0  0  0
  -26.7940  -20.1061   20.0622 O   0  0  0  0  0  0
  -32.9913  -19.9435   23.5394 O   0  0  0  0  0  0
  -31.4731  -12.4612   19.1229 H   0  0  0  0  0  0
  -30.3534  -11.3381   19.8467 H   0  0  0  0  0  0
  -29.7471  -11.7606   17.4433 H   0  0  0  0  0  0
  -29.6506  -13.4760   17.7475 H   0  0  0  0  0  0
  -27.8444  -11.2927   18.8393 H   0  0  0  0  0  0
  -27.3651  -12.5973   17.7869 H   0  0  0  0  0  0
  -27.6830  -14.2446   19.5389 H   0  0  0  0  0  0
  -28.6943  -11.9981   21.3558 H   0  0  0  0  0  0
  -28.4640  -13.6512   21.8493 H   0  0  0  0  0  0
  -25.2751   -9.5678   22.4759 H   0  0  0  0  0  0
  -23.9991   -7.4630   22.7475 H   0  0  0  0  0  0
  -21.0829   -8.8763   19.8954 H   0  0  0  0  0  0
  -22.3681  -10.9667   19.6165 H   0  0  0  0  0  0
  -21.2004   -7.6143   23.9712 H   0  0  0  0  0  0
  -21.1481   -6.0521   25.9077 H   0  0  0  0  0  0
  -22.0601   -2.7603   23.2847 H   0  0  0  0  0  0
  -22.4100  -11.9879   22.4778 H   0  0  0  0  0  0
  -21.1117  -13.1265   22.2623 H   0  0  0  0  0  0
  -24.6565  -15.8371   20.5097 H   0  0  0  0  0  0
  -26.2676  -15.6278   20.0542 H   0  0  0  0  0  0
  -26.7132  -32.5512   23.1147 H   0  0  0  0  0  0
  -25.0135  -33.9788   25.0509 H   0  0  0  0  0  0
  -22.6996  -31.3037   21.4027 H   0  0  0  0  0  0
  -23.3742  -35.9639   23.3314 H   0  0  0  0  0  0
  -24.3575  -36.8903   22.2047 H   0  0  0  0  0  0
  -23.7237  -37.6506   23.6645 H   0  0  0  0  0  0
  -26.0503  -31.5799   20.5892 H   0  0  0  0  0  0
  -26.8287  -30.8814   21.9793 H   0  0  0  0  0  0
  -28.1130  -29.0775   21.1607 H   0  0  0  0  0  0
  -26.0651  -25.9499   19.0181 H   0  0  0  0  0  0
  -23.9834  -27.2777   19.0444 H   0  0  0  0  0  0
  -23.7331  -30.5830   19.4027 H   0  0  0  0  0  0
  -22.7443  -29.2318   19.8697 H   0  0  0  0  0  0
  -25.1289  -36.1961   25.0822 H   0  0  0  0  0  0
  -20.9961  -28.3220   24.1432 H   0  0  0  0  0  0
  -20.5669  -26.2273   23.3600 H   0  0  0  0  0  0
  -21.6632  -26.7445   22.1204 H   0  0  0  0  0  0
  -19.6905  -25.6299   21.1233 H   0  0  0  0  0  0
  -19.6681  -27.3203   20.6752 H   0  0  0  0  0  0
  -17.4197  -26.6684   21.4014 H   0  0  0  0  0  0
  -18.0307  -26.0063   22.9011 H   0  0  0  0  0  0
  -19.7923  -30.7260   24.2271 H   0  0  0  0  0  0
  -17.5006  -31.6263   24.5165 H   0  0  0  0  0  0
  -15.5344  -30.2987   23.7644 H   0  0  0  0  0  0
  -15.8664  -28.0824   22.7051 H   0  0  0  0  0  0
  -24.5955  -30.7001   25.7787 H   0  0  0  0  0  0
  -24.8905  -32.2829   26.4893 H   0  0  0  0  0  0
  -25.8110  -30.8872   27.0220 H   0  0  0  0  0  0
  -26.2867  -29.6788   24.1156 H   0  0  0  0  0  0
  -27.4103  -29.7274   25.4548 H   0  0  0  0  0  0
  -27.8694  -30.4350   23.9234 H   0  0  0  0  0  0
  -27.2711  -33.3622   26.2038 H   0  0  0  0  0  0
  -28.3872  -32.6849   25.0283 H   0  0  0  0  0  0
  -28.0738  -31.8435   26.5381 H   0  0  0  0  0  0
  -28.2606  -38.0090   24.7510 H   0  0  0  0  0  0
  -28.1055  -36.2624   24.6307 H   0  0  0  0  0  0
  -27.2289  -37.1466   25.8871 H   0  0  0  0  0  0
  -20.9313  -29.8760   21.6943 H   0  0  0  0  0  0
  -26.0170  -38.2862   24.1425 H   0  0  0  0  0  0
  -31.0245  -20.7074   21.8740 H   0  0  0  0  0  0
  -31.4573  -16.5015   22.7307 H   0  0  0  0  0  0
  -28.9888  -17.7930   19.4334 H   0  0  0  0  0  0
  -25.3588  -22.0086   21.0064 H   0  0  0  0  0  0
  -25.7677  -22.5889   19.4110 H   0  0  0  0  0  0
  -26.9188  -23.5305   22.0639 H   0  0  0  0  0  0
  -25.9869  -24.4589   20.9205 H   0  0  0  0  0  0
  -29.4293  -22.8988   21.4826 H   0  0  0  0  0  0
  -29.9306  -23.1404   19.8329 H   0  0  0  0  0  0
  -27.8431  -24.2378   19.2418 H   0  0  0  0  0  0
  -29.0738  -20.1109   18.7130 H   0  0  0  0  0  0
  -30.3993  -21.0412   19.2898 H   0  0  0  0  0  0
  -29.6099  -25.4051   21.0616 H   0  0  0  0  0  0
  -28.1030  -25.6864   21.8526 H   0  0  0  0  0  0
  -31.4272  -17.4901   24.7079 H   0  0  0  0  0  0
  -32.6751  -18.4268   25.4901 H   0  0  0  0  0  0
  -28.8597  -15.3738   20.8369 H   0  0  0  0  0  0
  1 25  1  0  0  0
  1 30  2  0  0  0
  1 87  1  0  0  0
  2  3  1  0  0  0
  2 25  1  0  0  0
  2 90  1  0  0  0
  2 91  1  0  0  0
  3  4  1  0  0  0
  3 92  1  0  0  0
  3 93  1  0  0  0
  4  5  1  0  0  0
  4 94  1  0  0  0
  4 95  1  0  0  0
  5  6  1  0  0  0
  5 26  1  0  0  0
  5 96  1  0  0  0
  6 25  1  0  0  0
  6 97  1  0  0  0
  6 98  1  0  0  0
  7  8  2  0  0  0
  7 26  1  0  0  0
  7 29  1  0  0  0
  8  9  1  0  0  0
  8 22  1  0  0  0
  9 10  1  0  0  0
  9 27  2  0  0  0
 10 11  2  0  0  0
 10 15  1  0  0  0
 11 12  1  0  0  0
 11 99  1  0  0  0
 12 13  2  0  0  0
 12100  1  0  0  0
 13 14  1  0  0  0
 13 31  1  0  0  0
 14 15  2  0  0  0
 14101  1  0  0  0
 15102  1  0  0  0
 16 17  2  0  0  0
 16 21  1  0  0  0
 16 31  1  0  0  0
 17 18  1  0  0  0
 17103  1  0  0  0
 18 19  2  0  0  0
 18104  1  0  0  0
 19 20  1  0  0  0
 19 24  1  0  0  0
 20 21  2  0  0  0
 20105  1  0  0  0
 21 23  1  0  0  0
 22 28  1  0  0  0
 22 32  2  0  0  0
 26 27  1  0  0  0
 28106  1  0  0  0
 28107  1  0  0  0
 29108  1  0  0  0
 29109  1  0  0  0
 33 34  1  0  0  0
 33 66  1  0  0  0
 33 70  2  0  0  0
 34 36  1  0  0  0
 34 59  1  0  0  0
 34110  1  0  0  0
 35 44  2  0  0  0
 35 45  1  0  0  0
 35 68  1  0  0  0
 36 56  1  0  0  0
 36111  1  0  0  0
 37 39  1  0  0  0
 37 47  1  0  0  0
 37 66  1  0  0  0
 37112  1  0  0  0
 38 43  2  0  0  0
 38 46  1  0  0  0
 38 47  1  0  0  0
 39 64  1  0  0  0
 39 67  2  0  0  0
 40 52  1  0  0  0
 40 53  2  0  0  0
 40 58  1  0  0  0
 41113  1  0  0  0
 41114  1  0  0  0
 41115  1  0  0  0
 41 48  1  0  0  0
 42 43  1  0  0  0
 42 66  1  0  0  0
 42116  1  0  0  0
 42117  1  0  0  0
 43 44  1  0  0  0
 44118  1  0  0  0
 45 46  2  0  0  0
 45119  1  0  0  0
 46120  1  0  0  0
 47121  1  0  0  0
 47122  1  0  0  0
 48 56  1  0  0  0
 48 65  1  0  0  0
 48123  1  0  0  0
 49 50  1  0  0  0
 49 53  1  0  0  0
 49 64  1  0  0  0
 49124  1  0  0  0
 50 51  1  0  0  0
 50125  1  0  0  0
 50126  1  0  0  0
 51 52  1  0  0  0
 51127  1  0  0  0
 51128  1  0  0  0
 52129  1  0  0  0
 52130  1  0  0  0
 53 54  1  0  0  0
 54 55  2  0  0  0
 54131  1  0  0  0
 55 57  1  0  0  0
 55132  1  0  0  0
 56 69  2  0  0  0
 57 58  2  0  0  0
 57133  1  0  0  0
 58134  1  0  0  0
 59 60  1  0  0  0
 59 61  1  0  0  0
 59 62  1  0  0  0
 60135  1  0  0  0
 60136  1  0  0  0
 60137  1  0  0  0
 61138  1  0  0  0
 61139  1  0  0  0
 61140  1  0  0  0
 62141  1  0  0  0
 62142  1  0  0  0
 62143  1  0  0  0
 63 65  1  0  0  0
 63144  1  0  0  0
 63145  1  0  0  0
 63146  1  0  0  0
 64147  1  0  0  0
 65148  1  0  0  0
 68 84  1  0  0  0
 71 74  2  0  0  0
 71 75  1  0  0  0
 71149  1  0  0  0
 72 74  1  0  0  0
 72 76  2  0  0  0
 72150  1  0  0  0
 73 75  2  0  0  0
 73 76  1  0  0  0
 73151  1  0  0  0
 74 78  1  0  0  0
 75 83  1  0  0  0
 76 87  1  0  0  0
 77 79  1  0  0  0
 77 85  1  0  0  0
 77 88  2  0  0  0
 78 86  1  0  0  0
 78 89  2  0  0  0
 79 80  1  0  0  0
 79152  1  0  0  0
 79153  1  0  0  0
 80 82  1  0  0  0
 80154  1  0  0  0
 80155  1  0  0  0
 81 82  1  0  0  0
 81 85  1  0  0  0
 81156  1  0  0  0
 81157  1  0  0  0
 82 84  1  0  0  0
 82158  1  0  0  0
 83 85  1  0  0  0
 83159  1  0  0  0
 83160  1  0  0  0
 84161  1  0  0  0
 84162  1  0  0  0
 86163  1  0  0  0
 86164  1  0  0  0
 87165  1  0  0  0
M  ISO  4   1 100  68 101  84 101  87 100
M  END
> <chiral flag>
0

> <version>
0

> <s_m_source_file>
/data/baiqing/PycharmProjects/Reinvent-master-3.2/result/LINK_invent/BTK/process_docking_weight1_custom_product_contain_oxygen_bond_distance_aromatic_linkinvent_7_9_3/rearranged_h_0100.sdf

> <i_m_source_file_index>
90

> <r_mmod_Potential_Energy-OPLS-2005>
-143.402908325195

> <r_mmod_Stretch_Energy-OPLS-2005>
51.3026924133301

> <r_mmod_Bend_Energy-OPLS-2005>
112.905235290527

> <r_mmod_Torsional_Energy-OPLS-2005>
301.170715332031

> <r_mmod_Improper_Torsional_Energy-OPLS-2005>
7.60551071166992

> <r_mmod_Van_der_Waal_Energy-OPLS-2005>
146.888900756836

> <r_mmod_Electrostatic_Energy-OPLS-2005>
-518.186889648438

> <r_mmod_Solvation_Energy-OPLS-2005>
-266.779998779297

> <b_mmod_Minimization_Converged-OPLS-2005>
0

> <r_mmod_RMS_Derivative-OPLS-2005>
0.956993162631989

$$$$
91
                    3D
 Structure written by MMmdl.
156164  0  0  1  0            999 V2000
  -30.6083  -14.6600   20.4736 C   0  0  0  0  0  0
  -30.4369  -12.3973   19.4559 C   0  0  0  0  0  0
  -29.5055  -12.4963   18.2271 C   0  0  0  0  0  0
  -28.0289  -12.3334   18.6417 C   0  0  0  0  0  0
  -27.6488  -13.2171   19.8602 C   0  0  2  0  0  0
  -28.6946  -13.0851   20.9898 C   0  0  0  0  0  0
  -25.2530  -13.8166   20.5688 C   0  0  0  0  0  0
  -24.1791  -13.0418   20.9144 C   0  0  0  0  0  0
  -24.6378  -11.6891   20.8717 C   0  0  0  0  0  0
  -23.9054  -10.4279   21.0393 C   0  0  0  0  0  0
  -24.3604   -9.4206   21.9180 C   0  0  0  0  0  0
  -23.6284   -8.2241   22.0755 C   0  0  0  0  0  0
  -22.4271   -8.0271   21.3543 C   0  0  0  0  0  0
  -21.9900   -9.0242   20.4643 C   0  0  0  0  0  0
  -22.7226  -10.2121   20.3049 C   0  0  0  0  0  0
  -21.6850   -6.0734   22.5281 C   0  0  0  0  0  0
  -21.4013   -6.5637   23.8216 C   0  0  0  0  0  0
  -21.3663   -5.6792   24.9174 C   0  0  0  0  0  0
  -21.6047   -4.3057   24.7226 C   0  0  0  0  0  0
  -21.8818   -3.8146   23.4348 C   0  0  0  0  0  0
  -21.9188   -4.6960   22.3402 C   0  0  0  0  0  0
  -22.7824  -13.5210   21.1842 C   0  0  0  0  0  0
  -22.1658   -4.2144   21.0983 F   0  0  0  0  0  0
  -21.5630   -3.4543   25.7742 F   0  0  0  0  0  0
  -30.0083  -13.4276   20.4223 N   0  0  0  0  0  0
  -26.2971  -12.9361   20.3339 N   0  0  0  0  0  0
  -25.9312  -11.6507   20.5758 N   0  0  0  0  0  0
  -22.0476  -12.8201   22.0409 N   0  0  0  0  0  0
  -25.4168  -15.1899   20.4227 N   0  0  0  0  0  0
  -31.7810  -14.8143   20.1203 O   0  0  0  0  0  0
  -21.6635   -6.8871   21.4244 O   0  0  0  0  0  0
  -22.3502  -14.5530   20.6718 O   0  0  0  0  0  0
  -24.6255  -31.8577   23.2020 C   0  0  0  0  0  0
  -25.9101  -32.4761   23.8340 C   0  0  1  0  0  0
  -27.2317  -27.3207   20.1189 C   0  0  0  0  0  0
  -25.5926  -33.8565   24.2270 N   0  0  0  0  0  0
  -23.4199  -30.4818   21.5427 C   0  0  2  0  0  0
  -24.8694  -28.9301   20.1137 C   0  0  0  0  0  0
  -22.7467  -29.4620   22.4912 C   0  0  0  0  0  0
  -18.0281  -28.1387   22.8461 C   0  0  0  0  0  0
  -24.1498  -36.7284   23.2641 C   0  0  0  0  0  0
  -25.9598  -30.7900   21.3727 C   0  0  0  0  0  0
  -26.0370  -29.4170   20.7152 C   0  0  0  0  0  0
  -27.2214  -28.6238   20.7056 C   0  0  0  0  0  0
  -26.0496  -26.8884   19.4837 C   0  0  0  0  0  0
  -24.8769  -27.6696   19.4934 C   0  0  0  0  0  0
  -23.6385  -29.8139   20.1595 C   0  0  0  0  0  0
  -25.4120  -36.3075   24.0336 C   0  0  1  0  0  0
  -20.5885  -28.3693   23.1272 C   0  0  2  0  0  0
  -20.6786  -26.9416   22.5408 C   0  0  0  0  0  0
  -19.5767  -26.6377   21.5203 C   0  0  0  0  0  0
  -18.1937  -26.7923   22.1604 C   0  0  0  0  0  0
  -19.1539  -28.8852   23.2859 C   0  0  0  0  0  0
  -18.9466  -30.1444   23.8894 C   0  0  0  0  0  0
  -17.6477  -30.6587   24.0558 C   0  0  0  0  0  0
  -25.9054  -34.9442   23.5103 C   0  0  0  0  0  0
  -16.5364  -29.9097   23.6332 C   0  0  0  0  0  0
  -16.7270  -28.6519   23.0336 C   0  0  0  0  0  0
  -26.4502  -31.6568   25.0701 C   0  0  0  0  0  0
  -25.3744  -31.3716   26.1432 C   0  0  0  0  0  0
  -27.0342  -30.2995   24.6134 C   0  0  0  0  0  0
  -27.6053  -32.4309   25.7475 C   0  0  0  0  0  0
  -27.5580  -37.1796   24.8465 C   0  0  0  0  0  0
  -21.4173  -29.3051   22.3665 N   0  0  0  0  0  0
  -26.4294  -37.3771   23.9406 N   0  0  0  0  0  0
  -24.6871  -31.0595   22.0965 N   0  0  0  0  0  0
  -23.4188  -28.8147   23.2978 O   0  0  0  0  0  0
  -28.3668  -26.4962   20.1264 O   0  0  0  0  0  0
  -26.5613  -34.8910   22.4663 O   0  0  0  0  0  0
  -23.5420  -32.1372   23.7363 O   0  0  0  0  0  0
  -30.8140  -19.2648   19.6708 C   0  0  0  0  0  0
  -30.9114  -17.8666   19.9454 C   0  0  0  0  0  0
  -28.6028  -19.3365   20.6096 C   0  0  0  0  0  0
  -29.6605  -20.0442   19.9816 C   0  0  0  0  0  0
  -29.8374  -17.1552   20.5378 C   0  0  0  0  0  0
  -28.6922  -17.9334   20.8767 C   0  0  0  0  0  0
  -29.5494  -21.5021   19.4741 C   0  0  0  0  0  0
  -27.0841  -24.7078   21.4317 C   0  0  0  0  0  0
  -28.7495  -23.9229   19.6182 C   0  0  0  0  0  0
  -28.3392  -25.0877   20.6243 C   0  0  1  0  0  0
  -27.6063  -17.2882   21.4681 N   0  0  0  0  0  0
  -29.7794  -15.7096   20.7708 N   0  0  0  0  0  0
  -28.9060  -22.5065   20.1462 N   0  0  0  0  0  0
  -30.1059  -21.7593   18.4039 O   0  0  0  0  0  0
  -31.4779  -12.5227   19.1540 H   0  0  0  0  0  0
  -30.3747  -11.4072   19.9093 H   0  0  0  0  0  0
  -29.7719  -11.7359   17.4924 H   0  0  0  0  0  0
  -29.6426  -13.4597   17.7332 H   0  0  0  0  0  0
  -27.8737  -11.2817   18.8870 H   0  0  0  0  0  0
  -27.3712  -12.5466   17.7986 H   0  0  0  0  0  0
  -27.6596  -14.2489   19.5072 H   0  0  0  0  0  0
  -28.7086  -12.0673   21.3815 H   0  0  0  0  0  0
  -28.4388  -13.7268   21.8346 H   0  0  0  0  0  0
  -25.2745   -9.5691   22.4754 H   0  0  0  0  0  0
  -23.9997   -7.4636   22.7476 H   0  0  0  0  0  0
  -21.0835   -8.8758   19.8941 H   0  0  0  0  0  0
  -22.3686  -10.9658   19.6153 H   0  0  0  0  0  0
  -21.2009   -7.6145   23.9719 H   0  0  0  0  0  0
  -21.1488   -6.0520   25.9078 H   0  0  0  0  0  0
  -22.0592   -2.7607   23.2851 H   0  0  0  0  0  0
  -22.4098  -11.9860   22.4785 H   0  0  0  0  0  0
  -21.1102  -13.1230   22.2647 H   0  0  0  0  0  0
  -24.6502  -15.8296   20.5961 H   0  0  0  0  0  0
  -26.3060  -15.6749   20.3360 H   0  0  0  0  0  0
  -26.7156  -32.5447   23.1078 H   0  0  0  0  0  0
  -25.0098  -33.9695   25.0435 H   0  0  0  0  0  0
  -22.7145  -31.3032   21.3989 H   0  0  0  0  0  0
  -23.3755  -35.9621   23.3308 H   0  0  0  0  0  0
  -24.3599  -36.8896   22.2052 H   0  0  0  0  0  0
  -23.7259  -37.6491   23.6662 H   0  0  0  0  0  0
  -26.0906  -31.5546   20.6061 H   0  0  0  0  0  0
  -26.8398  -30.8386   22.0023 H   0  0  0  0  0  0
  -28.1194  -28.9947   21.1787 H   0  0  0  0  0  0
  -26.0280  -25.9283   18.9877 H   0  0  0  0  0  0
  -23.9814  -27.2892   19.0215 H   0  0  0  0  0  0
  -23.7674  -30.5930   19.4073 H   0  0  0  0  0  0
  -22.7567  -29.2509   19.8482 H   0  0  0  0  0  0
  -25.1304  -36.1926   25.0832 H   0  0  0  0  0  0
  -20.9969  -28.3278   24.1391 H   0  0  0  0  0  0
  -20.5701  -26.2289   23.3607 H   0  0  0  0  0  0
  -21.6650  -26.7453   22.1195 H   0  0  0  0  0  0
  -19.6943  -25.6286   21.1233 H   0  0  0  0  0  0
  -19.6727  -27.3180   20.6734 H   0  0  0  0  0  0
  -17.4208  -26.6650   21.4003 H   0  0  0  0  0  0
  -18.0343  -26.0070   22.9012 H   0  0  0  0  0  0
  -19.7954  -30.7235   24.2270 H   0  0  0  0  0  0
  -17.5050  -31.6275   24.5148 H   0  0  0  0  0  0
  -15.5369  -30.3008   23.7671 H   0  0  0  0  0  0
  -15.8659  -28.0855   22.7049 H   0  0  0  0  0  0
  -24.5915  -30.7064   25.7773 H   0  0  0  0  0  0
  -24.8939  -32.2890   26.4843 H   0  0  0  0  0  0
  -25.8070  -30.8908   27.0213 H   0  0  0  0  0  0
  -26.2902  -29.6733   24.1190 H   0  0  0  0  0  0
  -27.4092  -29.7260   25.4619 H   0  0  0  0  0  0
  -27.8756  -30.4289   23.9318 H   0  0  0  0  0  0
  -27.2650  -33.3609   26.2037 H   0  0  0  0  0  0
  -28.3869  -32.6861   25.0306 H   0  0  0  0  0  0
  -28.0709  -31.8441   26.5397 H   0  0  0  0  0  0
  -28.2591  -38.0097   24.7498 H   0  0  0  0  0  0
  -28.1083  -36.2621   24.6317 H   0  0  0  0  0  0
  -27.2292  -37.1471   25.8867 H   0  0  0  0  0  0
  -20.9343  -29.8783   21.6889 H   0  0  0  0  0  0
  -26.0172  -38.2844   24.1415 H   0  0  0  0  0  0
  -31.6422  -19.7449   19.1674 H   0  0  0  0  0  0
  -31.8117  -17.3454   19.6529 H   0  0  0  0  0  0
  -27.6935  -19.8705   20.8456 H   0  0  0  0  0  0
  -27.2451  -23.7854   21.9891 H   0  0  0  0  0  0
  -26.2207  -24.5374   20.7895 H   0  0  0  0  0  0
  -26.8297  -25.4809   22.1570 H   0  0  0  0  0  0
  -29.6900  -24.2146   19.1465 H   0  0  0  0  0  0
  -28.0151  -23.8931   18.8123 H   0  0  0  0  0  0
  -29.1432  -25.1018   21.3610 H   0  0  0  0  0  0
  -26.8601  -17.8996   21.7812 H   0  0  0  0  0  0
  -27.8420  -16.6322   22.2035 H   0  0  0  0  0  0
  -28.8560  -15.4152   21.0467 H   0  0  0  0  0  0
  -28.4786  -22.2835   21.0344 H   0  0  0  0  0  0
  1 25  1  0  0  0
  1 30  2  0  0  0
  1 82  1  0  0  0
  2  3  1  0  0  0
  2 25  1  0  0  0
  2 85  1  0  0  0
  2 86  1  0  0  0
  3  4  1  0  0  0
  3 87  1  0  0  0
  3 88  1  0  0  0
  4  5  1  0  0  0
  4 89  1  0  0  0
  4 90  1  0  0  0
  5  6  1  0  0  0
  5 26  1  0  0  0
  5 91  1  0  0  0
  6 25  1  0  0  0
  6 92  1  0  0  0
  6 93  1  0  0  0
  7  8  2  0  0  0
  7 26  1  0  0  0
  7 29  1  0  0  0
  8  9  1  0  0  0
  8 22  1  0  0  0
  9 10  1  0  0  0
  9 27  2  0  0  0
 10 11  2  0  0  0
 10 15  1  0  0  0
 11 12  1  0  0  0
 11 94  1  0  0  0
 12 13  2  0  0  0
 12 95  1  0  0  0
 13 14  1  0  0  0
 13 31  1  0  0  0
 14 15  2  0  0  0
 14 96  1  0  0  0
 15 97  1  0  0  0
 16 17  2  0  0  0
 16 21  1  0  0  0
 16 31  1  0  0  0
 17 18  1  0  0  0
 17 98  1  0  0  0
 18 19  2  0  0  0
 18 99  1  0  0  0
 19 20  1  0  0  0
 19 24  1  0  0  0
 20 21  2  0  0  0
 20100  1  0  0  0
 21 23  1  0  0  0
 22 28  1  0  0  0
 22 32  2  0  0  0
 26 27  1  0  0  0
 28101  1  0  0  0
 28102  1  0  0  0
 29103  1  0  0  0
 29104  1  0  0  0
 33 34  1  0  0  0
 33 66  1  0  0  0
 33 70  2  0  0  0
 34 36  1  0  0  0
 34 59  1  0  0  0
 34105  1  0  0  0
 35 44  2  0  0  0
 35 45  1  0  0  0
 35 68  1  0  0  0
 36 56  1  0  0  0
 36106  1  0  0  0
 37 39  1  0  0  0
 37 47  1  0  0  0
 37 66  1  0  0  0
 37107  1  0  0  0
 38 43  2  0  0  0
 38 46  1  0  0  0
 38 47  1  0  0  0
 39 64  1  0  0  0
 39 67  2  0  0  0
 40 52  1  0  0  0
 40 53  2  0  0  0
 40 58  1  0  0  0
 41108  1  0  0  0
 41109  1  0  0  0
 41110  1  0  0  0
 41 48  1  0  0  0
 42 43  1  0  0  0
 42 66  1  0  0  0
 42111  1  0  0  0
 42112  1  0  0  0
 43 44  1  0  0  0
 44113  1  0  0  0
 45 46  2  0  0  0
 45114  1  0  0  0
 46115  1  0  0  0
 47116  1  0  0  0
 47117  1  0  0  0
 48 56  1  0  0  0
 48 65  1  0  0  0
 48118  1  0  0  0
 49 50  1  0  0  0
 49 53  1  0  0  0
 49 64  1  0  0  0
 49119  1  0  0  0
 50 51  1  0  0  0
 50120  1  0  0  0
 50121  1  0  0  0
 51 52  1  0  0  0
 51122  1  0  0  0
 51123  1  0  0  0
 52124  1  0  0  0
 52125  1  0  0  0
 53 54  1  0  0  0
 54 55  2  0  0  0
 54126  1  0  0  0
 55 57  1  0  0  0
 55127  1  0  0  0
 56 69  2  0  0  0
 57 58  2  0  0  0
 57128  1  0  0  0
 58129  1  0  0  0
 59 60  1  0  0  0
 59 61  1  0  0  0
 59 62  1  0  0  0
 60130  1  0  0  0
 60131  1  0  0  0
 60132  1  0  0  0
 61133  1  0  0  0
 61134  1  0  0  0
 61135  1  0  0  0
 62136  1  0  0  0
 62137  1  0  0  0
 62138  1  0  0  0
 63 65  1  0  0  0
 63139  1  0  0  0
 63140  1  0  0  0
 63141  1  0  0  0
 64142  1  0  0  0
 65143  1  0  0  0
 68 80  1  0  0  0
 71 72  2  0  0  0
 71 74  1  0  0  0
 71144  1  0  0  0
 72 75  1  0  0  0
 72145  1  0  0  0
 73 74  2  0  0  0
 73 76  1  0  0  0
 73146  1  0  0  0
 74 77  1  0  0  0
 75 76  2  0  0  0
 75 82  1  0  0  0
 76 81  1  0  0  0
 77 83  1  0  0  0
 77 84  2  0  0  0
 78147  1  0  0  0
 78148  1  0  0  0
 78149  1  0  0  0
 78 80  1  0  0  0
 79 80  1  0  0  0
 79 83  1  0  0  0
 79150  1  0  0  0
 79151  1  0  0  0
 80152  1  0  0  0
 81153  1  0  0  0
 81154  1  0  0  0
 82155  1  0  0  0
 83156  1  0  0  0
M  ISO  4   1 100  68 101  80 101  82 100
M  END
> <chiral flag>
0

> <version>
0

> <s_m_source_file>
/data/baiqing/PycharmProjects/Reinvent-master-3.2/result/LINK_invent/BTK/process_docking_weight1_custom_product_contain_oxygen_bond_distance_aromatic_linkinvent_7_9_3/rearranged_h_0100.sdf

> <i_m_source_file_index>
91

> <r_mmod_Potential_Energy-OPLS-2005>
-132.935638427734

> <r_mmod_Stretch_Energy-OPLS-2005>
81.888671875

> <r_mmod_Bend_Energy-OPLS-2005>
156.992340087891

> <r_mmod_Torsional_Energy-OPLS-2005>
254.316711425781

> <r_mmod_Improper_Torsional_Energy-OPLS-2005>
10.6070232391357

> <r_mmod_Van_der_Waal_Energy-OPLS-2005>
146.305267333984

> <r_mmod_Electrostatic_Energy-OPLS-2005>
-600.905334472656

> <r_mmod_Solvation_Energy-OPLS-2005>
-232.378311157227

> <b_mmod_Minimization_Converged-OPLS-2005>
0

> <r_mmod_RMS_Derivative-OPLS-2005>
1.86282646656036

$$$$
92
                    3D
 Structure written by MMmdl.
155163  0  0  1  0            999 V2000
  -30.6149  -14.6700   20.4944 C   0  0  0  0  0  0
  -30.4401  -12.4124   19.4658 C   0  0  0  0  0  0
  -29.5184  -12.5350   18.2325 C   0  0  0  0  0  0
  -28.0359  -12.3865   18.6271 C   0  0  0  0  0  0
  -27.6585  -13.2270   19.8758 C   0  0  2  0  0  0
  -28.7021  -13.0822   21.0060 C   0  0  0  0  0  0
  -25.2588  -13.8191   20.5689 C   0  0  0  0  0  0
  -24.1866  -13.0457   20.9180 C   0  0  0  0  0  0
  -24.6460  -11.6924   20.8736 C   0  0  0  0  0  0
  -23.9086  -10.4317   21.0413 C   0  0  0  0  0  0
  -24.3648   -9.4234   21.9198 C   0  0  0  0  0  0
  -23.6327   -8.2264   22.0779 C   0  0  0  0  0  0
  -22.4303   -8.0311   21.3558 C   0  0  0  0  0  0
  -21.9919   -9.0279   20.4648 C   0  0  0  0  0  0
  -22.7242  -10.2169   20.3047 C   0  0  0  0  0  0
  -21.6876   -6.0750   22.5261 C   0  0  0  0  0  0
  -21.4030   -6.5645   23.8198 C   0  0  0  0  0  0
  -21.3672   -5.6790   24.9169 C   0  0  0  0  0  0
  -21.6061   -4.3051   24.7212 C   0  0  0  0  0  0
  -21.8809   -3.8156   23.4338 C   0  0  0  0  0  0
  -21.9211   -4.6974   22.3402 C   0  0  0  0  0  0
  -22.7891  -13.5251   21.1855 C   0  0  0  0  0  0
  -22.1666   -4.2178   21.0975 F   0  0  0  0  0  0
  -21.5651   -3.4518   25.7724 F   0  0  0  0  0  0
  -30.0172  -13.4338   20.4476 N   0  0  0  0  0  0
  -26.3048  -12.9380   20.3377 N   0  0  0  0  0  0
  -25.9379  -11.6528   20.5757 N   0  0  0  0  0  0
  -22.0527  -12.8223   22.0389 N   0  0  0  0  0  0
  -25.4241  -15.1922   20.4141 N   0  0  0  0  0  0
  -31.7527  -14.8440   20.0497 O   0  0  0  0  0  0
  -21.6678   -6.8904   21.4230 O   0  0  0  0  0  0
  -22.3534  -14.5559   20.6712 O   0  0  0  0  0  0
  -24.6239  -31.8582   23.2026 C   0  0  0  0  0  0
  -25.9083  -32.4791   23.8355 C   0  0  1  0  0  0
  -27.2360  -27.3244   20.1268 C   0  0  0  0  0  0
  -25.5899  -33.8590   24.2333 N   0  0  0  0  0  0
  -23.4204  -30.4779   21.5458 C   0  0  2  0  0  0
  -24.8697  -28.9242   20.1195 C   0  0  0  0  0  0
  -22.7483  -29.4599   22.4972 C   0  0  0  0  0  0
  -18.0301  -28.1372   22.8504 C   0  0  0  0  0  0
  -24.1498  -36.7299   23.2649 C   0  0  0  0  0  0
  -25.9576  -30.7921   21.3679 C   0  0  0  0  0  0
  -26.0366  -29.4152   20.7202 C   0  0  0  0  0  0
  -27.2278  -28.6308   20.7057 C   0  0  0  0  0  0
  -26.0480  -26.8678   19.5222 C   0  0  0  0  0  0
  -24.8784  -27.6572   19.5070 C   0  0  0  0  0  0
  -23.6387  -29.8108   20.1611 C   0  0  0  0  0  0
  -25.4101  -36.3124   24.0378 C   0  0  1  0  0  0
  -20.5898  -28.3678   23.1313 C   0  0  2  0  0  0
  -20.6812  -26.9408   22.5400 C   0  0  0  0  0  0
  -19.5778  -26.6378   21.5227 C   0  0  0  0  0  0
  -18.1955  -26.7910   22.1642 C   0  0  0  0  0  0
  -19.1546  -28.8829   23.2915 C   0  0  0  0  0  0
  -18.9448  -30.1429   23.8950 C   0  0  0  0  0  0
  -17.6435  -30.6569   24.0545 C   0  0  0  0  0  0
  -25.9018  -34.9478   23.5165 C   0  0  0  0  0  0
  -16.5334  -29.9066   23.6295 C   0  0  0  0  0  0
  -16.7281  -28.6470   23.0357 C   0  0  0  0  0  0
  -26.4435  -31.6571   25.0703 C   0  0  0  0  0  0
  -25.3660  -31.3660   26.1428 C   0  0  0  0  0  0
  -27.0255  -30.3032   24.6059 C   0  0  0  0  0  0
  -27.6058  -32.4219   25.7453 C   0  0  0  0  0  0
  -27.5591  -37.1808   24.8470 C   0  0  0  0  0  0
  -21.4188  -29.3048   22.3730 N   0  0  0  0  0  0
  -26.4297  -37.3782   23.9427 N   0  0  0  0  0  0
  -24.6876  -31.0569   22.0986 N   0  0  0  0  0  0
  -23.4198  -28.8173   23.3060 O   0  0  0  0  0  0
  -28.3780  -26.5174   20.0931 O   0  0  0  0  0  0
  -26.5573  -34.8937   22.4728 O   0  0  0  0  0  0
  -23.5399  -32.1403   23.7318 O   0  0  0  0  0  0
  -29.4431  -19.5455   21.3098 C   0  0  0  0  0  0
  -29.8801  -17.6303   19.3226 C   0  0  0  0  0  0
  -29.6544  -18.1685   21.6673 C   0  0  0  0  0  0
  -29.8583  -17.1585   20.6613 C   0  0  0  0  0  0
  -29.4383  -20.0070   19.9676 C   0  0  0  0  0  0
  -29.6887  -19.0047   18.9881 C   0  0  0  0  0  0
  -29.7296  -17.8350   23.1401 C   0  0  0  0  0  0
  -28.6526  -23.8810   19.7416 C   0  0  0  0  0  0
  -28.3306  -25.1504   20.6593 C   0  0  0  0  0  0
  -28.8968  -22.4580   20.4433 C   0  0  0  0  0  0
  -28.7609  -18.3132   23.9125 N   0  0  0  0  0  0
  -29.8540  -15.7126   20.9641 N   0  0  0  0  0  0
  -30.6399  -17.1484   23.6002 O   0  0  0  0  0  0
  -29.2134  -21.3414   19.5415 O   0  0  0  0  0  0
  -29.7320  -19.3551   17.6818 F   0  0  0  0  0  0
  -31.4804  -12.5418   19.1638 H   0  0  0  0  0  0
  -30.3758  -11.4130   19.9014 H   0  0  0  0  0  0
  -29.7854  -11.7866   17.4844 H   0  0  0  0  0  0
  -29.6709  -13.5047   17.7580 H   0  0  0  0  0  0
  -27.8434  -11.3298   18.8150 H   0  0  0  0  0  0
  -27.3968  -12.6664   17.7889 H   0  0  0  0  0  0
  -27.6771  -14.2702   19.5630 H   0  0  0  0  0  0
  -28.7174  -12.0613   21.3908 H   0  0  0  0  0  0
  -28.4439  -13.7122   21.8575 H   0  0  0  0  0  0
  -25.2806   -9.5742   22.4773 H   0  0  0  0  0  0
  -24.0077   -7.4649   22.7461 H   0  0  0  0  0  0
  -21.0861   -8.8748   19.8940 H   0  0  0  0  0  0
  -22.3669  -10.9713   19.6171 H   0  0  0  0  0  0
  -21.1997   -7.6146   23.9700 H   0  0  0  0  0  0
  -21.1520   -6.0536   25.9071 H   0  0  0  0  0  0
  -22.0591   -2.7613   23.2811 H   0  0  0  0  0  0
  -22.4103  -11.9878   22.4794 H   0  0  0  0  0  0
  -21.1140  -13.1238   22.2597 H   0  0  0  0  0  0
  -24.6518  -15.8407   20.5301 H   0  0  0  0  0  0
  -26.2762  -15.6406   20.0994 H   0  0  0  0  0  0
  -26.7149  -32.5472   23.1109 H   0  0  0  0  0  0
  -25.0078  -33.9711   25.0508 H   0  0  0  0  0  0
  -22.7170  -31.3000   21.4031 H   0  0  0  0  0  0
  -23.3774  -35.9612   23.3281 H   0  0  0  0  0  0
  -24.3604  -36.8901   22.2065 H   0  0  0  0  0  0
  -23.7212  -37.6499   23.6623 H   0  0  0  0  0  0
  -26.0668  -31.5430   20.5834 H   0  0  0  0  0  0
  -26.8461  -30.8591   21.9815 H   0  0  0  0  0  0
  -28.1322  -29.0145   21.1597 H   0  0  0  0  0  0
  -26.0307  -25.8920   19.0552 H   0  0  0  0  0  0
  -23.9890  -27.2749   19.0261 H   0  0  0  0  0  0
  -23.7704  -30.5935   19.4116 H   0  0  0  0  0  0
  -22.7574  -29.2448   19.8536 H   0  0  0  0  0  0
  -25.1266  -36.2001   25.0860 H   0  0  0  0  0  0
  -20.9977  -28.3220   24.1442 H   0  0  0  0  0  0
  -20.5758  -26.2266   23.3595 H   0  0  0  0  0  0
  -21.6679  -26.7465   22.1165 H   0  0  0  0  0  0
  -19.6935  -25.6287   21.1282 H   0  0  0  0  0  0
  -19.6734  -27.3196   20.6775 H   0  0  0  0  0  0
  -17.4239  -26.6707   21.4026 H   0  0  0  0  0  0
  -18.0316  -26.0030   22.9011 H   0  0  0  0  0  0
  -19.7896  -30.7246   24.2391 H   0  0  0  0  0  0
  -17.4963  -31.6281   24.5103 H   0  0  0  0  0  0
  -15.5331  -30.2985   23.7540 H   0  0  0  0  0  0
  -15.8706  -28.0775   22.7070 H   0  0  0  0  0  0
  -24.5877  -30.6986   25.7696 H   0  0  0  0  0  0
  -24.8796  -32.2814   26.4829 H   0  0  0  0  0  0
  -25.7955  -30.8820   27.0227 H   0  0  0  0  0  0
  -26.2811  -29.6832   24.1067 H   0  0  0  0  0  0
  -27.4028  -29.7193   25.4464 H   0  0  0  0  0  0
  -27.8638  -30.4390   23.9225 H   0  0  0  0  0  0
  -27.2790  -33.3550   26.2045 H   0  0  0  0  0  0
  -28.3862  -32.6695   25.0244 H   0  0  0  0  0  0
  -28.0752  -31.8314   26.5339 H   0  0  0  0  0  0
  -28.2582  -38.0123   24.7509 H   0  0  0  0  0  0
  -28.1118  -36.2655   24.6295 H   0  0  0  0  0  0
  -27.2327  -37.1455   25.8876 H   0  0  0  0  0  0
  -20.9370  -29.8713   21.6901 H   0  0  0  0  0  0
  -26.0216  -38.2874   24.1379 H   0  0  0  0  0  0
  -29.2926  -20.2686   22.0969 H   0  0  0  0  0  0
  -30.0060  -16.9280   18.5108 H   0  0  0  0  0  0
  -29.5273  -24.1090   19.1341 H   0  0  0  0  0  0
  -27.8313  -23.7692   19.0310 H   0  0  0  0  0  0
  -29.0786  -25.1573   21.4565 H   0  0  0  0  0  0
  -27.3815  -24.9878   21.1720 H   0  0  0  0  0  0
  -28.0200  -22.1895   21.0297 H   0  0  0  0  0  0
  -29.7190  -22.5636   21.1519 H   0  0  0  0  0  0
  -27.9910  -18.8225   23.5063 H   0  0  0  0  0  0
  -28.7742  -18.1503   24.9123 H   0  0  0  0  0  0
  -29.0705  -15.4084   21.5242 H   0  0  0  0  0  0
  1 25  1  0  0  0
  1 30  2  0  0  0
  1 82  1  0  0  0
  2  3  1  0  0  0
  2 25  1  0  0  0
  2 86  1  0  0  0
  2 87  1  0  0  0
  3  4  1  0  0  0
  3 88  1  0  0  0
  3 89  1  0  0  0
  4  5  1  0  0  0
  4 90  1  0  0  0
  4 91  1  0  0  0
  5  6  1  0  0  0
  5 26  1  0  0  0
  5 92  1  0  0  0
  6 25  1  0  0  0
  6 93  1  0  0  0
  6 94  1  0  0  0
  7  8  2  0  0  0
  7 26  1  0  0  0
  7 29  1  0  0  0
  8  9  1  0  0  0
  8 22  1  0  0  0
  9 10  1  0  0  0
  9 27  2  0  0  0
 10 11  2  0  0  0
 10 15  1  0  0  0
 11 12  1  0  0  0
 11 95  1  0  0  0
 12 13  2  0  0  0
 12 96  1  0  0  0
 13 14  1  0  0  0
 13 31  1  0  0  0
 14 15  2  0  0  0
 14 97  1  0  0  0
 15 98  1  0  0  0
 16 17  2  0  0  0
 16 21  1  0  0  0
 16 31  1  0  0  0
 17 18  1  0  0  0
 17 99  1  0  0  0
 18 19  2  0  0  0
 18100  1  0  0  0
 19 20  1  0  0  0
 19 24  1  0  0  0
 20 21  2  0  0  0
 20101  1  0  0  0
 21 23  1  0  0  0
 22 28  1  0  0  0
 22 32  2  0  0  0
 26 27  1  0  0  0
 28102  1  0  0  0
 28103  1  0  0  0
 29104  1  0  0  0
 29105  1  0  0  0
 33 34  1  0  0  0
 33 66  1  0  0  0
 33 70  2  0  0  0
 34 36  1  0  0  0
 34 59  1  0  0  0
 34106  1  0  0  0
 35 44  2  0  0  0
 35 45  1  0  0  0
 35 68  1  0  0  0
 36 56  1  0  0  0
 36107  1  0  0  0
 37 39  1  0  0  0
 37 47  1  0  0  0
 37 66  1  0  0  0
 37108  1  0  0  0
 38 43  2  0  0  0
 38 46  1  0  0  0
 38 47  1  0  0  0
 39 64  1  0  0  0
 39 67  2  0  0  0
 40 52  1  0  0  0
 40 53  2  0  0  0
 40 58  1  0  0  0
 41109  1  0  0  0
 41110  1  0  0  0
 41111  1  0  0  0
 41 48  1  0  0  0
 42 43  1  0  0  0
 42 66  1  0  0  0
 42112  1  0  0  0
 42113  1  0  0  0
 43 44  1  0  0  0
 44114  1  0  0  0
 45 46  2  0  0  0
 45115  1  0  0  0
 46116  1  0  0  0
 47117  1  0  0  0
 47118  1  0  0  0
 48 56  1  0  0  0
 48 65  1  0  0  0
 48119  1  0  0  0
 49 50  1  0  0  0
 49 53  1  0  0  0
 49 64  1  0  0  0
 49120  1  0  0  0
 50 51  1  0  0  0
 50121  1  0  0  0
 50122  1  0  0  0
 51 52  1  0  0  0
 51123  1  0  0  0
 51124  1  0  0  0
 52125  1  0  0  0
 52126  1  0  0  0
 53 54  1  0  0  0
 54 55  2  0  0  0
 54127  1  0  0  0
 55 57  1  0  0  0
 55128  1  0  0  0
 56 69  2  0  0  0
 57 58  2  0  0  0
 57129  1  0  0  0
 58130  1  0  0  0
 59 60  1  0  0  0
 59 61  1  0  0  0
 59 62  1  0  0  0
 60131  1  0  0  0
 60132  1  0  0  0
 60133  1  0  0  0
 61134  1  0  0  0
 61135  1  0  0  0
 61136  1  0  0  0
 62137  1  0  0  0
 62138  1  0  0  0
 62139  1  0  0  0
 63 65  1  0  0  0
 63140  1  0  0  0
 63141  1  0  0  0
 63142  1  0  0  0
 64143  1  0  0  0
 65144  1  0  0  0
 68 79  1  0  0  0
 71 73  2  0  0  0
 71 75  1  0  0  0
 71145  1  0  0  0
 72 74  2  0  0  0
 72 76  1  0  0  0
 72146  1  0  0  0
 73 74  1  0  0  0
 73 77  1  0  0  0
 74 82  1  0  0  0
 75 76  2  0  0  0
 75 84  1  0  0  0
 76 85  1  0  0  0
 77 81  1  0  0  0
 77 83  2  0  0  0
 78 79  1  0  0  0
 78 80  1  0  0  0
 78147  1  0  0  0
 78148  1  0  0  0
 79149  1  0  0  0
 79150  1  0  0  0
 80 84  1  0  0  0
 80151  1  0  0  0
 80152  1  0  0  0
 81153  1  0  0  0
 81154  1  0  0  0
 82155  1  0  0  0
M  ISO  4   1 100  68 101  79 101  82 100
M  END
> <chiral flag>
0

> <version>
0

> <s_m_source_file>
/data/baiqing/PycharmProjects/Reinvent-master-3.2/result/LINK_invent/BTK/process_docking_weight1_custom_product_contain_oxygen_bond_distance_aromatic_linkinvent_7_9_3/rearranged_h_0100.sdf

> <i_m_source_file_index>
92

> <r_mmod_Potential_Energy-OPLS-2005>
15.845251083374

> <r_mmod_Stretch_Energy-OPLS-2005>
88.7439117431641

> <r_mmod_Bend_Energy-OPLS-2005>
148.85368347168

> <r_mmod_Torsional_Energy-OPLS-2005>
267.360656738281

> <r_mmod_Improper_Torsional_Energy-OPLS-2005>
3.87124824523926

> <r_mmod_Van_der_Waal_Energy-OPLS-2005>
133.469696044922

> <r_mmod_Electrostatic_Energy-OPLS-2005>
-416.622802734375

> <r_mmod_Solvation_Energy-OPLS-2005>
-258.761474609375

> <b_mmod_Minimization_Converged-OPLS-2005>
0

> <r_mmod_RMS_Derivative-OPLS-2005>
5.48934888839722

$$$$
93
                    3D
 Structure written by MMmdl.
157165  0  0  1  0            999 V2000
  -30.6500  -14.6831   20.3495 C   0  0  0  0  0  0
  -30.4356  -12.3773   19.4649 C   0  0  0  0  0  0
  -29.5001  -12.3481   18.2356 C   0  0  0  0  0  0
  -28.0210  -12.2673   18.6576 C   0  0  0  0  0  0
  -27.6421  -13.2057   19.8362 C   0  0  2  0  0  0
  -28.6989  -13.1817   20.9586 C   0  0  0  0  0  0
  -25.2562  -13.8151   20.5738 C   0  0  0  0  0  0
  -24.1815  -13.0426   20.9214 C   0  0  0  0  0  0
  -24.6378  -11.6899   20.8785 C   0  0  0  0  0  0
  -23.9047  -10.4282   21.0433 C   0  0  0  0  0  0
  -24.3596   -9.4190   21.9205 C   0  0  0  0  0  0
  -23.6275   -8.2228   22.0757 C   0  0  0  0  0  0
  -22.4262   -8.0271   21.3543 C   0  0  0  0  0  0
  -21.9901   -9.0247   20.4650 C   0  0  0  0  0  0
  -22.7225  -10.2132   20.3074 C   0  0  0  0  0  0
  -21.6847   -6.0730   22.5281 C   0  0  0  0  0  0
  -21.4010   -6.5636   23.8215 C   0  0  0  0  0  0
  -21.3660   -5.6792   24.9179 C   0  0  0  0  0  0
  -21.6046   -4.3055   24.7233 C   0  0  0  0  0  0
  -21.8814   -3.8143   23.4356 C   0  0  0  0  0  0
  -21.9188   -4.6958   22.3412 C   0  0  0  0  0  0
  -22.7841  -13.5238   21.1854 C   0  0  0  0  0  0
  -22.1657   -4.2140   21.0991 F   0  0  0  0  0  0
  -21.5628   -3.4543   25.7750 F   0  0  0  0  0  0
  -29.9939  -13.4790   20.3391 N   0  0  0  0  0  0
  -26.2964  -12.9313   20.3323 N   0  0  0  0  0  0
  -25.9305  -11.6489   20.5844 N   0  0  0  0  0  0
  -22.0467  -12.8238   22.0404 N   0  0  0  0  0  0
  -25.4287  -15.1868   20.4224 N   0  0  0  0  0  0
  -31.8816  -14.7098   20.2978 O   0  0  0  0  0  0
  -21.6624   -6.8871   21.4241 O   0  0  0  0  0  0
  -22.3550  -14.5552   20.6701 O   0  0  0  0  0  0
  -24.6249  -31.8605   23.2057 C   0  0  0  0  0  0
  -25.9106  -32.4789   23.8371 C   0  0  1  0  0  0
  -27.2219  -27.3388   20.1074 C   0  0  0  0  0  0
  -25.5928  -33.8590   24.2288 N   0  0  0  0  0  0
  -23.4178  -30.4863   21.5481 C   0  0  2  0  0  0
  -24.8633  -28.9503   20.1091 C   0  0  0  0  0  0
  -22.7472  -29.4625   22.4948 C   0  0  0  0  0  0
  -18.0304  -28.1384   22.8472 C   0  0  0  0  0  0
  -24.1492  -36.7302   23.2637 C   0  0  0  0  0  0
  -25.9580  -30.7983   21.3750 C   0  0  0  0  0  0
  -26.0319  -29.4291   20.7144 C   0  0  0  0  0  0
  -27.2142  -28.6341   20.7070 C   0  0  0  0  0  0
  -26.0306  -26.9172   19.4693 C   0  0  0  0  0  0
  -24.8631  -27.6987   19.4789 C   0  0  0  0  0  0
  -23.6306  -29.8261   20.1619 C   0  0  0  0  0  0
  -25.4114  -36.3091   24.0327 C   0  0  1  0  0  0
  -20.5896  -28.3687   23.1291 C   0  0  2  0  0  0
  -20.6788  -26.9408   22.5410 C   0  0  0  0  0  0
  -19.5783  -26.6378   21.5201 C   0  0  0  0  0  0
  -18.1960  -26.7928   22.1614 C   0  0  0  0  0  0
  -19.1549  -28.8856   23.2880 C   0  0  0  0  0  0
  -18.9454  -30.1454   23.8894 C   0  0  0  0  0  0
  -17.6451  -30.6582   24.0552 C   0  0  0  0  0  0
  -25.9044  -34.9461   23.5101 C   0  0  0  0  0  0
  -16.5350  -29.9067   23.6316 C   0  0  0  0  0  0
  -16.7284  -28.6486   23.0339 C   0  0  0  0  0  0
  -26.4496  -31.6605   25.0743 C   0  0  0  0  0  0
  -25.3734  -31.3737   26.1474 C   0  0  0  0  0  0
  -27.0335  -30.3032   24.6195 C   0  0  0  0  0  0
  -27.6062  -32.4334   25.7514 C   0  0  0  0  0  0
  -27.5578  -37.1808   24.8464 C   0  0  0  0  0  0
  -21.4188  -29.3041   22.3692 N   0  0  0  0  0  0
  -26.4294  -37.3783   23.9405 N   0  0  0  0  0  0
  -24.6859  -31.0638   22.0998 N   0  0  0  0  0  0
  -23.4196  -28.8154   23.3019 O   0  0  0  0  0  0
  -28.3392  -26.4927   20.1703 O   0  0  0  0  0  0
  -26.5607  -34.8922   22.4662 O   0  0  0  0  0  0
  -23.5416  -32.1386   23.7395 O   0  0  0  0  0  0
  -28.6320  -19.3064   19.7417 C   0  0  0  0  0  0
  -30.4851  -19.1994   21.2535 C   0  0  0  0  0  0
  -28.7076  -17.8988   19.5422 C   0  0  0  0  0  0
  -29.5417  -20.0103   20.5654 C   0  0  0  0  0  0
  -29.7294  -17.0937   20.1573 C   0  0  0  0  0  0
  -30.5811  -17.7865   21.0660 C   0  0  0  0  0  0
  -28.8435  -22.4699   20.1264 C   0  0  0  0  0  0
  -27.6613  -17.3196   18.6014 C   0  0  0  0  0  0
  -30.1843  -15.6648   18.2386 C   0  0  0  0  0  0
  -29.1689  -23.9795   20.4489 C   0  0  0  0  0  0
  -28.1104  -25.0498   19.9516 C   0  0  0  0  0  0
  -29.5643  -21.4690   20.7269 N   0  0  0  0  0  0
  -29.9764  -15.7088   19.7043 N   0  0  0  0  0  0
  -27.9372  -22.2326   19.3256 O   0  0  0  0  0  0
  -31.5525  -17.1203   21.7337 F   0  0  0  0  0  0
  -31.4716  -12.4965   19.1430 H   0  0  0  0  0  0
  -30.3946  -11.4311   20.0072 H   0  0  0  0  0  0
  -29.7438  -11.4795   17.6224 H   0  0  0  0  0  0
  -29.6608  -13.1996   17.5834 H   0  0  0  0  0  0
  -27.8416  -11.2324   18.9494 H   0  0  0  0  0  0
  -27.3718  -12.4499   17.8008 H   0  0  0  0  0  0
  -27.6283  -14.2085   19.4222 H   0  0  0  0  0  0
  -28.7258  -12.2114   21.4568 H   0  0  0  0  0  0
  -28.4602  -13.9246   21.7218 H   0  0  0  0  0  0
  -25.2736   -9.5662   22.4789 H   0  0  0  0  0  0
  -23.9982   -7.4614   22.7473 H   0  0  0  0  0  0
  -21.0838   -8.8771   19.8949 H   0  0  0  0  0  0
  -22.3686  -10.9679   19.6193 H   0  0  0  0  0  0
  -21.1997   -7.6143   23.9721 H   0  0  0  0  0  0
  -21.1490   -6.0522   25.9085 H   0  0  0  0  0  0
  -22.0591   -2.7604   23.2863 H   0  0  0  0  0  0
  -22.4071  -11.9901   22.4806 H   0  0  0  0  0  0
  -21.1094  -13.1281   22.2613 H   0  0  0  0  0  0
  -24.6675  -15.8447   20.5501 H   0  0  0  0  0  0
  -26.3032  -15.6324   20.1800 H   0  0  0  0  0  0
  -26.7169  -32.5469   23.1118 H   0  0  0  0  0  0
  -25.0117  -33.9748   25.0462 H   0  0  0  0  0  0
  -22.7107  -31.3064   21.4075 H   0  0  0  0  0  0
  -23.3753  -35.9639   23.3308 H   0  0  0  0  0  0
  -24.3587  -36.8909   22.2052 H   0  0  0  0  0  0
  -23.7247  -37.6508   23.6650 H   0  0  0  0  0  0
  -26.0872  -31.5649   20.6095 H   0  0  0  0  0  0
  -26.8399  -30.8448   22.0029 H   0  0  0  0  0  0
  -28.1098  -28.9951   21.1933 H   0  0  0  0  0  0
  -25.9642  -25.9671   18.9602 H   0  0  0  0  0  0
  -23.9683  -27.3293   18.9966 H   0  0  0  0  0  0
  -23.7468  -30.6033   19.4058 H   0  0  0  0  0  0
  -22.7509  -29.2540   19.8608 H   0  0  0  0  0  0
  -25.1293  -36.1946   25.0820 H   0  0  0  0  0  0
  -20.9982  -28.3266   24.1412 H   0  0  0  0  0  0
  -20.5696  -26.2287   23.3608 H   0  0  0  0  0  0
  -21.6658  -26.7430   22.1211 H   0  0  0  0  0  0
  -19.6943  -25.6281   21.1252 H   0  0  0  0  0  0
  -19.6726  -27.3171   20.6713 H   0  0  0  0  0  0
  -17.4233  -26.6658   21.4017 H   0  0  0  0  0  0
  -18.0364  -26.0087   22.9028 H   0  0  0  0  0  0
  -19.7924  -30.7281   24.2260 H   0  0  0  0  0  0
  -17.4990  -31.6265   24.5144 H   0  0  0  0  0  0
  -15.5343  -30.2952   23.7648 H   0  0  0  0  0  0
  -15.8691  -28.0797   22.7056 H   0  0  0  0  0  0
  -24.5909  -30.7081   25.7807 H   0  0  0  0  0  0
  -24.8933  -32.2904   26.4907 H   0  0  0  0  0  0
  -25.8072  -30.8912   27.0241 H   0  0  0  0  0  0
  -26.2904  -29.6790   24.1216 H   0  0  0  0  0  0
  -27.4023  -29.7285   25.4701 H   0  0  0  0  0  0
  -27.8782  -30.4324   23.9424 H   0  0  0  0  0  0
  -27.2673  -33.3623   26.2111 H   0  0  0  0  0  0
  -28.3872  -32.6901   25.0345 H   0  0  0  0  0  0
  -28.0736  -31.8447   26.5416 H   0  0  0  0  0  0
  -28.2598  -38.0099   24.7499 H   0  0  0  0  0  0
  -28.1061  -36.2629   24.6298 H   0  0  0  0  0  0
  -27.2295  -37.1472   25.8866 H   0  0  0  0  0  0
  -20.9354  -29.8756   21.6905 H   0  0  0  0  0  0
  -26.0175  -38.2858   24.1400 H   0  0  0  0  0  0
  -27.8590  -19.8455   19.2154 H   0  0  0  0  0  0
  -31.1915  -19.6660   21.9237 H   0  0  0  0  0  0
  -26.7152  -17.8548   18.6912 H   0  0  0  0  0  0
  -27.4533  -16.2751   18.8096 H   0  0  0  0  0  0
  -27.9931  -17.4098   17.5665 H   0  0  0  0  0  0
  -30.4617  -16.6415   17.8368 H   0  0  0  0  0  0
  -29.2751  -15.3492   17.7296 H   0  0  0  0  0  0
  -30.9828  -14.9926   17.9152 H   0  0  0  0  0  0
  -30.1357  -24.2073   20.0013 H   0  0  0  0  0  0
  -29.3000  -24.0798   21.5259 H   0  0  0  0  0  0
  -27.1704  -24.7723   20.4302 H   0  0  0  0  0  0
  -27.9679  -24.9075   18.8794 H   0  0  0  0  0  0
  -30.2709  -21.8096   21.3657 H   0  0  0  0  0  0
  1 25  1  0  0  0
  1 30  2  0  0  0
  1 83  1  0  0  0
  2  3  1  0  0  0
  2 25  1  0  0  0
  2 86  1  0  0  0
  2 87  1  0  0  0
  3  4  1  0  0  0
  3 88  1  0  0  0
  3 89  1  0  0  0
  4  5  1  0  0  0
  4 90  1  0  0  0
  4 91  1  0  0  0
  5  6  1  0  0  0
  5 26  1  0  0  0
  5 92  1  0  0  0
  6 25  1  0  0  0
  6 93  1  0  0  0
  6 94  1  0  0  0
  7  8  2  0  0  0
  7 26  1  0  0  0
  7 29  1  0  0  0
  8  9  1  0  0  0
  8 22  1  0  0  0
  9 10  1  0  0  0
  9 27  2  0  0  0
 10 11  2  0  0  0
 10 15  1  0  0  0
 11 12  1  0  0  0
 11 95  1  0  0  0
 12 13  2  0  0  0
 12 96  1  0  0  0
 13 14  1  0  0  0
 13 31  1  0  0  0
 14 15  2  0  0  0
 14 97  1  0  0  0
 15 98  1  0  0  0
 16 17  2  0  0  0
 16 21  1  0  0  0
 16 31  1  0  0  0
 17 18  1  0  0  0
 17 99  1  0  0  0
 18 19  2  0  0  0
 18100  1  0  0  0
 19 20  1  0  0  0
 19 24  1  0  0  0
 20 21  2  0  0  0
 20101  1  0  0  0
 21 23  1  0  0  0
 22 28  1  0  0  0
 22 32  2  0  0  0
 26 27  1  0  0  0
 28102  1  0  0  0
 28103  1  0  0  0
 29104  1  0  0  0
 29105  1  0  0  0
 33 34  1  0  0  0
 33 66  1  0  0  0
 33 70  2  0  0  0
 34 36  1  0  0  0
 34 59  1  0  0  0
 34106  1  0  0  0
 35 44  2  0  0  0
 35 45  1  0  0  0
 35 68  1  0  0  0
 36 56  1  0  0  0
 36107  1  0  0  0
 37 39  1  0  0  0
 37 47  1  0  0  0
 37 66  1  0  0  0
 37108  1  0  0  0
 38 43  2  0  0  0
 38 46  1  0  0  0
 38 47  1  0  0  0
 39 64  1  0  0  0
 39 67  2  0  0  0
 40 52  1  0  0  0
 40 53  2  0  0  0
 40 58  1  0  0  0
 41109  1  0  0  0
 41110  1  0  0  0
 41111  1  0  0  0
 41 48  1  0  0  0
 42 43  1  0  0  0
 42 66  1  0  0  0
 42112  1  0  0  0
 42113  1  0  0  0
 43 44  1  0  0  0
 44114  1  0  0  0
 45 46  2  0  0  0
 45115  1  0  0  0
 46116  1  0  0  0
 47117  1  0  0  0
 47118  1  0  0  0
 48 56  1  0  0  0
 48 65  1  0  0  0
 48119  1  0  0  0
 49 50  1  0  0  0
 49 53  1  0  0  0
 49 64  1  0  0  0
 49120  1  0  0  0
 50 51  1  0  0  0
 50121  1  0  0  0
 50122  1  0  0  0
 51 52  1  0  0  0
 51123  1  0  0  0
 51124  1  0  0  0
 52125  1  0  0  0
 52126  1  0  0  0
 53 54  1  0  0  0
 54 55  2  0  0  0
 54127  1  0  0  0
 55 57  1  0  0  0
 55128  1  0  0  0
 56 69  2  0  0  0
 57 58  2  0  0  0
 57129  1  0  0  0
 58130  1  0  0  0
 59 60  1  0  0  0
 59 61  1  0  0  0
 59 62  1  0  0  0
 60131  1  0  0  0
 60132  1  0  0  0
 60133  1  0  0  0
 61134  1  0  0  0
 61135  1  0  0  0
 61136  1  0  0  0
 62137  1  0  0  0
 62138  1  0  0  0
 62139  1  0  0  0
 63 65  1  0  0  0
 63140  1  0  0  0
 63141  1  0  0  0
 63142  1  0  0  0
 64143  1  0  0  0
 65144  1  0  0  0
 68 81  1  0  0  0
 71 73  2  0  0  0
 71 74  1  0  0  0
 71145  1  0  0  0
 72 74  2  0  0  0
 72 76  1  0  0  0
 72146  1  0  0  0
 73 75  1  0  0  0
 73 78  1  0  0  0
 74 82  1  0  0  0
 75 76  2  0  0  0
 75 83  1  0  0  0
 76 85  1  0  0  0
 77 80  1  0  0  0
 77 82  1  0  0  0
 77 84  2  0  0  0
 78147  1  0  0  0
 78148  1  0  0  0
 78149  1  0  0  0
 79 83  1  0  0  0
 79150  1  0  0  0
 79151  1  0  0  0
 79152  1  0  0  0
 80 81  1  0  0  0
 80153  1  0  0  0
 80154  1  0  0  0
 81155  1  0  0  0
 81156  1  0  0  0
 82157  1  0  0  0
M  ISO  4   1 100  68 101  81 101  83 100
M  END
> <chiral flag>
0

> <version>
0

> <s_m_source_file>
/data/baiqing/PycharmProjects/Reinvent-master-3.2/result/LINK_invent/BTK/process_docking_weight1_custom_product_contain_oxygen_bond_distance_aromatic_linkinvent_7_9_3/rearranged_h_0100.sdf

> <i_m_source_file_index>
93

> <r_mmod_Potential_Energy-OPLS-2005>
252.221954345703

> <r_mmod_Stretch_Energy-OPLS-2005>
81.9696655273438

> <r_mmod_Bend_Energy-OPLS-2005>
149.860809326172

> <r_mmod_Torsional_Energy-OPLS-2005>
319.756652832031

> <r_mmod_Improper_Torsional_Energy-OPLS-2005>
31.2188739776611

> <r_mmod_Van_der_Waal_Energy-OPLS-2005>
164.253845214844

> <r_mmod_Electrostatic_Energy-OPLS-2005>
-354.319061279297

> <r_mmod_Solvation_Energy-OPLS-2005>
-214.203521728516

> <b_mmod_Minimization_Converged-OPLS-2005>
0

> <r_mmod_RMS_Derivative-OPLS-2005>
1.51232981681824

$$$$
94
                    3D
 Structure written by MMmdl.
162170  0  0  1  0            999 V2000
  -30.6319  -14.5089   20.6024 C   0  0  0  0  0  0
  -30.4495  -12.3648   19.3965 C   0  0  0  0  0  0
  -29.4966  -12.5536   18.1938 C   0  0  0  0  0  0
  -28.0177  -12.4061   18.6057 C   0  0  0  0  0  0
  -27.6626  -13.2112   19.8821 C   0  0  2  0  0  0
  -28.6994  -12.9246   20.9858 C   0  0  0  0  0  0
  -25.2563  -13.8180   20.5552 C   0  0  0  0  0  0
  -24.1840  -13.0486   20.9101 C   0  0  0  0  0  0
  -24.6399  -11.6929   20.8733 C   0  0  0  0  0  0
  -23.9070  -10.4347   21.0434 C   0  0  0  0  0  0
  -24.3637   -9.4252   21.9206 C   0  0  0  0  0  0
  -23.6282   -8.2298   22.0796 C   0  0  0  0  0  0
  -22.4261   -8.0363   21.3569 C   0  0  0  0  0  0
  -21.9895   -9.0364   20.4691 C   0  0  0  0  0  0
  -22.7239  -10.2210   20.3089 C   0  0  0  0  0  0
  -21.6890   -6.0761   22.5275 C   0  0  0  0  0  0
  -21.4028   -6.5649   23.8210 C   0  0  0  0  0  0
  -21.3627   -5.6786   24.9166 C   0  0  0  0  0  0
  -21.6034   -4.3055   24.7209 C   0  0  0  0  0  0
  -21.8831   -3.8154   23.4340 C   0  0  0  0  0  0
  -21.9200   -4.6979   22.3393 C   0  0  0  0  0  0
  -22.7900  -13.5337   21.1781 C   0  0  0  0  0  0
  -22.1671   -4.2172   21.0974 F   0  0  0  0  0  0
  -21.5608   -3.4540   25.7722 F   0  0  0  0  0  0
  -30.0282  -13.2953   20.4593 N   0  0  0  0  0  0
  -26.3033  -12.9351   20.3298 N   0  0  0  0  0  0
  -25.9314  -11.6513   20.5708 N   0  0  0  0  0  0
  -22.0504  -12.8434   22.0345 N   0  0  0  0  0  0
  -25.4289  -15.1917   20.3923 N   0  0  0  0  0  0
  -31.7256  -14.7832   20.0975 O   0  0  0  0  0  0
  -21.6655   -6.8930   21.4250 O   0  0  0  0  0  0
  -22.3602  -14.5657   20.6605 O   0  0  0  0  0  0
  -24.6128  -31.8727   23.2092 C   0  0  0  0  0  0
  -25.9028  -32.4835   23.8396 C   0  0  1  0  0  0
  -27.2904  -27.5223   20.1033 C   0  0  0  0  0  0
  -25.5920  -33.8623   24.2399 N   0  0  0  0  0  0
  -23.3979  -30.4957   21.5440 C   0  0  2  0  0  0
  -24.8547  -28.9630   20.1100 C   0  0  0  0  0  0
  -22.7408  -29.4698   22.4925 C   0  0  0  0  0  0
  -18.0256  -28.1165   22.8816 C   0  0  0  0  0  0
  -24.1494  -36.7296   23.2651 C   0  0  0  0  0  0
  -25.9144  -30.8668   21.3474 C   0  0  0  0  0  0
  -25.9987  -29.5051   20.7049 C   0  0  0  0  0  0
  -27.2095  -28.8009   20.6971 C   0  0  0  0  0  0
  -26.1331  -26.9840   19.4952 C   0  0  0  0  0  0
  -24.9131  -27.6954   19.4956 C   0  0  0  0  0  0
  -23.6092  -29.8197   20.1573 C   0  0  0  0  0  0
  -25.4087  -36.3117   24.0384 C   0  0  1  0  0  0
  -20.5851  -28.3732   23.1207 C   0  0  2  0  0  0
  -20.6916  -26.9488   22.5220 C   0  0  0  0  0  0
  -19.5463  -26.5895   21.5661 C   0  0  0  0  0  0
  -18.2051  -26.7346   22.2863 C   0  0  0  0  0  0
  -19.1493  -28.8861   23.2801 C   0  0  0  0  0  0
  -18.9366  -30.1636   23.8458 C   0  0  0  0  0  0
  -17.6311  -30.6670   24.0108 C   0  0  0  0  0  0
  -25.9008  -34.9483   23.5201 C   0  0  0  0  0  0
  -16.5234  -29.8963   23.6153 C   0  0  0  0  0  0
  -16.7232  -28.6215   23.0591 C   0  0  0  0  0  0
  -26.4484  -31.6552   25.0669 C   0  0  0  0  0  0
  -25.3750  -31.3632   26.1431 C   0  0  0  0  0  0
  -27.0333  -30.3039   24.5953 C   0  0  0  0  0  0
  -27.6175  -32.4147   25.7357 C   0  0  0  0  0  0
  -27.5578  -37.1792   24.8474 C   0  0  0  0  0  0
  -21.4140  -29.3112   22.3661 N   0  0  0  0  0  0
  -26.4285  -37.3776   23.9434 N   0  0  0  0  0  0
  -24.6603  -31.0888   22.0968 N   0  0  0  0  0  0
  -23.4206  -28.8168   23.2893 O   0  0  0  0  0  0
  -28.4584  -26.7892   20.0944 O   0  0  0  0  0  0
  -26.5564  -34.8953   22.4758 O   0  0  0  0  0  0
  -23.5328  -32.1458   23.7505 O   0  0  0  0  0  0
  -29.0391  -18.8804   20.0590 C   0  0  0  0  0  0
  -29.1831  -17.4741   20.0928 C   0  0  0  0  0  0
  -30.5329  -17.6605   22.1072 C   0  0  0  0  0  0
  -29.5941  -19.6770   21.0849 C   0  0  0  0  0  0
  -29.9189  -16.8478   21.1270 C   0  0  0  0  0  0
  -30.3821  -19.0640   22.0831 C   0  0  0  0  0  0
  -27.8416  -22.6198   22.6513 C   0  0  0  0  0  0
  -29.2303  -21.1501   21.1991 C   0  0  0  0  0  0
  -27.8782  -21.3122   21.9270 C   0  0  0  0  0  0
  -29.1901  -25.6149   22.1140 C   0  0  0  0  0  0
  -27.7441  -25.1280   22.3422 C   0  0  0  0  0  0
  -29.3078  -26.8789   21.2519 C   0  0  0  0  0  0
  -28.0538  -22.6607   23.9781 N   0  0  0  0  0  0
  -29.8957  -15.4265   21.2726 N   0  0  0  0  0  0
  -27.6310  -23.7299   21.9299 N   0  3  0  0  0  0
  -30.9504  -19.8158   23.0600 F   0  0  0  0  0  0
  -31.4781  -12.5491   19.0792 H   0  0  0  0  0  0
  -30.4343  -11.3326   19.7494 H   0  0  0  0  0  0
  -29.7493  -11.8420   17.4082 H   0  0  0  0  0  0
  -29.6499  -13.5424   17.7610 H   0  0  0  0  0  0
  -27.8305  -11.3495   18.7832 H   0  0  0  0  0  0
  -27.3662  -12.7062   17.7862 H   0  0  0  0  0  0
  -27.7192  -14.2716   19.6380 H   0  0  0  0  0  0
  -28.6792  -11.8590   21.2210 H   0  0  0  0  0  0
  -28.4420  -13.4318   21.9169 H   0  0  0  0  0  0
  -25.2821   -9.5719   22.4733 H   0  0  0  0  0  0
  -24.0001   -7.4708   22.7538 H   0  0  0  0  0  0
  -21.0799   -8.8915   19.9043 H   0  0  0  0  0  0
  -22.3730  -10.9767   19.6191 H   0  0  0  0  0  0
  -21.2046   -7.6165   23.9706 H   0  0  0  0  0  0
  -21.1397   -6.0523   25.9046 H   0  0  0  0  0  0
  -22.0624   -2.7626   23.2832 H   0  0  0  0  0  0
  -22.4111  -12.0112   22.4783 H   0  0  0  0  0  0
  -21.1160  -13.1566   22.2553 H   0  0  0  0  0  0
  -24.6688  -15.8513   20.5184 H   0  0  0  0  0  0
  -26.2716  -15.6253   20.0404 H   0  0  0  0  0  0
  -26.7127  -32.5585   23.1197 H   0  0  0  0  0  0
  -25.0097  -33.9784   25.0577 H   0  0  0  0  0  0
  -22.6882  -31.3157   21.4037 H   0  0  0  0  0  0
  -23.3753  -35.9628   23.3333 H   0  0  0  0  0  0
  -24.3611  -36.8867   22.2064 H   0  0  0  0  0  0
  -23.7258  -37.6531   23.6602 H   0  0  0  0  0  0
  -26.0040  -31.6238   20.5665 H   0  0  0  0  0  0
  -26.8132  -30.9426   21.9453 H   0  0  0  0  0  0
  -28.0794  -29.2791   21.1282 H   0  0  0  0  0  0
  -26.1824  -26.0071   19.0365 H   0  0  0  0  0  0
  -24.0443  -27.2680   19.0159 H   0  0  0  0  0  0
  -23.7162  -30.5993   19.4024 H   0  0  0  0  0  0
  -22.7354  -29.2392   19.8535 H   0  0  0  0  0  0
  -25.1249  -36.1989   25.0865 H   0  0  0  0  0  0
  -20.9888  -28.3354   24.1371 H   0  0  0  0  0  0
  -20.6665  -26.2404   23.3496 H   0  0  0  0  0  0
  -21.6604  -26.7930   22.0451 H   0  0  0  0  0  0
  -19.6651  -25.5628   21.2170 H   0  0  0  0  0  0
  -19.5662  -27.2338   20.6853 H   0  0  0  0  0  0
  -17.3775  -26.4792   21.6242 H   0  0  0  0  0  0
  -18.1664  -26.0293   23.1206 H   0  0  0  0  0  0
  -19.7835  -30.7680   24.1397 H   0  0  0  0  0  0
  -17.4802  -31.6510   24.4308 H   0  0  0  0  0  0
  -15.5184  -30.2741   23.7409 H   0  0  0  0  0  0
  -15.8715  -28.0224   22.7647 H   0  0  0  0  0  0
  -24.5996  -30.6896   25.7766 H   0  0  0  0  0  0
  -24.8836  -32.2788   26.4767 H   0  0  0  0  0  0
  -25.8122  -30.8907   27.0258 H   0  0  0  0  0  0
  -26.2889  -29.6681   24.1196 H   0  0  0  0  0  0
  -27.4460  -29.7329   25.4280 H   0  0  0  0  0  0
  -27.8504  -30.4461   23.8876 H   0  0  0  0  0  0
  -27.3010  -33.3485   26.2003 H   0  0  0  0  0  0
  -28.3936  -32.6615   25.0090 H   0  0  0  0  0  0
  -28.0900  -31.8175   26.5178 H   0  0  0  0  0  0
  -28.2619  -38.0060   24.7494 H   0  0  0  0  0  0
  -28.1067  -36.2626   24.6307 H   0  0  0  0  0  0
  -27.2330  -37.1445   25.8883 H   0  0  0  0  0  0
  -20.9310  -29.8830   21.6870 H   0  0  0  0  0  0
  -26.0199  -38.2865   24.1420 H   0  0  0  0  0  0
  -28.4563  -19.3399   19.2720 H   0  0  0  0  0  0
  -28.6815  -16.8848   19.3386 H   0  0  0  0  0  0
  -31.0788  -17.2048   22.9176 H   0  0  0  0  0  0
  -29.2270  -21.6383   20.2214 H   0  0  0  0  0  0
  -29.9964  -21.6657   21.7790 H   0  0  0  0  0  0
  -27.0356  -21.2281   21.2418 H   0  0  0  0  0  0
  -27.7536  -20.5136   22.6596 H   0  0  0  0  0  0
  -29.7869  -24.8305   21.6443 H   0  0  0  0  0  0
  -29.6659  -25.7922   23.0816 H   0  0  0  0  0  0
  -27.0397  -25.6652   21.7154 H   0  0  0  0  0  0
  -27.3991  -25.3077   23.3590 H   0  0  0  0  0  0
  -29.1424  -27.7328   21.9012 H   0  0  0  0  0  0
  -30.3436  -26.9789   20.9237 H   0  0  0  0  0  0
  -28.2001  -21.8059   24.5041 H   0  0  0  0  0  0
  -28.0046  -23.5122   24.5142 H   0  0  0  0  0  0
  -29.0655  -15.0534   21.7057 H   0  0  0  0  0  0
  -27.4365  -23.6061   20.9466 H   0  0  0  0  0  0
  1 25  1  0  0  0
  1 30  2  0  0  0
  1 84  1  0  0  0
  2  3  1  0  0  0
  2 25  1  0  0  0
  2 87  1  0  0  0
  2 88  1  0  0  0
  3  4  1  0  0  0
  3 89  1  0  0  0
  3 90  1  0  0  0
  4  5  1  0  0  0
  4 91  1  0  0  0
  4 92  1  0  0  0
  5  6  1  0  0  0
  5 26  1  0  0  0
  5 93  1  0  0  0
  6 25  1  0  0  0
  6 94  1  0  0  0
  6 95  1  0  0  0
  7  8  2  0  0  0
  7 26  1  0  0  0
  7 29  1  0  0  0
  8  9  1  0  0  0
  8 22  1  0  0  0
  9 10  1  0  0  0
  9 27  2  0  0  0
 10 11  2  0  0  0
 10 15  1  0  0  0
 11 12  1  0  0  0
 11 96  1  0  0  0
 12 13  2  0  0  0
 12 97  1  0  0  0
 13 14  1  0  0  0
 13 31  1  0  0  0
 14 15  2  0  0  0
 14 98  1  0  0  0
 15 99  1  0  0  0
 16 17  2  0  0  0
 16 21  1  0  0  0
 16 31  1  0  0  0
 17 18  1  0  0  0
 17100  1  0  0  0
 18 19  2  0  0  0
 18101  1  0  0  0
 19 20  1  0  0  0
 19 24  1  0  0  0
 20 21  2  0  0  0
 20102  1  0  0  0
 21 23  1  0  0  0
 22 28  1  0  0  0
 22 32  2  0  0  0
 26 27  1  0  0  0
 28103  1  0  0  0
 28104  1  0  0  0
 29105  1  0  0  0
 29106  1  0  0  0
 33 34  1  0  0  0
 33 66  1  0  0  0
 33 70  2  0  0  0
 34 36  1  0  0  0
 34 59  1  0  0  0
 34107  1  0  0  0
 35 44  2  0  0  0
 35 45  1  0  0  0
 35 68  1  0  0  0
 36 56  1  0  0  0
 36108  1  0  0  0
 37 39  1  0  0  0
 37 47  1  0  0  0
 37 66  1  0  0  0
 37109  1  0  0  0
 38 43  2  0  0  0
 38 46  1  0  0  0
 38 47  1  0  0  0
 39 64  1  0  0  0
 39 67  2  0  0  0
 40 52  1  0  0  0
 40 53  2  0  0  0
 40 58  1  0  0  0
 41110  1  0  0  0
 41111  1  0  0  0
 41112  1  0  0  0
 41 48  1  0  0  0
 42 43  1  0  0  0
 42 66  1  0  0  0
 42113  1  0  0  0
 42114  1  0  0  0
 43 44  1  0  0  0
 44115  1  0  0  0
 45 46  2  0  0  0
 45116  1  0  0  0
 46117  1  0  0  0
 47118  1  0  0  0
 47119  1  0  0  0
 48 56  1  0  0  0
 48 65  1  0  0  0
 48120  1  0  0  0
 49 50  1  0  0  0
 49 53  1  0  0  0
 49 64  1  0  0  0
 49121  1  0  0  0
 50 51  1  0  0  0
 50122  1  0  0  0
 50123  1  0  0  0
 51 52  1  0  0  0
 51124  1  0  0  0
 51125  1  0  0  0
 52126  1  0  0  0
 52127  1  0  0  0
 53 54  1  0  0  0
 54 55  2  0  0  0
 54128  1  0  0  0
 55 57  1  0  0  0
 55129  1  0  0  0
 56 69  2  0  0  0
 57 58  2  0  0  0
 57130  1  0  0  0
 58131  1  0  0  0
 59 60  1  0  0  0
 59 61  1  0  0  0
 59 62  1  0  0  0
 60132  1  0  0  0
 60133  1  0  0  0
 60134  1  0  0  0
 61135  1  0  0  0
 61136  1  0  0  0
 61137  1  0  0  0
 62138  1  0  0  0
 62139  1  0  0  0
 62140  1  0  0  0
 63 65  1  0  0  0
 63141  1  0  0  0
 63142  1  0  0  0
 63143  1  0  0  0
 64144  1  0  0  0
 65145  1  0  0  0
 68 82  1  0  0  0
 71 72  2  0  0  0
 71 74  1  0  0  0
 71146  1  0  0  0
 72 75  1  0  0  0
 72147  1  0  0  0
 73 75  2  0  0  0
 73 76  1  0  0  0
 73148  1  0  0  0
 74 76  2  0  0  0
 74 78  1  0  0  0
 75 84  1  0  0  0
 76 86  1  0  0  0
 77 79  1  0  0  0
 77 83  1  0  0  0
 77 85  2  0  0  0
 78 79  1  0  0  0
 78149  1  0  0  0
 78150  1  0  0  0
 79151  1  0  0  0
 79152  1  0  0  0
 80 81  1  0  0  0
 80 82  1  0  0  0
 80153  1  0  0  0
 80154  1  0  0  0
 81 85  1  0  0  0
 81155  1  0  0  0
 81156  1  0  0  0
 82157  1  0  0  0
 82158  1  0  0  0
 83159  1  0  0  0
 83160  1  0  0  0
 84161  1  0  0  0
 85162  1  0  0  0
M  CHG  1  85   1
M  ISO  4   1 100  68 101  82 101  84 100
M  END
> <chiral flag>
0

> <version>
0

> <s_m_source_file>
/data/baiqing/PycharmProjects/Reinvent-master-3.2/result/LINK_invent/BTK/process_docking_weight1_custom_product_contain_oxygen_bond_distance_aromatic_linkinvent_7_9_3/rearranged_h_0100.sdf

> <i_m_source_file_index>
94

> <r_mmod_Potential_Energy-OPLS-2005>
-67.2897186279297

> <r_mmod_Stretch_Energy-OPLS-2005>
35.5555229187012

> <r_mmod_Bend_Energy-OPLS-2005>
102.15739440918

> <r_mmod_Torsional_Energy-OPLS-2005>
266.503784179688

> <r_mmod_Improper_Torsional_Energy-OPLS-2005>
5.17339086532593

> <r_mmod_Van_der_Waal_Energy-OPLS-2005>
156.328247070312

> <r_mmod_Electrostatic_Energy-OPLS-2005>
-217.387802124023

> <r_mmod_Solvation_Energy-OPLS-2005>
-434.136993408203

> <b_mmod_Minimization_Converged-OPLS-2005>
0

> <r_mmod_RMS_Derivative-OPLS-2005>
9.31052017211914

$$$$
95
                    3D
 Structure written by MMmdl.
157165  0  0  1  0            999 V2000
  -30.7469  -14.4027   20.5872 C   0  0  0  0  0  0
  -30.4098  -12.2686   19.4171 C   0  0  0  0  0  0
  -29.4882  -12.4937   18.2023 C   0  0  0  0  0  0
  -28.0081  -12.3643   18.6129 C   0  0  0  0  0  0
  -27.6610  -13.1999   19.8736 C   0  0  2  0  0  0
  -28.7031  -12.9750   20.9943 C   0  0  0  0  0  0
  -25.2597  -13.8147   20.5678 C   0  0  0  0  0  0
  -24.1842  -13.0431   20.9179 C   0  0  0  0  0  0
  -24.6382  -11.6895   20.8746 C   0  0  0  0  0  0
  -23.9044  -10.4283   21.0412 C   0  0  0  0  0  0
  -24.3597   -9.4201   21.9194 C   0  0  0  0  0  0
  -23.6269   -8.2236   22.0763 C   0  0  0  0  0  0
  -22.4250   -8.0272   21.3554 C   0  0  0  0  0  0
  -21.9888   -9.0248   20.4657 C   0  0  0  0  0  0
  -22.7214  -10.2127   20.3066 C   0  0  0  0  0  0
  -21.6850   -6.0717   22.5279 C   0  0  0  0  0  0
  -21.4008   -6.5627   23.8209 C   0  0  0  0  0  0
  -21.3663   -5.6788   24.9177 C   0  0  0  0  0  0
  -21.6049   -4.3050   24.7231 C   0  0  0  0  0  0
  -21.8820   -3.8137   23.4353 C   0  0  0  0  0  0
  -21.9195   -4.6948   22.3405 C   0  0  0  0  0  0
  -22.7871  -13.5250   21.1829 C   0  0  0  0  0  0
  -22.1663   -4.2135   21.0983 F   0  0  0  0  0  0
  -21.5640   -3.4532   25.7748 F   0  0  0  0  0  0
  -30.0375  -13.2548   20.4397 N   0  0  0  0  0  0
  -26.3025  -12.9302   20.3372 N   0  0  0  0  0  0
  -25.9306  -11.6471   20.5773 N   0  0  0  0  0  0
  -22.0497  -12.8257   22.0382 N   0  0  0  0  0  0
  -25.4330  -15.1858   20.4053 N   0  0  0  0  0  0
  -31.8845  -14.5341   20.1261 O   0  0  0  0  0  0
  -21.6640   -6.8851   21.4235 O   0  0  0  0  0  0
  -22.3565  -14.5558   20.6679 O   0  0  0  0  0  0
  -24.6104  -31.8718   23.2113 C   0  0  0  0  0  0
  -25.9007  -32.4840   23.8418 C   0  0  1  0  0  0
  -27.2338  -27.4821   20.0784 C   0  0  0  0  0  0
  -25.5896  -33.8644   24.2349 N   0  0  0  0  0  0
  -23.3968  -30.4956   21.5519 C   0  0  2  0  0  0
  -24.8432  -28.9668   20.1121 C   0  0  0  0  0  0
  -22.7389  -29.4683   22.4998 C   0  0  0  0  0  0
  -18.0284  -28.1376   22.8496 C   0  0  0  0  0  0
  -24.1480  -36.7328   23.2634 C   0  0  0  0  0  0
  -25.9208  -30.8521   21.3549 C   0  0  0  0  0  0
  -26.0009  -29.4890   20.7036 C   0  0  0  0  0  0
  -27.2014  -28.7508   20.6898 C   0  0  0  0  0  0
  -26.0672  -26.9621   19.4815 C   0  0  0  0  0  0
  -24.8684  -27.6981   19.5048 C   0  0  0  0  0  0
  -23.6007  -29.8260   20.1666 C   0  0  0  0  0  0
  -25.4102  -36.3121   24.0329 C   0  0  1  0  0  0
  -20.5868  -28.3654   23.1321 C   0  0  2  0  0  0
  -20.6766  -26.9385   22.5424 C   0  0  0  0  0  0
  -19.5742  -26.6375   21.5222 C   0  0  0  0  0  0
  -18.1920  -26.7918   22.1623 C   0  0  0  0  0  0
  -19.1529  -28.8835   23.2906 C   0  0  0  0  0  0
  -18.9445  -30.1445   23.8906 C   0  0  0  0  0  0
  -17.6443  -30.6570   24.0574 C   0  0  0  0  0  0
  -25.9030  -34.9478   23.5126 C   0  0  0  0  0  0
  -16.5343  -29.9079   23.6321 C   0  0  0  0  0  0
  -16.7271  -28.6503   23.0337 C   0  0  0  0  0  0
  -26.4457  -31.6605   25.0728 C   0  0  0  0  0  0
  -25.3749  -31.3699   26.1503 C   0  0  0  0  0  0
  -27.0296  -30.3059   24.6067 C   0  0  0  0  0  0
  -27.6035  -32.4323   25.7487 C   0  0  0  0  0  0
  -27.5568  -37.1819   24.8464 C   0  0  0  0  0  0
  -21.4120  -29.3032   22.3729 N   0  0  0  0  0  0
  -26.4292  -37.3801   23.9404 N   0  0  0  0  0  0
  -24.6619  -31.0861   22.0987 N   0  0  0  0  0  0
  -23.4179  -28.8217   23.3012 O   0  0  0  0  0  0
  -28.3838  -26.7408   20.0887 O   0  0  0  0  0  0
  -26.5580  -34.8908   22.4677 O   0  0  0  0  0  0
  -23.5304  -32.1463   23.7521 O   0  0  0  0  0  0
  -28.3643  -17.5378   20.0720 C   0  0  0  0  0  0
  -27.4789  -18.5795   19.7313 C   0  0  0  0  0  0
  -28.7268  -20.0861   21.1707 C   0  0  0  0  0  0
  -29.4343  -17.7581   20.9736 C   0  0  0  0  0  0
  -27.6736  -19.8742   20.2531 C   0  0  0  0  0  0
  -29.5887  -19.0421   21.5447 C   0  0  0  0  0  0
  -30.4770  -16.6967   21.1906 C   0  0  0  0  0  0
  -27.4127  -23.1798   20.7323 C   0  0  0  0  0  0
  -28.4926  -24.3020   20.5982 C   0  0  0  0  0  0
  -27.5072  -22.1954   19.5505 C   0  0  0  0  0  0
  -28.3914  -25.7591   21.1310 C   0  0  0  0  0  0
  -26.8445  -20.9224   19.8196 N   0  0  0  0  0  0
  -30.0423  -15.4296   21.0853 N   0  0  0  0  0  0
  -31.6503  -17.0149   21.4147 O   0  0  0  0  0  0
  -30.5763  -19.3083   22.4353 F   0  0  0  0  0  0
  -31.4548  -12.3441   19.1141 H   0  0  0  0  0  0
  -30.2886  -11.2595   19.8158 H   0  0  0  0  0  0
  -29.7214  -11.7788   17.4123 H   0  0  0  0  0  0
  -29.6668  -13.4830   17.7768 H   0  0  0  0  0  0
  -27.8088  -11.3090   18.8048 H   0  0  0  0  0  0
  -27.3596  -12.6526   17.7834 H   0  0  0  0  0  0
  -27.7043  -14.2457   19.5728 H   0  0  0  0  0  0
  -28.6722  -11.9408   21.3434 H   0  0  0  0  0  0
  -28.4746  -13.5841   21.8703 H   0  0  0  0  0  0
  -25.2730   -9.5692   22.4784 H   0  0  0  0  0  0
  -23.9990   -7.4632   22.7477 H   0  0  0  0  0  0
  -21.0833   -8.8760   19.8960 H   0  0  0  0  0  0
  -22.3666  -10.9673   19.6196 H   0  0  0  0  0  0
  -21.1992   -7.6133   23.9704 H   0  0  0  0  0  0
  -21.1490   -6.0525   25.9088 H   0  0  0  0  0  0
  -22.0601   -2.7594   23.2865 H   0  0  0  0  0  0
  -22.4073  -11.9898   22.4758 H   0  0  0  0  0  0
  -21.1143  -13.1360   22.2601 H   0  0  0  0  0  0
  -24.6693  -15.8434   20.5154 H   0  0  0  0  0  0
  -26.2787  -15.6208   20.0646 H   0  0  0  0  0  0
  -26.7089  -32.5568   23.1197 H   0  0  0  0  0  0
  -25.0109  -33.9832   25.0532 H   0  0  0  0  0  0
  -22.6844  -31.3112   21.4122 H   0  0  0  0  0  0
  -23.3722  -35.9676   23.3321 H   0  0  0  0  0  0
  -24.3577  -36.8920   22.2046 H   0  0  0  0  0  0
  -23.7244  -37.6536   23.6646 H   0  0  0  0  0  0
  -26.0246  -31.6168   20.5837 H   0  0  0  0  0  0
  -26.8116  -30.9091   21.9684 H   0  0  0  0  0  0
  -28.0975  -29.1467   21.1484 H   0  0  0  0  0  0
  -26.0814  -25.9918   19.0079 H   0  0  0  0  0  0
  -23.9762  -27.2875   19.0551 H   0  0  0  0  0  0
  -23.7006  -30.5998   19.4047 H   0  0  0  0  0  0
  -22.7261  -29.2415   19.8745 H   0  0  0  0  0  0
  -25.1272  -36.1997   25.0819 H   0  0  0  0  0  0
  -20.9990  -28.3217   24.1430 H   0  0  0  0  0  0
  -20.5668  -26.2257   23.3613 H   0  0  0  0  0  0
  -21.6632  -26.7427   22.1206 H   0  0  0  0  0  0
  -19.6889  -25.6298   21.1227 H   0  0  0  0  0  0
  -19.6669  -27.3206   20.6768 H   0  0  0  0  0  0
  -17.4197  -26.6694   21.4019 H   0  0  0  0  0  0
  -18.0287  -26.0063   22.9014 H   0  0  0  0  0  0
  -19.7926  -30.7273   24.2248 H   0  0  0  0  0  0
  -17.5004  -31.6242   24.5189 H   0  0  0  0  0  0
  -15.5346  -30.2980   23.7634 H   0  0  0  0  0  0
  -15.8679  -28.0835   22.7019 H   0  0  0  0  0  0
  -24.5911  -30.7046   25.7861 H   0  0  0  0  0  0
  -24.8952  -32.2852   26.4984 H   0  0  0  0  0  0
  -25.8123  -30.8862   27.0248 H   0  0  0  0  0  0
  -26.2830  -29.6814   24.1153 H   0  0  0  0  0  0
  -27.4127  -29.7293   25.4494 H   0  0  0  0  0  0
  -27.8619  -30.4399   23.9154 H   0  0  0  0  0  0
  -27.2654  -33.3611   26.2089 H   0  0  0  0  0  0
  -28.3818  -32.6917   25.0300 H   0  0  0  0  0  0
  -28.0736  -31.8451   26.5384 H   0  0  0  0  0  0
  -28.2612  -38.0099   24.7498 H   0  0  0  0  0  0
  -28.1032  -36.2630   24.6298 H   0  0  0  0  0  0
  -27.2284  -37.1465   25.8868 H   0  0  0  0  0  0
  -20.9269  -29.8785   21.6991 H   0  0  0  0  0  0
  -26.0174  -38.2863   24.1421 H   0  0  0  0  0  0
  -28.2357  -16.5790   19.5929 H   0  0  0  0  0  0
  -26.6852  -18.3777   19.0250 H   0  0  0  0  0  0
  -28.9210  -21.0556   21.5938 H   0  0  0  0  0  0
  -26.3983  -23.5881   20.7950 H   0  0  0  0  0  0
  -27.5001  -22.6116   21.6642 H   0  0  0  0  0  0
  -28.6044  -24.1335   21.6716 H   0  0  0  0  0  0
  -27.7644  -24.6637   19.8749 H   0  0  0  0  0  0
  -28.5557  -22.0203   19.2974 H   0  0  0  0  0  0
  -27.0646  -22.6430   18.6585 H   0  0  0  0  0  0
  -29.2578  -26.0047   21.7511 H   0  0  0  0  0  0
  -27.5197  -25.8631   21.7889 H   0  0  0  0  0  0
  -26.1276  -20.6642   19.1442 H   0  0  0  0  0  0
  -29.0592  -15.2709   21.2141 H   0  0  0  0  0  0
  1 25  1  0  0  0
  1 30  2  0  0  0
  1 83  1  0  0  0
  2  3  1  0  0  0
  2 25  1  0  0  0
  2 86  1  0  0  0
  2 87  1  0  0  0
  3  4  1  0  0  0
  3 88  1  0  0  0
  3 89  1  0  0  0
  4  5  1  0  0  0
  4 90  1  0  0  0
  4 91  1  0  0  0
  5  6  1  0  0  0
  5 26  1  0  0  0
  5 92  1  0  0  0
  6 25  1  0  0  0
  6 93  1  0  0  0
  6 94  1  0  0  0
  7  8  2  0  0  0
  7 26  1  0  0  0
  7 29  1  0  0  0
  8  9  1  0  0  0
  8 22  1  0  0  0
  9 10  1  0  0  0
  9 27  2  0  0  0
 10 11  2  0  0  0
 10 15  1  0  0  0
 11 12  1  0  0  0
 11 95  1  0  0  0
 12 13  2  0  0  0
 12 96  1  0  0  0
 13 14  1  0  0  0
 13 31  1  0  0  0
 14 15  2  0  0  0
 14 97  1  0  0  0
 15 98  1  0  0  0
 16 17  2  0  0  0
 16 21  1  0  0  0
 16 31  1  0  0  0
 17 18  1  0  0  0
 17 99  1  0  0  0
 18 19  2  0  0  0
 18100  1  0  0  0
 19 20  1  0  0  0
 19 24  1  0  0  0
 20 21  2  0  0  0
 20101  1  0  0  0
 21 23  1  0  0  0
 22 28  1  0  0  0
 22 32  2  0  0  0
 26 27  1  0  0  0
 28102  1  0  0  0
 28103  1  0  0  0
 29104  1  0  0  0
 29105  1  0  0  0
 33 34  1  0  0  0
 33 66  1  0  0  0
 33 70  2  0  0  0
 34 36  1  0  0  0
 34 59  1  0  0  0
 34106  1  0  0  0
 35 44  2  0  0  0
 35 45  1  0  0  0
 35 68  1  0  0  0
 36 56  1  0  0  0
 36107  1  0  0  0
 37 39  1  0  0  0
 37 47  1  0  0  0
 37 66  1  0  0  0
 37108  1  0  0  0
 38 43  2  0  0  0
 38 46  1  0  0  0
 38 47  1  0  0  0
 39 64  1  0  0  0
 39 67  2  0  0  0
 40 52  1  0  0  0
 40 53  2  0  0  0
 40 58  1  0  0  0
 41109  1  0  0  0
 41110  1  0  0  0
 41111  1  0  0  0
 41 48  1  0  0  0
 42 43  1  0  0  0
 42 66  1  0  0  0
 42112  1  0  0  0
 42113  1  0  0  0
 43 44  1  0  0  0
 44114  1  0  0  0
 45 46  2  0  0  0
 45115  1  0  0  0
 46116  1  0  0  0
 47117  1  0  0  0
 47118  1  0  0  0
 48 56  1  0  0  0
 48 65  1  0  0  0
 48119  1  0  0  0
 49 50  1  0  0  0
 49 53  1  0  0  0
 49 64  1  0  0  0
 49120  1  0  0  0
 50 51  1  0  0  0
 50121  1  0  0  0
 50122  1  0  0  0
 51 52  1  0  0  0
 51123  1  0  0  0
 51124  1  0  0  0
 52125  1  0  0  0
 52126  1  0  0  0
 53 54  1  0  0  0
 54 55  2  0  0  0
 54127  1  0  0  0
 55 57  1  0  0  0
 55128  1  0  0  0
 56 69  2  0  0  0
 57 58  2  0  0  0
 57129  1  0  0  0
 58130  1  0  0  0
 59 60  1  0  0  0
 59 61  1  0  0  0
 59 62  1  0  0  0
 60131  1  0  0  0
 60132  1  0  0  0
 60133  1  0  0  0
 61134  1  0  0  0
 61135  1  0  0  0
 61136  1  0  0  0
 62137  1  0  0  0
 62138  1  0  0  0
 62139  1  0  0  0
 63 65  1  0  0  0
 63140  1  0  0  0
 63141  1  0  0  0
 63142  1  0  0  0
 64143  1  0  0  0
 65144  1  0  0  0
 68 81  1  0  0  0
 71 72  2  0  0  0
 71 74  1  0  0  0
 71145  1  0  0  0
 72 75  1  0  0  0
 72146  1  0  0  0
 73 75  2  0  0  0
 73 76  1  0  0  0
 73147  1  0  0  0
 74 76  2  0  0  0
 74 77  1  0  0  0
 75 82  1  0  0  0
 76 85  1  0  0  0
 77 83  1  0  0  0
 77 84  2  0  0  0
 78 79  1  0  0  0
 78 80  1  0  0  0
 78148  1  0  0  0
 78149  1  0  0  0
 79 81  1  0  0  0
 79150  1  0  0  0
 79151  1  0  0  0
 80 82  1  0  0  0
 80152  1  0  0  0
 80153  1  0  0  0
 81154  1  0  0  0
 81155  1  0  0  0
 82156  1  0  0  0
 83157  1  0  0  0
M  ISO  4   1 100  68 101  81 101  83 100
M  END
> <chiral flag>
0

> <version>
0

> <s_m_source_file>
/data/baiqing/PycharmProjects/Reinvent-master-3.2/result/LINK_invent/BTK/process_docking_weight1_custom_product_contain_oxygen_bond_distance_aromatic_linkinvent_7_9_3/rearranged_h_0100.sdf

> <i_m_source_file_index>
95

> <r_mmod_Potential_Energy-OPLS-2005>
182.096435546875

> <r_mmod_Stretch_Energy-OPLS-2005>
33.7700881958008

> <r_mmod_Bend_Energy-OPLS-2005>
313.47900390625

> <r_mmod_Torsional_Energy-OPLS-2005>
267.453033447266

> <r_mmod_Improper_Torsional_Energy-OPLS-2005>
9.17715930938721

> <r_mmod_Van_der_Waal_Energy-OPLS-2005>
185.788436889648

> <r_mmod_Electrostatic_Energy-OPLS-2005>
-402.592590332031

> <r_mmod_Solvation_Energy-OPLS-2005>
-236.464950561523

> <b_mmod_Minimization_Converged-OPLS-2005>
0

> <r_mmod_RMS_Derivative-OPLS-2005>
2.37921953201294

$$$$
96
                    3D
 Structure written by MMmdl.
159167  0  0  1  0            999 V2000
  -30.7534  -14.4080   20.6294 C   0  0  0  0  0  0
  -30.4190  -12.2859   19.4254 C   0  0  0  0  0  0
  -29.4962  -12.5151   18.2125 C   0  0  0  0  0  0
  -28.0174  -12.3769   18.6203 C   0  0  0  0  0  0
  -27.6670  -13.2070   19.8841 C   0  0  2  0  0  0
  -28.7046  -12.9709   21.0059 C   0  0  0  0  0  0
  -25.2607  -13.8168   20.5673 C   0  0  0  0  0  0
  -24.1841  -13.0450   20.9167 C   0  0  0  0  0  0
  -24.6398  -11.6911   20.8721 C   0  0  0  0  0  0
  -23.9063  -10.4297   21.0397 C   0  0  0  0  0  0
  -24.3619   -9.4212   21.9179 C   0  0  0  0  0  0
  -23.6296   -8.2248   22.0750 C   0  0  0  0  0  0
  -22.4279   -8.0285   21.3541 C   0  0  0  0  0  0
  -21.9909   -9.0258   20.4641 C   0  0  0  0  0  0
  -22.7237  -10.2139   20.3048 C   0  0  0  0  0  0
  -21.6853   -6.0745   22.5279 C   0  0  0  0  0  0
  -21.4015   -6.5643   23.8217 C   0  0  0  0  0  0
  -21.3657   -5.6794   24.9175 C   0  0  0  0  0  0
  -21.6043   -4.3057   24.7224 C   0  0  0  0  0  0
  -21.8819   -3.8151   23.4345 C   0  0  0  0  0  0
  -21.9194   -4.6971   22.3403 C   0  0  0  0  0  0
  -22.7872  -13.5243   21.1835 C   0  0  0  0  0  0
  -22.1661   -4.2157   21.0980 F   0  0  0  0  0  0
  -21.5628   -3.4541   25.7736 F   0  0  0  0  0  0
  -30.0480  -13.2555   20.4686 N   0  0  0  0  0  0
  -26.3048  -12.9340   20.3400 N   0  0  0  0  0  0
  -25.9324  -11.6499   20.5771 N   0  0  0  0  0  0
  -22.0505  -12.8238   22.0391 N   0  0  0  0  0  0
  -25.4327  -15.1884   20.4079 N   0  0  0  0  0  0
  -31.8243  -14.6061   20.0559 O   0  0  0  0  0  0
  -21.6637   -6.8886   21.4241 O   0  0  0  0  0  0
  -22.3550  -14.5550   20.6673 O   0  0  0  0  0  0
  -24.6143  -31.8669   23.2012 C   0  0  0  0  0  0
  -25.9043  -32.4802   23.8344 C   0  0  1  0  0  0
  -27.2620  -27.4630   20.1147 C   0  0  0  0  0  0
  -25.5878  -33.8583   24.2296 N   0  0  0  0  0  0
  -23.4045  -30.4861   21.5385 C   0  0  2  0  0  0
  -24.8531  -28.9402   20.1256 C   0  0  0  0  0  0
  -22.7442  -29.4679   22.4979 C   0  0  0  0  0  0
  -18.0312  -28.1416   22.8474 C   0  0  0  0  0  0
  -24.1491  -36.7316   23.2648 C   0  0  0  0  0  0
  -25.9231  -30.8508   21.3396 C   0  0  0  0  0  0
  -26.0067  -29.4786   20.7052 C   0  0  0  0  0  0
  -27.2136  -28.7530   20.6857 C   0  0  0  0  0  0
  -26.0876  -26.9233   19.5415 C   0  0  0  0  0  0
  -24.8836  -27.6579   19.5471 C   0  0  0  0  0  0
  -23.6130  -29.7986   20.1610 C   0  0  0  0  0  0
  -25.4105  -36.3093   24.0356 C   0  0  1  0  0  0
  -20.5904  -28.3694   23.1305 C   0  0  2  0  0  0
  -20.6805  -26.9428   22.5421 C   0  0  0  0  0  0
  -19.5771  -26.6417   21.5227 C   0  0  0  0  0  0
  -18.1948  -26.7959   22.1636 C   0  0  0  0  0  0
  -19.1564  -28.8879   23.2879 C   0  0  0  0  0  0
  -18.9487  -30.1492   23.8883 C   0  0  0  0  0  0
  -17.6484  -30.6590   24.0584 C   0  0  0  0  0  0
  -25.9042  -34.9456   23.5116 C   0  0  0  0  0  0
  -16.5378  -29.9103   23.6332 C   0  0  0  0  0  0
  -16.7306  -28.6546   23.0307 C   0  0  0  0  0  0
  -26.4453  -31.6562   25.0668 C   0  0  0  0  0  0
  -25.3726  -31.3676   26.1447 C   0  0  0  0  0  0
  -27.0307  -30.3017   24.6008 C   0  0  0  0  0  0
  -27.6043  -32.4278   25.7430 C   0  0  0  0  0  0
  -27.5583  -37.1804   24.8470 C   0  0  0  0  0  0
  -21.4178  -29.3033   22.3691 N   0  0  0  0  0  0
  -26.4290  -37.3777   23.9420 N   0  0  0  0  0  0
  -24.6653  -31.0854   22.0837 N   0  0  0  0  0  0
  -23.4219  -28.8248   23.3047 O   0  0  0  0  0  0
  -28.4753  -26.8070   20.1082 O   0  0  0  0  0  0
  -26.5609  -34.8912   22.4678 O   0  0  0  0  0  0
  -23.5334  -32.1373   23.7425 O   0  0  0  0  0  0
  -31.5181  -18.8268   20.9058 C   0  0  0  0  0  0
  -31.4134  -17.4252   20.8008 C   0  0  0  0  0  0
  -29.6454  -18.8599   22.4492 C   0  0  0  0  0  0
  -30.6455  -19.5635   21.7364 C   0  0  0  0  0  0
  -30.4130  -16.7232   21.5159 C   0  0  0  0  0  0
  -29.5370  -17.4579   22.3426 C   0  0  0  0  0  0
  -30.7677  -21.0542   21.7604 C   0  0  0  0  0  0
  -29.5940  -24.1712   22.4334 C   0  0  0  0  0  0
  -28.3054  -26.2899   22.8856 C   0  0  0  0  0  0
  -30.3022  -21.8356   23.0024 C   0  0  0  0  0  0
  -28.5240  -25.4132   20.4356 C   0  0  0  0  0  0
  -28.4210  -25.0612   21.9585 C   0  0  1  0  0  0
  -30.1937  -15.3165   21.4467 N   0  0  0  0  0  0
  -29.3365  -22.8682   22.6142 N   0  0  0  0  0  0
  -31.2559  -21.6879   20.8167 O   0  0  0  0  0  0
  -30.7011  -24.6615   22.6609 O   0  0  0  0  0  0
  -28.5645  -16.8060   23.0241 F   0  0  0  0  0  0
  -31.4652  -12.3717   19.1265 H   0  0  0  0  0  0
  -30.3097  -11.2704   19.8118 H   0  0  0  0  0  0
  -29.7358  -11.8033   17.4228 H   0  0  0  0  0  0
  -29.6744  -13.5077   17.7960 H   0  0  0  0  0  0
  -27.8192  -11.3194   18.8048 H   0  0  0  0  0  0
  -27.3723  -12.6657   17.7896 H   0  0  0  0  0  0
  -27.7206  -14.2578   19.5997 H   0  0  0  0  0  0
  -28.6654  -11.9319   21.3389 H   0  0  0  0  0  0
  -28.4555  -13.5641   21.8874 H   0  0  0  0  0  0
  -25.2769   -9.5692   22.4750 H   0  0  0  0  0  0
  -24.0012   -7.4636   22.7462 H   0  0  0  0  0  0
  -21.0851   -8.8777   19.8942 H   0  0  0  0  0  0
  -22.3704  -10.9677   19.6154 H   0  0  0  0  0  0
  -21.2003   -7.6152   23.9724 H   0  0  0  0  0  0
  -21.1479   -6.0522   25.9083 H   0  0  0  0  0  0
  -22.0598   -2.7613   23.2842 H   0  0  0  0  0  0
  -22.4119  -11.9908   22.4799 H   0  0  0  0  0  0
  -21.1114  -13.1251   22.2576 H   0  0  0  0  0  0
  -24.6725  -15.8503   20.5202 H   0  0  0  0  0  0
  -26.2993  -15.6269   20.1210 H   0  0  0  0  0  0
  -26.7126  -32.5506   23.1121 H   0  0  0  0  0  0
  -25.0000  -33.9712   25.0434 H   0  0  0  0  0  0
  -22.6957  -31.2983   21.3815 H   0  0  0  0  0  0
  -23.3720  -35.9676   23.3310 H   0  0  0  0  0  0
  -24.3613  -36.8931   22.2065 H   0  0  0  0  0  0
  -23.7267  -37.6538   23.6647 H   0  0  0  0  0  0
  -26.0308  -31.6089   20.5615 H   0  0  0  0  0  0
  -26.8128  -30.9113   21.9527 H   0  0  0  0  0  0
  -28.1056  -29.1814   21.1191 H   0  0  0  0  0  0
  -26.0967  -25.9521   19.0713 H   0  0  0  0  0  0
  -23.9930  -27.2321   19.1040 H   0  0  0  0  0  0
  -23.7199  -30.5498   19.3781 H   0  0  0  0  0  0
  -22.7437  -29.2027   19.8741 H   0  0  0  0  0  0
  -25.1268  -36.1958   25.0848 H   0  0  0  0  0  0
  -21.0021  -28.3262   24.1423 H   0  0  0  0  0  0
  -20.5741  -26.2297   23.3613 H   0  0  0  0  0  0
  -21.6664  -26.7469   22.1176 H   0  0  0  0  0  0
  -19.6919  -25.6339   21.1242 H   0  0  0  0  0  0
  -19.6716  -27.3220   20.6743 H   0  0  0  0  0  0
  -17.4237  -26.6736   21.4021 H   0  0  0  0  0  0
  -18.0317  -26.0103   22.9031 H   0  0  0  0  0  0
  -19.7964  -30.7323   24.2234 H   0  0  0  0  0  0
  -17.5036  -31.6261   24.5213 H   0  0  0  0  0  0
  -15.5380  -30.3000   23.7660 H   0  0  0  0  0  0
  -15.8716  -28.0888   22.6958 H   0  0  0  0  0  0
  -24.5874  -30.7062   25.7771 H   0  0  0  0  0  0
  -24.8963  -32.2849   26.4921 H   0  0  0  0  0  0
  -25.8101  -30.8800   27.0178 H   0  0  0  0  0  0
  -26.2834  -29.6753   24.1124 H   0  0  0  0  0  0
  -27.4205  -29.7277   25.4433 H   0  0  0  0  0  0
  -27.8596  -30.4386   23.9060 H   0  0  0  0  0  0
  -27.2663  -33.3551   26.2051 H   0  0  0  0  0  0
  -28.3803  -32.6890   25.0230 H   0  0  0  0  0  0
  -28.0747  -31.8381   26.5302 H   0  0  0  0  0  0
  -28.2589  -38.0112   24.7506 H   0  0  0  0  0  0
  -28.1096  -36.2643   24.6281 H   0  0  0  0  0  0
  -27.2323  -37.1442   25.8884 H   0  0  0  0  0  0
  -20.9407  -29.8730   21.6839 H   0  0  0  0  0  0
  -26.0180  -38.2858   24.1401 H   0  0  0  0  0  0
  -32.2765  -19.3380   20.3291 H   0  0  0  0  0  0
  -32.1153  -16.9327   20.1452 H   0  0  0  0  0  0
  -28.9172  -19.3748   23.0593 H   0  0  0  0  0  0
  -28.3840  -26.0212   23.9395 H   0  0  0  0  0  0
  -27.3410  -26.7846   22.7687 H   0  0  0  0  0  0
  -29.0914  -27.0067   22.6736 H   0  0  0  0  0  0
  -31.1837  -22.2636   23.4886 H   0  0  0  0  0  0
  -29.8534  -21.1854   23.7507 H   0  0  0  0  0  0
  -29.4943  -25.0676   20.0681 H   0  0  0  0  0  0
  -27.7971  -24.8417   19.8588 H   0  0  0  0  0  0
  -27.5050  -24.4858   22.0998 H   0  0  0  0  0  0
  -29.3864  -14.9980   21.9593 H   0  0  0  0  0  0
  -28.4138  -22.5294   22.3690 H   0  0  0  0  0  0
  1 25  1  0  0  0
  1 30  2  0  0  0
  1 83  1  0  0  0
  2  3  1  0  0  0
  2 25  1  0  0  0
  2 88  1  0  0  0
  2 89  1  0  0  0
  3  4  1  0  0  0
  3 90  1  0  0  0
  3 91  1  0  0  0
  4  5  1  0  0  0
  4 92  1  0  0  0
  4 93  1  0  0  0
  5  6  1  0  0  0
  5 26  1  0  0  0
  5 94  1  0  0  0
  6 25  1  0  0  0
  6 95  1  0  0  0
  6 96  1  0  0  0
  7  8  2  0  0  0
  7 26  1  0  0  0
  7 29  1  0  0  0
  8  9  1  0  0  0
  8 22  1  0  0  0
  9 10  1  0  0  0
  9 27  2  0  0  0
 10 11  2  0  0  0
 10 15  1  0  0  0
 11 12  1  0  0  0
 11 97  1  0  0  0
 12 13  2  0  0  0
 12 98  1  0  0  0
 13 14  1  0  0  0
 13 31  1  0  0  0
 14 15  2  0  0  0
 14 99  1  0  0  0
 15100  1  0  0  0
 16 17  2  0  0  0
 16 21  1  0  0  0
 16 31  1  0  0  0
 17 18  1  0  0  0
 17101  1  0  0  0
 18 19  2  0  0  0
 18102  1  0  0  0
 19 20  1  0  0  0
 19 24  1  0  0  0
 20 21  2  0  0  0
 20103  1  0  0  0
 21 23  1  0  0  0
 22 28  1  0  0  0
 22 32  2  0  0  0
 26 27  1  0  0  0
 28104  1  0  0  0
 28105  1  0  0  0
 29106  1  0  0  0
 29107  1  0  0  0
 33 34  1  0  0  0
 33 66  1  0  0  0
 33 70  2  0  0  0
 34 36  1  0  0  0
 34 59  1  0  0  0
 34108  1  0  0  0
 35 44  2  0  0  0
 35 45  1  0  0  0
 35 68  1  0  0  0
 36 56  1  0  0  0
 36109  1  0  0  0
 37 39  1  0  0  0
 37 47  1  0  0  0
 37 66  1  0  0  0
 37110  1  0  0  0
 38 43  2  0  0  0
 38 46  1  0  0  0
 38 47  1  0  0  0
 39 64  1  0  0  0
 39 67  2  0  0  0
 40 52  1  0  0  0
 40 53  2  0  0  0
 40 58  1  0  0  0
 41111  1  0  0  0
 41112  1  0  0  0
 41113  1  0  0  0
 41 48  1  0  0  0
 42 43  1  0  0  0
 42 66  1  0  0  0
 42114  1  0  0  0
 42115  1  0  0  0
 43 44  1  0  0  0
 44116  1  0  0  0
 45 46  2  0  0  0
 45117  1  0  0  0
 46118  1  0  0  0
 47119  1  0  0  0
 47120  1  0  0  0
 48 56  1  0  0  0
 48 65  1  0  0  0
 48121  1  0  0  0
 49 50  1  0  0  0
 49 53  1  0  0  0
 49 64  1  0  0  0
 49122  1  0  0  0
 50 51  1  0  0  0
 50123  1  0  0  0
 50124  1  0  0  0
 51 52  1  0  0  0
 51125  1  0  0  0
 51126  1  0  0  0
 52127  1  0  0  0
 52128  1  0  0  0
 53 54  1  0  0  0
 54 55  2  0  0  0
 54129  1  0  0  0
 55 57  1  0  0  0
 55130  1  0  0  0
 56 69  2  0  0  0
 57 58  2  0  0  0
 57131  1  0  0  0
 58132  1  0  0  0
 59 60  1  0  0  0
 59 61  1  0  0  0
 59 62  1  0  0  0
 60133  1  0  0  0
 60134  1  0  0  0
 60135  1  0  0  0
 61136  1  0  0  0
 61137  1  0  0  0
 61138  1  0  0  0
 62139  1  0  0  0
 62140  1  0  0  0
 62141  1  0  0  0
 63 65  1  0  0  0
 63142  1  0  0  0
 63143  1  0  0  0
 63144  1  0  0  0
 64145  1  0  0  0
 65146  1  0  0  0
 68 81  1  0  0  0
 71 72  2  0  0  0
 71 74  1  0  0  0
 71147  1  0  0  0
 72 75  1  0  0  0
 72148  1  0  0  0
 73 74  2  0  0  0
 73 76  1  0  0  0
 73149  1  0  0  0
 74 77  1  0  0  0
 75 76  2  0  0  0
 75 83  1  0  0  0
 76 87  1  0  0  0
 77 80  1  0  0  0
 77 85  2  0  0  0
 78 82  1  0  0  0
 78 84  1  0  0  0
 78 86  2  0  0  0
 79150  1  0  0  0
 79151  1  0  0  0
 79152  1  0  0  0
 79 82  1  0  0  0
 80 84  1  0  0  0
 80153  1  0  0  0
 80154  1  0  0  0
 81 82  1  0  0  0
 81155  1  0  0  0
 81156  1  0  0  0
 82157  1  0  0  0
 83158  1  0  0  0
 84159  1  0  0  0
M  ISO  4   1 100  68 101  81 101  83 100
M  END
> <chiral flag>
0

> <version>
0

> <s_m_source_file>
/data/baiqing/PycharmProjects/Reinvent-master-3.2/result/LINK_invent/BTK/process_docking_weight1_custom_product_contain_oxygen_bond_distance_aromatic_linkinvent_7_9_3/rearranged_h_0100.sdf

> <i_m_source_file_index>
96

> <r_mmod_Potential_Energy-OPLS-2005>
-152.421569824219

> <r_mmod_Stretch_Energy-OPLS-2005>
37.9329986572266

> <r_mmod_Bend_Energy-OPLS-2005>
109.461448669434

> <r_mmod_Torsional_Energy-OPLS-2005>
253.546905517578

> <r_mmod_Improper_Torsional_Energy-OPLS-2005>
2.71460318565369

> <r_mmod_Van_der_Waal_Energy-OPLS-2005>
164.756896972656

> <r_mmod_Electrostatic_Energy-OPLS-2005>
-480.286407470703

> <r_mmod_Solvation_Energy-OPLS-2005>
-250.69953918457

> <b_mmod_Minimization_Converged-OPLS-2005>
0

> <r_mmod_RMS_Derivative-OPLS-2005>
5.46596002578735

$$$$
97
                    3D
 Structure written by MMmdl.
162171  0  0  1  0            999 V2000
  -30.7500  -14.4208   20.5969 C   0  0  0  0  0  0
  -30.4043  -12.2795   19.4243 C   0  0  0  0  0  0
  -29.4880  -12.5090   18.2072 C   0  0  0  0  0  0
  -28.0100  -12.3746   18.6185 C   0  0  0  0  0  0
  -27.6617  -13.2143   19.8773 C   0  0  2  0  0  0
  -28.7045  -13.0100   21.0015 C   0  0  0  0  0  0
  -25.2579  -13.8184   20.5701 C   0  0  0  0  0  0
  -24.1832  -13.0447   20.9183 C   0  0  0  0  0  0
  -24.6395  -11.6917   20.8732 C   0  0  0  0  0  0
  -23.9060  -10.4300   21.0397 C   0  0  0  0  0  0
  -24.3613   -9.4218   21.9179 C   0  0  0  0  0  0
  -23.6293   -8.2249   22.0748 C   0  0  0  0  0  0
  -22.4275   -8.0283   21.3541 C   0  0  0  0  0  0
  -21.9910   -9.0254   20.4640 C   0  0  0  0  0  0
  -22.7230  -10.2137   20.3050 C   0  0  0  0  0  0
  -21.6854   -6.0737   22.5277 C   0  0  0  0  0  0
  -21.4016   -6.5641   23.8213 C   0  0  0  0  0  0
  -21.3665   -5.6794   24.9177 C   0  0  0  0  0  0
  -21.6045   -4.3056   24.7227 C   0  0  0  0  0  0
  -21.8817   -3.8146   23.4347 C   0  0  0  0  0  0
  -21.9193   -4.6963   22.3403 C   0  0  0  0  0  0
  -22.7854  -13.5235   21.1857 C   0  0  0  0  0  0
  -22.1659   -4.2149   21.0980 F   0  0  0  0  0  0
  -21.5633   -3.4539   25.7740 F   0  0  0  0  0  0
  -30.0393  -13.2719   20.4474 N   0  0  0  0  0  0
  -26.3029  -12.9373   20.3399 N   0  0  0  0  0  0
  -25.9330  -11.6521   20.5777 N   0  0  0  0  0  0
  -22.0502  -12.8216   22.0413 N   0  0  0  0  0  0
  -25.4298  -15.1902   20.4121 N   0  0  0  0  0  0
  -31.8591  -14.5588   20.0725 O   0  0  0  0  0  0
  -21.6639   -6.8879   21.4238 O   0  0  0  0  0  0
  -22.3536  -14.5549   20.6724 O   0  0  0  0  0  0
  -24.6126  -31.8694   23.2133 C   0  0  0  0  0  0
  -25.9040  -32.4822   23.8406 C   0  0  1  0  0  0
  -27.2249  -27.4382   20.0911 C   0  0  0  0  0  0
  -25.5918  -33.8622   24.2342 N   0  0  0  0  0  0
  -23.3979  -30.4951   21.5549 C   0  0  2  0  0  0
  -24.8405  -28.9664   20.1153 C   0  0  0  0  0  0
  -22.7395  -29.4657   22.5018 C   0  0  0  0  0  0
  -18.0265  -28.1368   22.8491 C   0  0  0  0  0  0
  -24.1496  -36.7313   23.2637 C   0  0  0  0  0  0
  -25.9267  -30.8341   21.3679 C   0  0  0  0  0  0
  -26.0002  -29.4700   20.7152 C   0  0  0  0  0  0
  -27.1926  -28.7115   20.7044 C   0  0  0  0  0  0
  -26.0474  -26.9627   19.4630 C   0  0  0  0  0  0
  -24.8586  -27.7120   19.4872 C   0  0  0  0  0  0
  -23.6033  -29.8316   20.1679 C   0  0  0  0  0  0
  -25.4112  -36.3109   24.0335 C   0  0  1  0  0  0
  -20.5849  -28.3641   23.1334 C   0  0  2  0  0  0
  -20.6755  -26.9384   22.5417 C   0  0  0  0  0  0
  -19.5737  -26.6375   21.5210 C   0  0  0  0  0  0
  -18.1911  -26.7915   22.1617 C   0  0  0  0  0  0
  -19.1514  -28.8824   23.2908 C   0  0  0  0  0  0
  -18.9446  -30.1436   23.8908 C   0  0  0  0  0  0
  -17.6452  -30.6582   24.0559 C   0  0  0  0  0  0
  -25.9035  -34.9475   23.5127 C   0  0  0  0  0  0
  -16.5342  -29.9078   23.6328 C   0  0  0  0  0  0
  -16.7256  -28.6495   23.0348 C   0  0  0  0  0  0
  -26.4474  -31.6592   25.0725 C   0  0  0  0  0  0
  -25.3746  -31.3689   26.1479 C   0  0  0  0  0  0
  -27.0308  -30.3040   24.6079 C   0  0  0  0  0  0
  -27.6053  -32.4303   25.7492 C   0  0  0  0  0  0
  -27.5585  -37.1810   24.8464 C   0  0  0  0  0  0
  -21.4126  -29.3027   22.3763 N   0  0  0  0  0  0
  -26.4305  -37.3786   23.9400 N   0  0  0  0  0  0
  -24.6640  -31.0802   22.1037 N   0  0  0  0  0  0
  -23.4181  -28.8179   23.3034 O   0  0  0  0  0  0
  -28.4128  -26.7324   20.1065 O   0  0  0  0  0  0
  -26.5587  -34.8921   22.4680 O   0  0  0  0  0  0
  -23.5328  -32.1457   23.7540 O   0  0  0  0  0  0
  -31.0862  -19.0067   22.4626 C   0  0  0  0  0  0
  -30.6838  -20.3235   22.7659 C   0  0  0  0  0  0
  -28.8876  -20.1456   21.1358 C   0  0  0  0  0  0
  -30.4082  -18.2614   21.4745 C   0  0  0  0  0  0
  -29.5882  -20.9196   22.0942 C   0  0  0  0  0  0
  -29.2929  -18.8319   20.8269 C   0  0  0  0  0  0
  -29.0887  -22.8102   23.5699 C   0  0  0  0  0  0
  -28.8327  -24.3154   23.7549 C   0  0  0  0  0  0
  -28.2146  -25.0133   22.5362 C   0  0  0  0  0  0
  -28.8768  -23.0811   21.1153 C   0  0  0  0  0  0
  -28.9576  -24.6169   21.2586 C   0  0  1  0  0  0
  -30.9724  -16.9274   21.0043 C   0  0  0  0  0  0
  -30.1532  -15.6466   21.3241 C   0  0  0  0  0  0
  -28.3809  -25.3012   20.0010 C   0  0  0  0  0  0
  -29.2353  -22.2969   22.3151 N   0  0  0  0  0  0
  -29.1707  -22.1252   24.5954 O   0  0  0  0  0  0
  -28.6330  -18.1356   19.8705 F   0  0  0  0  0  0
  -31.4528  -12.3367   19.1275 H   0  0  0  0  0  0
  -30.2661  -11.2719   19.8194 H   0  0  0  0  0  0
  -29.7231  -11.7956   17.4166 H   0  0  0  0  0  0
  -29.6669  -13.5013   17.7896 H   0  0  0  0  0  0
  -27.8154  -11.3189   18.8102 H   0  0  0  0  0  0
  -27.3605  -12.6564   17.7890 H   0  0  0  0  0  0
  -27.7038  -14.2612   19.5770 H   0  0  0  0  0  0
  -28.6627  -11.9868   21.3781 H   0  0  0  0  0  0
  -28.4819  -13.6491   21.8563 H   0  0  0  0  0  0
  -25.2758   -9.5701   22.4754 H   0  0  0  0  0  0
  -24.0010   -7.4642   22.7465 H   0  0  0  0  0  0
  -21.0847   -8.8764   19.8944 H   0  0  0  0  0  0
  -22.3683  -10.9675   19.6160 H   0  0  0  0  0  0
  -21.2005   -7.6149   23.9718 H   0  0  0  0  0  0
  -21.1493   -6.0525   25.9082 H   0  0  0  0  0  0
  -22.0590   -2.7608   23.2845 H   0  0  0  0  0  0
  -22.4118  -11.9863   22.4775 H   0  0  0  0  0  0
  -21.1123  -13.1239   22.2640 H   0  0  0  0  0  0
  -24.6664  -15.8482   20.5230 H   0  0  0  0  0  0
  -26.2925  -15.6315   20.1175 H   0  0  0  0  0  0
  -26.7100  -32.5542   23.1162 H   0  0  0  0  0  0
  -25.0118  -33.9790   25.0520 H   0  0  0  0  0  0
  -22.6856  -31.3121   21.4194 H   0  0  0  0  0  0
  -23.3758  -35.9649   23.3305 H   0  0  0  0  0  0
  -24.3600  -36.8920   22.2052 H   0  0  0  0  0  0
  -23.7249  -37.6516   23.6649 H   0  0  0  0  0  0
  -26.0398  -31.6009   20.5999 H   0  0  0  0  0  0
  -26.8138  -30.8848   21.9864 H   0  0  0  0  0  0
  -28.0874  -29.0951   21.1751 H   0  0  0  0  0  0
  -26.0151  -26.0313   18.9195 H   0  0  0  0  0  0
  -23.9703  -27.3287   19.0034 H   0  0  0  0  0  0
  -23.7069  -30.6072   19.4082 H   0  0  0  0  0  0
  -22.7274  -29.2488   19.8755 H   0  0  0  0  0  0
  -25.1284  -36.1980   25.0828 H   0  0  0  0  0  0
  -20.9931  -28.3203   24.1459 H   0  0  0  0  0  0
  -20.5669  -26.2242   23.3594 H   0  0  0  0  0  0
  -21.6624  -26.7438   22.1206 H   0  0  0  0  0  0
  -19.6899  -25.6287   21.1236 H   0  0  0  0  0  0
  -19.6688  -27.3192   20.6748 H   0  0  0  0  0  0
  -17.4180  -26.6678   21.4016 H   0  0  0  0  0  0
  -18.0301  -26.0048   22.9003 H   0  0  0  0  0  0
  -19.7929  -30.7240   24.2288 H   0  0  0  0  0  0
  -17.5013  -31.6271   24.5150 H   0  0  0  0  0  0
  -15.5345  -30.2986   23.7648 H   0  0  0  0  0  0
  -15.8654  -28.0827   22.7051 H   0  0  0  0  0  0
  -24.5932  -30.7014   25.7821 H   0  0  0  0  0  0
  -24.8924  -32.2842   26.4924 H   0  0  0  0  0  0
  -25.8111  -30.8872   27.0239 H   0  0  0  0  0  0
  -26.2846  -29.6799   24.1148 H   0  0  0  0  0  0
  -27.4113  -29.7268   25.4516 H   0  0  0  0  0  0
  -27.8663  -30.4364   23.9200 H   0  0  0  0  0  0
  -27.2677  -33.3599   26.2088 H   0  0  0  0  0  0
  -28.3864  -32.6867   25.0320 H   0  0  0  0  0  0
  -28.0718  -31.8413   26.5398 H   0  0  0  0  0  0
  -28.2595  -38.0117   24.7521 H   0  0  0  0  0  0
  -28.1092  -36.2645   24.6280 H   0  0  0  0  0  0
  -27.2308  -37.1443   25.8870 H   0  0  0  0  0  0
  -20.9275  -29.8787   21.7028 H   0  0  0  0  0  0
  -26.0199  -38.2865   24.1402 H   0  0  0  0  0  0
  -31.9550  -18.5931   22.9558 H   0  0  0  0  0  0
  -31.2534  -20.8869   23.4926 H   0  0  0  0  0  0
  -28.0430  -20.5556   20.6025 H   0  0  0  0  0  0
  -29.7899  -24.7808   23.9909 H   0  0  0  0  0  0
  -28.1941  -24.4666   24.6254 H   0  0  0  0  0  0
  -28.2568  -26.0940   22.6788 H   0  0  0  0  0  0
  -27.1575  -24.7553   22.4556 H   0  0  0  0  0  0
  -29.5096  -22.7717   20.2815 H   0  0  0  0  0  0
  -27.8556  -22.8080   20.8471 H   0  0  0  0  0  0
  -30.0046  -24.9097   21.3550 H   0  0  0  0  0  0
  -31.9813  -16.8183   21.4051 H   0  0  0  0  0  0
  -31.0989  -17.0179   19.9238 H   0  0  0  0  0  0
  -29.1242  -15.7839   20.9936 H   0  0  0  0  0  0
  -30.1301  -15.4631   22.3981 H   0  0  0  0  0  0
  -27.3957  -24.8747   19.8395 H   0  0  0  0  0  0
  -28.9716  -25.0214   19.1283 H   0  0  0  0  0  0
  1 25  1  0  0  0
  1 30  2  0  0  0
  1 83  1  0  0  0
  2  3  1  0  0  0
  2 25  1  0  0  0
  2 88  1  0  0  0
  2 89  1  0  0  0
  3  4  1  0  0  0
  3 90  1  0  0  0
  3 91  1  0  0  0
  4  5  1  0  0  0
  4 92  1  0  0  0
  4 93  1  0  0  0
  5  6  1  0  0  0
  5 26  1  0  0  0
  5 94  1  0  0  0
  6 25  1  0  0  0
  6 95  1  0  0  0
  6 96  1  0  0  0
  7  8  2  0  0  0
  7 26  1  0  0  0
  7 29  1  0  0  0
  8  9  1  0  0  0
  8 22  1  0  0  0
  9 10  1  0  0  0
  9 27  2  0  0  0
 10 11  2  0  0  0
 10 15  1  0  0  0
 11 12  1  0  0  0
 11 97  1  0  0  0
 12 13  2  0  0  0
 12 98  1  0  0  0
 13 14  1  0  0  0
 13 31  1  0  0  0
 14 15  2  0  0  0
 14 99  1  0  0  0
 15100  1  0  0  0
 16 17  2  0  0  0
 16 21  1  0  0  0
 16 31  1  0  0  0
 17 18  1  0  0  0
 17101  1  0  0  0
 18 19  2  0  0  0
 18102  1  0  0  0
 19 20  1  0  0  0
 19 24  1  0  0  0
 20 21  2  0  0  0
 20103  1  0  0  0
 21 23  1  0  0  0
 22 28  1  0  0  0
 22 32  2  0  0  0
 26 27  1  0  0  0
 28104  1  0  0  0
 28105  1  0  0  0
 29106  1  0  0  0
 29107  1  0  0  0
 33 34  1  0  0  0
 33 66  1  0  0  0
 33 70  2  0  0  0
 34 36  1  0  0  0
 34 59  1  0  0  0
 34108  1  0  0  0
 35 44  2  0  0  0
 35 45  1  0  0  0
 35 68  1  0  0  0
 36 56  1  0  0  0
 36109  1  0  0  0
 37 39  1  0  0  0
 37 47  1  0  0  0
 37 66  1  0  0  0
 37110  1  0  0  0
 38 43  2  0  0  0
 38 46  1  0  0  0
 38 47  1  0  0  0
 39 64  1  0  0  0
 39 67  2  0  0  0
 40 52  1  0  0  0
 40 53  2  0  0  0
 40 58  1  0  0  0
 41111  1  0  0  0
 41112  1  0  0  0
 41113  1  0  0  0
 41 48  1  0  0  0
 42 43  1  0  0  0
 42 66  1  0  0  0
 42114  1  0  0  0
 42115  1  0  0  0
 43 44  1  0  0  0
 44116  1  0  0  0
 45 46  2  0  0  0
 45117  1  0  0  0
 46118  1  0  0  0
 47119  1  0  0  0
 47120  1  0  0  0
 48 56  1  0  0  0
 48 65  1  0  0  0
 48121  1  0  0  0
 49 50  1  0  0  0
 49 53  1  0  0  0
 49 64  1  0  0  0
 49122  1  0  0  0
 50 51  1  0  0  0
 50123  1  0  0  0
 50124  1  0  0  0
 51 52  1  0  0  0
 51125  1  0  0  0
 51126  1  0  0  0
 52127  1  0  0  0
 52128  1  0  0  0
 53 54  1  0  0  0
 54 55  2  0  0  0
 54129  1  0  0  0
 55 57  1  0  0  0
 55130  1  0  0  0
 56 69  2  0  0  0
 57 58  2  0  0  0
 57131  1  0  0  0
 58132  1  0  0  0
 59 60  1  0  0  0
 59 61  1  0  0  0
 59 62  1  0  0  0
 60133  1  0  0  0
 60134  1  0  0  0
 60135  1  0  0  0
 61136  1  0  0  0
 61137  1  0  0  0
 61138  1  0  0  0
 62139  1  0  0  0
 62140  1  0  0  0
 62141  1  0  0  0
 63 65  1  0  0  0
 63142  1  0  0  0
 63143  1  0  0  0
 63144  1  0  0  0
 64145  1  0  0  0
 65146  1  0  0  0
 68 84  1  0  0  0
 71 72  2  0  0  0
 71 74  1  0  0  0
 71147  1  0  0  0
 72 75  1  0  0  0
 72148  1  0  0  0
 73 75  2  0  0  0
 73 76  1  0  0  0
 73149  1  0  0  0
 74 76  2  0  0  0
 74 82  1  0  0  0
 75 85  1  0  0  0
 76 87  1  0  0  0
 77 78  1  0  0  0
 77 85  1  0  0  0
 77 86  2  0  0  0
 78 79  1  0  0  0
 78150  1  0  0  0
 78151  1  0  0  0
 79 81  1  0  0  0
 79152  1  0  0  0
 79153  1  0  0  0
 80 81  1  0  0  0
 80 85  1  0  0  0
 80154  1  0  0  0
 80155  1  0  0  0
 81 84  1  0  0  0
 81156  1  0  0  0
 82 83  1  0  0  0
 82157  1  0  0  0
 82158  1  0  0  0
 83159  1  0  0  0
 83160  1  0  0  0
 84161  1  0  0  0
 84162  1  0  0  0
M  ISO  4   1 100  68 101  83 100  84 101
M  END
> <chiral flag>
0

> <version>
0

> <s_m_source_file>
/data/baiqing/PycharmProjects/Reinvent-master-3.2/result/LINK_invent/BTK/process_docking_weight1_custom_product_contain_oxygen_bond_distance_aromatic_linkinvent_7_9_3/rearranged_h_0100.sdf

> <i_m_source_file_index>
97

> <r_mmod_Potential_Energy-OPLS-2005>
50.7922172546387

> <r_mmod_Stretch_Energy-OPLS-2005>
39.3520011901855

> <r_mmod_Bend_Energy-OPLS-2005>
105.777893066406

> <r_mmod_Torsional_Energy-OPLS-2005>
230.289535522461

> <r_mmod_Improper_Torsional_Energy-OPLS-2005>
3.38564085960388

> <r_mmod_Van_der_Waal_Energy-OPLS-2005>
173.172134399414

> <r_mmod_Electrostatic_Energy-OPLS-2005>
-315.273529052734

> <r_mmod_Solvation_Energy-OPLS-2005>
-197.928253173828

> <b_mmod_Minimization_Converged-OPLS-2005>
0

> <r_mmod_RMS_Derivative-OPLS-2005>
0.923563420772552

$$$$
98
                    3D
 Structure written by MMmdl.
163172  0  0  1  0            999 V2000
  -30.6280  -14.7136   20.3639 C   0  0  0  0  0  0
  -30.4475  -12.3852   19.4920 C   0  0  0  0  0  0
  -29.5248  -12.2989   18.2548 C   0  0  0  0  0  0
  -28.0285  -12.2808   18.6479 C   0  0  0  0  0  0
  -27.6409  -13.2113   19.8340 C   0  0  2  0  0  0
  -28.6935  -13.1854   20.9602 C   0  0  0  0  0  0
  -25.2549  -13.8178   20.5705 C   0  0  0  0  0  0
  -24.1817  -13.0456   20.9230 C   0  0  0  0  0  0
  -24.6368  -11.6922   20.8776 C   0  0  0  0  0  0
  -23.9036  -10.4298   21.0416 C   0  0  0  0  0  0
  -24.3601   -9.4214   21.9186 C   0  0  0  0  0  0
  -23.6276   -8.2250   22.0747 C   0  0  0  0  0  0
  -22.4261   -8.0273   21.3538 C   0  0  0  0  0  0
  -21.9890   -9.0251   20.4657 C   0  0  0  0  0  0
  -22.7209  -10.2133   20.3062 C   0  0  0  0  0  0
  -21.6866   -6.0726   22.5268 C   0  0  0  0  0  0
  -21.4027   -6.5630   23.8200 C   0  0  0  0  0  0
  -21.3660   -5.6782   24.9164 C   0  0  0  0  0  0
  -21.6038   -4.3042   24.7223 C   0  0  0  0  0  0
  -21.8824   -3.8136   23.4344 C   0  0  0  0  0  0
  -21.9203   -4.6953   22.3399 C   0  0  0  0  0  0
  -22.7839  -13.5252   21.1885 C   0  0  0  0  0  0
  -22.1675   -4.2138   21.0980 F   0  0  0  0  0  0
  -21.5622   -3.4525   25.7742 F   0  0  0  0  0  0
  -29.9894  -13.4966   20.3479 N   0  0  0  0  0  0
  -26.2947  -12.9335   20.3272 N   0  0  0  0  0  0
  -25.9286  -11.6509   20.5811 N   0  0  0  0  0  0
  -22.0473  -12.8255   22.0441 N   0  0  0  0  0  0
  -25.4284  -15.1894   20.4112 N   0  0  0  0  0  0
  -31.8546  -14.7695   20.2310 O   0  0  0  0  0  0
  -21.6639   -6.8862   21.4225 O   0  0  0  0  0  0
  -22.3523  -14.5546   20.6712 O   0  0  0  0  0  0
  -24.6262  -31.8599   23.2031 C   0  0  0  0  0  0
  -25.9110  -32.4780   23.8359 C   0  0  1  0  0  0
  -27.2204  -27.3199   20.1201 C   0  0  0  0  0  0
  -25.5914  -33.8582   24.2263 N   0  0  0  0  0  0
  -23.4190  -30.4846   21.5459 C   0  0  2  0  0  0
  -24.8649  -28.9410   20.1101 C   0  0  0  0  0  0
  -22.7470  -29.4628   22.4940 C   0  0  0  0  0  0
  -18.0284  -28.1398   22.8487 C   0  0  0  0  0  0
  -24.1486  -36.7301   23.2641 C   0  0  0  0  0  0
  -25.9612  -30.7910   21.3760 C   0  0  0  0  0  0
  -26.0338  -29.4205   20.7145 C   0  0  0  0  0  0
  -27.2157  -28.6218   20.7078 C   0  0  0  0  0  0
  -26.0283  -26.8926   19.4916 C   0  0  0  0  0  0
  -24.8633  -27.6827   19.4907 C   0  0  0  0  0  0
  -23.6333  -29.8215   20.1609 C   0  0  0  0  0  0
  -25.4113  -36.3086   24.0323 C   0  0  1  0  0  0
  -20.5886  -28.3695   23.1287 C   0  0  2  0  0  0
  -20.6780  -26.9416   22.5418 C   0  0  0  0  0  0
  -19.5754  -26.6391   21.5221 C   0  0  0  0  0  0
  -18.1930  -26.7941   22.1627 C   0  0  0  0  0  0
  -19.1539  -28.8863   23.2880 C   0  0  0  0  0  0
  -18.9466  -30.1468   23.8891 C   0  0  0  0  0  0
  -17.6467  -30.6599   24.0570 C   0  0  0  0  0  0
  -25.9052  -34.9455   23.5097 C   0  0  0  0  0  0
  -16.5355  -29.9099   23.6342 C   0  0  0  0  0  0
  -16.7272  -28.6522   23.0350 C   0  0  0  0  0  0
  -26.4484  -31.6605   25.0746 C   0  0  0  0  0  0
  -25.3707  -31.3780   26.1474 C   0  0  0  0  0  0
  -27.0325  -30.3015   24.6232 C   0  0  0  0  0  0
  -27.6027  -32.4359   25.7520 C   0  0  0  0  0  0
  -27.5579  -37.1807   24.8457 C   0  0  0  0  0  0
  -21.4185  -29.3041   22.3676 N   0  0  0  0  0  0
  -26.4289  -37.3783   23.9408 N   0  0  0  0  0  0
  -24.6872  -31.0613   22.0985 N   0  0  0  0  0  0
  -23.4196  -28.8171   23.3021 O   0  0  0  0  0  0
  -28.3385  -26.4728   20.1818 O   0  0  0  0  0  0
  -26.5626  -34.8922   22.4667 O   0  0  0  0  0  0
  -23.5424  -32.1402   23.7355 O   0  0  0  0  0  0
  -28.8885  -19.1947   21.4947 C   0  0  0  0  0  0
  -30.8504  -19.4946   20.1292 C   0  0  0  0  0  0
  -28.9753  -17.7800   21.3098 C   0  0  0  0  0  0
  -30.9411  -18.0857   19.9527 C   0  0  0  0  0  0
  -29.8116  -20.0958   20.8897 C   0  0  0  0  0  0
  -29.9942  -17.1855   20.5156 C   0  0  0  0  0  0
  -30.6019  -21.9619   22.1826 C   0  0  0  0  0  0
  -29.0902  -22.4643   20.3932 C   0  0  0  0  0  0
  -30.7528  -23.4492   22.5348 C   0  0  0  0  0  0
  -29.5843  -24.3137   22.0592 C   0  0  0  0  0  0
  -29.2697  -24.0345   20.5886 C   0  0  2  0  0  0
  -28.4066  -16.8096   18.1475 C   0  0  0  0  0  0
  -28.1198  -25.0087   20.0767 C   0  0  0  0  0  0
  -29.5611  -15.8668   18.5461 C   0  0  0  0  0  0
  -29.8078  -21.5474   21.1506 N   0  0  0  0  0  0
  -29.8668  -15.8211   19.9970 N   0  0  0  0  0  0
  -31.2502  -21.1704   22.8809 O   0  0  0  0  0  0
  -28.2894  -22.0836   19.5298 O   0  0  0  0  0  0
  -31.4856  -12.5065   19.1781 H   0  0  0  0  0  0
  -30.4149  -11.4520   20.0569 H   0  0  0  0  0  0
  -29.7491  -11.3713   17.7260 H   0  0  0  0  0  0
  -29.7556  -13.0621   17.5187 H   0  0  0  0  0  0
  -27.8052  -11.2486   18.9195 H   0  0  0  0  0  0
  -27.4045  -12.4967   17.7803 H   0  0  0  0  0  0
  -27.6127  -14.2201   19.4339 H   0  0  0  0  0  0
  -28.7224  -12.2136   21.4549 H   0  0  0  0  0  0
  -28.4461  -13.9225   21.7263 H   0  0  0  0  0  0
  -25.2746   -9.5697   22.4755 H   0  0  0  0  0  0
  -23.9981   -7.4653   22.7471 H   0  0  0  0  0  0
  -21.0813   -8.8773   19.8984 H   0  0  0  0  0  0
  -22.3653  -10.9667   19.6173 H   0  0  0  0  0  0
  -21.2022   -7.6142   23.9695 H   0  0  0  0  0  0
  -21.1476   -6.0518   25.9065 H   0  0  0  0  0  0
  -22.0606   -2.7600   23.2839 H   0  0  0  0  0  0
  -22.4047  -11.9913   22.4856 H   0  0  0  0  0  0
  -21.1109  -13.1329   22.2643 H   0  0  0  0  0  0
  -24.6651  -15.8496   20.5193 H   0  0  0  0  0  0
  -26.2927  -15.6232   20.1114 H   0  0  0  0  0  0
  -26.7176  -32.5438   23.1106 H   0  0  0  0  0  0
  -25.0037  -33.9723   25.0389 H   0  0  0  0  0  0
  -22.7130  -31.3059   21.4050 H   0  0  0  0  0  0
  -23.3743  -35.9639   23.3306 H   0  0  0  0  0  0
  -24.3572  -36.8927   22.2054 H   0  0  0  0  0  0
  -23.7244  -37.6505   23.6667 H   0  0  0  0  0  0
  -26.0982  -31.5579   20.6121 H   0  0  0  0  0  0
  -26.8391  -30.8320   22.0094 H   0  0  0  0  0  0
  -28.1134  -28.9833   21.1891 H   0  0  0  0  0  0
  -25.9675  -25.9304   19.0054 H   0  0  0  0  0  0
  -23.9658  -27.3096   19.0168 H   0  0  0  0  0  0
  -23.7529  -30.5996   19.4062 H   0  0  0  0  0  0
  -22.7522  -29.2533   19.8570 H   0  0  0  0  0  0
  -25.1292  -36.1936   25.0814 H   0  0  0  0  0  0
  -20.9976  -28.3281   24.1408 H   0  0  0  0  0  0
  -20.5707  -26.2295   23.3617 H   0  0  0  0  0  0
  -21.6648  -26.7470   22.1196 H   0  0  0  0  0  0
  -19.6919  -25.6299   21.1252 H   0  0  0  0  0  0
  -19.6702  -27.3202   20.6750 H   0  0  0  0  0  0
  -17.4204  -26.6689   21.4024 H   0  0  0  0  0  0
  -18.0328  -26.0088   22.9027 H   0  0  0  0  0  0
  -19.7942  -30.7289   24.2253 H   0  0  0  0  0  0
  -17.5025  -31.6279   24.5177 H   0  0  0  0  0  0
  -15.5355  -30.3002   23.7685 H   0  0  0  0  0  0
  -15.8666  -28.0853   22.7057 H   0  0  0  0  0  0
  -24.5838  -30.7175   25.7815 H   0  0  0  0  0  0
  -24.8954  -32.2970   26.4912 H   0  0  0  0  0  0
  -25.8019  -30.8942   27.0244 H   0  0  0  0  0  0
  -26.2921  -29.6782   24.1204 H   0  0  0  0  0  0
  -27.3932  -29.7264   25.4770 H   0  0  0  0  0  0
  -27.8827  -30.4276   23.9527 H   0  0  0  0  0  0
  -27.2601  -33.3637   26.2114 H   0  0  0  0  0  0
  -28.3829  -32.6966   25.0359 H   0  0  0  0  0  0
  -28.0704  -31.8490   26.5432 H   0  0  0  0  0  0
  -28.2591  -38.0109   24.7507 H   0  0  0  0  0  0
  -28.1077  -36.2638   24.6271 H   0  0  0  0  0  0
  -27.2298  -37.1450   25.8860 H   0  0  0  0  0  0
  -20.9365  -29.8743   21.6868 H   0  0  0  0  0  0
  -26.0166  -38.2856   24.1415 H   0  0  0  0  0  0
  -28.0890  -19.5861   22.1079 H   0  0  0  0  0  0
  -31.6018  -20.1189   19.6642 H   0  0  0  0  0  0
  -28.2035  -17.1542   21.7345 H   0  0  0  0  0  0
  -31.7172  -17.6992   19.3068 H   0  0  0  0  0  0
  -31.6832  -23.7991   22.0871 H   0  0  0  0  0  0
  -30.8703  -23.5524   23.6139 H   0  0  0  0  0  0
  -29.8370  -25.3660   22.1945 H   0  0  0  0  0  0
  -28.7028  -24.1264   22.6744 H   0  0  0  0  0  0
  -30.1549  -24.2807   20.0020 H   0  0  0  0  0  0
  -28.1787  -16.7013   17.0853 H   0  0  0  0  0  0
  -28.6444  -17.8610   18.3113 H   0  0  0  0  0  0
  -27.4959  -16.5800   18.6991 H   0  0  0  0  0  0
  -27.2140  -24.7471   20.6247 H   0  0  0  0  0  0
  -27.9213  -24.7774   19.0292 H   0  0  0  0  0  0
  -30.4637  -16.1327   17.9927 H   0  0  0  0  0  0
  -29.2723  -14.8986   18.1743 H   0  0  0  0  0  0
  1 25  1  0  0  0
  1 30  2  0  0  0
  1 86  1  0  0  0
  2  3  1  0  0  0
  2 25  1  0  0  0
  2 89  1  0  0  0
  2 90  1  0  0  0
  3  4  1  0  0  0
  3 91  1  0  0  0
  3 92  1  0  0  0
  4  5  1  0  0  0
  4 93  1  0  0  0
  4 94  1  0  0  0
  5  6  1  0  0  0
  5 26  1  0  0  0
  5 95  1  0  0  0
  6 25  1  0  0  0
  6 96  1  0  0  0
  6 97  1  0  0  0
  7  8  2  0  0  0
  7 26  1  0  0  0
  7 29  1  0  0  0
  8  9  1  0  0  0
  8 22  1  0  0  0
  9 10  1  0  0  0
  9 27  2  0  0  0
 10 11  2  0  0  0
 10 15  1  0  0  0
 11 12  1  0  0  0
 11 98  1  0  0  0
 12 13  2  0  0  0
 12 99  1  0  0  0
 13 14  1  0  0  0
 13 31  1  0  0  0
 14 15  2  0  0  0
 14100  1  0  0  0
 15101  1  0  0  0
 16 17  2  0  0  0
 16 21  1  0  0  0
 16 31  1  0  0  0
 17 18  1  0  0  0
 17102  1  0  0  0
 18 19  2  0  0  0
 18103  1  0  0  0
 19 20  1  0  0  0
 19 24  1  0  0  0
 20 21  2  0  0  0
 20104  1  0  0  0
 21 23  1  0  0  0
 22 28  1  0  0  0
 22 32  2  0  0  0
 26 27  1  0  0  0
 28105  1  0  0  0
 28106  1  0  0  0
 29107  1  0  0  0
 29108  1  0  0  0
 33 34  1  0  0  0
 33 66  1  0  0  0
 33 70  2  0  0  0
 34 36  1  0  0  0
 34 59  1  0  0  0
 34109  1  0  0  0
 35 44  2  0  0  0
 35 45  1  0  0  0
 35 68  1  0  0  0
 36 56  1  0  0  0
 36110  1  0  0  0
 37 39  1  0  0  0
 37 47  1  0  0  0
 37 66  1  0  0  0
 37111  1  0  0  0
 38 43  2  0  0  0
 38 46  1  0  0  0
 38 47  1  0  0  0
 39 64  1  0  0  0
 39 67  2  0  0  0
 40 52  1  0  0  0
 40 53  2  0  0  0
 40 58  1  0  0  0
 41112  1  0  0  0
 41113  1  0  0  0
 41114  1  0  0  0
 41 48  1  0  0  0
 42 43  1  0  0  0
 42 66  1  0  0  0
 42115  1  0  0  0
 42116  1  0  0  0
 43 44  1  0  0  0
 44117  1  0  0  0
 45 46  2  0  0  0
 45118  1  0  0  0
 46119  1  0  0  0
 47120  1  0  0  0
 47121  1  0  0  0
 48 56  1  0  0  0
 48 65  1  0  0  0
 48122  1  0  0  0
 49 50  1  0  0  0
 49 53  1  0  0  0
 49 64  1  0  0  0
 49123  1  0  0  0
 50 51  1  0  0  0
 50124  1  0  0  0
 50125  1  0  0  0
 51 52  1  0  0  0
 51126  1  0  0  0
 51127  1  0  0  0
 52128  1  0  0  0
 52129  1  0  0  0
 53 54  1  0  0  0
 54 55  2  0  0  0
 54130  1  0  0  0
 55 57  1  0  0  0
 55131  1  0  0  0
 56 69  2  0  0  0
 57 58  2  0  0  0
 57132  1  0  0  0
 58133  1  0  0  0
 59 60  1  0  0  0
 59 61  1  0  0  0
 59 62  1  0  0  0
 60134  1  0  0  0
 60135  1  0  0  0
 60136  1  0  0  0
 61137  1  0  0  0
 61138  1  0  0  0
 61139  1  0  0  0
 62140  1  0  0  0
 62141  1  0  0  0
 62142  1  0  0  0
 63 65  1  0  0  0
 63143  1  0  0  0
 63144  1  0  0  0
 63145  1  0  0  0
 64146  1  0  0  0
 65147  1  0  0  0
 68 83  1  0  0  0
 71 73  2  0  0  0
 71 75  1  0  0  0
 71148  1  0  0  0
 72 74  1  0  0  0
 72 75  2  0  0  0
 72149  1  0  0  0
 73 76  1  0  0  0
 73150  1  0  0  0
 74 76  2  0  0  0
 74151  1  0  0  0
 75 85  1  0  0  0
 76 86  1  0  0  0
 77 79  1  0  0  0
 77 85  1  0  0  0
 77 87  2  0  0  0
 78 81  1  0  0  0
 78 85  1  0  0  0
 78 88  2  0  0  0
 79 80  1  0  0  0
 79152  1  0  0  0
 79153  1  0  0  0
 80 81  1  0  0  0
 80154  1  0  0  0
 80155  1  0  0  0
 81 83  1  0  0  0
 81156  1  0  0  0
 82 84  1  0  0  0
 82157  1  0  0  0
 82158  1  0  0  0
 82159  1  0  0  0
 83160  1  0  0  0
 83161  1  0  0  0
 84 86  1  0  0  0
 84162  1  0  0  0
 84163  1  0  0  0
M  ISO  4   1 100  68 101  83 101  86 100
M  END
> <chiral flag>
0

> <version>
0

> <s_m_source_file>
/data/baiqing/PycharmProjects/Reinvent-master-3.2/result/LINK_invent/BTK/process_docking_weight1_custom_product_contain_oxygen_bond_distance_aromatic_linkinvent_7_9_3/rearranged_h_0100.sdf

> <i_m_source_file_index>
98

> <r_mmod_Potential_Energy-OPLS-2005>
412.758911132812

> <r_mmod_Stretch_Energy-OPLS-2005>
93.7779541015625

> <r_mmod_Bend_Energy-OPLS-2005>
147.125061035156

> <r_mmod_Torsional_Energy-OPLS-2005>
387.580169677734

> <r_mmod_Improper_Torsional_Energy-OPLS-2005>
23.8134479522705

> <r_mmod_Van_der_Waal_Energy-OPLS-2005>
163.863662719727

> <r_mmod_Electrostatic_Energy-OPLS-2005>
-263.360198974609

> <r_mmod_Solvation_Energy-OPLS-2005>
-219.942352294922

> <b_mmod_Minimization_Converged-OPLS-2005>
0

> <r_mmod_RMS_Derivative-OPLS-2005>
1.96278238296509

$$$$
99
                    3D
 Structure written by MMmdl.
160168  0  0  1  0            999 V2000
  -30.6285  -14.5499   20.4146 C   0  0  0  0  0  0
  -30.4159  -12.3034   19.4809 C   0  0  0  0  0  0
  -29.5011  -12.4390   18.2452 C   0  0  0  0  0  0
  -28.0227  -12.2724   18.6547 C   0  0  0  0  0  0
  -27.6397  -13.1819   19.8522 C   0  0  2  0  0  0
  -28.6666  -13.0743   20.9973 C   0  0  0  0  0  0
  -25.2527  -13.8017   20.5670 C   0  0  0  0  0  0
  -24.1790  -13.0307   20.9314 C   0  0  0  0  0  0
  -24.6290  -11.6785   20.8809 C   0  0  0  0  0  0
  -23.8962  -10.4190   21.0448 C   0  0  0  0  0  0
  -24.3552   -9.4174   21.9242 C   0  0  0  0  0  0
  -23.6266   -8.2192   22.0779 C   0  0  0  0  0  0
  -22.4265   -8.0230   21.3525 C   0  0  0  0  0  0
  -21.9865   -9.0212   20.4662 C   0  0  0  0  0  0
  -22.7164  -10.2091   20.3096 C   0  0  0  0  0  0
  -21.6842   -6.0725   22.5276 C   0  0  0  0  0  0
  -21.4024   -6.5644   23.8211 C   0  0  0  0  0  0
  -21.3656   -5.6815   24.9188 C   0  0  0  0  0  0
  -21.6009   -4.3072   24.7262 C   0  0  0  0  0  0
  -21.8843   -3.8141   23.4399 C   0  0  0  0  0  0
  -21.9176   -4.6947   22.3428 C   0  0  0  0  0  0
  -22.7849  -13.5227   21.1842 C   0  0  0  0  0  0
  -22.1650   -4.2133   21.1017 F   0  0  0  0  0  0
  -21.5613   -3.4542   25.7777 F   0  0  0  0  0  0
  -29.9997  -13.3447   20.4370 N   0  0  0  0  0  0
  -26.2891  -12.9104   20.3271 N   0  0  0  0  0  0
  -25.9174  -11.6303   20.5744 N   0  0  0  0  0  0
  -22.0403  -12.8275   22.0444 N   0  0  0  0  0  0
  -25.4108  -15.1724   20.4054 N   0  0  0  0  0  0
  -31.8367  -14.6683   20.1872 O   0  0  0  0  0  0
  -21.6595   -6.8854   21.4235 O   0  0  0  0  0  0
  -22.3574  -14.5495   20.6602 O   0  0  0  0  0  0
  -24.6234  -31.8688   23.1988 C   0  0  0  0  0  0
  -25.9077  -32.4806   23.8385 C   0  0  1  0  0  0
  -27.2667  -27.3613   20.1708 C   0  0  0  0  0  0
  -25.5917  -33.8623   24.2345 N   0  0  0  0  0  0
  -23.4234  -30.4802   21.5371 C   0  0  2  0  0  0
  -24.8748  -28.9174   20.1364 C   0  0  0  0  0  0
  -22.7386  -29.4731   22.4926 C   0  0  0  0  0  0
  -18.0257  -28.1300   22.8547 C   0  0  0  0  0  0
  -24.1494  -36.7290   23.2649 C   0  0  0  0  0  0
  -25.9555  -30.8004   21.3696 C   0  0  0  0  0  0
  -26.0337  -29.4271   20.7273 C   0  0  0  0  0  0
  -27.2283  -28.6667   20.7210 C   0  0  0  0  0  0
  -26.0814  -26.8671   19.5696 C   0  0  0  0  0  0
  -24.8966  -27.6365   19.5538 C   0  0  0  0  0  0
  -23.6386  -29.7897   20.1656 C   0  0  0  0  0  0
  -25.4096  -36.3099   24.0359 C   0  0  1  0  0  0
  -20.5885  -28.3732   23.1255 C   0  0  2  0  0  0
  -20.6734  -26.9398   22.5578 C   0  0  0  0  0  0
  -19.5779  -26.6468   21.5290 C   0  0  0  0  0  0
  -18.1973  -26.7794   22.1750 C   0  0  0  0  0  0
  -19.1547  -28.8764   23.2923 C   0  0  0  0  0  0
  -18.9565  -30.1347   23.9024 C   0  0  0  0  0  0
  -17.6536  -30.6499   24.0706 C   0  0  0  0  0  0
  -25.9014  -34.9463   23.5161 C   0  0  0  0  0  0
  -16.5413  -29.9127   23.6267 C   0  0  0  0  0  0
  -16.7279  -28.6522   23.0236 C   0  0  0  0  0  0
  -26.4475  -31.6608   25.0749 C   0  0  0  0  0  0
  -25.3713  -31.3748   26.1463 C   0  0  0  0  0  0
  -27.0312  -30.3017   24.6235 C   0  0  0  0  0  0
  -27.6052  -32.4359   25.7500 C   0  0  0  0  0  0
  -27.5578  -37.1793   24.8458 C   0  0  0  0  0  0
  -21.4099  -29.3119   22.3501 N   0  0  0  0  0  0
  -26.4283  -37.3759   23.9400 N   0  0  0  0  0  0
  -24.6891  -31.0619   22.0962 N   0  0  0  0  0  0
  -23.4019  -28.8340   23.3093 O   0  0  0  0  0  0
  -28.4561  -26.6357   20.2362 O   0  0  0  0  0  0
  -26.5581  -34.8934   22.4727 O   0  0  0  0  0  0
  -23.5374  -32.1495   23.7262 O   0  0  0  0  0  0
  -28.2271  -19.9863   18.3335 C   0  0  0  0  0  0
  -28.8088  -18.7090   18.3037 C   0  0  0  0  0  0
  -28.1222  -20.6705   19.5460 C   0  0  0  0  0  0
  -29.2967  -18.0814   19.4823 C   0  0  0  0  0  0
  -28.5176  -20.0672   20.7601 C   0  0  0  0  0  0
  -29.0853  -18.7576   20.7245 C   0  0  0  0  0  0
  -30.2475  -16.2943   17.8690 C   0  0  0  0  0  0
  -28.9500  -24.6005   21.6758 C   0  0  0  0  0  0
  -29.2363  -23.0565   21.7447 C   0  0  0  0  0  0
  -28.4578  -25.1777   20.3092 C   0  0  0  0  0  0
  -28.0240  -22.1203   22.0084 C   0  0  0  0  0  0
  -30.1462  -16.7751   19.3484 C   0  0  2  0  0  0
  -29.8009  -15.6139   20.2114 N   0  0  0  0  0  0
  -28.3842  -20.7191   21.9823 O   0  0  0  0  0  0
  -29.4729  -18.1784   21.8880 F   0  0  0  0  0  0
  -31.4651  -12.3996   19.1972 H   0  0  0  0  0  0
  -30.3314  -11.3135   19.9366 H   0  0  0  0  0  0
  -29.7732  -11.6920   17.4954 H   0  0  0  0  0  0
  -29.6428  -13.4171   17.7832 H   0  0  0  0  0  0
  -27.8807  -11.2252   18.9390 H   0  0  0  0  0  0
  -27.3688  -12.4613   17.8031 H   0  0  0  0  0  0
  -27.6404  -14.2071   19.4820 H   0  0  0  0  0  0
  -28.6298  -12.0827   21.4560 H   0  0  0  0  0  0
  -28.4183  -13.7802   21.7903 H   0  0  0  0  0  0
  -25.2689   -9.5666   22.4832 H   0  0  0  0  0  0
  -23.9966   -7.4594   22.7522 H   0  0  0  0  0  0
  -21.0775   -8.8773   19.8981 H   0  0  0  0  0  0
  -22.3658  -10.9663   19.6241 H   0  0  0  0  0  0
  -21.2055   -7.6150   23.9744 H   0  0  0  0  0  0
  -21.1422   -6.0517   25.9091 H   0  0  0  0  0  0
  -22.0611   -2.7590   23.2901 H   0  0  0  0  0  0
  -22.3927  -12.0006   22.4975 H   0  0  0  0  0  0
  -21.1047  -13.1371   22.2579 H   0  0  0  0  0  0
  -24.5960  -15.7750   20.4688 H   0  0  0  0  0  0
  -26.2088  -15.6299   19.9834 H   0  0  0  0  0  0
  -26.7162  -32.5478   23.1152 H   0  0  0  0  0  0
  -25.0047  -33.9782   25.0490 H   0  0  0  0  0  0
  -22.7359  -31.3128   21.3756 H   0  0  0  0  0  0
  -23.3764  -35.9621   23.3311 H   0  0  0  0  0  0
  -24.3591  -36.8880   22.2060 H   0  0  0  0  0  0
  -23.7238  -37.6503   23.6640 H   0  0  0  0  0  0
  -26.0851  -31.5616   20.5998 H   0  0  0  0  0  0
  -26.8420  -30.8573   21.9909 H   0  0  0  0  0  0
  -28.1208  -29.0658   21.1748 H   0  0  0  0  0  0
  -26.0520  -25.8866   19.1175 H   0  0  0  0  0  0
  -24.0017  -27.2332   19.0993 H   0  0  0  0  0  0
  -23.7507  -30.5499   19.3924 H   0  0  0  0  0  0
  -22.7802  -29.1901   19.8663 H   0  0  0  0  0  0
  -25.1282  -36.1976   25.0851 H   0  0  0  0  0  0
  -21.0074  -28.3329   24.1337 H   0  0  0  0  0  0
  -20.5358  -26.2407   23.3878 H   0  0  0  0  0  0
  -21.6613  -26.7164   22.1548 H   0  0  0  0  0  0
  -19.6973  -25.6478   21.1104 H   0  0  0  0  0  0
  -19.6624  -27.3570   20.7064 H   0  0  0  0  0  0
  -17.4119  -26.6313   21.4289 H   0  0  0  0  0  0
  -18.0631  -25.9981   22.9238 H   0  0  0  0  0  0
  -19.8140  -30.7087   24.2350 H   0  0  0  0  0  0
  -17.5084  -31.6142   24.5384 H   0  0  0  0  0  0
  -15.5440  -30.3187   23.7367 H   0  0  0  0  0  0
  -15.8607  -28.1075   22.6720 H   0  0  0  0  0  0
  -24.5890  -30.7085   25.7774 H   0  0  0  0  0  0
  -24.8879  -32.2906   26.4900 H   0  0  0  0  0  0
  -25.8006  -30.8916   27.0252 H   0  0  0  0  0  0
  -26.2867  -29.6791   24.1225 H   0  0  0  0  0  0
  -27.3924  -29.7225   25.4761 H   0  0  0  0  0  0
  -27.8809  -30.4266   23.9502 H   0  0  0  0  0  0
  -27.2671  -33.3677   26.2066 H   0  0  0  0  0  0
  -28.3840  -32.6921   25.0297 H   0  0  0  0  0  0
  -28.0771  -31.8520   26.5418 H   0  0  0  0  0  0
  -28.2594  -38.0096   24.7514 H   0  0  0  0  0  0
  -28.1080  -36.2623   24.6279 H   0  0  0  0  0  0
  -27.2295  -37.1434   25.8862 H   0  0  0  0  0  0
  -20.9253  -29.8691   21.6539 H   0  0  0  0  0  0
  -26.0199  -38.2858   24.1367 H   0  0  0  0  0  0
  -27.8927  -20.4675   17.4242 H   0  0  0  0  0  0
  -28.8989  -18.2728   17.3239 H   0  0  0  0  0  0
  -27.7141  -21.6648   19.5001 H   0  0  0  0  0  0
  -30.6994  -17.0352   17.2057 H   0  0  0  0  0  0
  -29.2600  -16.1039   17.4576 H   0  0  0  0  0  0
  -30.8376  -15.3859   17.7465 H   0  0  0  0  0  0
  -29.8817  -25.1037   21.9507 H   0  0  0  0  0  0
  -28.2367  -24.8744   22.4558 H   0  0  0  0  0  0
  -29.9498  -22.8711   22.5497 H   0  0  0  0  0  0
  -29.7573  -22.7427   20.8489 H   0  0  0  0  0  0
  -27.4820  -24.7305   20.1129 H   0  0  0  0  0  0
  -29.1106  -24.8353   19.5042 H   0  0  0  0  0  0
  -27.1879  -22.3422   21.3531 H   0  0  0  0  0  0
  -27.6394  -22.3589   22.9997 H   0  0  0  0  0  0
  -31.1484  -17.0974   19.6320 H   0  0  0  0  0  0
  -28.8129  -15.4411   20.3150 H   0  0  0  0  0  0
  1 25  1  0  0  0
  1 30  2  0  0  0
  1 83  1  0  0  0
  2  3  1  0  0  0
  2 25  1  0  0  0
  2 86  1  0  0  0
  2 87  1  0  0  0
  3  4  1  0  0  0
  3 88  1  0  0  0
  3 89  1  0  0  0
  4  5  1  0  0  0
  4 90  1  0  0  0
  4 91  1  0  0  0
  5  6  1  0  0  0
  5 26  1  0  0  0
  5 92  1  0  0  0
  6 25  1  0  0  0
  6 93  1  0  0  0
  6 94  1  0  0  0
  7  8  2  0  0  0
  7 26  1  0  0  0
  7 29  1  0  0  0
  8  9  1  0  0  0
  8 22  1  0  0  0
  9 10  1  0  0  0
  9 27  2  0  0  0
 10 11  2  0  0  0
 10 15  1  0  0  0
 11 12  1  0  0  0
 11 95  1  0  0  0
 12 13  2  0  0  0
 12 96  1  0  0  0
 13 14  1  0  0  0
 13 31  1  0  0  0
 14 15  2  0  0  0
 14 97  1  0  0  0
 15 98  1  0  0  0
 16 17  2  0  0  0
 16 21  1  0  0  0
 16 31  1  0  0  0
 17 18  1  0  0  0
 17 99  1  0  0  0
 18 19  2  0  0  0
 18100  1  0  0  0
 19 20  1  0  0  0
 19 24  1  0  0  0
 20 21  2  0  0  0
 20101  1  0  0  0
 21 23  1  0  0  0
 22 28  1  0  0  0
 22 32  2  0  0  0
 26 27  1  0  0  0
 28102  1  0  0  0
 28103  1  0  0  0
 29104  1  0  0  0
 29105  1  0  0  0
 33 34  1  0  0  0
 33 66  1  0  0  0
 33 70  2  0  0  0
 34 36  1  0  0  0
 34 59  1  0  0  0
 34106  1  0  0  0
 35 44  2  0  0  0
 35 45  1  0  0  0
 35 68  1  0  0  0
 36 56  1  0  0  0
 36107  1  0  0  0
 37 39  1  0  0  0
 37 47  1  0  0  0
 37 66  1  0  0  0
 37108  1  0  0  0
 38 43  2  0  0  0
 38 46  1  0  0  0
 38 47  1  0  0  0
 39 64  1  0  0  0
 39 67  2  0  0  0
 40 52  1  0  0  0
 40 53  2  0  0  0
 40 58  1  0  0  0
 41109  1  0  0  0
 41110  1  0  0  0
 41111  1  0  0  0
 41 48  1  0  0  0
 42 43  1  0  0  0
 42 66  1  0  0  0
 42112  1  0  0  0
 42113  1  0  0  0
 43 44  1  0  0  0
 44114  1  0  0  0
 45 46  2  0  0  0
 45115  1  0  0  0
 46116  1  0  0  0
 47117  1  0  0  0
 47118  1  0  0  0
 48 56  1  0  0  0
 48 65  1  0  0  0
 48119  1  0  0  0
 49 50  1  0  0  0
 49 53  1  0  0  0
 49 64  1  0  0  0
 49120  1  0  0  0
 50 51  1  0  0  0
 50121  1  0  0  0
 50122  1  0  0  0
 51 52  1  0  0  0
 51123  1  0  0  0
 51124  1  0  0  0
 52125  1  0  0  0
 52126  1  0  0  0
 53 54  1  0  0  0
 54 55  2  0  0  0
 54127  1  0  0  0
 55 57  1  0  0  0
 55128  1  0  0  0
 56 69  2  0  0  0
 57 58  2  0  0  0
 57129  1  0  0  0
 58130  1  0  0  0
 59 60  1  0  0  0
 59 61  1  0  0  0
 59 62  1  0  0  0
 60131  1  0  0  0
 60132  1  0  0  0
 60133  1  0  0  0
 61134  1  0  0  0
 61135  1  0  0  0
 61136  1  0  0  0
 62137  1  0  0  0
 62138  1  0  0  0
 62139  1  0  0  0
 63 65  1  0  0  0
 63140  1  0  0  0
 63141  1  0  0  0
 63142  1  0  0  0
 64143  1  0  0  0
 65144  1  0  0  0
 68 80  1  0  0  0
 71 72  2  0  0  0
 71 73  1  0  0  0
 71145  1  0  0  0
 72 74  1  0  0  0
 72146  1  0  0  0
 73 75  2  0  0  0
 73147  1  0  0  0
 74 76  2  0  0  0
 74 82  1  0  0  0
 75 76  1  0  0  0
 75 84  1  0  0  0
 76 85  1  0  0  0
 77148  1  0  0  0
 77149  1  0  0  0
 77150  1  0  0  0
 77 82  1  0  0  0
 78 79  1  0  0  0
 78 80  1  0  0  0
 78151  1  0  0  0
 78152  1  0  0  0
 79 81  1  0  0  0
 79153  1  0  0  0
 79154  1  0  0  0
 80155  1  0  0  0
 80156  1  0  0  0
 81 84  1  0  0  0
 81157  1  0  0  0
 81158  1  0  0  0
 82 83  1  0  0  0
 82159  1  0  0  0
 83160  1  0  0  0
M  ISO  4   1 100  68 101  80 101  83 100
M  END
> <chiral flag>
0

> <version>
0

> <s_m_source_file>
/data/baiqing/PycharmProjects/Reinvent-master-3.2/result/LINK_invent/BTK/process_docking_weight1_custom_product_contain_oxygen_bond_distance_aromatic_linkinvent_7_9_3/rearranged_h_0100.sdf

> <i_m_source_file_index>
99

> <r_mmod_Potential_Energy-OPLS-2005>
63.754638671875

> <r_mmod_Stretch_Energy-OPLS-2005>
56.731761932373

> <r_mmod_Bend_Energy-OPLS-2005>
123.217224121094

> <r_mmod_Torsional_Energy-OPLS-2005>
227.836578369141

> <r_mmod_Improper_Torsional_Energy-OPLS-2005>
15.9108877182007

> <r_mmod_Van_der_Waal_Energy-OPLS-2005>
160.757034301758

> <r_mmod_Electrostatic_Energy-OPLS-2005>
-358.44384765625

> <r_mmod_Solvation_Energy-OPLS-2005>
-204.352081298828

> <b_mmod_Minimization_Converged-OPLS-2005>
0

> <r_mmod_RMS_Derivative-OPLS-2005>
13.172739982605

$$$$
