0
                    3D
 Structure written by MMmdl.
163171  0  0  1  0            999 V2000
  -30.6549  -14.4760   20.6565 C   0  0  0  0  0  0
  -30.4404  -12.3312   19.4208 C   0  0  0  0  0  0
  -29.5050  -12.5339   18.2092 C   0  0  0  0  0  0
  -28.0234  -12.3798   18.6124 C   0  0  0  0  0  0
  -27.6674  -13.1994   19.8804 C   0  0  2  0  0  0
  -28.6974  -12.9262   20.9978 C   0  0  0  0  0  0
  -25.2614  -13.8142   20.5631 C   0  0  0  0  0  0
  -24.1856  -13.0434   20.9160 C   0  0  0  0  0  0
  -24.6394  -11.6898   20.8722 C   0  0  0  0  0  0
  -23.9054  -10.4292   21.0412 C   0  0  0  0  0  0
  -24.3614   -9.4213   21.9192 C   0  0  0  0  0  0
  -23.6296   -8.2241   22.0750 C   0  0  0  0  0  0
  -22.4272   -8.0284   21.3546 C   0  0  0  0  0  0
  -21.9913   -9.0248   20.4636 C   0  0  0  0  0  0
  -22.7231  -10.2136   20.3050 C   0  0  0  0  0  0
  -21.6857   -6.0740   22.5285 C   0  0  0  0  0  0
  -21.4009   -6.5644   23.8220 C   0  0  0  0  0  0
  -21.3661   -5.6797   24.9183 C   0  0  0  0  0  0
  -21.6043   -4.3060   24.7232 C   0  0  0  0  0  0
  -21.8819   -3.8154   23.4355 C   0  0  0  0  0  0
  -21.9189   -4.6967   22.3410 C   0  0  0  0  0  0
  -22.7889  -13.5250   21.1848 C   0  0  0  0  0  0
  -22.1665   -4.2156   21.0991 F   0  0  0  0  0  0
  -21.5629   -3.4544   25.7746 F   0  0  0  0  0  0
  -30.0383  -13.2725   20.4807 N   0  0  0  0  0  0
  -26.3044  -12.9293   20.3329 N   0  0  0  0  0  0
  -25.9316  -11.6459   20.5722 N   0  0  0  0  0  0
  -22.0514  -12.8221   22.0385 N   0  0  0  0  0  0
  -25.4364  -15.1845   20.4022 N   0  0  0  0  0  0
  -31.6995  -14.7894   20.0762 O   0  0  0  0  0  0
  -21.6637   -6.8881   21.4244 O   0  0  0  0  0  0
  -22.3579  -14.5563   20.6715 O   0  0  0  0  0  0
  -24.6174  -31.8646   23.2068 C   0  0  0  0  0  0
  -25.9065  -32.4788   23.8382 C   0  0  1  0  0  0
  -27.2305  -27.4021   20.1303 C   0  0  0  0  0  0
  -25.5930  -33.8585   24.2325 N   0  0  0  0  0  0
  -23.4074  -30.4875   21.5462 C   0  0  2  0  0  0
  -24.8542  -28.9413   20.1204 C   0  0  0  0  0  0
  -22.7429  -29.4641   22.4968 C   0  0  0  0  0  0
  -18.0269  -28.1408   22.8440 C   0  0  0  0  0  0
  -24.1499  -36.7292   23.2640 C   0  0  0  0  0  0
  -25.9355  -30.8274   21.3562 C   0  0  0  0  0  0
  -26.0143  -29.4553   20.7131 C   0  0  0  0  0  0
  -27.2081  -28.6966   20.7057 C   0  0  0  0  0  0
  -26.0551  -26.9031   19.5335 C   0  0  0  0  0  0
  -24.8709  -27.6660   19.5244 C   0  0  0  0  0  0
  -23.6213  -29.8166   20.1609 C   0  0  0  0  0  0
  -25.4107  -36.3085   24.0358 C   0  0  1  0  0  0
  -20.5868  -28.3678   23.1315 C   0  0  2  0  0  0
  -20.6762  -26.9414   22.5419 C   0  0  0  0  0  0
  -19.5745  -26.6396   21.5209 C   0  0  0  0  0  0
  -18.1915  -26.7936   22.1606 C   0  0  0  0  0  0
  -19.1525  -28.8851   23.2864 C   0  0  0  0  0  0
  -18.9470  -30.1445   23.8902 C   0  0  0  0  0  0
  -17.6482  -30.6594   24.0558 C   0  0  0  0  0  0
  -25.9049  -34.9453   23.5132 C   0  0  0  0  0  0
  -16.5367  -29.9101   23.6328 C   0  0  0  0  0  0
  -16.7262  -28.6534   23.0309 C   0  0  0  0  0  0
  -26.4481  -31.6550   25.0703 C   0  0  0  0  0  0
  -25.3757  -31.3657   26.1452 C   0  0  0  0  0  0
  -27.0282  -30.3004   24.6019 C   0  0  0  0  0  0
  -27.6065  -32.4246   25.7482 C   0  0  0  0  0  0
  -27.5580  -37.1790   24.8465 C   0  0  0  0  0  0
  -21.4156  -29.3055   22.3742 N   0  0  0  0  0  0
  -26.4276  -37.3780   23.9440 N   0  0  0  0  0  0
  -24.6722  -31.0745   22.0960 N   0  0  0  0  0  0
  -23.4185  -28.8161   23.3012 O   0  0  0  0  0  0
  -28.4033  -26.6746   20.0936 O   0  0  0  0  0  0
  -26.5581  -34.8899   22.4684 O   0  0  0  0  0  0
  -23.5376  -32.1400   23.7456 O   0  0  0  0  0  0
  -28.7214  -17.1610   22.2938 C   0  0  0  0  0  0
  -29.7268  -16.6020   21.5299 C   0  0  0  0  0  0
  -29.3575  -19.0705   21.2123 C   0  0  0  0  0  0
  -27.8386  -16.4283   23.2623 C   0  0  0  0  0  0
  -30.5101  -23.1752   20.4295 C   0  0  0  0  0  0
  -28.5458  -21.9297   22.6361 C   0  0  0  0  0  0
  -28.0517  -25.6908   22.3494 C   0  0  0  0  0  0
  -28.0761  -24.1384   20.2444 C   0  0  0  0  0  0
  -29.0094  -22.8577   20.2589 C   0  0  2  0  0  0
  -28.5602  -21.6279   21.1303 C   0  0  1  0  0  0
  -28.5518  -25.4836   20.9095 C   0  0  1  0  0  0
  -28.5198  -18.5375   22.0997 N   0  0  0  0  0  0
  -30.0397  -15.2675   21.5613 N   0  0  0  0  0  0
  -29.3655  -20.4243   20.8376 N   0  0  0  0  0  0
  -30.4724  -17.8597   20.5386 S   0  0  0  0  0  0
  -31.4832  -12.4672   19.1264 H   0  0  0  0  0  0
  -30.3692  -11.3068   19.7896 H   0  0  0  0  0  0
  -29.7525  -11.8227   17.4207 H   0  0  0  0  0  0
  -29.6670  -13.5274   17.7883 H   0  0  0  0  0  0
  -27.8349  -11.3199   18.7925 H   0  0  0  0  0  0
  -27.3762  -12.6668   17.7821 H   0  0  0  0  0  0
  -27.7263  -14.2549   19.6125 H   0  0  0  0  0  0
  -28.6775  -11.8705   21.2721 H   0  0  0  0  0  0
  -28.4195  -13.4547   21.9093 H   0  0  0  0  0  0
  -25.2757   -9.5697   22.4765 H   0  0  0  0  0  0
  -24.0011   -7.4634   22.7474 H   0  0  0  0  0  0
  -21.0844   -8.8764   19.8937 H   0  0  0  0  0  0
  -22.3696  -10.9673   19.6158 H   0  0  0  0  0  0
  -21.1996   -7.6147   23.9728 H   0  0  0  0  0  0
  -21.1485   -6.0527   25.9088 H   0  0  0  0  0  0
  -22.0591   -2.7610   23.2860 H   0  0  0  0  0  0
  -22.4110  -11.9863   22.4741 H   0  0  0  0  0  0
  -21.1132  -13.1261   22.2588 H   0  0  0  0  0  0
  -24.6658  -15.8388   20.4854 H   0  0  0  0  0  0
  -26.2804  -15.6120   20.0442 H   0  0  0  0  0  0
  -26.7122  -32.5501   23.1145 H   0  0  0  0  0  0
  -25.0103  -33.9729   25.0486 H   0  0  0  0  0  0
  -22.6976  -31.3047   21.4015 H   0  0  0  0  0  0
  -23.3753  -35.9637   23.3301 H   0  0  0  0  0  0
  -24.3611  -36.8900   22.2053 H   0  0  0  0  0  0
  -23.7260  -37.6505   23.6643 H   0  0  0  0  0  0
  -26.0421  -31.5871   20.5813 H   0  0  0  0  0  0
  -26.8235  -30.8885   21.9720 H   0  0  0  0  0  0
  -28.1094  -29.0905   21.1544 H   0  0  0  0  0  0
  -26.0562  -25.9261   19.0718 H   0  0  0  0  0  0
  -23.9779  -27.2614   19.0667 H   0  0  0  0  0  0
  -23.7437  -30.5915   19.4031 H   0  0  0  0  0  0
  -22.7441  -29.2455   19.8543 H   0  0  0  0  0  0
  -25.1284  -36.1954   25.0853 H   0  0  0  0  0  0
  -20.9930  -28.3234   24.1439 H   0  0  0  0  0  0
  -20.5695  -26.2273   23.3608 H   0  0  0  0  0  0
  -21.6637  -26.7443   22.1229 H   0  0  0  0  0  0
  -19.6923  -25.6308   21.1241 H   0  0  0  0  0  0
  -19.6729  -27.3197   20.6746 H   0  0  0  0  0  0
  -17.4204  -26.6692   21.3989 H   0  0  0  0  0  0
  -18.0290  -26.0080   22.9014 H   0  0  0  0  0  0
  -19.7961  -30.7227   24.2306 H   0  0  0  0  0  0
  -17.5051  -31.6275   24.5159 H   0  0  0  0  0  0
  -15.5370  -30.3014   23.7662 H   0  0  0  0  0  0
  -15.8654  -28.0876   22.7001 H   0  0  0  0  0  0
  -24.6007  -30.6888   25.7834 H   0  0  0  0  0  0
  -24.8831  -32.2783   26.4818 H   0  0  0  0  0  0
  -25.8133  -30.8944   27.0261 H   0  0  0  0  0  0
  -26.2789  -29.6781   24.1099 H   0  0  0  0  0  0
  -27.4120  -29.7222   25.4433 H   0  0  0  0  0  0
  -27.8604  -30.4356   23.9104 H   0  0  0  0  0  0
  -27.2719  -33.3585   26.2015 H   0  0  0  0  0  0
  -28.3904  -32.6722   25.0308 H   0  0  0  0  0  0
  -28.0662  -31.8361   26.5424 H   0  0  0  0  0  0
  -28.2572  -38.0105   24.7507 H   0  0  0  0  0  0
  -28.1099  -36.2636   24.6290 H   0  0  0  0  0  0
  -27.2302  -37.1428   25.8863 H   0  0  0  0  0  0
  -20.9333  -29.8808   21.6979 H   0  0  0  0  0  0
  -26.0165  -38.2864   24.1447 H   0  0  0  0  0  0
  -27.2670  -15.6488   22.7575 H   0  0  0  0  0  0
  -27.1207  -17.0930   23.7437 H   0  0  0  0  0  0
  -28.4216  -15.9516   24.0506 H   0  0  0  0  0  0
  -30.8229  -23.9519   19.7323 H   0  0  0  0  0  0
  -31.1424  -22.3089   20.2369 H   0  0  0  0  0  0
  -30.7331  -23.5127   21.4402 H   0  0  0  0  0  0
  -27.9061  -22.7840   22.8519 H   0  0  0  0  0  0
  -29.5410  -22.1403   23.0289 H   0  0  0  0  0  0
  -28.1347  -21.0957   23.2042 H   0  0  0  0  0  0
  -28.3985  -24.8924   23.0022 H   0  0  0  0  0  0
  -26.9650  -25.7318   22.4116 H   0  0  0  0  0  0
  -28.4479  -26.6176   22.7630 H   0  0  0  0  0  0
  -27.0828  -23.8740   20.6125 H   0  0  0  0  0  0
  -27.9195  -24.3767   19.1906 H   0  0  0  0  0  0
  -28.9178  -22.4898   19.2334 H   0  0  0  0  0  0
  -27.5353  -21.3821   20.8481 H   0  0  0  0  0  0
  -29.6340  -25.4527   21.0073 H   0  0  0  0  0  0
  -29.4172  -14.7267   22.1425 H   0  0  0  0  0  0
  -30.0978  -20.6151   20.1619 H   0  0  0  0  0  0
  1 25  1  0  0  0
  1 30  2  0  0  0
  1 83  1  0  0  0
  2  3  1  0  0  0
  2 25  1  0  0  0
  2 86  1  0  0  0
  2 87  1  0  0  0
  3  4  1  0  0  0
  3 88  1  0  0  0
  3 89  1  0  0  0
  4  5  1  0  0  0
  4 90  1  0  0  0
  4 91  1  0  0  0
  5  6  1  0  0  0
  5 26  1  0  0  0
  5 92  1  0  0  0
  6 25  1  0  0  0
  6 93  1  0  0  0
  6 94  1  0  0  0
  7  8  2  0  0  0
  7 26  1  0  0  0
  7 29  1  0  0  0
  8  9  1  0  0  0
  8 22  1  0  0  0
  9 10  1  0  0  0
  9 27  2  0  0  0
 10 11  2  0  0  0
 10 15  1  0  0  0
 11 12  1  0  0  0
 11 95  1  0  0  0
 12 13  2  0  0  0
 12 96  1  0  0  0
 13 14  1  0  0  0
 13 31  1  0  0  0
 14 15  2  0  0  0
 14 97  1  0  0  0
 15 98  1  0  0  0
 16 17  2  0  0  0
 16 21  1  0  0  0
 16 31  1  0  0  0
 17 18  1  0  0  0
 17 99  1  0  0  0
 18 19  2  0  0  0
 18100  1  0  0  0
 19 20  1  0  0  0
 19 24  1  0  0  0
 20 21  2  0  0  0
 20101  1  0  0  0
 21 23  1  0  0  0
 22 28  1  0  0  0
 22 32  2  0  0  0
 26 27  1  0  0  0
 28102  1  0  0  0
 28103  1  0  0  0
 29104  1  0  0  0
 29105  1  0  0  0
 33 34  1  0  0  0
 33 66  1  0  0  0
 33 70  2  0  0  0
 34 36  1  0  0  0
 34 59  1  0  0  0
 34106  1  0  0  0
 35 44  2  0  0  0
 35 45  1  0  0  0
 35 68  1  0  0  0
 36 56  1  0  0  0
 36107  1  0  0  0
 37 39  1  0  0  0
 37 47  1  0  0  0
 37 66  1  0  0  0
 37108  1  0  0  0
 38 43  2  0  0  0
 38 46  1  0  0  0
 38 47  1  0  0  0
 39 64  1  0  0  0
 39 67  2  0  0  0
 40 52  1  0  0  0
 40 53  2  0  0  0
 40 58  1  0  0  0
 41109  1  0  0  0
 41110  1  0  0  0
 41111  1  0  0  0
 41 48  1  0  0  0
 42 43  1  0  0  0
 42 66  1  0  0  0
 42112  1  0  0  0
 42113  1  0  0  0
 43 44  1  0  0  0
 44114  1  0  0  0
 45 46  2  0  0  0
 45115  1  0  0  0
 46116  1  0  0  0
 47117  1  0  0  0
 47118  1  0  0  0
 48 56  1  0  0  0
 48 65  1  0  0  0
 48119  1  0  0  0
 49 50  1  0  0  0
 49 53  1  0  0  0
 49 64  1  0  0  0
 49120  1  0  0  0
 50 51  1  0  0  0
 50121  1  0  0  0
 50122  1  0  0  0
 51 52  1  0  0  0
 51123  1  0  0  0
 51124  1  0  0  0
 52125  1  0  0  0
 52126  1  0  0  0
 53 54  1  0  0  0
 54 55  2  0  0  0
 54127  1  0  0  0
 55 57  1  0  0  0
 55128  1  0  0  0
 56 69  2  0  0  0
 57 58  2  0  0  0
 57129  1  0  0  0
 58130  1  0  0  0
 59 60  1  0  0  0
 59 61  1  0  0  0
 59 62  1  0  0  0
 60131  1  0  0  0
 60132  1  0  0  0
 60133  1  0  0  0
 61134  1  0  0  0
 61135  1  0  0  0
 61136  1  0  0  0
 62137  1  0  0  0
 62138  1  0  0  0
 62139  1  0  0  0
 63 65  1  0  0  0
 63140  1  0  0  0
 63141  1  0  0  0
 63142  1  0  0  0
 64143  1  0  0  0
 65144  1  0  0  0
 68 81  1  0  0  0
 71 72  2  0  0  0
 71 74  1  0  0  0
 71 82  1  0  0  0
 72 83  1  0  0  0
 72 85  1  0  0  0
 73 82  2  0  0  0
 73 84  1  0  0  0
 73 85  1  0  0  0
 74145  1  0  0  0
 74146  1  0  0  0
 74147  1  0  0  0
 75148  1  0  0  0
 75149  1  0  0  0
 75150  1  0  0  0
 75 79  1  0  0  0
 76151  1  0  0  0
 76152  1  0  0  0
 76153  1  0  0  0
 76 80  1  0  0  0
 77154  1  0  0  0
 77155  1  0  0  0
 77156  1  0  0  0
 77 81  1  0  0  0
 78 79  1  0  0  0
 78 81  1  0  0  0
 78157  1  0  0  0
 78158  1  0  0  0
 79 80  1  0  0  0
 79159  1  0  0  0
 80 84  1  0  0  0
 80160  1  0  0  0
 81161  1  0  0  0
 83162  1  0  0  0
 84163  1  0  0  0
M  ISO  4   1 100  68 101  81 101  83 100
M  END
> <chiral flag>
0

> <version>
0

> <s_m_source_file>
/data/baiqing/PycharmProjects/Reinvent-master-3.2/result/LINK_invent/BTK/process_docking_weight1_custom_product_contain_oxygen_bond_distance_aromatic_linkinvent_7_9_3/rearranged_h_0188.sdf

> <i_m_source_file_index>
1

> <r_mmod_Potential_Energy-OPLS-2005>
-105.634452819824

> <r_mmod_Stretch_Energy-OPLS-2005>
46.9126968383789

> <r_mmod_Bend_Energy-OPLS-2005>
137.447845458984

> <r_mmod_Torsional_Energy-OPLS-2005>
250.762100219727

> <r_mmod_Improper_Torsional_Energy-OPLS-2005>
4.31261825561523

> <r_mmod_Van_der_Waal_Energy-OPLS-2005>
117.411697387695

> <r_mmod_Electrostatic_Energy-OPLS-2005>
-466.762908935547

> <r_mmod_Solvation_Energy-OPLS-2005>
-211.506195068359

> <b_mmod_Minimization_Converged-OPLS-2005>
0

> <r_mmod_RMS_Derivative-OPLS-2005>
3.12863206863403

$$$$
1
                    3D
 Structure written by MMmdl.
156164  0  0  1  0            999 V2000
  -30.6024  -14.7464   20.4806 C   0  0  0  0  0  0
  -30.4306  -12.4630   19.4757 C   0  0  0  0  0  0
  -29.5224  -12.5600   18.2339 C   0  0  0  0  0  0
  -28.0403  -12.3839   18.6248 C   0  0  0  0  0  0
  -27.6454  -13.2417   19.8572 C   0  0  2  0  0  0
  -28.6872  -13.1527   20.9928 C   0  0  0  0  0  0
  -25.2504  -13.8200   20.5638 C   0  0  0  0  0  0
  -24.1799  -13.0448   20.9158 C   0  0  0  0  0  0
  -24.6434  -11.6905   20.8712 C   0  0  0  0  0  0
  -23.9078  -10.4292   21.0400 C   0  0  0  0  0  0
  -24.3622   -9.4194   21.9181 C   0  0  0  0  0  0
  -23.6280   -8.2228   22.0759 C   0  0  0  0  0  0
  -22.4268   -8.0278   21.3542 C   0  0  0  0  0  0
  -21.9898   -9.0260   20.4660 C   0  0  0  0  0  0
  -22.7237  -10.2127   20.3054 C   0  0  0  0  0  0
  -21.6844   -6.0732   22.5267 C   0  0  0  0  0  0
  -21.4036   -6.5631   23.8205 C   0  0  0  0  0  0
  -21.3669   -5.6777   24.9163 C   0  0  0  0  0  0
  -21.6043   -4.3042   24.7210 C   0  0  0  0  0  0
  -21.8815   -3.8133   23.4334 C   0  0  0  0  0  0
  -21.9201   -4.6958   22.3397 C   0  0  0  0  0  0
  -22.7827  -13.5246   21.1789 C   0  0  0  0  0  0
  -22.1653   -4.2149   21.0961 F   0  0  0  0  0  0
  -21.5633   -3.4522   25.7728 F   0  0  0  0  0  0
  -29.9888  -13.5139   20.4179 N   0  0  0  0  0  0
  -26.2957  -12.9426   20.3250 N   0  0  0  0  0  0
  -25.9365  -11.6554   20.5707 N   0  0  0  0  0  0
  -22.0441  -12.8263   22.0359 N   0  0  0  0  0  0
  -25.4153  -15.1921   20.4063 N   0  0  0  0  0  0
  -31.7899  -14.8455   20.1515 O   0  0  0  0  0  0
  -21.6622   -6.8876   21.4237 O   0  0  0  0  0  0
  -22.3509  -14.5553   20.6628 O   0  0  0  0  0  0
  -24.6289  -31.8555   23.1961 C   0  0  0  0  0  0
  -25.9145  -32.4737   23.8298 C   0  0  1  0  0  0
  -27.2290  -27.2809   20.1178 C   0  0  0  0  0  0
  -25.5934  -33.8527   24.2220 N   0  0  0  0  0  0
  -23.4233  -30.4790   21.5389 C   0  0  2  0  0  0
  -24.8710  -28.9184   20.1122 C   0  0  0  0  0  0
  -22.7452  -29.4632   22.4909 C   0  0  0  0  0  0
  -18.0297  -28.1394   22.8473 C   0  0  0  0  0  0
  -24.1490  -36.7287   23.2632 C   0  0  0  0  0  0
  -25.9675  -30.7708   21.3745 C   0  0  0  0  0  0
  -26.0427  -29.3937   20.7171 C   0  0  0  0  0  0
  -27.2246  -28.5879   20.7078 C   0  0  0  0  0  0
  -26.0357  -26.8590   19.4974 C   0  0  0  0  0  0
  -24.8706  -27.6569   19.4938 C   0  0  0  0  0  0
  -23.6400  -29.8050   20.1577 C   0  0  0  0  0  0
  -25.4108  -36.3044   24.0314 C   0  0  1  0  0  0
  -20.5883  -28.3710   23.1282 C   0  0  2  0  0  0
  -20.6798  -26.9433   22.5428 C   0  0  0  0  0  0
  -19.5797  -26.6402   21.5210 C   0  0  0  0  0  0
  -18.1957  -26.7946   22.1597 C   0  0  0  0  0  0
  -19.1542  -28.8865   23.2878 C   0  0  0  0  0  0
  -18.9463  -30.1456   23.8912 C   0  0  0  0  0  0
  -17.6467  -30.6597   24.0566 C   0  0  0  0  0  0
  -25.9062  -34.9434   23.5080 C   0  0  0  0  0  0
  -16.5358  -29.9099   23.6324 C   0  0  0  0  0  0
  -16.7278  -28.6506   23.0349 C   0  0  0  0  0  0
  -26.4506  -31.6550   25.0692 C   0  0  0  0  0  0
  -25.3702  -31.3751   26.1397 C   0  0  0  0  0  0
  -27.0336  -30.2938   24.6220 C   0  0  0  0  0  0
  -27.6058  -32.4276   25.7472 C   0  0  0  0  0  0
  -27.5599  -37.1766   24.8415 C   0  0  0  0  0  0
  -21.4169  -29.3049   22.3626 N   0  0  0  0  0  0
  -26.4262  -37.3767   23.9426 N   0  0  0  0  0  0
  -24.6916  -31.0527   22.0929 N   0  0  0  0  0  0
  -23.4160  -28.8190   23.3015 O   0  0  0  0  0  0
  -28.3483  -26.4238   20.0875 O   0  0  0  0  0  0
  -26.5647  -34.8915   22.4652 O   0  0  0  0  0  0
  -23.5447  -32.1390   23.7274 O   0  0  0  0  0  0
  -31.3615  -17.8348   20.9093 C   0  0  0  0  0  0
  -30.1110  -17.3223   20.6522 C   0  0  0  0  0  0
  -29.6902  -19.6798   20.4980 C   0  0  0  0  0  0
  -30.1399  -22.5732   21.8289 C   0  0  0  0  0  0
  -31.3509  -21.9134   24.0008 C   0  0  0  0  0  0
  -30.0310  -21.9212   23.2126 C   0  0  0  0  0  0
  -28.2425  -25.0500   20.6765 C   0  0  0  0  0  0
  -28.9559  -22.3456   20.8783 C   0  0  1  0  0  0
  -28.7357  -23.6745   19.9555 C   0  0  1  0  0  0
  -29.1786  -18.4059   20.4145 N   0  0  0  0  0  0
  -29.8064  -15.8682   20.6908 N   0  0  0  0  0  0
  -29.0057  -20.9404   20.2698 N   0  0  0  0  0  0
  -31.1542  -23.1933   21.5004 O   0  0  0  0  0  0
  -27.8399  -23.3706   19.0142 F   0  0  0  0  0  0
  -31.4139  -19.5943   20.8838 S   0  0  0  0  0  0
  -31.4770  -12.5748   19.1916 H   0  0  0  0  0  0
  -30.3463  -11.4763   19.9331 H   0  0  0  0  0  0
  -29.8127  -11.8228   17.4828 H   0  0  0  0  0  0
  -29.6584  -13.5372   17.7656 H   0  0  0  0  0  0
  -27.8651  -11.3271   18.8257 H   0  0  0  0  0  0
  -27.4035  -12.6452   17.7789 H   0  0  0  0  0  0
  -27.6453  -14.2735   19.5055 H   0  0  0  0  0  0
  -28.7258  -12.1480   21.4170 H   0  0  0  0  0  0
  -28.4241  -13.8225   21.8137 H   0  0  0  0  0  0
  -25.2778   -9.5686   22.4740 H   0  0  0  0  0  0
  -24.0003   -7.4631   22.7466 H   0  0  0  0  0  0
  -21.0822   -8.8785   19.8974 H   0  0  0  0  0  0
  -22.3690  -10.9671   19.6152 H   0  0  0  0  0  0
  -21.2023   -7.6143   23.9706 H   0  0  0  0  0  0
  -21.1502   -6.0507   25.9069 H   0  0  0  0  0  0
  -22.0596   -2.7602   23.2812 H   0  0  0  0  0  0
  -22.4041  -11.9969   22.4834 H   0  0  0  0  0  0
  -21.1060  -13.1347   22.2512 H   0  0  0  0  0  0
  -24.6339  -15.8362   20.4762 H   0  0  0  0  0  0
  -26.2595  -15.6387   20.0727 H   0  0  0  0  0  0
  -26.7204  -32.5386   23.1024 H   0  0  0  0  0  0
  -25.0008  -33.9644   25.0314 H   0  0  0  0  0  0
  -22.7192  -31.3008   21.3900 H   0  0  0  0  0  0
  -23.3770  -35.9600   23.3201 H   0  0  0  0  0  0
  -24.3609  -36.9019   22.2072 H   0  0  0  0  0  0
  -23.7221  -37.6443   23.6725 H   0  0  0  0  0  0
  -26.1075  -31.5376   20.6112 H   0  0  0  0  0  0
  -26.8424  -30.8132   22.0123 H   0  0  0  0  0  0
  -28.1231  -28.9506   21.1845 H   0  0  0  0  0  0
  -25.9980  -25.8945   19.0102 H   0  0  0  0  0  0
  -23.9733  -27.2864   19.0167 H   0  0  0  0  0  0
  -23.7546  -30.5779   19.3959 H   0  0  0  0  0  0
  -22.7574  -29.2355   19.8603 H   0  0  0  0  0  0
  -25.1288  -36.1857   25.0803 H   0  0  0  0  0  0
  -20.9988  -28.3324   24.1398 H   0  0  0  0  0  0
  -20.5698  -26.2322   23.3629 H   0  0  0  0  0  0
  -21.6674  -26.7483   22.1235 H   0  0  0  0  0  0
  -19.6982  -25.6309   21.1252 H   0  0  0  0  0  0
  -19.6766  -27.3202   20.6731 H   0  0  0  0  0  0
  -17.4244  -26.6691   21.3979 H   0  0  0  0  0  0
  -18.0361  -26.0082   22.8989 H   0  0  0  0  0  0
  -19.7936  -30.7253   24.2307 H   0  0  0  0  0  0
  -17.5029  -31.6278   24.5172 H   0  0  0  0  0  0
  -15.5361  -30.3014   23.7644 H   0  0  0  0  0  0
  -15.8676  -28.0832   22.7071 H   0  0  0  0  0  0
  -24.5876  -30.7095   25.7731 H   0  0  0  0  0  0
  -24.8895  -32.2946   26.4741 H   0  0  0  0  0  0
  -25.8000  -30.8976   27.0208 H   0  0  0  0  0  0
  -26.2934  -29.6679   24.1216 H   0  0  0  0  0  0
  -27.3935  -29.7217   25.4782 H   0  0  0  0  0  0
  -27.8851  -30.4154   23.9520 H   0  0  0  0  0  0
  -27.2660  -33.3566   26.2049 H   0  0  0  0  0  0
  -28.3882  -32.6831   25.0317 H   0  0  0  0  0  0
  -28.0700  -31.8380   26.5383 H   0  0  0  0  0  0
  -28.2496  -38.0181   24.7612 H   0  0  0  0  0  0
  -28.1214  -36.2721   24.6016 H   0  0  0  0  0  0
  -27.2359  -37.1153   25.8820 H   0  0  0  0  0  0
  -20.9338  -29.8682   21.6769 H   0  0  0  0  0  0
  -26.0128  -38.2816   24.1502 H   0  0  0  0  0  0
  -32.2678  -17.2894   21.1331 H   0  0  0  0  0  0
  -31.2121  -21.4526   24.9781 H   0  0  0  0  0  0
  -31.7261  -22.9243   24.1629 H   0  0  0  0  0  0
  -32.1216  -21.3492   23.4725 H   0  0  0  0  0  0
  -29.6742  -20.8977   23.0875 H   0  0  0  0  0  0
  -29.2613  -22.4433   23.7809 H   0  0  0  0  0  0
  -28.8226  -25.1394   21.5960 H   0  0  0  0  0  0
  -27.2202  -24.8910   21.0207 H   0  0  0  0  0  0
  -28.0631  -22.3197   21.5052 H   0  0  0  0  0  0
  -29.6623  -23.8820   19.4146 H   0  0  0  0  0  0
  -28.8343  -15.6518   20.8475 H   0  0  0  0  0  0
  -28.1492  -20.7674   19.7603 H   0  0  0  0  0  0
  1 25  1  0  0  0
  1 30  2  0  0  0
  1 81  1  0  0  0
  2  3  1  0  0  0
  2 25  1  0  0  0
  2 86  1  0  0  0
  2 87  1  0  0  0
  3  4  1  0  0  0
  3 88  1  0  0  0
  3 89  1  0  0  0
  4  5  1  0  0  0
  4 90  1  0  0  0
  4 91  1  0  0  0
  5  6  1  0  0  0
  5 26  1  0  0  0
  5 92  1  0  0  0
  6 25  1  0  0  0
  6 93  1  0  0  0
  6 94  1  0  0  0
  7  8  2  0  0  0
  7 26  1  0  0  0
  7 29  1  0  0  0
  8  9  1  0  0  0
  8 22  1  0  0  0
  9 10  1  0  0  0
  9 27  2  0  0  0
 10 11  2  0  0  0
 10 15  1  0  0  0
 11 12  1  0  0  0
 11 95  1  0  0  0
 12 13  2  0  0  0
 12 96  1  0  0  0
 13 14  1  0  0  0
 13 31  1  0  0  0
 14 15  2  0  0  0
 14 97  1  0  0  0
 15 98  1  0  0  0
 16 17  2  0  0  0
 16 21  1  0  0  0
 16 31  1  0  0  0
 17 18  1  0  0  0
 17 99  1  0  0  0
 18 19  2  0  0  0
 18100  1  0  0  0
 19 20  1  0  0  0
 19 24  1  0  0  0
 20 21  2  0  0  0
 20101  1  0  0  0
 21 23  1  0  0  0
 22 28  1  0  0  0
 22 32  2  0  0  0
 26 27  1  0  0  0
 28102  1  0  0  0
 28103  1  0  0  0
 29104  1  0  0  0
 29105  1  0  0  0
 33 34  1  0  0  0
 33 66  1  0  0  0
 33 70  2  0  0  0
 34 36  1  0  0  0
 34 59  1  0  0  0
 34106  1  0  0  0
 35 44  2  0  0  0
 35 45  1  0  0  0
 35 68  1  0  0  0
 36 56  1  0  0  0
 36107  1  0  0  0
 37 39  1  0  0  0
 37 47  1  0  0  0
 37 66  1  0  0  0
 37108  1  0  0  0
 38 43  2  0  0  0
 38 46  1  0  0  0
 38 47  1  0  0  0
 39 64  1  0  0  0
 39 67  2  0  0  0
 40 52  1  0  0  0
 40 53  2  0  0  0
 40 58  1  0  0  0
 41109  1  0  0  0
 41110  1  0  0  0
 41111  1  0  0  0
 41 48  1  0  0  0
 42 43  1  0  0  0
 42 66  1  0  0  0
 42112  1  0  0  0
 42113  1  0  0  0
 43 44  1  0  0  0
 44114  1  0  0  0
 45 46  2  0  0  0
 45115  1  0  0  0
 46116  1  0  0  0
 47117  1  0  0  0
 47118  1  0  0  0
 48 56  1  0  0  0
 48 65  1  0  0  0
 48119  1  0  0  0
 49 50  1  0  0  0
 49 53  1  0  0  0
 49 64  1  0  0  0
 49120  1  0  0  0
 50 51  1  0  0  0
 50121  1  0  0  0
 50122  1  0  0  0
 51 52  1  0  0  0
 51123  1  0  0  0
 51124  1  0  0  0
 52125  1  0  0  0
 52126  1  0  0  0
 53 54  1  0  0  0
 54 55  2  0  0  0
 54127  1  0  0  0
 55 57  1  0  0  0
 55128  1  0  0  0
 56 69  2  0  0  0
 57 58  2  0  0  0
 57129  1  0  0  0
 58130  1  0  0  0
 59 60  1  0  0  0
 59 61  1  0  0  0
 59 62  1  0  0  0
 60131  1  0  0  0
 60132  1  0  0  0
 60133  1  0  0  0
 61134  1  0  0  0
 61135  1  0  0  0
 61136  1  0  0  0
 62137  1  0  0  0
 62138  1  0  0  0
 62139  1  0  0  0
 63 65  1  0  0  0
 63140  1  0  0  0
 63141  1  0  0  0
 63142  1  0  0  0
 64143  1  0  0  0
 65144  1  0  0  0
 68 77  1  0  0  0
 71 72  2  0  0  0
 71 85  1  0  0  0
 71145  1  0  0  0
 72 80  1  0  0  0
 72 81  1  0  0  0
 73 80  2  0  0  0
 73 82  1  0  0  0
 73 85  1  0  0  0
 74 76  1  0  0  0
 74 78  1  0  0  0
 74 83  2  0  0  0
 75 76  1  0  0  0
 75146  1  0  0  0
 75147  1  0  0  0
 75148  1  0  0  0
 76149  1  0  0  0
 76150  1  0  0  0
 77 79  1  0  0  0
 77151  1  0  0  0
 77152  1  0  0  0
 78 79  1  0  0  0
 78 82  1  0  0  0
 78153  1  0  0  0
 79 84  1  0  0  0
 79154  1  0  0  0
 81155  1  0  0  0
 82156  1  0  0  0
M  ISO  4   1 100  68 101  77 101  81 100
M  END
> <chiral flag>
0

> <version>
0

> <s_m_source_file>
/data/baiqing/PycharmProjects/Reinvent-master-3.2/result/LINK_invent/BTK/process_docking_weight1_custom_product_contain_oxygen_bond_distance_aromatic_linkinvent_7_9_3/rearranged_h_0188.sdf

> <i_m_source_file_index>
2

> <r_mmod_Potential_Energy-OPLS-2005>
65.4063262939453

> <r_mmod_Stretch_Energy-OPLS-2005>
120.765411376953

> <r_mmod_Bend_Energy-OPLS-2005>
165.931121826172

> <r_mmod_Torsional_Energy-OPLS-2005>
237.792572021484

> <r_mmod_Improper_Torsional_Energy-OPLS-2005>
6.94726181030273

> <r_mmod_Van_der_Waal_Energy-OPLS-2005>
115.307334899902

> <r_mmod_Electrostatic_Energy-OPLS-2005>
-433.508239746094

> <r_mmod_Solvation_Energy-OPLS-2005>
-223.601440429688

> <b_mmod_Minimization_Converged-OPLS-2005>
0

> <r_mmod_RMS_Derivative-OPLS-2005>
4.51092958450317

$$$$
2
                    3D
 Structure written by MMmdl.
159167  0  0  1  0            999 V2000
  -30.7494  -14.4854   20.5664 C   0  0  0  0  0  0
  -30.4158  -12.3197   19.4313 C   0  0  0  0  0  0
  -29.4930  -12.4952   18.2129 C   0  0  0  0  0  0
  -28.0164  -12.3611   18.6323 C   0  0  0  0  0  0
  -27.6587  -13.2178   19.8748 C   0  0  2  0  0  0
  -28.7062  -13.0497   20.9977 C   0  0  0  0  0  0
  -25.2574  -13.8191   20.5729 C   0  0  0  0  0  0
  -24.1854  -13.0459   20.9232 C   0  0  0  0  0  0
  -24.6432  -11.6923   20.8804 C   0  0  0  0  0  0
  -23.9109  -10.4305   21.0456 C   0  0  0  0  0  0
  -24.3654   -9.4195   21.9211 C   0  0  0  0  0  0
  -23.6306   -8.2249   22.0769 C   0  0  0  0  0  0
  -22.4282   -8.0321   21.3570 C   0  0  0  0  0  0
  -21.9944   -9.0305   20.4673 C   0  0  0  0  0  0
  -22.7296  -10.2164   20.3086 C   0  0  0  0  0  0
  -21.6854   -6.0758   22.5283 C   0  0  0  0  0  0
  -21.4009   -6.5658   23.8220 C   0  0  0  0  0  0
  -21.3649   -5.6811   24.9183 C   0  0  0  0  0  0
  -21.6042   -4.3071   24.7228 C   0  0  0  0  0  0
  -21.8802   -3.8166   23.4341 C   0  0  0  0  0  0
  -21.9182   -4.6985   22.3402 C   0  0  0  0  0  0
  -22.7871  -13.5252   21.1866 C   0  0  0  0  0  0
  -22.1662   -4.2177   21.0976 F   0  0  0  0  0  0
  -21.5621   -3.4544   25.7732 F   0  0  0  0  0  0
  -30.0267  -13.3388   20.4202 N   0  0  0  0  0  0
  -26.3040  -12.9396   20.3437 N   0  0  0  0  0  0
  -25.9362  -11.6540   20.5848 N   0  0  0  0  0  0
  -22.0502  -12.8268   22.0420 N   0  0  0  0  0  0
  -25.4209  -15.1920   20.4065 N   0  0  0  0  0  0
  -31.9123  -14.5529   20.1614 O   0  0  0  0  0  0
  -21.6640   -6.8921   21.4263 O   0  0  0  0  0  0
  -22.3566  -14.5569   20.6708 O   0  0  0  0  0  0
  -24.6190  -31.8651   23.2124 C   0  0  0  0  0  0
  -25.9072  -32.4816   23.8414 C   0  0  1  0  0  0
  -27.2182  -27.4162   20.0907 C   0  0  0  0  0  0
  -25.5911  -33.8614   24.2335 N   0  0  0  0  0  0
  -23.4100  -30.4923   21.5513 C   0  0  2  0  0  0
  -24.8542  -28.9675   20.1058 C   0  0  0  0  0  0
  -22.7438  -29.4642   22.4960 C   0  0  0  0  0  0
  -18.0291  -28.1411   22.8485 C   0  0  0  0  0  0
  -24.1483  -36.7314   23.2633 C   0  0  0  0  0  0
  -25.9415  -30.8315   21.3652 C   0  0  0  0  0  0
  -26.0194  -29.4680   20.7033 C   0  0  0  0  0  0
  -27.2112  -28.7021   20.6868 C   0  0  0  0  0  0
  -26.0400  -26.9439   19.4727 C   0  0  0  0  0  0
  -24.8606  -27.7069   19.4852 C   0  0  0  0  0  0
  -23.6179  -29.8358   20.1619 C   0  0  0  0  0  0
  -25.4103  -36.3099   24.0331 C   0  0  1  0  0  0
  -20.5880  -28.3683   23.1305 C   0  0  2  0  0  0
  -20.6784  -26.9416   22.5418 C   0  0  0  0  0  0
  -19.5759  -26.6395   21.5227 C   0  0  0  0  0  0
  -18.1938  -26.7959   22.1633 C   0  0  0  0  0  0
  -19.1540  -28.8870   23.2888 C   0  0  0  0  0  0
  -18.9462  -30.1491   23.8878 C   0  0  0  0  0  0
  -17.6451  -30.6596   24.0585 C   0  0  0  0  0  0
  -25.9028  -34.9466   23.5121 C   0  0  0  0  0  0
  -16.5346  -29.9090   23.6355 C   0  0  0  0  0  0
  -16.7274  -28.6537   23.0321 C   0  0  0  0  0  0
  -26.4503  -31.6597   25.0738 C   0  0  0  0  0  0
  -25.3779  -31.3685   26.1488 C   0  0  0  0  0  0
  -27.0334  -30.3041   24.6115 C   0  0  0  0  0  0
  -27.6074  -32.4312   25.7494 C   0  0  0  0  0  0
  -27.5571  -37.1814   24.8459 C   0  0  0  0  0  0
  -21.4159  -29.3026   22.3692 N   0  0  0  0  0  0
  -26.4288  -37.3783   23.9396 N   0  0  0  0  0  0
  -24.6755  -31.0758   22.1015 N   0  0  0  0  0  0
  -23.4186  -28.8149   23.3000 O   0  0  0  0  0  0
  -28.3272  -26.5938   20.1380 O   0  0  0  0  0  0
  -26.5566  -34.8911   22.4669 O   0  0  0  0  0  0
  -23.5377  -32.1385   23.7506 O   0  0  0  0  0  0
  -28.6230  -18.4258   20.8354 C   0  0  0  0  0  0
  -29.9441  -18.0605   20.9694 C   0  0  0  0  0  0
  -29.5684  -20.4853   20.5448 C   0  0  0  0  0  0
  -30.6511  -16.7800   21.2737 C   0  0  0  0  0  0
  -28.6426  -23.2635   18.6363 C   0  0  0  0  0  0
  -30.5473  -24.8643   20.4655 C   0  0  0  0  0  0
  -29.3731  -23.8787   22.4463 C   0  0  0  0  0  0
  -28.0934  -25.4106   20.9433 C   0  0  0  0  0  0
  -28.7890  -23.0046   20.1454 C   0  0  2  0  0  0
  -29.2027  -24.2921   20.9635 C   0  0  0  0  0  0
  -28.4223  -19.8011   20.5866 N   0  0  0  0  0  0
  -29.6960  -21.8659   20.3615 N   0  0  0  0  0  0
  -30.0717  -15.5955   20.9514 N   0  0  0  0  0  0
  -31.7726  -16.8470   21.7916 O   0  0  0  0  0  0
  -30.9819  -19.4701   20.7976 S   0  0  0  0  0  0
  -31.4589  -12.3971   19.1189 H   0  0  0  0  0  0
  -30.3130  -11.3199   19.8571 H   0  0  0  0  0  0
  -29.7382  -11.7557   17.4493 H   0  0  0  0  0  0
  -29.6634  -13.4725   17.7598 H   0  0  0  0  0  0
  -27.8297  -11.3079   18.8437 H   0  0  0  0  0  0
  -27.3651  -12.6222   17.8004 H   0  0  0  0  0  0
  -27.6909  -14.2595   19.5550 H   0  0  0  0  0  0
  -28.6863  -12.0316   21.3893 H   0  0  0  0  0  0
  -28.4811  -13.7016   21.8431 H   0  0  0  0  0  0
  -25.2795   -9.5650   22.4800 H   0  0  0  0  0  0
  -24.0001   -7.4631   22.7467 H   0  0  0  0  0  0
  -21.0882   -8.8850   19.8978 H   0  0  0  0  0  0
  -22.3778  -10.9726   19.6208 H   0  0  0  0  0  0
  -21.2002   -7.6163   23.9735 H   0  0  0  0  0  0
  -21.1498   -6.0542   25.9094 H   0  0  0  0  0  0
  -22.0582   -2.7629   23.2833 H   0  0  0  0  0  0
  -22.4116  -11.9924   22.4812 H   0  0  0  0  0  0
  -21.1123  -13.1324   22.2608 H   0  0  0  0  0  0
  -24.6335  -15.8263   20.4843 H   0  0  0  0  0  0
  -26.2388  -15.6259   20.0020 H   0  0  0  0  0  0
  -26.7141  -32.5526   23.1170 H   0  0  0  0  0  0
  -25.0099  -33.9787   25.0503 H   0  0  0  0  0  0
  -22.7030  -31.3121   21.4173 H   0  0  0  0  0  0
  -23.3732  -35.9659   23.3310 H   0  0  0  0  0  0
  -24.3564  -36.8913   22.2043 H   0  0  0  0  0  0
  -23.7277  -37.6536   23.6650 H   0  0  0  0  0  0
  -26.0546  -31.6067   20.6056 H   0  0  0  0  0  0
  -26.8292  -30.8772   21.9840 H   0  0  0  0  0  0
  -28.1123  -29.0779   21.1505 H   0  0  0  0  0  0
  -26.0256  -25.9747   18.9939 H   0  0  0  0  0  0
  -23.9641  -27.3217   19.0192 H   0  0  0  0  0  0
  -23.7303  -30.6177   19.4097 H   0  0  0  0  0  0
  -22.7408  -29.2588   19.8621 H   0  0  0  0  0  0
  -25.1296  -36.1950   25.0831 H   0  0  0  0  0  0
  -20.9998  -28.3262   24.1408 H   0  0  0  0  0  0
  -20.5742  -26.2276   23.3595 H   0  0  0  0  0  0
  -21.6652  -26.7472   22.1184 H   0  0  0  0  0  0
  -19.6916  -25.6305   21.1252 H   0  0  0  0  0  0
  -19.6730  -27.3211   20.6768 H   0  0  0  0  0  0
  -17.4219  -26.6714   21.4018 H   0  0  0  0  0  0
  -18.0321  -26.0120   22.9048 H   0  0  0  0  0  0
  -19.7923  -30.7354   24.2203 H   0  0  0  0  0  0
  -17.4987  -31.6264   24.5194 H   0  0  0  0  0  0
  -15.5348  -30.2967   23.7716 H   0  0  0  0  0  0
  -15.8679  -28.0883   22.6979 H   0  0  0  0  0  0
  -24.5955  -30.7034   25.7820 H   0  0  0  0  0  0
  -24.8979  -32.2835   26.4976 H   0  0  0  0  0  0
  -25.8150  -30.8827   27.0225 H   0  0  0  0  0  0
  -26.2874  -29.6787   24.1201 H   0  0  0  0  0  0
  -27.4133  -29.7298   25.4577 H   0  0  0  0  0  0
  -27.8695  -30.4350   23.9236 H   0  0  0  0  0  0
  -27.2701  -33.3598   26.2110 H   0  0  0  0  0  0
  -28.3872  -32.6898   25.0316 H   0  0  0  0  0  0
  -28.0768  -31.8420   26.5386 H   0  0  0  0  0  0
  -28.2603  -38.0092   24.7477 H   0  0  0  0  0  0
  -28.1061  -36.2631   24.6336 H   0  0  0  0  0  0
  -27.2275  -37.1506   25.8856 H   0  0  0  0  0  0
  -20.9341  -29.8718   21.6874 H   0  0  0  0  0  0
  -26.0171  -38.2849   24.1425 H   0  0  0  0  0  0
  -27.7640  -17.7766   20.9174 H   0  0  0  0  0  0
  -29.6013  -23.4930   18.1715 H   0  0  0  0  0  0
  -27.9736  -24.1000   18.4352 H   0  0  0  0  0  0
  -28.2346  -22.3902   18.1252 H   0  0  0  0  0  0
  -31.3303  -24.1047   20.4724 H   0  0  0  0  0  0
  -30.8843  -25.6925   21.0889 H   0  0  0  0  0  0
  -30.4661  -25.2554   19.4509 H   0  0  0  0  0  0
  -30.1682  -23.1452   22.5888 H   0  0  0  0  0  0
  -28.4516  -23.4452   22.8389 H   0  0  0  0  0  0
  -29.6246  -24.7326   23.0770 H   0  0  0  0  0  0
  -27.9496  -25.7921   21.9567 H   0  0  0  0  0  0
  -27.1392  -24.9392   20.7067 H   0  0  0  0  0  0
  -27.8106  -22.6837   20.5069 H   0  0  0  0  0  0
  -30.6593  -22.1642   20.4698 H   0  0  0  0  0  0
  -29.0717  -15.5632   20.8632 H   0  0  0  0  0  0
  1 25  1  0  0  0
  1 30  2  0  0  0
  1 83  1  0  0  0
  2  3  1  0  0  0
  2 25  1  0  0  0
  2 86  1  0  0  0
  2 87  1  0  0  0
  3  4  1  0  0  0
  3 88  1  0  0  0
  3 89  1  0  0  0
  4  5  1  0  0  0
  4 90  1  0  0  0
  4 91  1  0  0  0
  5  6  1  0  0  0
  5 26  1  0  0  0
  5 92  1  0  0  0
  6 25  1  0  0  0
  6 93  1  0  0  0
  6 94  1  0  0  0
  7  8  2  0  0  0
  7 26  1  0  0  0
  7 29  1  0  0  0
  8  9  1  0  0  0
  8 22  1  0  0  0
  9 10  1  0  0  0
  9 27  2  0  0  0
 10 11  2  0  0  0
 10 15  1  0  0  0
 11 12  1  0  0  0
 11 95  1  0  0  0
 12 13  2  0  0  0
 12 96  1  0  0  0
 13 14  1  0  0  0
 13 31  1  0  0  0
 14 15  2  0  0  0
 14 97  1  0  0  0
 15 98  1  0  0  0
 16 17  2  0  0  0
 16 21  1  0  0  0
 16 31  1  0  0  0
 17 18  1  0  0  0
 17 99  1  0  0  0
 18 19  2  0  0  0
 18100  1  0  0  0
 19 20  1  0  0  0
 19 24  1  0  0  0
 20 21  2  0  0  0
 20101  1  0  0  0
 21 23  1  0  0  0
 22 28  1  0  0  0
 22 32  2  0  0  0
 26 27  1  0  0  0
 28102  1  0  0  0
 28103  1  0  0  0
 29104  1  0  0  0
 29105  1  0  0  0
 33 34  1  0  0  0
 33 66  1  0  0  0
 33 70  2  0  0  0
 34 36  1  0  0  0
 34 59  1  0  0  0
 34106  1  0  0  0
 35 44  2  0  0  0
 35 45  1  0  0  0
 35 68  1  0  0  0
 36 56  1  0  0  0
 36107  1  0  0  0
 37 39  1  0  0  0
 37 47  1  0  0  0
 37 66  1  0  0  0
 37108  1  0  0  0
 38 43  2  0  0  0
 38 46  1  0  0  0
 38 47  1  0  0  0
 39 64  1  0  0  0
 39 67  2  0  0  0
 40 52  1  0  0  0
 40 53  2  0  0  0
 40 58  1  0  0  0
 41109  1  0  0  0
 41110  1  0  0  0
 41111  1  0  0  0
 41 48  1  0  0  0
 42 43  1  0  0  0
 42 66  1  0  0  0
 42112  1  0  0  0
 42113  1  0  0  0
 43 44  1  0  0  0
 44114  1  0  0  0
 45 46  2  0  0  0
 45115  1  0  0  0
 46116  1  0  0  0
 47117  1  0  0  0
 47118  1  0  0  0
 48 56  1  0  0  0
 48 65  1  0  0  0
 48119  1  0  0  0
 49 50  1  0  0  0
 49 53  1  0  0  0
 49 64  1  0  0  0
 49120  1  0  0  0
 50 51  1  0  0  0
 50121  1  0  0  0
 50122  1  0  0  0
 51 52  1  0  0  0
 51123  1  0  0  0
 51124  1  0  0  0
 52125  1  0  0  0
 52126  1  0  0  0
 53 54  1  0  0  0
 54 55  2  0  0  0
 54127  1  0  0  0
 55 57  1  0  0  0
 55128  1  0  0  0
 56 69  2  0  0  0
 57 58  2  0  0  0
 57129  1  0  0  0
 58130  1  0  0  0
 59 60  1  0  0  0
 59 61  1  0  0  0
 59 62  1  0  0  0
 60131  1  0  0  0
 60132  1  0  0  0
 60133  1  0  0  0
 61134  1  0  0  0
 61135  1  0  0  0
 61136  1  0  0  0
 62137  1  0  0  0
 62138  1  0  0  0
 62139  1  0  0  0
 63 65  1  0  0  0
 63140  1  0  0  0
 63141  1  0  0  0
 63142  1  0  0  0
 64143  1  0  0  0
 65144  1  0  0  0
 68 78  1  0  0  0
 71 72  2  0  0  0
 71 81  1  0  0  0
 71145  1  0  0  0
 72 74  1  0  0  0
 72 85  1  0  0  0
 73 81  2  0  0  0
 73 82  1  0  0  0
 73 85  1  0  0  0
 74 83  1  0  0  0
 74 84  2  0  0  0
 75146  1  0  0  0
 75147  1  0  0  0
 75148  1  0  0  0
 75 79  1  0  0  0
 76149  1  0  0  0
 76150  1  0  0  0
 76151  1  0  0  0
 76 80  1  0  0  0
 77 80  1  0  0  0
 77152  1  0  0  0
 77153  1  0  0  0
 77154  1  0  0  0
 78 80  1  0  0  0
 78155  1  0  0  0
 78156  1  0  0  0
 79 80  1  0  0  0
 79 82  1  0  0  0
 79157  1  0  0  0
 82158  1  0  0  0
 83159  1  0  0  0
M  ISO  4   1 100  68 101  78 101  83 100
M  END
> <chiral flag>
0

> <version>
0

> <s_m_source_file>
/data/baiqing/PycharmProjects/Reinvent-master-3.2/result/LINK_invent/BTK/process_docking_weight1_custom_product_contain_oxygen_bond_distance_aromatic_linkinvent_7_9_3/rearranged_h_0188.sdf

> <i_m_source_file_index>
3

> <r_mmod_Potential_Energy-OPLS-2005>
-174.546295166016

> <r_mmod_Stretch_Energy-OPLS-2005>
43.7255096435547

> <r_mmod_Bend_Energy-OPLS-2005>
106.886642456055

> <r_mmod_Torsional_Energy-OPLS-2005>
283.463745117188

> <r_mmod_Improper_Torsional_Energy-OPLS-2005>
5.87321281433105

> <r_mmod_Van_der_Waal_Energy-OPLS-2005>
141.607543945312

> <r_mmod_Electrostatic_Energy-OPLS-2005>
-552.413330078125

> <r_mmod_Solvation_Energy-OPLS-2005>
-226.900177001953

> <b_mmod_Minimization_Converged-OPLS-2005>
0

> <r_mmod_RMS_Derivative-OPLS-2005>
3.43839740753174

$$$$
4
                    3D
 Structure written by MMmdl.
161169  0  0  1  0            999 V2000
  -30.6590  -14.6561   20.4837 C   0  0  0  0  0  0
  -30.4162  -12.4032   19.4578 C   0  0  0  0  0  0
  -29.4985  -12.5120   18.2221 C   0  0  0  0  0  0
  -28.0194  -12.3599   18.6279 C   0  0  0  0  0  0
  -27.6422  -13.2326   19.8565 C   0  0  2  0  0  0
  -28.6890  -13.1250   20.9884 C   0  0  0  0  0  0
  -25.2491  -13.8201   20.5686 C   0  0  0  0  0  0
  -24.1788  -13.0434   20.9202 C   0  0  0  0  0  0
  -24.6391  -11.6918   20.8754 C   0  0  0  0  0  0
  -23.9081  -10.4288   21.0400 C   0  0  0  0  0  0
  -24.3637   -9.4208   21.9176 C   0  0  0  0  0  0
  -23.6316   -8.2246   22.0737 C   0  0  0  0  0  0
  -22.4286   -8.0285   21.3545 C   0  0  0  0  0  0
  -21.9928   -9.0257   20.4636 C   0  0  0  0  0  0
  -22.7254  -10.2137   20.3042 C   0  0  0  0  0  0
  -21.6859   -6.0733   22.5281 C   0  0  0  0  0  0
  -21.4021   -6.5634   23.8216 C   0  0  0  0  0  0
  -21.3659   -5.6788   24.9173 C   0  0  0  0  0  0
  -21.6055   -4.3050   24.7222 C   0  0  0  0  0  0
  -21.8825   -3.8145   23.4343 C   0  0  0  0  0  0
  -21.9191   -4.6960   22.3400 C   0  0  0  0  0  0
  -22.7816  -13.5213   21.1878 C   0  0  0  0  0  0
  -22.1661   -4.2147   21.0976 F   0  0  0  0  0  0
  -21.5626   -3.4527   25.7732 F   0  0  0  0  0  0
  -29.9998  -13.4530   20.4126 N   0  0  0  0  0  0
  -26.2935  -12.9414   20.3307 N   0  0  0  0  0  0
  -25.9318  -11.6557   20.5772 N   0  0  0  0  0  0
  -22.0469  -12.8197   22.0432 N   0  0  0  0  0  0
  -25.4176  -15.1931   20.4107 N   0  0  0  0  0  0
  -31.8396  -14.7123   20.1258 O   0  0  0  0  0  0
  -21.6658   -6.8876   21.4237 O   0  0  0  0  0  0
  -22.3504  -14.5524   20.6731 O   0  0  0  0  0  0
  -24.6278  -31.8579   23.2026 C   0  0  0  0  0  0
  -25.9123  -32.4763   23.8341 C   0  0  1  0  0  0
  -27.2189  -27.3067   20.1030 C   0  0  0  0  0  0
  -25.5925  -33.8564   24.2249 N   0  0  0  0  0  0
  -23.4186  -30.4867   21.5457 C   0  0  2  0  0  0
  -24.8612  -28.9430   20.1117 C   0  0  0  0  0  0
  -22.7464  -29.4628   22.4917 C   0  0  0  0  0  0
  -18.0277  -28.1387   22.8473 C   0  0  0  0  0  0
  -24.1484  -36.7298   23.2638 C   0  0  0  0  0  0
  -25.9633  -30.7867   21.3739 C   0  0  0  0  0  0
  -26.0328  -29.4138   20.7144 C   0  0  0  0  0  0
  -27.2112  -28.6072   20.7018 C   0  0  0  0  0  0
  -26.0123  -26.8900   19.4899 C   0  0  0  0  0  0
  -24.8536  -27.6846   19.4961 C   0  0  0  0  0  0
  -23.6324  -29.8269   20.1595 C   0  0  0  0  0  0
  -25.4110  -36.3067   24.0316 C   0  0  1  0  0  0
  -20.5882  -28.3685   23.1276 C   0  0  2  0  0  0
  -20.6754  -26.9402   22.5418 C   0  0  0  0  0  0
  -19.5738  -26.6373   21.5210 C   0  0  0  0  0  0
  -18.1920  -26.7924   22.1619 C   0  0  0  0  0  0
  -19.1534  -28.8849   23.2869 C   0  0  0  0  0  0
  -18.9462  -30.1451   23.8890 C   0  0  0  0  0  0
  -17.6465  -30.6590   24.0561 C   0  0  0  0  0  0
  -25.9052  -34.9440   23.5081 C   0  0  0  0  0  0
  -16.5351  -29.9096   23.6331 C   0  0  0  0  0  0
  -16.7265  -28.6517   23.0334 C   0  0  0  0  0  0
  -26.4493  -31.6589   25.0728 C   0  0  0  0  0  0
  -25.3733  -31.3738   26.1466 C   0  0  0  0  0  0
  -27.0315  -30.2997   24.6203 C   0  0  0  0  0  0
  -27.6029  -32.4337   25.7524 C   0  0  0  0  0  0
  -27.5566  -37.1807   24.8454 C   0  0  0  0  0  0
  -21.4174  -29.3045   22.3665 N   0  0  0  0  0  0
  -26.4271  -37.3779   23.9409 N   0  0  0  0  0  0
  -24.6890  -31.0602   22.0970 N   0  0  0  0  0  0
  -23.4188  -28.8143   23.2979 O   0  0  0  0  0  0
  -28.3579  -26.4804   20.1509 O   0  0  0  0  0  0
  -26.5635  -34.8914   22.4656 O   0  0  0  0  0  0
  -23.5443  -32.1374   23.7366 O   0  0  0  0  0  0
  -31.6176  -17.6326   20.7312 C   0  0  0  0  0  0
  -31.9212  -18.9945   20.7660 C   0  0  0  0  0  0
  -30.2661  -17.2228   20.7380 C   0  0  0  0  0  0
  -29.7295  -19.5388   20.7676 C   0  0  0  0  0  0
  -30.8198  -22.3409   18.5713 C   0  0  0  0  0  0
  -28.8567  -20.9178   17.7675 C   0  0  0  0  0  0
  -28.3715  -25.0913   19.6139 C   0  0  0  0  0  0
  -29.2910  -22.1794   18.5390 C   0  0  0  0  0  0
  -28.6715  -23.8353   20.5617 C   0  0  2  0  0  0
  -28.5524  -22.3689   19.8979 C   0  0  2  0  0  0
  -30.9881  -19.9430   20.8133 N   0  0  0  0  0  0
  -29.3285  -18.2371   20.7700 N   0  0  0  0  0  0
  -33.2365  -19.4287   20.7668 N   0  0  0  0  0  0
  -29.9179  -15.7895   20.7531 N   0  0  0  0  0  0
  -27.7159  -23.8897   21.6138 O   0  0  0  0  0  0
  -28.4845  -20.8664   21.0714 S   0  0  0  0  0  0
  -31.4603  -12.5001   19.1573 H   0  0  0  0  0  0
  -30.3284  -11.4155   19.9132 H   0  0  0  0  0  0
  -29.7649  -11.7521   17.4864 H   0  0  0  0  0  0
  -29.6478  -13.4752   17.7324 H   0  0  0  0  0  0
  -27.8460  -11.3073   18.8502 H   0  0  0  0  0  0
  -27.3730  -12.5991   17.7824 H   0  0  0  0  0  0
  -27.6465  -14.2646   19.5072 H   0  0  0  0  0  0
  -28.7019  -12.1158   21.4038 H   0  0  0  0  0  0
  -28.4372  -13.7899   21.8161 H   0  0  0  0  0  0
  -25.2771   -9.5684   22.4761 H   0  0  0  0  0  0
  -24.0018   -7.4632   22.7459 H   0  0  0  0  0  0
  -21.0847   -8.8778   19.8953 H   0  0  0  0  0  0
  -22.3701  -10.9679   19.6162 H   0  0  0  0  0  0
  -21.2017   -7.6142   23.9719 H   0  0  0  0  0  0
  -21.1482   -6.0513   25.9084 H   0  0  0  0  0  0
  -22.0600   -2.7605   23.2845 H   0  0  0  0  0  0
  -22.4085  -11.9857   22.4823 H   0  0  0  0  0  0
  -21.1089  -13.1221   22.2628 H   0  0  0  0  0  0
  -24.6482  -15.8437   20.5200 H   0  0  0  0  0  0
  -26.2632  -15.6398   20.0815 H   0  0  0  0  0  0
  -26.7192  -32.5418   23.1086 H   0  0  0  0  0  0
  -25.0015  -33.9704   25.0354 H   0  0  0  0  0  0
  -22.7137  -31.3095   21.4057 H   0  0  0  0  0  0
  -23.3731  -35.9648   23.3297 H   0  0  0  0  0  0
  -24.3568  -36.8936   22.2055 H   0  0  0  0  0  0
  -23.7261  -37.6502   23.6677 H   0  0  0  0  0  0
  -26.0983  -31.5492   20.6057 H   0  0  0  0  0  0
  -26.8440  -30.8325   22.0031 H   0  0  0  0  0  0
  -28.1117  -28.9697   21.1782 H   0  0  0  0  0  0
  -25.8934  -25.9379   19.0050 H   0  0  0  0  0  0
  -23.9536  -27.3114   19.0262 H   0  0  0  0  0  0
  -23.7603  -30.6081   19.4095 H   0  0  0  0  0  0
  -22.7498  -29.2643   19.8484 H   0  0  0  0  0  0
  -25.1298  -36.1892   25.0808 H   0  0  0  0  0  0
  -20.9983  -28.3266   24.1391 H   0  0  0  0  0  0
  -20.5625  -26.2296   23.3617 H   0  0  0  0  0  0
  -21.6625  -26.7403   22.1230 H   0  0  0  0  0  0
  -19.6891  -25.6280   21.1245 H   0  0  0  0  0  0
  -19.6691  -27.3177   20.6734 H   0  0  0  0  0  0
  -17.4183  -26.6657   21.4033 H   0  0  0  0  0  0
  -18.0330  -26.0085   22.9033 H   0  0  0  0  0  0
  -19.7941  -30.7265   24.2259 H   0  0  0  0  0  0
  -17.5025  -31.6278   24.5153 H   0  0  0  0  0  0
  -15.5353  -30.2997   23.7670 H   0  0  0  0  0  0
  -15.8658  -28.0853   22.7035 H   0  0  0  0  0  0
  -24.5917  -30.7061   25.7828 H   0  0  0  0  0  0
  -24.8920  -32.2906   26.4883 H   0  0  0  0  0  0
  -25.8088  -30.8947   27.0246 H   0  0  0  0  0  0
  -26.2880  -29.6779   24.1200 H   0  0  0  0  0  0
  -27.3945  -29.7238   25.4728 H   0  0  0  0  0  0
  -27.8789  -30.4253   23.9460 H   0  0  0  0  0  0
  -27.2597  -33.3631   26.2090 H   0  0  0  0  0  0
  -28.3864  -32.6914   25.0383 H   0  0  0  0  0  0
  -28.0664  -31.8467   26.5467 H   0  0  0  0  0  0
  -28.2574  -38.0112   24.7489 H   0  0  0  0  0  0
  -28.1063  -36.2637   24.6275 H   0  0  0  0  0  0
  -27.2282  -37.1457   25.8857 H   0  0  0  0  0  0
  -20.9324  -29.8805   21.6925 H   0  0  0  0  0  0
  -26.0128  -38.2838   24.1441 H   0  0  0  0  0  0
  -32.4295  -16.9215   20.7100 H   0  0  0  0  0  0
  -31.1879  -22.6306   17.5866 H   0  0  0  0  0  0
  -31.3362  -21.4204   18.8285 H   0  0  0  0  0  0
  -31.1403  -23.1122   19.2703 H   0  0  0  0  0  0
  -29.2503  -20.9323   16.7505 H   0  0  0  0  0  0
  -27.7701  -20.8563   17.6887 H   0  0  0  0  0  0
  -29.2087  -19.9975   18.2297 H   0  0  0  0  0  0
  -27.5233  -24.8398   18.9892 H   0  0  0  0  0  0
  -29.1871  -25.1135   18.8910 H   0  0  0  0  0  0
  -28.9434  -23.0034   17.9152 H   0  0  0  0  0  0
  -29.6678  -23.9506   20.9920 H   0  0  0  0  0  0
  -27.5105  -22.3635   19.5721 H   0  0  0  0  0  0
  -34.0121  -18.7799   20.8169 H   0  0  0  0  0  0
  -33.4743  -20.4095   20.8559 H   0  0  0  0  0  0
  -28.9443  -15.6043   20.9293 H   0  0  0  0  0  0
  -26.8487  -23.8800   21.2224 H   0  0  0  0  0  0
  1 25  1  0  0  0
  1 30  2  0  0  0
  1 84  1  0  0  0
  2  3  1  0  0  0
  2 25  1  0  0  0
  2 87  1  0  0  0
  2 88  1  0  0  0
  3  4  1  0  0  0
  3 89  1  0  0  0
  3 90  1  0  0  0
  4  5  1  0  0  0
  4 91  1  0  0  0
  4 92  1  0  0  0
  5  6  1  0  0  0
  5 26  1  0  0  0
  5 93  1  0  0  0
  6 25  1  0  0  0
  6 94  1  0  0  0
  6 95  1  0  0  0
  7  8  2  0  0  0
  7 26  1  0  0  0
  7 29  1  0  0  0
  8  9  1  0  0  0
  8 22  1  0  0  0
  9 10  1  0  0  0
  9 27  2  0  0  0
 10 11  2  0  0  0
 10 15  1  0  0  0
 11 12  1  0  0  0
 11 96  1  0  0  0
 12 13  2  0  0  0
 12 97  1  0  0  0
 13 14  1  0  0  0
 13 31  1  0  0  0
 14 15  2  0  0  0
 14 98  1  0  0  0
 15 99  1  0  0  0
 16 17  2  0  0  0
 16 21  1  0  0  0
 16 31  1  0  0  0
 17 18  1  0  0  0
 17100  1  0  0  0
 18 19  2  0  0  0
 18101  1  0  0  0
 19 20  1  0  0  0
 19 24  1  0  0  0
 20 21  2  0  0  0
 20102  1  0  0  0
 21 23  1  0  0  0
 22 28  1  0  0  0
 22 32  2  0  0  0
 26 27  1  0  0  0
 28103  1  0  0  0
 28104  1  0  0  0
 29105  1  0  0  0
 29106  1  0  0  0
 33 34  1  0  0  0
 33 66  1  0  0  0
 33 70  2  0  0  0
 34 36  1  0  0  0
 34 59  1  0  0  0
 34107  1  0  0  0
 35 44  2  0  0  0
 35 45  1  0  0  0
 35 68  1  0  0  0
 36 56  1  0  0  0
 36108  1  0  0  0
 37 39  1  0  0  0
 37 47  1  0  0  0
 37 66  1  0  0  0
 37109  1  0  0  0
 38 43  2  0  0  0
 38 46  1  0  0  0
 38 47  1  0  0  0
 39 64  1  0  0  0
 39 67  2  0  0  0
 40 52  1  0  0  0
 40 53  2  0  0  0
 40 58  1  0  0  0
 41110  1  0  0  0
 41111  1  0  0  0
 41112  1  0  0  0
 41 48  1  0  0  0
 42 43  1  0  0  0
 42 66  1  0  0  0
 42113  1  0  0  0
 42114  1  0  0  0
 43 44  1  0  0  0
 44115  1  0  0  0
 45 46  2  0  0  0
 45116  1  0  0  0
 46117  1  0  0  0
 47118  1  0  0  0
 47119  1  0  0  0
 48 56  1  0  0  0
 48 65  1  0  0  0
 48120  1  0  0  0
 49 50  1  0  0  0
 49 53  1  0  0  0
 49 64  1  0  0  0
 49121  1  0  0  0
 50 51  1  0  0  0
 50122  1  0  0  0
 50123  1  0  0  0
 51 52  1  0  0  0
 51124  1  0  0  0
 51125  1  0  0  0
 52126  1  0  0  0
 52127  1  0  0  0
 53 54  1  0  0  0
 54 55  2  0  0  0
 54128  1  0  0  0
 55 57  1  0  0  0
 55129  1  0  0  0
 56 69  2  0  0  0
 57 58  2  0  0  0
 57130  1  0  0  0
 58131  1  0  0  0
 59 60  1  0  0  0
 59 61  1  0  0  0
 59 62  1  0  0  0
 60132  1  0  0  0
 60133  1  0  0  0
 60134  1  0  0  0
 61135  1  0  0  0
 61136  1  0  0  0
 61137  1  0  0  0
 62138  1  0  0  0
 62139  1  0  0  0
 62140  1  0  0  0
 63 65  1  0  0  0
 63141  1  0  0  0
 63142  1  0  0  0
 63143  1  0  0  0
 64144  1  0  0  0
 65145  1  0  0  0
 68 77  1  0  0  0
 71 72  2  0  0  0
 71 73  1  0  0  0
 71146  1  0  0  0
 72 81  1  0  0  0
 72 83  1  0  0  0
 73 82  2  0  0  0
 73 84  1  0  0  0
 74 81  2  0  0  0
 74 82  1  0  0  0
 74 86  1  0  0  0
 75147  1  0  0  0
 75148  1  0  0  0
 75149  1  0  0  0
 75 78  1  0  0  0
 76 78  1  0  0  0
 76150  1  0  0  0
 76151  1  0  0  0
 76152  1  0  0  0
 77 79  1  0  0  0
 77153  1  0  0  0
 77154  1  0  0  0
 78 80  1  0  0  0
 78155  1  0  0  0
 79 80  1  0  0  0
 79 85  1  0  0  0
 79156  1  0  0  0
 80 86  1  0  0  0
 80157  1  0  0  0
 83158  1  0  0  0
 83159  1  0  0  0
 84160  1  0  0  0
 85161  1  0  0  0
M  ISO  4   1 100  68 101  77 101  84 100
M  END
> <chiral flag>
0

> <version>
0

> <s_m_source_file>
/data/baiqing/PycharmProjects/Reinvent-master-3.2/result/LINK_invent/BTK/process_docking_weight1_custom_product_contain_oxygen_bond_distance_aromatic_linkinvent_7_9_3/rearranged_h_0188.sdf

> <i_m_source_file_index>
4

> <r_mmod_Potential_Energy-OPLS-2005>
-353.065124511719

> <r_mmod_Stretch_Energy-OPLS-2005>
95.9770889282227

> <r_mmod_Bend_Energy-OPLS-2005>
207.455383300781

> <r_mmod_Torsional_Energy-OPLS-2005>
243.483200073242

> <r_mmod_Improper_Torsional_Energy-OPLS-2005>
6.35916900634766

> <r_mmod_Van_der_Waal_Energy-OPLS-2005>
155.029907226562

> <r_mmod_Electrostatic_Energy-OPLS-2005>
-866.779541015625

> <r_mmod_Solvation_Energy-OPLS-2005>
-246.8984375

> <b_mmod_Minimization_Converged-OPLS-2005>
0

> <r_mmod_RMS_Derivative-OPLS-2005>
2.297847032547

$$$$
5
                    3D
 Structure written by MMmdl.
154162  0  0  1  0            999 V2000
  -30.6825  -14.5503   20.5248 C   0  0  0  0  0  0
  -30.4224  -12.3428   19.4376 C   0  0  0  0  0  0
  -29.5013  -12.5069   18.2115 C   0  0  0  0  0  0
  -28.0200  -12.3690   18.6179 C   0  0  0  0  0  0
  -27.6554  -13.2183   19.8660 C   0  0  2  0  0  0
  -28.7017  -13.0488   20.9924 C   0  0  0  0  0  0
  -25.2532  -13.8138   20.5642 C   0  0  0  0  0  0
  -24.1828  -13.0409   20.9259 C   0  0  0  0  0  0
  -24.6403  -11.6890   20.8776 C   0  0  0  0  0  0
  -23.9069  -10.4279   21.0432 C   0  0  0  0  0  0
  -24.3622   -9.4190   21.9199 C   0  0  0  0  0  0
  -23.6297   -8.2233   22.0753 C   0  0  0  0  0  0
  -22.4275   -8.0278   21.3545 C   0  0  0  0  0  0
  -21.9915   -9.0252   20.4646 C   0  0  0  0  0  0
  -22.7253  -10.2131   20.3067 C   0  0  0  0  0  0
  -21.6851   -6.0733   22.5280 C   0  0  0  0  0  0
  -21.4007   -6.5634   23.8210 C   0  0  0  0  0  0
  -21.3668   -5.6785   24.9175 C   0  0  0  0  0  0
  -21.6049   -4.3051   24.7224 C   0  0  0  0  0  0
  -21.8815   -3.8140   23.4343 C   0  0  0  0  0  0
  -21.9185   -4.6957   22.3400 C   0  0  0  0  0  0
  -22.7848  -13.5215   21.1895 C   0  0  0  0  0  0
  -22.1657   -4.2146   21.0978 F   0  0  0  0  0  0
  -21.5637   -3.4530   25.7735 F   0  0  0  0  0  0
  -30.0226  -13.3586   20.4274 N   0  0  0  0  0  0
  -26.2992  -12.9347   20.3315 N   0  0  0  0  0  0
  -25.9332  -11.6502   20.5780 N   0  0  0  0  0  0
  -22.0443  -12.8245   22.0442 N   0  0  0  0  0  0
  -25.4104  -15.1827   20.3824 N   0  0  0  0  0  0
  -31.8339  -14.6980   20.1094 O   0  0  0  0  0  0
  -21.6631   -6.8882   21.4244 O   0  0  0  0  0  0
  -22.3565  -14.5517   20.6705 O   0  0  0  0  0  0
  -24.6194  -31.8658   23.2052 C   0  0  0  0  0  0
  -25.9071  -32.4807   23.8366 C   0  0  1  0  0  0
  -27.2314  -27.3852   20.0930 C   0  0  0  0  0  0
  -25.5914  -33.8605   24.2311 N   0  0  0  0  0  0
  -23.4086  -30.4900   21.5472 C   0  0  2  0  0  0
  -24.8508  -28.9467   20.1150 C   0  0  0  0  0  0
  -22.7430  -29.4662   22.4958 C   0  0  0  0  0  0
  -18.0290  -28.1374   22.8496 C   0  0  0  0  0  0
  -24.1492  -36.7305   23.2633 C   0  0  0  0  0  0
  -25.9417  -30.8148   21.3650 C   0  0  0  0  0  0
  -26.0149  -29.4454   20.7109 C   0  0  0  0  0  0
  -27.2027  -28.6726   20.6944 C   0  0  0  0  0  0
  -26.0375  -26.9071   19.5044 C   0  0  0  0  0  0
  -24.8584  -27.6778   19.5131 C   0  0  0  0  0  0
  -23.6187  -29.8227   20.1623 C   0  0  0  0  0  0
  -25.4115  -36.3101   24.0333 C   0  0  1  0  0  0
  -20.5881  -28.3674   23.1304 C   0  0  2  0  0  0
  -20.6781  -26.9404   22.5413 C   0  0  0  0  0  0
  -19.5753  -26.6388   21.5214 C   0  0  0  0  0  0
  -18.1936  -26.7927   22.1621 C   0  0  0  0  0  0
  -19.1539  -28.8838   23.2903 C   0  0  0  0  0  0
  -18.9461  -30.1447   23.8906 C   0  0  0  0  0  0
  -17.6459  -30.6578   24.0566 C   0  0  0  0  0  0
  -25.9044  -34.9469   23.5123 C   0  0  0  0  0  0
  -16.5354  -29.9080   23.6315 C   0  0  0  0  0  0
  -16.7279  -28.6497   23.0343 C   0  0  0  0  0  0
  -26.4483  -31.6590   25.0708 C   0  0  0  0  0  0
  -25.3748  -31.3707   26.1458 C   0  0  0  0  0  0
  -27.0309  -30.3025   24.6104 C   0  0  0  0  0  0
  -27.6057  -32.4305   25.7473 C   0  0  0  0  0  0
  -27.5588  -37.1810   24.8462 C   0  0  0  0  0  0
  -21.4154  -29.3036   22.3698 N   0  0  0  0  0  0
  -26.4297  -37.3797   23.9412 N   0  0  0  0  0  0
  -24.6756  -31.0730   22.0966 N   0  0  0  0  0  0
  -23.4189  -28.8213   23.3015 O   0  0  0  0  0  0
  -28.4211  -26.6630   20.1130 O   0  0  0  0  0  0
  -26.5601  -34.8927   22.4683 O   0  0  0  0  0  0
  -23.5376  -32.1416   23.7427 O   0  0  0  0  0  0
  -27.9509  -17.8184   20.5687 C   0  0  0  0  0  0
  -29.2907  -18.0813   20.7061 C   0  0  0  0  0  0
  -28.4536  -20.2323   20.4584 C   0  0  0  0  0  0
  -27.3207  -24.0893   21.5285 C   0  0  0  0  0  0
  -30.3904  -17.0387   20.9333 C   0  0  0  0  0  0
  -28.5357  -25.2978   19.6151 C   0  0  0  0  0  0
  -28.6337  -24.1971   20.7316 C   0  0  2  0  0  0
  -29.2522  -22.7920   20.3219 C   0  0  1  0  0  0
  -29.5600  -19.4769   20.6333 N   0  0  0  0  0  0
  -28.3508  -21.6325   20.3612 N   0  0  0  0  0  0
  -29.9526  -15.6154   20.9334 N   0  0  0  0  0  0
  -29.8024  -22.8561   19.1104 F   0  0  0  0  0  0
  -26.9910  -19.2621   20.3635 S   0  0  0  0  0  0
  -31.4676  -12.4366   19.1380 H   0  0  0  0  0  0
  -30.3217  -11.3430   19.8637 H   0  0  0  0  0  0
  -29.7539  -11.7684   17.4489 H   0  0  0  0  0  0
  -29.6683  -13.4833   17.7541 H   0  0  0  0  0  0
  -27.8286  -11.3148   18.8195 H   0  0  0  0  0  0
  -27.3761  -12.6380   17.7800 H   0  0  0  0  0  0
  -27.6816  -14.2605   19.5494 H   0  0  0  0  0  0
  -28.6937  -12.0264   21.3716 H   0  0  0  0  0  0
  -28.4621  -13.6854   21.8459 H   0  0  0  0  0  0
  -25.2765   -9.5664   22.4779 H   0  0  0  0  0  0
  -23.9996   -7.4620   22.7472 H   0  0  0  0  0  0
  -21.0844   -8.8780   19.8957 H   0  0  0  0  0  0
  -22.3713  -10.9675   19.6178 H   0  0  0  0  0  0
  -21.1986   -7.6136   23.9720 H   0  0  0  0  0  0
  -21.1515   -6.0509   25.9085 H   0  0  0  0  0  0
  -22.0589   -2.7602   23.2833 H   0  0  0  0  0  0
  -22.4019  -11.9933   22.4907 H   0  0  0  0  0  0
  -21.1046  -13.1296   22.2563 H   0  0  0  0  0  0
  -24.5795  -15.7652   20.3856 H   0  0  0  0  0  0
  -26.1173  -15.5302   19.7485 H   0  0  0  0  0  0
  -26.7137  -32.5504   23.1117 H   0  0  0  0  0  0
  -25.0099  -33.9763   25.0477 H   0  0  0  0  0  0
  -22.6990  -31.3078   21.4058 H   0  0  0  0  0  0
  -23.3755  -35.9637   23.3297 H   0  0  0  0  0  0
  -24.3586  -36.8919   22.2045 H   0  0  0  0  0  0
  -23.7242  -37.6512   23.6642 H   0  0  0  0  0  0
  -26.0633  -31.5794   20.5966 H   0  0  0  0  0  0
  -26.8256  -30.8650   21.9888 H   0  0  0  0  0  0
  -28.1018  -29.0573   21.1550 H   0  0  0  0  0  0
  -25.9757  -25.9369   19.0376 H   0  0  0  0  0  0
  -23.9588  -27.2849   19.0587 H   0  0  0  0  0  0
  -23.7374  -30.5978   19.4042 H   0  0  0  0  0  0
  -22.7395  -29.2502   19.8612 H   0  0  0  0  0  0
  -25.1294  -36.1964   25.0825 H   0  0  0  0  0  0
  -20.9994  -28.3243   24.1417 H   0  0  0  0  0  0
  -20.5676  -26.2283   23.3607 H   0  0  0  0  0  0
  -21.6656  -26.7439   22.1208 H   0  0  0  0  0  0
  -19.6905  -25.6303   21.1228 H   0  0  0  0  0  0
  -19.6692  -27.3214   20.6757 H   0  0  0  0  0  0
  -17.4221  -26.6699   21.4009 H   0  0  0  0  0  0
  -18.0317  -26.0058   22.8995 H   0  0  0  0  0  0
  -19.7937  -30.7264   24.2267 H   0  0  0  0  0  0
  -17.5011  -31.6245   24.5177 H   0  0  0  0  0  0
  -15.5352  -30.2979   23.7618 H   0  0  0  0  0  0
  -15.8686  -28.0812   22.7041 H   0  0  0  0  0  0
  -24.5914  -30.7057   25.7800 H   0  0  0  0  0  0
  -24.8938  -32.2861   26.4911 H   0  0  0  0  0  0
  -25.8097  -30.8874   27.0215 H   0  0  0  0  0  0
  -26.2854  -29.6786   24.1155 H   0  0  0  0  0  0
  -27.4061  -29.7265   25.4574 H   0  0  0  0  0  0
  -27.8700  -30.4326   23.9268 H   0  0  0  0  0  0
  -27.2678  -33.3591   26.2089 H   0  0  0  0  0  0
  -28.3848  -32.6896   25.0287 H   0  0  0  0  0  0
  -28.0750  -31.8407   26.5355 H   0  0  0  0  0  0
  -28.2608  -38.0112   24.7536 H   0  0  0  0  0  0
  -28.1091  -36.2645   24.6261 H   0  0  0  0  0  0
  -27.2308  -37.1430   25.8868 H   0  0  0  0  0  0
  -20.9306  -29.8764   21.6928 H   0  0  0  0  0  0
  -26.0182  -38.2873   24.1427 H   0  0  0  0  0  0
  -27.4611  -16.8582   20.5933 H   0  0  0  0  0  0
  -27.0649  -25.0511   21.9724 H   0  0  0  0  0  0
  -27.4068  -23.3755   22.3479 H   0  0  0  0  0  0
  -26.4831  -23.7924   20.8959 H   0  0  0  0  0  0
  -30.8683  -17.2277   21.8949 H   0  0  0  0  0  0
  -31.1765  -17.1799   20.1895 H   0  0  0  0  0  0
  -27.7989  -25.0236   18.8633 H   0  0  0  0  0  0
  -29.4764  -25.2979   19.0638 H   0  0  0  0  0  0
  -29.3639  -24.6051   21.4330 H   0  0  0  0  0  0
  -30.0784  -22.5682   21.0005 H   0  0  0  0  0  0
  -27.3876  -21.9177   20.2333 H   0  0  0  0  0  0
  -29.0130  -15.4294   21.2440 H   0  0  0  0  0  0
  1 25  1  0  0  0
  1 30  2  0  0  0
  1 81  1  0  0  0
  2  3  1  0  0  0
  2 25  1  0  0  0
  2 84  1  0  0  0
  2 85  1  0  0  0
  3  4  1  0  0  0
  3 86  1  0  0  0
  3 87  1  0  0  0
  4  5  1  0  0  0
  4 88  1  0  0  0
  4 89  1  0  0  0
  5  6  1  0  0  0
  5 26  1  0  0  0
  5 90  1  0  0  0
  6 25  1  0  0  0
  6 91  1  0  0  0
  6 92  1  0  0  0
  7  8  2  0  0  0
  7 26  1  0  0  0
  7 29  1  0  0  0
  8  9  1  0  0  0
  8 22  1  0  0  0
  9 10  1  0  0  0
  9 27  2  0  0  0
 10 11  2  0  0  0
 10 15  1  0  0  0
 11 12  1  0  0  0
 11 93  1  0  0  0
 12 13  2  0  0  0
 12 94  1  0  0  0
 13 14  1  0  0  0
 13 31  1  0  0  0
 14 15  2  0  0  0
 14 95  1  0  0  0
 15 96  1  0  0  0
 16 17  2  0  0  0
 16 21  1  0  0  0
 16 31  1  0  0  0
 17 18  1  0  0  0
 17 97  1  0  0  0
 18 19  2  0  0  0
 18 98  1  0  0  0
 19 20  1  0  0  0
 19 24  1  0  0  0
 20 21  2  0  0  0
 20 99  1  0  0  0
 21 23  1  0  0  0
 22 28  1  0  0  0
 22 32  2  0  0  0
 26 27  1  0  0  0
 28100  1  0  0  0
 28101  1  0  0  0
 29102  1  0  0  0
 29103  1  0  0  0
 33 34  1  0  0  0
 33 66  1  0  0  0
 33 70  2  0  0  0
 34 36  1  0  0  0
 34 59  1  0  0  0
 34104  1  0  0  0
 35 44  2  0  0  0
 35 45  1  0  0  0
 35 68  1  0  0  0
 36 56  1  0  0  0
 36105  1  0  0  0
 37 39  1  0  0  0
 37 47  1  0  0  0
 37 66  1  0  0  0
 37106  1  0  0  0
 38 43  2  0  0  0
 38 46  1  0  0  0
 38 47  1  0  0  0
 39 64  1  0  0  0
 39 67  2  0  0  0
 40 52  1  0  0  0
 40 53  2  0  0  0
 40 58  1  0  0  0
 41107  1  0  0  0
 41108  1  0  0  0
 41109  1  0  0  0
 41 48  1  0  0  0
 42 43  1  0  0  0
 42 66  1  0  0  0
 42110  1  0  0  0
 42111  1  0  0  0
 43 44  1  0  0  0
 44112  1  0  0  0
 45 46  2  0  0  0
 45113  1  0  0  0
 46114  1  0  0  0
 47115  1  0  0  0
 47116  1  0  0  0
 48 56  1  0  0  0
 48 65  1  0  0  0
 48117  1  0  0  0
 49 50  1  0  0  0
 49 53  1  0  0  0
 49 64  1  0  0  0
 49118  1  0  0  0
 50 51  1  0  0  0
 50119  1  0  0  0
 50120  1  0  0  0
 51 52  1  0  0  0
 51121  1  0  0  0
 51122  1  0  0  0
 52123  1  0  0  0
 52124  1  0  0  0
 53 54  1  0  0  0
 54 55  2  0  0  0
 54125  1  0  0  0
 55 57  1  0  0  0
 55126  1  0  0  0
 56 69  2  0  0  0
 57 58  2  0  0  0
 57127  1  0  0  0
 58128  1  0  0  0
 59 60  1  0  0  0
 59 61  1  0  0  0
 59 62  1  0  0  0
 60129  1  0  0  0
 60130  1  0  0  0
 60131  1  0  0  0
 61132  1  0  0  0
 61133  1  0  0  0
 61134  1  0  0  0
 62135  1  0  0  0
 62136  1  0  0  0
 62137  1  0  0  0
 63 65  1  0  0  0
 63138  1  0  0  0
 63139  1  0  0  0
 63140  1  0  0  0
 64141  1  0  0  0
 65142  1  0  0  0
 68 76  1  0  0  0
 71 72  2  0  0  0
 71 83  1  0  0  0
 71143  1  0  0  0
 72 75  1  0  0  0
 72 79  1  0  0  0
 73 79  2  0  0  0
 73 80  1  0  0  0
 73 83  1  0  0  0
 74144  1  0  0  0
 74145  1  0  0  0
 74146  1  0  0  0
 74 77  1  0  0  0
 75 81  1  0  0  0
 75147  1  0  0  0
 75148  1  0  0  0
 76 77  1  0  0  0
 76149  1  0  0  0
 76150  1  0  0  0
 77 78  1  0  0  0
 77151  1  0  0  0
 78 80  1  0  0  0
 78 82  1  0  0  0
 78152  1  0  0  0
 80153  1  0  0  0
 81154  1  0  0  0
M  ISO  4   1 100  68 101  76 101  81 100
M  END
> <chiral flag>
0

> <version>
0

> <s_m_source_file>
/data/baiqing/PycharmProjects/Reinvent-master-3.2/result/LINK_invent/BTK/process_docking_weight1_custom_product_contain_oxygen_bond_distance_aromatic_linkinvent_7_9_3/rearranged_h_0188.sdf

> <i_m_source_file_index>
5

> <r_mmod_Potential_Energy-OPLS-2005>
-227.430862426758

> <r_mmod_Stretch_Energy-OPLS-2005>
50.1080207824707

> <r_mmod_Bend_Energy-OPLS-2005>
122.729934692383

> <r_mmod_Torsional_Energy-OPLS-2005>
215.753890991211

> <r_mmod_Improper_Torsional_Energy-OPLS-2005>
6.84231233596802

> <r_mmod_Van_der_Waal_Energy-OPLS-2005>
122.97225189209

> <r_mmod_Electrostatic_Energy-OPLS-2005>
-546.29931640625

> <r_mmod_Solvation_Energy-OPLS-2005>
-222.816192626953

> <b_mmod_Minimization_Converged-OPLS-2005>
0

> <r_mmod_RMS_Derivative-OPLS-2005>
2.03362512588501

$$$$
6
                    3D
 Structure written by MMmdl.
155163  0  0  1  0            999 V2000
  -30.5757  -14.8041   20.4452 C   0  0  0  0  0  0
  -30.4339  -12.5071   19.4583 C   0  0  0  0  0  0
  -29.4954  -12.5246   18.2299 C   0  0  0  0  0  0
  -28.0283  -12.3335   18.6553 C   0  0  0  0  0  0
  -27.6359  -13.2369   19.8516 C   0  0  2  0  0  0
  -28.6818  -13.1919   20.9856 C   0  0  0  0  0  0
  -25.2515  -13.8208   20.5792 C   0  0  0  0  0  0
  -24.1805  -13.0450   20.9243 C   0  0  0  0  0  0
  -24.6398  -11.6922   20.8786 C   0  0  0  0  0  0
  -23.9102  -10.4292   21.0413 C   0  0  0  0  0  0
  -24.3661   -9.4215   21.9196 C   0  0  0  0  0  0
  -23.6325   -8.2253   22.0760 C   0  0  0  0  0  0
  -22.4306   -8.0296   21.3549 C   0  0  0  0  0  0
  -21.9935   -9.0275   20.4649 C   0  0  0  0  0  0
  -22.7270  -10.2149   20.3062 C   0  0  0  0  0  0
  -21.6864   -6.0769   22.5289 C   0  0  0  0  0  0
  -21.4007   -6.5657   23.8229 C   0  0  0  0  0  0
  -21.3647   -5.6807   24.9183 C   0  0  0  0  0  0
  -21.6036   -4.3069   24.7225 C   0  0  0  0  0  0
  -21.8816   -3.8183   23.4350 C   0  0  0  0  0  0
  -21.9199   -4.7002   22.3407 C   0  0  0  0  0  0
  -22.7821  -13.5235   21.1844 C   0  0  0  0  0  0
  -22.1664   -4.2187   21.0987 F   0  0  0  0  0  0
  -21.5634   -3.4552   25.7739 F   0  0  0  0  0  0
  -29.9754  -13.5615   20.3990 N   0  0  0  0  0  0
  -26.2926  -12.9415   20.3359 N   0  0  0  0  0  0
  -25.9326  -11.6554   20.5807 N   0  0  0  0  0  0
  -22.0458  -12.8257   22.0415 N   0  0  0  0  0  0
  -25.4217  -15.1953   20.4318 N   0  0  0  0  0  0
  -31.7719  -14.8874   20.1414 O   0  0  0  0  0  0
  -21.6644   -6.8920   21.4252 O   0  0  0  0  0  0
  -22.3498  -14.5503   20.6620 O   0  0  0  0  0  0
  -24.6290  -31.8561   23.1949 C   0  0  0  0  0  0
  -25.9128  -32.4756   23.8292 C   0  0  1  0  0  0
  -27.2033  -27.2421   20.0906 C   0  0  0  0  0  0
  -25.5920  -33.8560   24.2226 N   0  0  0  0  0  0
  -23.4212  -30.4805   21.5446 C   0  0  2  0  0  0
  -24.8592  -28.9162   20.1102 C   0  0  0  0  0  0
  -22.7461  -29.4626   22.4943 C   0  0  0  0  0  0
  -18.0291  -28.1400   22.8485 C   0  0  0  0  0  0
  -24.1479  -36.7253   23.2639 C   0  0  0  0  0  0
  -25.9668  -30.7653   21.3657 C   0  0  0  0  0  0
  -26.0348  -29.3823   20.7064 C   0  0  0  0  0  0
  -27.2059  -28.5551   20.6877 C   0  0  0  0  0  0
  -25.9937  -26.8354   19.4922 C   0  0  0  0  0  0
  -24.8400  -27.6495   19.5033 C   0  0  0  0  0  0
  -23.6333  -29.8131   20.1612 C   0  0  0  0  0  0
  -25.4104  -36.3052   24.0326 C   0  0  1  0  0  0
  -20.5884  -28.3686   23.1296 C   0  0  2  0  0  0
  -20.6780  -26.9414   22.5415 C   0  0  0  0  0  0
  -19.5770  -26.6397   21.5215 C   0  0  0  0  0  0
  -18.1942  -26.7936   22.1626 C   0  0  0  0  0  0
  -19.1541  -28.8870   23.2883 C   0  0  0  0  0  0
  -18.9472  -30.1473   23.8889 C   0  0  0  0  0  0
  -17.6482  -30.6598   24.0570 C   0  0  0  0  0  0
  -25.9063  -34.9440   23.5082 C   0  0  0  0  0  0
  -16.5364  -29.9097   23.6347 C   0  0  0  0  0  0
  -16.7274  -28.6520   23.0343 C   0  0  0  0  0  0
  -26.4503  -31.6562   25.0669 C   0  0  0  0  0  0
  -25.3718  -31.3723   26.1389 C   0  0  0  0  0  0
  -27.0319  -30.2980   24.6117 C   0  0  0  0  0  0
  -27.6085  -32.4262   25.7428 C   0  0  0  0  0  0
  -27.5577  -37.1756   24.8457 C   0  0  0  0  0  0
  -21.4182  -29.3049   22.3685 N   0  0  0  0  0  0
  -26.4251  -37.3775   23.9457 N   0  0  0  0  0  0
  -24.6939  -31.0505   22.0934 N   0  0  0  0  0  0
  -23.4188  -28.8182   23.3028 O   0  0  0  0  0  0
  -28.3290  -26.3815   20.1382 O   0  0  0  0  0  0
  -26.5648  -34.8917   22.4662 O   0  0  0  0  0  0
  -23.5454  -32.1415   23.7245 O   0  0  0  0  0  0
  -30.0016  -17.3871   20.4083 C   0  0  0  0  0  0
  -29.5021  -19.6545   20.2529 C   0  0  0  0  0  0
  -29.0725  -22.2470   19.9761 C   0  0  0  0  0  0
  -29.6446  -25.2830   17.2132 C   0  0  0  0  0  0
  -26.6389  -23.1462   19.9183 C   0  0  0  0  0  0
  -28.3338  -25.0359   17.9763 C   0  0  0  0  0  0
  -28.1069  -23.5391   20.2073 C   0  0  2  0  0  0
  -28.4938  -24.9976   19.5258 C   0  0  2  0  0  0
  -29.0596  -18.3942   20.5946 N   0  0  0  0  0  0
  -31.1938  -17.8184   19.9522 N   0  0  0  0  0  0
  -29.7748  -15.9315   20.6584 N   0  0  0  0  0  0
  -28.7319  -20.9382   20.3360 N   0  0  0  0  0  0
  -30.1743  -22.4683   19.4718 O   0  0  0  0  0  0
  -31.1594  -19.5107   19.7086 S   0  0  0  0  0  0
  -31.4591  -12.6768   19.1231 H   0  0  0  0  0  0
  -30.4386  -11.5299   19.9419 H   0  0  0  0  0  0
  -29.7806  -11.7480   17.5193 H   0  0  0  0  0  0
  -29.5955  -13.4746   17.7001 H   0  0  0  0  0  0
  -27.8991  -11.2844   18.9248 H   0  0  0  0  0  0
  -27.3575  -12.5150   17.8113 H   0  0  0  0  0  0
  -27.6182  -14.2542   19.4582 H   0  0  0  0  0  0
  -28.7340  -12.1998   21.4372 H   0  0  0  0  0  0
  -28.4059  -13.8816   21.7862 H   0  0  0  0  0  0
  -25.2804   -9.5693   22.4790 H   0  0  0  0  0  0
  -24.0045   -7.4634   22.7458 H   0  0  0  0  0  0
  -21.0880   -8.8786   19.8956 H   0  0  0  0  0  0
  -22.3720  -10.9702   19.6194 H   0  0  0  0  0  0
  -21.1977   -7.6155   23.9748 H   0  0  0  0  0  0
  -21.1464   -6.0526   25.9087 H   0  0  0  0  0  0
  -22.0605   -2.7649   23.2832 H   0  0  0  0  0  0
  -22.4081  -11.9976   22.4887 H   0  0  0  0  0  0
  -21.1044  -13.1275   22.2518 H   0  0  0  0  0  0
  -24.6585  -15.8499   20.5666 H   0  0  0  0  0  0
  -26.2843  -15.6552   20.1701 H   0  0  0  0  0  0
  -26.7167  -32.5411   23.1006 H   0  0  0  0  0  0
  -25.0019  -33.9685   25.0341 H   0  0  0  0  0  0
  -22.7160  -31.3031   21.4025 H   0  0  0  0  0  0
  -23.3774  -35.9547   23.3221 H   0  0  0  0  0  0
  -24.3598  -36.8953   22.2070 H   0  0  0  0  0  0
  -23.7149  -37.6397   23.6712 H   0  0  0  0  0  0
  -26.0851  -31.5273   20.5933 H   0  0  0  0  0  0
  -26.8518  -30.8289   21.9866 H   0  0  0  0  0  0
  -28.1060  -28.9080   21.1663 H   0  0  0  0  0  0
  -25.9080  -25.8626   19.0316 H   0  0  0  0  0  0
  -23.9240  -27.2827   19.0599 H   0  0  0  0  0  0
  -23.7532  -30.5946   19.4102 H   0  0  0  0  0  0
  -22.7464  -29.2558   19.8557 H   0  0  0  0  0  0
  -25.1267  -36.1869   25.0806 H   0  0  0  0  0  0
  -20.9976  -28.3237   24.1422 H   0  0  0  0  0  0
  -20.5690  -26.2283   23.3601 H   0  0  0  0  0  0
  -21.6641  -26.7446   22.1214 H   0  0  0  0  0  0
  -19.6928  -25.6314   21.1240 H   0  0  0  0  0  0
  -19.6703  -27.3217   20.6755 H   0  0  0  0  0  0
  -17.4199  -26.6675   21.4029 H   0  0  0  0  0  0
  -18.0342  -26.0086   22.9040 H   0  0  0  0  0  0
  -19.7965  -30.7301   24.2213 H   0  0  0  0  0  0
  -17.5043  -31.6278   24.5169 H   0  0  0  0  0  0
  -15.5367  -30.3002   23.7687 H   0  0  0  0  0  0
  -15.8674  -28.0852   22.7045 H   0  0  0  0  0  0
  -24.5917  -30.7041   25.7710 H   0  0  0  0  0  0
  -24.8894  -32.2903   26.4765 H   0  0  0  0  0  0
  -25.8035  -30.8932   27.0185 H   0  0  0  0  0  0
  -26.2876  -29.6730   24.1179 H   0  0  0  0  0  0
  -27.4052  -29.7226   25.4594 H   0  0  0  0  0  0
  -27.8718  -30.4249   23.9287 H   0  0  0  0  0  0
  -27.2794  -33.3671   26.1848 H   0  0  0  0  0  0
  -28.3992  -32.6617   25.0287 H   0  0  0  0  0  0
  -28.0622  -31.8442   26.5462 H   0  0  0  0  0  0
  -28.2508  -38.0143   24.7635 H   0  0  0  0  0  0
  -28.1153  -36.2678   24.6095 H   0  0  0  0  0  0
  -27.2336  -37.1159   25.8866 H   0  0  0  0  0  0
  -20.9336  -29.8704   21.6857 H   0  0  0  0  0  0
  -26.0110  -38.2810   24.1590 H   0  0  0  0  0  0
  -29.4879  -25.2726   16.1335 H   0  0  0  0  0  0
  -30.3770  -24.5101   17.4456 H   0  0  0  0  0  0
  -30.0727  -26.2501   17.4759 H   0  0  0  0  0  0
  -26.3418  -22.2567   20.4742 H   0  0  0  0  0  0
  -26.4743  -22.9286   18.8614 H   0  0  0  0  0  0
  -25.9471  -23.9385   20.1995 H   0  0  0  0  0  0
  -27.9132  -24.0981   17.6161 H   0  0  0  0  0  0
  -27.6250  -25.8022   17.6675 H   0  0  0  0  0  0
  -28.1774  -23.7131   21.2818 H   0  0  0  0  0  0
  -29.5751  -24.9613   19.6607 H   0  0  0  0  0  0
  -28.8435  -15.7204   20.9736 H   0  0  0  0  0  0
  -27.8051  -20.8414   20.7247 H   0  0  0  0  0  0
  1 25  1  0  0  0
  1 30  2  0  0  0
  1 81  1  0  0  0
  2  3  1  0  0  0
  2 25  1  0  0  0
  2 85  1  0  0  0
  2 86  1  0  0  0
  3  4  1  0  0  0
  3 87  1  0  0  0
  3 88  1  0  0  0
  4  5  1  0  0  0
  4 89  1  0  0  0
  4 90  1  0  0  0
  5  6  1  0  0  0
  5 26  1  0  0  0
  5 91  1  0  0  0
  6 25  1  0  0  0
  6 92  1  0  0  0
  6 93  1  0  0  0
  7  8  2  0  0  0
  7 26  1  0  0  0
  7 29  1  0  0  0
  8  9  1  0  0  0
  8 22  1  0  0  0
  9 10  1  0  0  0
  9 27  2  0  0  0
 10 11  2  0  0  0
 10 15  1  0  0  0
 11 12  1  0  0  0
 11 94  1  0  0  0
 12 13  2  0  0  0
 12 95  1  0  0  0
 13 14  1  0  0  0
 13 31  1  0  0  0
 14 15  2  0  0  0
 14 96  1  0  0  0
 15 97  1  0  0  0
 16 17  2  0  0  0
 16 21  1  0  0  0
 16 31  1  0  0  0
 17 18  1  0  0  0
 17 98  1  0  0  0
 18 19  2  0  0  0
 18 99  1  0  0  0
 19 20  1  0  0  0
 19 24  1  0  0  0
 20 21  2  0  0  0
 20100  1  0  0  0
 21 23  1  0  0  0
 22 28  1  0  0  0
 22 32  2  0  0  0
 26 27  1  0  0  0
 28101  1  0  0  0
 28102  1  0  0  0
 29103  1  0  0  0
 29104  1  0  0  0
 33 34  1  0  0  0
 33 66  1  0  0  0
 33 70  2  0  0  0
 34 36  1  0  0  0
 34 59  1  0  0  0
 34105  1  0  0  0
 35 44  2  0  0  0
 35 45  1  0  0  0
 35 68  1  0  0  0
 36 56  1  0  0  0
 36106  1  0  0  0
 37 39  1  0  0  0
 37 47  1  0  0  0
 37 66  1  0  0  0
 37107  1  0  0  0
 38 43  2  0  0  0
 38 46  1  0  0  0
 38 47  1  0  0  0
 39 64  1  0  0  0
 39 67  2  0  0  0
 40 52  1  0  0  0
 40 53  2  0  0  0
 40 58  1  0  0  0
 41108  1  0  0  0
 41109  1  0  0  0
 41110  1  0  0  0
 41 48  1  0  0  0
 42 43  1  0  0  0
 42 66  1  0  0  0
 42111  1  0  0  0
 42112  1  0  0  0
 43 44  1  0  0  0
 44113  1  0  0  0
 45 46  2  0  0  0
 45114  1  0  0  0
 46115  1  0  0  0
 47116  1  0  0  0
 47117  1  0  0  0
 48 56  1  0  0  0
 48 65  1  0  0  0
 48118  1  0  0  0
 49 50  1  0  0  0
 49 53  1  0  0  0
 49 64  1  0  0  0
 49119  1  0  0  0
 50 51  1  0  0  0
 50120  1  0  0  0
 50121  1  0  0  0
 51 52  1  0  0  0
 51122  1  0  0  0
 51123  1  0  0  0
 52124  1  0  0  0
 52125  1  0  0  0
 53 54  1  0  0  0
 54 55  2  0  0  0
 54126  1  0  0  0
 55 57  1  0  0  0
 55127  1  0  0  0
 56 69  2  0  0  0
 57 58  2  0  0  0
 57128  1  0  0  0
 58129  1  0  0  0
 59 60  1  0  0  0
 59 61  1  0  0  0
 59 62  1  0  0  0
 60130  1  0  0  0
 60131  1  0  0  0
 60132  1  0  0  0
 61133  1  0  0  0
 61134  1  0  0  0
 61135  1  0  0  0
 62136  1  0  0  0
 62137  1  0  0  0
 62138  1  0  0  0
 63 65  1  0  0  0
 63139  1  0  0  0
 63140  1  0  0  0
 63141  1  0  0  0
 64142  1  0  0  0
 65143  1  0  0  0
 68 78  1  0  0  0
 71 79  1  0  0  0
 71 80  2  0  0  0
 71 81  1  0  0  0
 72 79  2  0  0  0
 72 82  1  0  0  0
 72 84  1  0  0  0
 73 77  1  0  0  0
 73 82  1  0  0  0
 73 83  2  0  0  0
 74 76  1  0  0  0
 74144  1  0  0  0
 74145  1  0  0  0
 74146  1  0  0  0
 75147  1  0  0  0
 75148  1  0  0  0
 75149  1  0  0  0
 75 77  1  0  0  0
 76150  1  0  0  0
 76151  1  0  0  0
 76 78  1  0  0  0
 77 78  1  0  0  0
 77152  1  0  0  0
 78153  1  0  0  0
 80 84  1  0  0  0
 81154  1  0  0  0
 82155  1  0  0  0
M  ISO  4   1 100  68 101  78 101  81 100
M  END
> <chiral flag>
0

> <version>
0

> <s_m_source_file>
/data/baiqing/PycharmProjects/Reinvent-master-3.2/result/LINK_invent/BTK/process_docking_weight1_custom_product_contain_oxygen_bond_distance_aromatic_linkinvent_7_9_3/rearranged_h_0188.sdf

> <i_m_source_file_index>
6

> <r_mmod_Potential_Energy-OPLS-2005>
124.877830505371

> <r_mmod_Stretch_Energy-OPLS-2005>
153.624603271484

> <r_mmod_Bend_Energy-OPLS-2005>
223.12043762207

> <r_mmod_Torsional_Energy-OPLS-2005>
208.865417480469

> <r_mmod_Improper_Torsional_Energy-OPLS-2005>
3.87204957008362

> <r_mmod_Van_der_Waal_Energy-OPLS-2005>
117.791450500488

> <r_mmod_Electrostatic_Energy-OPLS-2005>
-447.488586425781

> <r_mmod_Solvation_Energy-OPLS-2005>
-235.94563293457

> <b_mmod_Minimization_Converged-OPLS-2005>
0

> <r_mmod_RMS_Derivative-OPLS-2005>
4.84715795516968

$$$$
7
                    3D
 Structure written by MMmdl.
156164  0  0  1  0            999 V2000
  -30.7343  -14.4841   20.5240 C   0  0  0  0  0  0
  -30.4035  -12.2996   19.4477 C   0  0  0  0  0  0
  -29.4923  -12.4839   18.2182 C   0  0  0  0  0  0
  -28.0139  -12.3534   18.6290 C   0  0  0  0  0  0
  -27.6542  -13.2184   19.8679 C   0  0  2  0  0  0
  -28.6964  -13.0585   20.9994 C   0  0  0  0  0  0
  -25.2549  -13.8193   20.5693 C   0  0  0  0  0  0
  -24.1818  -13.0453   20.9192 C   0  0  0  0  0  0
  -24.6386  -11.6924   20.8747 C   0  0  0  0  0  0
  -23.9060  -10.4301   21.0409 C   0  0  0  0  0  0
  -24.3611   -9.4215   21.9187 C   0  0  0  0  0  0
  -23.6288   -8.2249   22.0755 C   0  0  0  0  0  0
  -22.4273   -8.0282   21.3542 C   0  0  0  0  0  0
  -21.9907   -9.0257   20.4647 C   0  0  0  0  0  0
  -22.7233  -10.2139   20.3058 C   0  0  0  0  0  0
  -21.6852   -6.0736   22.5278 C   0  0  0  0  0  0
  -21.4014   -6.5638   23.8213 C   0  0  0  0  0  0
  -21.3661   -5.6791   24.9175 C   0  0  0  0  0  0
  -21.6043   -4.3053   24.7227 C   0  0  0  0  0  0
  -21.8820   -3.8145   23.4347 C   0  0  0  0  0  0
  -21.9192   -4.6963   22.3401 C   0  0  0  0  0  0
  -22.7838  -13.5237   21.1853 C   0  0  0  0  0  0
  -22.1660   -4.2147   21.0979 F   0  0  0  0  0  0
  -21.5631   -3.4537   25.7740 F   0  0  0  0  0  0
  -30.0243  -13.3268   20.4333 N   0  0  0  0  0  0
  -26.2986  -12.9384   20.3352 N   0  0  0  0  0  0
  -25.9316  -11.6534   20.5783 N   0  0  0  0  0  0
  -22.0477  -12.8231   22.0408 N   0  0  0  0  0  0
  -25.4267  -15.1914   20.4100 N   0  0  0  0  0  0
  -31.8925  -14.5677   20.1101 O   0  0  0  0  0  0
  -21.6638   -6.8878   21.4239 O   0  0  0  0  0  0
  -22.3527  -14.5546   20.6699 O   0  0  0  0  0  0
  -24.6155  -31.8682   23.2116 C   0  0  0  0  0  0
  -25.9040  -32.4825   23.8406 C   0  0  1  0  0  0
  -27.2192  -27.4144   20.0995 C   0  0  0  0  0  0
  -25.5894  -33.8623   24.2330 N   0  0  0  0  0  0
  -23.4035  -30.4949   21.5525 C   0  0  2  0  0  0
  -24.8484  -28.9693   20.1074 C   0  0  0  0  0  0
  -22.7424  -29.4653   22.4977 C   0  0  0  0  0  0
  -18.0276  -28.1369   22.8491 C   0  0  0  0  0  0
  -24.1491  -36.7317   23.2638 C   0  0  0  0  0  0
  -25.9365  -30.8287   21.3694 C   0  0  0  0  0  0
  -26.0118  -29.4662   20.7085 C   0  0  0  0  0  0
  -27.2018  -28.6982   20.6985 C   0  0  0  0  0  0
  -26.0408  -26.9556   19.4639 C   0  0  0  0  0  0
  -24.8598  -27.7154   19.4793 C   0  0  0  0  0  0
  -23.6121  -29.8368   20.1638 C   0  0  0  0  0  0
  -25.4111  -36.3114   24.0337 C   0  0  1  0  0  0
  -20.5869  -28.3662   23.1315 C   0  0  2  0  0  0
  -20.6760  -26.9396   22.5419 C   0  0  0  0  0  0
  -19.5739  -26.6382   21.5210 C   0  0  0  0  0  0
  -18.1918  -26.7912   22.1624 C   0  0  0  0  0  0
  -19.1525  -28.8828   23.2902 C   0  0  0  0  0  0
  -18.9450  -30.1427   23.8920 C   0  0  0  0  0  0
  -17.6453  -30.6577   24.0559 C   0  0  0  0  0  0
  -25.9039  -34.9479   23.5135 C   0  0  0  0  0  0
  -16.5345  -29.9080   23.6319 C   0  0  0  0  0  0
  -16.7264  -28.6493   23.0350 C   0  0  0  0  0  0
  -26.4467  -31.6601   25.0730 C   0  0  0  0  0  0
  -25.3729  -31.3696   26.1478 C   0  0  0  0  0  0
  -27.0292  -30.3041   24.6100 C   0  0  0  0  0  0
  -27.6048  -32.4322   25.7488 C   0  0  0  0  0  0
  -27.5589  -37.1811   24.8464 C   0  0  0  0  0  0
  -21.4150  -29.3036   22.3723 N   0  0  0  0  0  0
  -26.4303  -37.3795   23.9401 N   0  0  0  0  0  0
  -24.6703  -31.0777   22.1024 N   0  0  0  0  0  0
  -23.4198  -28.8184   23.3007 O   0  0  0  0  0  0
  -28.3520  -26.6179   20.1824 O   0  0  0  0  0  0
  -26.5614  -34.8928   22.4705 O   0  0  0  0  0  0
  -23.5343  -32.1439   23.7506 O   0  0  0  0  0  0
  -29.6384  -18.5780   22.2481 C   0  0  0  0  0  0
  -30.0117  -18.2084   20.9733 C   0  0  0  0  0  0
  -29.4821  -20.6260   21.2319 C   0  0  0  0  0  0
  -29.3537  -22.8887   20.1737 C   0  0  0  0  0  0
  -29.6111  -17.7061   23.4658 C   0  0  0  0  0  0
  -27.3185  -24.9320   21.6618 C   0  0  0  0  0  0
  -30.6313  -16.9255   20.4646 C   0  0  0  0  0  0
  -29.4799  -24.4104   20.4394 C   0  0  0  0  0  0
  -28.1395  -25.1913   20.3745 C   0  0  2  0  0  0
  -29.3464  -19.9492   22.3782 N   0  0  0  0  0  0
  -29.3840  -22.0492   21.2307 N   0  0  0  0  0  0
  -30.0669  -15.6130   20.8527 N   0  0  0  0  0  0
  -29.2258  -22.5022   19.0091 O   0  0  0  0  0  0
  -29.9076  -19.5788   19.8777 S   0  0  0  0  0  0
  -31.4528  -12.3555   19.1528 H   0  0  0  0  0  0
  -30.2726  -11.3049   19.8769 H   0  0  0  0  0  0
  -29.7341  -11.7426   17.4555 H   0  0  0  0  0  0
  -29.6679  -13.4608   17.7641 H   0  0  0  0  0  0
  -27.8279  -11.3011   18.8461 H   0  0  0  0  0  0
  -27.3646  -12.6073   17.7901 H   0  0  0  0  0  0
  -27.6826  -14.2570   19.5378 H   0  0  0  0  0  0
  -28.6687  -12.0462   21.4057 H   0  0  0  0  0  0
  -28.4717  -13.7244   21.8339 H   0  0  0  0  0  0
  -25.2755   -9.5694   22.4765 H   0  0  0  0  0  0
  -23.9996   -7.4644   22.7478 H   0  0  0  0  0  0
  -21.0839   -8.8775   19.8954 H   0  0  0  0  0  0
  -22.3687  -10.9677   19.6169 H   0  0  0  0  0  0
  -21.2005   -7.6147   23.9715 H   0  0  0  0  0  0
  -21.1483   -6.0522   25.9078 H   0  0  0  0  0  0
  -22.0596   -2.7606   23.2849 H   0  0  0  0  0  0
  -22.4080  -11.9882   22.4791 H   0  0  0  0  0  0
  -21.1098  -13.1269   22.2618 H   0  0  0  0  0  0
  -24.6611  -15.8477   20.5184 H   0  0  0  0  0  0
  -26.2782  -15.6291   20.0817 H   0  0  0  0  0  0
  -26.7106  -32.5533   23.1165 H   0  0  0  0  0  0
  -25.0001  -33.9779   25.0450 H   0  0  0  0  0  0
  -22.6915  -31.3120   21.4187 H   0  0  0  0  0  0
  -23.3752  -35.9654   23.3306 H   0  0  0  0  0  0
  -24.3581  -36.8923   22.2051 H   0  0  0  0  0  0
  -23.7249  -37.6525   23.6656 H   0  0  0  0  0  0
  -26.0544  -31.5982   20.6055 H   0  0  0  0  0  0
  -26.8223  -30.8765   21.9908 H   0  0  0  0  0  0
  -28.0945  -29.0697   21.1827 H   0  0  0  0  0  0
  -26.0005  -26.0012   18.9625 H   0  0  0  0  0  0
  -23.9680  -27.3301   19.0035 H   0  0  0  0  0  0
  -23.7227  -30.6173   19.4102 H   0  0  0  0  0  0
  -22.7347  -29.2601   19.8649 H   0  0  0  0  0  0
  -25.1289  -36.1985   25.0831 H   0  0  0  0  0  0
  -20.9953  -28.3226   24.1439 H   0  0  0  0  0  0
  -20.5647  -26.2272   23.3607 H   0  0  0  0  0  0
  -21.6631  -26.7429   22.1217 H   0  0  0  0  0  0
  -19.6898  -25.6298   21.1226 H   0  0  0  0  0  0
  -19.6670  -27.3202   20.6745 H   0  0  0  0  0  0
  -17.4184  -26.6655   21.4031 H   0  0  0  0  0  0
  -18.0319  -26.0052   22.9020 H   0  0  0  0  0  0
  -19.7929  -30.7221   24.2319 H   0  0  0  0  0  0
  -17.5020  -31.6265   24.5148 H   0  0  0  0  0  0
  -15.5348  -30.2991   23.7635 H   0  0  0  0  0  0
  -15.8661  -28.0816   22.7066 H   0  0  0  0  0  0
  -24.5912  -30.7034   25.7805 H   0  0  0  0  0  0
  -24.8909  -32.2844   26.4939 H   0  0  0  0  0  0
  -25.8088  -30.8855   27.0228 H   0  0  0  0  0  0
  -26.2830  -29.6806   24.1155 H   0  0  0  0  0  0
  -27.4060  -29.7269   25.4554 H   0  0  0  0  0  0
  -27.8678  -30.4349   23.9251 H   0  0  0  0  0  0
  -27.2669  -33.3616   26.2086 H   0  0  0  0  0  0
  -28.3846  -32.6883   25.0302 H   0  0  0  0  0  0
  -28.0731  -31.8430   26.5381 H   0  0  0  0  0  0
  -28.2608  -38.0109   24.7521 H   0  0  0  0  0  0
  -28.1087  -36.2642   24.6288 H   0  0  0  0  0  0
  -27.2303  -37.1448   25.8866 H   0  0  0  0  0  0
  -20.9307  -29.8798   21.6981 H   0  0  0  0  0  0
  -26.0196  -38.2877   24.1401 H   0  0  0  0  0  0
  -30.4434  -17.0018   23.4693 H   0  0  0  0  0  0
  -28.6898  -17.1255   23.5143 H   0  0  0  0  0  0
  -29.6789  -18.2917   24.3829 H   0  0  0  0  0  0
  -27.1495  -23.8669   21.8173 H   0  0  0  0  0  0
  -26.3332  -25.3950   21.6356 H   0  0  0  0  0  0
  -27.8334  -25.3168   22.5422 H   0  0  0  0  0  0
  -31.6802  -16.9550   20.7658 H   0  0  0  0  0  0
  -30.6462  -16.9548   19.3734 H   0  0  0  0  0  0
  -30.1499  -24.8067   19.6763 H   0  0  0  0  0  0
  -29.9817  -24.5878   21.3906 H   0  0  0  0  0  0
  -27.6021  -24.7915   19.5155 H   0  0  0  0  0  0
  -29.3926  -22.4785   22.1435 H   0  0  0  0  0  0
  -29.1008  -15.5479   21.1339 H   0  0  0  0  0  0
  1 25  1  0  0  0
  1 30  2  0  0  0
  1 82  1  0  0  0
  2  3  1  0  0  0
  2 25  1  0  0  0
  2 85  1  0  0  0
  2 86  1  0  0  0
  3  4  1  0  0  0
  3 87  1  0  0  0
  3 88  1  0  0  0
  4  5  1  0  0  0
  4 89  1  0  0  0
  4 90  1  0  0  0
  5  6  1  0  0  0
  5 26  1  0  0  0
  5 91  1  0  0  0
  6 25  1  0  0  0
  6 92  1  0  0  0
  6 93  1  0  0  0
  7  8  2  0  0  0
  7 26  1  0  0  0
  7 29  1  0  0  0
  8  9  1  0  0  0
  8 22  1  0  0  0
  9 10  1  0  0  0
  9 27  2  0  0  0
 10 11  2  0  0  0
 10 15  1  0  0  0
 11 12  1  0  0  0
 11 94  1  0  0  0
 12 13  2  0  0  0
 12 95  1  0  0  0
 13 14  1  0  0  0
 13 31  1  0  0  0
 14 15  2  0  0  0
 14 96  1  0  0  0
 15 97  1  0  0  0
 16 17  2  0  0  0
 16 21  1  0  0  0
 16 31  1  0  0  0
 17 18  1  0  0  0
 17 98  1  0  0  0
 18 19  2  0  0  0
 18 99  1  0  0  0
 19 20  1  0  0  0
 19 24  1  0  0  0
 20 21  2  0  0  0
 20100  1  0  0  0
 21 23  1  0  0  0
 22 28  1  0  0  0
 22 32  2  0  0  0
 26 27  1  0  0  0
 28101  1  0  0  0
 28102  1  0  0  0
 29103  1  0  0  0
 29104  1  0  0  0
 33 34  1  0  0  0
 33 66  1  0  0  0
 33 70  2  0  0  0
 34 36  1  0  0  0
 34 59  1  0  0  0
 34105  1  0  0  0
 35 44  2  0  0  0
 35 45  1  0  0  0
 35 68  1  0  0  0
 36 56  1  0  0  0
 36106  1  0  0  0
 37 39  1  0  0  0
 37 47  1  0  0  0
 37 66  1  0  0  0
 37107  1  0  0  0
 38 43  2  0  0  0
 38 46  1  0  0  0
 38 47  1  0  0  0
 39 64  1  0  0  0
 39 67  2  0  0  0
 40 52  1  0  0  0
 40 53  2  0  0  0
 40 58  1  0  0  0
 41108  1  0  0  0
 41109  1  0  0  0
 41110  1  0  0  0
 41 48  1  0  0  0
 42 43  1  0  0  0
 42 66  1  0  0  0
 42111  1  0  0  0
 42112  1  0  0  0
 43 44  1  0  0  0
 44113  1  0  0  0
 45 46  2  0  0  0
 45114  1  0  0  0
 46115  1  0  0  0
 47116  1  0  0  0
 47117  1  0  0  0
 48 56  1  0  0  0
 48 65  1  0  0  0
 48118  1  0  0  0
 49 50  1  0  0  0
 49 53  1  0  0  0
 49 64  1  0  0  0
 49119  1  0  0  0
 50 51  1  0  0  0
 50120  1  0  0  0
 50121  1  0  0  0
 51 52  1  0  0  0
 51122  1  0  0  0
 51123  1  0  0  0
 52124  1  0  0  0
 52125  1  0  0  0
 53 54  1  0  0  0
 54 55  2  0  0  0
 54126  1  0  0  0
 55 57  1  0  0  0
 55127  1  0  0  0
 56 69  2  0  0  0
 57 58  2  0  0  0
 57128  1  0  0  0
 58129  1  0  0  0
 59 60  1  0  0  0
 59 61  1  0  0  0
 59 62  1  0  0  0
 60130  1  0  0  0
 60131  1  0  0  0
 60132  1  0  0  0
 61133  1  0  0  0
 61134  1  0  0  0
 61135  1  0  0  0
 62136  1  0  0  0
 62137  1  0  0  0
 62138  1  0  0  0
 63 65  1  0  0  0
 63139  1  0  0  0
 63140  1  0  0  0
 63141  1  0  0  0
 64142  1  0  0  0
 65143  1  0  0  0
 68 79  1  0  0  0
 71 72  2  0  0  0
 71 75  1  0  0  0
 71 80  1  0  0  0
 72 77  1  0  0  0
 72 84  1  0  0  0
 73 80  2  0  0  0
 73 81  1  0  0  0
 73 84  1  0  0  0
 74 78  1  0  0  0
 74 81  1  0  0  0
 74 83  2  0  0  0
 75144  1  0  0  0
 75145  1  0  0  0
 75146  1  0  0  0
 76147  1  0  0  0
 76148  1  0  0  0
 76149  1  0  0  0
 76 79  1  0  0  0
 77 82  1  0  0  0
 77150  1  0  0  0
 77151  1  0  0  0
 78 79  1  0  0  0
 78152  1  0  0  0
 78153  1  0  0  0
 79154  1  0  0  0
 81155  1  0  0  0
 82156  1  0  0  0
M  ISO  4   1 100  68 101  79 101  82 100
M  END
> <chiral flag>
0

> <version>
0

> <s_m_source_file>
/data/baiqing/PycharmProjects/Reinvent-master-3.2/result/LINK_invent/BTK/process_docking_weight1_custom_product_contain_oxygen_bond_distance_aromatic_linkinvent_7_9_3/rearranged_h_0188.sdf

> <i_m_source_file_index>
7

> <r_mmod_Potential_Energy-OPLS-2005>
-165.383392333984

> <r_mmod_Stretch_Energy-OPLS-2005>
39.8776321411133

> <r_mmod_Bend_Energy-OPLS-2005>
110.60668182373

> <r_mmod_Torsional_Energy-OPLS-2005>
208.697006225586

> <r_mmod_Improper_Torsional_Energy-OPLS-2005>
7.14523220062256

> <r_mmod_Van_der_Waal_Energy-OPLS-2005>
137.373397827148

> <r_mmod_Electrostatic_Energy-OPLS-2005>
-464.69580078125

> <r_mmod_Solvation_Energy-OPLS-2005>
-227.261245727539

> <b_mmod_Minimization_Converged-OPLS-2005>
0

> <r_mmod_RMS_Derivative-OPLS-2005>
0.891743838787079

$$$$
8
                    3D
 Structure written by MMmdl.
160168  0  0  1  0            999 V2000
  -30.6879  -14.5578   20.5080 C   0  0  0  0  0  0
  -30.4218  -12.3424   19.4493 C   0  0  0  0  0  0
  -29.5004  -12.4956   18.2207 C   0  0  0  0  0  0
  -28.0235  -12.3466   18.6326 C   0  0  0  0  0  0
  -27.6547  -13.2169   19.8632 C   0  0  2  0  0  0
  -28.6976  -13.0734   20.9958 C   0  0  0  0  0  0
  -25.2565  -13.8189   20.5681 C   0  0  0  0  0  0
  -24.1828  -13.0453   20.9178 C   0  0  0  0  0  0
  -24.6397  -11.6921   20.8744 C   0  0  0  0  0  0
  -23.9074  -10.4297   21.0403 C   0  0  0  0  0  0
  -24.3618   -9.4211   21.9187 C   0  0  0  0  0  0
  -23.6290   -8.2247   22.0760 C   0  0  0  0  0  0
  -22.4274   -8.0286   21.3547 C   0  0  0  0  0  0
  -21.9905   -9.0266   20.4653 C   0  0  0  0  0  0
  -22.7243  -10.2141   20.3060 C   0  0  0  0  0  0
  -21.6851   -6.0731   22.5281 C   0  0  0  0  0  0
  -21.4019   -6.5636   23.8216 C   0  0  0  0  0  0
  -21.3658   -5.6789   24.9176 C   0  0  0  0  0  0
  -21.6043   -4.3051   24.7227 C   0  0  0  0  0  0
  -21.8820   -3.8145   23.4347 C   0  0  0  0  0  0
  -21.9195   -4.6960   22.3404 C   0  0  0  0  0  0
  -22.7851  -13.5237   21.1831 C   0  0  0  0  0  0
  -22.1660   -4.2146   21.0979 F   0  0  0  0  0  0
  -21.5630   -3.4533   25.7737 F   0  0  0  0  0  0
  -30.0206  -13.3695   20.4293 N   0  0  0  0  0  0
  -26.2995  -12.9372   20.3318 N   0  0  0  0  0  0
  -25.9320  -11.6529   20.5765 N   0  0  0  0  0  0
  -22.0486  -12.8247   22.0397 N   0  0  0  0  0  0
  -25.4278  -15.1904   20.4100 N   0  0  0  0  0  0
  -31.8490  -14.6791   20.1141 O   0  0  0  0  0  0
  -21.6645   -6.8876   21.4242 O   0  0  0  0  0  0
  -22.3533  -14.5551   20.6686 O   0  0  0  0  0  0
  -24.6209  -31.8652   23.2088 C   0  0  0  0  0  0
  -25.9081  -32.4812   23.8397 C   0  0  1  0  0  0
  -27.2193  -27.3741   20.1081 C   0  0  0  0  0  0
  -25.5919  -33.8610   24.2322 N   0  0  0  0  0  0
  -23.4119  -30.4895   21.5496 C   0  0  2  0  0  0
  -24.8595  -28.9520   20.1151 C   0  0  0  0  0  0
  -22.7447  -29.4646   22.4963 C   0  0  0  0  0  0
  -18.0287  -28.1370   22.8491 C   0  0  0  0  0  0
  -24.1489  -36.7309   23.2636 C   0  0  0  0  0  0
  -25.9481  -30.8089   21.3766 C   0  0  0  0  0  0
  -26.0231  -29.4381   20.7269 C   0  0  0  0  0  0
  -27.2084  -28.6527   20.7301 C   0  0  0  0  0  0
  -26.0474  -26.9376   19.4608 C   0  0  0  0  0  0
  -24.8681  -27.7016   19.4789 C   0  0  0  0  0  0
  -23.6255  -29.8268   20.1638 C   0  0  0  0  0  0
  -25.4112  -36.3102   24.0336 C   0  0  1  0  0  0
  -20.5875  -28.3690   23.1302 C   0  0  2  0  0  0
  -20.6787  -26.9424   22.5411 C   0  0  0  0  0  0
  -19.5762  -26.6382   21.5221 C   0  0  0  0  0  0
  -18.1943  -26.7907   22.1639 C   0  0  0  0  0  0
  -19.1530  -28.8848   23.2888 C   0  0  0  0  0  0
  -18.9450  -30.1450   23.8900 C   0  0  0  0  0  0
  -17.6451  -30.6584   24.0555 C   0  0  0  0  0  0
  -25.9042  -34.9472   23.5125 C   0  0  0  0  0  0
  -16.5345  -29.9075   23.6326 C   0  0  0  0  0  0
  -16.7274  -28.6489   23.0353 C   0  0  0  0  0  0
  -26.4482  -31.6599   25.0739 C   0  0  0  0  0  0
  -25.3728  -31.3737   26.1475 C   0  0  0  0  0  0
  -27.0316  -30.3029   24.6156 C   0  0  0  0  0  0
  -27.6049  -32.4324   25.7507 C   0  0  0  0  0  0
  -27.5581  -37.1812   24.8462 C   0  0  0  0  0  0
  -21.4168  -29.3049   22.3709 N   0  0  0  0  0  0
  -26.4292  -37.3792   23.9406 N   0  0  0  0  0  0
  -24.6783  -31.0704   22.1023 N   0  0  0  0  0  0
  -23.4186  -28.8193   23.3035 O   0  0  0  0  0  0
  -28.3275  -26.5378   20.0743 O   0  0  0  0  0  0
  -26.5603  -34.8921   22.4683 O   0  0  0  0  0  0
  -23.5388  -32.1439   23.7443 O   0  0  0  0  0  0
  -31.0386  -19.9391   19.6821 C   0  0  0  0  0  0
  -29.8938  -19.6456   20.3863 C   0  0  0  0  0  0
  -29.7672  -21.9698   20.2770 C   0  0  0  0  0  0
  -29.8881  -25.9146   21.7553 C   0  0  0  0  0  0
  -27.8826  -23.4621   22.3913 C   0  0  0  0  0  0
  -26.9892  -23.8050   20.1055 C   0  0  0  0  0  0
  -29.4026  -18.2361   20.7772 C   0  0  0  0  0  0
  -30.4293  -17.0600   20.5589 C   0  0  0  0  0  0
  -28.4877  -25.6224   21.1938 C   0  0  2  0  0  0
  -28.2083  -24.0538   21.0028 C   0  0  0  0  0  0
  -29.1732  -20.8322   20.7064 N   0  0  0  0  0  0
  -29.3519  -23.3079   20.4469 N   0  0  0  0  0  0
  -29.9619  -15.6637   20.8189 N   0  0  0  0  0  0
  -31.2601  -21.6500   19.4117 S   0  0  0  0  0  0
  -31.4669  -12.4332   19.1485 H   0  0  0  0  0  0
  -30.3233  -11.3460   19.8853 H   0  0  0  0  0  0
  -29.7527  -11.7544   17.4614 H   0  0  0  0  0  0
  -29.6568  -13.4725   17.7594 H   0  0  0  0  0  0
  -27.8521  -11.2938   18.8603 H   0  0  0  0  0  0
  -27.3705  -12.5856   17.7921 H   0  0  0  0  0  0
  -27.6765  -14.2524   19.5225 H   0  0  0  0  0  0
  -28.6860  -12.0629   21.4062 H   0  0  0  0  0  0
  -28.4615  -13.7376   21.8287 H   0  0  0  0  0  0
  -25.2763   -9.5682   22.4755 H   0  0  0  0  0  0
  -24.0000   -7.4638   22.7477 H   0  0  0  0  0  0
  -21.0833   -8.8798   19.8953 H   0  0  0  0  0  0
  -22.3714  -10.9685   19.6170 H   0  0  0  0  0  0
  -21.2015   -7.6145   23.9716 H   0  0  0  0  0  0
  -21.1475   -6.0518   25.9077 H   0  0  0  0  0  0
  -22.0597   -2.7603   23.2854 H   0  0  0  0  0  0
  -22.4105  -11.9921   22.4812 H   0  0  0  0  0  0
  -21.1110  -13.1300   22.2595 H   0  0  0  0  0  0
  -24.6598  -15.8451   20.5125 H   0  0  0  0  0  0
  -26.2762  -15.6283   20.0753 H   0  0  0  0  0  0
  -26.7146  -32.5512   23.1153 H   0  0  0  0  0  0
  -25.0085  -33.9768   25.0478 H   0  0  0  0  0  0
  -22.7035  -31.3086   21.4089 H   0  0  0  0  0  0
  -23.3749  -35.9643   23.3310 H   0  0  0  0  0  0
  -24.3581  -36.8913   22.2045 H   0  0  0  0  0  0
  -23.7241  -37.6519   23.6645 H   0  0  0  0  0  0
  -26.0713  -31.5710   20.6060 H   0  0  0  0  0  0
  -26.8331  -30.8626   21.9987 H   0  0  0  0  0  0
  -28.1047  -29.0164   21.2133 H   0  0  0  0  0  0
  -26.0351  -25.9995   18.9309 H   0  0  0  0  0  0
  -23.9804  -27.3290   18.9866 H   0  0  0  0  0  0
  -23.7410  -30.6030   19.4067 H   0  0  0  0  0  0
  -22.7480  -29.2517   19.8630 H   0  0  0  0  0  0
  -25.1284  -36.1970   25.0830 H   0  0  0  0  0  0
  -20.9947  -28.3263   24.1433 H   0  0  0  0  0  0
  -20.5704  -26.2297   23.3599 H   0  0  0  0  0  0
  -21.6651  -26.7486   22.1183 H   0  0  0  0  0  0
  -19.6951  -25.6295   21.1257 H   0  0  0  0  0  0
  -19.6675  -27.3186   20.6742 H   0  0  0  0  0  0
  -17.4195  -26.6633   21.4059 H   0  0  0  0  0  0
  -18.0366  -26.0056   22.9049 H   0  0  0  0  0  0
  -19.7928  -30.7260   24.2272 H   0  0  0  0  0  0
  -17.5009  -31.6264   24.5151 H   0  0  0  0  0  0
  -15.5346  -30.2971   23.7654 H   0  0  0  0  0  0
  -15.8674  -28.0801   22.7080 H   0  0  0  0  0  0
  -24.5892  -30.7088   25.7820 H   0  0  0  0  0  0
  -24.8931  -32.2908   26.4914 H   0  0  0  0  0  0
  -25.8063  -30.8918   27.0247 H   0  0  0  0  0  0
  -26.2882  -29.6800   24.1164 H   0  0  0  0  0  0
  -27.4010  -29.7261   25.4647 H   0  0  0  0  0  0
  -27.8758  -30.4332   23.9378 H   0  0  0  0  0  0
  -27.2660  -33.3610   26.2118 H   0  0  0  0  0  0
  -28.3851  -32.6909   25.0330 H   0  0  0  0  0  0
  -28.0730  -31.8429   26.5403 H   0  0  0  0  0  0
  -28.2602  -38.0105   24.7506 H   0  0  0  0  0  0
  -28.1073  -36.2639   24.6292 H   0  0  0  0  0  0
  -27.2301  -37.1464   25.8864 H   0  0  0  0  0  0
  -20.9349  -29.8774   21.6920 H   0  0  0  0  0  0
  -26.0186  -38.2872   24.1406 H   0  0  0  0  0  0
  -31.7786  -19.2499   19.2986 H   0  0  0  0  0  0
  -30.6640  -25.6949   21.0229 H   0  0  0  0  0  0
  -30.0960  -25.3296   22.6495 H   0  0  0  0  0  0
  -29.9836  -26.9669   22.0253 H   0  0  0  0  0  0
  -27.0467  -23.9805   22.8623 H   0  0  0  0  0  0
  -28.7295  -23.5282   23.0740 H   0  0  0  0  0  0
  -27.6002  -22.4108   22.3309 H   0  0  0  0  0  0
  -26.1067  -24.3180   20.4886 H   0  0  0  0  0  0
  -26.7423  -22.7443   20.0477 H   0  0  0  0  0  0
  -27.1740  -24.1442   19.0861 H   0  0  0  0  0  0
  -28.4979  -18.0111   20.2116 H   0  0  0  0  0  0
  -29.0961  -18.2396   21.8237 H   0  0  0  0  0  0
  -31.3191  -17.2459   21.1622 H   0  0  0  0  0  0
  -30.7616  -17.0918   19.5196 H   0  0  0  0  0  0
  -27.7870  -25.9595   21.9612 H   0  0  0  0  0  0
  -30.0269  -23.9479   20.0421 H   0  0  0  0  0  0
  -29.0090  -15.5233   21.1212 H   0  0  0  0  0  0
  1 25  1  0  0  0
  1 30  2  0  0  0
  1 83  1  0  0  0
  2  3  1  0  0  0
  2 25  1  0  0  0
  2 85  1  0  0  0
  2 86  1  0  0  0
  3  4  1  0  0  0
  3 87  1  0  0  0
  3 88  1  0  0  0
  4  5  1  0  0  0
  4 89  1  0  0  0
  4 90  1  0  0  0
  5  6  1  0  0  0
  5 26  1  0  0  0
  5 91  1  0  0  0
  6 25  1  0  0  0
  6 92  1  0  0  0
  6 93  1  0  0  0
  7  8  2  0  0  0
  7 26  1  0  0  0
  7 29  1  0  0  0
  8  9  1  0  0  0
  8 22  1  0  0  0
  9 10  1  0  0  0
  9 27  2  0  0  0
 10 11  2  0  0  0
 10 15  1  0  0  0
 11 12  1  0  0  0
 11 94  1  0  0  0
 12 13  2  0  0  0
 12 95  1  0  0  0
 13 14  1  0  0  0
 13 31  1  0  0  0
 14 15  2  0  0  0
 14 96  1  0  0  0
 15 97  1  0  0  0
 16 17  2  0  0  0
 16 21  1  0  0  0
 16 31  1  0  0  0
 17 18  1  0  0  0
 17 98  1  0  0  0
 18 19  2  0  0  0
 18 99  1  0  0  0
 19 20  1  0  0  0
 19 24  1  0  0  0
 20 21  2  0  0  0
 20100  1  0  0  0
 21 23  1  0  0  0
 22 28  1  0  0  0
 22 32  2  0  0  0
 26 27  1  0  0  0
 28101  1  0  0  0
 28102  1  0  0  0
 29103  1  0  0  0
 29104  1  0  0  0
 33 34  1  0  0  0
 33 66  1  0  0  0
 33 70  2  0  0  0
 34 36  1  0  0  0
 34 59  1  0  0  0
 34105  1  0  0  0
 35 44  2  0  0  0
 35 45  1  0  0  0
 35 68  1  0  0  0
 36 56  1  0  0  0
 36106  1  0  0  0
 37 39  1  0  0  0
 37 47  1  0  0  0
 37 66  1  0  0  0
 37107  1  0  0  0
 38 43  2  0  0  0
 38 46  1  0  0  0
 38 47  1  0  0  0
 39 64  1  0  0  0
 39 67  2  0  0  0
 40 52  1  0  0  0
 40 53  2  0  0  0
 40 58  1  0  0  0
 41108  1  0  0  0
 41109  1  0  0  0
 41110  1  0  0  0
 41 48  1  0  0  0
 42 43  1  0  0  0
 42 66  1  0  0  0
 42111  1  0  0  0
 42112  1  0  0  0
 43 44  1  0  0  0
 44113  1  0  0  0
 45 46  2  0  0  0
 45114  1  0  0  0
 46115  1  0  0  0
 47116  1  0  0  0
 47117  1  0  0  0
 48 56  1  0  0  0
 48 65  1  0  0  0
 48118  1  0  0  0
 49 50  1  0  0  0
 49 53  1  0  0  0
 49 64  1  0  0  0
 49119  1  0  0  0
 50 51  1  0  0  0
 50120  1  0  0  0
 50121  1  0  0  0
 51 52  1  0  0  0
 51122  1  0  0  0
 51123  1  0  0  0
 52124  1  0  0  0
 52125  1  0  0  0
 53 54  1  0  0  0
 54 55  2  0  0  0
 54126  1  0  0  0
 55 57  1  0  0  0
 55127  1  0  0  0
 56 69  2  0  0  0
 57 58  2  0  0  0
 57128  1  0  0  0
 58129  1  0  0  0
 59 60  1  0  0  0
 59 61  1  0  0  0
 59 62  1  0  0  0
 60130  1  0  0  0
 60131  1  0  0  0
 60132  1  0  0  0
 61133  1  0  0  0
 61134  1  0  0  0
 61135  1  0  0  0
 62136  1  0  0  0
 62137  1  0  0  0
 62138  1  0  0  0
 63 65  1  0  0  0
 63139  1  0  0  0
 63140  1  0  0  0
 63141  1  0  0  0
 64142  1  0  0  0
 65143  1  0  0  0
 68 79  1  0  0  0
 71 72  2  0  0  0
 71 84  1  0  0  0
 71144  1  0  0  0
 72 77  1  0  0  0
 72 81  1  0  0  0
 73 81  2  0  0  0
 73 82  1  0  0  0
 73 84  1  0  0  0
 74145  1  0  0  0
 74146  1  0  0  0
 74147  1  0  0  0
 74 79  1  0  0  0
 75148  1  0  0  0
 75149  1  0  0  0
 75150  1  0  0  0
 75 80  1  0  0  0
 76 80  1  0  0  0
 76151  1  0  0  0
 76152  1  0  0  0
 76153  1  0  0  0
 77 78  1  0  0  0
 77154  1  0  0  0
 77155  1  0  0  0
 78 83  1  0  0  0
 78156  1  0  0  0
 78157  1  0  0  0
 79 80  1  0  0  0
 79158  1  0  0  0
 80 82  1  0  0  0
 82159  1  0  0  0
 83160  1  0  0  0
M  ISO  4   1 100  68 101  79 101  83 100
M  END
> <chiral flag>
0

> <version>
0

> <s_m_source_file>
/data/baiqing/PycharmProjects/Reinvent-master-3.2/result/LINK_invent/BTK/process_docking_weight1_custom_product_contain_oxygen_bond_distance_aromatic_linkinvent_7_9_3/rearranged_h_0188.sdf

> <i_m_source_file_index>
8

> <r_mmod_Potential_Energy-OPLS-2005>
-138.549987792969

> <r_mmod_Stretch_Energy-OPLS-2005>
55.9678688049316

> <r_mmod_Bend_Energy-OPLS-2005>
124.124412536621

> <r_mmod_Torsional_Energy-OPLS-2005>
236.941040039062

> <r_mmod_Improper_Torsional_Energy-OPLS-2005>
5.30558490753174

> <r_mmod_Van_der_Waal_Energy-OPLS-2005>
121.684600830078

> <r_mmod_Electrostatic_Energy-OPLS-2005>
-494.841766357422

> <r_mmod_Solvation_Energy-OPLS-2005>
-217.183258056641

> <b_mmod_Minimization_Converged-OPLS-2005>
0

> <r_mmod_RMS_Derivative-OPLS-2005>
1.75780177116394

$$$$
9
                    3D
 Structure written by MMmdl.
158166  0  0  1  0            999 V2000
  -30.6971  -14.4526   20.6020 C   0  0  0  0  0  0
  -30.4283  -12.3051   19.4174 C   0  0  0  0  0  0
  -29.4954  -12.5164   18.2069 C   0  0  0  0  0  0
  -28.0159  -12.3739   18.6195 C   0  0  0  0  0  0
  -27.6650  -13.2034   19.8842 C   0  0  2  0  0  0
  -28.7036  -12.9589   21.0021 C   0  0  0  0  0  0
  -25.2607  -13.8165   20.5709 C   0  0  0  0  0  0
  -24.1844  -13.0444   20.9188 C   0  0  0  0  0  0
  -24.6392  -11.6907   20.8729 C   0  0  0  0  0  0
  -23.9068  -10.4294   21.0401 C   0  0  0  0  0  0
  -24.3613   -9.4209   21.9187 C   0  0  0  0  0  0
  -23.6293   -8.2241   22.0753 C   0  0  0  0  0  0
  -22.4276   -8.0282   21.3545 C   0  0  0  0  0  0
  -21.9914   -9.0254   20.4645 C   0  0  0  0  0  0
  -22.7239  -10.2135   20.3056 C   0  0  0  0  0  0
  -21.6853   -6.0736   22.5287 C   0  0  0  0  0  0
  -21.4009   -6.5640   23.8217 C   0  0  0  0  0  0
  -21.3658   -5.6790   24.9177 C   0  0  0  0  0  0
  -21.6046   -4.3058   24.7228 C   0  0  0  0  0  0
  -21.8820   -3.8150   23.4346 C   0  0  0  0  0  0
  -21.9192   -4.6965   22.3401 C   0  0  0  0  0  0
  -22.7865  -13.5247   21.1848 C   0  0  0  0  0  0
  -22.1663   -4.2153   21.0981 F   0  0  0  0  0  0
  -21.5629   -3.4539   25.7738 F   0  0  0  0  0  0
  -30.0400  -13.2701   20.4591 N   0  0  0  0  0  0
  -26.3041  -12.9323   20.3402 N   0  0  0  0  0  0
  -25.9327  -11.6486   20.5776 N   0  0  0  0  0  0
  -22.0503  -12.8223   22.0386 N   0  0  0  0  0  0
  -25.4357  -15.1875   20.4145 N   0  0  0  0  0  0
  -31.8095  -14.6594   20.1032 O   0  0  0  0  0  0
  -21.6638   -6.8876   21.4243 O   0  0  0  0  0  0
  -22.3554  -14.5570   20.6722 O   0  0  0  0  0  0
  -24.6131  -31.8693   23.2113 C   0  0  0  0  0  0
  -25.9039  -32.4826   23.8404 C   0  0  1  0  0  0
  -27.2388  -27.4502   20.0996 C   0  0  0  0  0  0
  -25.5900  -33.8623   24.2349 N   0  0  0  0  0  0
  -23.4008  -30.4905   21.5530 C   0  0  2  0  0  0
  -24.8500  -28.9521   20.1244 C   0  0  0  0  0  0
  -22.7399  -29.4668   22.5035 C   0  0  0  0  0  0
  -18.0256  -28.1363   22.8499 C   0  0  0  0  0  0
  -24.1487  -36.7308   23.2646 C   0  0  0  0  0  0
  -25.9256  -30.8374   21.3612 C   0  0  0  0  0  0
  -26.0064  -29.4667   20.7244 C   0  0  0  0  0  0
  -27.2039  -28.7186   20.7202 C   0  0  0  0  0  0
  -26.0721  -26.9415   19.4971 C   0  0  0  0  0  0
  -24.8748  -27.6842   19.5139 C   0  0  0  0  0  0
  -23.6114  -29.8198   20.1692 C   0  0  0  0  0  0
  -25.4109  -36.3114   24.0350 C   0  0  1  0  0  0
  -20.5848  -28.3655   23.1344 C   0  0  2  0  0  0
  -20.6767  -26.9401   22.5420 C   0  0  0  0  0  0
  -19.5743  -26.6388   21.5218 C   0  0  0  0  0  0
  -18.1910  -26.7909   22.1616 C   0  0  0  0  0  0
  -19.1508  -28.8823   23.2910 C   0  0  0  0  0  0
  -18.9446  -30.1420   23.8931 C   0  0  0  0  0  0
  -17.6459  -30.6584   24.0568 C   0  0  0  0  0  0
  -25.9037  -34.9479   23.5145 C   0  0  0  0  0  0
  -16.5344  -29.9092   23.6331 C   0  0  0  0  0  0
  -16.7247  -28.6498   23.0365 C   0  0  0  0  0  0
  -26.4478  -31.6577   25.0708 C   0  0  0  0  0  0
  -25.3756  -31.3652   26.1467 C   0  0  0  0  0  0
  -27.0284  -30.3032   24.6020 C   0  0  0  0  0  0
  -27.6100  -32.4247   25.7452 C   0  0  0  0  0  0
  -27.5574  -37.1807   24.8473 C   0  0  0  0  0  0
  -21.4127  -29.3022   22.3763 N   0  0  0  0  0  0
  -26.4293  -37.3803   23.9421 N   0  0  0  0  0  0
  -24.6653  -31.0802   22.1015 N   0  0  0  0  0  0
  -23.4166  -28.8227   23.3094 O   0  0  0  0  0  0
  -28.4062  -26.7365   19.9903 O   0  0  0  0  0  0
  -26.5592  -34.8918   22.4701 O   0  0  0  0  0  0
  -23.5331  -32.1452   23.7516 O   0  0  0  0  0  0
  -29.7694  -19.1938   20.3679 C   0  0  0  0  0  0
  -31.0589  -18.8497   20.7460 C   0  0  0  0  0  0
  -30.0880  -16.8056   20.9996 C   0  0  0  0  0  0
  -29.2453  -20.4175   19.7828 C   0  0  0  0  0  0
  -30.1029  -21.3448   22.7708 C   0  0  0  0  0  0
  -28.5891  -24.4504   20.8567 C   0  0  0  0  0  0
  -29.3670  -23.5721   21.8649 C   0  0  0  0  0  0
  -28.7918  -25.9588   21.1203 C   0  0  0  0  0  0
  -29.2209  -22.0332   21.7163 C   0  0  1  0  0  0
  -31.2168  -17.5103   21.1191 N   0  0  0  0  0  0
  -32.2012  -19.6579   20.7290 N   0  0  0  0  0  0
  -29.9993  -15.4089   21.2410 N   0  0  0  0  0  0
  -29.5209  -21.6270   20.3363 N   0  0  0  0  0  0
  -28.4855  -20.3866   18.2994 S   0  0  0  0  0  0
  -28.7150  -17.7880   20.5264 S   0  0  0  0  0  0
  -31.4698  -12.4179   19.1125 H   0  0  0  0  0  0
  -30.3421  -11.2864   19.7982 H   0  0  0  0  0  0
  -29.7344  -11.8020   17.4190 H   0  0  0  0  0  0
  -29.6629  -13.5074   17.7820 H   0  0  0  0  0  0
  -27.8258  -11.3158   18.8069 H   0  0  0  0  0  0
  -27.3660  -12.6597   17.7914 H   0  0  0  0  0  0
  -27.7177  -14.2553   19.6023 H   0  0  0  0  0  0
  -28.6742  -11.9163   21.3239 H   0  0  0  0  0  0
  -28.4578  -13.5359   21.8942 H   0  0  0  0  0  0
  -25.2760   -9.5685   22.4767 H   0  0  0  0  0  0
  -24.0005   -7.4630   22.7471 H   0  0  0  0  0  0
  -21.0849   -8.8776   19.8943 H   0  0  0  0  0  0
  -22.3711  -10.9678   19.6160 H   0  0  0  0  0  0
  -21.2000   -7.6148   23.9723 H   0  0  0  0  0  0
  -21.1481   -6.0521   25.9080 H   0  0  0  0  0  0
  -22.0600   -2.7615   23.2849 H   0  0  0  0  0  0
  -22.4099  -11.9863   22.4746 H   0  0  0  0  0  0
  -21.1122  -13.1238   22.2596 H   0  0  0  0  0  0
  -24.6723  -15.8444   20.5302 H   0  0  0  0  0  0
  -26.2886  -15.6290   20.0967 H   0  0  0  0  0  0
  -26.7119  -32.5582   23.1179 H   0  0  0  0  0  0
  -25.0033  -33.9785   25.0482 H   0  0  0  0  0  0
  -22.6899  -31.3069   21.4119 H   0  0  0  0  0  0
  -23.3756  -35.9629   23.3290 H   0  0  0  0  0  0
  -24.3588  -36.8951   22.2063 H   0  0  0  0  0  0
  -23.7219  -37.6502   23.6659 H   0  0  0  0  0  0
  -26.0200  -31.5934   20.5803 H   0  0  0  0  0  0
  -26.8192  -30.9081   21.9685 H   0  0  0  0  0  0
  -28.1023  -29.1201   21.1697 H   0  0  0  0  0  0
  -26.0997  -25.9812   19.0020 H   0  0  0  0  0  0
  -23.9868  -27.2839   19.0443 H   0  0  0  0  0  0
  -23.7146  -30.5936   19.4068 H   0  0  0  0  0  0
  -22.7348  -29.2396   19.8762 H   0  0  0  0  0  0
  -25.1271  -36.1986   25.0846 H   0  0  0  0  0  0
  -20.9922  -28.3214   24.1469 H   0  0  0  0  0  0
  -20.5691  -26.2260   23.3600 H   0  0  0  0  0  0
  -21.6631  -26.7464   22.1195 H   0  0  0  0  0  0
  -19.6927  -25.6316   21.1203 H   0  0  0  0  0  0
  -19.6682  -27.3246   20.6788 H   0  0  0  0  0  0
  -17.4187  -26.6667   21.4010 H   0  0  0  0  0  0
  -18.0295  -26.0025   22.8988 H   0  0  0  0  0  0
  -19.7931  -30.7202   24.2328 H   0  0  0  0  0  0
  -17.5022  -31.6272   24.5150 H   0  0  0  0  0  0
  -15.5349  -30.3016   23.7639 H   0  0  0  0  0  0
  -15.8639  -28.0831   22.7092 H   0  0  0  0  0  0
  -24.5948  -30.6981   25.7799 H   0  0  0  0  0  0
  -24.8909  -32.2783   26.4934 H   0  0  0  0  0  0
  -25.8117  -30.8808   27.0212 H   0  0  0  0  0  0
  -26.2774  -29.6782   24.1169 H   0  0  0  0  0  0
  -27.4203  -29.7276   25.4415 H   0  0  0  0  0  0
  -27.8548  -30.4373   23.9033 H   0  0  0  0  0  0
  -27.2817  -33.3639   26.1907 H   0  0  0  0  0  0
  -28.3971  -32.6630   25.0285 H   0  0  0  0  0  0
  -28.0653  -31.8387   26.5444 H   0  0  0  0  0  0
  -28.2604  -38.0084   24.7510 H   0  0  0  0  0  0
  -28.1038  -36.2617   24.6303 H   0  0  0  0  0  0
  -27.2266  -37.1486   25.8864 H   0  0  0  0  0  0
  -20.9279  -29.8733   21.6988 H   0  0  0  0  0  0
  -26.0178  -38.2890   24.1399 H   0  0  0  0  0  0
  -29.9153  -21.7657   23.7589 H   0  0  0  0  0  0
  -31.1623  -21.4855   22.5570 H   0  0  0  0  0  0
  -29.8993  -20.2768   22.8481 H   0  0  0  0  0  0
  -27.5257  -24.2112   20.8893 H   0  0  0  0  0  0
  -28.9269  -24.2265   19.8456 H   0  0  0  0  0  0
  -29.0597  -23.8523   22.8738 H   0  0  0  0  0  0
  -30.4250  -23.8332   21.8062 H   0  0  0  0  0  0
  -29.8520  -26.1556   21.2844 H   0  0  0  0  0  0
  -28.2772  -26.2626   22.0328 H   0  0  0  0  0  0
  -28.1796  -21.7733   21.9191 H   0  0  0  0  0  0
  -32.1441  -20.6550   20.5546 H   0  0  0  0  0  0
  -33.0937  -19.3252   21.0779 H   0  0  0  0  0  0
  -29.1084  -15.0896   21.5870 H   0  0  0  0  0  0
  -29.3918  -22.3816   19.6773 H   0  0  0  0  0  0
  1 25  1  0  0  0
  1 30  2  0  0  0
  1 82  1  0  0  0
  2  3  1  0  0  0
  2 25  1  0  0  0
  2 86  1  0  0  0
  2 87  1  0  0  0
  3  4  1  0  0  0
  3 88  1  0  0  0
  3 89  1  0  0  0
  4  5  1  0  0  0
  4 90  1  0  0  0
  4 91  1  0  0  0
  5  6  1  0  0  0
  5 26  1  0  0  0
  5 92  1  0  0  0
  6 25  1  0  0  0
  6 93  1  0  0  0
  6 94  1  0  0  0
  7  8  2  0  0  0
  7 26  1  0  0  0
  7 29  1  0  0  0
  8  9  1  0  0  0
  8 22  1  0  0  0
  9 10  1  0  0  0
  9 27  2  0  0  0
 10 11  2  0  0  0
 10 15  1  0  0  0
 11 12  1  0  0  0
 11 95  1  0  0  0
 12 13  2  0  0  0
 12 96  1  0  0  0
 13 14  1  0  0  0
 13 31  1  0  0  0
 14 15  2  0  0  0
 14 97  1  0  0  0
 15 98  1  0  0  0
 16 17  2  0  0  0
 16 21  1  0  0  0
 16 31  1  0  0  0
 17 18  1  0  0  0
 17 99  1  0  0  0
 18 19  2  0  0  0
 18100  1  0  0  0
 19 20  1  0  0  0
 19 24  1  0  0  0
 20 21  2  0  0  0
 20101  1  0  0  0
 21 23  1  0  0  0
 22 28  1  0  0  0
 22 32  2  0  0  0
 26 27  1  0  0  0
 28102  1  0  0  0
 28103  1  0  0  0
 29104  1  0  0  0
 29105  1  0  0  0
 33 34  1  0  0  0
 33 66  1  0  0  0
 33 70  2  0  0  0
 34 36  1  0  0  0
 34 59  1  0  0  0
 34106  1  0  0  0
 35 44  2  0  0  0
 35 45  1  0  0  0
 35 68  1  0  0  0
 36 56  1  0  0  0
 36107  1  0  0  0
 37 39  1  0  0  0
 37 47  1  0  0  0
 37 66  1  0  0  0
 37108  1  0  0  0
 38 43  2  0  0  0
 38 46  1  0  0  0
 38 47  1  0  0  0
 39 64  1  0  0  0
 39 67  2  0  0  0
 40 52  1  0  0  0
 40 53  2  0  0  0
 40 58  1  0  0  0
 41109  1  0  0  0
 41110  1  0  0  0
 41111  1  0  0  0
 41 48  1  0  0  0
 42 43  1  0  0  0
 42 66  1  0  0  0
 42112  1  0  0  0
 42113  1  0  0  0
 43 44  1  0  0  0
 44114  1  0  0  0
 45 46  2  0  0  0
 45115  1  0  0  0
 46116  1  0  0  0
 47117  1  0  0  0
 47118  1  0  0  0
 48 56  1  0  0  0
 48 65  1  0  0  0
 48119  1  0  0  0
 49 50  1  0  0  0
 49 53  1  0  0  0
 49 64  1  0  0  0
 49120  1  0  0  0
 50 51  1  0  0  0
 50121  1  0  0  0
 50122  1  0  0  0
 51 52  1  0  0  0
 51123  1  0  0  0
 51124  1  0  0  0
 52125  1  0  0  0
 52126  1  0  0  0
 53 54  1  0  0  0
 54 55  2  0  0  0
 54127  1  0  0  0
 55 57  1  0  0  0
 55128  1  0  0  0
 56 69  2  0  0  0
 57 58  2  0  0  0
 57129  1  0  0  0
 58130  1  0  0  0
 59 60  1  0  0  0
 59 61  1  0  0  0
 59 62  1  0  0  0
 60131  1  0  0  0
 60132  1  0  0  0
 60133  1  0  0  0
 61134  1  0  0  0
 61135  1  0  0  0
 61136  1  0  0  0
 62137  1  0  0  0
 62138  1  0  0  0
 62139  1  0  0  0
 63 65  1  0  0  0
 63140  1  0  0  0
 63141  1  0  0  0
 63142  1  0  0  0
 64143  1  0  0  0
 65144  1  0  0  0
 68 78  1  0  0  0
 71 72  2  0  0  0
 71 74  1  0  0  0
 71 85  1  0  0  0
 72 80  1  0  0  0
 72 81  1  0  0  0
 73 80  2  0  0  0
 73 82  1  0  0  0
 73 85  1  0  0  0
 74 83  1  0  0  0
 74 84  2  0  0  0
 75145  1  0  0  0
 75146  1  0  0  0
 75147  1  0  0  0
 75 79  1  0  0  0
 76 77  1  0  0  0
 76 78  1  0  0  0
 76148  1  0  0  0
 76149  1  0  0  0
 77 79  1  0  0  0
 77150  1  0  0  0
 77151  1  0  0  0
 78152  1  0  0  0
 78153  1  0  0  0
 79 83  1  0  0  0
 79154  1  0  0  0
 81155  1  0  0  0
 81156  1  0  0  0
 82157  1  0  0  0
 83158  1  0  0  0
M  ISO  4   1 100  68 101  78 101  82 100
M  END
> <chiral flag>
0

> <version>
0

> <s_m_source_file>
/data/baiqing/PycharmProjects/Reinvent-master-3.2/result/LINK_invent/BTK/process_docking_weight1_custom_product_contain_oxygen_bond_distance_aromatic_linkinvent_7_9_3/rearranged_h_0188.sdf

> <i_m_source_file_index>
9

> <r_mmod_Potential_Energy-OPLS-2005>
-80.9183883666992

> <r_mmod_Stretch_Energy-OPLS-2005>
35.0907363891602

> <r_mmod_Bend_Energy-OPLS-2005>
120.094215393066

> <r_mmod_Torsional_Energy-OPLS-2005>
307.808044433594

> <r_mmod_Improper_Torsional_Energy-OPLS-2005>
10.6272325515747

> <r_mmod_Van_der_Waal_Energy-OPLS-2005>
122.082221984863

> <r_mmod_Electrostatic_Energy-OPLS-2005>
-443.929962158203

> <r_mmod_Solvation_Energy-OPLS-2005>
-241.801849365234

> <b_mmod_Minimization_Converged-OPLS-2005>
0

> <r_mmod_RMS_Derivative-OPLS-2005>
2.46948575973511

$$$$
10
                    3D
 Structure written by MMmdl.
171179  0  0  1  0            999 V2000
  -30.6999  -14.4404   20.5885 C   0  0  0  0  0  0
  -30.4231  -12.2901   19.4154 C   0  0  0  0  0  0
  -29.4936  -12.5108   18.2036 C   0  0  0  0  0  0
  -28.0120  -12.3797   18.6130 C   0  0  0  0  0  0
  -27.6651  -13.2030   19.8831 C   0  0  2  0  0  0
  -28.7073  -12.9439   20.9945 C   0  0  0  0  0  0
  -25.2586  -13.8132   20.5671 C   0  0  0  0  0  0
  -24.1837  -13.0418   20.9172 C   0  0  0  0  0  0
  -24.6393  -11.6889   20.8736 C   0  0  0  0  0  0
  -23.9057  -10.4281   21.0402 C   0  0  0  0  0  0
  -24.3611   -9.4200   21.9182 C   0  0  0  0  0  0
  -23.6288   -8.2237   22.0753 C   0  0  0  0  0  0
  -22.4270   -8.0276   21.3544 C   0  0  0  0  0  0
  -21.9904   -9.0248   20.4645 C   0  0  0  0  0  0
  -22.7231  -10.2126   20.3053 C   0  0  0  0  0  0
  -21.6849   -6.0734   22.5280 C   0  0  0  0  0  0
  -21.4010   -6.5638   23.8213 C   0  0  0  0  0  0
  -21.3658   -5.6790   24.9175 C   0  0  0  0  0  0
  -21.6044   -4.3054   24.7225 C   0  0  0  0  0  0
  -21.8819   -3.8146   23.4346 C   0  0  0  0  0  0
  -21.9191   -4.6962   22.3403 C   0  0  0  0  0  0
  -22.7863  -13.5227   21.1841 C   0  0  0  0  0  0
  -22.1661   -4.2150   21.0980 F   0  0  0  0  0  0
  -21.5630   -3.4538   25.7739 F   0  0  0  0  0  0
  -30.0371  -13.2595   20.4520 N   0  0  0  0  0  0
  -26.3040  -12.9309   20.3403 N   0  0  0  0  0  0
  -25.9324  -11.6470   20.5781 N   0  0  0  0  0  0
  -22.0504  -12.8222   22.0400 N   0  0  0  0  0  0
  -25.4280  -15.1837   20.4046 N   0  0  0  0  0  0
  -31.8236  -14.6123   20.1015 O   0  0  0  0  0  0
  -21.6634   -6.8875   21.4242 O   0  0  0  0  0  0
  -22.3552  -14.5540   20.6697 O   0  0  0  0  0  0
  -24.6109  -31.8698   23.2108 C   0  0  0  0  0  0
  -25.9013  -32.4833   23.8399 C   0  0  1  0  0  0
  -27.2392  -27.4579   20.0945 C   0  0  0  0  0  0
  -25.5878  -33.8632   24.2334 N   0  0  0  0  0  0
  -23.3977  -30.4913   21.5515 C   0  0  2  0  0  0
  -24.8439  -28.9550   20.1200 C   0  0  0  0  0  0
  -22.7390  -29.4661   22.5012 C   0  0  0  0  0  0
  -18.0266  -28.1372   22.8495 C   0  0  0  0  0  0
  -24.1483  -36.7320   23.2639 C   0  0  0  0  0  0
  -25.9227  -30.8431   21.3582 C   0  0  0  0  0  0
  -26.0018  -29.4777   20.7086 C   0  0  0  0  0  0
  -27.2026  -28.7378   20.6873 C   0  0  0  0  0  0
  -26.0635  -26.9378   19.5094 C   0  0  0  0  0  0
  -24.8684  -27.6834   19.5193 C   0  0  0  0  0  0
  -23.6042  -29.8190   20.1676 C   0  0  0  0  0  0
  -25.4104  -36.3120   24.0341 C   0  0  1  0  0  0
  -20.5853  -28.3652   23.1335 C   0  0  2  0  0  0
  -20.6757  -26.9394   22.5422 C   0  0  0  0  0  0
  -19.5736  -26.6382   21.5215 C   0  0  0  0  0  0
  -18.1913  -26.7919   22.1625 C   0  0  0  0  0  0
  -19.1515  -28.8828   23.2912 C   0  0  0  0  0  0
  -18.9447  -30.1437   23.8918 C   0  0  0  0  0  0
  -17.6453  -30.6583   24.0564 C   0  0  0  0  0  0
  -25.9031  -34.9483   23.5137 C   0  0  0  0  0  0
  -16.5342  -29.9087   23.6324 C   0  0  0  0  0  0
  -16.7258  -28.6503   23.0347 C   0  0  0  0  0  0
  -26.4450  -31.6606   25.0717 C   0  0  0  0  0  0
  -25.3722  -31.3708   26.1473 C   0  0  0  0  0  0
  -27.0279  -30.3057   24.6064 C   0  0  0  0  0  0
  -27.6033  -32.4319   25.7476 C   0  0  0  0  0  0
  -27.5581  -37.1813   24.8465 C   0  0  0  0  0  0
  -21.4121  -29.3025   22.3752 N   0  0  0  0  0  0
  -26.4295  -37.3800   23.9410 N   0  0  0  0  0  0
  -24.6621  -31.0816   22.0995 N   0  0  0  0  0  0
  -23.4176  -28.8209   23.3047 O   0  0  0  0  0  0
  -28.4348  -26.7776   20.0686 O   0  0  0  0  0  0
  -26.5596  -34.8929   22.4699 O   0  0  0  0  0  0
  -23.5309  -32.1438   23.7520 O   0  0  0  0  0  0
  -27.3800  -19.6876   21.2679 C   0  0  0  0  0  0
  -28.6294  -20.2411   21.3882 C   0  0  0  0  0  0
  -29.6840  -19.3071   21.0936 C   0  0  0  0  0  0
  -29.2205  -18.0695   20.7074 C   0  0  0  0  0  0
  -31.8306  -20.4120   21.8073 C   0  0  0  0  0  0
  -28.0455  -22.6211   21.9351 C   0  0  0  0  0  0
  -33.8263  -21.7159   20.9754 C   0  0  0  0  0  0
  -34.1069  -20.0051   22.8298 C   0  0  0  0  0  0
  -29.9874  -16.8617   20.2410 C   0  0  0  0  0  0
  -28.1374  -25.2098   21.9189 C   0  0  0  0  0  0
  -28.4338  -25.3905   20.4149 C   0  0  0  0  0  0
  -30.0143  -15.6728   21.2298 C   0  0  2  0  0  0
  -33.3423  -20.3722   21.5465 C   0  0  0  0  0  0
  -28.6586  -23.8889   22.5486 C   0  0  1  0  0  0
  -28.8825  -21.5816   21.7777 N   0  0  0  0  0  0
  -31.0844  -19.5679   21.0777 N   0  0  0  0  0  0
  -28.3905  -23.8677   23.9961 N   0  3  0  0  0  0
  -31.3821  -21.2015   22.6425 O   0  0  0  0  0  0
  -26.8441  -22.5952   21.6564 O   0  0  0  0  0  0
  -30.6960  -16.0283   22.3229 F   0  0  0  0  0  0
  -27.4736  -18.0239   20.7606 S   0  0  0  0  0  0
  -31.4678  -12.3849   19.1142 H   0  0  0  0  0  0
  -30.3202  -11.2726   19.7961 H   0  0  0  0  0  0
  -29.7269  -11.7944   17.4149 H   0  0  0  0  0  0
  -29.6710  -13.5003   17.7791 H   0  0  0  0  0  0
  -27.8106  -11.3227   18.7913 H   0  0  0  0  0  0
  -27.3649  -12.6748   17.7859 H   0  0  0  0  0  0
  -27.7192  -14.2567   19.6088 H   0  0  0  0  0  0
  -28.6804  -11.8929   21.2870 H   0  0  0  0  0  0
  -28.4734  -13.4840   21.9105 H   0  0  0  0  0  0
  -25.2757   -9.5676   22.4754 H   0  0  0  0  0  0
  -23.9998   -7.4627   22.7470 H   0  0  0  0  0  0
  -21.0836   -8.8763   19.8951 H   0  0  0  0  0  0
  -22.3690  -10.9665   19.6161 H   0  0  0  0  0  0
  -21.2001   -7.6145   23.9716 H   0  0  0  0  0  0
  -21.1480   -6.0521   25.9078 H   0  0  0  0  0  0
  -22.0600   -2.7609   23.2846 H   0  0  0  0  0  0
  -22.4115  -11.9878   22.4781 H   0  0  0  0  0  0
  -21.1127  -13.1255   22.2618 H   0  0  0  0  0  0
  -24.6582  -15.8354   20.5087 H   0  0  0  0  0  0
  -26.2785  -15.6252   20.0811 H   0  0  0  0  0  0
  -26.7088  -32.5558   23.1172 H   0  0  0  0  0  0
  -25.0016  -33.9799   25.0468 H   0  0  0  0  0  0
  -22.6850  -31.3067   21.4114 H   0  0  0  0  0  0
  -23.3744  -35.9656   23.3315 H   0  0  0  0  0  0
  -24.3575  -36.8923   22.2051 H   0  0  0  0  0  0
  -23.7238  -37.6531   23.6645 H   0  0  0  0  0  0
  -26.0272  -31.6094   20.5888 H   0  0  0  0  0  0
  -26.8132  -30.9002   21.9726 H   0  0  0  0  0  0
  -28.1020  -29.1431   21.1297 H   0  0  0  0  0  0
  -26.0644  -25.9722   19.0253 H   0  0  0  0  0  0
  -23.9777  -27.2762   19.0607 H   0  0  0  0  0  0
  -23.7085  -30.5912   19.4045 H   0  0  0  0  0  0
  -22.7293  -29.2351   19.8756 H   0  0  0  0  0  0
  -25.1278  -36.1993   25.0836 H   0  0  0  0  0  0
  -20.9943  -28.3213   24.1458 H   0  0  0  0  0  0
  -20.5664  -26.2255   23.3602 H   0  0  0  0  0  0
  -21.6627  -26.7443   22.1210 H   0  0  0  0  0  0
  -19.6898  -25.6298   21.1233 H   0  0  0  0  0  0
  -19.6680  -27.3201   20.6754 H   0  0  0  0  0  0
  -17.4182  -26.6673   21.4026 H   0  0  0  0  0  0
  -18.0312  -26.0054   22.9015 H   0  0  0  0  0  0
  -19.7926  -30.7244   24.2298 H   0  0  0  0  0  0
  -17.5009  -31.6268   24.5156 H   0  0  0  0  0  0
  -15.5344  -30.2996   23.7639 H   0  0  0  0  0  0
  -15.8656  -28.0833   22.7051 H   0  0  0  0  0  0
  -24.5878  -30.7078   25.7808 H   0  0  0  0  0  0
  -24.8928  -32.2864   26.4949 H   0  0  0  0  0  0
  -25.8069  -30.8851   27.0218 H   0  0  0  0  0  0
  -26.2817  -29.6833   24.1111 H   0  0  0  0  0  0
  -27.4063  -29.7278   25.4507 H   0  0  0  0  0  0
  -27.8642  -30.4399   23.9198 H   0  0  0  0  0  0
  -27.2655  -33.3601   26.2098 H   0  0  0  0  0  0
  -28.3814  -32.6912   25.0284 H   0  0  0  0  0  0
  -28.0730  -31.8415   26.5353 H   0  0  0  0  0  0
  -28.2606  -38.0104   24.7513 H   0  0  0  0  0  0
  -28.1072  -36.2638   24.6291 H   0  0  0  0  0  0
  -27.2299  -37.1465   25.8868 H   0  0  0  0  0  0
  -20.9273  -29.8749   21.6983 H   0  0  0  0  0  0
  -26.0192  -38.2884   24.1404 H   0  0  0  0  0  0
  -26.4095  -20.1387   21.4340 H   0  0  0  0  0  0
  -33.2835  -21.9782   20.0661 H   0  0  0  0  0  0
  -34.8858  -21.6748   20.7219 H   0  0  0  0  0  0
  -33.6882  -22.5290   21.6895 H   0  0  0  0  0  0
  -33.7560  -19.0582   23.2427 H   0  0  0  0  0  0
  -33.9856  -20.7673   23.6007 H   0  0  0  0  0  0
  -35.1741  -19.9003   22.6333 H   0  0  0  0  0  0
  -31.0084  -17.1436   19.9839 H   0  0  0  0  0  0
  -29.5449  -16.5230   19.3027 H   0  0  0  0  0  0
  -27.0655  -25.3210   22.0884 H   0  0  0  0  0  0
  -28.6082  -26.0378   22.4499 H   0  0  0  0  0  0
  -27.7567  -24.8019   19.7958 H   0  0  0  0  0  0
  -29.4359  -25.0201   20.1960 H   0  0  0  0  0  0
  -28.9981  -15.4703   21.5528 H   0  0  0  0  0  0
  -33.5466  -19.5989   20.8038 H   0  0  0  0  0  0
  -29.7417  -23.8532   22.4139 H   0  0  0  0  0  0
  -29.8560  -21.7395   22.0383 H   0  0  0  0  0  0
  -31.6237  -18.9533   20.4869 H   0  0  0  0  0  0
  -27.3988  -23.8612   24.1572 H   0  0  0  0  0  0
  -28.7998  -24.6597   24.4568 H   0  0  0  0  0  0
  -28.7739  -23.0304   24.3978 H   0  0  0  0  0  0
  1 25  1  0  0  0
  1 30  2  0  0  0
  1 82  1  0  0  0
  2  3  1  0  0  0
  2 25  1  0  0  0
  2 92  1  0  0  0
  2 93  1  0  0  0
  3  4  1  0  0  0
  3 94  1  0  0  0
  3 95  1  0  0  0
  4  5  1  0  0  0
  4 96  1  0  0  0
  4 97  1  0  0  0
  5  6  1  0  0  0
  5 26  1  0  0  0
  5 98  1  0  0  0
  6 25  1  0  0  0
  6 99  1  0  0  0
  6100  1  0  0  0
  7  8  2  0  0  0
  7 26  1  0  0  0
  7 29  1  0  0  0
  8  9  1  0  0  0
  8 22  1  0  0  0
  9 10  1  0  0  0
  9 27  2  0  0  0
 10 11  2  0  0  0
 10 15  1  0  0  0
 11 12  1  0  0  0
 11101  1  0  0  0
 12 13  2  0  0  0
 12102  1  0  0  0
 13 14  1  0  0  0
 13 31  1  0  0  0
 14 15  2  0  0  0
 14103  1  0  0  0
 15104  1  0  0  0
 16 17  2  0  0  0
 16 21  1  0  0  0
 16 31  1  0  0  0
 17 18  1  0  0  0
 17105  1  0  0  0
 18 19  2  0  0  0
 18106  1  0  0  0
 19 20  1  0  0  0
 19 24  1  0  0  0
 20 21  2  0  0  0
 20107  1  0  0  0
 21 23  1  0  0  0
 22 28  1  0  0  0
 22 32  2  0  0  0
 26 27  1  0  0  0
 28108  1  0  0  0
 28109  1  0  0  0
 29110  1  0  0  0
 29111  1  0  0  0
 33 34  1  0  0  0
 33 66  1  0  0  0
 33 70  2  0  0  0
 34 36  1  0  0  0
 34 59  1  0  0  0
 34112  1  0  0  0
 35 44  2  0  0  0
 35 45  1  0  0  0
 35 68  1  0  0  0
 36 56  1  0  0  0
 36113  1  0  0  0
 37 39  1  0  0  0
 37 47  1  0  0  0
 37 66  1  0  0  0
 37114  1  0  0  0
 38 43  2  0  0  0
 38 46  1  0  0  0
 38 47  1  0  0  0
 39 64  1  0  0  0
 39 67  2  0  0  0
 40 52  1  0  0  0
 40 53  2  0  0  0
 40 58  1  0  0  0
 41115  1  0  0  0
 41116  1  0  0  0
 41117  1  0  0  0
 41 48  1  0  0  0
 42 43  1  0  0  0
 42 66  1  0  0  0
 42118  1  0  0  0
 42119  1  0  0  0
 43 44  1  0  0  0
 44120  1  0  0  0
 45 46  2  0  0  0
 45121  1  0  0  0
 46122  1  0  0  0
 47123  1  0  0  0
 47124  1  0  0  0
 48 56  1  0  0  0
 48 65  1  0  0  0
 48125  1  0  0  0
 49 50  1  0  0  0
 49 53  1  0  0  0
 49 64  1  0  0  0
 49126  1  0  0  0
 50 51  1  0  0  0
 50127  1  0  0  0
 50128  1  0  0  0
 51 52  1  0  0  0
 51129  1  0  0  0
 51130  1  0  0  0
 52131  1  0  0  0
 52132  1  0  0  0
 53 54  1  0  0  0
 54 55  2  0  0  0
 54133  1  0  0  0
 55 57  1  0  0  0
 55134  1  0  0  0
 56 69  2  0  0  0
 57 58  2  0  0  0
 57135  1  0  0  0
 58136  1  0  0  0
 59 60  1  0  0  0
 59 61  1  0  0  0
 59 62  1  0  0  0
 60137  1  0  0  0
 60138  1  0  0  0
 60139  1  0  0  0
 61140  1  0  0  0
 61141  1  0  0  0
 61142  1  0  0  0
 62143  1  0  0  0
 62144  1  0  0  0
 62145  1  0  0  0
 63 65  1  0  0  0
 63146  1  0  0  0
 63147  1  0  0  0
 63148  1  0  0  0
 64149  1  0  0  0
 65150  1  0  0  0
 68 81  1  0  0  0
 71 72  2  0  0  0
 71 91  1  0  0  0
 71151  1  0  0  0
 72 73  1  0  0  0
 72 85  1  0  0  0
 73 74  2  0  0  0
 73 86  1  0  0  0
 74 79  1  0  0  0
 74 91  1  0  0  0
 75 83  1  0  0  0
 75 86  1  0  0  0
 75 88  2  0  0  0
 76 84  1  0  0  0
 76 85  1  0  0  0
 76 89  2  0  0  0
 77152  1  0  0  0
 77153  1  0  0  0
 77154  1  0  0  0
 77 83  1  0  0  0
 78 83  1  0  0  0
 78155  1  0  0  0
 78156  1  0  0  0
 78157  1  0  0  0
 79 82  1  0  0  0
 79158  1  0  0  0
 79159  1  0  0  0
 80 81  1  0  0  0
 80 84  1  0  0  0
 80160  1  0  0  0
 80161  1  0  0  0
 81162  1  0  0  0
 81163  1  0  0  0
 82 90  1  0  0  0
 82164  1  0  0  0
 83165  1  0  0  0
 84 87  1  0  0  0
 84166  1  0  0  0
 85167  1  0  0  0
 86168  1  0  0  0
 87169  1  0  0  0
 87170  1  0  0  0
 87171  1  0  0  0
M  CHG  1  87   1
M  ISO  4   1 100  68 101  81 101  82 100
M  END
> <chiral flag>
0

> <version>
0

> <s_m_source_file>
/data/baiqing/PycharmProjects/Reinvent-master-3.2/result/LINK_invent/BTK/process_docking_weight1_custom_product_contain_oxygen_bond_distance_aromatic_linkinvent_7_9_3/rearranged_h_0188.sdf

> <i_m_source_file_index>
10

> <r_mmod_Potential_Energy-OPLS-2005>
-532.048706054688

> <r_mmod_Stretch_Energy-OPLS-2005>
34.8846054077148

> <r_mmod_Bend_Energy-OPLS-2005>
123.67236328125

> <r_mmod_Torsional_Energy-OPLS-2005>
207.165252685547

> <r_mmod_Improper_Torsional_Energy-OPLS-2005>
3.68705534934998

> <r_mmod_Van_der_Waal_Energy-OPLS-2005>
135.422576904297

> <r_mmod_Electrostatic_Energy-OPLS-2005>
-576.734008789062

> <r_mmod_Solvation_Energy-OPLS-2005>
-469.937225341797

> <b_mmod_Minimization_Converged-OPLS-2005>
0

> <r_mmod_RMS_Derivative-OPLS-2005>
0.443790584802628

$$$$
11
                    3D
 Structure written by MMmdl.
152160  0  0  1  0            999 V2000
  -30.5951  -14.6713   20.5005 C   0  0  0  0  0  0
  -30.4452  -12.4121   19.4546 C   0  0  0  0  0  0
  -29.5120  -12.5157   18.2262 C   0  0  0  0  0  0
  -28.0350  -12.3436   18.6362 C   0  0  0  0  0  0
  -27.6531  -13.2142   19.8624 C   0  0  2  0  0  0
  -28.6976  -13.0702   20.9927 C   0  0  0  0  0  0
  -25.2566  -13.8160   20.5679 C   0  0  0  0  0  0
  -24.1826  -13.0430   20.9176 C   0  0  0  0  0  0
  -24.6389  -11.6899   20.8723 C   0  0  0  0  0  0
  -23.9055  -10.4287   21.0395 C   0  0  0  0  0  0
  -24.3611   -9.4206   21.9174 C   0  0  0  0  0  0
  -23.6290   -8.2241   22.0749 C   0  0  0  0  0  0
  -22.4272   -8.0274   21.3540 C   0  0  0  0  0  0
  -21.9903   -9.0244   20.4641 C   0  0  0  0  0  0
  -22.7227  -10.2124   20.3046 C   0  0  0  0  0  0
  -21.6852   -6.0733   22.5279 C   0  0  0  0  0  0
  -21.4014   -6.5638   23.8213 C   0  0  0  0  0  0
  -21.3662   -5.6790   24.9175 C   0  0  0  0  0  0
  -21.6045   -4.3053   24.7226 C   0  0  0  0  0  0
  -21.8819   -3.8145   23.4347 C   0  0  0  0  0  0
  -21.9192   -4.6961   22.3403 C   0  0  0  0  0  0
  -22.7852  -13.5228   21.1851 C   0  0  0  0  0  0
  -22.1661   -4.2149   21.0981 F   0  0  0  0  0  0
  -21.5631   -3.4536   25.7738 F   0  0  0  0  0  0
  -30.0109  -13.4302   20.4333 N   0  0  0  0  0  0
  -26.2987  -12.9331   20.3307 N   0  0  0  0  0  0
  -25.9316  -11.6490   20.5741 N   0  0  0  0  0  0
  -22.0492  -12.8219   22.0406 N   0  0  0  0  0  0
  -25.4282  -15.1886   20.4126 N   0  0  0  0  0  0
  -31.7560  -14.8489   20.1175 O   0  0  0  0  0  0
  -21.6636   -6.8872   21.4239 O   0  0  0  0  0  0
  -22.3537  -14.5536   20.6703 O   0  0  0  0  0  0
  -24.6271  -31.8596   23.2022 C   0  0  0  0  0  0
  -25.9108  -32.4787   23.8357 C   0  0  1  0  0  0
  -27.2236  -27.3070   20.1251 C   0  0  0  0  0  0
  -25.5922  -33.8586   24.2286 N   0  0  0  0  0  0
  -23.4221  -30.4823   21.5454 C   0  0  2  0  0  0
  -24.8696  -28.9361   20.1132 C   0  0  0  0  0  0
  -22.7481  -29.4620   22.4941 C   0  0  0  0  0  0
  -18.0288  -28.1375   22.8489 C   0  0  0  0  0  0
  -24.1484  -36.7288   23.2645 C   0  0  0  0  0  0
  -25.9647  -30.7865   21.3765 C   0  0  0  0  0  0
  -26.0394  -29.4126   20.7194 C   0  0  0  0  0  0
  -27.2210  -28.6103   20.7149 C   0  0  0  0  0  0
  -26.0366  -26.8956   19.4793 C   0  0  0  0  0  0
  -24.8705  -27.6829   19.4833 C   0  0  0  0  0  0
  -23.6378  -29.8165   20.1616 C   0  0  0  0  0  0
  -25.4112  -36.3096   24.0339 C   0  0  1  0  0  0
  -20.5888  -28.3680   23.1281 C   0  0  2  0  0  0
  -20.6772  -26.9401   22.5407 C   0  0  0  0  0  0
  -19.5753  -26.6377   21.5207 C   0  0  0  0  0  0
  -18.1932  -26.7922   22.1617 C   0  0  0  0  0  0
  -19.1539  -28.8845   23.2883 C   0  0  0  0  0  0
  -18.9463  -30.1449   23.8899 C   0  0  0  0  0  0
  -17.6462  -30.6584   24.0560 C   0  0  0  0  0  0
  -25.9046  -34.9463   23.5113 C   0  0  0  0  0  0
  -16.5354  -29.9079   23.6329 C   0  0  0  0  0  0
  -16.7273  -28.6492   23.0358 C   0  0  0  0  0  0
  -26.4485  -31.6603   25.0736 C   0  0  0  0  0  0
  -25.3714  -31.3734   26.1462 C   0  0  0  0  0  0
  -27.0335  -30.3032   24.6193 C   0  0  0  0  0  0
  -27.6044  -32.4342   25.7505 C   0  0  0  0  0  0
  -27.5579  -37.1806   24.8471 C   0  0  0  0  0  0
  -21.4194  -29.3040   22.3682 N   0  0  0  0  0  0
  -26.4295  -37.3785   23.9410 N   0  0  0  0  0  0
  -24.6902  -31.0591   22.0980 N   0  0  0  0  0  0
  -23.4198  -28.8163   23.3030 O   0  0  0  0  0  0
  -28.3302  -26.4397   20.1548 O   0  0  0  0  0  0
  -26.5617  -34.8930   22.4680 O   0  0  0  0  0  0
  -23.5430  -32.1399   23.7335 O   0  0  0  0  0  0
  -30.9163  -17.9090   20.3083 C   0  0  0  0  0  0
  -28.6286  -19.2336   20.8628 C   0  0  0  0  0  0
  -29.7764  -17.1533   20.7164 C   0  0  0  0  0  0
  -29.7736  -19.9791   20.4651 C   0  0  0  0  0  0
  -28.7516  -22.3260   22.2557 C   0  0  0  0  0  0
  -29.1485  -23.8725   20.2303 C   0  0  0  0  0  0
  -28.0815  -25.0231   20.5479 C   0  0  0  0  0  0
  -28.8564  -22.3640   20.7195 C   0  0  2  0  0  0
  -28.6383  -17.8655   20.9874 N   0  0  0  0  0  0
  -30.9135  -19.2792   20.1858 N   0  0  0  0  0  0
  -29.7544  -15.6956   20.8637 N   0  0  0  0  0  0
  -29.8819  -21.3856   20.3115 O   0  0  0  0  0  0
  -31.4844  -12.5520   19.1518 H   0  0  0  0  0  0
  -30.3927  -11.4150   19.8953 H   0  0  0  0  0  0
  -29.7828  -11.7679   17.4795 H   0  0  0  0  0  0
  -29.6459  -13.4868   17.7471 H   0  0  0  0  0  0
  -27.8774  -11.2899   18.8686 H   0  0  0  0  0  0
  -27.3799  -12.5690   17.7938 H   0  0  0  0  0  0
  -27.6687  -14.2485   19.5190 H   0  0  0  0  0  0
  -28.7172  -12.0454   21.3660 H   0  0  0  0  0  0
  -28.4353  -13.6905   21.8510 H   0  0  0  0  0  0
  -25.2756   -9.5688   22.4748 H   0  0  0  0  0  0
  -24.0002   -7.4634   22.7468 H   0  0  0  0  0  0
  -21.0834   -8.8753   19.8951 H   0  0  0  0  0  0
  -22.3676  -10.9658   19.6155 H   0  0  0  0  0  0
  -21.2003   -7.6145   23.9717 H   0  0  0  0  0  0
  -21.1488   -6.0520   25.9079 H   0  0  0  0  0  0
  -22.0597   -2.7607   23.2845 H   0  0  0  0  0  0
  -22.4101  -11.9877   22.4797 H   0  0  0  0  0  0
  -21.1110  -13.1243   22.2604 H   0  0  0  0  0  0
  -24.6628  -15.8432   20.5329 H   0  0  0  0  0  0
  -26.2825  -15.6369   20.1056 H   0  0  0  0  0  0
  -26.7182  -32.5456   23.1114 H   0  0  0  0  0  0
  -25.0088  -33.9731   25.0445 H   0  0  0  0  0  0
  -22.7178  -31.3043   21.4010 H   0  0  0  0  0  0
  -23.3757  -35.9610   23.3322 H   0  0  0  0  0  0
  -24.3574  -36.8890   22.2056 H   0  0  0  0  0  0
  -23.7225  -37.6492   23.6648 H   0  0  0  0  0  0
  -26.0987  -31.5500   20.6088 H   0  0  0  0  0  0
  -26.8439  -30.8351   22.0072 H   0  0  0  0  0  0
  -28.1182  -28.9708   21.1981 H   0  0  0  0  0  0
  -25.9920  -25.9506   18.9595 H   0  0  0  0  0  0
  -23.9773  -27.3154   18.9966 H   0  0  0  0  0  0
  -23.7598  -30.5924   19.4050 H   0  0  0  0  0  0
  -22.7574  -29.2468   19.8579 H   0  0  0  0  0  0
  -25.1296  -36.1953   25.0833 H   0  0  0  0  0  0
  -20.9984  -28.3242   24.1400 H   0  0  0  0  0  0
  -20.5649  -26.2290   23.3607 H   0  0  0  0  0  0
  -21.6643  -26.7419   22.1217 H   0  0  0  0  0  0
  -19.6909  -25.6287   21.1238 H   0  0  0  0  0  0
  -19.6685  -27.3188   20.6738 H   0  0  0  0  0  0
  -17.4199  -26.6677   21.4021 H   0  0  0  0  0  0
  -18.0329  -26.0056   22.9005 H   0  0  0  0  0  0
  -19.7937  -30.7262   24.2269 H   0  0  0  0  0  0
  -17.5018  -31.6264   24.5156 H   0  0  0  0  0  0
  -15.5354  -30.2983   23.7647 H   0  0  0  0  0  0
  -15.8676  -28.0807   22.7082 H   0  0  0  0  0  0
  -24.5896  -30.7077   25.7788 H   0  0  0  0  0  0
  -24.8894  -32.2893   26.4887 H   0  0  0  0  0  0
  -25.8039  -30.8916   27.0239 H   0  0  0  0  0  0
  -26.2909  -29.6779   24.1226 H   0  0  0  0  0  0
  -27.4052  -29.7298   25.4693 H   0  0  0  0  0  0
  -27.8767  -30.4337   23.9408 H   0  0  0  0  0  0
  -27.2660  -33.3652   26.2063 H   0  0  0  0  0  0
  -28.3855  -32.6886   25.0329 H   0  0  0  0  0  0
  -28.0706  -31.8480   26.5434 H   0  0  0  0  0  0
  -28.2619  -38.0085   24.7517 H   0  0  0  0  0  0
  -28.1061  -36.2621   24.6307 H   0  0  0  0  0  0
  -27.2302  -37.1470   25.8878 H   0  0  0  0  0  0
  -20.9366  -29.8777   21.6911 H   0  0  0  0  0  0
  -26.0186  -38.2867   24.1398 H   0  0  0  0  0  0
  -31.8531  -17.4231   20.0809 H   0  0  0  0  0  0
  -27.6936  -19.7271   21.0834 H   0  0  0  0  0  0
  -28.5148  -21.3332   22.6343 H   0  0  0  0  0  0
  -27.9666  -22.9883   22.6192 H   0  0  0  0  0  0
  -29.6876  -22.6391   22.7195 H   0  0  0  0  0  0
  -30.1105  -24.1831   20.6382 H   0  0  0  0  0  0
  -29.2910  -23.8491   19.1500 H   0  0  0  0  0  0
  -27.9302  -25.0521   21.6269 H   0  0  0  0  0  0
  -27.1369  -24.6609   20.1487 H   0  0  0  0  0  0
  -27.9054  -22.0471   20.2888 H   0  0  0  0  0  0
  -28.8657  -15.3475   21.1835 H   0  0  0  0  0  0
  1 25  1  0  0  0
  1 30  2  0  0  0
  1 81  1  0  0  0
  2  3  1  0  0  0
  2 25  1  0  0  0
  2 83  1  0  0  0
  2 84  1  0  0  0
  3  4  1  0  0  0
  3 85  1  0  0  0
  3 86  1  0  0  0
  4  5  1  0  0  0
  4 87  1  0  0  0
  4 88  1  0  0  0
  5  6  1  0  0  0
  5 26  1  0  0  0
  5 89  1  0  0  0
  6 25  1  0  0  0
  6 90  1  0  0  0
  6 91  1  0  0  0
  7  8  2  0  0  0
  7 26  1  0  0  0
  7 29  1  0  0  0
  8  9  1  0  0  0
  8 22  1  0  0  0
  9 10  1  0  0  0
  9 27  2  0  0  0
 10 11  2  0  0  0
 10 15  1  0  0  0
 11 12  1  0  0  0
 11 92  1  0  0  0
 12 13  2  0  0  0
 12 93  1  0  0  0
 13 14  1  0  0  0
 13 31  1  0  0  0
 14 15  2  0  0  0
 14 94  1  0  0  0
 15 95  1  0  0  0
 16 17  2  0  0  0
 16 21  1  0  0  0
 16 31  1  0  0  0
 17 18  1  0  0  0
 17 96  1  0  0  0
 18 19  2  0  0  0
 18 97  1  0  0  0
 19 20  1  0  0  0
 19 24  1  0  0  0
 20 21  2  0  0  0
 20 98  1  0  0  0
 21 23  1  0  0  0
 22 28  1  0  0  0
 22 32  2  0  0  0
 26 27  1  0  0  0
 28 99  1  0  0  0
 28100  1  0  0  0
 29101  1  0  0  0
 29102  1  0  0  0
 33 34  1  0  0  0
 33 66  1  0  0  0
 33 70  2  0  0  0
 34 36  1  0  0  0
 34 59  1  0  0  0
 34103  1  0  0  0
 35 44  2  0  0  0
 35 45  1  0  0  0
 35 68  1  0  0  0
 36 56  1  0  0  0
 36104  1  0  0  0
 37 39  1  0  0  0
 37 47  1  0  0  0
 37 66  1  0  0  0
 37105  1  0  0  0
 38 43  2  0  0  0
 38 46  1  0  0  0
 38 47  1  0  0  0
 39 64  1  0  0  0
 39 67  2  0  0  0
 40 52  1  0  0  0
 40 53  2  0  0  0
 40 58  1  0  0  0
 41106  1  0  0  0
 41107  1  0  0  0
 41108  1  0  0  0
 41 48  1  0  0  0
 42 43  1  0  0  0
 42 66  1  0  0  0
 42109  1  0  0  0
 42110  1  0  0  0
 43 44  1  0  0  0
 44111  1  0  0  0
 45 46  2  0  0  0
 45112  1  0  0  0
 46113  1  0  0  0
 47114  1  0  0  0
 47115  1  0  0  0
 48 56  1  0  0  0
 48 65  1  0  0  0
 48116  1  0  0  0
 49 50  1  0  0  0
 49 53  1  0  0  0
 49 64  1  0  0  0
 49117  1  0  0  0
 50 51  1  0  0  0
 50118  1  0  0  0
 50119  1  0  0  0
 51 52  1  0  0  0
 51120  1  0  0  0
 51121  1  0  0  0
 52122  1  0  0  0
 52123  1  0  0  0
 53 54  1  0  0  0
 54 55  2  0  0  0
 54124  1  0  0  0
 55 57  1  0  0  0
 55125  1  0  0  0
 56 69  2  0  0  0
 57 58  2  0  0  0
 57126  1  0  0  0
 58127  1  0  0  0
 59 60  1  0  0  0
 59 61  1  0  0  0
 59 62  1  0  0  0
 60128  1  0  0  0
 60129  1  0  0  0
 60130  1  0  0  0
 61131  1  0  0  0
 61132  1  0  0  0
 61133  1  0  0  0
 62134  1  0  0  0
 62135  1  0  0  0
 62136  1  0  0  0
 63 65  1  0  0  0
 63137  1  0  0  0
 63138  1  0  0  0
 63139  1  0  0  0
 64140  1  0  0  0
 65141  1  0  0  0
 68 77  1  0  0  0
 71 73  2  0  0  0
 71 80  1  0  0  0
 71142  1  0  0  0
 72 74  1  0  0  0
 72 79  2  0  0  0
 72143  1  0  0  0
 73 79  1  0  0  0
 73 81  1  0  0  0
 74 80  2  0  0  0
 74 82  1  0  0  0
 75144  1  0  0  0
 75145  1  0  0  0
 75146  1  0  0  0
 75 78  1  0  0  0
 76 77  1  0  0  0
 76 78  1  0  0  0
 76147  1  0  0  0
 76148  1  0  0  0
 77149  1  0  0  0
 77150  1  0  0  0
 78 82  1  0  0  0
 78151  1  0  0  0
 81152  1  0  0  0
M  ISO  4   1 100  68 101  77 101  81 100
M  END
> <chiral flag>
0

> <version>
0

> <s_m_source_file>
/data/baiqing/PycharmProjects/Reinvent-master-3.2/result/LINK_invent/BTK/process_docking_weight1_custom_product_contain_oxygen_bond_distance_aromatic_linkinvent_7_9_3/rearranged_h_0188.sdf

> <i_m_source_file_index>
11

> <r_mmod_Potential_Energy-OPLS-2005>
106.67578125

> <r_mmod_Stretch_Energy-OPLS-2005>
92.4712448120117

> <r_mmod_Bend_Energy-OPLS-2005>
161.86540222168

> <r_mmod_Torsional_Energy-OPLS-2005>
218.600311279297

> <r_mmod_Improper_Torsional_Energy-OPLS-2005>
3.78664994239807

> <r_mmod_Van_der_Waal_Energy-OPLS-2005>
146.517364501953

> <r_mmod_Electrostatic_Energy-OPLS-2005>
-358.164276123047

> <r_mmod_Solvation_Energy-OPLS-2005>
-215.295867919922

> <b_mmod_Minimization_Converged-OPLS-2005>
0

> <r_mmod_RMS_Derivative-OPLS-2005>
0.838441371917725

$$$$
12
                    3D
 Structure written by MMmdl.
161169  0  0  1  0            999 V2000
  -30.4859  -14.9469   20.4218 C   0  0  0  0  0  0
  -30.4501  -12.5838   19.4940 C   0  0  0  0  0  0
  -29.5305  -12.5420   18.2499 C   0  0  0  0  0  0
  -28.0598  -12.3283   18.6590 C   0  0  0  0  0  0
  -27.6342  -13.2412   19.8390 C   0  0  2  0  0  0
  -28.6729  -13.2305   20.9792 C   0  0  0  0  0  0
  -25.2500  -13.8145   20.5660 C   0  0  0  0  0  0
  -24.1777  -13.0408   20.9131 C   0  0  0  0  0  0
  -24.6377  -11.6888   20.8673 C   0  0  0  0  0  0
  -23.9058  -10.4266   21.0387 C   0  0  0  0  0  0
  -24.3608   -9.4181   21.9167 C   0  0  0  0  0  0
  -23.6272   -8.2223   22.0749 C   0  0  0  0  0  0
  -22.4246   -8.0261   21.3558 C   0  0  0  0  0  0
  -21.9880   -9.0251   20.4664 C   0  0  0  0  0  0
  -22.7216  -10.2128   20.3073 C   0  0  0  0  0  0
  -21.6846   -6.0708   22.5277 C   0  0  0  0  0  0
  -21.3995   -6.5611   23.8197 C   0  0  0  0  0  0
  -21.3688   -5.6773   24.9180 C   0  0  0  0  0  0
  -21.6062   -4.3037   24.7238 C   0  0  0  0  0  0
  -21.8805   -3.8122   23.4360 C   0  0  0  0  0  0
  -21.9185   -4.6945   22.3409 C   0  0  0  0  0  0
  -22.7817  -13.5254   21.1829 C   0  0  0  0  0  0
  -22.1638   -4.2124   21.0995 F   0  0  0  0  0  0
  -21.5669   -3.4522   25.7758 F   0  0  0  0  0  0
  -29.9529  -13.6597   20.3983 N   0  0  0  0  0  0
  -26.2911  -12.9382   20.3199 N   0  0  0  0  0  0
  -25.9325  -11.6518   20.5677 N   0  0  0  0  0  0
  -22.0494  -12.8302   22.0446 N   0  0  0  0  0  0
  -25.4230  -15.1841   20.4222 N   0  0  0  0  0  0
  -31.6762  -15.0761   20.1023 O   0  0  0  0  0  0
  -21.6620   -6.8856   21.4235 O   0  0  0  0  0  0
  -22.3502  -14.5565   20.6687 O   0  0  0  0  0  0
  -24.6456  -31.8432   23.1903 C   0  0  0  0  0  0
  -25.9217  -32.4689   23.8302 C   0  0  1  0  0  0
  -27.2074  -27.1256   20.1487 C   0  0  0  0  0  0
  -25.5955  -33.8494   24.2206 N   0  0  0  0  0  0
  -23.4509  -30.4621   21.5346 C   0  0  2  0  0  0
  -24.9005  -28.8920   20.1154 C   0  0  0  0  0  0
  -22.7597  -29.4518   22.4864 C   0  0  0  0  0  0
  -18.0313  -28.1393   22.8463 C   0  0  0  0  0  0
  -24.1500  -36.7266   23.2631 C   0  0  0  0  0  0
  -26.0114  -30.7105   21.3988 C   0  0  0  0  0  0
  -26.0807  -29.3221   20.7384 C   0  0  0  0  0  0
  -27.2376  -28.4544   20.7390 C   0  0  0  0  0  0
  -26.0093  -26.8112   19.4715 C   0  0  0  0  0  0
  -24.8785  -27.6501   19.4677 C   0  0  0  0  0  0
  -23.6817  -29.7963   20.1539 C   0  0  0  0  0  0
  -25.4122  -36.3024   24.0309 C   0  0  1  0  0  0
  -20.5925  -28.3721   23.1239 C   0  0  2  0  0  0
  -20.6796  -26.9417   22.5427 C   0  0  0  0  0  0
  -19.5775  -26.6372   21.5221 C   0  0  0  0  0  0
  -18.1949  -26.7932   22.1613 C   0  0  0  0  0  0
  -19.1568  -28.8878   23.2837 C   0  0  0  0  0  0
  -18.9474  -30.1475   23.8873 C   0  0  0  0  0  0
  -17.6469  -30.6595   24.0549 C   0  0  0  0  0  0
  -25.9061  -34.9389   23.5062 C   0  0  0  0  0  0
  -16.5362  -29.9082   23.6334 C   0  0  0  0  0  0
  -16.7293  -28.6497   23.0348 C   0  0  0  0  0  0
  -26.4490  -31.6562   25.0767 C   0  0  0  0  0  0
  -25.3662  -31.3878   26.1488 C   0  0  0  0  0  0
  -27.0278  -30.2897   24.6435 C   0  0  0  0  0  0
  -27.6069  -32.4295   25.7512 C   0  0  0  0  0  0
  -27.5591  -37.1764   24.8430 C   0  0  0  0  0  0
  -21.4278  -29.3032   22.3608 N   0  0  0  0  0  0
  -26.4287  -37.3740   23.9399 N   0  0  0  0  0  0
  -24.7219  -31.0276   22.0951 N   0  0  0  0  0  0
  -23.4234  -28.8054   23.3003 O   0  0  0  0  0  0
  -28.2306  -26.1076   20.1941 O   0  0  0  0  0  0
  -26.5651  -34.8885   22.4643 O   0  0  0  0  0  0
  -23.5560  -32.1290   23.7093 O   0  0  0  0  0  0
  -29.9927  -19.8771   19.9296 C   0  0  0  0  0  0
  -28.8549  -20.5279   20.5120 C   0  0  0  0  0  0
  -28.3273  -18.1273   21.2427 C   0  0  0  0  0  0
  -28.0462  -19.5623   21.1739 C   0  0  0  0  0  0
  -29.4881  -17.5606   20.6007 C   0  0  0  0  0  0
  -28.8057  -23.3000   20.2170 C   0  0  0  0  0  0
  -27.4791  -24.6325   22.0112 C   0  0  0  0  0  0
  -26.3393  -16.5217   23.9816 C   0  0  0  0  0  0
  -25.1645  -17.9894   22.3253 C   0  0  0  0  0  0
  -27.8426  -24.6260   20.5158 C   0  0  1  0  0  0
  -26.5289  -17.6327   22.9428 C   0  0  0  0  0  0
  -30.2837  -18.4992   19.9659 N   0  0  0  0  0  0
  -28.3702  -21.9900   20.5248 N   0  0  0  0  0  0
  -27.5052  -17.2042   21.9452 N   0  0  0  0  0  0
  -29.6021  -16.0282   20.6693 N   0  0  0  0  0  0
  -29.9175  -23.4702   19.7138 O   0  0  0  0  0  0
  -26.9501  -20.0816   21.7807 F   0  0  0  0  0  0
  -31.4836  -12.7579   19.1872 H   0  0  0  0  0  0
  -30.4500  -11.6197   20.0047 H   0  0  0  0  0  0
  -29.8464  -11.7515   17.5673 H   0  0  0  0  0  0
  -29.6269  -13.4791   17.6966 H   0  0  0  0  0  0
  -27.9442  -11.2825   18.9459 H   0  0  0  0  0  0
  -27.4036  -12.4848   17.8022 H   0  0  0  0  0  0
  -27.6003  -14.2507   19.4260 H   0  0  0  0  0  0
  -28.7530  -12.2399   21.4260 H   0  0  0  0  0  0
  -28.3662  -13.9006   21.7830 H   0  0  0  0  0  0
  -25.2770   -9.5669   22.4728 H   0  0  0  0  0  0
  -24.0004   -7.4613   22.7454 H   0  0  0  0  0  0
  -21.0811   -8.8785   19.8968 H   0  0  0  0  0  0
  -22.3662  -10.9681   19.6193 H   0  0  0  0  0  0
  -21.1927   -7.6111   23.9703 H   0  0  0  0  0  0
  -21.1548   -6.0505   25.9093 H   0  0  0  0  0  0
  -22.0558   -2.7581   23.2871 H   0  0  0  0  0  0
  -22.4137  -12.0036   22.4958 H   0  0  0  0  0  0
  -21.1119  -13.1369   22.2676 H   0  0  0  0  0  0
  -24.6812  -15.8185   20.6890 H   0  0  0  0  0  0
  -26.3295  -15.6306   20.4898 H   0  0  0  0  0  0
  -26.7298  -32.5266   23.1042 H   0  0  0  0  0  0
  -25.0048  -33.9609   25.0312 H   0  0  0  0  0  0
  -22.7541  -31.2883   21.3795 H   0  0  0  0  0  0
  -23.3760  -35.9594   23.3232 H   0  0  0  0  0  0
  -24.3614  -36.8964   22.2062 H   0  0  0  0  0  0
  -23.7257  -37.6441   23.6712 H   0  0  0  0  0  0
  -26.1795  -31.4679   20.6326 H   0  0  0  0  0  0
  -26.8759  -30.7537   22.0492 H   0  0  0  0  0  0
  -28.1343  -28.7713   21.2527 H   0  0  0  0  0  0
  -25.9183  -25.8769   18.9389 H   0  0  0  0  0  0
  -23.9831  -27.3216   18.9601 H   0  0  0  0  0  0
  -23.8330  -30.5712   19.4022 H   0  0  0  0  0  0
  -22.7981  -29.2427   19.8334 H   0  0  0  0  0  0
  -25.1304  -36.1841   25.0800 H   0  0  0  0  0  0
  -20.9997  -28.3316   24.1362 H   0  0  0  0  0  0
  -20.5683  -26.2327   23.3643 H   0  0  0  0  0  0
  -21.6664  -26.7419   22.1227 H   0  0  0  0  0  0
  -19.6930  -25.6267   21.1285 H   0  0  0  0  0  0
  -19.6724  -27.3157   20.6727 H   0  0  0  0  0  0
  -17.4223  -26.6685   21.4009 H   0  0  0  0  0  0
  -18.0330  -26.0092   22.9024 H   0  0  0  0  0  0
  -19.7941  -30.7300   24.2235 H   0  0  0  0  0  0
  -17.5011  -31.6265   24.5154 H   0  0  0  0  0  0
  -15.5355  -30.2964   23.7663 H   0  0  0  0  0  0
  -15.8697  -28.0805   22.7075 H   0  0  0  0  0  0
  -24.5785  -30.7275   25.7850 H   0  0  0  0  0  0
  -24.8919  -32.3127   26.4795 H   0  0  0  0  0  0
  -25.7913  -30.9125   27.0342 H   0  0  0  0  0  0
  -26.2893  -29.6688   24.1372 H   0  0  0  0  0  0
  -27.3679  -29.7180   25.5074 H   0  0  0  0  0  0
  -27.8913  -30.4011   23.9888 H   0  0  0  0  0  0
  -27.2700  -33.3595   26.2106 H   0  0  0  0  0  0
  -28.3860  -32.6859   25.0321 H   0  0  0  0  0  0
  -28.0768  -31.8415   26.5406 H   0  0  0  0  0  0
  -28.2563  -38.0098   24.7500 H   0  0  0  0  0  0
  -28.1131  -36.2631   24.6195 H   0  0  0  0  0  0
  -27.2340  -37.1357   25.8840 H   0  0  0  0  0  0
  -20.9513  -29.8750   21.6778 H   0  0  0  0  0  0
  -26.0144  -38.2798   24.1434 H   0  0  0  0  0  0
  -30.7089  -20.4819   19.3945 H   0  0  0  0  0  0
  -27.3086  -23.6316   22.4112 H   0  0  0  0  0  0
  -26.5709  -25.2056   22.1943 H   0  0  0  0  0  0
  -28.2818  -25.0835   22.5941 H   0  0  0  0  0  0
  -27.2503  -16.3526   24.5548 H   0  0  0  0  0  0
  -26.0484  -15.5757   23.5204 H   0  0  0  0  0  0
  -25.5567  -16.7872   24.6918 H   0  0  0  0  0  0
  -24.6054  -18.6256   23.0136 H   0  0  0  0  0  0
  -24.5565  -17.1038   22.1434 H   0  0  0  0  0  0
  -25.2449  -18.5279   21.3815 H   0  0  0  0  0  0
  -26.9366  -24.3734   19.9672 H   0  0  0  0  0  0
  -26.9199  -18.5035   23.4682 H   0  0  0  0  0  0
  -27.4402  -22.0327   20.9263 H   0  0  0  0  0  0
  -28.0164  -16.3942   22.2733 H   0  0  0  0  0  0
  -28.7092  -15.6547   20.9409 H   0  0  0  0  0  0
  1 25  1  0  0  0
  1 30  2  0  0  0
  1 85  1  0  0  0
  2  3  1  0  0  0
  2 25  1  0  0  0
  2 88  1  0  0  0
  2 89  1  0  0  0
  3  4  1  0  0  0
  3 90  1  0  0  0
  3 91  1  0  0  0
  4  5  1  0  0  0
  4 92  1  0  0  0
  4 93  1  0  0  0
  5  6  1  0  0  0
  5 26  1  0  0  0
  5 94  1  0  0  0
  6 25  1  0  0  0
  6 95  1  0  0  0
  6 96  1  0  0  0
  7  8  2  0  0  0
  7 26  1  0  0  0
  7 29  1  0  0  0
  8  9  1  0  0  0
  8 22  1  0  0  0
  9 10  1  0  0  0
  9 27  2  0  0  0
 10 11  2  0  0  0
 10 15  1  0  0  0
 11 12  1  0  0  0
 11 97  1  0  0  0
 12 13  2  0  0  0
 12 98  1  0  0  0
 13 14  1  0  0  0
 13 31  1  0  0  0
 14 15  2  0  0  0
 14 99  1  0  0  0
 15100  1  0  0  0
 16 17  2  0  0  0
 16 21  1  0  0  0
 16 31  1  0  0  0
 17 18  1  0  0  0
 17101  1  0  0  0
 18 19  2  0  0  0
 18102  1  0  0  0
 19 20  1  0  0  0
 19 24  1  0  0  0
 20 21  2  0  0  0
 20103  1  0  0  0
 21 23  1  0  0  0
 22 28  1  0  0  0
 22 32  2  0  0  0
 26 27  1  0  0  0
 28104  1  0  0  0
 28105  1  0  0  0
 29106  1  0  0  0
 29107  1  0  0  0
 33 34  1  0  0  0
 33 66  1  0  0  0
 33 70  2  0  0  0
 34 36  1  0  0  0
 34 59  1  0  0  0
 34108  1  0  0  0
 35 44  2  0  0  0
 35 45  1  0  0  0
 35 68  1  0  0  0
 36 56  1  0  0  0
 36109  1  0  0  0
 37 39  1  0  0  0
 37 47  1  0  0  0
 37 66  1  0  0  0
 37110  1  0  0  0
 38 43  2  0  0  0
 38 46  1  0  0  0
 38 47  1  0  0  0
 39 64  1  0  0  0
 39 67  2  0  0  0
 40 52  1  0  0  0
 40 53  2  0  0  0
 40 58  1  0  0  0
 41111  1  0  0  0
 41112  1  0  0  0
 41113  1  0  0  0
 41 48  1  0  0  0
 42 43  1  0  0  0
 42 66  1  0  0  0
 42114  1  0  0  0
 42115  1  0  0  0
 43 44  1  0  0  0
 44116  1  0  0  0
 45 46  2  0  0  0
 45117  1  0  0  0
 46118  1  0  0  0
 47119  1  0  0  0
 47120  1  0  0  0
 48 56  1  0  0  0
 48 65  1  0  0  0
 48121  1  0  0  0
 49 50  1  0  0  0
 49 53  1  0  0  0
 49 64  1  0  0  0
 49122  1  0  0  0
 50 51  1  0  0  0
 50123  1  0  0  0
 50124  1  0  0  0
 51 52  1  0  0  0
 51125  1  0  0  0
 51126  1  0  0  0
 52127  1  0  0  0
 52128  1  0  0  0
 53 54  1  0  0  0
 54 55  2  0  0  0
 54129  1  0  0  0
 55 57  1  0  0  0
 55130  1  0  0  0
 56 69  2  0  0  0
 57 58  2  0  0  0
 57131  1  0  0  0
 58132  1  0  0  0
 59 60  1  0  0  0
 59 61  1  0  0  0
 59 62  1  0  0  0
 60133  1  0  0  0
 60134  1  0  0  0
 60135  1  0  0  0
 61136  1  0  0  0
 61137  1  0  0  0
 61138  1  0  0  0
 62139  1  0  0  0
 62140  1  0  0  0
 62141  1  0  0  0
 63 65  1  0  0  0
 63142  1  0  0  0
 63143  1  0  0  0
 63144  1  0  0  0
 64145  1  0  0  0
 65146  1  0  0  0
 68 80  1  0  0  0
 71 72  2  0  0  0
 71 82  1  0  0  0
 71147  1  0  0  0
 72 74  1  0  0  0
 72 83  1  0  0  0
 73 74  2  0  0  0
 73 75  1  0  0  0
 73 84  1  0  0  0
 74 87  1  0  0  0
 75 82  2  0  0  0
 75 85  1  0  0  0
 76 80  1  0  0  0
 76 83  1  0  0  0
 76 86  2  0  0  0
 77148  1  0  0  0
 77149  1  0  0  0
 77150  1  0  0  0
 77 80  1  0  0  0
 78151  1  0  0  0
 78152  1  0  0  0
 78153  1  0  0  0
 78 81  1  0  0  0
 79 81  1  0  0  0
 79154  1  0  0  0
 79155  1  0  0  0
 79156  1  0  0  0
 80157  1  0  0  0
 81 84  1  0  0  0
 81158  1  0  0  0
 83159  1  0  0  0
 84160  1  0  0  0
 85161  1  0  0  0
M  ISO  4   1 100  68 101  80 101  85 100
M  END
> <chiral flag>
0

> <version>
0

> <s_m_source_file>
/data/baiqing/PycharmProjects/Reinvent-master-3.2/result/LINK_invent/BTK/process_docking_weight1_custom_product_contain_oxygen_bond_distance_aromatic_linkinvent_7_9_3/rearranged_h_0188.sdf

> <i_m_source_file_index>
12

> <r_mmod_Potential_Energy-OPLS-2005>
288.196014404297

> <r_mmod_Stretch_Energy-OPLS-2005>
235.233627319336

> <r_mmod_Bend_Energy-OPLS-2005>
301.420288085938

> <r_mmod_Torsional_Energy-OPLS-2005>
233.029632568359

> <r_mmod_Improper_Torsional_Energy-OPLS-2005>
9.42014503479004

> <r_mmod_Van_der_Waal_Energy-OPLS-2005>
136.975982666016

> <r_mmod_Electrostatic_Energy-OPLS-2005>
-578.455017089844

> <r_mmod_Solvation_Energy-OPLS-2005>
-251.917083740234

> <b_mmod_Minimization_Converged-OPLS-2005>
0

> <r_mmod_RMS_Derivative-OPLS-2005>
4.00742101669312

$$$$
13
                    3D
 Structure written by MMmdl.
169177  0  0  1  0            999 V2000
  -30.6655  -14.5478   20.5316 C   0  0  0  0  0  0
  -30.4260  -12.3438   19.4208 C   0  0  0  0  0  0
  -29.4929  -12.4957   18.2010 C   0  0  0  0  0  0
  -28.0148  -12.3514   18.6207 C   0  0  0  0  0  0
  -27.6519  -13.2081   19.8631 C   0  0  2  0  0  0
  -28.7013  -13.0360   20.9835 C   0  0  0  0  0  0
  -25.2558  -13.8149   20.5662 C   0  0  0  0  0  0
  -24.1819  -13.0422   20.9181 C   0  0  0  0  0  0
  -24.6369  -11.6890   20.8729 C   0  0  0  0  0  0
  -23.9031  -10.4280   21.0393 C   0  0  0  0  0  0
  -24.3587   -9.4199   21.9178 C   0  0  0  0  0  0
  -23.6270   -8.2233   22.0754 C   0  0  0  0  0  0
  -22.4260   -8.0262   21.3539 C   0  0  0  0  0  0
  -21.9880   -9.0231   20.4646 C   0  0  0  0  0  0
  -22.7197  -10.2114   20.3051 C   0  0  0  0  0  0
  -21.6855   -6.0712   22.5267 C   0  0  0  0  0  0
  -21.4017   -6.5623   23.8192 C   0  0  0  0  0  0
  -21.3659   -5.6780   24.9162 C   0  0  0  0  0  0
  -21.6047   -4.3042   24.7214 C   0  0  0  0  0  0
  -21.8824   -3.8128   23.4339 C   0  0  0  0  0  0
  -21.9195   -4.6945   22.3393 C   0  0  0  0  0  0
  -22.7850  -13.5226   21.1846 C   0  0  0  0  0  0
  -22.1667   -4.2123   21.0974 F   0  0  0  0  0  0
  -21.5629   -3.4537   25.7734 F   0  0  0  0  0  0
  -30.0145  -13.3564   20.4072 N   0  0  0  0  0  0
  -26.2978  -12.9311   20.3335 N   0  0  0  0  0  0
  -25.9296  -11.6475   20.5765 N   0  0  0  0  0  0
  -22.0503  -12.8220   22.0411 N   0  0  0  0  0  0
  -25.4273  -15.1861   20.4015 N   0  0  0  0  0  0
  -31.8441  -14.6923   20.1967 O   0  0  0  0  0  0
  -21.6642   -6.8851   21.4223 O   0  0  0  0  0  0
  -22.3539  -14.5532   20.6691 O   0  0  0  0  0  0
  -24.6224  -31.8617   23.2066 C   0  0  0  0  0  0
  -25.9094  -32.4783   23.8376 C   0  0  1  0  0  0
  -27.2322  -27.3532   20.1134 C   0  0  0  0  0  0
  -25.5922  -33.8582   24.2319 N   0  0  0  0  0  0
  -23.4112  -30.4864   21.5495 C   0  0  2  0  0  0
  -24.8549  -28.9430   20.1169 C   0  0  0  0  0  0
  -22.7445  -29.4618   22.4954 C   0  0  0  0  0  0
  -18.0273  -28.1374   22.8451 C   0  0  0  0  0  0
  -24.1470  -36.7263   23.2637 C   0  0  0  0  0  0
  -25.9485  -30.8046   21.3678 C   0  0  0  0  0  0
  -26.0228  -29.4331   20.7141 C   0  0  0  0  0  0
  -27.2086  -28.6500   20.7047 C   0  0  0  0  0  0
  -26.0316  -26.8992   19.5110 C   0  0  0  0  0  0
  -24.8594  -27.6774   19.5122 C   0  0  0  0  0  0
  -23.6235  -29.8217   20.1637 C   0  0  0  0  0  0
  -25.4096  -36.3077   24.0338 C   0  0  1  0  0  0
  -20.5866  -28.3657   23.1273 C   0  0  2  0  0  0
  -20.6747  -26.9378   22.5393 C   0  0  0  0  0  0
  -19.5736  -26.6357   21.5184 C   0  0  0  0  0  0
  -18.1918  -26.7908   22.1593 C   0  0  0  0  0  0
  -19.1534  -28.8833   23.2841 C   0  0  0  0  0  0
  -18.9489  -30.1445   23.8864 C   0  0  0  0  0  0
  -17.6496  -30.6591   24.0568 C   0  0  0  0  0  0
  -25.9033  -34.9449   23.5119 C   0  0  0  0  0  0
  -16.5367  -29.9102   23.6352 C   0  0  0  0  0  0
  -16.7265  -28.6518   23.0343 C   0  0  0  0  0  0
  -26.4489  -31.6573   25.0726 C   0  0  0  0  0  0
  -25.3727  -31.3692   26.1457 C   0  0  0  0  0  0
  -27.0321  -30.3013   24.6109 C   0  0  0  0  0  0
  -27.6075  -32.4274   25.7479 C   0  0  0  0  0  0
  -27.5558  -37.1781   24.8483 C   0  0  0  0  0  0
  -21.4159  -29.3025   22.3691 N   0  0  0  0  0  0
  -26.4270  -37.3778   23.9425 N   0  0  0  0  0  0
  -24.6787  -31.0662   22.0989 N   0  0  0  0  0  0
  -23.4182  -28.8147   23.3015 O   0  0  0  0  0  0
  -28.4045  -26.5881   20.1566 O   0  0  0  0  0  0
  -26.5595  -34.8908   22.4684 O   0  0  0  0  0  0
  -23.5418  -32.1414   23.7432 O   0  0  0  0  0  0
  -30.0412  -19.1348   21.8467 C   0  0  0  0  0  0
  -30.8873  -18.6776   22.8296 C   0  0  0  0  0  0
  -30.2451  -16.8827   21.3297 C   0  0  0  0  0  0
  -32.5140  -20.9909   20.9554 C   0  0  0  0  0  0
  -30.5560  -25.7233   18.2853 C   0  0  0  0  0  0
  -28.2919  -26.0556   17.2810 C   0  0  0  0  0  0
  -29.1193  -23.7617   17.6619 C   0  0  0  0  0  0
  -28.8596  -22.7184   20.8133 C   0  0  0  0  0  0
  -29.2420  -24.2639   20.7214 C   0  0  0  0  0  0
  -29.9429  -21.5445   20.8616 C   0  0  1  0  0  0
  -28.4685  -25.1915   19.6975 C   0  0  2  0  0  0
  -31.3954  -22.0309   21.1417 C   0  0  1  0  0  0
  -29.1058  -25.1833   18.2588 C   0  0  0  0  0  0
  -29.6580  -18.0658   20.9937 N   0  0  0  0  0  0
  -29.5371  -20.4718   21.8037 N   0  0  0  0  0  0
  -29.8686  -15.6238   20.7571 N   0  0  0  0  0  0
  -31.3535  -19.4556   23.8375 F   0  0  0  0  0  0
  -31.3600  -17.0118   22.6869 S   0  0  0  0  0  0
  -31.5119  -22.7295   22.7834 Cl  0  0  0  0  0  0
  -31.4703  -12.4515   19.1210 H   0  0  0  0  0  0
  -30.3372  -11.3442   19.8476 H   0  0  0  0  0  0
  -29.7354  -11.7494   17.4438 H   0  0  0  0  0  0
  -29.6503  -13.4683   17.7322 H   0  0  0  0  0  0
  -27.8327  -11.2973   18.8349 H   0  0  0  0  0  0
  -27.3596  -12.6069   17.7870 H   0  0  0  0  0  0
  -27.6760  -14.2474   19.5369 H   0  0  0  0  0  0
  -28.6994  -12.0102   21.3556 H   0  0  0  0  0  0
  -28.4704  -13.6662   21.8443 H   0  0  0  0  0  0
  -25.2730   -9.5684   22.4753 H   0  0  0  0  0  0
  -23.9981   -7.4625   22.7470 H   0  0  0  0  0  0
  -21.0817   -8.8728   19.8952 H   0  0  0  0  0  0
  -22.3638  -10.9648   19.6161 H   0  0  0  0  0  0
  -21.2016   -7.6134   23.9681 H   0  0  0  0  0  0
  -21.1482   -6.0523   25.9058 H   0  0  0  0  0  0
  -22.0610   -2.7593   23.2849 H   0  0  0  0  0  0
  -22.4130  -11.9882   22.4797 H   0  0  0  0  0  0
  -21.1127  -13.1248   22.2643 H   0  0  0  0  0  0
  -24.6468  -15.8316   20.4623 H   0  0  0  0  0  0
  -26.2635  -15.6168   20.0277 H   0  0  0  0  0  0
  -26.7152  -32.5459   23.1113 H   0  0  0  0  0  0
  -25.0131  -33.9756   25.0510 H   0  0  0  0  0  0
  -22.7030  -31.3053   21.4098 H   0  0  0  0  0  0
  -23.3746  -35.9587   23.3341 H   0  0  0  0  0  0
  -24.3566  -36.8835   22.2045 H   0  0  0  0  0  0
  -23.7211  -37.6471   23.6623 H   0  0  0  0  0  0
  -26.0661  -31.5674   20.5982 H   0  0  0  0  0  0
  -26.8346  -30.8588   21.9878 H   0  0  0  0  0  0
  -28.1071  -29.0293   21.1717 H   0  0  0  0  0  0
  -25.9519  -25.9397   19.0294 H   0  0  0  0  0  0
  -23.9629  -27.2898   19.0488 H   0  0  0  0  0  0
  -23.7410  -30.5986   19.4079 H   0  0  0  0  0  0
  -22.7434  -29.2500   19.8662 H   0  0  0  0  0  0
  -25.1278  -36.1928   25.0831 H   0  0  0  0  0  0
  -20.9943  -28.3232   24.1398 H   0  0  0  0  0  0
  -20.5603  -26.2292   23.3615 H   0  0  0  0  0  0
  -21.6629  -26.7387   22.1218 H   0  0  0  0  0  0
  -19.6911  -25.6269   21.1234 H   0  0  0  0  0  0
  -19.6692  -27.3146   20.6701 H   0  0  0  0  0  0
  -17.4179  -26.6642   21.4002 H   0  0  0  0  0  0
  -18.0317  -26.0050   22.8989 H   0  0  0  0  0  0
  -19.7984  -30.7255   24.2175 H   0  0  0  0  0  0
  -17.5086  -31.6265   24.5175 H   0  0  0  0  0  0
  -15.5379  -30.3025   23.7719 H   0  0  0  0  0  0
  -15.8636  -28.0878   22.7064 H   0  0  0  0  0  0
  -24.5942  -30.6976   25.7800 H   0  0  0  0  0  0
  -24.8868  -32.2855   26.4823 H   0  0  0  0  0  0
  -25.8061  -30.8926   27.0263 H   0  0  0  0  0  0
  -26.2901  -29.6800   24.1084 H   0  0  0  0  0  0
  -27.4010  -29.7200   25.4574 H   0  0  0  0  0  0
  -27.8757  -30.4344   23.9335 H   0  0  0  0  0  0
  -27.2744  -33.3611   26.2016 H   0  0  0  0  0  0
  -28.3900  -32.6756   25.0292 H   0  0  0  0  0  0
  -28.0706  -31.8398   26.5415 H   0  0  0  0  0  0
  -28.2594  -38.0060   24.7523 H   0  0  0  0  0  0
  -28.1028  -36.2593   24.6322 H   0  0  0  0  0  0
  -27.2283  -37.1454   25.8890 H   0  0  0  0  0  0
  -20.9323  -29.8779   21.6936 H   0  0  0  0  0  0
  -26.0152  -38.2831   24.1483 H   0  0  0  0  0  0
  -32.3788  -20.4042   20.0468 H   0  0  0  0  0  0
  -32.5921  -20.3061   21.7950 H   0  0  0  0  0  0
  -33.4824  -21.4860   20.8812 H   0  0  0  0  0  0
  -31.2567  -25.0176   18.7363 H   0  0  0  0  0  0
  -30.6264  -26.6560   18.8447 H   0  0  0  0  0  0
  -30.9250  -25.9271   17.2803 H   0  0  0  0  0  0
  -28.7155  -26.0333   16.2761 H   0  0  0  0  0  0
  -28.2732  -27.1031   17.5815 H   0  0  0  0  0  0
  -27.2629  -25.7078   17.1941 H   0  0  0  0  0  0
  -29.4557  -23.7683   16.6253 H   0  0  0  0  0  0
  -28.1224  -23.3228   17.6721 H   0  0  0  0  0  0
  -29.7864  -23.0945   18.2056 H   0  0  0  0  0  0
  -28.1654  -22.4817   20.0070 H   0  0  0  0  0  0
  -28.2386  -22.6275   21.7044 H   0  0  0  0  0  0
  -30.3075  -24.4232   20.6067 H   0  0  0  0  0  0
  -29.0518  -24.6732   21.7140 H   0  0  0  0  0  0
  -29.9554  -21.0909   19.8691 H   0  0  0  0  0  0
  -27.4734  -24.7590   19.6576 H   0  0  0  0  0  0
  -31.6404  -22.8242   20.4376 H   0  0  0  0  0  0
  -29.7105  -20.8488   22.7316 H   0  0  0  0  0  0
  -28.8789  -15.4518   20.7013 H   0  0  0  0  0  0
  1 25  1  0  0  0
  1 30  2  0  0  0
  1 86  1  0  0  0
  2  3  1  0  0  0
  2 25  1  0  0  0
  2 90  1  0  0  0
  2 91  1  0  0  0
  3  4  1  0  0  0
  3 92  1  0  0  0
  3 93  1  0  0  0
  4  5  1  0  0  0
  4 94  1  0  0  0
  4 95  1  0  0  0
  5  6  1  0  0  0
  5 26  1  0  0  0
  5 96  1  0  0  0
  6 25  1  0  0  0
  6 97  1  0  0  0
  6 98  1  0  0  0
  7  8  2  0  0  0
  7 26  1  0  0  0
  7 29  1  0  0  0
  8  9  1  0  0  0
  8 22  1  0  0  0
  9 10  1  0  0  0
  9 27  2  0  0  0
 10 11  2  0  0  0
 10 15  1  0  0  0
 11 12  1  0  0  0
 11 99  1  0  0  0
 12 13  2  0  0  0
 12100  1  0  0  0
 13 14  1  0  0  0
 13 31  1  0  0  0
 14 15  2  0  0  0
 14101  1  0  0  0
 15102  1  0  0  0
 16 17  2  0  0  0
 16 21  1  0  0  0
 16 31  1  0  0  0
 17 18  1  0  0  0
 17103  1  0  0  0
 18 19  2  0  0  0
 18104  1  0  0  0
 19 20  1  0  0  0
 19 24  1  0  0  0
 20 21  2  0  0  0
 20105  1  0  0  0
 21 23  1  0  0  0
 22 28  1  0  0  0
 22 32  2  0  0  0
 26 27  1  0  0  0
 28106  1  0  0  0
 28107  1  0  0  0
 29108  1  0  0  0
 29109  1  0  0  0
 33 34  1  0  0  0
 33 66  1  0  0  0
 33 70  2  0  0  0
 34 36  1  0  0  0
 34 59  1  0  0  0
 34110  1  0  0  0
 35 44  2  0  0  0
 35 45  1  0  0  0
 35 68  1  0  0  0
 36 56  1  0  0  0
 36111  1  0  0  0
 37 39  1  0  0  0
 37 47  1  0  0  0
 37 66  1  0  0  0
 37112  1  0  0  0
 38 43  2  0  0  0
 38 46  1  0  0  0
 38 47  1  0  0  0
 39 64  1  0  0  0
 39 67  2  0  0  0
 40 52  1  0  0  0
 40 53  2  0  0  0
 40 58  1  0  0  0
 41113  1  0  0  0
 41114  1  0  0  0
 41115  1  0  0  0
 41 48  1  0  0  0
 42 43  1  0  0  0
 42 66  1  0  0  0
 42116  1  0  0  0
 42117  1  0  0  0
 43 44  1  0  0  0
 44118  1  0  0  0
 45 46  2  0  0  0
 45119  1  0  0  0
 46120  1  0  0  0
 47121  1  0  0  0
 47122  1  0  0  0
 48 56  1  0  0  0
 48 65  1  0  0  0
 48123  1  0  0  0
 49 50  1  0  0  0
 49 53  1  0  0  0
 49 64  1  0  0  0
 49124  1  0  0  0
 50 51  1  0  0  0
 50125  1  0  0  0
 50126  1  0  0  0
 51 52  1  0  0  0
 51127  1  0  0  0
 51128  1  0  0  0
 52129  1  0  0  0
 52130  1  0  0  0
 53 54  1  0  0  0
 54 55  2  0  0  0
 54131  1  0  0  0
 55 57  1  0  0  0
 55132  1  0  0  0
 56 69  2  0  0  0
 57 58  2  0  0  0
 57133  1  0  0  0
 58134  1  0  0  0
 59 60  1  0  0  0
 59 61  1  0  0  0
 59 62  1  0  0  0
 60135  1  0  0  0
 60136  1  0  0  0
 60137  1  0  0  0
 61138  1  0  0  0
 61139  1  0  0  0
 61140  1  0  0  0
 62141  1  0  0  0
 62142  1  0  0  0
 62143  1  0  0  0
 63 65  1  0  0  0
 63144  1  0  0  0
 63145  1  0  0  0
 63146  1  0  0  0
 64147  1  0  0  0
 65148  1  0  0  0
 68 81  1  0  0  0
 71 72  2  0  0  0
 71 84  1  0  0  0
 71 85  1  0  0  0
 72 87  1  0  0  0
 72 88  1  0  0  0
 73 84  2  0  0  0
 73 86  1  0  0  0
 73 88  1  0  0  0
 74149  1  0  0  0
 74150  1  0  0  0
 74151  1  0  0  0
 74 82  1  0  0  0
 75152  1  0  0  0
 75153  1  0  0  0
 75154  1  0  0  0
 75 83  1  0  0  0
 76 83  1  0  0  0
 76155  1  0  0  0
 76156  1  0  0  0
 76157  1  0  0  0
 77 83  1  0  0  0
 77158  1  0  0  0
 77159  1  0  0  0
 77160  1  0  0  0
 78 79  1  0  0  0
 78161  1  0  0  0
 78162  1  0  0  0
 78 80  1  0  0  0
 79163  1  0  0  0
 79164  1  0  0  0
 79 81  1  0  0  0
 80 82  1  0  0  0
 80 85  1  0  0  0
 80165  1  0  0  0
 81 83  1  0  0  0
 81166  1  0  0  0
 82 89  1  0  0  0
 82167  1  0  0  0
 85168  1  0  0  0
 86169  1  0  0  0
M  ISO  4   1 100  68 101  81 101  86 100
M  END
> <chiral flag>
0

> <version>
0

> <s_m_source_file>
/data/baiqing/PycharmProjects/Reinvent-master-3.2/result/LINK_invent/BTK/process_docking_weight1_custom_product_contain_oxygen_bond_distance_aromatic_linkinvent_7_9_3/rearranged_h_0188.sdf

> <i_m_source_file_index>
13

> <r_mmod_Potential_Energy-OPLS-2005>
15.3733329772949

> <r_mmod_Stretch_Energy-OPLS-2005>
65.9755020141602

> <r_mmod_Bend_Energy-OPLS-2005>
154.609100341797

> <r_mmod_Torsional_Energy-OPLS-2005>
287.137054443359

> <r_mmod_Improper_Torsional_Energy-OPLS-2005>
14.6283159255981

> <r_mmod_Van_der_Waal_Energy-OPLS-2005>
129.751480102539

> <r_mmod_Electrostatic_Energy-OPLS-2005>
-465.443206787109

> <r_mmod_Solvation_Energy-OPLS-2005>
-200.895599365234

> <b_mmod_Minimization_Converged-OPLS-2005>
0

> <r_mmod_RMS_Derivative-OPLS-2005>
2.922438621521

$$$$
14
                    3D
 Structure written by MMmdl.
158166  0  0  1  0            999 V2000
  -30.6854  -14.5370   20.5377 C   0  0  0  0  0  0
  -30.4218  -12.3303   19.4488 C   0  0  0  0  0  0
  -29.5025  -12.4965   18.2202 C   0  0  0  0  0  0
  -28.0230  -12.3480   18.6261 C   0  0  0  0  0  0
  -27.6536  -13.2133   19.8598 C   0  0  2  0  0  0
  -28.6945  -13.0577   20.9911 C   0  0  0  0  0  0
  -25.2567  -13.8168   20.5668 C   0  0  0  0  0  0
  -24.1831  -13.0436   20.9180 C   0  0  0  0  0  0
  -24.6394  -11.6907   20.8731 C   0  0  0  0  0  0
  -23.9061  -10.4293   21.0404 C   0  0  0  0  0  0
  -24.3614   -9.4209   21.9184 C   0  0  0  0  0  0
  -23.6292   -8.2243   22.0754 C   0  0  0  0  0  0
  -22.4274   -8.0280   21.3543 C   0  0  0  0  0  0
  -21.9905   -9.0254   20.4646 C   0  0  0  0  0  0
  -22.7232  -10.2136   20.3054 C   0  0  0  0  0  0
  -21.6854   -6.0733   22.5278 C   0  0  0  0  0  0
  -21.4014   -6.5637   23.8211 C   0  0  0  0  0  0
  -21.3661   -5.6790   24.9174 C   0  0  0  0  0  0
  -21.6048   -4.3053   24.7225 C   0  0  0  0  0  0
  -21.8820   -3.8143   23.4345 C   0  0  0  0  0  0
  -21.9193   -4.6960   22.3401 C   0  0  0  0  0  0
  -22.7856  -13.5237   21.1846 C   0  0  0  0  0  0
  -22.1661   -4.2145   21.0979 F   0  0  0  0  0  0
  -21.5631   -3.4537   25.7738 F   0  0  0  0  0  0
  -30.0240  -13.3469   20.4388 N   0  0  0  0  0  0
  -26.2991  -12.9344   20.3297 N   0  0  0  0  0  0
  -25.9321  -11.6503   20.5743 N   0  0  0  0  0  0
  -22.0492  -12.8236   22.0406 N   0  0  0  0  0  0
  -25.4273  -15.1887   20.4084 N   0  0  0  0  0  0
  -31.8442  -14.6454   20.1226 O   0  0  0  0  0  0
  -21.6638   -6.8877   21.4242 O   0  0  0  0  0  0
  -22.3542  -14.5545   20.6697 O   0  0  0  0  0  0
  -24.6170  -31.8668   23.2097 C   0  0  0  0  0  0
  -25.9054  -32.4818   23.8397 C   0  0  1  0  0  0
  -27.2305  -27.4042   20.1129 C   0  0  0  0  0  0
  -25.5911  -33.8616   24.2331 N   0  0  0  0  0  0
  -23.4080  -30.4892   21.5498 C   0  0  2  0  0  0
  -24.8574  -28.9489   20.1204 C   0  0  0  0  0  0
  -22.7431  -29.4648   22.4980 C   0  0  0  0  0  0
  -18.0278  -28.1367   22.8497 C   0  0  0  0  0  0
  -24.1487  -36.7310   23.2638 C   0  0  0  0  0  0
  -25.9393  -30.8199   21.3722 C   0  0  0  0  0  0
  -26.0168  -29.4481   20.7295 C   0  0  0  0  0  0
  -27.2083  -28.6797   20.7327 C   0  0  0  0  0  0
  -26.0626  -26.9340   19.4830 C   0  0  0  0  0  0
  -24.8751  -27.6895   19.4963 C   0  0  0  0  0  0
  -23.6213  -29.8205   20.1655 C   0  0  0  0  0  0
  -25.4110  -36.3109   24.0340 C   0  0  1  0  0  0
  -20.5869  -28.3671   23.1303 C   0  0  2  0  0  0
  -20.6776  -26.9404   22.5406 C   0  0  0  0  0  0
  -19.5738  -26.6355   21.5230 C   0  0  0  0  0  0
  -18.1926  -26.7899   22.1661 C   0  0  0  0  0  0
  -19.1526  -28.8837   23.2890 C   0  0  0  0  0  0
  -18.9450  -30.1445   23.8895 C   0  0  0  0  0  0
  -17.6448  -30.6574   24.0559 C   0  0  0  0  0  0
  -25.9039  -34.9473   23.5132 C   0  0  0  0  0  0
  -16.5341  -29.9073   23.6321 C   0  0  0  0  0  0
  -16.7265  -28.6487   23.0348 C   0  0  0  0  0  0
  -26.4477  -31.6597   25.0726 C   0  0  0  0  0  0
  -25.3742  -31.3707   26.1474 C   0  0  0  0  0  0
  -27.0314  -30.3038   24.6113 C   0  0  0  0  0  0
  -27.6052  -32.4316   25.7489 C   0  0  0  0  0  0
  -27.5582  -37.1816   24.8469 C   0  0  0  0  0  0
  -21.4154  -29.3042   22.3718 N   0  0  0  0  0  0
  -26.4299  -37.3793   23.9406 N   0  0  0  0  0  0
  -24.6726  -31.0741   22.1018 N   0  0  0  0  0  0
  -23.4189  -28.8193   23.3036 O   0  0  0  0  0  0
  -28.3559  -26.6071   20.0317 O   0  0  0  0  0  0
  -26.5587  -34.8925   22.4684 O   0  0  0  0  0  0
  -23.5352  -32.1434   23.7468 O   0  0  0  0  0  0
  -29.2765  -19.0779   19.5358 C   0  0  0  0  0  0
  -29.9709  -18.5062   20.5848 C   0  0  0  0  0  0
  -29.2527  -20.8800   20.9548 C   0  0  0  0  0  0
  -28.7027  -23.3572   20.7610 C   0  0  0  0  0  0
  -28.9590  -18.4519   18.2112 C   0  0  0  0  0  0
  -30.4045  -26.0969   21.1113 C   0  0  0  0  0  0
  -30.7070  -17.1671   20.5998 C   0  0  0  0  0  0
  -29.9489  -15.8479   20.9896 C   0  0  2  0  0  0
  -28.3595  -24.6013   21.6409 C   0  0  1  0  0  0
  -28.8764  -26.0426   21.2492 C   0  0  2  0  0  0
  -28.8850  -20.4126   19.7553 N   0  0  0  0  0  0
  -28.9830  -22.2076   21.4276 N   0  0  0  0  0  0
  -28.6585  -23.4450   19.5306 O   0  0  0  0  0  0
  -26.9620  -24.6525   21.8632 O   0  0  0  0  0  0
  -29.7579  -15.8204   22.3113 F   0  0  0  0  0  0
  -30.0581  -19.6379   21.9305 S   0  0  0  0  0  0
  -31.4686  -12.4154   19.1523 H   0  0  0  0  0  0
  -30.3161  -11.3319   19.8758 H   0  0  0  0  0  0
  -29.7565  -11.7579   17.4590 H   0  0  0  0  0  0
  -29.6653  -13.4748   17.7659 H   0  0  0  0  0  0
  -27.8469  -11.2946   18.8474 H   0  0  0  0  0  0
  -27.3737  -12.5929   17.7846 H   0  0  0  0  0  0
  -27.6741  -14.2484   19.5215 H   0  0  0  0  0  0
  -28.6759  -12.0432   21.3919 H   0  0  0  0  0  0
  -28.4522  -13.7123   21.8288 H   0  0  0  0  0  0
  -25.2760   -9.5692   22.4754 H   0  0  0  0  0  0
  -24.0003   -7.4638   22.7477 H   0  0  0  0  0  0
  -21.0833   -8.8775   19.8954 H   0  0  0  0  0  0
  -22.3689  -10.9675   19.6161 H   0  0  0  0  0  0
  -21.2002   -7.6145   23.9714 H   0  0  0  0  0  0
  -21.1486   -6.0519   25.9080 H   0  0  0  0  0  0
  -22.0596   -2.7605   23.2845 H   0  0  0  0  0  0
  -22.4094  -11.9897   22.4804 H   0  0  0  0  0  0
  -21.1114  -13.1276   22.2611 H   0  0  0  0  0  0
  -24.6608  -15.8434   20.5225 H   0  0  0  0  0  0
  -26.2815  -15.6318   20.0966 H   0  0  0  0  0  0
  -26.7127  -32.5531   23.1162 H   0  0  0  0  0  0
  -25.0092  -33.9781   25.0498 H   0  0  0  0  0  0
  -22.6978  -31.3065   21.4086 H   0  0  0  0  0  0
  -23.3743  -35.9651   23.3316 H   0  0  0  0  0  0
  -24.3577  -36.8903   22.2048 H   0  0  0  0  0  0
  -23.7245  -37.6527   23.6634 H   0  0  0  0  0  0
  -26.0549  -31.5794   20.5978 H   0  0  0  0  0  0
  -26.8264  -30.8773   21.9907 H   0  0  0  0  0  0
  -28.1046  -29.0644   21.1985 H   0  0  0  0  0  0
  -26.0723  -25.9758   18.9819 H   0  0  0  0  0  0
  -23.9873  -27.3029   19.0152 H   0  0  0  0  0  0
  -23.7358  -30.5950   19.4060 H   0  0  0  0  0  0
  -22.7445  -29.2436   19.8667 H   0  0  0  0  0  0
  -25.1287  -36.1981   25.0835 H   0  0  0  0  0  0
  -20.9963  -28.3237   24.1423 H   0  0  0  0  0  0
  -20.5713  -26.2278   23.3599 H   0  0  0  0  0  0
  -21.6640  -26.7462   22.1175 H   0  0  0  0  0  0
  -19.6894  -25.6253   21.1288 H   0  0  0  0  0  0
  -19.6660  -27.3143   20.6740 H   0  0  0  0  0  0
  -17.4185  -26.6605   21.4082 H   0  0  0  0  0  0
  -18.0360  -26.0062   22.9086 H   0  0  0  0  0  0
  -19.7927  -30.7261   24.2258 H   0  0  0  0  0  0
  -17.5004  -31.6256   24.5156 H   0  0  0  0  0  0
  -15.5339  -30.2974   23.7631 H   0  0  0  0  0  0
  -15.8668  -28.0808   22.7054 H   0  0  0  0  0  0
  -24.5911  -30.7061   25.7808 H   0  0  0  0  0  0
  -24.8939  -32.2866   26.4932 H   0  0  0  0  0  0
  -25.8094  -30.8867   27.0227 H   0  0  0  0  0  0
  -26.2867  -29.6799   24.1157 H   0  0  0  0  0  0
  -27.4070  -29.7274   25.4577 H   0  0  0  0  0  0
  -27.8707  -30.4353   23.9279 H   0  0  0  0  0  0
  -27.2671  -33.3603   26.2098 H   0  0  0  0  0  0
  -28.3845  -32.6899   25.0306 H   0  0  0  0  0  0
  -28.0738  -31.8421   26.5381 H   0  0  0  0  0  0
  -28.2618  -38.0095   24.7496 H   0  0  0  0  0  0
  -28.1059  -36.2628   24.6320 H   0  0  0  0  0  0
  -27.2295  -37.1498   25.8872 H   0  0  0  0  0  0
  -20.9321  -29.8785   21.6953 H   0  0  0  0  0  0
  -26.0188  -38.2876   24.1392 H   0  0  0  0  0  0
  -29.5038  -17.5226   18.0500 H   0  0  0  0  0  0
  -29.2117  -19.1194   17.3869 H   0  0  0  0  0  0
  -27.8968  -18.2210   18.1319 H   0  0  0  0  0  0
  -30.7512  -25.4930   20.2722 H   0  0  0  0  0  0
  -30.8974  -25.7326   22.0128 H   0  0  0  0  0  0
  -30.7426  -27.1195   20.9416 H   0  0  0  0  0  0
  -31.5714  -17.2591   21.2580 H   0  0  0  0  0  0
  -31.1447  -17.0354   19.6097 H   0  0  0  0  0  0
  -28.9653  -15.8607   20.5248 H   0  0  0  0  0  0
  -28.7962  -24.3975   22.6201 H   0  0  0  0  0  0
  -28.6242  -26.7086   22.0770 H   0  0  0  0  0  0
  -29.0294  -22.3100   22.4311 H   0  0  0  0  0  0
  -26.5736  -24.8718   21.0227 H   0  0  0  0  0  0
  1 25  1  0  0  0
  1 30  2  0  0  0
  1 78  1  0  0  0
  2  3  1  0  0  0
  2 25  1  0  0  0
  2 87  1  0  0  0
  2 88  1  0  0  0
  3  4  1  0  0  0
  3 89  1  0  0  0
  3 90  1  0  0  0
  4  5  1  0  0  0
  4 91  1  0  0  0
  4 92  1  0  0  0
  5  6  1  0  0  0
  5 26  1  0  0  0
  5 93  1  0  0  0
  6 25  1  0  0  0
  6 94  1  0  0  0
  6 95  1  0  0  0
  7  8  2  0  0  0
  7 26  1  0  0  0
  7 29  1  0  0  0
  8  9  1  0  0  0
  8 22  1  0  0  0
  9 10  1  0  0  0
  9 27  2  0  0  0
 10 11  2  0  0  0
 10 15  1  0  0  0
 11 12  1  0  0  0
 11 96  1  0  0  0
 12 13  2  0  0  0
 12 97  1  0  0  0
 13 14  1  0  0  0
 13 31  1  0  0  0
 14 15  2  0  0  0
 14 98  1  0  0  0
 15 99  1  0  0  0
 16 17  2  0  0  0
 16 21  1  0  0  0
 16 31  1  0  0  0
 17 18  1  0  0  0
 17100  1  0  0  0
 18 19  2  0  0  0
 18101  1  0  0  0
 19 20  1  0  0  0
 19 24  1  0  0  0
 20 21  2  0  0  0
 20102  1  0  0  0
 21 23  1  0  0  0
 22 28  1  0  0  0
 22 32  2  0  0  0
 26 27  1  0  0  0
 28103  1  0  0  0
 28104  1  0  0  0
 29105  1  0  0  0
 29106  1  0  0  0
 33 34  1  0  0  0
 33 66  1  0  0  0
 33 70  2  0  0  0
 34 36  1  0  0  0
 34 59  1  0  0  0
 34107  1  0  0  0
 35 44  2  0  0  0
 35 45  1  0  0  0
 35 68  1  0  0  0
 36 56  1  0  0  0
 36108  1  0  0  0
 37 39  1  0  0  0
 37 47  1  0  0  0
 37 66  1  0  0  0
 37109  1  0  0  0
 38 43  2  0  0  0
 38 46  1  0  0  0
 38 47  1  0  0  0
 39 64  1  0  0  0
 39 67  2  0  0  0
 40 52  1  0  0  0
 40 53  2  0  0  0
 40 58  1  0  0  0
 41110  1  0  0  0
 41111  1  0  0  0
 41112  1  0  0  0
 41 48  1  0  0  0
 42 43  1  0  0  0
 42 66  1  0  0  0
 42113  1  0  0  0
 42114  1  0  0  0
 43 44  1  0  0  0
 44115  1  0  0  0
 45 46  2  0  0  0
 45116  1  0  0  0
 46117  1  0  0  0
 47118  1  0  0  0
 47119  1  0  0  0
 48 56  1  0  0  0
 48 65  1  0  0  0
 48120  1  0  0  0
 49 50  1  0  0  0
 49 53  1  0  0  0
 49 64  1  0  0  0
 49121  1  0  0  0
 50 51  1  0  0  0
 50122  1  0  0  0
 50123  1  0  0  0
 51 52  1  0  0  0
 51124  1  0  0  0
 51125  1  0  0  0
 52126  1  0  0  0
 52127  1  0  0  0
 53 54  1  0  0  0
 54 55  2  0  0  0
 54128  1  0  0  0
 55 57  1  0  0  0
 55129  1  0  0  0
 56 69  2  0  0  0
 57 58  2  0  0  0
 57130  1  0  0  0
 58131  1  0  0  0
 59 60  1  0  0  0
 59 61  1  0  0  0
 59 62  1  0  0  0
 60132  1  0  0  0
 60133  1  0  0  0
 60134  1  0  0  0
 61135  1  0  0  0
 61136  1  0  0  0
 61137  1  0  0  0
 62138  1  0  0  0
 62139  1  0  0  0
 62140  1  0  0  0
 63 65  1  0  0  0
 63141  1  0  0  0
 63142  1  0  0  0
 63143  1  0  0  0
 64144  1  0  0  0
 65145  1  0  0  0
 68 80  1  0  0  0
 71 72  2  0  0  0
 71 75  1  0  0  0
 71 81  1  0  0  0
 72 77  1  0  0  0
 72 86  1  0  0  0
 73 81  2  0  0  0
 73 82  1  0  0  0
 73 86  1  0  0  0
 74 79  1  0  0  0
 74 82  1  0  0  0
 74 83  2  0  0  0
 75146  1  0  0  0
 75147  1  0  0  0
 75148  1  0  0  0
 76149  1  0  0  0
 76150  1  0  0  0
 76151  1  0  0  0
 76 80  1  0  0  0
 77 78  1  0  0  0
 77152  1  0  0  0
 77153  1  0  0  0
 78 85  1  0  0  0
 78154  1  0  0  0
 79 80  1  0  0  0
 79 84  1  0  0  0
 79155  1  0  0  0
 80156  1  0  0  0
 82157  1  0  0  0
 84158  1  0  0  0
M  ISO  4   1 100  68 101  78 100  80 101
M  END
> <chiral flag>
0

> <version>
0

> <s_m_source_file>
/data/baiqing/PycharmProjects/Reinvent-master-3.2/result/LINK_invent/BTK/process_docking_weight1_custom_product_contain_oxygen_bond_distance_aromatic_linkinvent_7_9_3/rearranged_h_0188.sdf

> <i_m_source_file_index>
14

> <r_mmod_Potential_Energy-OPLS-2005>
-65.1829223632812

> <r_mmod_Stretch_Energy-OPLS-2005>
47.5452690124512

> <r_mmod_Bend_Energy-OPLS-2005>
125.166938781738

> <r_mmod_Torsional_Energy-OPLS-2005>
195.067245483398

> <r_mmod_Improper_Torsional_Energy-OPLS-2005>
4.48516035079956

> <r_mmod_Van_der_Waal_Energy-OPLS-2005>
112.510620117188

> <r_mmod_Electrostatic_Energy-OPLS-2005>
-328.604675292969

> <r_mmod_Solvation_Energy-OPLS-2005>
-242.657638549805

> <b_mmod_Minimization_Converged-OPLS-2005>
0

> <r_mmod_RMS_Derivative-OPLS-2005>
0.665837049484253

$$$$
15
                    3D
 Structure written by MMmdl.
149157  0  0  1  0            999 V2000
  -30.6085  -14.7372   20.4430 C   0  0  0  0  0  0
  -30.4338  -12.4417   19.4820 C   0  0  0  0  0  0
  -29.5144  -12.4993   18.2404 C   0  0  0  0  0  0
  -28.0382  -12.3202   18.6476 C   0  0  0  0  0  0
  -27.6390  -13.2249   19.8424 C   0  0  2  0  0  0
  -28.6806  -13.1621   20.9797 C   0  0  0  0  0  0
  -25.2519  -13.8176   20.5684 C   0  0  0  0  0  0
  -24.1805  -13.0432   20.9205 C   0  0  0  0  0  0
  -24.6382  -11.6907   20.8740 C   0  0  0  0  0  0
  -23.9057  -10.4289   21.0407 C   0  0  0  0  0  0
  -24.3612   -9.4205   21.9184 C   0  0  0  0  0  0
  -23.6292   -8.2237   22.0749 C   0  0  0  0  0  0
  -22.4273   -8.0273   21.3541 C   0  0  0  0  0  0
  -21.9907   -9.0243   20.4643 C   0  0  0  0  0  0
  -22.7230  -10.2127   20.3055 C   0  0  0  0  0  0
  -21.6851   -6.0734   22.5282 C   0  0  0  0  0  0
  -21.4013   -6.5640   23.8215 C   0  0  0  0  0  0
  -21.3662   -5.6793   24.9177 C   0  0  0  0  0  0
  -21.6042   -4.3053   24.7229 C   0  0  0  0  0  0
  -21.8818   -3.8148   23.4349 C   0  0  0  0  0  0
  -21.9193   -4.6963   22.3405 C   0  0  0  0  0  0
  -22.7831  -13.5221   21.1875 C   0  0  0  0  0  0
  -22.1662   -4.2150   21.0981 F   0  0  0  0  0  0
  -21.5633   -3.4535   25.7741 F   0  0  0  0  0  0
  -29.9902  -13.5055   20.4121 N   0  0  0  0  0  0
  -26.2922  -12.9365   20.3232 N   0  0  0  0  0  0
  -25.9305  -11.6515   20.5725 N   0  0  0  0  0  0
  -22.0477  -12.8210   22.0432 N   0  0  0  0  0  0
  -25.4219  -15.1900   20.4114 N   0  0  0  0  0  0
  -31.8096  -14.8054   20.1653 O   0  0  0  0  0  0
  -21.6638   -6.8872   21.4240 O   0  0  0  0  0  0
  -22.3517  -14.5526   20.6721 O   0  0  0  0  0  0
  -24.6294  -31.8561   23.1984 C   0  0  0  0  0  0
  -25.9127  -32.4760   23.8327 C   0  0  1  0  0  0
  -27.2224  -27.2816   20.1354 C   0  0  0  0  0  0
  -25.5928  -33.8563   24.2257 N   0  0  0  0  0  0
  -23.4255  -30.4771   21.5415 C   0  0  2  0  0  0
  -24.8741  -28.9196   20.1167 C   0  0  0  0  0  0
  -22.7490  -29.4605   22.4922 C   0  0  0  0  0  0
  -18.0291  -28.1386   22.8485 C   0  0  0  0  0  0
  -24.1490  -36.7286   23.2638 C   0  0  0  0  0  0
  -25.9688  -30.7761   21.3736 C   0  0  0  0  0  0
  -26.0448  -29.3974   20.7215 C   0  0  0  0  0  0
  -27.2266  -28.5918   20.7157 C   0  0  0  0  0  0
  -26.0315  -26.8570   19.5142 C   0  0  0  0  0  0
  -24.8706  -27.6560   19.5030 C   0  0  0  0  0  0
  -23.6442  -29.8058   20.1597 C   0  0  0  0  0  0
  -25.4117  -36.3075   24.0325 C   0  0  1  0  0  0
  -20.5892  -28.3697   23.1275 C   0  0  2  0  0  0
  -20.6780  -26.9417   22.5410 C   0  0  0  0  0  0
  -19.5756  -26.6385   21.5213 C   0  0  0  0  0  0
  -18.1935  -26.7929   22.1624 C   0  0  0  0  0  0
  -19.1543  -28.8858   23.2876 C   0  0  0  0  0  0
  -18.9463  -30.1456   23.8896 C   0  0  0  0  0  0
  -17.6462  -30.6589   24.0562 C   0  0  0  0  0  0
  -25.9056  -34.9445   23.5096 C   0  0  0  0  0  0
  -16.5354  -29.9086   23.6329 C   0  0  0  0  0  0
  -16.7276  -28.6503   23.0353 C   0  0  0  0  0  0
  -26.4504  -31.6576   25.0707 C   0  0  0  0  0  0
  -25.3732  -31.3721   26.1431 C   0  0  0  0  0  0
  -27.0348  -30.2994   24.6178 C   0  0  0  0  0  0
  -27.6055  -32.4316   25.7486 C   0  0  0  0  0  0
  -27.5581  -37.1799   24.8465 C   0  0  0  0  0  0
  -21.4201  -29.3043   22.3664 N   0  0  0  0  0  0
  -26.4294  -37.3773   23.9407 N   0  0  0  0  0  0
  -24.6935  -31.0538   22.0949 N   0  0  0  0  0  0
  -23.4194  -28.8152   23.3023 O   0  0  0  0  0  0
  -28.3205  -26.4031   20.1124 O   0  0  0  0  0  0
  -26.5629  -34.8918   22.4667 O   0  0  0  0  0  0
  -23.5451  -32.1376   23.7292 O   0  0  0  0  0  0
  -29.5942  -18.6476   20.4565 C   0  0  0  0  0  0
  -28.3289  -19.0563   20.0684 C   0  0  0  0  0  0
  -29.0955  -21.2077   20.5089 C   0  0  0  0  0  0
  -30.2153  -17.2844   20.5110 C   0  0  0  0  0  0
  -29.7482  -15.9782   20.5527 C   0  0  0  0  0  0
  -28.3999  -23.7259   20.1512 C   0  0  0  0  0  0
  -29.2478  -25.2984   22.0537 C   0  0  0  0  0  0
  -28.2374  -25.1387   20.9063 C   0  0  1  0  0  0
  -28.0643  -20.4592   20.0746 N   0  0  0  0  0  0
  -29.0282  -22.6614   20.7761 N   0  0  0  0  0  0
  -27.9380  -23.6158   19.0122 O   0  0  0  0  0  0
  -27.4145  -18.1996   19.6749 F   0  0  0  0  0  0
  -30.4776  -20.1259   20.9331 S   0  0  0  0  0  0
  -31.4765  -12.5587   19.1818 H   0  0  0  0  0  0
  -30.3718  -11.4652   19.9652 H   0  0  0  0  0  0
  -29.8001  -11.7292   17.5228 H   0  0  0  0  0  0
  -29.6422  -13.4559   17.7315 H   0  0  0  0  0  0
  -27.8968  -11.2723   18.9144 H   0  0  0  0  0  0
  -27.3833  -12.5064   17.7955 H   0  0  0  0  0  0
  -27.6279  -14.2408   19.4500 H   0  0  0  0  0  0
  -28.7102  -12.1663   21.4236 H   0  0  0  0  0  0
  -28.4149  -13.8447   21.7885 H   0  0  0  0  0  0
  -25.2754   -9.5683   22.4766 H   0  0  0  0  0  0
  -24.0001   -7.4625   22.7464 H   0  0  0  0  0  0
  -21.0841   -8.8753   19.8949 H   0  0  0  0  0  0
  -22.3677  -10.9665   19.6168 H   0  0  0  0  0  0
  -21.2000   -7.6147   23.9716 H   0  0  0  0  0  0
  -21.1492   -6.0526   25.9081 H   0  0  0  0  0  0
  -22.0596   -2.7610   23.2848 H   0  0  0  0  0  0
  -22.4095  -11.9871   22.4819 H   0  0  0  0  0  0
  -21.1095  -13.1231   22.2633 H   0  0  0  0  0  0
  -24.6528  -15.8417   20.5228 H   0  0  0  0  0  0
  -26.2693  -15.6340   20.0813 H   0  0  0  0  0  0
  -26.7194  -32.5423   23.1070 H   0  0  0  0  0  0
  -25.0068  -33.9701   25.0398 H   0  0  0  0  0  0
  -22.7213  -31.2986   21.3936 H   0  0  0  0  0  0
  -23.3754  -35.9617   23.3302 H   0  0  0  0  0  0
  -24.3575  -36.8909   22.2052 H   0  0  0  0  0  0
  -23.7242  -37.6487   23.6663 H   0  0  0  0  0  0
  -26.1013  -31.5354   20.6015 H   0  0  0  0  0  0
  -26.8484  -30.8294   22.0036 H   0  0  0  0  0  0
  -28.1298  -28.9567   21.1847 H   0  0  0  0  0  0
  -25.9980  -25.8852   19.0415 H   0  0  0  0  0  0
  -23.9736  -27.2847   19.0264 H   0  0  0  0  0  0
  -23.7681  -30.5792   19.4008 H   0  0  0  0  0  0
  -22.7630  -29.2374   19.8567 H   0  0  0  0  0  0
  -25.1301  -36.1921   25.0818 H   0  0  0  0  0  0
  -20.9984  -28.3273   24.1395 H   0  0  0  0  0  0
  -20.5679  -26.2307   23.3613 H   0  0  0  0  0  0
  -21.6646  -26.7443   22.1201 H   0  0  0  0  0  0
  -19.6916  -25.6294   21.1245 H   0  0  0  0  0  0
  -19.6692  -27.3192   20.6741 H   0  0  0  0  0  0
  -17.4205  -26.6674   21.4028 H   0  0  0  0  0  0
  -18.0335  -26.0070   22.9020 H   0  0  0  0  0  0
  -19.7939  -30.7272   24.2265 H   0  0  0  0  0  0
  -17.5018  -31.6270   24.5160 H   0  0  0  0  0  0
  -15.5354  -30.2988   23.7655 H   0  0  0  0  0  0
  -15.8675  -28.0820   22.7072 H   0  0  0  0  0  0
  -24.5898  -30.7084   25.7749 H   0  0  0  0  0  0
  -24.8938  -32.2894   26.4861 H   0  0  0  0  0  0
  -25.8049  -30.8883   27.0202 H   0  0  0  0  0  0
  -26.2925  -29.6738   24.1206 H   0  0  0  0  0  0
  -27.4040  -29.7255   25.4687 H   0  0  0  0  0  0
  -27.8797  -30.4267   23.9407 H   0  0  0  0  0  0
  -27.2657  -33.3614   26.2062 H   0  0  0  0  0  0
  -28.3871  -32.6881   25.0321 H   0  0  0  0  0  0
  -28.0721  -31.8444   26.5406 H   0  0  0  0  0  0
  -28.2597  -38.0099   24.7515 H   0  0  0  0  0  0
  -28.1081  -36.2630   24.6289 H   0  0  0  0  0  0
  -27.2299  -37.1445   25.8868 H   0  0  0  0  0  0
  -20.9386  -29.8758   21.6863 H   0  0  0  0  0  0
  -26.0172  -38.2847   24.1411 H   0  0  0  0  0  0
  -31.2932  -17.3542   20.4561 H   0  0  0  0  0  0
  -28.6805  -15.8514   20.6279 H   0  0  0  0  0  0
  -29.1595  -24.4973   22.7882 H   0  0  0  0  0  0
  -29.0805  -26.2360   22.5842 H   0  0  0  0  0  0
  -30.2719  -25.3094   21.6798 H   0  0  0  0  0  0
  -27.2471  -25.0945   21.3627 H   0  0  0  0  0  0
  -29.5303  -22.9390   21.6068 H   0  0  0  0  0  0
  1 25  1  0  0  0
  1 30  2  0  0  0
  1 75  1  0  0  0
  2  3  1  0  0  0
  2 25  1  0  0  0
  2 84  1  0  0  0
  2 85  1  0  0  0
  3  4  1  0  0  0
  3 86  1  0  0  0
  3 87  1  0  0  0
  4  5  1  0  0  0
  4 88  1  0  0  0
  4 89  1  0  0  0
  5  6  1  0  0  0
  5 26  1  0  0  0
  5 90  1  0  0  0
  6 25  1  0  0  0
  6 91  1  0  0  0
  6 92  1  0  0  0
  7  8  2  0  0  0
  7 26  1  0  0  0
  7 29  1  0  0  0
  8  9  1  0  0  0
  8 22  1  0  0  0
  9 10  1  0  0  0
  9 27  2  0  0  0
 10 11  2  0  0  0
 10 15  1  0  0  0
 11 12  1  0  0  0
 11 93  1  0  0  0
 12 13  2  0  0  0
 12 94  1  0  0  0
 13 14  1  0  0  0
 13 31  1  0  0  0
 14 15  2  0  0  0
 14 95  1  0  0  0
 15 96  1  0  0  0
 16 17  2  0  0  0
 16 21  1  0  0  0
 16 31  1  0  0  0
 17 18  1  0  0  0
 17 97  1  0  0  0
 18 19  2  0  0  0
 18 98  1  0  0  0
 19 20  1  0  0  0
 19 24  1  0  0  0
 20 21  2  0  0  0
 20 99  1  0  0  0
 21 23  1  0  0  0
 22 28  1  0  0  0
 22 32  2  0  0  0
 26 27  1  0  0  0
 28100  1  0  0  0
 28101  1  0  0  0
 29102  1  0  0  0
 29103  1  0  0  0
 33 34  1  0  0  0
 33 66  1  0  0  0
 33 70  2  0  0  0
 34 36  1  0  0  0
 34 59  1  0  0  0
 34104  1  0  0  0
 35 44  2  0  0  0
 35 45  1  0  0  0
 35 68  1  0  0  0
 36 56  1  0  0  0
 36105  1  0  0  0
 37 39  1  0  0  0
 37 47  1  0  0  0
 37 66  1  0  0  0
 37106  1  0  0  0
 38 43  2  0  0  0
 38 46  1  0  0  0
 38 47  1  0  0  0
 39 64  1  0  0  0
 39 67  2  0  0  0
 40 52  1  0  0  0
 40 53  2  0  0  0
 40 58  1  0  0  0
 41107  1  0  0  0
 41108  1  0  0  0
 41109  1  0  0  0
 41 48  1  0  0  0
 42 43  1  0  0  0
 42 66  1  0  0  0
 42110  1  0  0  0
 42111  1  0  0  0
 43 44  1  0  0  0
 44112  1  0  0  0
 45 46  2  0  0  0
 45113  1  0  0  0
 46114  1  0  0  0
 47115  1  0  0  0
 47116  1  0  0  0
 48 56  1  0  0  0
 48 65  1  0  0  0
 48117  1  0  0  0
 49 50  1  0  0  0
 49 53  1  0  0  0
 49 64  1  0  0  0
 49118  1  0  0  0
 50 51  1  0  0  0
 50119  1  0  0  0
 50120  1  0  0  0
 51 52  1  0  0  0
 51121  1  0  0  0
 51122  1  0  0  0
 52123  1  0  0  0
 52124  1  0  0  0
 53 54  1  0  0  0
 54 55  2  0  0  0
 54125  1  0  0  0
 55 57  1  0  0  0
 55126  1  0  0  0
 56 69  2  0  0  0
 57 58  2  0  0  0
 57127  1  0  0  0
 58128  1  0  0  0
 59 60  1  0  0  0
 59 61  1  0  0  0
 59 62  1  0  0  0
 60129  1  0  0  0
 60130  1  0  0  0
 60131  1  0  0  0
 61132  1  0  0  0
 61133  1  0  0  0
 61134  1  0  0  0
 62135  1  0  0  0
 62136  1  0  0  0
 62137  1  0  0  0
 63 65  1  0  0  0
 63138  1  0  0  0
 63139  1  0  0  0
 63140  1  0  0  0
 64141  1  0  0  0
 65142  1  0  0  0
 68 78  1  0  0  0
 71 72  2  0  0  0
 71 74  1  0  0  0
 71 83  1  0  0  0
 72 79  1  0  0  0
 72 82  1  0  0  0
 73 79  2  0  0  0
 73 80  1  0  0  0
 73 83  1  0  0  0
 74 75  2  0  0  0
 74143  1  0  0  0
 75144  1  0  0  0
 76 78  1  0  0  0
 76 80  1  0  0  0
 76 81  2  0  0  0
 77145  1  0  0  0
 77146  1  0  0  0
 77147  1  0  0  0
 77 78  1  0  0  0
 78148  1  0  0  0
 80149  1  0  0  0
M  ISO  4   1 100  68 101  75 100  78 101
M  END
> <chiral flag>
0

> <version>
0

> <s_m_source_file>
/data/baiqing/PycharmProjects/Reinvent-master-3.2/result/LINK_invent/BTK/process_docking_weight1_custom_product_contain_oxygen_bond_distance_aromatic_linkinvent_7_9_3/rearranged_h_0188.sdf

> <i_m_source_file_index>
15

> <r_mmod_Potential_Energy-OPLS-2005>
109.185188293457

> <r_mmod_Stretch_Energy-OPLS-2005>
103.412391662598

> <r_mmod_Bend_Energy-OPLS-2005>
156.256286621094

> <r_mmod_Torsional_Energy-OPLS-2005>
234.991851806641

> <r_mmod_Improper_Torsional_Energy-OPLS-2005>
6.88980960845947

> <r_mmod_Van_der_Waal_Energy-OPLS-2005>
113.214637756348

> <r_mmod_Electrostatic_Energy-OPLS-2005>
-351.519805908203

> <r_mmod_Solvation_Energy-OPLS-2005>
-231.180099487305

> <b_mmod_Minimization_Converged-OPLS-2005>
0

> <r_mmod_RMS_Derivative-OPLS-2005>
0.647722125053406

$$$$
16
                    3D
 Structure written by MMmdl.
154162  0  0  1  0            999 V2000
  -30.6668  -14.5091   20.5662 C   0  0  0  0  0  0
  -30.4332  -12.3255   19.4254 C   0  0  0  0  0  0
  -29.4997  -12.5094   18.2092 C   0  0  0  0  0  0
  -28.0202  -12.3625   18.6203 C   0  0  0  0  0  0
  -27.6625  -13.2031   19.8748 C   0  0  2  0  0  0
  -28.7040  -12.9798   20.9951 C   0  0  0  0  0  0
  -25.2601  -13.8150   20.5680 C   0  0  0  0  0  0
  -24.1845  -13.0436   20.9176 C   0  0  0  0  0  0
  -24.6388  -11.6899   20.8729 C   0  0  0  0  0  0
  -23.9049  -10.4290   21.0403 C   0  0  0  0  0  0
  -24.3604   -9.4207   21.9182 C   0  0  0  0  0  0
  -23.6285   -8.2242   22.0753 C   0  0  0  0  0  0
  -22.4266   -8.0278   21.3544 C   0  0  0  0  0  0
  -21.9897   -9.0252   20.4650 C   0  0  0  0  0  0
  -22.7221  -10.2133   20.3057 C   0  0  0  0  0  0
  -21.6853   -6.0733   22.5280 C   0  0  0  0  0  0
  -21.4014   -6.5636   23.8212 C   0  0  0  0  0  0
  -21.3658   -5.6789   24.9174 C   0  0  0  0  0  0
  -21.6044   -4.3053   24.7224 C   0  0  0  0  0  0
  -21.8819   -3.8143   23.4347 C   0  0  0  0  0  0
  -21.9193   -4.6961   22.3406 C   0  0  0  0  0  0
  -22.7869  -13.5245   21.1840 C   0  0  0  0  0  0
  -22.1661   -4.2146   21.0984 F   0  0  0  0  0  0
  -21.5628   -3.4537   25.7736 F   0  0  0  0  0  0
  -30.0344  -13.3060   20.4486 N   0  0  0  0  0  0
  -26.3026  -12.9309   20.3352 N   0  0  0  0  0  0
  -25.9313  -11.6473   20.5752 N   0  0  0  0  0  0
  -22.0503  -12.8248   22.0398 N   0  0  0  0  0  0
  -25.4345  -15.1868   20.4096 N   0  0  0  0  0  0
  -31.7959  -14.7067   20.1028 O   0  0  0  0  0  0
  -21.6636   -6.8874   21.4240 O   0  0  0  0  0  0
  -22.3563  -14.5555   20.6689 O   0  0  0  0  0  0
  -24.6164  -31.8660   23.2083 C   0  0  0  0  0  0
  -25.9050  -32.4813   23.8386 C   0  0  1  0  0  0
  -27.2341  -27.4201   20.1045 C   0  0  0  0  0  0
  -25.5902  -33.8611   24.2322 N   0  0  0  0  0  0
  -23.4062  -30.4886   21.5485 C   0  0  2  0  0  0
  -24.8552  -28.9516   20.1147 C   0  0  0  0  0  0
  -22.7423  -29.4647   22.4978 C   0  0  0  0  0  0
  -18.0274  -28.1376   22.8489 C   0  0  0  0  0  0
  -24.1487  -36.7312   23.2637 C   0  0  0  0  0  0
  -25.9364  -30.8282   21.3636 C   0  0  0  0  0  0
  -26.0163  -29.4613   20.7111 C   0  0  0  0  0  0
  -27.2130  -28.7040   20.7001 C   0  0  0  0  0  0
  -26.0596  -26.9281   19.4999 C   0  0  0  0  0  0
  -24.8721  -27.6849   19.5043 C   0  0  0  0  0  0
  -23.6166  -29.8189   20.1641 C   0  0  0  0  0  0
  -25.4106  -36.3110   24.0340 C   0  0  1  0  0  0
  -20.5866  -28.3667   23.1314 C   0  0  2  0  0  0
  -20.6765  -26.9400   22.5421 C   0  0  0  0  0  0
  -19.5747  -26.6383   21.5213 C   0  0  0  0  0  0
  -18.1923  -26.7924   22.1618 C   0  0  0  0  0  0
  -19.1523  -28.8837   23.2897 C   0  0  0  0  0  0
  -18.9449  -30.1442   23.8908 C   0  0  0  0  0  0
  -17.6451  -30.6584   24.0561 C   0  0  0  0  0  0
  -25.9034  -34.9472   23.5129 C   0  0  0  0  0  0
  -16.5343  -29.9083   23.6327 C   0  0  0  0  0  0
  -16.7264  -28.6500   23.0349 C   0  0  0  0  0  0
  -26.4479  -31.6592   25.0715 C   0  0  0  0  0  0
  -25.3749  -31.3712   26.1470 C   0  0  0  0  0  0
  -27.0299  -30.3025   24.6098 C   0  0  0  0  0  0
  -27.6063  -32.4305   25.7470 C   0  0  0  0  0  0
  -27.5588  -37.1800   24.8459 C   0  0  0  0  0  0
  -21.4147  -29.3032   22.3719 N   0  0  0  0  0  0
  -26.4293  -37.3794   23.9417 N   0  0  0  0  0  0
  -24.6711  -31.0751   22.0986 N   0  0  0  0  0  0
  -23.4186  -28.8188   23.3026 O   0  0  0  0  0  0
  -28.3698  -26.6356   20.1002 O   0  0  0  0  0  0
  -26.5592  -34.8926   22.4689 O   0  0  0  0  0  0
  -23.5350  -32.1412   23.7468 O   0  0  0  0  0  0
  -30.8209  -19.0053   20.6482 C   0  0  0  0  0  0
  -29.6723  -19.3724   21.3218 C   0  0  0  0  0  0
  -30.0023  -16.9051   21.0832 C   0  0  0  0  0  0
  -29.1925  -21.9398   20.8327 C   0  0  0  0  0  0
  -28.8390  -24.1912   20.3553 C   0  0  0  0  0  0
  -31.8852  -19.9154   20.1151 C   0  0  0  0  0  0
  -29.1449  -25.8981   22.2479 C   0  0  0  0  0  0
  -29.1970  -20.7401   21.7948 C   0  0  0  0  0  0
  -28.3224  -25.5090   21.0072 C   0  0  1  0  0  0
  -30.9866  -17.6120   20.5115 N   0  0  0  0  0  0
  -28.8114  -23.1009   21.2303 N   0  0  0  0  0  0
  -29.9135  -15.4775   21.1327 N   0  0  0  0  0  0
  -29.2064  -24.1964   19.1775 O   0  0  0  0  0  0
  -28.7631  -17.9419   21.7877 S   0  0  0  0  0  0
  -31.4758  -12.4399   19.1230 H   0  0  0  0  0  0
  -30.3490  -11.3131   19.8237 H   0  0  0  0  0  0
  -29.7444  -11.7827   17.4333 H   0  0  0  0  0  0
  -29.6609  -13.4937   17.7667 H   0  0  0  0  0  0
  -27.8352  -11.3062   18.8190 H   0  0  0  0  0  0
  -27.3693  -12.6322   17.7879 H   0  0  0  0  0  0
  -27.7063  -14.2506   19.5762 H   0  0  0  0  0  0
  -28.6896  -11.9387   21.3214 H   0  0  0  0  0  0
  -28.4553  -13.5600   21.8846 H   0  0  0  0  0  0
  -25.2752   -9.5686   22.4750 H   0  0  0  0  0  0
  -23.9999   -7.4634   22.7469 H   0  0  0  0  0  0
  -21.0829   -8.8769   19.8959 H   0  0  0  0  0  0
  -22.3677  -10.9670   19.6165 H   0  0  0  0  0  0
  -21.2007   -7.6144   23.9714 H   0  0  0  0  0  0
  -21.1480   -6.0519   25.9075 H   0  0  0  0  0  0
  -22.0599   -2.7606   23.2848 H   0  0  0  0  0  0
  -22.4103  -11.9907   22.4797 H   0  0  0  0  0  0
  -21.1128  -13.1294   22.2603 H   0  0  0  0  0  0
  -24.6675  -15.8422   20.5160 H   0  0  0  0  0  0
  -26.2827  -15.6230   20.0717 H   0  0  0  0  0  0
  -26.7122  -32.5529   23.1151 H   0  0  0  0  0  0
  -25.0074  -33.9769   25.0483 H   0  0  0  0  0  0
  -22.6954  -31.3055   21.4077 H   0  0  0  0  0  0
  -23.3751  -35.9642   23.3298 H   0  0  0  0  0  0
  -24.3583  -36.8924   22.2051 H   0  0  0  0  0  0
  -23.7232  -37.6517   23.6645 H   0  0  0  0  0  0
  -26.0498  -31.5942   20.5951 H   0  0  0  0  0  0
  -26.8236  -30.8823   21.9830 H   0  0  0  0  0  0
  -28.1105  -29.0906   21.1621 H   0  0  0  0  0  0
  -26.0641  -25.9535   19.0319 H   0  0  0  0  0  0
  -23.9803  -27.2867   19.0401 H   0  0  0  0  0  0
  -23.7235  -30.5927   19.4028 H   0  0  0  0  0  0
  -22.7413  -29.2372   19.8693 H   0  0  0  0  0  0
  -25.1278  -36.1976   25.0833 H   0  0  0  0  0  0
  -20.9957  -28.3234   24.1434 H   0  0  0  0  0  0
  -20.5668  -26.2271   23.3608 H   0  0  0  0  0  0
  -21.6636  -26.7441   22.1216 H   0  0  0  0  0  0
  -19.6909  -25.6296   21.1236 H   0  0  0  0  0  0
  -19.6695  -27.3200   20.6750 H   0  0  0  0  0  0
  -17.4198  -26.6679   21.4013 H   0  0  0  0  0  0
  -18.0317  -26.0061   22.9009 H   0  0  0  0  0  0
  -19.7924  -30.7250   24.2291 H   0  0  0  0  0  0
  -17.5009  -31.6267   24.5157 H   0  0  0  0  0  0
  -15.5344  -30.2988   23.7644 H   0  0  0  0  0  0
  -15.8664  -28.0825   22.7056 H   0  0  0  0  0  0
  -24.5910  -30.7069   25.7816 H   0  0  0  0  0  0
  -24.8956  -32.2874   26.4927 H   0  0  0  0  0  0
  -25.8105  -30.8875   27.0221 H   0  0  0  0  0  0
  -26.2835  -29.6791   24.1159 H   0  0  0  0  0  0
  -27.4065  -29.7259   25.4557 H   0  0  0  0  0  0
  -27.8677  -30.4329   23.9245 H   0  0  0  0  0  0
  -27.2692  -33.3594   26.2084 H   0  0  0  0  0  0
  -28.3852  -32.6882   25.0281 H   0  0  0  0  0  0
  -28.0758  -31.8407   26.5353 H   0  0  0  0  0  0
  -28.2599  -38.0105   24.7525 H   0  0  0  0  0  0
  -28.1088  -36.2636   24.6253 H   0  0  0  0  0  0
  -27.2312  -37.1421   25.8864 H   0  0  0  0  0  0
  -20.9307  -29.8751   21.6939 H   0  0  0  0  0  0
  -26.0185  -38.2873   24.1426 H   0  0  0  0  0  0
  -29.5345  -21.7243   19.8157 H   0  0  0  0  0  0
  -32.0719  -20.7496   20.7918 H   0  0  0  0  0  0
  -31.6018  -20.3302   19.1478 H   0  0  0  0  0  0
  -32.8326  -19.3929   19.9815 H   0  0  0  0  0  0
  -29.0924  -25.1328   23.0227 H   0  0  0  0  0  0
  -28.7753  -26.8255   22.6846 H   0  0  0  0  0  0
  -30.1949  -26.0457   21.9942 H   0  0  0  0  0  0
  -29.8004  -21.0236   22.6574 H   0  0  0  0  0  0
  -28.1831  -20.6411   22.1836 H   0  0  0  0  0  0
  -27.2963  -25.3132   21.3267 H   0  0  0  0  0  0
  -29.0572  -15.1312   21.5348 H   0  0  0  0  0  0
  1 25  1  0  0  0
  1 30  2  0  0  0
  1 82  1  0  0  0
  2  3  1  0  0  0
  2 25  1  0  0  0
  2 85  1  0  0  0
  2 86  1  0  0  0
  3  4  1  0  0  0
  3 87  1  0  0  0
  3 88  1  0  0  0
  4  5  1  0  0  0
  4 89  1  0  0  0
  4 90  1  0  0  0
  5  6  1  0  0  0
  5 26  1  0  0  0
  5 91  1  0  0  0
  6 25  1  0  0  0
  6 92  1  0  0  0
  6 93  1  0  0  0
  7  8  2  0  0  0
  7 26  1  0  0  0
  7 29  1  0  0  0
  8  9  1  0  0  0
  8 22  1  0  0  0
  9 10  1  0  0  0
  9 27  2  0  0  0
 10 11  2  0  0  0
 10 15  1  0  0  0
 11 12  1  0  0  0
 11 94  1  0  0  0
 12 13  2  0  0  0
 12 95  1  0  0  0
 13 14  1  0  0  0
 13 31  1  0  0  0
 14 15  2  0  0  0
 14 96  1  0  0  0
 15 97  1  0  0  0
 16 17  2  0  0  0
 16 21  1  0  0  0
 16 31  1  0  0  0
 17 18  1  0  0  0
 17 98  1  0  0  0
 18 19  2  0  0  0
 18 99  1  0  0  0
 19 20  1  0  0  0
 19 24  1  0  0  0
 20 21  2  0  0  0
 20100  1  0  0  0
 21 23  1  0  0  0
 22 28  1  0  0  0
 22 32  2  0  0  0
 26 27  1  0  0  0
 28101  1  0  0  0
 28102  1  0  0  0
 29103  1  0  0  0
 29104  1  0  0  0
 33 34  1  0  0  0
 33 66  1  0  0  0
 33 70  2  0  0  0
 34 36  1  0  0  0
 34 59  1  0  0  0
 34105  1  0  0  0
 35 44  2  0  0  0
 35 45  1  0  0  0
 35 68  1  0  0  0
 36 56  1  0  0  0
 36106  1  0  0  0
 37 39  1  0  0  0
 37 47  1  0  0  0
 37 66  1  0  0  0
 37107  1  0  0  0
 38 43  2  0  0  0
 38 46  1  0  0  0
 38 47  1  0  0  0
 39 64  1  0  0  0
 39 67  2  0  0  0
 40 52  1  0  0  0
 40 53  2  0  0  0
 40 58  1  0  0  0
 41108  1  0  0  0
 41109  1  0  0  0
 41110  1  0  0  0
 41 48  1  0  0  0
 42 43  1  0  0  0
 42 66  1  0  0  0
 42111  1  0  0  0
 42112  1  0  0  0
 43 44  1  0  0  0
 44113  1  0  0  0
 45 46  2  0  0  0
 45114  1  0  0  0
 46115  1  0  0  0
 47116  1  0  0  0
 47117  1  0  0  0
 48 56  1  0  0  0
 48 65  1  0  0  0
 48118  1  0  0  0
 49 50  1  0  0  0
 49 53  1  0  0  0
 49 64  1  0  0  0
 49119  1  0  0  0
 50 51  1  0  0  0
 50120  1  0  0  0
 50121  1  0  0  0
 51 52  1  0  0  0
 51122  1  0  0  0
 51123  1  0  0  0
 52124  1  0  0  0
 52125  1  0  0  0
 53 54  1  0  0  0
 54 55  2  0  0  0
 54126  1  0  0  0
 55 57  1  0  0  0
 55127  1  0  0  0
 56 69  2  0  0  0
 57 58  2  0  0  0
 57128  1  0  0  0
 58129  1  0  0  0
 59 60  1  0  0  0
 59 61  1  0  0  0
 59 62  1  0  0  0
 60130  1  0  0  0
 60131  1  0  0  0
 60132  1  0  0  0
 61133  1  0  0  0
 61134  1  0  0  0
 61135  1  0  0  0
 62136  1  0  0  0
 62137  1  0  0  0
 62138  1  0  0  0
 63 65  1  0  0  0
 63139  1  0  0  0
 63140  1  0  0  0
 63141  1  0  0  0
 64142  1  0  0  0
 65143  1  0  0  0
 68 79  1  0  0  0
 71 72  2  0  0  0
 71 76  1  0  0  0
 71 80  1  0  0  0
 72 78  1  0  0  0
 72 84  1  0  0  0
 73 80  2  0  0  0
 73 82  1  0  0  0
 73 84  1  0  0  0
 74 78  1  0  0  0
 74 81  2  0  0  0
 74144  1  0  0  0
 75 79  1  0  0  0
 75 81  1  0  0  0
 75 83  2  0  0  0
 76145  1  0  0  0
 76146  1  0  0  0
 76147  1  0  0  0
 77148  1  0  0  0
 77149  1  0  0  0
 77150  1  0  0  0
 77 79  1  0  0  0
 78151  1  0  0  0
 78152  1  0  0  0
 79153  1  0  0  0
 82154  1  0  0  0
M  ISO  4   1 100  68 101  79 101  82 100
M  END
> <chiral flag>
0

> <version>
0

> <s_m_source_file>
/data/baiqing/PycharmProjects/Reinvent-master-3.2/result/LINK_invent/BTK/process_docking_weight1_custom_product_contain_oxygen_bond_distance_aromatic_linkinvent_7_9_3/rearranged_h_0188.sdf

> <i_m_source_file_index>
16

> <r_mmod_Potential_Energy-OPLS-2005>
-113.239318847656

> <r_mmod_Stretch_Energy-OPLS-2005>
42.381046295166

> <r_mmod_Bend_Energy-OPLS-2005>
116.755783081055

> <r_mmod_Torsional_Energy-OPLS-2005>
221.719360351562

> <r_mmod_Improper_Torsional_Energy-OPLS-2005>
3.43671894073486

> <r_mmod_Van_der_Waal_Energy-OPLS-2005>
128.366363525391

> <r_mmod_Electrostatic_Energy-OPLS-2005>
-414.911865234375

> <r_mmod_Solvation_Energy-OPLS-2005>
-227.049560546875

> <b_mmod_Minimization_Converged-OPLS-2005>
0

> <r_mmod_RMS_Derivative-OPLS-2005>
0.531051158905029

$$$$
17
                    3D
 Structure written by MMmdl.
159167  0  0  1  0            999 V2000
  -30.7155  -14.4657   20.5451 C   0  0  0  0  0  0
  -30.4134  -12.2858   19.4294 C   0  0  0  0  0  0
  -29.4844  -12.4830   18.2145 C   0  0  0  0  0  0
  -28.0090  -12.3467   18.6334 C   0  0  0  0  0  0
  -27.6616  -13.2025   19.8787 C   0  0  2  0  0  0
  -28.7075  -13.0035   21.0015 C   0  0  0  0  0  0
  -25.2595  -13.8180   20.5694 C   0  0  0  0  0  0
  -24.1842  -13.0447   20.9199 C   0  0  0  0  0  0
  -24.6395  -11.6919   20.8772 C   0  0  0  0  0  0
  -23.9060  -10.4297   21.0424 C   0  0  0  0  0  0
  -24.3612   -9.4209   21.9200 C   0  0  0  0  0  0
  -23.6280   -8.2248   22.0765 C   0  0  0  0  0  0
  -22.4267   -8.0287   21.3548 C   0  0  0  0  0  0
  -21.9906   -9.0268   20.4656 C   0  0  0  0  0  0
  -22.7234  -10.2148   20.3067 C   0  0  0  0  0  0
  -21.6854   -6.0735   22.5270 C   0  0  0  0  0  0
  -21.4014   -6.5634   23.8206 C   0  0  0  0  0  0
  -21.3662   -5.6783   24.9171 C   0  0  0  0  0  0
  -21.6043   -4.3043   24.7217 C   0  0  0  0  0  0
  -21.8821   -3.8143   23.4334 C   0  0  0  0  0  0
  -21.9187   -4.6958   22.3389 C   0  0  0  0  0  0
  -22.7866  -13.5246   21.1837 C   0  0  0  0  0  0
  -22.1657   -4.2147   21.0962 F   0  0  0  0  0  0
  -21.5632   -3.4524   25.7731 F   0  0  0  0  0  0
  -30.0371  -13.2890   20.4390 N   0  0  0  0  0  0
  -26.3030  -12.9328   20.3437 N   0  0  0  0  0  0
  -25.9318  -11.6502   20.5848 N   0  0  0  0  0  0
  -22.0517  -12.8234   22.0401 N   0  0  0  0  0  0
  -25.4338  -15.1893   20.4068 N   0  0  0  0  0  0
  -31.8564  -14.6083   20.0948 O   0  0  0  0  0  0
  -21.6634   -6.8887   21.4238 O   0  0  0  0  0  0
  -22.3549  -14.5550   20.6682 O   0  0  0  0  0  0
  -24.6189  -31.8665   23.2086 C   0  0  0  0  0  0
  -25.9068  -32.4816   23.8360 C   0  0  1  0  0  0
  -27.2188  -27.3815   20.0782 C   0  0  0  0  0  0
  -25.5920  -33.8616   24.2303 N   0  0  0  0  0  0
  -23.4076  -30.4899   21.5539 C   0  0  2  0  0  0
  -24.8475  -28.9512   20.1150 C   0  0  0  0  0  0
  -22.7454  -29.4624   22.5002 C   0  0  0  0  0  0
  -18.0305  -28.1332   22.8485 C   0  0  0  0  0  0
  -24.1503  -36.7288   23.2624 C   0  0  0  0  0  0
  -25.9458  -30.8079   21.3759 C   0  0  0  0  0  0
  -26.0150  -29.4451   20.7059 C   0  0  0  0  0  0
  -27.2047  -28.6695   20.6779 C   0  0  0  0  0  0
  -26.0170  -26.9047   19.5053 C   0  0  0  0  0  0
  -24.8437  -27.6825   19.5154 C   0  0  0  0  0  0
  -23.6173  -29.8280   20.1679 C   0  0  0  0  0  0
  -25.4125  -36.3092   24.0313 C   0  0  1  0  0  0
  -20.5902  -28.3620   23.1303 C   0  0  2  0  0  0
  -20.6808  -26.9349   22.5414 C   0  0  0  0  0  0
  -19.5799  -26.6353   21.5190 C   0  0  0  0  0  0
  -18.1966  -26.7879   22.1594 C   0  0  0  0  0  0
  -19.1555  -28.8792   23.2887 C   0  0  0  0  0  0
  -18.9488  -30.1411   23.8873 C   0  0  0  0  0  0
  -17.6488  -30.6557   24.0538 C   0  0  0  0  0  0
  -25.9055  -34.9471   23.5101 C   0  0  0  0  0  0
  -16.5386  -29.9042   23.6314 C   0  0  0  0  0  0
  -16.7287  -28.6463   23.0328 C   0  0  0  0  0  0
  -26.4489  -31.6618   25.0713 C   0  0  0  0  0  0
  -25.3712  -31.3761   26.1431 C   0  0  0  0  0  0
  -27.0351  -30.3060   24.6115 C   0  0  0  0  0  0
  -27.6069  -32.4330   25.7489 C   0  0  0  0  0  0
  -27.5592  -37.1803   24.8452 C   0  0  0  0  0  0
  -21.4175  -29.3006   22.3725 N   0  0  0  0  0  0
  -26.4320  -37.3776   23.9369 N   0  0  0  0  0  0
  -24.6757  -31.0706   22.1027 N   0  0  0  0  0  0
  -23.4223  -28.8145   23.3026 O   0  0  0  0  0  0
  -28.3980  -26.6443   20.0949 O   0  0  0  0  0  0
  -26.5635  -34.8937   22.4666 O   0  0  0  0  0  0
  -23.5384  -32.1441   23.7473 O   0  0  0  0  0  0
  -31.5847  -18.7783   20.8692 C   0  0  0  0  0  0
  -30.3817  -19.3601   20.4932 C   0  0  0  0  0  0
  -30.2927  -16.8885   20.8825 C   0  0  0  0  0  0
  -29.0910  -21.4526   20.3240 C   0  0  0  0  0  0
  -29.5301  -24.3762   21.5716 C   0  0  0  0  0  0
  -34.0731  -18.7932   20.3496 C   0  0  0  0  0  0
  -29.0592  -22.8194   19.5865 C   0  0  0  0  0  0
  -28.5250  -25.3522   19.4383 C   0  0  0  0  0  0
  -28.6000  -24.0980   20.3772 C   0  0  2  0  0  0
  -32.9187  -19.4385   21.1366 C   0  0  0  0  0  0
  -31.5019  -17.3983   21.1167 N   0  0  0  0  0  0
  -30.1815  -20.6718   20.1428 N   0  0  0  0  0  0
  -29.9946  -15.5016   21.0212 N   0  0  0  0  0  0
  -28.1410  -21.1185   21.0362 O   0  0  0  0  0  0
  -33.2307  -19.3583   22.4313 F   0  0  0  0  0  0
  -32.9108  -20.7319   20.8134 F   0  0  0  0  0  0
  -29.1180  -18.1243   20.4395 S   0  0  0  0  0  0
  -31.4588  -12.3579   19.1243 H   0  0  0  0  0  0
  -30.2972  -11.2802   19.8396 H   0  0  0  0  0  0
  -29.7157  -11.7536   17.4364 H   0  0  0  0  0  0
  -29.6525  -13.4672   17.7743 H   0  0  0  0  0  0
  -27.8245  -11.2930   18.8480 H   0  0  0  0  0  0
  -27.3502  -12.6053   17.8038 H   0  0  0  0  0  0
  -27.7015  -14.2453   19.5629 H   0  0  0  0  0  0
  -28.6824  -11.9772   21.3712 H   0  0  0  0  0  0
  -28.4810  -13.6279   21.8666 H   0  0  0  0  0  0
  -25.2760   -9.5676   22.4777 H   0  0  0  0  0  0
  -23.9979   -7.4644   22.7488 H   0  0  0  0  0  0
  -21.0838   -8.8805   19.8962 H   0  0  0  0  0  0
  -22.3708  -10.9696   19.6180 H   0  0  0  0  0  0
  -21.2014   -7.6146   23.9714 H   0  0  0  0  0  0
  -21.1480   -6.0510   25.9077 H   0  0  0  0  0  0
  -22.0597   -2.7599   23.2828 H   0  0  0  0  0  0
  -22.4125  -11.9852   22.4724 H   0  0  0  0  0  0
  -21.1165  -13.1293   22.2679 H   0  0  0  0  0  0
  -24.6700  -15.8482   20.5132 H   0  0  0  0  0  0
  -26.2805  -15.6224   20.0594 H   0  0  0  0  0  0
  -26.7109  -32.5521   23.1090 H   0  0  0  0  0  0
  -25.0053  -33.9788   25.0436 H   0  0  0  0  0  0
  -22.6957  -31.3088   21.4163 H   0  0  0  0  0  0
  -23.3797  -35.9601   23.3308 H   0  0  0  0  0  0
  -24.3565  -36.8890   22.2031 H   0  0  0  0  0  0
  -23.7265  -37.6481   23.6664 H   0  0  0  0  0  0
  -26.0865  -31.5878   20.6259 H   0  0  0  0  0  0
  -26.8214  -30.8366   22.0122 H   0  0  0  0  0  0
  -28.1113  -29.0507   21.1274 H   0  0  0  0  0  0
  -25.9333  -25.9254   19.0627 H   0  0  0  0  0  0
  -23.9380  -27.2896   19.0734 H   0  0  0  0  0  0
  -23.7390  -30.6076   19.4141 H   0  0  0  0  0  0
  -22.7377  -29.2537   19.8678 H   0  0  0  0  0  0
  -25.1337  -36.1940   25.0818 H   0  0  0  0  0  0
  -20.9990  -28.3198   24.1427 H   0  0  0  0  0  0
  -20.5704  -26.2221   23.3602 H   0  0  0  0  0  0
  -21.6679  -26.7405   22.1208 H   0  0  0  0  0  0
  -19.6959  -25.6262   21.1221 H   0  0  0  0  0  0
  -19.6750  -27.3177   20.6729 H   0  0  0  0  0  0
  -17.4246  -26.6624   21.3997 H   0  0  0  0  0  0
  -18.0344  -26.0020   22.8983 H   0  0  0  0  0  0
  -19.7985  -30.7209   24.2255 H   0  0  0  0  0  0
  -17.5068  -31.6247   24.5128 H   0  0  0  0  0  0
  -15.5389  -30.2926   23.7675 H   0  0  0  0  0  0
  -15.8698  -28.0794   22.7013 H   0  0  0  0  0  0
  -24.5865  -30.7146   25.7724 H   0  0  0  0  0  0
  -24.8941  -32.2963   26.4831 H   0  0  0  0  0  0
  -25.8008  -30.8927   27.0215 H   0  0  0  0  0  0
  -26.2928  -29.6781   24.1174 H   0  0  0  0  0  0
  -27.4124  -29.7323   25.4584 H   0  0  0  0  0  0
  -27.8764  -30.4365   23.9300 H   0  0  0  0  0  0
  -27.2673  -33.3606   26.2102 H   0  0  0  0  0  0
  -28.3873  -32.6907   25.0315 H   0  0  0  0  0  0
  -28.0725  -31.8414   26.5367 H   0  0  0  0  0  0
  -28.2632  -38.0098   24.7529 H   0  0  0  0  0  0
  -28.1111  -36.2637   24.6305 H   0  0  0  0  0  0
  -27.2305  -37.1431   25.8863 H   0  0  0  0  0  0
  -20.9329  -29.8713   21.6941 H   0  0  0  0  0  0
  -26.0226  -38.2861   24.1396 H   0  0  0  0  0  0
  -29.5000  -23.5623   22.2964 H   0  0  0  0  0  0
  -29.2384  -25.2827   22.1020 H   0  0  0  0  0  0
  -30.5638  -24.5030   21.2486 H   0  0  0  0  0  0
  -34.1711  -17.7290   20.5694 H   0  0  0  0  0  0
  -35.0250  -19.2592   20.6022 H   0  0  0  0  0  0
  -33.9265  -18.8944   19.2735 H   0  0  0  0  0  0
  -28.3939  -22.6816   18.7317 H   0  0  0  0  0  0
  -30.0482  -23.0024   19.1666 H   0  0  0  0  0  0
  -27.8023  -25.1877   18.6403 H   0  0  0  0  0  0
  -29.4697  -25.4074   18.8982 H   0  0  0  0  0  0
  -27.5979  -23.9161   20.7682 H   0  0  0  0  0  0
  -30.9691  -21.1212   19.6927 H   0  0  0  0  0  0
  -29.0505  -15.2772   21.2889 H   0  0  0  0  0  0
  1 25  1  0  0  0
  1 30  2  0  0  0
  1 83  1  0  0  0
  2  3  1  0  0  0
  2 25  1  0  0  0
  2 88  1  0  0  0
  2 89  1  0  0  0
  3  4  1  0  0  0
  3 90  1  0  0  0
  3 91  1  0  0  0
  4  5  1  0  0  0
  4 92  1  0  0  0
  4 93  1  0  0  0
  5  6  1  0  0  0
  5 26  1  0  0  0
  5 94  1  0  0  0
  6 25  1  0  0  0
  6 95  1  0  0  0
  6 96  1  0  0  0
  7  8  2  0  0  0
  7 26  1  0  0  0
  7 29  1  0  0  0
  8  9  1  0  0  0
  8 22  1  0  0  0
  9 10  1  0  0  0
  9 27  2  0  0  0
 10 11  2  0  0  0
 10 15  1  0  0  0
 11 12  1  0  0  0
 11 97  1  0  0  0
 12 13  2  0  0  0
 12 98  1  0  0  0
 13 14  1  0  0  0
 13 31  1  0  0  0
 14 15  2  0  0  0
 14 99  1  0  0  0
 15100  1  0  0  0
 16 17  2  0  0  0
 16 21  1  0  0  0
 16 31  1  0  0  0
 17 18  1  0  0  0
 17101  1  0  0  0
 18 19  2  0  0  0
 18102  1  0  0  0
 19 20  1  0  0  0
 19 24  1  0  0  0
 20 21  2  0  0  0
 20103  1  0  0  0
 21 23  1  0  0  0
 22 28  1  0  0  0
 22 32  2  0  0  0
 26 27  1  0  0  0
 28104  1  0  0  0
 28105  1  0  0  0
 29106  1  0  0  0
 29107  1  0  0  0
 33 34  1  0  0  0
 33 66  1  0  0  0
 33 70  2  0  0  0
 34 36  1  0  0  0
 34 59  1  0  0  0
 34108  1  0  0  0
 35 44  2  0  0  0
 35 45  1  0  0  0
 35 68  1  0  0  0
 36 56  1  0  0  0
 36109  1  0  0  0
 37 39  1  0  0  0
 37 47  1  0  0  0
 37 66  1  0  0  0
 37110  1  0  0  0
 38 43  2  0  0  0
 38 46  1  0  0  0
 38 47  1  0  0  0
 39 64  1  0  0  0
 39 67  2  0  0  0
 40 52  1  0  0  0
 40 53  2  0  0  0
 40 58  1  0  0  0
 41111  1  0  0  0
 41112  1  0  0  0
 41113  1  0  0  0
 41 48  1  0  0  0
 42 43  1  0  0  0
 42 66  1  0  0  0
 42114  1  0  0  0
 42115  1  0  0  0
 43 44  1  0  0  0
 44116  1  0  0  0
 45 46  2  0  0  0
 45117  1  0  0  0
 46118  1  0  0  0
 47119  1  0  0  0
 47120  1  0  0  0
 48 56  1  0  0  0
 48 65  1  0  0  0
 48121  1  0  0  0
 49 50  1  0  0  0
 49 53  1  0  0  0
 49 64  1  0  0  0
 49122  1  0  0  0
 50 51  1  0  0  0
 50123  1  0  0  0
 50124  1  0  0  0
 51 52  1  0  0  0
 51125  1  0  0  0
 51126  1  0  0  0
 52127  1  0  0  0
 52128  1  0  0  0
 53 54  1  0  0  0
 54 55  2  0  0  0
 54129  1  0  0  0
 55 57  1  0  0  0
 55130  1  0  0  0
 56 69  2  0  0  0
 57 58  2  0  0  0
 57131  1  0  0  0
 58132  1  0  0  0
 59 60  1  0  0  0
 59 61  1  0  0  0
 59 62  1  0  0  0
 60133  1  0  0  0
 60134  1  0  0  0
 60135  1  0  0  0
 61136  1  0  0  0
 61137  1  0  0  0
 61138  1  0  0  0
 62139  1  0  0  0
 62140  1  0  0  0
 62141  1  0  0  0
 63 65  1  0  0  0
 63142  1  0  0  0
 63143  1  0  0  0
 63144  1  0  0  0
 64145  1  0  0  0
 65146  1  0  0  0
 68 78  1  0  0  0
 71 72  2  0  0  0
 71 80  1  0  0  0
 71 81  1  0  0  0
 72 82  1  0  0  0
 72 87  1  0  0  0
 73 81  2  0  0  0
 73 83  1  0  0  0
 73 87  1  0  0  0
 74 77  1  0  0  0
 74 82  1  0  0  0
 74 84  2  0  0  0
 75147  1  0  0  0
 75148  1  0  0  0
 75149  1  0  0  0
 75 79  1  0  0  0
 76150  1  0  0  0
 76151  1  0  0  0
 76152  1  0  0  0
 76 80  1  0  0  0
 77 79  1  0  0  0
 77153  1  0  0  0
 77154  1  0  0  0
 78 79  1  0  0  0
 78155  1  0  0  0
 78156  1  0  0  0
 79157  1  0  0  0
 80 85  1  0  0  0
 80 86  1  0  0  0
 82158  1  0  0  0
 83159  1  0  0  0
M  ISO  4   1 100  68 101  78 101  83 100
M  END
> <chiral flag>
0

> <version>
0

> <s_m_source_file>
/data/baiqing/PycharmProjects/Reinvent-master-3.2/result/LINK_invent/BTK/process_docking_weight1_custom_product_contain_oxygen_bond_distance_aromatic_linkinvent_7_9_3/rearranged_h_0188.sdf

> <i_m_source_file_index>
17

> <r_mmod_Potential_Energy-OPLS-2005>
-126.348785400391

> <r_mmod_Stretch_Energy-OPLS-2005>
45.3600654602051

> <r_mmod_Bend_Energy-OPLS-2005>
122.639495849609

> <r_mmod_Torsional_Energy-OPLS-2005>
208.713882446289

> <r_mmod_Improper_Torsional_Energy-OPLS-2005>
4.69726800918579

> <r_mmod_Van_der_Waal_Energy-OPLS-2005>
132.041412353516

> <r_mmod_Electrostatic_Energy-OPLS-2005>
-422.939971923828

> <r_mmod_Solvation_Energy-OPLS-2005>
-235.156616210938

> <b_mmod_Minimization_Converged-OPLS-2005>
0

> <r_mmod_RMS_Derivative-OPLS-2005>
3.82531404495239

$$$$
18
                    3D
 Structure written by MMmdl.
160168  0  0  1  0            999 V2000
  -30.6571  -14.5264   20.5950 C   0  0  0  0  0  0
  -30.4390  -12.3311   19.4454 C   0  0  0  0  0  0
  -29.5100  -12.4880   18.2212 C   0  0  0  0  0  0
  -28.0305  -12.3258   18.6249 C   0  0  0  0  0  0
  -27.6627  -13.1909   19.8607 C   0  0  2  0  0  0
  -28.6950  -12.9850   20.9913 C   0  0  0  0  0  0
  -25.2624  -13.8129   20.5573 C   0  0  0  0  0  0
  -24.1850  -13.0417   20.9112 C   0  0  0  0  0  0
  -24.6394  -11.6881   20.8717 C   0  0  0  0  0  0
  -23.9057  -10.4274   21.0396 C   0  0  0  0  0  0
  -24.3618   -9.4203   21.9181 C   0  0  0  0  0  0
  -23.6289   -8.2253   22.0773 C   0  0  0  0  0  0
  -22.4276   -8.0282   21.3560 C   0  0  0  0  0  0
  -21.9901   -9.0251   20.4662 C   0  0  0  0  0  0
  -22.7234  -10.2124   20.3048 C   0  0  0  0  0  0
  -21.6855   -6.0741   22.5288 C   0  0  0  0  0  0
  -21.4015   -6.5644   23.8215 C   0  0  0  0  0  0
  -21.3657   -5.6795   24.9179 C   0  0  0  0  0  0
  -21.6039   -4.3060   24.7226 C   0  0  0  0  0  0
  -21.8821   -3.8151   23.4345 C   0  0  0  0  0  0
  -21.9191   -4.6972   22.3404 C   0  0  0  0  0  0
  -22.7908  -13.5273   21.1811 C   0  0  0  0  0  0
  -22.1663   -4.2153   21.0984 F   0  0  0  0  0  0
  -21.5625   -3.4543   25.7741 F   0  0  0  0  0  0
  -30.0261  -13.3216   20.4557 N   0  0  0  0  0  0
  -26.3021  -12.9252   20.3263 N   0  0  0  0  0  0
  -25.9298  -11.6431   20.5699 N   0  0  0  0  0  0
  -22.0523  -12.8249   22.0342 N   0  0  0  0  0  0
  -25.4354  -15.1828   20.4040 N   0  0  0  0  0  0
  -31.7794  -14.7337   20.1226 O   0  0  0  0  0  0
  -21.6643   -6.8878   21.4249 O   0  0  0  0  0  0
  -22.3578  -14.5547   20.6624 O   0  0  0  0  0  0
  -24.6218  -31.8680   23.2063 C   0  0  0  0  0  0
  -25.9070  -32.4820   23.8405 C   0  0  1  0  0  0
  -27.2423  -27.4176   20.1222 C   0  0  0  0  0  0
  -25.5917  -33.8635   24.2279 N   0  0  0  0  0  0
  -23.4124  -30.4875   21.5444 C   0  0  2  0  0  0
  -24.8637  -28.9502   20.1155 C   0  0  0  0  0  0
  -22.7436  -29.4688   22.4963 C   0  0  0  0  0  0
  -18.0235  -28.1482   22.8471 C   0  0  0  0  0  0
  -24.1480  -36.7329   23.2632 C   0  0  0  0  0  0
  -25.9430  -30.8368   21.3551 C   0  0  0  0  0  0
  -26.0254  -29.4683   20.7061 C   0  0  0  0  0  0
  -27.2219  -28.7128   20.6947 C   0  0  0  0  0  0
  -26.0734  -26.9224   19.5169 C   0  0  0  0  0  0
  -24.8879  -27.6824   19.5062 C   0  0  0  0  0  0
  -23.6237  -29.8144   20.1600 C   0  0  0  0  0  0
  -25.4113  -36.3135   24.0293 C   0  0  1  0  0  0
  -20.5841  -28.3785   23.1287 C   0  0  2  0  0  0
  -20.6765  -26.9530   22.5411 C   0  0  0  0  0  0
  -19.5758  -26.6501   21.5202 C   0  0  0  0  0  0
  -18.1923  -26.8016   22.1613 C   0  0  0  0  0  0
  -19.1504  -28.8935   23.2889 C   0  0  0  0  0  0
  -18.9452  -30.1504   23.8971 C   0  0  0  0  0  0
  -17.6489  -30.6681   24.0599 C   0  0  0  0  0  0
  -25.9054  -34.9483   23.5089 C   0  0  0  0  0  0
  -16.5361  -29.9231   23.6331 C   0  0  0  0  0  0
  -16.7245  -28.6622   23.0378 C   0  0  0  0  0  0
  -26.4491  -31.6589   25.0717 C   0  0  0  0  0  0
  -25.3737  -31.3698   26.1433 C   0  0  0  0  0  0
  -27.0256  -30.3029   24.6038 C   0  0  0  0  0  0
  -27.6056  -32.4289   25.7467 C   0  0  0  0  0  0
  -27.5561  -37.1812   24.8447 C   0  0  0  0  0  0
  -21.4148  -29.3106   22.3665 N   0  0  0  0  0  0
  -26.4286  -37.3825   23.9390 N   0  0  0  0  0  0
  -24.6768  -31.0800   22.0944 N   0  0  0  0  0  0
  -23.4204  -28.8185   23.2969 O   0  0  0  0  0  0
  -28.3827  -26.6382   20.1046 O   0  0  0  0  0  0
  -26.5666  -34.8937   22.4671 O   0  0  0  0  0  0
  -23.5400  -32.1386   23.7476 O   0  0  0  0  0  0
  -29.6517  -19.3670   21.6775 C   0  0  0  0  0  0
  -30.9601  -18.9995   21.4184 C   0  0  0  0  0  0
  -30.0208  -16.9137   21.2761 C   0  0  0  0  0  0
  -29.0728  -20.6709   22.0391 C   0  0  0  0  0  0
  -30.4975  -23.7014   22.7090 C   0  0  0  0  0  0
  -27.8661  -26.0855   22.5320 C   0  0  0  0  0  0
  -28.7453  -24.2658   20.8591 C   0  0  0  0  0  0
  -29.2317  -23.2411   21.9554 C   0  0  1  0  0  0
  -28.6946  -25.7926   21.2514 C   0  0  1  0  0  0
  -31.1510  -17.6277   21.1554 N   0  0  0  0  0  0
  -32.0743  -19.8420   21.4136 N   0  0  0  0  0  0
  -28.1500  -20.7042   23.0190 N   0  0  0  0  0  0
  -29.9029  -15.4844   21.1971 N   0  0  0  0  0  0
  -29.4615  -21.8457   21.4614 N   0  3  0  0  0  0
  -28.6275  -17.9313   21.6605 S   0  0  0  0  0  0
  -31.4832  -12.4480   19.1461 H   0  0  0  0  0  0
  -30.3575  -11.3188   19.8489 H   0  0  0  0  0  0
  -29.7644  -11.7554   17.4532 H   0  0  0  0  0  0
  -29.6624  -13.4703   17.7716 H   0  0  0  0  0  0
  -27.8578  -11.2720   18.8465 H   0  0  0  0  0  0
  -27.3795  -12.5618   17.7833 H   0  0  0  0  0  0
  -27.7095  -14.2329   19.5407 H   0  0  0  0  0  0
  -28.6855  -11.9417   21.3166 H   0  0  0  0  0  0
  -28.4275  -13.5671   21.8746 H   0  0  0  0  0  0
  -25.2773   -9.5681   22.4734 H   0  0  0  0  0  0
  -24.0005   -7.4650   22.7491 H   0  0  0  0  0  0
  -21.0837   -8.8759   19.8961 H   0  0  0  0  0  0
  -22.3702  -10.9655   19.6139 H   0  0  0  0  0  0
  -21.2013   -7.6153   23.9718 H   0  0  0  0  0  0
  -21.1475   -6.0531   25.9078 H   0  0  0  0  0  0
  -22.0598   -2.7615   23.2848 H   0  0  0  0  0  0
  -22.4163  -11.9932   22.4732 H   0  0  0  0  0  0
  -21.1149  -13.1287   22.2558 H   0  0  0  0  0  0
  -24.6567  -15.8252   20.4947 H   0  0  0  0  0  0
  -26.2732  -15.6277   20.0526 H   0  0  0  0  0  0
  -26.7140  -32.5551   23.1182 H   0  0  0  0  0  0
  -24.9923  -33.9751   25.0343 H   0  0  0  0  0  0
  -22.7064  -31.3036   21.3939 H   0  0  0  0  0  0
  -23.3730  -35.9681   23.3339 H   0  0  0  0  0  0
  -24.3537  -36.8947   22.2032 H   0  0  0  0  0  0
  -23.7227  -37.6534   23.6653 H   0  0  0  0  0  0
  -26.0362  -31.5972   20.5818 H   0  0  0  0  0  0
  -26.8403  -30.9162   21.9531 H   0  0  0  0  0  0
  -28.1262  -29.1088   21.1344 H   0  0  0  0  0  0
  -26.0850  -25.9433   19.0629 H   0  0  0  0  0  0
  -23.9962  -27.2826   19.0446 H   0  0  0  0  0  0
  -23.7413  -30.5846   19.3997 H   0  0  0  0  0  0
  -22.7494  -29.2384   19.8518 H   0  0  0  0  0  0
  -25.1296  -36.1995   25.0786 H   0  0  0  0  0  0
  -20.9919  -28.3407   24.1424 H   0  0  0  0  0  0
  -20.5707  -26.2430   23.3622 H   0  0  0  0  0  0
  -21.6628  -26.7612   22.1189 H   0  0  0  0  0  0
  -19.6967  -25.6430   21.1215 H   0  0  0  0  0  0
  -19.6685  -27.3294   20.6713 H   0  0  0  0  0  0
  -17.4183  -26.6697   21.4036 H   0  0  0  0  0  0
  -18.0375  -26.0176   22.9036 H   0  0  0  0  0  0
  -19.7938  -30.7225   24.2472 H   0  0  0  0  0  0
  -17.5072  -31.6346   24.5220 H   0  0  0  0  0  0
  -15.5399  -30.3209   23.7643 H   0  0  0  0  0  0
  -15.8593  -28.0970   22.7171 H   0  0  0  0  0  0
  -24.5938  -30.7001   25.7787 H   0  0  0  0  0  0
  -24.8872  -32.2850   26.4824 H   0  0  0  0  0  0
  -25.8099  -30.8912   27.0216 H   0  0  0  0  0  0
  -26.2784  -29.6866   24.1031 H   0  0  0  0  0  0
  -27.3946  -29.7165   25.4465 H   0  0  0  0  0  0
  -27.8676  -30.4310   23.9219 H   0  0  0  0  0  0
  -27.2685  -33.3589   26.2060 H   0  0  0  0  0  0
  -28.3886  -32.6872   25.0312 H   0  0  0  0  0  0
  -28.0721  -31.8394   26.5365 H   0  0  0  0  0  0
  -28.2629  -38.0077   24.7521 H   0  0  0  0  0  0
  -28.1036  -36.2613   24.6309 H   0  0  0  0  0  0
  -27.2259  -37.1492   25.8851 H   0  0  0  0  0  0
  -20.9392  -29.8862   21.6851 H   0  0  0  0  0  0
  -26.0176  -38.2898   24.1493 H   0  0  0  0  0  0
  -30.2591  -24.3633   23.5444 H   0  0  0  0  0  0
  -31.1674  -24.2362   22.0379 H   0  0  0  0  0  0
  -31.0701  -22.8675   23.1265 H   0  0  0  0  0  0
  -28.1738  -25.4818   23.3876 H   0  0  0  0  0  0
  -26.8090  -25.8824   22.3716 H   0  0  0  0  0  0
  -27.9641  -27.1331   22.8201 H   0  0  0  0  0  0
  -29.3635  -24.1468   19.9696 H   0  0  0  0  0  0
  -27.7423  -23.9777   20.5461 H   0  0  0  0  0  0
  -28.4504  -23.1915   22.7118 H   0  0  0  0  0  0
  -29.7151  -26.1066   21.4770 H   0  0  0  0  0  0
  -32.0794  -20.6306   22.0523 H   0  0  0  0  0  0
  -32.9795  -19.3877   21.3647 H   0  0  0  0  0  0
  -27.9029  -19.8472   23.4955 H   0  0  0  0  0  0
  -27.6877  -21.5484   23.3184 H   0  0  0  0  0  0
  -29.0188  -15.1429   21.5350 H   0  0  0  0  0  0
  -30.1331  -21.7745   20.7055 H   0  0  0  0  0  0
  1 25  1  0  0  0
  1 30  2  0  0  0
  1 83  1  0  0  0
  2  3  1  0  0  0
  2 25  1  0  0  0
  2 86  1  0  0  0
  2 87  1  0  0  0
  3  4  1  0  0  0
  3 88  1  0  0  0
  3 89  1  0  0  0
  4  5  1  0  0  0
  4 90  1  0  0  0
  4 91  1  0  0  0
  5  6  1  0  0  0
  5 26  1  0  0  0
  5 92  1  0  0  0
  6 25  1  0  0  0
  6 93  1  0  0  0
  6 94  1  0  0  0
  7  8  2  0  0  0
  7 26  1  0  0  0
  7 29  1  0  0  0
  8  9  1  0  0  0
  8 22  1  0  0  0
  9 10  1  0  0  0
  9 27  2  0  0  0
 10 11  2  0  0  0
 10 15  1  0  0  0
 11 12  1  0  0  0
 11 95  1  0  0  0
 12 13  2  0  0  0
 12 96  1  0  0  0
 13 14  1  0  0  0
 13 31  1  0  0  0
 14 15  2  0  0  0
 14 97  1  0  0  0
 15 98  1  0  0  0
 16 17  2  0  0  0
 16 21  1  0  0  0
 16 31  1  0  0  0
 17 18  1  0  0  0
 17 99  1  0  0  0
 18 19  2  0  0  0
 18100  1  0  0  0
 19 20  1  0  0  0
 19 24  1  0  0  0
 20 21  2  0  0  0
 20101  1  0  0  0
 21 23  1  0  0  0
 22 28  1  0  0  0
 22 32  2  0  0  0
 26 27  1  0  0  0
 28102  1  0  0  0
 28103  1  0  0  0
 29104  1  0  0  0
 29105  1  0  0  0
 33 34  1  0  0  0
 33 66  1  0  0  0
 33 70  2  0  0  0
 34 36  1  0  0  0
 34 59  1  0  0  0
 34106  1  0  0  0
 35 44  2  0  0  0
 35 45  1  0  0  0
 35 68  1  0  0  0
 36 56  1  0  0  0
 36107  1  0  0  0
 37 39  1  0  0  0
 37 47  1  0  0  0
 37 66  1  0  0  0
 37108  1  0  0  0
 38 43  2  0  0  0
 38 46  1  0  0  0
 38 47  1  0  0  0
 39 64  1  0  0  0
 39 67  2  0  0  0
 40 52  1  0  0  0
 40 53  2  0  0  0
 40 58  1  0  0  0
 41109  1  0  0  0
 41110  1  0  0  0
 41111  1  0  0  0
 41 48  1  0  0  0
 42 43  1  0  0  0
 42 66  1  0  0  0
 42112  1  0  0  0
 42113  1  0  0  0
 43 44  1  0  0  0
 44114  1  0  0  0
 45 46  2  0  0  0
 45115  1  0  0  0
 46116  1  0  0  0
 47117  1  0  0  0
 47118  1  0  0  0
 48 56  1  0  0  0
 48 65  1  0  0  0
 48119  1  0  0  0
 49 50  1  0  0  0
 49 53  1  0  0  0
 49 64  1  0  0  0
 49120  1  0  0  0
 50 51  1  0  0  0
 50121  1  0  0  0
 50122  1  0  0  0
 51 52  1  0  0  0
 51123  1  0  0  0
 51124  1  0  0  0
 52125  1  0  0  0
 52126  1  0  0  0
 53 54  1  0  0  0
 54 55  2  0  0  0
 54127  1  0  0  0
 55 57  1  0  0  0
 55128  1  0  0  0
 56 69  2  0  0  0
 57 58  2  0  0  0
 57129  1  0  0  0
 58130  1  0  0  0
 59 60  1  0  0  0
 59 61  1  0  0  0
 59 62  1  0  0  0
 60131  1  0  0  0
 60132  1  0  0  0
 60133  1  0  0  0
 61134  1  0  0  0
 61135  1  0  0  0
 61136  1  0  0  0
 62137  1  0  0  0
 62138  1  0  0  0
 62139  1  0  0  0
 63 65  1  0  0  0
 63140  1  0  0  0
 63141  1  0  0  0
 63142  1  0  0  0
 64143  1  0  0  0
 65144  1  0  0  0
 68 79  1  0  0  0
 71 72  2  0  0  0
 71 74  1  0  0  0
 71 85  1  0  0  0
 72 80  1  0  0  0
 72 81  1  0  0  0
 73 80  2  0  0  0
 73 83  1  0  0  0
 73 85  1  0  0  0
 74 82  1  0  0  0
 74 84  2  0  0  0
 75145  1  0  0  0
 75146  1  0  0  0
 75147  1  0  0  0
 75 78  1  0  0  0
 76148  1  0  0  0
 76149  1  0  0  0
 76150  1  0  0  0
 76 79  1  0  0  0
 77 78  1  0  0  0
 77 79  1  0  0  0
 77151  1  0  0  0
 77152  1  0  0  0
 78 84  1  0  0  0
 78153  1  0  0  0
 79154  1  0  0  0
 81155  1  0  0  0
 81156  1  0  0  0
 82157  1  0  0  0
 82158  1  0  0  0
 83159  1  0  0  0
 84160  1  0  0  0
M  CHG  1  84   1
M  ISO  4   1 100  68 101  79 101  83 100
M  END
> <chiral flag>
0

> <version>
0

> <s_m_source_file>
/data/baiqing/PycharmProjects/Reinvent-master-3.2/result/LINK_invent/BTK/process_docking_weight1_custom_product_contain_oxygen_bond_distance_aromatic_linkinvent_7_9_3/rearranged_h_0188.sdf

> <i_m_source_file_index>
18

> <r_mmod_Potential_Energy-OPLS-2005>
-150.555694580078

> <r_mmod_Stretch_Energy-OPLS-2005>
50.1017379760742

> <r_mmod_Bend_Energy-OPLS-2005>
129.587280273438

> <r_mmod_Torsional_Energy-OPLS-2005>
243.475601196289

> <r_mmod_Improper_Torsional_Energy-OPLS-2005>
7.66543054580688

> <r_mmod_Van_der_Waal_Energy-OPLS-2005>
121.979621887207

> <r_mmod_Electrostatic_Energy-OPLS-2005>
-241.346313476562

> <r_mmod_Solvation_Energy-OPLS-2005>
-480.239532470703

> <b_mmod_Minimization_Converged-OPLS-2005>
0

> <r_mmod_RMS_Derivative-OPLS-2005>
7.88167715072632

$$$$
19
                    3D
 Structure written by MMmdl.
151159  0  0  1  0            999 V2000
  -30.6152  -14.6897   20.5916 C   0  0  0  0  0  0
  -30.4442  -12.4537   19.4585 C   0  0  0  0  0  0
  -29.5201  -12.5548   18.2211 C   0  0  0  0  0  0
  -28.0411  -12.3628   18.6202 C   0  0  0  0  0  0
  -27.6566  -13.2072   19.8645 C   0  0  2  0  0  0
  -28.6951  -12.9977   20.9811 C   0  0  0  0  0  0
  -25.2565  -13.8117   20.5612 C   0  0  0  0  0  0
  -24.1830  -13.0421   20.9147 C   0  0  0  0  0  0
  -24.6380  -11.6881   20.8732 C   0  0  0  0  0  0
  -23.9043  -10.4283   21.0415 C   0  0  0  0  0  0
  -24.3608   -9.4196   21.9177 C   0  0  0  0  0  0
  -23.6299   -8.2240   22.0756 C   0  0  0  0  0  0
  -22.4283   -8.0274   21.3537 C   0  0  0  0  0  0
  -21.9892   -9.0254   20.4648 C   0  0  0  0  0  0
  -22.7222  -10.2135   20.3050 C   0  0  0  0  0  0
  -21.6861   -6.0735   22.5283 C   0  0  0  0  0  0
  -21.4016   -6.5642   23.8211 C   0  0  0  0  0  0
  -21.3650   -5.6788   24.9167 C   0  0  0  0  0  0
  -21.6052   -4.3060   24.7212 C   0  0  0  0  0  0
  -21.8811   -3.8156   23.4332 C   0  0  0  0  0  0
  -21.9193   -4.6964   22.3392 C   0  0  0  0  0  0
  -22.7856  -13.5231   21.1833 C   0  0  0  0  0  0
  -22.1673   -4.2171   21.0973 F   0  0  0  0  0  0
  -21.5635   -3.4535   25.7721 F   0  0  0  0  0  0
  -29.9938  -13.4564   20.4615 N   0  0  0  0  0  0
  -26.2977  -12.9288   20.3256 N   0  0  0  0  0  0
  -25.9295  -11.6449   20.5691 N   0  0  0  0  0  0
  -22.0524  -12.8230   22.0404 N   0  0  0  0  0  0
  -25.4292  -15.1845   20.4019 N   0  0  0  0  0  0
  -31.7266  -14.8204   20.0669 O   0  0  0  0  0  0
  -21.6642   -6.8877   21.4247 O   0  0  0  0  0  0
  -22.3570  -14.5566   20.6704 O   0  0  0  0  0  0
  -24.6321  -31.8556   23.2039 C   0  0  0  0  0  0
  -25.9164  -32.4734   23.8355 C   0  0  1  0  0  0
  -27.2250  -27.2903   20.1079 C   0  0  0  0  0  0
  -25.5958  -33.8541   24.2294 N   0  0  0  0  0  0
  -23.4248  -30.4816   21.5473 C   0  0  2  0  0  0
  -24.8705  -28.9304   20.1120 C   0  0  0  0  0  0
  -22.7495  -29.4622   22.4949 C   0  0  0  0  0  0
  -18.0316  -28.1360   22.8480 C   0  0  0  0  0  0
  -24.1493  -36.7258   23.2635 C   0  0  0  0  0  0
  -25.9714  -30.7710   21.3853 C   0  0  0  0  0  0
  -26.0414  -29.4001   20.7209 C   0  0  0  0  0  0
  -27.2207  -28.5919   20.7058 C   0  0  0  0  0  0
  -26.0249  -26.8814   19.4799 C   0  0  0  0  0  0
  -24.8656  -27.6774   19.4832 C   0  0  0  0  0  0
  -23.6424  -29.8156   20.1624 C   0  0  0  0  0  0
  -25.4110  -36.3054   24.0349 C   0  0  1  0  0  0
  -20.5905  -28.3692   23.1268 C   0  0  2  0  0  0
  -20.6819  -26.9407   22.5399 C   0  0  0  0  0  0
  -19.5801  -26.6377   21.5200 C   0  0  0  0  0  0
  -18.1972  -26.7917   22.1584 C   0  0  0  0  0  0
  -19.1553  -28.8853   23.2869 C   0  0  0  0  0  0
  -18.9464  -30.1448   23.8909 C   0  0  0  0  0  0
  -17.6451  -30.6570   24.0569 C   0  0  0  0  0  0
  -25.9046  -34.9427   23.5117 C   0  0  0  0  0  0
  -16.5363  -29.9032   23.6341 C   0  0  0  0  0  0
  -16.7305  -28.6449   23.0382 C   0  0  0  0  0  0
  -26.4559  -31.6546   25.0736 C   0  0  0  0  0  0
  -25.3803  -31.3680   26.1468 C   0  0  0  0  0  0
  -27.0418  -30.2968   24.6221 C   0  0  0  0  0  0
  -27.6116  -32.4300   25.7490 C   0  0  0  0  0  0
  -27.5579  -37.1788   24.8476 C   0  0  0  0  0  0
  -21.4212  -29.3033   22.3656 N   0  0  0  0  0  0
  -26.4286  -37.3747   23.9426 N   0  0  0  0  0  0
  -24.6940  -31.0555   22.1001 N   0  0  0  0  0  0
  -23.4207  -28.8163   23.3036 O   0  0  0  0  0  0
  -28.3395  -26.4266   20.1438 O   0  0  0  0  0  0
  -26.5595  -34.8903   22.4670 O   0  0  0  0  0  0
  -23.5485  -32.1384   23.7352 O   0  0  0  0  0  0
  -31.1718  -17.9605   19.9465 C   0  0  0  0  0  0
  -30.1368  -17.4286   20.6904 C   0  0  0  0  0  0
  -30.0097  -19.9697   20.1756 C   0  0  0  0  0  0
  -28.9832  -22.3598   20.4435 C   0  0  0  0  0  0
  -28.7929  -15.8546   22.2348 C   0  0  0  0  0  0
  -28.1070  -24.9527   20.0182 C   0  0  0  0  0  0
  -30.0573  -16.0018   21.3619 C   0  0  1  0  0  0
  -29.3042  -23.9061   20.2139 C   0  0  2  0  0  0
  -31.0876  -19.3500   19.6699 N   0  0  0  0  0  0
  -29.8952  -21.4248   20.0234 N   0  0  0  0  0  0
  -27.9362  -22.0364   21.0083 O   0  0  0  0  0  0
  -30.1303  -24.0074   19.1695 F   0  0  0  0  0  0
  -28.9665  -18.7672   20.9958 S   0  0  0  0  0  0
  -31.4879  -12.5860   19.1652 H   0  0  0  0  0  0
  -30.4056  -11.4465   19.8776 H   0  0  0  0  0  0
  -29.8070  -11.8157   17.4722 H   0  0  0  0  0  0
  -29.6519  -13.5316   17.7539 H   0  0  0  0  0  0
  -27.8909  -11.3024   18.8325 H   0  0  0  0  0  0
  -27.3843  -12.5975   17.7828 H   0  0  0  0  0  0
  -27.6917  -14.2532   19.5646 H   0  0  0  0  0  0
  -28.7451  -11.9357   21.2265 H   0  0  0  0  0  0
  -28.3838  -13.4315   21.9182 H   0  0  0  0  0  0
  -25.2756   -9.5694   22.4716 H   0  0  0  0  0  0
  -24.0027   -7.4619   22.7442 H   0  0  0  0  0  0
  -21.0828   -8.8720   19.8957 H   0  0  0  0  0  0
  -22.3645  -10.9648   19.6142 H   0  0  0  0  0  0
  -21.2008   -7.6159   23.9720 H   0  0  0  0  0  0
  -21.1487   -6.0523   25.9071 H   0  0  0  0  0  0
  -22.0602   -2.7627   23.2811 H   0  0  0  0  0  0
  -22.4214  -11.9884   22.4713 H   0  0  0  0  0  0
  -21.1146  -13.1252   22.2679 H   0  0  0  0  0  0
  -24.6562  -15.8341   20.4818 H   0  0  0  0  0  0
  -26.2757  -15.6148   20.0533 H   0  0  0  0  0  0
  -26.7222  -32.5382   23.1075 H   0  0  0  0  0  0
  -25.0171  -33.9662   25.0492 H   0  0  0  0  0  0
  -22.7198  -31.3041   21.4017 H   0  0  0  0  0  0
  -23.3749  -35.9582   23.3296 H   0  0  0  0  0  0
  -24.3566  -36.8875   22.2038 H   0  0  0  0  0  0
  -23.7257  -37.6475   23.6640 H   0  0  0  0  0  0
  -26.1217  -31.5362   20.6236 H   0  0  0  0  0  0
  -26.8430  -30.8037   22.0285 H   0  0  0  0  0  0
  -28.1207  -28.9432   21.1908 H   0  0  0  0  0  0
  -25.9454  -25.9294   18.9805 H   0  0  0  0  0  0
  -23.9684  -27.3171   18.9980 H   0  0  0  0  0  0
  -23.7685  -30.5906   19.4044 H   0  0  0  0  0  0
  -22.7599  -29.2506   19.8580 H   0  0  0  0  0  0
  -25.1291  -36.1879   25.0841 H   0  0  0  0  0  0
  -20.9946  -28.3262   24.1406 H   0  0  0  0  0  0
  -20.5763  -26.2278   23.3574 H   0  0  0  0  0  0
  -21.6693  -26.7447   22.1183 H   0  0  0  0  0  0
  -19.6966  -25.6286   21.1269 H   0  0  0  0  0  0
  -19.6743  -27.3173   20.6712 H   0  0  0  0  0  0
  -17.4267  -26.6684   21.3971 H   0  0  0  0  0  0
  -18.0319  -26.0025   22.8925 H   0  0  0  0  0  0
  -19.7958  -30.7270   24.2227 H   0  0  0  0  0  0
  -17.4983  -31.6269   24.5108 H   0  0  0  0  0  0
  -15.5355  -30.2914   23.7642 H   0  0  0  0  0  0
  -15.8703  -28.0755   22.7122 H   0  0  0  0  0  0
  -24.5964  -30.7041   25.7818 H   0  0  0  0  0  0
  -24.9010  -32.2834   26.4946 H   0  0  0  0  0  0
  -25.8151  -30.8830   27.0214 H   0  0  0  0  0  0
  -26.3012  -29.6681   24.1268 H   0  0  0  0  0  0
  -27.4139  -29.7273   25.4751 H   0  0  0  0  0  0
  -27.8876  -30.4266   23.9459 H   0  0  0  0  0  0
  -27.2720  -33.3595   26.2072 H   0  0  0  0  0  0
  -28.3895  -32.6875   25.0286 H   0  0  0  0  0  0
  -28.0797  -31.8412   26.5385 H   0  0  0  0  0  0
  -28.2616  -38.0077   24.7498 H   0  0  0  0  0  0
  -28.1073  -36.2607   24.6325 H   0  0  0  0  0  0
  -27.2287  -37.1459   25.8882 H   0  0  0  0  0  0
  -20.9389  -29.8702   21.6826 H   0  0  0  0  0  0
  -26.0168  -38.2827   24.1405 H   0  0  0  0  0  0
  -32.0641  -17.4374   19.6301 H   0  0  0  0  0  0
  -28.9060  -15.0711   22.9811 H   0  0  0  0  0  0
  -27.8955  -15.6886   21.6415 H   0  0  0  0  0  0
  -28.6222  -16.7469   22.8370 H   0  0  0  0  0  0
  -27.3158  -24.6921   20.7218 H   0  0  0  0  0  0
  -27.7068  -24.7483   19.0252 H   0  0  0  0  0  0
  -30.8236  -16.0698   22.1328 H   0  0  0  0  0  0
  -29.8909  -24.2283   21.0728 H   0  0  0  0  0  0
  -30.6715  -21.8540   19.5400 H   0  0  0  0  0  0
  1 25  1  0  0  0
  1 30  2  0  0  0
  1 77  1  0  0  0
  2  3  1  0  0  0
  2 25  1  0  0  0
  2 84  1  0  0  0
  2 85  1  0  0  0
  3  4  1  0  0  0
  3 86  1  0  0  0
  3 87  1  0  0  0
  4  5  1  0  0  0
  4 88  1  0  0  0
  4 89  1  0  0  0
  5  6  1  0  0  0
  5 26  1  0  0  0
  5 90  1  0  0  0
  6 25  1  0  0  0
  6 91  1  0  0  0
  6 92  1  0  0  0
  7  8  2  0  0  0
  7 26  1  0  0  0
  7 29  1  0  0  0
  8  9  1  0  0  0
  8 22  1  0  0  0
  9 10  1  0  0  0
  9 27  2  0  0  0
 10 11  2  0  0  0
 10 15  1  0  0  0
 11 12  1  0  0  0
 11 93  1  0  0  0
 12 13  2  0  0  0
 12 94  1  0  0  0
 13 14  1  0  0  0
 13 31  1  0  0  0
 14 15  2  0  0  0
 14 95  1  0  0  0
 15 96  1  0  0  0
 16 17  2  0  0  0
 16 21  1  0  0  0
 16 31  1  0  0  0
 17 18  1  0  0  0
 17 97  1  0  0  0
 18 19  2  0  0  0
 18 98  1  0  0  0
 19 20  1  0  0  0
 19 24  1  0  0  0
 20 21  2  0  0  0
 20 99  1  0  0  0
 21 23  1  0  0  0
 22 28  1  0  0  0
 22 32  2  0  0  0
 26 27  1  0  0  0
 28100  1  0  0  0
 28101  1  0  0  0
 29102  1  0  0  0
 29103  1  0  0  0
 33 34  1  0  0  0
 33 66  1  0  0  0
 33 70  2  0  0  0
 34 36  1  0  0  0
 34 59  1  0  0  0
 34104  1  0  0  0
 35 44  2  0  0  0
 35 45  1  0  0  0
 35 68  1  0  0  0
 36 56  1  0  0  0
 36105  1  0  0  0
 37 39  1  0  0  0
 37 47  1  0  0  0
 37 66  1  0  0  0
 37106  1  0  0  0
 38 43  2  0  0  0
 38 46  1  0  0  0
 38 47  1  0  0  0
 39 64  1  0  0  0
 39 67  2  0  0  0
 40 52  1  0  0  0
 40 53  2  0  0  0
 40 58  1  0  0  0
 41107  1  0  0  0
 41108  1  0  0  0
 41109  1  0  0  0
 41 48  1  0  0  0
 42 43  1  0  0  0
 42 66  1  0  0  0
 42110  1  0  0  0
 42111  1  0  0  0
 43 44  1  0  0  0
 44112  1  0  0  0
 45 46  2  0  0  0
 45113  1  0  0  0
 46114  1  0  0  0
 47115  1  0  0  0
 47116  1  0  0  0
 48 56  1  0  0  0
 48 65  1  0  0  0
 48117  1  0  0  0
 49 50  1  0  0  0
 49 53  1  0  0  0
 49 64  1  0  0  0
 49118  1  0  0  0
 50 51  1  0  0  0
 50119  1  0  0  0
 50120  1  0  0  0
 51 52  1  0  0  0
 51121  1  0  0  0
 51122  1  0  0  0
 52123  1  0  0  0
 52124  1  0  0  0
 53 54  1  0  0  0
 54 55  2  0  0  0
 54125  1  0  0  0
 55 57  1  0  0  0
 55126  1  0  0  0
 56 69  2  0  0  0
 57 58  2  0  0  0
 57127  1  0  0  0
 58128  1  0  0  0
 59 60  1  0  0  0
 59 61  1  0  0  0
 59 62  1  0  0  0
 60129  1  0  0  0
 60130  1  0  0  0
 60131  1  0  0  0
 61132  1  0  0  0
 61133  1  0  0  0
 61134  1  0  0  0
 62135  1  0  0  0
 62136  1  0  0  0
 62137  1  0  0  0
 63 65  1  0  0  0
 63138  1  0  0  0
 63139  1  0  0  0
 63140  1  0  0  0
 64141  1  0  0  0
 65142  1  0  0  0
 68 76  1  0  0  0
 71 72  2  0  0  0
 71 79  1  0  0  0
 71143  1  0  0  0
 72 77  1  0  0  0
 72 83  1  0  0  0
 73 79  2  0  0  0
 73 80  1  0  0  0
 73 83  1  0  0  0
 74 78  1  0  0  0
 74 80  1  0  0  0
 74 81  2  0  0  0
 75144  1  0  0  0
 75145  1  0  0  0
 75146  1  0  0  0
 75 77  1  0  0  0
 76 78  1  0  0  0
 76147  1  0  0  0
 76148  1  0  0  0
 77149  1  0  0  0
 78 82  1  0  0  0
 78150  1  0  0  0
 80151  1  0  0  0
M  ISO  4   1 100  68 101  76 101  77 100
M  END
> <chiral flag>
0

> <version>
0

> <s_m_source_file>
/data/baiqing/PycharmProjects/Reinvent-master-3.2/result/LINK_invent/BTK/process_docking_weight1_custom_product_contain_oxygen_bond_distance_aromatic_linkinvent_7_9_3/rearranged_h_0188.sdf

> <i_m_source_file_index>
19

> <r_mmod_Potential_Energy-OPLS-2005>
82.7091369628906

> <r_mmod_Stretch_Energy-OPLS-2005>
105.323165893555

> <r_mmod_Bend_Energy-OPLS-2005>
195.225891113281

> <r_mmod_Torsional_Energy-OPLS-2005>
172.684265136719

> <r_mmod_Improper_Torsional_Energy-OPLS-2005>
2.87962317466736

> <r_mmod_Van_der_Waal_Energy-OPLS-2005>
132.127899169922

> <r_mmod_Electrostatic_Energy-OPLS-2005>
-374.276336669922

> <r_mmod_Solvation_Energy-OPLS-2005>
-210.483245849609

> <b_mmod_Minimization_Converged-OPLS-2005>
0

> <r_mmod_RMS_Derivative-OPLS-2005>
4.28773021697998

$$$$
20
                    3D
 Structure written by MMmdl.
185193  0  0  1  0            999 V2000
  -30.6286  -14.5774   20.5823 C   0  0  0  0  0  0
  -30.4428  -12.3768   19.4442 C   0  0  0  0  0  0
  -29.5102  -12.5262   18.2229 C   0  0  0  0  0  0
  -28.0275  -12.3795   18.6203 C   0  0  0  0  0  0
  -27.6610  -13.2099   19.8790 C   0  0  2  0  0  0
  -28.7001  -12.9926   21.0004 C   0  0  0  0  0  0
  -25.2538  -13.8127   20.5622 C   0  0  0  0  0  0
  -24.1819  -13.0402   20.9139 C   0  0  0  0  0  0
  -24.6397  -11.6877   20.8709 C   0  0  0  0  0  0
  -23.9068  -10.4268   21.0370 C   0  0  0  0  0  0
  -24.3655   -9.4196   21.9137 C   0  0  0  0  0  0
  -23.6317   -8.2245   22.0733 C   0  0  0  0  0  0
  -22.4297   -8.0273   21.3546 C   0  0  0  0  0  0
  -21.9924   -9.0227   20.4635 C   0  0  0  0  0  0
  -22.7254  -10.2101   20.3017 C   0  0  0  0  0  0
  -21.6859   -6.0733   22.5257 C   0  0  0  0  0  0
  -21.4005   -6.5637   23.8193 C   0  0  0  0  0  0
  -21.3656   -5.6805   24.9165 C   0  0  0  0  0  0
  -21.6055   -4.3065   24.7208 C   0  0  0  0  0  0
  -21.8838   -3.8158   23.4318 C   0  0  0  0  0  0
  -21.9196   -4.6967   22.3381 C   0  0  0  0  0  0
  -22.7852  -13.5187   21.1834 C   0  0  0  0  0  0
  -22.1658   -4.2155   21.0959 F   0  0  0  0  0  0
  -21.5649   -3.4548   25.7713 F   0  0  0  0  0  0
  -30.0263  -13.3536   20.4666 N   0  0  0  0  0  0
  -26.3008  -12.9317   20.3359 N   0  0  0  0  0  0
  -25.9339  -11.6473   20.5765 N   0  0  0  0  0  0
  -22.0528  -12.8163   22.0414 N   0  0  0  0  0  0
  -25.4252  -15.1827   20.3986 N   0  0  0  0  0  0
  -31.7343  -14.8115   20.0836 O   0  0  0  0  0  0
  -21.6665   -6.8871   21.4224 O   0  0  0  0  0  0
  -22.3512  -14.5484   20.6690 O   0  0  0  0  0  0
  -24.6216  -31.8607   23.2093 C   0  0  0  0  0  0
  -25.9078  -32.4794   23.8396 C   0  0  1  0  0  0
  -27.2194  -27.3519   20.1063 C   0  0  0  0  0  0
  -25.5897  -33.8603   24.2295 N   0  0  0  0  0  0
  -23.4123  -30.4815   21.5551 C   0  0  2  0  0  0
  -24.8589  -28.9456   20.1162 C   0  0  0  0  0  0
  -22.7457  -29.4583   22.5025 C   0  0  0  0  0  0
  -18.0268  -28.1379   22.8506 C   0  0  0  0  0  0
  -24.1481  -36.7303   23.2629 C   0  0  0  0  0  0
  -25.9519  -30.7992   21.3795 C   0  0  0  0  0  0
  -26.0254  -29.4327   20.7166 C   0  0  0  0  0  0
  -27.2121  -28.6458   20.7014 C   0  0  0  0  0  0
  -26.0318  -26.9111   19.4812 C   0  0  0  0  0  0
  -24.8599  -27.6879   19.4942 C   0  0  0  0  0  0
  -23.6236  -29.8188   20.1692 C   0  0  0  0  0  0
  -25.4125  -36.3108   24.0305 C   0  0  1  0  0  0
  -20.5873  -28.3649   23.1349 C   0  0  2  0  0  0
  -20.6769  -26.9374   22.5460 C   0  0  0  0  0  0
  -19.5741  -26.6370   21.5259 C   0  0  0  0  0  0
  -18.1917  -26.7929   22.1638 C   0  0  0  0  0  0
  -19.1527  -28.8839   23.2911 C   0  0  0  0  0  0
  -18.9430  -30.1462   23.8892 C   0  0  0  0  0  0
  -17.6428  -30.6577   24.0565 C   0  0  0  0  0  0
  -25.9051  -34.9465   23.5091 C   0  0  0  0  0  0
  -16.5316  -29.9070   23.6346 C   0  0  0  0  0  0
  -16.7252  -28.6484   23.0366 C   0  0  0  0  0  0
  -26.4470  -31.6630   25.0769 C   0  0  0  0  0  0
  -25.3711  -31.3754   26.1496 C   0  0  0  0  0  0
  -27.0324  -30.3038   24.6267 C   0  0  0  0  0  0
  -27.6044  -32.4374   25.7528 C   0  0  0  0  0  0
  -27.5589  -37.1810   24.8445 C   0  0  0  0  0  0
  -21.4187  -29.2964   22.3736 N   0  0  0  0  0  0
  -26.4311  -37.3799   23.9383 N   0  0  0  0  0  0
  -24.6792  -31.0650   22.1027 N   0  0  0  0  0  0
  -23.4205  -28.8132   23.3091 O   0  0  0  0  0  0
  -28.3588  -26.5456   20.1177 O   0  0  0  0  0  0
  -26.5626  -34.8903   22.4667 O   0  0  0  0  0  0
  -23.5390  -32.1410   23.7412 O   0  0  0  0  0  0
  -29.8645  -19.2085   20.6636 C   0  0  0  0  0  0
  -28.4989  -19.0797   20.7102 C   0  0  0  0  0  0
  -29.6053  -16.8938   20.9646 C   0  0  0  0  0  0
  -31.0308  -23.9968   22.8583 C   0  0  0  0  0  0
  -28.4490  -22.5912   24.2289 C   0  0  0  0  0  0
  -30.0084  -22.1028   26.1469 C   0  0  0  0  0  0
  -33.7062  -26.4667   19.2755 C   0  0  0  0  0  0
  -34.6888  -24.3037   20.0927 C   0  0  0  0  0  0
  -30.7275  -20.4667   20.4459 C   0  0  0  0  0  0
  -31.0009  -22.9227   23.9569 C   0  0  0  0  0  0
  -32.4133  -25.1319   21.0074 C   0  0  0  0  0  0
  -28.1929  -25.1006   20.3322 C   0  0  0  0  0  0
  -31.9991  -23.7830   21.6680 C   0  0  2  0  0  0
  -29.7771  -22.9842   24.9109 C   0  0  0  0  0  0
  -33.3790  -25.0571   19.7987 C   0  0  0  0  0  0
  -30.2676  -21.9859   20.7050 C   0  0  2  0  0  0
  -29.0940  -24.1986   19.4120 C   0  0  1  0  0  0
  -29.2416  -22.6227   19.6658 C   0  0  1  0  0  0
  -30.4827  -17.9208   20.8073 N   0  0  0  0  0  0
  -29.8999  -15.5080   21.2557 N   0  0  0  0  0  0
  -31.5599  -22.7500   20.6666 N   0  3  0  0  0  0
  -30.3253  -25.0013   22.9617 O   0  0  0  0  0  0
  -28.4714  -24.3034   18.1384 O   0  0  0  0  0  0
  -27.6279  -20.1058   20.5833 F   0  0  0  0  0  0
  -29.6322  -22.1249   18.4882 F   0  0  0  0  0  0
  -27.9320  -17.4533   20.9731 S   0  0  0  0  0  0
  -31.4812  -12.5242   19.1458 H   0  0  0  0  0  0
  -30.3919  -11.3647   19.8481 H   0  0  0  0  0  0
  -29.7705  -11.7874   17.4628 H   0  0  0  0  0  0
  -29.6668  -13.5054   17.7647 H   0  0  0  0  0  0
  -27.8441  -11.3218   18.8114 H   0  0  0  0  0  0
  -27.3810  -12.6533   17.7861 H   0  0  0  0  0  0
  -27.6993  -14.2600   19.5859 H   0  0  0  0  0  0
  -28.7031  -11.9467   21.3125 H   0  0  0  0  0  0
  -28.4326  -13.5563   21.8947 H   0  0  0  0  0  0
  -25.2795   -9.5690   22.4715 H   0  0  0  0  0  0
  -24.0030   -7.4655   22.7469 H   0  0  0  0  0  0
  -21.0845   -8.8753   19.8951 H   0  0  0  0  0  0
  -22.3697  -10.9650   19.6139 H   0  0  0  0  0  0
  -21.1987   -7.6143   23.9689 H   0  0  0  0  0  0
  -21.1462   -6.0533   25.9077 H   0  0  0  0  0  0
  -22.0619   -2.7606   23.2826 H   0  0  0  0  0  0
  -22.4174  -11.9812   22.4754 H   0  0  0  0  0  0
  -21.1126  -13.1161   22.2646 H   0  0  0  0  0  0
  -24.6670  -15.8472   20.5101 H   0  0  0  0  0  0
  -26.2758  -15.6105   20.0624 H   0  0  0  0  0  0
  -26.7132  -32.5465   23.1142 H   0  0  0  0  0  0
  -24.9996  -33.9778   25.0392 H   0  0  0  0  0  0
  -22.7012  -31.2987   21.4186 H   0  0  0  0  0  0
  -23.3763  -35.9613   23.3306 H   0  0  0  0  0  0
  -24.3535  -36.8937   22.2038 H   0  0  0  0  0  0
  -23.7234  -37.6492   23.6673 H   0  0  0  0  0  0
  -26.0910  -31.5689   20.6189 H   0  0  0  0  0  0
  -26.8260  -30.8346   22.0173 H   0  0  0  0  0  0
  -28.1147  -29.0172   21.1666 H   0  0  0  0  0  0
  -25.9900  -25.9605   18.9684 H   0  0  0  0  0  0
  -23.9644  -27.3142   19.0205 H   0  0  0  0  0  0
  -23.7310  -30.5972   19.4115 H   0  0  0  0  0  0
  -22.7442  -29.2411   19.8750 H   0  0  0  0  0  0
  -25.1324  -36.1955   25.0802 H   0  0  0  0  0  0
  -20.9932  -28.3197   24.1483 H   0  0  0  0  0  0
  -20.5753  -26.2199   23.3622 H   0  0  0  0  0  0
  -21.6626  -26.7457   22.1186 H   0  0  0  0  0  0
  -19.6886  -25.6292   21.1258 H   0  0  0  0  0  0
  -19.6720  -27.3208   20.6819 H   0  0  0  0  0  0
  -17.4216  -26.6729   21.4011 H   0  0  0  0  0  0
  -18.0243  -26.0072   22.9007 H   0  0  0  0  0  0
  -19.7898  -30.7307   24.2241 H   0  0  0  0  0  0
  -17.4957  -31.6266   24.5141 H   0  0  0  0  0  0
  -15.5310  -30.2938   23.7703 H   0  0  0  0  0  0
  -15.8648  -28.0792   22.7094 H   0  0  0  0  0  0
  -24.5854  -30.7151   25.7802 H   0  0  0  0  0  0
  -24.8937  -32.2911   26.4984 H   0  0  0  0  0  0
  -25.8001  -30.8864   27.0249 H   0  0  0  0  0  0
  -26.2899  -29.6791   24.1267 H   0  0  0  0  0  0
  -27.3952  -29.7301   25.4819 H   0  0  0  0  0  0
  -27.8818  -30.4293   23.9538 H   0  0  0  0  0  0
  -27.2648  -33.3653   26.2141 H   0  0  0  0  0  0
  -28.3825  -32.6984   25.0341 H   0  0  0  0  0  0
  -28.0758  -31.8502   26.5419 H   0  0  0  0  0  0
  -28.2614  -38.0105   24.7521 H   0  0  0  0  0  0
  -28.1085  -36.2641   24.6261 H   0  0  0  0  0  0
  -27.2276  -37.1435   25.8837 H   0  0  0  0  0  0
  -20.9355  -29.8627   21.6902 H   0  0  0  0  0  0
  -26.0191  -38.2855   24.1448 H   0  0  0  0  0  0
  -27.6215  -22.6159   24.9392 H   0  0  0  0  0  0
  -28.4847  -21.5823   23.8145 H   0  0  0  0  0  0
  -28.1843  -23.2770   23.4238 H   0  0  0  0  0  0
  -29.1637  -22.1623   26.8329 H   0  0  0  0  0  0
  -30.8921  -22.4196   26.7021 H   0  0  0  0  0  0
  -30.1430  -21.0553   25.8784 H   0  0  0  0  0  0
  -34.2860  -26.4150   18.3529 H   0  0  0  0  0  0
  -34.2941  -27.0376   19.9961 H   0  0  0  0  0  0
  -32.8016  -27.0378   19.0621 H   0  0  0  0  0  0
  -35.3320  -24.3026   19.2127 H   0  0  0  0  0  0
  -34.5179  -23.2586   20.3495 H   0  0  0  0  0  0
  -35.2531  -24.7637   20.9060 H   0  0  0  0  0  0
  -31.1161  -20.4091   19.4290 H   0  0  0  0  0  0
  -31.6140  -20.3103   21.0640 H   0  0  0  0  0  0
  -31.9116  -23.0634   24.5391 H   0  0  0  0  0  0
  -31.0861  -21.9310   23.5157 H   0  0  0  0  0  0
  -32.8701  -25.7602   21.7743 H   0  0  0  0  0  0
  -31.5212  -25.6822   20.7070 H   0  0  0  0  0  0
  -28.4462  -24.9117   21.3690 H   0  0  0  0  0  0
  -27.1591  -24.7634   20.2647 H   0  0  0  0  0  0
  -32.9115  -23.3781   22.1032 H   0  0  0  0  0  0
  -29.6770  -24.0110   25.2706 H   0  0  0  0  0  0
  -32.8695  -24.5296   18.9909 H   0  0  0  0  0  0
  -29.8057  -22.0106   21.6889 H   0  0  0  0  0  0
  -30.0828  -24.6430   19.3249 H   0  0  0  0  0  0
  -28.2476  -22.2198   19.8464 H   0  0  0  0  0  0
  -29.1323  -15.0476   21.7195 H   0  0  0  0  0  0
  -32.2617  -22.0315   20.7743 H   0  0  0  0  0  0
  -31.7027  -23.1023   19.7318 H   0  0  0  0  0  0
  -28.8297  -23.5977   17.6028 H   0  0  0  0  0  0
  1 25  1  0  0  0
  1 30  2  0  0  0
  1 90  1  0  0  0
  2  3  1  0  0  0
  2 25  1  0  0  0
  2 97  1  0  0  0
  2 98  1  0  0  0
  3  4  1  0  0  0
  3 99  1  0  0  0
  3100  1  0  0  0
  4  5  1  0  0  0
  4101  1  0  0  0
  4102  1  0  0  0
  5  6  1  0  0  0
  5 26  1  0  0  0
  5103  1  0  0  0
  6 25  1  0  0  0
  6104  1  0  0  0
  6105  1  0  0  0
  7  8  2  0  0  0
  7 26  1  0  0  0
  7 29  1  0  0  0
  8  9  1  0  0  0
  8 22  1  0  0  0
  9 10  1  0  0  0
  9 27  2  0  0  0
 10 11  2  0  0  0
 10 15  1  0  0  0
 11 12  1  0  0  0
 11106  1  0  0  0
 12 13  2  0  0  0
 12107  1  0  0  0
 13 14  1  0  0  0
 13 31  1  0  0  0
 14 15  2  0  0  0
 14108  1  0  0  0
 15109  1  0  0  0
 16 17  2  0  0  0
 16 21  1  0  0  0
 16 31  1  0  0  0
 17 18  1  0  0  0
 17110  1  0  0  0
 18 19  2  0  0  0
 18111  1  0  0  0
 19 20  1  0  0  0
 19 24  1  0  0  0
 20 21  2  0  0  0
 20112  1  0  0  0
 21 23  1  0  0  0
 22 28  1  0  0  0
 22 32  2  0  0  0
 26 27  1  0  0  0
 28113  1  0  0  0
 28114  1  0  0  0
 29115  1  0  0  0
 29116  1  0  0  0
 33 34  1  0  0  0
 33 66  1  0  0  0
 33 70  2  0  0  0
 34 36  1  0  0  0
 34 59  1  0  0  0
 34117  1  0  0  0
 35 44  2  0  0  0
 35 45  1  0  0  0
 35 68  1  0  0  0
 36 56  1  0  0  0
 36118  1  0  0  0
 37 39  1  0  0  0
 37 47  1  0  0  0
 37 66  1  0  0  0
 37119  1  0  0  0
 38 43  2  0  0  0
 38 46  1  0  0  0
 38 47  1  0  0  0
 39 64  1  0  0  0
 39 67  2  0  0  0
 40 52  1  0  0  0
 40 53  2  0  0  0
 40 58  1  0  0  0
 41120  1  0  0  0
 41121  1  0  0  0
 41122  1  0  0  0
 41 48  1  0  0  0
 42 43  1  0  0  0
 42 66  1  0  0  0
 42123  1  0  0  0
 42124  1  0  0  0
 43 44  1  0  0  0
 44125  1  0  0  0
 45 46  2  0  0  0
 45126  1  0  0  0
 46127  1  0  0  0
 47128  1  0  0  0
 47129  1  0  0  0
 48 56  1  0  0  0
 48 65  1  0  0  0
 48130  1  0  0  0
 49 50  1  0  0  0
 49 53  1  0  0  0
 49 64  1  0  0  0
 49131  1  0  0  0
 50 51  1  0  0  0
 50132  1  0  0  0
 50133  1  0  0  0
 51 52  1  0  0  0
 51134  1  0  0  0
 51135  1  0  0  0
 52136  1  0  0  0
 52137  1  0  0  0
 53 54  1  0  0  0
 54 55  2  0  0  0
 54138  1  0  0  0
 55 57  1  0  0  0
 55139  1  0  0  0
 56 69  2  0  0  0
 57 58  2  0  0  0
 57140  1  0  0  0
 58141  1  0  0  0
 59 60  1  0  0  0
 59 61  1  0  0  0
 59 62  1  0  0  0
 60142  1  0  0  0
 60143  1  0  0  0
 60144  1  0  0  0
 61145  1  0  0  0
 61146  1  0  0  0
 61147  1  0  0  0
 62148  1  0  0  0
 62149  1  0  0  0
 62150  1  0  0  0
 63 65  1  0  0  0
 63151  1  0  0  0
 63152  1  0  0  0
 63153  1  0  0  0
 64154  1  0  0  0
 65155  1  0  0  0
 68 82  1  0  0  0
 71 72  2  0  0  0
 71 79  1  0  0  0
 71 89  1  0  0  0
 72 94  1  0  0  0
 72 96  1  0  0  0
 73 89  2  0  0  0
 73 90  1  0  0  0
 73 96  1  0  0  0
 74 80  1  0  0  0
 74 83  1  0  0  0
 74 92  2  0  0  0
 75156  1  0  0  0
 75157  1  0  0  0
 75158  1  0  0  0
 75 84  1  0  0  0
 76 84  1  0  0  0
 76159  1  0  0  0
 76160  1  0  0  0
 76161  1  0  0  0
 77162  1  0  0  0
 77163  1  0  0  0
 77164  1  0  0  0
 77 85  1  0  0  0
 78 85  1  0  0  0
 78165  1  0  0  0
 78166  1  0  0  0
 78167  1  0  0  0
 79168  1  0  0  0
 79169  1  0  0  0
 79 86  1  0  0  0
 80 84  1  0  0  0
 80170  1  0  0  0
 80171  1  0  0  0
 81 85  1  0  0  0
 81172  1  0  0  0
 81173  1  0  0  0
 81 83  1  0  0  0
 82 87  1  0  0  0
 82174  1  0  0  0
 82175  1  0  0  0
 83 91  1  0  0  0
 83176  1  0  0  0
 84177  1  0  0  0
 85178  1  0  0  0
 86 88  1  0  0  0
 86 91  1  0  0  0
 86179  1  0  0  0
 87 88  1  0  0  0
 87 93  1  0  0  0
 87180  1  0  0  0
 88 95  1  0  0  0
 88181  1  0  0  0
 90182  1  0  0  0
 91183  1  0  0  0
 91184  1  0  0  0
 93185  1  0  0  0
M  CHG  1  91   1
M  ISO  4   1 100  68 101  82 101  90 100
M  END
> <chiral flag>
0

> <version>
0

> <s_m_source_file>
/data/baiqing/PycharmProjects/Reinvent-master-3.2/result/LINK_invent/BTK/process_docking_weight1_custom_product_contain_oxygen_bond_distance_aromatic_linkinvent_7_9_3/rearranged_h_0188.sdf

> <i_m_source_file_index>
20

> <r_mmod_Potential_Energy-OPLS-2005>
-82.7465591430664

> <r_mmod_Stretch_Energy-OPLS-2005>
77.5599822998047

> <r_mmod_Bend_Energy-OPLS-2005>
211.963928222656

> <r_mmod_Torsional_Energy-OPLS-2005>
294.748443603516

> <r_mmod_Improper_Torsional_Energy-OPLS-2005>
5.30982685089111

> <r_mmod_Van_der_Waal_Energy-OPLS-2005>
116.111190795898

> <r_mmod_Electrostatic_Energy-OPLS-2005>
-308.751220703125

> <r_mmod_Solvation_Energy-OPLS-2005>
-511.246124267578

> <b_mmod_Minimization_Converged-OPLS-2005>
0

> <r_mmod_RMS_Derivative-OPLS-2005>
4.14279508590698

$$$$
21
                    3D
 Structure written by MMmdl.
163171  0  0  1  0            999 V2000
  -30.5926  -14.7094   20.4744 C   0  0  0  0  0  0
  -30.4417  -12.4315   19.4693 C   0  0  0  0  0  0
  -29.5132  -12.5080   18.2357 C   0  0  0  0  0  0
  -28.0373  -12.3350   18.6473 C   0  0  0  0  0  0
  -27.6485  -13.2219   19.8600 C   0  0  2  0  0  0
  -28.6924  -13.1126   20.9942 C   0  0  0  0  0  0
  -25.2540  -13.8187   20.5693 C   0  0  0  0  0  0
  -24.1817  -13.0442   20.9197 C   0  0  0  0  0  0
  -24.6390  -11.6914   20.8743 C   0  0  0  0  0  0
  -23.9062  -10.4291   21.0403 C   0  0  0  0  0  0
  -24.3609   -9.4206   21.9181 C   0  0  0  0  0  0
  -23.6283   -8.2248   22.0753 C   0  0  0  0  0  0
  -22.4267   -8.0280   21.3545 C   0  0  0  0  0  0
  -21.9905   -9.0255   20.4643 C   0  0  0  0  0  0
  -22.7236  -10.2132   20.3053 C   0  0  0  0  0  0
  -21.6853   -6.0734   22.5275 C   0  0  0  0  0  0
  -21.4012   -6.5639   23.8209 C   0  0  0  0  0  0
  -21.3656   -5.6791   24.9172 C   0  0  0  0  0  0
  -21.6048   -4.3055   24.7224 C   0  0  0  0  0  0
  -21.8817   -3.8147   23.4343 C   0  0  0  0  0  0
  -21.9188   -4.6961   22.3401 C   0  0  0  0  0  0
  -22.7840  -13.5232   21.1858 C   0  0  0  0  0  0
  -22.1660   -4.2150   21.0978 F   0  0  0  0  0  0
  -21.5626   -3.4538   25.7738 F   0  0  0  0  0  0
  -30.0013  -13.4689   20.4273 N   0  0  0  0  0  0
  -26.2961  -12.9369   20.3305 N   0  0  0  0  0  0
  -25.9318  -11.6520   20.5754 N   0  0  0  0  0  0
  -22.0475  -12.8224   22.0415 N   0  0  0  0  0  0
  -25.4267  -15.1911   20.4120 N   0  0  0  0  0  0
  -31.7585  -14.8634   20.0974 O   0  0  0  0  0  0
  -21.6632   -6.8877   21.4241 O   0  0  0  0  0  0
  -22.3525  -14.5539   20.6706 O   0  0  0  0  0  0
  -24.6276  -31.8552   23.1989 C   0  0  0  0  0  0
  -25.9109  -32.4757   23.8315 C   0  0  1  0  0  0
  -27.2229  -27.2845   20.1223 C   0  0  0  0  0  0
  -25.5911  -33.8557   24.2244 N   0  0  0  0  0  0
  -23.4206  -30.4778   21.5421 C   0  0  2  0  0  0
  -24.8666  -28.9254   20.1075 C   0  0  0  0  0  0
  -22.7465  -29.4602   22.4929 C   0  0  0  0  0  0
  -18.0280  -28.1376   22.8478 C   0  0  0  0  0  0
  -24.1478  -36.7293   23.2641 C   0  0  0  0  0  0
  -25.9616  -30.7771   21.3695 C   0  0  0  0  0  0
  -26.0338  -29.3988   20.7176 C   0  0  0  0  0  0
  -27.2091  -28.5885   20.7184 C   0  0  0  0  0  0
  -26.0279  -26.8653   19.4939 C   0  0  0  0  0  0
  -24.8677  -27.6662   19.4870 C   0  0  0  0  0  0
  -23.6332  -29.8060   20.1588 C   0  0  0  0  0  0
  -25.4108  -36.3072   24.0321 C   0  0  1  0  0  0
  -20.5878  -28.3676   23.1281 C   0  0  2  0  0  0
  -20.6767  -26.9392   22.5417 C   0  0  0  0  0  0
  -19.5748  -26.6365   21.5208 C   0  0  0  0  0  0
  -18.1919  -26.7917   22.1607 C   0  0  0  0  0  0
  -19.1533  -28.8844   23.2870 C   0  0  0  0  0  0
  -18.9461  -30.1444   23.8883 C   0  0  0  0  0  0
  -17.6471  -30.6586   24.0557 C   0  0  0  0  0  0
  -25.9047  -34.9442   23.5088 C   0  0  0  0  0  0
  -16.5358  -29.9080   23.6342 C   0  0  0  0  0  0
  -16.7269  -28.6500   23.0357 C   0  0  0  0  0  0
  -26.4493  -31.6590   25.0698 C   0  0  0  0  0  0
  -25.3725  -31.3730   26.1425 C   0  0  0  0  0  0
  -27.0357  -30.3028   24.6152 C   0  0  0  0  0  0
  -27.6030  -32.4348   25.7492 C   0  0  0  0  0  0
  -27.5571  -37.1794   24.8459 C   0  0  0  0  0  0
  -21.4181  -29.3029   22.3677 N   0  0  0  0  0  0
  -26.4285  -37.3771   23.9406 N   0  0  0  0  0  0
  -24.6896  -31.0537   22.0943 N   0  0  0  0  0  0
  -23.4184  -28.8137   23.3011 O   0  0  0  0  0  0
  -28.3575  -26.4529   20.2008 O   0  0  0  0  0  0
  -26.5620  -34.8919   22.4658 O   0  0  0  0  0  0
  -23.5441  -32.1360   23.7317 O   0  0  0  0  0  0
  -30.7997  -17.8945   19.8596 C   0  0  0  0  0  0
  -29.8995  -17.1570   20.6107 C   0  0  0  0  0  0
  -29.6386  -19.7611   20.6683 C   0  0  0  0  0  0
  -28.5310  -23.8418   20.5924 C   0  0  0  0  0  0
  -32.1467  -22.0632   23.9034 C   0  0  0  0  0  0
  -31.6405  -19.7437   23.1842 C   0  0  0  0  0  0
  -29.8409  -21.1677   24.2372 C   0  0  0  0  0  0
  -28.9570  -22.3901   20.0661 C   0  0  0  0  0  0
  -28.4355  -25.0842   19.6028 C   0  0  0  0  0  0
  -30.6892  -21.7670   21.8967 C   0  0  0  0  0  0
  -29.4351  -21.2589   21.1170 C   0  0  2  0  0  0
  -31.0540  -21.1654   23.2870 C   0  0  0  0  0  0
  -30.6329  -19.3095   19.8818 N   0  0  0  0  0  0
  -29.7784  -15.7748   20.8046 N   0  0  0  0  0  0
  -28.2411  -23.9954   21.7837 O   0  0  0  0  0  0
  -28.7576  -18.3343   21.3250 S   0  0  0  0  0  0
  -31.4820  -12.5657   19.1677 H   0  0  0  0  0  0
  -30.3913  -11.4447   19.9321 H   0  0  0  0  0  0
  -29.7901  -11.7457   17.5067 H   0  0  0  0  0  0
  -29.6423  -13.4698   17.7368 H   0  0  0  0  0  0
  -27.8871  -11.2842   18.8981 H   0  0  0  0  0  0
  -27.3812  -12.5407   17.8012 H   0  0  0  0  0  0
  -27.6549  -14.2504   19.4983 H   0  0  0  0  0  0
  -28.7187  -12.0985   21.3957 H   0  0  0  0  0  0
  -28.4282  -13.7591   21.8323 H   0  0  0  0  0  0
  -25.2749   -9.5687   22.4760 H   0  0  0  0  0  0
  -23.9992   -7.4639   22.7480 H   0  0  0  0  0  0
  -21.0837   -8.8769   19.8951 H   0  0  0  0  0  0
  -22.3688  -10.9668   19.6164 H   0  0  0  0  0  0
  -21.2005   -7.6143   23.9715 H   0  0  0  0  0  0
  -21.1484   -6.0519   25.9075 H   0  0  0  0  0  0
  -22.0598   -2.7609   23.2843 H   0  0  0  0  0  0
  -22.4084  -11.9876   22.4795 H   0  0  0  0  0  0
  -21.1099  -13.1259   22.2626 H   0  0  0  0  0  0
  -24.6604  -15.8461   20.5219 H   0  0  0  0  0  0
  -26.2730  -15.6290   20.0721 H   0  0  0  0  0  0
  -26.7161  -32.5427   23.1048 H   0  0  0  0  0  0
  -25.0056  -33.9691   25.0388 H   0  0  0  0  0  0
  -22.7155  -31.2993   21.3968 H   0  0  0  0  0  0
  -23.3740  -35.9625   23.3301 H   0  0  0  0  0  0
  -24.3566  -36.8934   22.2057 H   0  0  0  0  0  0
  -23.7232  -37.6488   23.6685 H   0  0  0  0  0  0
  -26.0823  -31.5312   20.5906 H   0  0  0  0  0  0
  -26.8473  -30.8385   21.9906 H   0  0  0  0  0  0
  -28.1028  -28.9438   21.2112 H   0  0  0  0  0  0
  -25.9427  -25.8987   19.0245 H   0  0  0  0  0  0
  -23.9694  -27.2964   19.0110 H   0  0  0  0  0  0
  -23.7395  -30.5776   19.3956 H   0  0  0  0  0  0
  -22.7540  -29.2281   19.8677 H   0  0  0  0  0  0
  -25.1290  -36.1919   25.0815 H   0  0  0  0  0  0
  -20.9964  -28.3254   24.1404 H   0  0  0  0  0  0
  -20.5657  -26.2278   23.3615 H   0  0  0  0  0  0
  -21.6637  -26.7403   22.1219 H   0  0  0  0  0  0
  -19.6914  -25.6271   21.1243 H   0  0  0  0  0  0
  -19.6715  -27.3174   20.6738 H   0  0  0  0  0  0
  -17.4197  -26.6675   21.3999 H   0  0  0  0  0  0
  -18.0306  -26.0054   22.8996 H   0  0  0  0  0  0
  -19.7942  -30.7251   24.2251 H   0  0  0  0  0  0
  -17.5028  -31.6272   24.5137 H   0  0  0  0  0  0
  -15.5356  -30.2977   23.7682 H   0  0  0  0  0  0
  -15.8663  -28.0821   22.7082 H   0  0  0  0  0  0
  -24.5915  -30.7057   25.7762 H   0  0  0  0  0  0
  -24.8893  -32.2893   26.4824 H   0  0  0  0  0  0
  -25.8041  -30.8935   27.0220 H   0  0  0  0  0  0
  -26.2941  -29.6765   24.1180 H   0  0  0  0  0  0
  -27.4083  -29.7292   25.4650 H   0  0  0  0  0  0
  -27.8782  -30.4338   23.9357 H   0  0  0  0  0  0
  -27.2618  -33.3656   26.2040 H   0  0  0  0  0  0
  -28.3862  -32.6906   25.0342 H   0  0  0  0  0  0
  -28.0672  -31.8497   26.5443 H   0  0  0  0  0  0
  -28.2572  -38.0103   24.7514 H   0  0  0  0  0  0
  -28.1080  -36.2634   24.6277 H   0  0  0  0  0  0
  -27.2289  -37.1435   25.8860 H   0  0  0  0  0  0
  -20.9358  -29.8753   21.6890 H   0  0  0  0  0  0
  -26.0163  -38.2839   24.1434 H   0  0  0  0  0  0
  -31.6123  -17.4956   19.2675 H   0  0  0  0  0  0
  -32.4711  -21.6933   24.8770 H   0  0  0  0  0  0
  -31.7957  -23.0857   24.0506 H   0  0  0  0  0  0
  -33.0299  -22.1123   23.2639 H   0  0  0  0  0  0
  -32.1021  -19.4331   24.1222 H   0  0  0  0  0  0
  -32.4061  -19.6816   22.4094 H   0  0  0  0  0  0
  -30.8833  -18.9972   22.9622 H   0  0  0  0  0  0
  -30.1253  -20.8728   25.2480 H   0  0  0  0  0  0
  -29.0664  -20.4721   23.9139 H   0  0  0  0  0  0
  -29.3889  -22.1585   24.3021 H   0  0  0  0  0  0
  -29.7465  -22.5336   19.3289 H   0  0  0  0  0  0
  -28.1019  -22.0037   19.5136 H   0  0  0  0  0  0
  -27.6490  -24.8937   18.8785 H   0  0  0  0  0  0
  -29.3559  -25.0684   19.0193 H   0  0  0  0  0  0
  -30.5775  -22.8377   22.0574 H   0  0  0  0  0  0
  -31.5536  -21.6869   21.2361 H   0  0  0  0  0  0
  -28.6135  -21.2169   21.8303 H   0  0  0  0  0  0
  -28.8891  -15.4835   21.1805 H   0  0  0  0  0  0
  1 25  1  0  0  0
  1 30  2  0  0  0
  1 84  1  0  0  0
  2  3  1  0  0  0
  2 25  1  0  0  0
  2 87  1  0  0  0
  2 88  1  0  0  0
  3  4  1  0  0  0
  3 89  1  0  0  0
  3 90  1  0  0  0
  4  5  1  0  0  0
  4 91  1  0  0  0
  4 92  1  0  0  0
  5  6  1  0  0  0
  5 26  1  0  0  0
  5 93  1  0  0  0
  6 25  1  0  0  0
  6 94  1  0  0  0
  6 95  1  0  0  0
  7  8  2  0  0  0
  7 26  1  0  0  0
  7 29  1  0  0  0
  8  9  1  0  0  0
  8 22  1  0  0  0
  9 10  1  0  0  0
  9 27  2  0  0  0
 10 11  2  0  0  0
 10 15  1  0  0  0
 11 12  1  0  0  0
 11 96  1  0  0  0
 12 13  2  0  0  0
 12 97  1  0  0  0
 13 14  1  0  0  0
 13 31  1  0  0  0
 14 15  2  0  0  0
 14 98  1  0  0  0
 15 99  1  0  0  0
 16 17  2  0  0  0
 16 21  1  0  0  0
 16 31  1  0  0  0
 17 18  1  0  0  0
 17100  1  0  0  0
 18 19  2  0  0  0
 18101  1  0  0  0
 19 20  1  0  0  0
 19 24  1  0  0  0
 20 21  2  0  0  0
 20102  1  0  0  0
 21 23  1  0  0  0
 22 28  1  0  0  0
 22 32  2  0  0  0
 26 27  1  0  0  0
 28103  1  0  0  0
 28104  1  0  0  0
 29105  1  0  0  0
 29106  1  0  0  0
 33 34  1  0  0  0
 33 66  1  0  0  0
 33 70  2  0  0  0
 34 36  1  0  0  0
 34 59  1  0  0  0
 34107  1  0  0  0
 35 44  2  0  0  0
 35 45  1  0  0  0
 35 68  1  0  0  0
 36 56  1  0  0  0
 36108  1  0  0  0
 37 39  1  0  0  0
 37 47  1  0  0  0
 37 66  1  0  0  0
 37109  1  0  0  0
 38 43  2  0  0  0
 38 46  1  0  0  0
 38 47  1  0  0  0
 39 64  1  0  0  0
 39 67  2  0  0  0
 40 52  1  0  0  0
 40 53  2  0  0  0
 40 58  1  0  0  0
 41110  1  0  0  0
 41111  1  0  0  0
 41112  1  0  0  0
 41 48  1  0  0  0
 42 43  1  0  0  0
 42 66  1  0  0  0
 42113  1  0  0  0
 42114  1  0  0  0
 43 44  1  0  0  0
 44115  1  0  0  0
 45 46  2  0  0  0
 45116  1  0  0  0
 46117  1  0  0  0
 47118  1  0  0  0
 47119  1  0  0  0
 48 56  1  0  0  0
 48 65  1  0  0  0
 48120  1  0  0  0
 49 50  1  0  0  0
 49 53  1  0  0  0
 49 64  1  0  0  0
 49121  1  0  0  0
 50 51  1  0  0  0
 50122  1  0  0  0
 50123  1  0  0  0
 51 52  1  0  0  0
 51124  1  0  0  0
 51125  1  0  0  0
 52126  1  0  0  0
 52127  1  0  0  0
 53 54  1  0  0  0
 54 55  2  0  0  0
 54128  1  0  0  0
 55 57  1  0  0  0
 55129  1  0  0  0
 56 69  2  0  0  0
 57 58  2  0  0  0
 57130  1  0  0  0
 58131  1  0  0  0
 59 60  1  0  0  0
 59 61  1  0  0  0
 59 62  1  0  0  0
 60132  1  0  0  0
 60133  1  0  0  0
 60134  1  0  0  0
 61135  1  0  0  0
 61136  1  0  0  0
 61137  1  0  0  0
 62138  1  0  0  0
 62139  1  0  0  0
 62140  1  0  0  0
 63 65  1  0  0  0
 63141  1  0  0  0
 63142  1  0  0  0
 63143  1  0  0  0
 64144  1  0  0  0
 65145  1  0  0  0
 68 79  1  0  0  0
 71 72  2  0  0  0
 71 83  1  0  0  0
 71146  1  0  0  0
 72 84  1  0  0  0
 72 86  1  0  0  0
 73 81  1  0  0  0
 73 83  2  0  0  0
 73 86  1  0  0  0
 74 78  1  0  0  0
 74 79  1  0  0  0
 74 85  2  0  0  0
 75147  1  0  0  0
 75148  1  0  0  0
 75149  1  0  0  0
 75 82  1  0  0  0
 76 82  1  0  0  0
 76150  1  0  0  0
 76151  1  0  0  0
 76152  1  0  0  0
 77 82  1  0  0  0
 77153  1  0  0  0
 77154  1  0  0  0
 77155  1  0  0  0
 78156  1  0  0  0
 78157  1  0  0  0
 78 81  1  0  0  0
 79158  1  0  0  0
 79159  1  0  0  0
 80 81  1  0  0  0
 80 82  1  0  0  0
 80160  1  0  0  0
 80161  1  0  0  0
 81162  1  0  0  0
 84163  1  0  0  0
M  ISO  4   1 100  68 101  79 101  84 100
M  END
> <chiral flag>
0

> <version>
0

> <s_m_source_file>
/data/baiqing/PycharmProjects/Reinvent-master-3.2/result/LINK_invent/BTK/process_docking_weight1_custom_product_contain_oxygen_bond_distance_aromatic_linkinvent_7_9_3/rearranged_h_0188.sdf

> <i_m_source_file_index>
21

> <r_mmod_Potential_Energy-OPLS-2005>
43.9268112182617

> <r_mmod_Stretch_Energy-OPLS-2005>
102.229652404785

> <r_mmod_Bend_Energy-OPLS-2005>
176.238906860352

> <r_mmod_Torsional_Energy-OPLS-2005>
186.298370361328

> <r_mmod_Improper_Torsional_Energy-OPLS-2005>
4.70573616027832

> <r_mmod_Van_der_Waal_Energy-OPLS-2005>
116.746299743652

> <r_mmod_Electrostatic_Energy-OPLS-2005>
-387.285461425781

> <r_mmod_Solvation_Energy-OPLS-2005>
-223.241180419922

> <b_mmod_Minimization_Converged-OPLS-2005>
0

> <r_mmod_RMS_Derivative-OPLS-2005>
1.39126622676849

$$$$
22
                    3D
 Structure written by MMmdl.
158166  0  0  1  0            999 V2000
  -30.7120  -14.4609   20.5282 C   0  0  0  0  0  0
  -30.4084  -12.2846   19.4229 C   0  0  0  0  0  0
  -29.4827  -12.4847   18.2059 C   0  0  0  0  0  0
  -28.0061  -12.3549   18.6197 C   0  0  0  0  0  0
  -27.6559  -13.2044   19.8727 C   0  0  2  0  0  0
  -28.7005  -13.0103   20.9940 C   0  0  0  0  0  0
  -25.2579  -13.8158   20.5783 C   0  0  0  0  0  0
  -24.1800  -13.0434   20.9160 C   0  0  0  0  0  0
  -24.6349  -11.6897   20.8720 C   0  0  0  0  0  0
  -23.9018  -10.4288   21.0392 C   0  0  0  0  0  0
  -24.3612   -9.4190   21.9130 C   0  0  0  0  0  0
  -23.6327   -8.2213   22.0701 C   0  0  0  0  0  0
  -22.4285   -8.0249   21.3512 C   0  0  0  0  0  0
  -21.9880   -9.0234   20.4654 C   0  0  0  0  0  0
  -22.7193  -10.2130   20.3048 C   0  0  0  0  0  0
  -21.6835   -6.0738   22.5276 C   0  0  0  0  0  0
  -21.3989   -6.5649   23.8221 C   0  0  0  0  0  0
  -21.3656   -5.6810   24.9192 C   0  0  0  0  0  0
  -21.6029   -4.3071   24.7249 C   0  0  0  0  0  0
  -21.8789   -3.8161   23.4374 C   0  0  0  0  0  0
  -21.9191   -4.6974   22.3421 C   0  0  0  0  0  0
  -22.7837  -13.5274   21.1818 C   0  0  0  0  0  0
  -22.1666   -4.2141   21.0996 F   0  0  0  0  0  0
  -21.5642   -3.4560   25.7775 F   0  0  0  0  0  0
  -30.0299  -13.2900   20.4281 N   0  0  0  0  0  0
  -26.2994  -12.9332   20.3407 N   0  0  0  0  0  0
  -25.9283  -11.6494   20.5784 N   0  0  0  0  0  0
  -22.0471  -12.8294   22.0440 N   0  0  0  0  0  0
  -25.4328  -15.1890   20.4368 N   0  0  0  0  0  0
  -31.8348  -14.6253   20.0444 O   0  0  0  0  0  0
  -21.6627   -6.8856   21.4232 O   0  0  0  0  0  0
  -22.3554  -14.5594   20.6674 O   0  0  0  0  0  0
  -24.6126  -31.8673   23.2072 C   0  0  0  0  0  0
  -25.9027  -32.4828   23.8355 C   0  0  1  0  0  0
  -27.2661  -27.4488   20.0887 C   0  0  0  0  0  0
  -25.5899  -33.8613   24.2316 N   0  0  0  0  0  0
  -23.4006  -30.4868   21.5482 C   0  0  2  0  0  0
  -24.8536  -28.9474   20.1151 C   0  0  0  0  0  0
  -22.7379  -29.4644   22.4993 C   0  0  0  0  0  0
  -18.0273  -28.1351   22.8534 C   0  0  0  0  0  0
  -24.1476  -36.7299   23.2639 C   0  0  0  0  0  0
  -25.9237  -30.8395   21.3522 C   0  0  0  0  0  0
  -26.0076  -29.4690   20.7086 C   0  0  0  0  0  0
  -27.2064  -28.7245   20.6970 C   0  0  0  0  0  0
  -26.0876  -26.9305   19.5035 C   0  0  0  0  0  0
  -24.8881  -27.6748   19.5158 C   0  0  0  0  0  0
  -23.6097  -29.8092   20.1658 C   0  0  0  0  0  0
  -25.4093  -36.3117   24.0353 C   0  0  1  0  0  0
  -20.5859  -28.3633   23.1334 C   0  0  2  0  0  0
  -20.6745  -26.9359   22.5425 C   0  0  0  0  0  0
  -19.5718  -26.6371   21.5228 C   0  0  0  0  0  0
  -18.1908  -26.7908   22.1648 C   0  0  0  0  0  0
  -19.1523  -28.8809   23.2939 C   0  0  0  0  0  0
  -18.9448  -30.1433   23.8927 C   0  0  0  0  0  0
  -17.6447  -30.6565   24.0577 C   0  0  0  0  0  0
  -25.9016  -34.9479   23.5122 C   0  0  0  0  0  0
  -16.5339  -29.9069   23.6334 C   0  0  0  0  0  0
  -16.7262  -28.6481   23.0361 C   0  0  0  0  0  0
  -26.4464  -31.6605   25.0670 C   0  0  0  0  0  0
  -25.3741  -31.3745   26.1438 C   0  0  0  0  0  0
  -27.0276  -30.3051   24.6001 C   0  0  0  0  0  0
  -27.6037  -32.4312   25.7453 C   0  0  0  0  0  0
  -27.5573  -37.1802   24.8465 C   0  0  0  0  0  0
  -21.4103  -29.3014   22.3744 N   0  0  0  0  0  0
  -26.4284  -37.3800   23.9420 N   0  0  0  0  0  0
  -24.6647  -31.0773   22.0976 N   0  0  0  0  0  0
  -23.4164  -28.8192   23.3023 O   0  0  0  0  0  0
  -28.4909  -26.8004   20.1018 O   0  0  0  0  0  0
  -26.5562  -34.8950   22.4675 O   0  0  0  0  0  0
  -23.5322  -32.1439   23.7470 O   0  0  0  0  0  0
  -29.6550  -17.5666   22.3051 C   0  0  0  0  0  0
  -28.9353  -18.1412   23.3346 C   0  0  0  0  0  0
  -29.5419  -19.7254   21.5592 C   0  0  0  0  0  0
  -29.9344  -22.1002   21.0359 C   0  0  0  0  0  0
  -31.5992  -16.0815   22.8129 C   0  0  0  0  0  0
  -29.7424  -23.2021   19.9767 C   0  0  0  0  0  0
  -28.7280  -25.5431   19.4523 C   0  0  0  0  0  0
  -30.1543  -16.1338   22.2743 C   0  0  2  0  0  0
  -28.8705  -24.3905   20.4750 C   0  0  1  0  0  0
  -29.9690  -18.4819   21.2780 N   0  0  0  0  0  0
  -28.4633  -17.5560   24.5043 N   0  0  0  0  0  0
  -29.7305  -20.8181   20.6695 N   0  0  0  0  0  0
  -30.0146  -15.5278   20.9467 N   0  0  0  0  0  0
  -30.3330  -22.4153   22.1621 O   0  0  0  0  0  0
  -27.6496  -23.9499   20.7932 F   0  0  0  0  0  0
  -28.6526  -19.8385   23.0741 S   0  0  0  0  0  0
  -31.4544  -12.3552   19.1201 H   0  0  0  0  0  0
  -30.2904  -11.2826   19.8417 H   0  0  0  0  0  0
  -29.7167  -11.7519   17.4315 H   0  0  0  0  0  0
  -29.6562  -13.4653   17.7594 H   0  0  0  0  0  0
  -27.8098  -11.3006   18.8185 H   0  0  0  0  0  0
  -27.3616  -12.6277   17.7835 H   0  0  0  0  0  0
  -27.6966  -14.2485   19.5656 H   0  0  0  0  0  0
  -28.4729  -13.6499   21.8467 H   0  0  0  0  0  0
  -28.6706  -11.9849   21.3711 H   0  0  0  0  0  0
  -25.2788   -9.5677   22.4675 H   0  0  0  0  0  0
  -24.0081   -7.4580   22.7348 H   0  0  0  0  0  0
  -21.0811   -8.8750   19.8981 H   0  0  0  0  0  0
  -22.3658  -10.9675   19.6163 H   0  0  0  0  0  0
  -21.1950   -7.6148   23.9708 H   0  0  0  0  0  0
  -21.1517   -6.0564   25.9095 H   0  0  0  0  0  0
  -22.0570   -2.7624   23.2900 H   0  0  0  0  0  0
  -22.4138  -11.9998   22.4836 H   0  0  0  0  0  0
  -21.1097  -13.1325   22.2699 H   0  0  0  0  0  0
  -24.6720  -15.8457   20.5716 H   0  0  0  0  0  0
  -26.3171  -15.6387   20.2343 H   0  0  0  0  0  0
  -26.7084  -32.5577   23.1114 H   0  0  0  0  0  0
  -25.0124  -33.9750   25.0511 H   0  0  0  0  0  0
  -22.6893  -31.3028   21.4040 H   0  0  0  0  0  0
  -23.3759  -35.9612   23.3314 H   0  0  0  0  0  0
  -24.3567  -36.8874   22.2047 H   0  0  0  0  0  0
  -23.7194  -37.6501   23.6618 H   0  0  0  0  0  0
  -26.0089  -31.6008   20.5759 H   0  0  0  0  0  0
  -26.8194  -30.9126   21.9555 H   0  0  0  0  0  0
  -28.0955  -29.1340   21.1539 H   0  0  0  0  0  0
  -26.0717  -25.9557   19.0409 H   0  0  0  0  0  0
  -23.9981  -27.2606   19.0603 H   0  0  0  0  0  0
  -23.7016  -30.5781   19.3974 H   0  0  0  0  0  0
  -22.7408  -29.2144   19.8818 H   0  0  0  0  0  0
  -25.1268  -36.1992   25.0850 H   0  0  0  0  0  0
  -20.9979  -28.3192   24.1442 H   0  0  0  0  0  0
  -20.5649  -26.2216   23.3594 H   0  0  0  0  0  0
  -21.6613  -26.7382   22.1218 H   0  0  0  0  0  0
  -19.6853  -25.6300   21.1215 H   0  0  0  0  0  0
  -19.6664  -27.3217   20.6794 H   0  0  0  0  0  0
  -17.4172  -26.6712   21.4042 H   0  0  0  0  0  0
  -18.0279  -26.0016   22.9007 H   0  0  0  0  0  0
  -19.7920  -30.7264   24.2270 H   0  0  0  0  0  0
  -17.4995  -31.6256   24.5158 H   0  0  0  0  0  0
  -15.5334  -30.2977   23.7618 H   0  0  0  0  0  0
  -15.8672  -28.0812   22.7036 H   0  0  0  0  0  0
  -24.5894  -30.7098   25.7814 H   0  0  0  0  0  0
  -24.8968  -32.2925   26.4882 H   0  0  0  0  0  0
  -25.8115  -30.8943   27.0195 H   0  0  0  0  0  0
  -26.2809  -29.6840   24.1040 H   0  0  0  0  0  0
  -27.4059  -29.7253   25.4428 H   0  0  0  0  0  0
  -27.8629  -30.4393   23.9119 H   0  0  0  0  0  0
  -27.2648  -33.3599   26.2060 H   0  0  0  0  0  0
  -28.3852  -32.6883   25.0290 H   0  0  0  0  0  0
  -28.0686  -31.8409   26.5356 H   0  0  0  0  0  0
  -28.2610  -38.0090   24.7528 H   0  0  0  0  0  0
  -28.1057  -36.2621   24.6284 H   0  0  0  0  0  0
  -27.2294  -37.1446   25.8873 H   0  0  0  0  0  0
  -20.9224  -29.8758   21.7009 H   0  0  0  0  0  0
  -26.0187  -38.2881   24.1449 H   0  0  0  0  0  0
  -31.6596  -16.5278   23.8049 H   0  0  0  0  0  0
  -32.2789  -16.6353   22.1628 H   0  0  0  0  0  0
  -31.9720  -15.0594   22.9015 H   0  0  0  0  0  0
  -29.3124  -22.7832   19.0676 H   0  0  0  0  0  0
  -30.7328  -23.5669   19.6964 H   0  0  0  0  0  0
  -28.0333  -25.2955   18.6490 H   0  0  0  0  0  0
  -29.6941  -25.6719   18.9612 H   0  0  0  0  0  0
  -29.5306  -15.5401   22.9381 H   0  0  0  0  0  0
  -29.3054  -24.7858   21.3946 H   0  0  0  0  0  0
  -27.9102  -18.0522   25.1970 H   0  0  0  0  0  0
  -28.6760  -16.6044   24.7904 H   0  0  0  0  0  0
  -29.5815  -20.6317   19.6895 H   0  0  0  0  0  0
  -30.0470  -16.2747   20.2678 H   0  0  0  0  0  0
  1 25  1  0  0  0
  1 30  2  0  0  0
  1 83  1  0  0  0
  2  3  1  0  0  0
  2 25  1  0  0  0
  2 87  1  0  0  0
  2 88  1  0  0  0
  3  4  1  0  0  0
  3 89  1  0  0  0
  3 90  1  0  0  0
  4  5  1  0  0  0
  4 91  1  0  0  0
  4 92  1  0  0  0
  5  6  1  0  0  0
  5 26  1  0  0  0
  5 93  1  0  0  0
  6 25  1  0  0  0
  6 94  1  0  0  0
  6 95  1  0  0  0
  7  8  2  0  0  0
  7 26  1  0  0  0
  7 29  1  0  0  0
  8  9  1  0  0  0
  8 22  1  0  0  0
  9 10  1  0  0  0
  9 27  2  0  0  0
 10 11  2  0  0  0
 10 15  1  0  0  0
 11 12  1  0  0  0
 11 96  1  0  0  0
 12 13  2  0  0  0
 12 97  1  0  0  0
 13 14  1  0  0  0
 13 31  1  0  0  0
 14 15  2  0  0  0
 14 98  1  0  0  0
 15 99  1  0  0  0
 16 17  2  0  0  0
 16 21  1  0  0  0
 16 31  1  0  0  0
 17 18  1  0  0  0
 17100  1  0  0  0
 18 19  2  0  0  0
 18101  1  0  0  0
 19 20  1  0  0  0
 19 24  1  0  0  0
 20 21  2  0  0  0
 20102  1  0  0  0
 21 23  1  0  0  0
 22 28  1  0  0  0
 22 32  2  0  0  0
 26 27  1  0  0  0
 28103  1  0  0  0
 28104  1  0  0  0
 29105  1  0  0  0
 29106  1  0  0  0
 33 34  1  0  0  0
 33 66  1  0  0  0
 33 70  2  0  0  0
 34 36  1  0  0  0
 34 59  1  0  0  0
 34107  1  0  0  0
 35 44  2  0  0  0
 35 45  1  0  0  0
 35 68  1  0  0  0
 36 56  1  0  0  0
 36108  1  0  0  0
 37 39  1  0  0  0
 37 47  1  0  0  0
 37 66  1  0  0  0
 37109  1  0  0  0
 38 43  2  0  0  0
 38 46  1  0  0  0
 38 47  1  0  0  0
 39 64  1  0  0  0
 39 67  2  0  0  0
 40 52  1  0  0  0
 40 53  2  0  0  0
 40 58  1  0  0  0
 41110  1  0  0  0
 41111  1  0  0  0
 41112  1  0  0  0
 41 48  1  0  0  0
 42 43  1  0  0  0
 42 66  1  0  0  0
 42113  1  0  0  0
 42114  1  0  0  0
 43 44  1  0  0  0
 44115  1  0  0  0
 45 46  2  0  0  0
 45116  1  0  0  0
 46117  1  0  0  0
 47118  1  0  0  0
 47119  1  0  0  0
 48 56  1  0  0  0
 48 65  1  0  0  0
 48120  1  0  0  0
 49 50  1  0  0  0
 49 53  1  0  0  0
 49 64  1  0  0  0
 49121  1  0  0  0
 50 51  1  0  0  0
 50122  1  0  0  0
 50123  1  0  0  0
 51 52  1  0  0  0
 51124  1  0  0  0
 51125  1  0  0  0
 52126  1  0  0  0
 52127  1  0  0  0
 53 54  1  0  0  0
 54 55  2  0  0  0
 54128  1  0  0  0
 55 57  1  0  0  0
 55129  1  0  0  0
 56 69  2  0  0  0
 57 58  2  0  0  0
 57130  1  0  0  0
 58131  1  0  0  0
 59 60  1  0  0  0
 59 61  1  0  0  0
 59 62  1  0  0  0
 60132  1  0  0  0
 60133  1  0  0  0
 60134  1  0  0  0
 61135  1  0  0  0
 61136  1  0  0  0
 61137  1  0  0  0
 62138  1  0  0  0
 62139  1  0  0  0
 62140  1  0  0  0
 63 65  1  0  0  0
 63141  1  0  0  0
 63142  1  0  0  0
 63143  1  0  0  0
 64144  1  0  0  0
 65145  1  0  0  0
 68 77  1  0  0  0
 71 72  2  0  0  0
 71 78  1  0  0  0
 71 80  1  0  0  0
 72 81  1  0  0  0
 72 86  1  0  0  0
 73 80  2  0  0  0
 73 82  1  0  0  0
 73 86  1  0  0  0
 74 76  1  0  0  0
 74 82  1  0  0  0
 74 84  2  0  0  0
 75146  1  0  0  0
 75147  1  0  0  0
 75148  1  0  0  0
 75 78  1  0  0  0
 76 79  1  0  0  0
 76149  1  0  0  0
 76150  1  0  0  0
 77 79  1  0  0  0
 77151  1  0  0  0
 77152  1  0  0  0
 78 83  1  0  0  0
 78153  1  0  0  0
 79 85  1  0  0  0
 79154  1  0  0  0
 81155  1  0  0  0
 81156  1  0  0  0
 82157  1  0  0  0
 83158  1  0  0  0
M  ISO  4   1 100  68 101  77 101  83 100
M  END
> <chiral flag>
0

> <version>
0

> <s_m_source_file>
/data/baiqing/PycharmProjects/Reinvent-master-3.2/result/LINK_invent/BTK/process_docking_weight1_custom_product_contain_oxygen_bond_distance_aromatic_linkinvent_7_9_3/rearranged_h_0188.sdf

> <i_m_source_file_index>
22

> <r_mmod_Potential_Energy-OPLS-2005>
-123.925849914551

> <r_mmod_Stretch_Energy-OPLS-2005>
36.0430450439453

> <r_mmod_Bend_Energy-OPLS-2005>
124.916900634766

> <r_mmod_Torsional_Energy-OPLS-2005>
253.751907348633

> <r_mmod_Improper_Torsional_Energy-OPLS-2005>
11.4701442718506

> <r_mmod_Van_der_Waal_Energy-OPLS-2005>
129.603240966797

> <r_mmod_Electrostatic_Energy-OPLS-2005>
-456.418365478516

> <r_mmod_Solvation_Energy-OPLS-2005>
-237.502197265625

> <b_mmod_Minimization_Converged-OPLS-2005>
0

> <r_mmod_RMS_Derivative-OPLS-2005>
3.93746042251587

$$$$
23
                    3D
 Structure written by MMmdl.
158166  0  0  1  0            999 V2000
  -30.7442  -14.3801   20.6643 C   0  0  0  0  0  0
  -30.4217  -12.2901   19.3916 C   0  0  0  0  0  0
  -29.4849  -12.5178   18.1902 C   0  0  0  0  0  0
  -28.0080  -12.3783   18.6094 C   0  0  0  0  0  0
  -27.6671  -13.1972   19.8828 C   0  0  2  0  0  0
  -28.7073  -12.9238   20.9903 C   0  0  0  0  0  0
  -25.2615  -13.8158   20.5676 C   0  0  0  0  0  0
  -24.1856  -13.0441   20.9163 C   0  0  0  0  0  0
  -24.6392  -11.6900   20.8739 C   0  0  0  0  0  0
  -23.9060  -10.4286   21.0412 C   0  0  0  0  0  0
  -24.3603   -9.4198   21.9187 C   0  0  0  0  0  0
  -23.6278   -8.2235   22.0759 C   0  0  0  0  0  0
  -22.4261   -8.0287   21.3546 C   0  0  0  0  0  0
  -21.9900   -9.0260   20.4651 C   0  0  0  0  0  0
  -22.7236  -10.2132   20.3061 C   0  0  0  0  0  0
  -21.6837   -6.0744   22.5277 C   0  0  0  0  0  0
  -21.4005   -6.5646   23.8219 C   0  0  0  0  0  0
  -21.3652   -5.6798   24.9181 C   0  0  0  0  0  0
  -21.6047   -4.3062   24.7223 C   0  0  0  0  0  0
  -21.8822   -3.8156   23.4342 C   0  0  0  0  0  0
  -21.9185   -4.6971   22.3400 C   0  0  0  0  0  0
  -22.7879  -13.5240   21.1817 C   0  0  0  0  0  0
  -22.1655   -4.2170   21.0970 F   0  0  0  0  0  0
  -21.5627   -3.4540   25.7729 F   0  0  0  0  0  0
  -30.0433  -13.2362   20.4494 N   0  0  0  0  0  0
  -26.3048  -12.9308   20.3404 N   0  0  0  0  0  0
  -25.9314  -11.6473   20.5773 N   0  0  0  0  0  0
  -22.0498  -12.8246   22.0374 N   0  0  0  0  0  0
  -25.4381  -15.1873   20.4089 N   0  0  0  0  0  0
  -31.7949  -14.6543   20.0767 O   0  0  0  0  0  0
  -21.6624   -6.8882   21.4244 O   0  0  0  0  0  0
  -22.3583  -14.5548   20.6671 O   0  0  0  0  0  0
  -24.6140  -31.8665   23.2112 C   0  0  0  0  0  0
  -25.9034  -32.4807   23.8397 C   0  0  1  0  0  0
  -27.2280  -27.4327   20.0829 C   0  0  0  0  0  0
  -25.5891  -33.8602   24.2318 N   0  0  0  0  0  0
  -23.4014  -30.4937   21.5520 C   0  0  2  0  0  0
  -24.8433  -28.9616   20.1158 C   0  0  0  0  0  0
  -22.7393  -29.4651   22.4987 C   0  0  0  0  0  0
  -18.0244  -28.1385   22.8482 C   0  0  0  0  0  0
  -24.1472  -36.7316   23.2647 C   0  0  0  0  0  0
  -25.9329  -30.8292   21.3676 C   0  0  0  0  0  0
  -26.0057  -29.4678   20.7078 C   0  0  0  0  0  0
  -27.2009  -28.7117   20.6852 C   0  0  0  0  0  0
  -26.0426  -26.9424   19.4854 C   0  0  0  0  0  0
  -24.8575  -27.6976   19.5031 C   0  0  0  0  0  0
  -23.6084  -29.8328   20.1653 C   0  0  0  0  0  0
  -25.4095  -36.3108   24.0335 C   0  0  1  0  0  0
  -20.5834  -28.3659   23.1325 C   0  0  2  0  0  0
  -20.6738  -26.9394   22.5423 C   0  0  0  0  0  0
  -19.5729  -26.6378   21.5215 C   0  0  0  0  0  0
  -18.1899  -26.7917   22.1620 C   0  0  0  0  0  0
  -19.1501  -28.8842   23.2888 C   0  0  0  0  0  0
  -18.9439  -30.1450   23.8899 C   0  0  0  0  0  0
  -17.6446  -30.6590   24.0572 C   0  0  0  0  0  0
  -25.9032  -34.9471   23.5127 C   0  0  0  0  0  0
  -16.5328  -29.9095   23.6343 C   0  0  0  0  0  0
  -16.7237  -28.6518   23.0345 C   0  0  0  0  0  0
  -26.4448  -31.6592   25.0732 C   0  0  0  0  0  0
  -25.3719  -31.3680   26.1488 C   0  0  0  0  0  0
  -27.0283  -30.3029   24.6116 C   0  0  0  0  0  0
  -27.6021  -32.4319   25.7490 C   0  0  0  0  0  0
  -27.5561  -37.1795   24.8461 C   0  0  0  0  0  0
  -21.4123  -29.3030   22.3735 N   0  0  0  0  0  0
  -26.4277  -37.3797   23.9414 N   0  0  0  0  0  0
  -24.6675  -31.0786   22.1008 N   0  0  0  0  0  0
  -23.4149  -28.8169   23.3023 O   0  0  0  0  0  0
  -28.4099  -26.7156   20.0879 O   0  0  0  0  0  0
  -26.5621  -34.8937   22.4696 O   0  0  0  0  0  0
  -23.5340  -32.1415   23.7528 O   0  0  0  0  0  0
  -29.5265  -17.9005   20.2917 C   0  0  0  0  0  0
  -28.9697  -19.2080   20.1586 C   0  0  0  0  0  0
  -30.0875  -17.6784   21.5234 C   0  0  0  0  0  0
  -29.0876  -19.9768   21.2956 C   0  0  0  0  0  0
  -28.1258  -22.1483   20.7389 C   0  0  0  0  0  0
  -25.8483  -23.2124   20.7922 C   0  0  0  0  0  0
  -30.7852  -16.4590   22.0426 C   0  0  0  0  0  0
  -28.3609  -25.2771   20.0453 C   0  0  0  0  0  0
  -27.2689  -23.2567   21.3916 C   0  0  2  0  0  0
  -27.8587  -24.7000   21.3963 C   0  0  1  0  0  0
  -28.6128  -21.2167   21.5769 N   0  0  0  0  0  0
  -30.2060  -15.2069   21.5670 N   0  0  0  0  0  0
  -28.3027  -22.1291   19.5174 O   0  0  0  0  0  0
  -28.9256  -24.7688   22.3313 O   0  0  0  0  0  0
  -29.9166  -19.0805   22.5434 S   0  0  0  0  0  0
  -31.4643  -12.4003   19.0893 H   0  0  0  0  0  0
  -30.3289  -11.2676   19.7619 H   0  0  0  0  0  0
  -29.7157  -11.8086   17.3946 H   0  0  0  0  0  0
  -29.6578  -13.5107   17.7715 H   0  0  0  0  0  0
  -27.8125  -11.3200   18.7887 H   0  0  0  0  0  0
  -27.3556  -12.6722   17.7869 H   0  0  0  0  0  0
  -27.7289  -14.2526   19.6172 H   0  0  0  0  0  0
  -28.6749  -11.8717   21.2803 H   0  0  0  0  0  0
  -28.4573  -13.4739   21.8975 H   0  0  0  0  0  0
  -25.2743   -9.5677   22.4771 H   0  0  0  0  0  0
  -23.9993   -7.4623   22.7470 H   0  0  0  0  0  0
  -21.0842   -8.8782   19.8943 H   0  0  0  0  0  0
  -22.3701  -10.9680   19.6178 H   0  0  0  0  0  0
  -21.1993   -7.6153   23.9734 H   0  0  0  0  0  0
  -21.1473   -6.0518   25.9088 H   0  0  0  0  0  0
  -22.0605   -2.7620   23.2836 H   0  0  0  0  0  0
  -22.4091  -11.9891   22.4751 H   0  0  0  0  0  0
  -21.1133  -13.1332   22.2580 H   0  0  0  0  0  0
  -24.6790  -15.8509   20.5178 H   0  0  0  0  0  0
  -26.3029  -15.6201   20.1078 H   0  0  0  0  0  0
  -26.7105  -32.5522   23.1161 H   0  0  0  0  0  0
  -25.0027  -33.9757   25.0451 H   0  0  0  0  0  0
  -22.6936  -31.3133   21.4159 H   0  0  0  0  0  0
  -23.3743  -35.9640   23.3315 H   0  0  0  0  0  0
  -24.3562  -36.8930   22.2060 H   0  0  0  0  0  0
  -23.7215  -37.6515   23.6664 H   0  0  0  0  0  0
  -26.0542  -31.6009   20.6061 H   0  0  0  0  0  0
  -26.8183  -30.8723   21.9912 H   0  0  0  0  0  0
  -28.1014  -29.0998   21.1402 H   0  0  0  0  0  0
  -26.0049  -25.9884   18.9832 H   0  0  0  0  0  0
  -23.9650  -27.3017   19.0377 H   0  0  0  0  0  0
  -23.7282  -30.6130   19.4134 H   0  0  0  0  0  0
  -22.7270  -29.2656   19.8604 H   0  0  0  0  0  0
  -25.1258  -36.1974   25.0823 H   0  0  0  0  0  0
  -20.9909  -28.3223   24.1451 H   0  0  0  0  0  0
  -20.5661  -26.2244   23.3594 H   0  0  0  0  0  0
  -21.6599  -26.7453   22.1202 H   0  0  0  0  0  0
  -19.6903  -25.6296   21.1234 H   0  0  0  0  0  0
  -19.6684  -27.3203   20.6756 H   0  0  0  0  0  0
  -17.4148  -26.6651   21.4036 H   0  0  0  0  0  0
  -18.0317  -26.0078   22.9040 H   0  0  0  0  0  0
  -19.7926  -30.7257   24.2246 H   0  0  0  0  0  0
  -17.5016  -31.6275   24.5173 H   0  0  0  0  0  0
  -15.5336  -30.3004   23.7703 H   0  0  0  0  0  0
  -15.8619  -28.0873   22.7039 H   0  0  0  0  0  0
  -24.5891  -30.7025   25.7821 H   0  0  0  0  0  0
  -24.8917  -32.2826   26.4978 H   0  0  0  0  0  0
  -25.8097  -30.8819   27.0215 H   0  0  0  0  0  0
  -26.2799  -29.6754   24.1257 H   0  0  0  0  0  0
  -27.4126  -29.7308   25.4574 H   0  0  0  0  0  0
  -27.8610  -30.4343   23.9207 H   0  0  0  0  0  0
  -27.2631  -33.3613   26.2087 H   0  0  0  0  0  0
  -28.3820  -32.6875   25.0303 H   0  0  0  0  0  0
  -28.0692  -31.8422   26.5393 H   0  0  0  0  0  0
  -28.2575  -38.0096   24.7520 H   0  0  0  0  0  0
  -28.1058  -36.2624   24.6269 H   0  0  0  0  0  0
  -27.2278  -37.1418   25.8865 H   0  0  0  0  0  0
  -20.9279  -29.8782   21.7006 H   0  0  0  0  0  0
  -26.0170  -38.2863   24.1464 H   0  0  0  0  0  0
  -29.4938  -17.1801   19.4863 H   0  0  0  0  0  0
  -28.4860  -19.5170   19.2431 H   0  0  0  0  0  0
  -25.4226  -22.2099   20.8593 H   0  0  0  0  0  0
  -25.8406  -23.4964   19.7398 H   0  0  0  0  0  0
  -25.1737  -23.8829   21.3231 H   0  0  0  0  0  0
  -30.7341  -16.4482   23.1319 H   0  0  0  0  0  0
  -31.8475  -16.5180   21.7998 H   0  0  0  0  0  0
  -27.7678  -24.9226   19.2033 H   0  0  0  0  0  0
  -29.3663  -24.9065   19.8392 H   0  0  0  0  0  0
  -27.1406  -22.9853   22.4413 H   0  0  0  0  0  0
  -27.0721  -25.3497   21.7810 H   0  0  0  0  0  0
  -28.5433  -21.4425   22.5604 H   0  0  0  0  0  0
  -29.3422  -14.9127   21.9974 H   0  0  0  0  0  0
  -29.2337  -25.6705   22.3361 H   0  0  0  0  0  0
  1 25  1  0  0  0
  1 30  2  0  0  0
  1 82  1  0  0  0
  2  3  1  0  0  0
  2 25  1  0  0  0
  2 86  1  0  0  0
  2 87  1  0  0  0
  3  4  1  0  0  0
  3 88  1  0  0  0
  3 89  1  0  0  0
  4  5  1  0  0  0
  4 90  1  0  0  0
  4 91  1  0  0  0
  5  6  1  0  0  0
  5 26  1  0  0  0
  5 92  1  0  0  0
  6 25  1  0  0  0
  6 93  1  0  0  0
  6 94  1  0  0  0
  7  8  2  0  0  0
  7 26  1  0  0  0
  7 29  1  0  0  0
  8  9  1  0  0  0
  8 22  1  0  0  0
  9 10  1  0  0  0
  9 27  2  0  0  0
 10 11  2  0  0  0
 10 15  1  0  0  0
 11 12  1  0  0  0
 11 95  1  0  0  0
 12 13  2  0  0  0
 12 96  1  0  0  0
 13 14  1  0  0  0
 13 31  1  0  0  0
 14 15  2  0  0  0
 14 97  1  0  0  0
 15 98  1  0  0  0
 16 17  2  0  0  0
 16 21  1  0  0  0
 16 31  1  0  0  0
 17 18  1  0  0  0
 17 99  1  0  0  0
 18 19  2  0  0  0
 18100  1  0  0  0
 19 20  1  0  0  0
 19 24  1  0  0  0
 20 21  2  0  0  0
 20101  1  0  0  0
 21 23  1  0  0  0
 22 28  1  0  0  0
 22 32  2  0  0  0
 26 27  1  0  0  0
 28102  1  0  0  0
 28103  1  0  0  0
 29104  1  0  0  0
 29105  1  0  0  0
 33 34  1  0  0  0
 33 66  1  0  0  0
 33 70  2  0  0  0
 34 36  1  0  0  0
 34 59  1  0  0  0
 34106  1  0  0  0
 35 44  2  0  0  0
 35 45  1  0  0  0
 35 68  1  0  0  0
 36 56  1  0  0  0
 36107  1  0  0  0
 37 39  1  0  0  0
 37 47  1  0  0  0
 37 66  1  0  0  0
 37108  1  0  0  0
 38 43  2  0  0  0
 38 46  1  0  0  0
 38 47  1  0  0  0
 39 64  1  0  0  0
 39 67  2  0  0  0
 40 52  1  0  0  0
 40 53  2  0  0  0
 40 58  1  0  0  0
 41109  1  0  0  0
 41110  1  0  0  0
 41111  1  0  0  0
 41 48  1  0  0  0
 42 43  1  0  0  0
 42 66  1  0  0  0
 42112  1  0  0  0
 42113  1  0  0  0
 43 44  1  0  0  0
 44114  1  0  0  0
 45 46  2  0  0  0
 45115  1  0  0  0
 46116  1  0  0  0
 47117  1  0  0  0
 47118  1  0  0  0
 48 56  1  0  0  0
 48 65  1  0  0  0
 48119  1  0  0  0
 49 50  1  0  0  0
 49 53  1  0  0  0
 49 64  1  0  0  0
 49120  1  0  0  0
 50 51  1  0  0  0
 50121  1  0  0  0
 50122  1  0  0  0
 51 52  1  0  0  0
 51123  1  0  0  0
 51124  1  0  0  0
 52125  1  0  0  0
 52126  1  0  0  0
 53 54  1  0  0  0
 54 55  2  0  0  0
 54127  1  0  0  0
 55 57  1  0  0  0
 55128  1  0  0  0
 56 69  2  0  0  0
 57 58  2  0  0  0
 57129  1  0  0  0
 58130  1  0  0  0
 59 60  1  0  0  0
 59 61  1  0  0  0
 59 62  1  0  0  0
 60131  1  0  0  0
 60132  1  0  0  0
 60133  1  0  0  0
 61134  1  0  0  0
 61135  1  0  0  0
 61136  1  0  0  0
 62137  1  0  0  0
 62138  1  0  0  0
 62139  1  0  0  0
 63 65  1  0  0  0
 63140  1  0  0  0
 63141  1  0  0  0
 63142  1  0  0  0
 64143  1  0  0  0
 65144  1  0  0  0
 68 78  1  0  0  0
 71 72  1  0  0  0
 71 73  2  0  0  0
 71145  1  0  0  0
 72 74  2  0  0  0
 72146  1  0  0  0
 73 77  1  0  0  0
 73 85  1  0  0  0
 74 81  1  0  0  0
 74 85  1  0  0  0
 75 79  1  0  0  0
 75 81  1  0  0  0
 75 83  2  0  0  0
 76147  1  0  0  0
 76148  1  0  0  0
 76149  1  0  0  0
 76 79  1  0  0  0
 77 82  1  0  0  0
 77150  1  0  0  0
 77151  1  0  0  0
 78 80  1  0  0  0
 78152  1  0  0  0
 78153  1  0  0  0
 79 80  1  0  0  0
 79154  1  0  0  0
 80 84  1  0  0  0
 80155  1  0  0  0
 81156  1  0  0  0
 82157  1  0  0  0
 84158  1  0  0  0
M  ISO  4   1 100  68 101  78 101  82 100
M  END
> <chiral flag>
0

> <version>
0

> <s_m_source_file>
/data/baiqing/PycharmProjects/Reinvent-master-3.2/result/LINK_invent/BTK/process_docking_weight1_custom_product_contain_oxygen_bond_distance_aromatic_linkinvent_7_9_3/rearranged_h_0188.sdf

> <i_m_source_file_index>
23

> <r_mmod_Potential_Energy-OPLS-2005>
-172.081893920898

> <r_mmod_Stretch_Energy-OPLS-2005>
34.4184494018555

> <r_mmod_Bend_Energy-OPLS-2005>
110.86385345459

> <r_mmod_Torsional_Energy-OPLS-2005>
197.27067565918

> <r_mmod_Improper_Torsional_Energy-OPLS-2005>
1.97720611095428

> <r_mmod_Van_der_Waal_Energy-OPLS-2005>
133.300704956055

> <r_mmod_Electrostatic_Energy-OPLS-2005>
-425.704437255859

> <r_mmod_Solvation_Energy-OPLS-2005>
-232.966049194336

> <b_mmod_Minimization_Converged-OPLS-2005>
0

> <r_mmod_RMS_Derivative-OPLS-2005>
2.80594611167908

$$$$
24
                    3D
 Structure written by MMmdl.
152159  0  0  1  0            999 V2000
  -30.4805  -15.1868   20.3781 C   0  0  0  0  0  0
  -30.4306  -12.7469   19.5347 C   0  0  0  0  0  0
  -29.5307  -12.5656   18.2883 C   0  0  0  0  0  0
  -28.0750  -12.3059   18.7100 C   0  0  0  0  0  0
  -27.6147  -13.2725   19.8305 C   0  0  2  0  0  0
  -28.6477  -13.4198   20.9696 C   0  0  0  0  0  0
  -25.2391  -13.8254   20.5744 C   0  0  0  0  0  0
  -24.1740  -13.0443   20.9250 C   0  0  0  0  0  0
  -24.6393  -11.6938   20.8765 C   0  0  0  0  0  0
  -23.9088  -10.4296   21.0407 C   0  0  0  0  0  0
  -24.3634   -9.4208   21.9183 C   0  0  0  0  0  0
  -23.6304   -8.2245   22.0754 C   0  0  0  0  0  0
  -22.4284   -8.0285   21.3548 C   0  0  0  0  0  0
  -21.9925   -9.0257   20.4647 C   0  0  0  0  0  0
  -22.7259  -10.2133   20.3056 C   0  0  0  0  0  0
  -21.6857   -6.0739   22.5279 C   0  0  0  0  0  0
  -21.4017   -6.5643   23.8212 C   0  0  0  0  0  0
  -21.3657   -5.6795   24.9174 C   0  0  0  0  0  0
  -21.6043   -4.3058   24.7225 C   0  0  0  0  0  0
  -21.8819   -3.8149   23.4347 C   0  0  0  0  0  0
  -21.9193   -4.6966   22.3403 C   0  0  0  0  0  0
  -22.7756  -13.5192   21.1895 C   0  0  0  0  0  0
  -22.1662   -4.2151   21.0981 F   0  0  0  0  0  0
  -21.5624   -3.4541   25.7738 F   0  0  0  0  0  0
  -29.8953  -13.8950   20.3539 N   0  0  0  0  0  0
  -26.2820  -12.9526   20.3242 N   0  0  0  0  0  0
  -25.9332  -11.6631   20.5742 N   0  0  0  0  0  0
  -22.0420  -12.8173   22.0454 N   0  0  0  0  0  0
  -25.4028  -15.1987   20.4175 N   0  0  0  0  0  0
  -31.6810  -15.1644   20.0813 O   0  0  0  0  0  0
  -21.6646   -6.8883   21.4242 O   0  0  0  0  0  0
  -22.3431  -14.5491   20.6734 O   0  0  0  0  0  0
  -24.6575  -31.8269   23.1731 C   0  0  0  0  0  0
  -25.9281  -32.4600   23.8175 C   0  0  1  0  0  0
  -27.2186  -26.9747   20.1741 C   0  0  0  0  0  0
  -25.5972  -33.8414   24.2087 N   0  0  0  0  0  0
  -23.4697  -30.4402   21.5199 C   0  0  2  0  0  0
  -24.9224  -28.8351   20.1047 C   0  0  0  0  0  0
  -22.7635  -29.4463   22.4780 C   0  0  0  0  0  0
  -18.0318  -28.1407   22.8474 C   0  0  0  0  0  0
  -24.1492  -36.7209   23.2647 C   0  0  0  0  0  0
  -26.0344  -30.6477   21.3968 C   0  0  0  0  0  0
  -26.1011  -29.2429   20.7400 C   0  0  0  0  0  0
  -27.2400  -28.3297   20.7564 C   0  0  0  0  0  0
  -26.0155  -26.7078   19.4837 C   0  0  0  0  0  0
  -24.9025  -27.5875   19.4580 C   0  0  0  0  0  0
  -23.7056  -29.7569   20.1438 C   0  0  0  0  0  0
  -25.4131  -36.2973   24.0305 C   0  0  1  0  0  0
  -20.5941  -28.3747   23.1197 C   0  0  2  0  0  0
  -20.6796  -26.9433   22.5404 C   0  0  0  0  0  0
  -19.5771  -26.6380   21.5216 C   0  0  0  0  0  0
  -18.1952  -26.7943   22.1624 C   0  0  0  0  0  0
  -19.1580  -28.8897   23.2824 C   0  0  0  0  0  0
  -18.9492  -30.1489   23.8857 C   0  0  0  0  0  0
  -17.6488  -30.6601   24.0560 C   0  0  0  0  0  0
  -25.9094  -34.9356   23.5014 C   0  0  0  0  0  0
  -16.5375  -29.9092   23.6345 C   0  0  0  0  0  0
  -16.7301  -28.6512   23.0364 C   0  0  0  0  0  0
  -26.4553  -31.6534   25.0688 C   0  0  0  0  0  0
  -25.3696  -31.3776   26.1356 C   0  0  0  0  0  0
  -27.0452  -30.2909   24.6398 C   0  0  0  0  0  0
  -27.6046  -32.4345   25.7488 C   0  0  0  0  0  0
  -27.5568  -37.1759   24.8466 C   0  0  0  0  0  0
  -21.4310  -29.3042   22.3538 N   0  0  0  0  0  0
  -26.4274  -37.3709   23.9414 N   0  0  0  0  0  0
  -24.7413  -30.9980   22.0839 N   0  0  0  0  0  0
  -23.4206  -28.8030   23.3003 O   0  0  0  0  0  0
  -28.2416  -25.9144   20.3128 O   0  0  0  0  0  0
  -26.5699  -34.8891   22.4607 O   0  0  0  0  0  0
  -23.5660  -32.1216   23.6862 O   0  0  0  0  0  0
  -32.4899  -17.6363   21.4754 C   0  0  0  0  0  0
  -28.2932  -24.3580   19.8152 C   0  0  0  0  0  0
  -30.0827  -18.0892   20.4110 C   0  0  1  0  0  0
  -28.4558  -22.7546   20.5767 C   0  0  1  0  0  0
  -28.9879  -19.4988   20.5054 C   0  0  1  0  0  0
  -29.1825  -21.2171   20.0392 C   0  0  1  0  0  0
  -31.2038  -18.4706   21.4307 C   0  0  0  0  0  0
  -29.7572  -16.4623   20.5399 N   0  0  0  0  0  0
  -29.0779  -23.0093   21.7294 F   0  0  0  0  0  0
  -27.8383  -19.1016   19.9546 F   0  0  0  0  0  0
  -29.0962  -21.2286   18.7073 F   0  0  0  0  0  0
  -31.6176  -19.7069   21.1596 F   0  0  0  0  0  0
  -30.6861  -18.4686   22.6591 F   0  0  0  0  0  0
  -31.4596  -12.9143   19.2141 H   0  0  0  0  0  0
  -30.4604  -11.8305   20.1266 H   0  0  0  0  0  0
  -29.8960  -11.7451   17.6692 H   0  0  0  0  0  0
  -29.5788  -13.4635   17.6706 H   0  0  0  0  0  0
  -28.0148  -11.2767   19.0662 H   0  0  0  0  0  0
  -27.4090  -12.3705   17.8489 H   0  0  0  0  0  0
  -27.5407  -14.2470   19.3463 H   0  0  0  0  0  0
  -28.7915  -12.4795   21.5036 H   0  0  0  0  0  0
  -28.3009  -14.1465   21.7062 H   0  0  0  0  0  0
  -25.2777   -9.5682   22.4763 H   0  0  0  0  0  0
  -24.0008   -7.4637   22.7478 H   0  0  0  0  0  0
  -21.0854   -8.8781   19.8955 H   0  0  0  0  0  0
  -22.3717  -10.9673   19.6166 H   0  0  0  0  0  0
  -21.2014   -7.6151   23.9716 H   0  0  0  0  0  0
  -21.1476   -6.0526   25.9077 H   0  0  0  0  0  0
  -22.0600   -2.7611   23.2847 H   0  0  0  0  0  0
  -22.4059  -11.9842   22.4837 H   0  0  0  0  0  0
  -21.1034  -13.1178   22.2671 H   0  0  0  0  0  0
  -24.6309  -15.8474   20.5282 H   0  0  0  0  0  0
  -26.2426  -15.6419   20.0688 H   0  0  0  0  0  0
  -26.7342  -32.5145   23.0882 H   0  0  0  0  0  0
  -25.0084  -33.9498   25.0214 H   0  0  0  0  0  0
  -22.7810  -31.2707   21.3525 H   0  0  0  0  0  0
  -23.3761  -35.9531   23.3288 H   0  0  0  0  0  0
  -24.3572  -36.8871   22.2066 H   0  0  0  0  0  0
  -23.7244  -37.6392   23.6710 H   0  0  0  0  0  0
  -26.2111  -31.3923   20.6196 H   0  0  0  0  0  0
  -26.8962  -30.7006   22.0501 H   0  0  0  0  0  0
  -28.1283  -28.6345   21.2914 H   0  0  0  0  0  0
  -25.8909  -25.7532   18.9957 H   0  0  0  0  0  0
  -24.0051  -27.2705   18.9446 H   0  0  0  0  0  0
  -23.8547  -30.5265   19.3856 H   0  0  0  0  0  0
  -22.8162  -29.2079   19.8291 H   0  0  0  0  0  0
  -25.1329  -36.1764   25.0795 H   0  0  0  0  0  0
  -21.0036  -28.3353   24.1317 H   0  0  0  0  0  0
  -20.5679  -26.2366   23.3641 H   0  0  0  0  0  0
  -21.6659  -26.7415   22.1209 H   0  0  0  0  0  0
  -19.6931  -25.6280   21.1272 H   0  0  0  0  0  0
  -19.6709  -27.3167   20.6728 H   0  0  0  0  0  0
  -17.4221  -26.6687   21.4026 H   0  0  0  0  0  0
  -18.0344  -26.0096   22.9030 H   0  0  0  0  0  0
  -19.7969  -30.7316   24.2200 H   0  0  0  0  0  0
  -17.5043  -31.6277   24.5169 H   0  0  0  0  0  0
  -15.5376  -30.2982   23.7696 H   0  0  0  0  0  0
  -15.8700  -28.0819   22.7100 H   0  0  0  0  0  0
  -24.5892  -30.7108   25.7671 H   0  0  0  0  0  0
  -24.8869  -32.2976   26.4661 H   0  0  0  0  0  0
  -25.7943  -30.9026   27.0208 H   0  0  0  0  0  0
  -26.3114  -29.6585   24.1388 H   0  0  0  0  0  0
  -27.3984  -29.7269   25.5040 H   0  0  0  0  0  0
  -27.9053  -30.4102   23.9807 H   0  0  0  0  0  0
  -27.2605  -33.3678   26.1956 H   0  0  0  0  0  0
  -28.3909  -32.6855   25.0358 H   0  0  0  0  0  0
  -28.0656  -31.8548   26.5494 H   0  0  0  0  0  0
  -28.2563  -38.0075   24.7519 H   0  0  0  0  0  0
  -28.1084  -36.2602   24.6281 H   0  0  0  0  0  0
  -27.2288  -37.1387   25.8869 H   0  0  0  0  0  0
  -20.9543  -29.8728   21.6678 H   0  0  0  0  0  0
  -26.0119  -38.2764   24.1429 H   0  0  0  0  0  0
  -32.9038  -17.4805   20.4791 H   0  0  0  0  0  0
  -32.3304  -16.6714   21.9526 H   0  0  0  0  0  0
  -33.2537  -18.1399   22.0683 H   0  0  0  0  0  0
  -27.4765  -24.2467   19.1044 H   0  0  0  0  0  0
  -29.1679  -24.3939   19.1657 H   0  0  0  0  0  0
  -30.5178  -18.1560   19.4132 H   0  0  0  0  0  0
  -27.4413  -22.4951   20.8785 H   0  0  0  0  0  0
  -28.7355  -19.5594   21.5635 H   0  0  0  0  0  0
  -30.2429  -21.4067   20.1937 H   0  0  0  0  0  0
  -28.7830  -16.3038   20.7461 H   0  0  0  0  0  0
  1 25  1  0  0  0
  1 30  2  0  0  0
  1 78  1  0  0  0
  2  3  1  0  0  0
  2 25  1  0  0  0
  2 84  1  0  0  0
  2 85  1  0  0  0
  3  4  1  0  0  0
  3 86  1  0  0  0
  3 87  1  0  0  0
  4  5  1  0  0  0
  4 88  1  0  0  0
  4 89  1  0  0  0
  5  6  1  0  0  0
  5 26  1  0  0  0
  5 90  1  0  0  0
  6 25  1  0  0  0
  6 91  1  0  0  0
  6 92  1  0  0  0
  7  8  2  0  0  0
  7 26  1  0  0  0
  7 29  1  0  0  0
  8  9  1  0  0  0
  8 22  1  0  0  0
  9 10  1  0  0  0
  9 27  2  0  0  0
 10 11  2  0  0  0
 10 15  1  0  0  0
 11 12  1  0  0  0
 11 93  1  0  0  0
 12 13  2  0  0  0
 12 94  1  0  0  0
 13 14  1  0  0  0
 13 31  1  0  0  0
 14 15  2  0  0  0
 14 95  1  0  0  0
 15 96  1  0  0  0
 16 17  2  0  0  0
 16 21  1  0  0  0
 16 31  1  0  0  0
 17 18  1  0  0  0
 17 97  1  0  0  0
 18 19  2  0  0  0
 18 98  1  0  0  0
 19 20  1  0  0  0
 19 24  1  0  0  0
 20 21  2  0  0  0
 20 99  1  0  0  0
 21 23  1  0  0  0
 22 28  1  0  0  0
 22 32  2  0  0  0
 26 27  1  0  0  0
 28100  1  0  0  0
 28101  1  0  0  0
 29102  1  0  0  0
 29103  1  0  0  0
 33 34  1  0  0  0
 33 66  1  0  0  0
 33 70  2  0  0  0
 34 36  1  0  0  0
 34 59  1  0  0  0
 34104  1  0  0  0
 35 44  2  0  0  0
 35 45  1  0  0  0
 35 68  1  0  0  0
 36 56  1  0  0  0
 36105  1  0  0  0
 37 39  1  0  0  0
 37 47  1  0  0  0
 37 66  1  0  0  0
 37106  1  0  0  0
 38 43  2  0  0  0
 38 46  1  0  0  0
 38 47  1  0  0  0
 39 64  1  0  0  0
 39 67  2  0  0  0
 40 52  1  0  0  0
 40 53  2  0  0  0
 40 58  1  0  0  0
 41107  1  0  0  0
 41108  1  0  0  0
 41109  1  0  0  0
 41 48  1  0  0  0
 42 43  1  0  0  0
 42 66  1  0  0  0
 42110  1  0  0  0
 42111  1  0  0  0
 43 44  1  0  0  0
 44112  1  0  0  0
 45 46  2  0  0  0
 45113  1  0  0  0
 46114  1  0  0  0
 47115  1  0  0  0
 47116  1  0  0  0
 48 56  1  0  0  0
 48 65  1  0  0  0
 48117  1  0  0  0
 49 50  1  0  0  0
 49 53  1  0  0  0
 49 64  1  0  0  0
 49118  1  0  0  0
 50 51  1  0  0  0
 50119  1  0  0  0
 50120  1  0  0  0
 51 52  1  0  0  0
 51121  1  0  0  0
 51122  1  0  0  0
 52123  1  0  0  0
 52124  1  0  0  0
 53 54  1  0  0  0
 54 55  2  0  0  0
 54125  1  0  0  0
 55 57  1  0  0  0
 55126  1  0  0  0
 56 69  2  0  0  0
 57 58  2  0  0  0
 57127  1  0  0  0
 58128  1  0  0  0
 59 60  1  0  0  0
 59 61  1  0  0  0
 59 62  1  0  0  0
 60129  1  0  0  0
 60130  1  0  0  0
 60131  1  0  0  0
 61132  1  0  0  0
 61133  1  0  0  0
 61134  1  0  0  0
 62135  1  0  0  0
 62136  1  0  0  0
 62137  1  0  0  0
 63 65  1  0  0  0
 63138  1  0  0  0
 63139  1  0  0  0
 63140  1  0  0  0
 64141  1  0  0  0
 65142  1  0  0  0
 68 72  1  0  0  0
 71143  1  0  0  0
 71144  1  0  0  0
 71145  1  0  0  0
 71 77  1  0  0  0
 72 74  1  0  0  0
 72146  1  0  0  0
 72147  1  0  0  0
 73 75  1  0  0  0
 73 77  1  0  0  0
 73 78  1  0  0  0
 73148  1  0  0  0
 74 76  1  0  0  0
 74 79  1  0  0  0
 74149  1  0  0  0
 75 76  1  0  0  0
 75 80  1  0  0  0
 75150  1  0  0  0
 76 81  1  0  0  0
 76151  1  0  0  0
 77 82  1  0  0  0
 77 83  1  0  0  0
 78152  1  0  0  0
M  ISO  4   1 100  68 101  72 101  78 100
M  END
> <chiral flag>
0

> <version>
0

> <s_m_source_file>
/data/baiqing/PycharmProjects/Reinvent-master-3.2/result/LINK_invent/BTK/process_docking_weight1_custom_product_contain_oxygen_bond_distance_aromatic_linkinvent_7_9_3/rearranged_h_0188.sdf

> <i_m_source_file_index>
24

> <r_mmod_Potential_Energy-OPLS-2005>
1116.07336425781

> <r_mmod_Stretch_Energy-OPLS-2005>
568.363952636719

> <r_mmod_Bend_Energy-OPLS-2005>
438.360900878906

> <r_mmod_Torsional_Energy-OPLS-2005>
231.480850219727

> <r_mmod_Improper_Torsional_Energy-OPLS-2005>
3.88296580314636

> <r_mmod_Van_der_Waal_Energy-OPLS-2005>
118.535110473633

> <r_mmod_Electrostatic_Energy-OPLS-2005>
-426.750152587891

> <r_mmod_Solvation_Energy-OPLS-2005>
-198.127044677734

> <b_mmod_Minimization_Converged-OPLS-2005>
0

> <r_mmod_RMS_Derivative-OPLS-2005>
0.55501115322113

$$$$
25
                    3D
 Structure written by MMmdl.
159167  0  0  1  0            999 V2000
  -30.6933  -14.4431   20.5406 C   0  0  0  0  0  0
  -30.4268  -12.2653   19.4210 C   0  0  0  0  0  0
  -29.5080  -12.4879   18.2022 C   0  0  0  0  0  0
  -28.0187  -12.3824   18.6019 C   0  0  0  0  0  0
  -27.6675  -13.2044   19.8717 C   0  0  2  0  0  0
  -28.7080  -12.9530   20.9871 C   0  0  0  0  0  0
  -25.2602  -13.8150   20.5652 C   0  0  0  0  0  0
  -24.1856  -13.0434   20.9151 C   0  0  0  0  0  0
  -24.6413  -11.6892   20.8695 C   0  0  0  0  0  0
  -23.9091  -10.4285   21.0386 C   0  0  0  0  0  0
  -24.3637   -9.4195   21.9161 C   0  0  0  0  0  0
  -23.6300   -8.2240   22.0739 C   0  0  0  0  0  0
  -22.4273   -8.0290   21.3542 C   0  0  0  0  0  0
  -21.9917   -9.0266   20.4633 C   0  0  0  0  0  0
  -22.7259  -10.2141   20.3030 C   0  0  0  0  0  0
  -21.6848   -6.0745   22.5286 C   0  0  0  0  0  0
  -21.4018   -6.5645   23.8221 C   0  0  0  0  0  0
  -21.3655   -5.6790   24.9178 C   0  0  0  0  0  0
  -21.6038   -4.3054   24.7222 C   0  0  0  0  0  0
  -21.8808   -3.8150   23.4341 C   0  0  0  0  0  0
  -21.9185   -4.6972   22.3400 C   0  0  0  0  0  0
  -22.7870  -13.5207   21.1865 C   0  0  0  0  0  0
  -22.1641   -4.2155   21.0975 F   0  0  0  0  0  0
  -21.5641   -3.4532   25.7731 F   0  0  0  0  0  0
  -30.0476  -13.2495   20.4429 N   0  0  0  0  0  0
  -26.3053  -12.9324   20.3326 N   0  0  0  0  0  0
  -25.9345  -11.6493   20.5720 N   0  0  0  0  0  0
  -22.0557  -12.8169   22.0433 N   0  0  0  0  0  0
  -25.4319  -15.1873   20.4056 N   0  0  0  0  0  0
  -31.8236  -14.6384   20.0837 O   0  0  0  0  0  0
  -21.6621   -6.8899   21.4250 O   0  0  0  0  0  0
  -22.3518  -14.5520   20.6752 O   0  0  0  0  0  0
  -24.6128  -31.8660   23.2102 C   0  0  0  0  0  0
  -25.9033  -32.4801   23.8367 C   0  0  1  0  0  0
  -27.2351  -27.4434   20.0772 C   0  0  0  0  0  0
  -25.5893  -33.8603   24.2311 N   0  0  0  0  0  0
  -23.4001  -30.4899   21.5523 C   0  0  2  0  0  0
  -24.8464  -28.9582   20.1099 C   0  0  0  0  0  0
  -22.7422  -29.4644   22.5021 C   0  0  0  0  0  0
  -18.0332  -28.1378   22.8483 C   0  0  0  0  0  0
  -24.1502  -36.7297   23.2638 C   0  0  0  0  0  0
  -25.9271  -30.8320   21.3605 C   0  0  0  0  0  0
  -26.0036  -29.4655   20.7133 C   0  0  0  0  0  0
  -27.2013  -28.7139   20.6996 C   0  0  0  0  0  0
  -26.0693  -26.9596   19.4485 C   0  0  0  0  0  0
  -24.8752  -27.7052   19.4728 C   0  0  0  0  0  0
  -23.6036  -29.8195   20.1661 C   0  0  0  0  0  0
  -25.4125  -36.3100   24.0344 C   0  0  1  0  0  0
  -20.5914  -28.3692   23.1379 C   0  0  2  0  0  0
  -20.6897  -26.9422   22.5489 C   0  0  0  0  0  0
  -19.5903  -26.6344   21.5276 C   0  0  0  0  0  0
  -18.2031  -26.7934   22.1589 C   0  0  0  0  0  0
  -19.1551  -28.8848   23.2926 C   0  0  0  0  0  0
  -18.9440  -30.1479   23.8891 C   0  0  0  0  0  0
  -17.6434  -30.6604   24.0510 C   0  0  0  0  0  0
  -25.9043  -34.9457   23.5122 C   0  0  0  0  0  0
  -16.5348  -29.9057   23.6313 C   0  0  0  0  0  0
  -16.7311  -28.6487   23.0329 C   0  0  0  0  0  0
  -26.4486  -31.6543   25.0651 C   0  0  0  0  0  0
  -25.3751  -31.3622   26.1382 C   0  0  0  0  0  0
  -27.0305  -30.3002   24.5970 C   0  0  0  0  0  0
  -27.6100  -32.4204   25.7392 C   0  0  0  0  0  0
  -27.5591  -37.1805   24.8468 C   0  0  0  0  0  0
  -21.4151  -29.3055   22.3780 N   0  0  0  0  0  0
  -26.4312  -37.3783   23.9391 N   0  0  0  0  0  0
  -24.6658  -31.0769   22.0997 N   0  0  0  0  0  0
  -23.4204  -28.8167   23.3028 O   0  0  0  0  0  0
  -28.4038  -26.7097   20.0492 O   0  0  0  0  0  0
  -26.5618  -34.8916   22.4697 O   0  0  0  0  0  0
  -23.5329  -32.1409   23.7511 O   0  0  0  0  0  0
  -29.5871  -19.2594   21.0362 C   0  0  0  0  0  0
  -30.7628  -18.8974   20.4233 C   0  0  0  0  0  0
  -29.9832  -16.8230   20.8988 C   0  0  0  0  0  0
  -26.6541  -22.6882   21.6421 C   0  0  0  0  0  0
  -27.8600  -25.7513   22.2490 C   0  0  0  0  0  0
  -29.0917  -20.6157   21.4569 C   0  0  0  0  0  0
  -28.0313  -24.2056   20.1326 C   0  0  0  0  0  0
  -28.0562  -22.9236   21.0233 C   0  0  2  0  0  0
  -28.4838  -25.5150   20.8582 C   0  0  1  0  0  0
  -28.6505  -21.6337   20.3684 C   0  0  2  0  0  0
  -30.9891  -17.5160   20.3460 N   0  0  0  0  0  0
  -29.9354  -15.4144   21.0723 N   0  0  0  0  0  0
  -27.6951  -21.0549   19.5000 O   0  0  0  0  0  0
  -31.6504  -19.7690   20.0006 F   0  0  0  0  0  0
  -28.6579  -17.8385   21.4497 S   0  0  0  0  0  0
  -31.4767  -12.3397   19.1360 H   0  0  0  0  0  0
  -30.2996  -11.2531   19.8075 H   0  0  0  0  0  0
  -29.7368  -11.7617   17.4211 H   0  0  0  0  0  0
  -29.7099  -13.4692   17.7701 H   0  0  0  0  0  0
  -27.7959  -11.3282   18.7687 H   0  0  0  0  0  0
  -27.3892  -12.6915   17.7670 H   0  0  0  0  0  0
  -27.7193  -14.2558   19.5899 H   0  0  0  0  0  0
  -28.6677  -11.9098   21.3010 H   0  0  0  0  0  0
  -28.4759  -13.5273   21.8835 H   0  0  0  0  0  0
  -25.2808   -9.5637   22.4702 H   0  0  0  0  0  0
  -24.0015   -7.4610   22.7426 H   0  0  0  0  0  0
  -21.0868   -8.8772   19.8923 H   0  0  0  0  0  0
  -22.3741  -10.9666   19.6105 H   0  0  0  0  0  0
  -21.2018   -7.6153   23.9721 H   0  0  0  0  0  0
  -21.1489   -6.0533   25.9080 H   0  0  0  0  0  0
  -22.0594   -2.7612   23.2842 H   0  0  0  0  0  0
  -22.4218  -11.9830   22.4781 H   0  0  0  0  0  0
  -21.1164  -13.1124   22.2678 H   0  0  0  0  0  0
  -24.6697  -15.8454   20.5265 H   0  0  0  0  0  0
  -26.2844  -15.6272   20.0842 H   0  0  0  0  0  0
  -26.7080  -32.5540   23.1112 H   0  0  0  0  0  0
  -25.0009  -33.9751   25.0431 H   0  0  0  0  0  0
  -22.6872  -31.3079   21.4169 H   0  0  0  0  0  0
  -23.3752  -35.9638   23.3311 H   0  0  0  0  0  0
  -24.3604  -36.8889   22.2047 H   0  0  0  0  0  0
  -23.7265  -37.6524   23.6622 H   0  0  0  0  0  0
  -26.0302  -31.5948   20.5874 H   0  0  0  0  0  0
  -26.8196  -30.8918   21.9696 H   0  0  0  0  0  0
  -28.0940  -29.1034   21.1695 H   0  0  0  0  0  0
  -26.0852  -26.0265   18.9088 H   0  0  0  0  0  0
  -23.9926  -27.3218   18.9800 H   0  0  0  0  0  0
  -23.6980  -30.5936   19.4041 H   0  0  0  0  0  0
  -22.7281  -29.2328   19.8788 H   0  0  0  0  0  0
  -25.1311  -36.1967   25.0843 H   0  0  0  0  0  0
  -21.0032  -28.3322   24.1495 H   0  0  0  0  0  0
  -20.5904  -26.2294   23.3686 H   0  0  0  0  0  0
  -21.6790  -26.7525   22.1298 H   0  0  0  0  0  0
  -19.7125  -25.6242   21.1353 H   0  0  0  0  0  0
  -19.6928  -27.3116   20.6777 H   0  0  0  0  0  0
  -17.4388  -26.6692   21.3896 H   0  0  0  0  0  0
  -18.0348  -26.0073   22.8968 H   0  0  0  0  0  0
  -19.7890  -30.7361   24.2217 H   0  0  0  0  0  0
  -17.4933  -31.6331   24.4993 H   0  0  0  0  0  0
  -15.5336  -30.2948   23.7625 H   0  0  0  0  0  0
  -15.8718  -28.0813   22.7022 H   0  0  0  0  0  0
  -24.5963  -30.6923   25.7699 H   0  0  0  0  0  0
  -24.8879  -32.2762   26.4792 H   0  0  0  0  0  0
  -25.8115  -30.8802   27.0136 H   0  0  0  0  0  0
  -26.2809  -29.6742   24.1100 H   0  0  0  0  0  0
  -27.4209  -29.7242   25.4370 H   0  0  0  0  0  0
  -27.8592  -30.4351   23.9010 H   0  0  0  0  0  0
  -27.2791  -33.3509   26.2011 H   0  0  0  0  0  0
  -28.3907  -32.6736   25.0199 H   0  0  0  0  0  0
  -28.0767  -31.8250   26.5247 H   0  0  0  0  0  0
  -28.2641  -38.0075   24.7504 H   0  0  0  0  0  0
  -28.1059  -36.2609   24.6313 H   0  0  0  0  0  0
  -27.2290  -37.1480   25.8869 H   0  0  0  0  0  0
  -20.9312  -29.8718   21.6957 H   0  0  0  0  0  0
  -26.0198  -38.2871   24.1349 H   0  0  0  0  0  0
  -26.3536  -23.5173   22.2774 H   0  0  0  0  0  0
  -26.6081  -21.7982   22.2654 H   0  0  0  0  0  0
  -25.8876  -22.5821   20.8728 H   0  0  0  0  0  0
  -28.1245  -24.9670   22.9546 H   0  0  0  0  0  0
  -26.7726  -25.8047   22.2012 H   0  0  0  0  0  0
  -28.2187  -26.6865   22.6778 H   0  0  0  0  0  0
  -29.8727  -21.0818   22.0582 H   0  0  0  0  0  0
  -28.2723  -20.4512   22.1535 H   0  0  0  0  0  0
  -27.0299  -24.3200   19.7262 H   0  0  0  0  0  0
  -28.6735  -24.0673   19.2623 H   0  0  0  0  0  0
  -28.7396  -23.1433   21.8426 H   0  0  0  0  0  0
  -29.5528  -25.3917   21.0405 H   0  0  0  0  0  0
  -29.5293  -21.8931   19.7736 H   0  0  0  0  0  0
  -29.0871  -15.0715   21.4939 H   0  0  0  0  0  0
  -27.5692  -21.6571   18.7745 H   0  0  0  0  0  0
  1 25  1  0  0  0
  1 30  2  0  0  0
  1 82  1  0  0  0
  2  3  1  0  0  0
  2 25  1  0  0  0
  2 86  1  0  0  0
  2 87  1  0  0  0
  3  4  1  0  0  0
  3 88  1  0  0  0
  3 89  1  0  0  0
  4  5  1  0  0  0
  4 90  1  0  0  0
  4 91  1  0  0  0
  5  6  1  0  0  0
  5 26  1  0  0  0
  5 92  1  0  0  0
  6 25  1  0  0  0
  6 93  1  0  0  0
  6 94  1  0  0  0
  7  8  2  0  0  0
  7 26  1  0  0  0
  7 29  1  0  0  0
  8  9  1  0  0  0
  8 22  1  0  0  0
  9 10  1  0  0  0
  9 27  2  0  0  0
 10 11  2  0  0  0
 10 15  1  0  0  0
 11 12  1  0  0  0
 11 95  1  0  0  0
 12 13  2  0  0  0
 12 96  1  0  0  0
 13 14  1  0  0  0
 13 31  1  0  0  0
 14 15  2  0  0  0
 14 97  1  0  0  0
 15 98  1  0  0  0
 16 17  2  0  0  0
 16 21  1  0  0  0
 16 31  1  0  0  0
 17 18  1  0  0  0
 17 99  1  0  0  0
 18 19  2  0  0  0
 18100  1  0  0  0
 19 20  1  0  0  0
 19 24  1  0  0  0
 20 21  2  0  0  0
 20101  1  0  0  0
 21 23  1  0  0  0
 22 28  1  0  0  0
 22 32  2  0  0  0
 26 27  1  0  0  0
 28102  1  0  0  0
 28103  1  0  0  0
 29104  1  0  0  0
 29105  1  0  0  0
 33 34  1  0  0  0
 33 66  1  0  0  0
 33 70  2  0  0  0
 34 36  1  0  0  0
 34 59  1  0  0  0
 34106  1  0  0  0
 35 44  2  0  0  0
 35 45  1  0  0  0
 35 68  1  0  0  0
 36 56  1  0  0  0
 36107  1  0  0  0
 37 39  1  0  0  0
 37 47  1  0  0  0
 37 66  1  0  0  0
 37108  1  0  0  0
 38 43  2  0  0  0
 38 46  1  0  0  0
 38 47  1  0  0  0
 39 64  1  0  0  0
 39 67  2  0  0  0
 40 52  1  0  0  0
 40 53  2  0  0  0
 40 58  1  0  0  0
 41109  1  0  0  0
 41110  1  0  0  0
 41111  1  0  0  0
 41 48  1  0  0  0
 42 43  1  0  0  0
 42 66  1  0  0  0
 42112  1  0  0  0
 42113  1  0  0  0
 43 44  1  0  0  0
 44114  1  0  0  0
 45 46  2  0  0  0
 45115  1  0  0  0
 46116  1  0  0  0
 47117  1  0  0  0
 47118  1  0  0  0
 48 56  1  0  0  0
 48 65  1  0  0  0
 48119  1  0  0  0
 49 50  1  0  0  0
 49 53  1  0  0  0
 49 64  1  0  0  0
 49120  1  0  0  0
 50 51  1  0  0  0
 50121  1  0  0  0
 50122  1  0  0  0
 51 52  1  0  0  0
 51123  1  0  0  0
 51124  1  0  0  0
 52125  1  0  0  0
 52126  1  0  0  0
 53 54  1  0  0  0
 54 55  2  0  0  0
 54127  1  0  0  0
 55 57  1  0  0  0
 55128  1  0  0  0
 56 69  2  0  0  0
 57 58  2  0  0  0
 57129  1  0  0  0
 58130  1  0  0  0
 59 60  1  0  0  0
 59 61  1  0  0  0
 59 62  1  0  0  0
 60131  1  0  0  0
 60132  1  0  0  0
 60133  1  0  0  0
 61134  1  0  0  0
 61135  1  0  0  0
 61136  1  0  0  0
 62137  1  0  0  0
 62138  1  0  0  0
 62139  1  0  0  0
 63 65  1  0  0  0
 63140  1  0  0  0
 63141  1  0  0  0
 63142  1  0  0  0
 64143  1  0  0  0
 65144  1  0  0  0
 68 79  1  0  0  0
 71 72  2  0  0  0
 71 76  1  0  0  0
 71 85  1  0  0  0
 72 81  1  0  0  0
 72 84  1  0  0  0
 73 81  2  0  0  0
 73 82  1  0  0  0
 73 85  1  0  0  0
 74145  1  0  0  0
 74146  1  0  0  0
 74147  1  0  0  0
 74 78  1  0  0  0
 75148  1  0  0  0
 75149  1  0  0  0
 75150  1  0  0  0
 75 79  1  0  0  0
 76 80  1  0  0  0
 76151  1  0  0  0
 76152  1  0  0  0
 77 78  1  0  0  0
 77 79  1  0  0  0
 77153  1  0  0  0
 77154  1  0  0  0
 78 80  1  0  0  0
 78155  1  0  0  0
 79156  1  0  0  0
 80 83  1  0  0  0
 80157  1  0  0  0
 82158  1  0  0  0
 83159  1  0  0  0
M  ISO  4   1 100  68 101  79 101  82 100
M  END
> <chiral flag>
0

> <version>
0

> <s_m_source_file>
/data/baiqing/PycharmProjects/Reinvent-master-3.2/result/LINK_invent/BTK/process_docking_weight1_custom_product_contain_oxygen_bond_distance_aromatic_linkinvent_7_9_3/rearranged_h_0188.sdf

> <i_m_source_file_index>
25

> <r_mmod_Potential_Energy-OPLS-2005>
-124.915870666504

> <r_mmod_Stretch_Energy-OPLS-2005>
38.1339149475098

> <r_mmod_Bend_Energy-OPLS-2005>
116.004768371582

> <r_mmod_Torsional_Energy-OPLS-2005>
241.032699584961

> <r_mmod_Improper_Torsional_Energy-OPLS-2005>
3.97193312644958

> <r_mmod_Van_der_Waal_Energy-OPLS-2005>
134.183349609375

> <r_mmod_Electrostatic_Energy-OPLS-2005>
-441.195953369141

> <r_mmod_Solvation_Energy-OPLS-2005>
-228.47282409668

> <b_mmod_Minimization_Converged-OPLS-2005>
0

> <r_mmod_RMS_Derivative-OPLS-2005>
3.59697580337524

$$$$
26
                    3D
 Structure written by MMmdl.
159167  0  0  1  0            999 V2000
  -30.7384  -14.5373   20.5924 C   0  0  0  0  0  0
  -30.4206  -12.3622   19.4322 C   0  0  0  0  0  0
  -29.4892  -12.5097   18.2134 C   0  0  0  0  0  0
  -28.0201  -12.3419   18.6387 C   0  0  0  0  0  0
  -27.6562  -13.2141   19.8676 C   0  0  2  0  0  0
  -28.7014  -13.0595   20.9932 C   0  0  0  0  0  0
  -25.2584  -13.8172   20.5718 C   0  0  0  0  0  0
  -24.1831  -13.0436   20.9174 C   0  0  0  0  0  0
  -24.6391  -11.6906   20.8723 C   0  0  0  0  0  0
  -23.9050  -10.4292   21.0391 C   0  0  0  0  0  0
  -24.3598   -9.4211   21.9175 C   0  0  0  0  0  0
  -23.6279   -8.2243   22.0746 C   0  0  0  0  0  0
  -22.4261   -8.0277   21.3541 C   0  0  0  0  0  0
  -21.9892   -9.0251   20.4648 C   0  0  0  0  0  0
  -22.7218  -10.2130   20.3050 C   0  0  0  0  0  0
  -21.6852   -6.0735   22.5281 C   0  0  0  0  0  0
  -21.4024   -6.5637   23.8220 C   0  0  0  0  0  0
  -21.3650   -5.6783   24.9176 C   0  0  0  0  0  0
  -21.6037   -4.3050   24.7227 C   0  0  0  0  0  0
  -21.8815   -3.8144   23.4349 C   0  0  0  0  0  0
  -21.9195   -4.6961   22.3405 C   0  0  0  0  0  0
  -22.7855  -13.5244   21.1829 C   0  0  0  0  0  0
  -22.1661   -4.2147   21.0987 F   0  0  0  0  0  0
  -21.5615   -3.4533   25.7742 F   0  0  0  0  0  0
  -30.0289  -13.3740   20.4349 N   0  0  0  0  0  0
  -26.3013  -12.9354   20.3375 N   0  0  0  0  0  0
  -25.9330  -11.6507   20.5781 N   0  0  0  0  0  0
  -22.0476  -12.8257   22.0384 N   0  0  0  0  0  0
  -25.4329  -15.1893   20.4195 N   0  0  0  0  0  0
  -31.8260  -14.6927   20.0324 O   0  0  0  0  0  0
  -21.6628   -6.8874   21.4238 O   0  0  0  0  0  0
  -22.3558  -14.5554   20.6679 O   0  0  0  0  0  0
  -24.6211  -31.8615   23.2044 C   0  0  0  0  0  0
  -25.9085  -32.4782   23.8344 C   0  0  1  0  0  0
  -27.2310  -27.3665   20.1087 C   0  0  0  0  0  0
  -25.5918  -33.8578   24.2292 N   0  0  0  0  0  0
  -23.4122  -30.4860   21.5454 C   0  0  2  0  0  0
  -24.8597  -28.9431   20.1131 C   0  0  0  0  0  0
  -22.7448  -29.4642   22.4950 C   0  0  0  0  0  0
  -18.0279  -28.1392   22.8491 C   0  0  0  0  0  0
  -24.1494  -36.7302   23.2644 C   0  0  0  0  0  0
  -25.9489  -30.8068   21.3681 C   0  0  0  0  0  0
  -26.0242  -29.4357   20.7159 C   0  0  0  0  0  0
  -27.2140  -28.6581   20.7040 C   0  0  0  0  0  0
  -26.0492  -26.9146   19.4801 C   0  0  0  0  0  0
  -24.8716  -27.6858   19.4860 C   0  0  0  0  0  0
  -23.6245  -29.8175   20.1618 C   0  0  0  0  0  0
  -25.4120  -36.3091   24.0335 C   0  0  1  0  0  0
  -20.5874  -28.3686   23.1296 C   0  0  2  0  0  0
  -20.6770  -26.9414   22.5414 C   0  0  0  0  0  0
  -19.5749  -26.6400   21.5211 C   0  0  0  0  0  0
  -18.1929  -26.7935   22.1623 C   0  0  0  0  0  0
  -19.1532  -28.8855   23.2892 C   0  0  0  0  0  0
  -18.9456  -30.1459   23.8910 C   0  0  0  0  0  0
  -17.6455  -30.6589   24.0569 C   0  0  0  0  0  0
  -25.9047  -34.9448   23.5109 C   0  0  0  0  0  0
  -16.5345  -29.9097   23.6326 C   0  0  0  0  0  0
  -16.7268  -28.6515   23.0345 C   0  0  0  0  0  0
  -26.4507  -31.6566   25.0673 C   0  0  0  0  0  0
  -25.3783  -31.3653   26.1432 C   0  0  0  0  0  0
  -27.0321  -30.2985   24.6081 C   0  0  0  0  0  0
  -27.6082  -32.4283   25.7424 C   0  0  0  0  0  0
  -27.5576  -37.1829   24.8485 C   0  0  0  0  0  0
  -21.4160  -29.3040   22.3693 N   0  0  0  0  0  0
  -26.4316  -37.3771   23.9378 N   0  0  0  0  0  0
  -24.6794  -31.0678   22.0968 N   0  0  0  0  0  0
  -23.4191  -28.8181   23.3012 O   0  0  0  0  0  0
  -28.3765  -26.5750   20.1047 O   0  0  0  0  0  0
  -26.5610  -34.8911   22.4670 O   0  0  0  0  0  0
  -23.5391  -32.1384   23.7417 O   0  0  0  0  0  0
  -29.9399  -19.0047   19.9426 C   0  0  0  0  0  0
  -27.9982  -18.3976   21.2029 C   0  0  0  0  0  0
  -28.6606  -19.3694   20.4216 C   0  0  0  0  0  0
  -30.4652  -17.7137   20.2414 C   0  0  0  0  0  0
  -29.7064  -16.7869   21.0223 C   0  0  0  0  0  0
  -28.0718  -21.8354   19.7854 C   0  0  0  0  0  0
  -31.6601  -16.0941   23.3904 C   0  0  0  0  0  0
  -29.2940  -22.6545   20.2611 C   0  0  0  0  0  0
  -30.4566  -15.2875   22.8703 C   0  0  0  0  0  0
  -28.2420  -25.1662   20.4934 C   0  0  0  0  0  0
  -29.2997  -24.1912   19.8566 C   0  0  1  0  0  0
  -28.4946  -17.1726   21.4985 N   0  0  0  0  0  0
  -27.8865  -20.5027   19.9801 N   0  0  0  0  0  0
  -30.2313  -15.4920   21.4290 N   0  0  0  0  0  0
  -27.1778  -22.4389   19.1958 O   0  0  0  0  0  0
  -31.6982  -17.3988   19.7820 F   0  0  0  0  0  0
  -30.5084  -24.6657   20.1670 F   0  0  0  0  0  0
  -31.4622  -12.4562   19.1207 H   0  0  0  0  0  0
  -30.3348  -11.3626   19.8623 H   0  0  0  0  0  0
  -29.7440  -11.7711   17.4522 H   0  0  0  0  0  0
  -29.6304  -13.4867   17.7508 H   0  0  0  0  0  0
  -27.8686  -11.2890   18.8802 H   0  0  0  0  0  0
  -27.3521  -12.5580   17.8038 H   0  0  0  0  0  0
  -27.6826  -14.2520   19.5359 H   0  0  0  0  0  0
  -28.6989  -12.0401   21.3829 H   0  0  0  0  0  0
  -28.4353  -13.6966   21.8357 H   0  0  0  0  0  0
  -25.2742   -9.5687   22.4751 H   0  0  0  0  0  0
  -23.9987   -7.4635   22.7464 H   0  0  0  0  0  0
  -21.0823   -8.8766   19.8959 H   0  0  0  0  0  0
  -22.3671  -10.9661   19.6157 H   0  0  0  0  0  0
  -21.2021   -7.6147   23.9725 H   0  0  0  0  0  0
  -21.1465   -6.0515   25.9081 H   0  0  0  0  0  0
  -22.0598   -2.7606   23.2850 H   0  0  0  0  0  0
  -22.4095  -11.9958   22.4838 H   0  0  0  0  0  0
  -21.1085  -13.1291   22.2544 H   0  0  0  0  0  0
  -24.6764  -15.8483   20.5641 H   0  0  0  0  0  0
  -26.3147  -15.6347   20.1976 H   0  0  0  0  0  0
  -26.7150  -32.5478   23.1096 H   0  0  0  0  0  0
  -25.0072  -33.9718   25.0443 H   0  0  0  0  0  0
  -22.7030  -31.3039   21.4032 H   0  0  0  0  0  0
  -23.3730  -35.9674   23.3360 H   0  0  0  0  0  0
  -24.3580  -36.8857   22.2043 H   0  0  0  0  0  0
  -23.7295  -37.6545   23.6618 H   0  0  0  0  0  0
  -26.0712  -31.5690   20.5973 H   0  0  0  0  0  0
  -26.8331  -30.8603   21.9913 H   0  0  0  0  0  0
  -28.1116  -29.0349   21.1737 H   0  0  0  0  0  0
  -26.0282  -25.9653   18.9640 H   0  0  0  0  0  0
  -23.9844  -27.3083   18.9954 H   0  0  0  0  0  0
  -23.7343  -30.5894   19.3988 H   0  0  0  0  0  0
  -22.7477  -29.2391   19.8670 H   0  0  0  0  0  0
  -25.1312  -36.1958   25.0831 H   0  0  0  0  0  0
  -20.9974  -28.3264   24.1412 H   0  0  0  0  0  0
  -20.5676  -26.2292   23.3606 H   0  0  0  0  0  0
  -21.6640  -26.7456   22.1200 H   0  0  0  0  0  0
  -19.6908  -25.6321   21.1225 H   0  0  0  0  0  0
  -19.6686  -27.3222   20.6750 H   0  0  0  0  0  0
  -17.4194  -26.6681   21.4029 H   0  0  0  0  0  0
  -18.0333  -26.0087   22.9028 H   0  0  0  0  0  0
  -19.7937  -30.7274   24.2282 H   0  0  0  0  0  0
  -17.5013  -31.6269   24.5176 H   0  0  0  0  0  0
  -15.5350  -30.2995   23.7658 H   0  0  0  0  0  0
  -15.8671  -28.0845   22.7040 H   0  0  0  0  0  0
  -24.5987  -30.6981   25.7766 H   0  0  0  0  0  0
  -25.8176  -30.8825   27.0165 H   0  0  0  0  0  0
  -24.8973  -32.2797   26.4896 H   0  0  0  0  0  0
  -27.3991  -29.7215   25.4577 H   0  0  0  0  0  0
  -26.2879  -29.6778   24.1094 H   0  0  0  0  0  0
  -27.8761  -30.4243   23.9298 H   0  0  0  0  0  0
  -27.2705  -33.3580   26.2003 H   0  0  0  0  0  0
  -28.3875  -32.6853   25.0236 H   0  0  0  0  0  0
  -28.0775  -31.8421   26.5331 H   0  0  0  0  0  0
  -28.2660  -38.0053   24.7420 H   0  0  0  0  0  0
  -28.0997  -36.2580   24.6462 H   0  0  0  0  0  0
  -27.2264  -37.1663   25.8884 H   0  0  0  0  0  0
  -20.9328  -29.8749   21.6901 H   0  0  0  0  0  0
  -26.0199  -38.2866   24.1311 H   0  0  0  0  0  0
  -30.4995  -19.6737   19.3061 H   0  0  0  0  0  0
  -27.0004  -18.5913   21.5717 H   0  0  0  0  0  0
  -31.4856  -17.1692   23.3281 H   0  0  0  0  0  0
  -32.5667  -15.8689   22.8255 H   0  0  0  0  0  0
  -31.8628  -15.8572   24.4354 H   0  0  0  0  0  0
  -30.1816  -22.1776   19.8431 H   0  0  0  0  0  0
  -29.3767  -22.5548   21.3428 H   0  0  0  0  0  0
  -29.5559  -15.5591   23.4229 H   0  0  0  0  0  0
  -30.6232  -14.2303   23.0910 H   0  0  0  0  0  0
  -28.3438  -25.1226   21.5783 H   0  0  0  0  0  0
  -27.2464  -24.7792   20.2906 H   0  0  0  0  0  0
  -29.2255  -24.2627   18.7710 H   0  0  0  0  0  0
  -26.9309  -20.2529   19.7618 H   0  0  0  0  0  0
  1 25  1  0  0  0
  1 30  2  0  0  0
  1 84  1  0  0  0
  2  3  1  0  0  0
  2 25  1  0  0  0
  2 88  1  0  0  0
  2 89  1  0  0  0
  3  4  1  0  0  0
  3 90  1  0  0  0
  3 91  1  0  0  0
  4  5  1  0  0  0
  4 92  1  0  0  0
  4 93  1  0  0  0
  5  6  1  0  0  0
  5 26  1  0  0  0
  5 94  1  0  0  0
  6 25  1  0  0  0
  6 95  1  0  0  0
  6 96  1  0  0  0
  7  8  2  0  0  0
  7 26  1  0  0  0
  7 29  1  0  0  0
  8  9  1  0  0  0
  8 22  1  0  0  0
  9 10  1  0  0  0
  9 27  2  0  0  0
 10 11  2  0  0  0
 10 15  1  0  0  0
 11 12  1  0  0  0
 11 97  1  0  0  0
 12 13  2  0  0  0
 12 98  1  0  0  0
 13 14  1  0  0  0
 13 31  1  0  0  0
 14 15  2  0  0  0
 14 99  1  0  0  0
 15100  1  0  0  0
 16 17  2  0  0  0
 16 21  1  0  0  0
 16 31  1  0  0  0
 17 18  1  0  0  0
 17101  1  0  0  0
 18 19  2  0  0  0
 18102  1  0  0  0
 19 20  1  0  0  0
 19 24  1  0  0  0
 20 21  2  0  0  0
 20103  1  0  0  0
 21 23  1  0  0  0
 22 28  1  0  0  0
 22 32  2  0  0  0
 26 27  1  0  0  0
 28104  1  0  0  0
 28105  1  0  0  0
 29106  1  0  0  0
 29107  1  0  0  0
 33 34  1  0  0  0
 33 66  1  0  0  0
 33 70  2  0  0  0
 34 36  1  0  0  0
 34 59  1  0  0  0
 34108  1  0  0  0
 35 44  2  0  0  0
 35 45  1  0  0  0
 35 68  1  0  0  0
 36 56  1  0  0  0
 36109  1  0  0  0
 37 39  1  0  0  0
 37 47  1  0  0  0
 37 66  1  0  0  0
 37110  1  0  0  0
 38 43  2  0  0  0
 38 46  1  0  0  0
 38 47  1  0  0  0
 39 64  1  0  0  0
 39 67  2  0  0  0
 40 52  1  0  0  0
 40 53  2  0  0  0
 40 58  1  0  0  0
 41111  1  0  0  0
 41112  1  0  0  0
 41113  1  0  0  0
 41 48  1  0  0  0
 42 43  1  0  0  0
 42 66  1  0  0  0
 42114  1  0  0  0
 42115  1  0  0  0
 43 44  1  0  0  0
 44116  1  0  0  0
 45 46  2  0  0  0
 45117  1  0  0  0
 46118  1  0  0  0
 47119  1  0  0  0
 47120  1  0  0  0
 48 56  1  0  0  0
 48 65  1  0  0  0
 48121  1  0  0  0
 49 50  1  0  0  0
 49 53  1  0  0  0
 49 64  1  0  0  0
 49122  1  0  0  0
 50 51  1  0  0  0
 50123  1  0  0  0
 50124  1  0  0  0
 51 52  1  0  0  0
 51125  1  0  0  0
 51126  1  0  0  0
 52127  1  0  0  0
 52128  1  0  0  0
 53 54  1  0  0  0
 54 55  2  0  0  0
 54129  1  0  0  0
 55 57  1  0  0  0
 55130  1  0  0  0
 56 69  2  0  0  0
 57 58  2  0  0  0
 57131  1  0  0  0
 58132  1  0  0  0
 59 60  1  0  0  0
 59 61  1  0  0  0
 59 62  1  0  0  0
 60133  1  0  0  0
 60134  1  0  0  0
 60135  1  0  0  0
 61136  1  0  0  0
 61137  1  0  0  0
 61138  1  0  0  0
 62139  1  0  0  0
 62140  1  0  0  0
 62141  1  0  0  0
 63 65  1  0  0  0
 63142  1  0  0  0
 63143  1  0  0  0
 63144  1  0  0  0
 64145  1  0  0  0
 65146  1  0  0  0
 68 80  1  0  0  0
 71 73  2  0  0  0
 71 74  1  0  0  0
 71147  1  0  0  0
 72 73  1  0  0  0
 72 82  2  0  0  0
 72148  1  0  0  0
 73 83  1  0  0  0
 74 75  2  0  0  0
 74 86  1  0  0  0
 75 82  1  0  0  0
 75 84  1  0  0  0
 76 78  1  0  0  0
 76 83  1  0  0  0
 76 85  2  0  0  0
 77 79  1  0  0  0
 77149  1  0  0  0
 77150  1  0  0  0
 77151  1  0  0  0
 78 81  1  0  0  0
 78152  1  0  0  0
 78153  1  0  0  0
 79 84  1  0  0  0
 79154  1  0  0  0
 79155  1  0  0  0
 80 81  1  0  0  0
 80156  1  0  0  0
 80157  1  0  0  0
 81 87  1  0  0  0
 81158  1  0  0  0
 83159  1  0  0  0
M  ISO  4   1 100  68 101  80 101  84 100
M  END
> <chiral flag>
0

> <version>
0

> <s_m_source_file>
/data/baiqing/PycharmProjects/Reinvent-master-3.2/result/LINK_invent/BTK/process_docking_weight1_custom_product_contain_oxygen_bond_distance_aromatic_linkinvent_7_9_3/rearranged_h_0188.sdf

> <i_m_source_file_index>
26

> <r_mmod_Potential_Energy-OPLS-2005>
70.2304534912109

> <r_mmod_Stretch_Energy-OPLS-2005>
60.9129371643066

> <r_mmod_Bend_Energy-OPLS-2005>
154.822509765625

> <r_mmod_Torsional_Energy-OPLS-2005>
332.208251953125

> <r_mmod_Improper_Torsional_Energy-OPLS-2005>
4.10912275314331

> <r_mmod_Van_der_Waal_Energy-OPLS-2005>
139.852493286133

> <r_mmod_Electrostatic_Energy-OPLS-2005>
-437.764282226562

> <r_mmod_Solvation_Energy-OPLS-2005>
-208.304229736328

> <b_mmod_Minimization_Converged-OPLS-2005>
0

> <r_mmod_RMS_Derivative-OPLS-2005>
2.2280638217926

$$$$
27
                    3D
 Structure written by MMmdl.
165173  0  0  1  0            999 V2000
  -30.5900  -14.7875   20.4839 C   0  0  0  0  0  0
  -30.4414  -12.4923   19.4609 C   0  0  0  0  0  0
  -29.5033  -12.5038   18.2316 C   0  0  0  0  0  0
  -28.0383  -12.2997   18.6633 C   0  0  0  0  0  0
  -27.6389  -13.2201   19.8454 C   0  0  2  0  0  0
  -28.6881  -13.1828   20.9771 C   0  0  0  0  0  0
  -25.2507  -13.8169   20.5647 C   0  0  0  0  0  0
  -24.1807  -13.0415   20.9199 C   0  0  0  0  0  0
  -24.6398  -11.6897   20.8768 C   0  0  0  0  0  0
  -23.9081  -10.4284   21.0417 C   0  0  0  0  0  0
  -24.3629   -9.4203   21.9194 C   0  0  0  0  0  0
  -23.6297   -8.2242   22.0775 C   0  0  0  0  0  0
  -22.4281   -8.0280   21.3561 C   0  0  0  0  0  0
  -21.9921   -9.0256   20.4661 C   0  0  0  0  0  0
  -22.7254  -10.2129   20.3070 C   0  0  0  0  0  0
  -21.6855   -6.0735   22.5278 C   0  0  0  0  0  0
  -21.4018   -6.5641   23.8208 C   0  0  0  0  0  0
  -21.3654   -5.6798   24.9171 C   0  0  0  0  0  0
  -21.6052   -4.3062   24.7226 C   0  0  0  0  0  0
  -21.8818   -3.8145   23.4348 C   0  0  0  0  0  0
  -21.9190   -4.6963   22.3400 C   0  0  0  0  0  0
  -22.7844  -13.5215   21.1832 C   0  0  0  0  0  0
  -22.1659   -4.2150   21.0982 F   0  0  0  0  0  0
  -21.5624   -3.4545   25.7740 F   0  0  0  0  0  0
  -29.9766  -13.5565   20.3811 N   0  0  0  0  0  0
  -26.2941  -12.9352   20.3296 N   0  0  0  0  0  0
  -25.9336  -11.6512   20.5810 N   0  0  0  0  0  0
  -22.0502  -12.8224   22.0412 N   0  0  0  0  0  0
  -25.4118  -15.1883   20.3954 N   0  0  0  0  0  0
  -31.7995  -14.8856   20.2534 O   0  0  0  0  0  0
  -21.6640   -6.8877   21.4246 O   0  0  0  0  0  0
  -22.3541  -14.5511   20.6654 O   0  0  0  0  0  0
  -24.6335  -31.8542   23.1992 C   0  0  0  0  0  0
  -25.9148  -32.4757   23.8334 C   0  0  1  0  0  0
  -27.2128  -27.2298   20.1537 C   0  0  0  0  0  0
  -25.5951  -33.8546   24.2236 N   0  0  0  0  0  0
  -23.4328  -30.4778   21.5418 C   0  0  2  0  0  0
  -24.8817  -28.9212   20.1133 C   0  0  0  0  0  0
  -22.7524  -29.4584   22.4886 C   0  0  0  0  0  0
  -18.0318  -28.1391   22.8462 C   0  0  0  0  0  0
  -24.1489  -36.7246   23.2648 C   0  0  0  0  0  0
  -25.9816  -30.7569   21.3850 C   0  0  0  0  0  0
  -26.0539  -29.3764   20.7280 C   0  0  0  0  0  0
  -27.2252  -28.5456   20.7311 C   0  0  0  0  0  0
  -26.0205  -26.8504   19.4981 C   0  0  0  0  0  0
  -24.8709  -27.6681   19.4848 C   0  0  0  0  0  0
  -23.6595  -29.8203   20.1549 C   0  0  0  0  0  0
  -25.4107  -36.3035   24.0324 C   0  0  1  0  0  0
  -20.5916  -28.3703   23.1260 C   0  0  2  0  0  0
  -20.6829  -26.9412   22.5403 C   0  0  0  0  0  0
  -19.5809  -26.6378   21.5200 C   0  0  0  0  0  0
  -18.1979  -26.7932   22.1595 C   0  0  0  0  0  0
  -19.1572  -28.8859   23.2855 C   0  0  0  0  0  0
  -18.9504  -30.1456   23.8884 C   0  0  0  0  0  0
  -17.6513  -30.6611   24.0543 C   0  0  0  0  0  0
  -25.9072  -34.9426   23.5081 C   0  0  0  0  0  0
  -16.5391  -29.9111   23.6316 C   0  0  0  0  0  0
  -16.7302  -28.6521   23.0339 C   0  0  0  0  0  0
  -26.4517  -31.6618   25.0741 C   0  0  0  0  0  0
  -25.3723  -31.3783   26.1448 C   0  0  0  0  0  0
  -27.0410  -30.3058   24.6239 C   0  0  0  0  0  0
  -27.6075  -32.4378   25.7497 C   0  0  0  0  0  0
  -27.5555  -37.1752   24.8468 C   0  0  0  0  0  0
  -21.4235  -29.3038   22.3630 N   0  0  0  0  0  0
  -26.4261  -37.3743   23.9445 N   0  0  0  0  0  0
  -24.7012  -31.0492   22.0978 N   0  0  0  0  0  0
  -23.4204  -28.8097   23.2960 O   0  0  0  0  0  0
  -28.3035  -26.3208   20.2074 O   0  0  0  0  0  0
  -26.5646  -34.8895   22.4645 O   0  0  0  0  0  0
  -23.5482  -32.1383   23.7283 O   0  0  0  0  0  0
  -30.0016  -19.3979   22.4423 C   0  0  0  0  0  0
  -29.7068  -19.7012   21.1138 C   0  0  0  0  0  0
  -29.9591  -17.3056   20.9890 C   0  0  0  0  0  0
  -28.8240  -22.1784   20.7519 C   0  0  0  0  0  0
  -31.8117  -23.7901   20.9593 C   0  0  0  0  0  0
  -28.9358  -21.1107   24.0709 C   0  0  0  0  0  0
  -31.4593  -21.0938   23.6848 C   0  0  0  0  0  0
  -29.6619  -23.7076   18.8662 C   0  0  0  0  0  0
  -30.3637  -24.1975   21.2959 C   0  0  0  0  0  0
  -28.0495  -24.8454   20.4697 C   0  0  0  0  0  0
  -30.1640  -20.2684   23.6740 C   0  0  0  0  0  0
  -29.2247  -23.7084   20.3490 C   0  0  2  0  0  0
  -29.6629  -18.4794   20.3238 N   0  0  0  0  0  0
  -29.6973  -21.1047   20.5975 N   0  0  0  0  0  0
  -29.7671  -15.9125   20.5016 N   0  0  0  0  0  0
  -27.6839  -21.9840   21.1780 O   0  0  0  0  0  0
  -30.3074  -17.6631   22.6735 S   0  0  0  0  0  0
  -31.4737  -12.6482   19.1448 H   0  0  0  0  0  0
  -30.4206  -11.5188   19.9563 H   0  0  0  0  0  0
  -29.7915  -11.7238   17.5257 H   0  0  0  0  0  0
  -29.6044  -13.4493   17.6963 H   0  0  0  0  0  0
  -27.9211  -11.2547   18.9549 H   0  0  0  0  0  0
  -27.3653  -12.4504   17.8196 H   0  0  0  0  0  0
  -27.6223  -14.2317   19.4419 H   0  0  0  0  0  0
  -28.7453  -12.1927   21.4316 H   0  0  0  0  0  0
  -28.4162  -13.8720   21.7788 H   0  0  0  0  0  0
  -25.2771   -9.5670   22.4773 H   0  0  0  0  0  0
  -23.9988   -7.4645   22.7514 H   0  0  0  0  0  0
  -21.0847   -8.8787   19.8976 H   0  0  0  0  0  0
  -22.3717  -10.9676   19.6181 H   0  0  0  0  0  0
  -21.2024   -7.6146   23.9708 H   0  0  0  0  0  0
  -21.1474   -6.0530   25.9068 H   0  0  0  0  0  0
  -22.0600   -2.7609   23.2851 H   0  0  0  0  0  0
  -22.4129  -11.9887   22.4776 H   0  0  0  0  0  0
  -21.1149  -13.1289   22.2645 H   0  0  0  0  0  0
  -24.6143  -15.8142   20.4505 H   0  0  0  0  0  0
  -26.2349  -15.6364   20.0145 H   0  0  0  0  0  0
  -26.7196  -32.5411   23.1058 H   0  0  0  0  0  0
  -25.0095  -33.9697   25.0376 H   0  0  0  0  0  0
  -22.7287  -31.3017   21.3987 H   0  0  0  0  0  0
  -23.3773  -35.9561   23.3315 H   0  0  0  0  0  0
  -24.3578  -36.8870   22.2062 H   0  0  0  0  0  0
  -23.7233  -37.6436   23.6694 H   0  0  0  0  0  0
  -26.1281  -31.5182   20.6174 H   0  0  0  0  0  0
  -26.8546  -30.8095   22.0238 H   0  0  0  0  0  0
  -28.1244  -28.8920   21.2206 H   0  0  0  0  0  0
  -25.9483  -25.9027   18.9867 H   0  0  0  0  0  0
  -23.9730  -27.3285   18.9842 H   0  0  0  0  0  0
  -23.8033  -30.6096   19.4151 H   0  0  0  0  0  0
  -22.7751  -29.2732   19.8266 H   0  0  0  0  0  0
  -25.1286  -36.1871   25.0823 H   0  0  0  0  0  0
  -20.9976  -28.3329   24.1398 H   0  0  0  0  0  0
  -20.5796  -26.2299   23.3600 H   0  0  0  0  0  0
  -21.6693  -26.7495   22.1150 H   0  0  0  0  0  0
  -19.6968  -25.6286   21.1281 H   0  0  0  0  0  0
  -19.6782  -27.3146   20.6694 H   0  0  0  0  0  0
  -17.4231  -26.6659   21.4014 H   0  0  0  0  0  0
  -18.0406  -26.0068   22.8994 H   0  0  0  0  0  0
  -19.7994  -30.7265   24.2258 H   0  0  0  0  0  0
  -17.5087  -31.6294   24.5151 H   0  0  0  0  0  0
  -15.5403  -30.3028   23.7676 H   0  0  0  0  0  0
  -15.8678  -28.0866   22.7050 H   0  0  0  0  0  0
  -24.5880  -30.7153   25.7756 H   0  0  0  0  0  0
  -24.8910  -32.2957   26.4847 H   0  0  0  0  0  0
  -25.7967  -30.8953   27.0250 H   0  0  0  0  0  0
  -26.3012  -29.6779   24.1261 H   0  0  0  0  0  0
  -27.4159  -29.7347   25.4755 H   0  0  0  0  0  0
  -27.8855  -30.4417   23.9468 H   0  0  0  0  0  0
  -27.2709  -33.3723   26.2006 H   0  0  0  0  0  0
  -28.3886  -32.6878   25.0299 H   0  0  0  0  0  0
  -28.0750  -31.8560   26.5454 H   0  0  0  0  0  0
  -28.2527  -38.0082   24.7529 H   0  0  0  0  0  0
  -28.1077  -36.2612   24.6269 H   0  0  0  0  0  0
  -27.2285  -37.1356   25.8867 H   0  0  0  0  0  0
  -20.9456  -29.8737   21.6802 H   0  0  0  0  0  0
  -26.0138  -38.2799   24.1516 H   0  0  0  0  0  0
  -32.4677  -23.9607   21.8155 H   0  0  0  0  0  0
  -32.2010  -24.3869   20.1338 H   0  0  0  0  0  0
  -31.9070  -22.7419   20.6827 H   0  0  0  0  0  0
  -28.0073  -20.5382   24.0134 H   0  0  0  0  0  0
  -28.8244  -22.0019   23.4591 H   0  0  0  0  0  0
  -29.0317  -21.4660   25.0992 H   0  0  0  0  0  0
  -32.3437  -20.4564   23.6474 H   0  0  0  0  0  0
  -31.5390  -21.6919   24.5929 H   0  0  0  0  0  0
  -31.5088  -21.7736   22.8377 H   0  0  0  0  0  0
  -30.5657  -23.1256   18.6934 H   0  0  0  0  0  0
  -29.8466  -24.7233   18.5160 H   0  0  0  0  0  0
  -28.8903  -23.2869   18.2220 H   0  0  0  0  0  0
  -30.3535  -25.2864   21.3452 H   0  0  0  0  0  0
  -30.1348  -23.8783   22.3143 H   0  0  0  0  0  0
  -27.6562  -24.7999   21.4866 H   0  0  0  0  0  0
  -27.2320  -24.4901   19.8471 H   0  0  0  0  0  0
  -30.2736  -19.5790   24.5159 H   0  0  0  0  0  0
  -30.5537  -21.3643   20.1293 H   0  0  0  0  0  0
  -28.8010  -15.6803   20.3416 H   0  0  0  0  0  0
  1 25  1  0  0  0
  1 30  2  0  0  0
  1 85  1  0  0  0
  2  3  1  0  0  0
  2 25  1  0  0  0
  2 88  1  0  0  0
  2 89  1  0  0  0
  3  4  1  0  0  0
  3 90  1  0  0  0
  3 91  1  0  0  0
  4  5  1  0  0  0
  4 92  1  0  0  0
  4 93  1  0  0  0
  5  6  1  0  0  0
  5 26  1  0  0  0
  5 94  1  0  0  0
  6 25  1  0  0  0
  6 95  1  0  0  0
  6 96  1  0  0  0
  7  8  2  0  0  0
  7 26  1  0  0  0
  7 29  1  0  0  0
  8  9  1  0  0  0
  8 22  1  0  0  0
  9 10  1  0  0  0
  9 27  2  0  0  0
 10 11  2  0  0  0
 10 15  1  0  0  0
 11 12  1  0  0  0
 11 97  1  0  0  0
 12 13  2  0  0  0
 12 98  1  0  0  0
 13 14  1  0  0  0
 13 31  1  0  0  0
 14 15  2  0  0  0
 14 99  1  0  0  0
 15100  1  0  0  0
 16 17  2  0  0  0
 16 21  1  0  0  0
 16 31  1  0  0  0
 17 18  1  0  0  0
 17101  1  0  0  0
 18 19  2  0  0  0
 18102  1  0  0  0
 19 20  1  0  0  0
 19 24  1  0  0  0
 20 21  2  0  0  0
 20103  1  0  0  0
 21 23  1  0  0  0
 22 28  1  0  0  0
 22 32  2  0  0  0
 26 27  1  0  0  0
 28104  1  0  0  0
 28105  1  0  0  0
 29106  1  0  0  0
 29107  1  0  0  0
 33 34  1  0  0  0
 33 66  1  0  0  0
 33 70  2  0  0  0
 34 36  1  0  0  0
 34 59  1  0  0  0
 34108  1  0  0  0
 35 44  2  0  0  0
 35 45  1  0  0  0
 35 68  1  0  0  0
 36 56  1  0  0  0
 36109  1  0  0  0
 37 39  1  0  0  0
 37 47  1  0  0  0
 37 66  1  0  0  0
 37110  1  0  0  0
 38 43  2  0  0  0
 38 46  1  0  0  0
 38 47  1  0  0  0
 39 64  1  0  0  0
 39 67  2  0  0  0
 40 52  1  0  0  0
 40 53  2  0  0  0
 40 58  1  0  0  0
 41111  1  0  0  0
 41112  1  0  0  0
 41113  1  0  0  0
 41 48  1  0  0  0
 42 43  1  0  0  0
 42 66  1  0  0  0
 42114  1  0  0  0
 42115  1  0  0  0
 43 44  1  0  0  0
 44116  1  0  0  0
 45 46  2  0  0  0
 45117  1  0  0  0
 46118  1  0  0  0
 47119  1  0  0  0
 47120  1  0  0  0
 48 56  1  0  0  0
 48 65  1  0  0  0
 48121  1  0  0  0
 49 50  1  0  0  0
 49 53  1  0  0  0
 49 64  1  0  0  0
 49122  1  0  0  0
 50 51  1  0  0  0
 50123  1  0  0  0
 50124  1  0  0  0
 51 52  1  0  0  0
 51125  1  0  0  0
 51126  1  0  0  0
 52127  1  0  0  0
 52128  1  0  0  0
 53 54  1  0  0  0
 54 55  2  0  0  0
 54129  1  0  0  0
 55 57  1  0  0  0
 55130  1  0  0  0
 56 69  2  0  0  0
 57 58  2  0  0  0
 57131  1  0  0  0
 58132  1  0  0  0
 59 60  1  0  0  0
 59 61  1  0  0  0
 59 62  1  0  0  0
 60133  1  0  0  0
 60134  1  0  0  0
 60135  1  0  0  0
 61136  1  0  0  0
 61137  1  0  0  0
 61138  1  0  0  0
 62139  1  0  0  0
 62140  1  0  0  0
 62141  1  0  0  0
 63 65  1  0  0  0
 63142  1  0  0  0
 63143  1  0  0  0
 63144  1  0  0  0
 64145  1  0  0  0
 65146  1  0  0  0
 68 80  1  0  0  0
 71 72  2  0  0  0
 71 81  1  0  0  0
 71 87  1  0  0  0
 72 83  1  0  0  0
 72 84  1  0  0  0
 73 83  2  0  0  0
 73 85  1  0  0  0
 73 87  1  0  0  0
 74 84  1  0  0  0
 74 86  2  0  0  0
 74 82  1  0  0  0
 75 79  1  0  0  0
 75147  1  0  0  0
 75148  1  0  0  0
 75149  1  0  0  0
 76150  1  0  0  0
 76151  1  0  0  0
 76152  1  0  0  0
 76 81  1  0  0  0
 77 81  1  0  0  0
 77153  1  0  0  0
 77154  1  0  0  0
 77155  1  0  0  0
 78156  1  0  0  0
 78157  1  0  0  0
 78158  1  0  0  0
 78 82  1  0  0  0
 79 82  1  0  0  0
 79159  1  0  0  0
 79160  1  0  0  0
 80 82  1  0  0  0
 80161  1  0  0  0
 80162  1  0  0  0
 81163  1  0  0  0
 84164  1  0  0  0
 85165  1  0  0  0
M  ISO  4   1 100  68 101  80 101  85 100
M  END
> <chiral flag>
0

> <version>
0

> <s_m_source_file>
/data/baiqing/PycharmProjects/Reinvent-master-3.2/result/LINK_invent/BTK/process_docking_weight1_custom_product_contain_oxygen_bond_distance_aromatic_linkinvent_7_9_3/rearranged_h_0188.sdf

> <i_m_source_file_index>
27

> <r_mmod_Potential_Energy-OPLS-2005>
208.482208251953

> <r_mmod_Stretch_Energy-OPLS-2005>
144.24723815918

> <r_mmod_Bend_Energy-OPLS-2005>
188.592803955078

> <r_mmod_Torsional_Energy-OPLS-2005>
297.678527832031

> <r_mmod_Improper_Torsional_Energy-OPLS-2005>
12.6366024017334

> <r_mmod_Van_der_Waal_Energy-OPLS-2005>
107.26554107666

> <r_mmod_Electrostatic_Energy-OPLS-2005>
-427.451812744141

> <r_mmod_Solvation_Energy-OPLS-2005>
-223.332717895508

> <b_mmod_Minimization_Converged-OPLS-2005>
0

> <r_mmod_RMS_Derivative-OPLS-2005>
3.97359943389893

$$$$
28
                    3D
 Structure written by MMmdl.
162170  0  0  1  0            999 V2000
  -30.6942  -14.5426   20.5813 C   0  0  0  0  0  0
  -30.4238  -12.3566   19.4381 C   0  0  0  0  0  0
  -29.4987  -12.5184   18.2150 C   0  0  0  0  0  0
  -28.0215  -12.3606   18.6257 C   0  0  0  0  0  0
  -27.6545  -13.2138   19.8683 C   0  0  2  0  0  0
  -28.6955  -13.0425   20.9965 C   0  0  0  0  0  0
  -25.2553  -13.8164   20.5677 C   0  0  0  0  0  0
  -24.1823  -13.0427   20.9177 C   0  0  0  0  0  0
  -24.6396  -11.6901   20.8726 C   0  0  0  0  0  0
  -23.9069  -10.4279   21.0392 C   0  0  0  0  0  0
  -24.3614   -9.4200   21.9183 C   0  0  0  0  0  0
  -23.6289   -8.2241   22.0753 C   0  0  0  0  0  0
  -22.4276   -8.0272   21.3541 C   0  0  0  0  0  0
  -21.9917   -9.0243   20.4638 C   0  0  0  0  0  0
  -22.7245  -10.2122   20.3042 C   0  0  0  0  0  0
  -21.6854   -6.0727   22.5276 C   0  0  0  0  0  0
  -21.4017   -6.5630   23.8210 C   0  0  0  0  0  0
  -21.3659   -5.6785   24.9174 C   0  0  0  0  0  0
  -21.6041   -4.3049   24.7227 C   0  0  0  0  0  0
  -21.8820   -3.8144   23.4349 C   0  0  0  0  0  0
  -21.9194   -4.6956   22.3401 C   0  0  0  0  0  0
  -22.7845  -13.5216   21.1849 C   0  0  0  0  0  0
  -22.1664   -4.2142   21.0977 F   0  0  0  0  0  0
  -21.5631   -3.4539   25.7739 F   0  0  0  0  0  0
  -30.0216  -13.3605   20.4399 N   0  0  0  0  0  0
  -26.2985  -12.9352   20.3335 N   0  0  0  0  0  0
  -25.9326  -11.6497   20.5755 N   0  0  0  0  0  0
  -22.0477  -12.8181   22.0380 N   0  0  0  0  0  0
  -25.4254  -15.1891   20.4085 N   0  0  0  0  0  0
  -31.8145  -14.7166   20.0913 O   0  0  0  0  0  0
  -21.6644   -6.8869   21.4237 O   0  0  0  0  0  0
  -22.3531  -14.5533   20.6715 O   0  0  0  0  0  0
  -24.6223  -31.8653   23.2071 C   0  0  0  0  0  0
  -25.9100  -32.4808   23.8376 C   0  0  1  0  0  0
  -27.2307  -27.3811   20.0930 C   0  0  0  0  0  0
  -25.5925  -33.8604   24.2307 N   0  0  0  0  0  0
  -23.4108  -30.4898   21.5496 C   0  0  2  0  0  0
  -24.8549  -28.9504   20.1146 C   0  0  0  0  0  0
  -22.7446  -29.4654   22.4979 C   0  0  0  0  0  0
  -18.0278  -28.1393   22.8483 C   0  0  0  0  0  0
  -24.1473  -36.7279   23.2607 C   0  0  0  0  0  0
  -25.9470  -30.8121   21.3696 C   0  0  0  0  0  0
  -26.0202  -29.4442   20.7113 C   0  0  0  0  0  0
  -27.2095  -28.6688   20.6959 C   0  0  0  0  0  0
  -26.0402  -26.9212   19.4822 C   0  0  0  0  0  0
  -24.8625  -27.6897   19.4982 C   0  0  0  0  0  0
  -23.6207  -29.8237   20.1652 C   0  0  0  0  0  0
  -25.4082  -36.3100   24.0340 C   0  0  1  0  0  0
  -20.5876  -28.3686   23.1302 C   0  0  2  0  0  0
  -20.6778  -26.9420   22.5411 C   0  0  0  0  0  0
  -19.5755  -26.6402   21.5205 C   0  0  0  0  0  0
  -18.1922  -26.7945   22.1596 C   0  0  0  0  0  0
  -19.1532  -28.8854   23.2886 C   0  0  0  0  0  0
  -18.9462  -30.1446   23.8925 C   0  0  0  0  0  0
  -17.6470  -30.6597   24.0581 C   0  0  0  0  0  0
  -25.9064  -34.9477   23.5134 C   0  0  0  0  0  0
  -16.5356  -29.9107   23.6338 C   0  0  0  0  0  0
  -16.7271  -28.6515   23.0367 C   0  0  0  0  0  0
  -26.4491  -31.6600   25.0730 C   0  0  0  0  0  0
  -25.3727  -31.3724   26.1460 C   0  0  0  0  0  0
  -27.0318  -30.3038   24.6137 C   0  0  0  0  0  0
  -27.6082  -32.4306   25.7486 C   0  0  0  0  0  0
  -27.5656  -37.1686   24.8367 C   0  0  0  0  0  0
  -21.4172  -29.3045   22.3706 N   0  0  0  0  0  0
  -26.4215  -37.3856   23.9557 N   0  0  0  0  0  0
  -24.6787  -31.0707   22.0998 N   0  0  0  0  0  0
  -23.4191  -28.8198   23.3046 O   0  0  0  0  0  0
  -28.3857  -26.6039   20.1270 O   0  0  0  0  0  0
  -26.5631  -34.8940   22.4706 O   0  0  0  0  0  0
  -23.5407  -32.1432   23.7442 O   0  0  0  0  0  0
  -31.8080  -19.2310   19.8324 C   0  0  0  0  0  0
  -29.2318  -19.2390   20.5498 C   0  0  0  0  0  0
  -29.9599  -18.0206   20.4168 C   0  0  0  0  0  0
  -29.9201  -20.4492   20.2740 C   0  0  0  0  0  0
  -29.6405  -24.3034   21.7595 C   0  0  0  0  0  0
  -29.2771  -22.8022   18.1224 C   0  0  0  0  0  0
  -30.5426  -15.8838   22.5942 C   0  0  0  0  0  0
  -29.3036  -16.6264   20.5694 C   0  0  0  0  0  0
  -28.2904  -25.1916   19.7760 C   0  0  0  0  0  0
  -29.5242  -24.3335   20.2265 C   0  0  2  0  0  0
  -29.7516  -22.8960   19.5835 C   0  0  1  0  0  0
  -31.2552  -18.0396   20.0499 N   0  0  0  0  0  0
  -31.2170  -20.4215   19.9193 N   0  0  0  0  0  0
  -29.2843  -21.7193   20.3626 N   0  0  0  0  0  0
  -30.0586  -15.5385   21.2566 N   0  0  0  0  0  0
  -27.9227  -19.2482   20.9044 F   0  0  0  0  0  0
  -31.4688  -12.4602   19.1400 H   0  0  0  0  0  0
  -30.3334  -11.3537   19.8574 H   0  0  0  0  0  0
  -29.7535  -11.7852   17.4489 H   0  0  0  0  0  0
  -29.6519  -13.5009   17.7632 H   0  0  0  0  0  0
  -27.8476  -11.3050   18.8360 H   0  0  0  0  0  0
  -27.3696  -12.6146   17.7888 H   0  0  0  0  0  0
  -27.6811  -14.2545   19.5462 H   0  0  0  0  0  0
  -28.6875  -12.0200   21.3754 H   0  0  0  0  0  0
  -28.4391  -13.6729   21.8487 H   0  0  0  0  0  0
  -25.2752   -9.5686   22.4768 H   0  0  0  0  0  0
  -23.9999   -7.4632   22.7475 H   0  0  0  0  0  0
  -21.0855   -8.8750   19.8931 H   0  0  0  0  0  0
  -22.3703  -10.9657   19.6146 H   0  0  0  0  0  0
  -21.2010   -7.6135   23.9708 H   0  0  0  0  0  0
  -21.1484   -6.0521   25.9073 H   0  0  0  0  0  0
  -22.0604   -2.7608   23.2857 H   0  0  0  0  0  0
  -22.4083  -11.9822   22.4730 H   0  0  0  0  0  0
  -21.1081  -13.1178   22.2557 H   0  0  0  0  0  0
  -24.6532  -15.8390   20.5067 H   0  0  0  0  0  0
  -26.2678  -15.6283   20.0636 H   0  0  0  0  0  0
  -26.7167  -32.5497   23.1125 H   0  0  0  0  0  0
  -25.0074  -33.9753   25.0454 H   0  0  0  0  0  0
  -22.7013  -31.3088   21.4086 H   0  0  0  0  0  0
  -23.3865  -35.9460   23.2979 H   0  0  0  0  0  0
  -24.3665  -36.9209   22.2091 H   0  0  0  0  0  0
  -23.6998  -37.6292   23.6805 H   0  0  0  0  0  0
  -26.0713  -31.5776   20.6027 H   0  0  0  0  0  0
  -26.8314  -30.8607   21.9933 H   0  0  0  0  0  0
  -28.1070  -29.0454   21.1675 H   0  0  0  0  0  0
  -25.9918  -25.9611   18.9913 H   0  0  0  0  0  0
  -23.9653  -27.3038   19.0339 H   0  0  0  0  0  0
  -23.7350  -30.5998   19.4074 H   0  0  0  0  0  0
  -22.7421  -29.2488   19.8654 H   0  0  0  0  0  0
  -25.1202  -36.1909   25.0810 H   0  0  0  0  0  0
  -20.9951  -28.3270   24.1429 H   0  0  0  0  0  0
  -20.5691  -26.2298   23.3604 H   0  0  0  0  0  0
  -21.6652  -26.7478   22.1196 H   0  0  0  0  0  0
  -19.6932  -25.6318   21.1217 H   0  0  0  0  0  0
  -19.6707  -27.3235   20.6755 H   0  0  0  0  0  0
  -17.4204  -26.6718   21.3978 H   0  0  0  0  0  0
  -18.0305  -26.0067   22.8969 H   0  0  0  0  0  0
  -19.7941  -30.7241   24.2324 H   0  0  0  0  0  0
  -17.5030  -31.6285   24.5169 H   0  0  0  0  0  0
  -15.5359  -30.3022   23.7660 H   0  0  0  0  0  0
  -15.8659  -28.0842   22.7106 H   0  0  0  0  0  0
  -24.5932  -30.7035   25.7793 H   0  0  0  0  0  0
  -24.8864  -32.2867   26.4864 H   0  0  0  0  0  0
  -25.8049  -30.8925   27.0247 H   0  0  0  0  0  0
  -26.2870  -29.6782   24.1198 H   0  0  0  0  0  0
  -27.4097  -29.7299   25.4607 H   0  0  0  0  0  0
  -27.8697  -30.4353   23.9290 H   0  0  0  0  0  0
  -27.2786  -33.3693   26.1942 H   0  0  0  0  0  0
  -28.3950  -32.6706   25.0323 H   0  0  0  0  0  0
  -28.0644  -31.8465   26.5485 H   0  0  0  0  0  0
  -28.2268  -38.0357   24.8103 H   0  0  0  0  0  0
  -28.1549  -36.3018   24.5330 H   0  0  0  0  0  0
  -27.2521  -37.0265   25.8724 H   0  0  0  0  0  0
  -20.9365  -29.8736   21.6881 H   0  0  0  0  0  0
  -26.0075  -38.2828   24.1956 H   0  0  0  0  0  0
  -32.8468  -19.2329   19.5371 H   0  0  0  0  0  0
  -29.5927  -25.3109   22.1739 H   0  0  0  0  0  0
  -30.5855  -23.8627   22.0760 H   0  0  0  0  0  0
  -28.8344  -23.7259   22.2113 H   0  0  0  0  0  0
  -29.7175  -23.5934   17.5144 H   0  0  0  0  0  0
  -28.1927  -22.8826   18.0426 H   0  0  0  0  0  0
  -29.5658  -21.8542   17.6665 H   0  0  0  0  0  0
  -29.8691  -16.5796   23.0958 H   0  0  0  0  0  0
  -31.5296  -16.3454   22.5396 H   0  0  0  0  0  0
  -30.6163  -14.9936   23.2209 H   0  0  0  0  0  0
  -29.0326  -16.2947   19.5653 H   0  0  0  0  0  0
  -28.3573  -16.7498   21.0965 H   0  0  0  0  0  0
  -27.3953  -24.7418   20.2066 H   0  0  0  0  0  0
  -28.1853  -25.1504   18.6917 H   0  0  0  0  0  0
  -30.3754  -24.9191   19.8748 H   0  0  0  0  0  0
  -30.8379  -22.8103   19.5424 H   0  0  0  0  0  0
  -28.3003  -21.6682   20.5982 H   0  0  0  0  0  0
  1 25  1  0  0  0
  1 30  2  0  0  0
  1 85  1  0  0  0
  2  3  1  0  0  0
  2 25  1  0  0  0
  2 87  1  0  0  0
  2 88  1  0  0  0
  3  4  1  0  0  0
  3 89  1  0  0  0
  3 90  1  0  0  0
  4  5  1  0  0  0
  4 91  1  0  0  0
  4 92  1  0  0  0
  5  6  1  0  0  0
  5 26  1  0  0  0
  5 93  1  0  0  0
  6 25  1  0  0  0
  6 94  1  0  0  0
  6 95  1  0  0  0
  7  8  2  0  0  0
  7 26  1  0  0  0
  7 29  1  0  0  0
  8  9  1  0  0  0
  8 22  1  0  0  0
  9 10  1  0  0  0
  9 27  2  0  0  0
 10 11  2  0  0  0
 10 15  1  0  0  0
 11 12  1  0  0  0
 11 96  1  0  0  0
 12 13  2  0  0  0
 12 97  1  0  0  0
 13 14  1  0  0  0
 13 31  1  0  0  0
 14 15  2  0  0  0
 14 98  1  0  0  0
 15 99  1  0  0  0
 16 17  2  0  0  0
 16 21  1  0  0  0
 16 31  1  0  0  0
 17 18  1  0  0  0
 17100  1  0  0  0
 18 19  2  0  0  0
 18101  1  0  0  0
 19 20  1  0  0  0
 19 24  1  0  0  0
 20 21  2  0  0  0
 20102  1  0  0  0
 21 23  1  0  0  0
 22 28  1  0  0  0
 22 32  2  0  0  0
 26 27  1  0  0  0
 28103  1  0  0  0
 28104  1  0  0  0
 29105  1  0  0  0
 29106  1  0  0  0
 33 34  1  0  0  0
 33 66  1  0  0  0
 33 70  2  0  0  0
 34 36  1  0  0  0
 34 59  1  0  0  0
 34107  1  0  0  0
 35 44  2  0  0  0
 35 45  1  0  0  0
 35 68  1  0  0  0
 36 56  1  0  0  0
 36108  1  0  0  0
 37 39  1  0  0  0
 37 47  1  0  0  0
 37 66  1  0  0  0
 37109  1  0  0  0
 38 43  2  0  0  0
 38 46  1  0  0  0
 38 47  1  0  0  0
 39 64  1  0  0  0
 39 67  2  0  0  0
 40 52  1  0  0  0
 40 53  2  0  0  0
 40 58  1  0  0  0
 41110  1  0  0  0
 41111  1  0  0  0
 41112  1  0  0  0
 41 48  1  0  0  0
 42 43  1  0  0  0
 42 66  1  0  0  0
 42113  1  0  0  0
 42114  1  0  0  0
 43 44  1  0  0  0
 44115  1  0  0  0
 45 46  2  0  0  0
 45116  1  0  0  0
 46117  1  0  0  0
 47118  1  0  0  0
 47119  1  0  0  0
 48 56  1  0  0  0
 48 65  1  0  0  0
 48120  1  0  0  0
 49 50  1  0  0  0
 49 53  1  0  0  0
 49 64  1  0  0  0
 49121  1  0  0  0
 50 51  1  0  0  0
 50122  1  0  0  0
 50123  1  0  0  0
 51 52  1  0  0  0
 51124  1  0  0  0
 51125  1  0  0  0
 52126  1  0  0  0
 52127  1  0  0  0
 53 54  1  0  0  0
 54 55  2  0  0  0
 54128  1  0  0  0
 55 57  1  0  0  0
 55129  1  0  0  0
 56 69  2  0  0  0
 57 58  2  0  0  0
 57130  1  0  0  0
 58131  1  0  0  0
 59 60  1  0  0  0
 59 61  1  0  0  0
 59 62  1  0  0  0
 60132  1  0  0  0
 60133  1  0  0  0
 60134  1  0  0  0
 61135  1  0  0  0
 61136  1  0  0  0
 61137  1  0  0  0
 62138  1  0  0  0
 62139  1  0  0  0
 62140  1  0  0  0
 63 65  1  0  0  0
 63141  1  0  0  0
 63142  1  0  0  0
 63143  1  0  0  0
 64144  1  0  0  0
 65145  1  0  0  0
 68 79  1  0  0  0
 71 82  2  0  0  0
 71 83  1  0  0  0
 71146  1  0  0  0
 72 73  2  0  0  0
 72 74  1  0  0  0
 72 86  1  0  0  0
 73 78  1  0  0  0
 73 82  1  0  0  0
 74 83  2  0  0  0
 74 84  1  0  0  0
 75147  1  0  0  0
 75148  1  0  0  0
 75149  1  0  0  0
 75 80  1  0  0  0
 76150  1  0  0  0
 76151  1  0  0  0
 76152  1  0  0  0
 76 81  1  0  0  0
 77 85  1  0  0  0
 77153  1  0  0  0
 77154  1  0  0  0
 77155  1  0  0  0
 78 85  1  0  0  0
 78156  1  0  0  0
 78157  1  0  0  0
 79 80  1  0  0  0
 79158  1  0  0  0
 79159  1  0  0  0
 80 81  1  0  0  0
 80160  1  0  0  0
 81 84  1  0  0  0
 81161  1  0  0  0
 84162  1  0  0  0
M  ISO  4   1 100  68 101  79 101  85 100
M  END
> <chiral flag>
0

> <version>
0

> <s_m_source_file>
/data/baiqing/PycharmProjects/Reinvent-master-3.2/result/LINK_invent/BTK/process_docking_weight1_custom_product_contain_oxygen_bond_distance_aromatic_linkinvent_7_9_3/rearranged_h_0188.sdf

> <i_m_source_file_index>
28

> <r_mmod_Potential_Energy-OPLS-2005>
-300.335021972656

> <r_mmod_Stretch_Energy-OPLS-2005>
55.4862022399902

> <r_mmod_Bend_Energy-OPLS-2005>
129.116500854492

> <r_mmod_Torsional_Energy-OPLS-2005>
290.593658447266

> <r_mmod_Improper_Torsional_Energy-OPLS-2005>
5.46518754959106

> <r_mmod_Van_der_Waal_Energy-OPLS-2005>
157.688232421875

> <r_mmod_Electrostatic_Energy-OPLS-2005>
-749.695983886719

> <r_mmod_Solvation_Energy-OPLS-2005>
-212.537490844727

> <b_mmod_Minimization_Converged-OPLS-2005>
0

> <r_mmod_RMS_Derivative-OPLS-2005>
1.87740898132324

$$$$
29
                    3D
 Structure written by MMmdl.
153161  0  0  1  0            999 V2000
  -30.6261  -14.7212   20.4574 C   0  0  0  0  0  0
  -30.4236  -12.4395   19.4726 C   0  0  0  0  0  0
  -29.5049  -12.5019   18.2334 C   0  0  0  0  0  0
  -28.0304  -12.3334   18.6468 C   0  0  0  0  0  0
  -27.6388  -13.2329   19.8501 C   0  0  2  0  0  0
  -28.6828  -13.1670   20.9852 C   0  0  0  0  0  0
  -25.2486  -13.8193   20.5685 C   0  0  0  0  0  0
  -24.1787  -13.0438   20.9211 C   0  0  0  0  0  0
  -24.6388  -11.6919   20.8761 C   0  0  0  0  0  0
  -23.9068  -10.4292   21.0413 C   0  0  0  0  0  0
  -24.3620   -9.4208   21.9188 C   0  0  0  0  0  0
  -23.6298   -8.2243   22.0756 C   0  0  0  0  0  0
  -22.4279   -8.0281   21.3548 C   0  0  0  0  0  0
  -21.9914   -9.0252   20.4647 C   0  0  0  0  0  0
  -22.7242  -10.2132   20.3058 C   0  0  0  0  0  0
  -21.6853   -6.0738   22.5281 C   0  0  0  0  0  0
  -21.4010   -6.5639   23.8218 C   0  0  0  0  0  0
  -21.3660   -5.6795   24.9177 C   0  0  0  0  0  0
  -21.6044   -4.3057   24.7227 C   0  0  0  0  0  0
  -21.8819   -3.8148   23.4351 C   0  0  0  0  0  0
  -21.9191   -4.6966   22.3403 C   0  0  0  0  0  0
  -22.7810  -13.5220   21.1871 C   0  0  0  0  0  0
  -22.1661   -4.2152   21.0981 F   0  0  0  0  0  0
  -21.5630   -3.4541   25.7737 F   0  0  0  0  0  0
  -29.9834  -13.5070   20.3994 N   0  0  0  0  0  0
  -26.2920  -12.9409   20.3288 N   0  0  0  0  0  0
  -25.9317  -11.6548   20.5766 N   0  0  0  0  0  0
  -22.0460  -12.8206   22.0427 N   0  0  0  0  0  0
  -25.4154  -15.1908   20.4068 N   0  0  0  0  0  0
  -31.8191  -14.7954   20.1512 O   0  0  0  0  0  0
  -21.6641   -6.8879   21.4241 O   0  0  0  0  0  0
  -22.3489  -14.5525   20.6724 O   0  0  0  0  0  0
  -24.6294  -31.8541   23.1959 C   0  0  0  0  0  0
  -25.9120  -32.4745   23.8307 C   0  0  1  0  0  0
  -27.2263  -27.2720   20.1165 C   0  0  0  0  0  0
  -25.5926  -33.8549   24.2233 N   0  0  0  0  0  0
  -23.4252  -30.4754   21.5393 C   0  0  2  0  0  0
  -24.8711  -28.9186   20.1070 C   0  0  0  0  0  0
  -22.7485  -29.4593   22.4905 C   0  0  0  0  0  0
  -18.0286  -28.1387   22.8492 C   0  0  0  0  0  0
  -24.1488  -36.7269   23.2639 C   0  0  0  0  0  0
  -25.9684  -30.7711   21.3706 C   0  0  0  0  0  0
  -26.0400  -29.3943   20.7109 C   0  0  0  0  0  0
  -27.2156  -28.5821   20.7037 C   0  0  0  0  0  0
  -26.0242  -26.8431   19.5173 C   0  0  0  0  0  0
  -24.8668  -27.6504   19.5018 C   0  0  0  0  0  0
  -23.6414  -29.8051   20.1561 C   0  0  0  0  0  0
  -25.4116  -36.3056   24.0323 C   0  0  1  0  0  0
  -20.5889  -28.3691   23.1272 C   0  0  2  0  0  0
  -20.6771  -26.9410   22.5405 C   0  0  0  0  0  0
  -19.5749  -26.6383   21.5209 C   0  0  0  0  0  0
  -18.1930  -26.7929   22.1628 C   0  0  0  0  0  0
  -19.1542  -28.8858   23.2879 C   0  0  0  0  0  0
  -18.9470  -30.1463   23.8893 C   0  0  0  0  0  0
  -17.6469  -30.6591   24.0569 C   0  0  0  0  0  0
  -25.9059  -34.9433   23.5081 C   0  0  0  0  0  0
  -16.5359  -29.9091   23.6333 C   0  0  0  0  0  0
  -16.7273  -28.6509   23.0352 C   0  0  0  0  0  0
  -26.4497  -31.6578   25.0703 C   0  0  0  0  0  0
  -25.3715  -31.3732   26.1423 C   0  0  0  0  0  0
  -27.0336  -30.2994   24.6176 C   0  0  0  0  0  0
  -27.6055  -32.4314   25.7480 C   0  0  0  0  0  0
  -27.5573  -37.1783   24.8464 C   0  0  0  0  0  0
  -21.4191  -29.3042   22.3660 N   0  0  0  0  0  0
  -26.4278  -37.3765   23.9421 N   0  0  0  0  0  0
  -24.6937  -31.0513   22.0925 N   0  0  0  0  0  0
  -23.4192  -28.8135   23.2999 O   0  0  0  0  0  0
  -28.3658  -26.4441   20.2058 O   0  0  0  0  0  0
  -26.5634  -34.8918   22.4651 O   0  0  0  0  0  0
  -23.5449  -32.1355   23.7264 O   0  0  0  0  0  0
  -28.4566  -19.1131   21.1110 C   0  0  0  0  0  0
  -29.6283  -18.6567   20.5041 C   0  0  0  0  0  0
  -29.0875  -21.1973   20.2224 C   0  0  0  0  0  0
  -28.2977  -23.7370   20.2089 C   0  0  0  0  0  0
  -28.3059  -25.1527   18.0001 C   0  0  0  0  0  0
  -30.4476  -17.2976   20.5368 C   0  0  0  0  0  0
  -28.6341  -25.1421   19.5052 C   0  0  1  0  0  0
  -27.5060  -18.3069   21.9704 C   0  0  0  0  0  0
  -28.1853  -20.5187   20.9505 N   0  0  0  0  0  0
  -29.0756  -22.6376   19.8835 N   0  0  0  0  0  0
  -29.8898  -15.8820   20.6437 N   0  0  0  0  0  0
  -27.3639  -23.6733   21.0125 O   0  0  0  0  0  0
  -27.6380  -16.9943   21.7782 F   0  0  0  0  0  0
  -27.7140  -18.5462   23.2657 F   0  0  0  0  0  0
  -26.2347  -18.6107   21.7038 F   0  0  0  0  0  0
  -30.3545  -20.0593   19.6689 S   0  0  0  0  0  0
  -31.4670  -12.5507   19.1727 H   0  0  0  0  0  0
  -30.3551  -11.4637   19.9559 H   0  0  0  0  0  0
  -29.7833  -11.7278   17.5167 H   0  0  0  0  0  0
  -29.6374  -13.4558   17.7206 H   0  0  0  0  0  0
  -27.8824  -11.2847   18.9075 H   0  0  0  0  0  0
  -27.3736  -12.5298   17.7982 H   0  0  0  0  0  0
  -27.6333  -14.2547   19.4705 H   0  0  0  0  0  0
  -28.7134  -12.1715   21.4307 H   0  0  0  0  0  0
  -28.4246  -13.8563   21.7909 H   0  0  0  0  0  0
  -25.2759   -9.5686   22.4767 H   0  0  0  0  0  0
  -24.0006   -7.4630   22.7470 H   0  0  0  0  0  0
  -21.0848   -8.8768   19.8947 H   0  0  0  0  0  0
  -22.3698  -10.9674   19.6170 H   0  0  0  0  0  0
  -21.2001   -7.6149   23.9719 H   0  0  0  0  0  0
  -21.1483   -6.0525   25.9080 H   0  0  0  0  0  0
  -22.0598   -2.7612   23.2846 H   0  0  0  0  0  0
  -22.4079  -11.9865   22.4806 H   0  0  0  0  0  0
  -21.1079  -13.1227   22.2637 H   0  0  0  0  0  0
  -24.6477  -15.8423   20.5230 H   0  0  0  0  0  0
  -26.2650  -15.6319   20.0840 H   0  0  0  0  0  0
  -26.7183  -32.5393   23.1043 H   0  0  0  0  0  0
  -25.0082  -33.9695   25.0384 H   0  0  0  0  0  0
  -22.7217  -31.2973   21.3909 H   0  0  0  0  0  0
  -23.3756  -35.9594   23.3299 H   0  0  0  0  0  0
  -24.3578  -36.8890   22.2054 H   0  0  0  0  0  0
  -23.7234  -37.6465   23.6667 H   0  0  0  0  0  0
  -26.1028  -31.5321   20.6011 H   0  0  0  0  0  0
  -26.8478  -30.8203   22.0011 H   0  0  0  0  0  0
  -28.1141  -28.9428   21.1843 H   0  0  0  0  0  0
  -25.9375  -25.8523   19.1047 H   0  0  0  0  0  0
  -23.9635  -27.2698   19.0457 H   0  0  0  0  0  0
  -23.7648  -30.5801   19.3989 H   0  0  0  0  0  0
  -22.7599  -29.2375   19.8527 H   0  0  0  0  0  0
  -25.1296  -36.1888   25.0813 H   0  0  0  0  0  0
  -20.9999  -28.3264   24.1384 H   0  0  0  0  0  0
  -20.5664  -26.2300   23.3607 H   0  0  0  0  0  0
  -21.6639  -26.7420   22.1206 H   0  0  0  0  0  0
  -19.6919  -25.6293   21.1241 H   0  0  0  0  0  0
  -19.6695  -27.3194   20.6745 H   0  0  0  0  0  0
  -17.4196  -26.6671   21.4037 H   0  0  0  0  0  0
  -18.0341  -26.0067   22.9026 H   0  0  0  0  0  0
  -19.7949  -30.7279   24.2257 H   0  0  0  0  0  0
  -17.5029  -31.6274   24.5166 H   0  0  0  0  0  0
  -15.5364  -30.3001   23.7662 H   0  0  0  0  0  0
  -15.8667  -28.0836   22.7068 H   0  0  0  0  0  0
  -24.5916  -30.7050   25.7756 H   0  0  0  0  0  0
  -24.8883  -32.2905   26.4801 H   0  0  0  0  0  0
  -25.8036  -30.8954   27.0226 H   0  0  0  0  0  0
  -26.2913  -29.6746   24.1196 H   0  0  0  0  0  0
  -27.4023  -29.7251   25.4684 H   0  0  0  0  0  0
  -27.8786  -30.4271   23.9403 H   0  0  0  0  0  0
  -27.2676  -33.3643   26.2003 H   0  0  0  0  0  0
  -28.3896  -32.6816   25.0321 H   0  0  0  0  0  0
  -28.0676  -31.8459   26.5438 H   0  0  0  0  0  0
  -28.2570  -38.0101   24.7529 H   0  0  0  0  0  0
  -28.1088  -36.2631   24.6259 H   0  0  0  0  0  0
  -27.2298  -37.1381   25.8867 H   0  0  0  0  0  0
  -20.9360  -29.8762   21.6873 H   0  0  0  0  0  0
  -26.0148  -38.2827   24.1457 H   0  0  0  0  0  0
  -28.8986  -24.4046   17.4725 H   0  0  0  0  0  0
  -28.5396  -26.1196   17.5555 H   0  0  0  0  0  0
  -27.2655  -24.9182   17.7875 H   0  0  0  0  0  0
  -31.1621  -17.3839   21.3565 H   0  0  0  0  0  0
  -31.0738  -17.2935   19.6428 H   0  0  0  0  0  0
  -29.7245  -25.1463   19.5293 H   0  0  0  0  0  0
  -29.8210  -22.8850   19.2491 H   0  0  0  0  0  0
  -28.9093  -15.7802   20.8606 H   0  0  0  0  0  0
  1 25  1  0  0  0
  1 30  2  0  0  0
  1 81  1  0  0  0
  2  3  1  0  0  0
  2 25  1  0  0  0
  2 87  1  0  0  0
  2 88  1  0  0  0
  3  4  1  0  0  0
  3 89  1  0  0  0
  3 90  1  0  0  0
  4  5  1  0  0  0
  4 91  1  0  0  0
  4 92  1  0  0  0
  5  6  1  0  0  0
  5 26  1  0  0  0
  5 93  1  0  0  0
  6 25  1  0  0  0
  6 94  1  0  0  0
  6 95  1  0  0  0
  7  8  2  0  0  0
  7 26  1  0  0  0
  7 29  1  0  0  0
  8  9  1  0  0  0
  8 22  1  0  0  0
  9 10  1  0  0  0
  9 27  2  0  0  0
 10 11  2  0  0  0
 10 15  1  0  0  0
 11 12  1  0  0  0
 11 96  1  0  0  0
 12 13  2  0  0  0
 12 97  1  0  0  0
 13 14  1  0  0  0
 13 31  1  0  0  0
 14 15  2  0  0  0
 14 98  1  0  0  0
 15 99  1  0  0  0
 16 17  2  0  0  0
 16 21  1  0  0  0
 16 31  1  0  0  0
 17 18  1  0  0  0
 17100  1  0  0  0
 18 19  2  0  0  0
 18101  1  0  0  0
 19 20  1  0  0  0
 19 24  1  0  0  0
 20 21  2  0  0  0
 20102  1  0  0  0
 21 23  1  0  0  0
 22 28  1  0  0  0
 22 32  2  0  0  0
 26 27  1  0  0  0
 28103  1  0  0  0
 28104  1  0  0  0
 29105  1  0  0  0
 29106  1  0  0  0
 33 34  1  0  0  0
 33 66  1  0  0  0
 33 70  2  0  0  0
 34 36  1  0  0  0
 34 59  1  0  0  0
 34107  1  0  0  0
 35 44  2  0  0  0
 35 45  1  0  0  0
 35 68  1  0  0  0
 36 56  1  0  0  0
 36108  1  0  0  0
 37 39  1  0  0  0
 37 47  1  0  0  0
 37 66  1  0  0  0
 37109  1  0  0  0
 38 43  2  0  0  0
 38 46  1  0  0  0
 38 47  1  0  0  0
 39 64  1  0  0  0
 39 67  2  0  0  0
 40 52  1  0  0  0
 40 53  2  0  0  0
 40 58  1  0  0  0
 41110  1  0  0  0
 41111  1  0  0  0
 41112  1  0  0  0
 41 48  1  0  0  0
 42 43  1  0  0  0
 42 66  1  0  0  0
 42113  1  0  0  0
 42114  1  0  0  0
 43 44  1  0  0  0
 44115  1  0  0  0
 45 46  2  0  0  0
 45116  1  0  0  0
 46117  1  0  0  0
 47118  1  0  0  0
 47119  1  0  0  0
 48 56  1  0  0  0
 48 65  1  0  0  0
 48120  1  0  0  0
 49 50  1  0  0  0
 49 53  1  0  0  0
 49 64  1  0  0  0
 49121  1  0  0  0
 50 51  1  0  0  0
 50122  1  0  0  0
 50123  1  0  0  0
 51 52  1  0  0  0
 51124  1  0  0  0
 51125  1  0  0  0
 52126  1  0  0  0
 52127  1  0  0  0
 53 54  1  0  0  0
 54 55  2  0  0  0
 54128  1  0  0  0
 55 57  1  0  0  0
 55129  1  0  0  0
 56 69  2  0  0  0
 57 58  2  0  0  0
 57130  1  0  0  0
 58131  1  0  0  0
 59 60  1  0  0  0
 59 61  1  0  0  0
 59 62  1  0  0  0
 60132  1  0  0  0
 60133  1  0  0  0
 60134  1  0  0  0
 61135  1  0  0  0
 61136  1  0  0  0
 61137  1  0  0  0
 62138  1  0  0  0
 62139  1  0  0  0
 62140  1  0  0  0
 63 65  1  0  0  0
 63141  1  0  0  0
 63142  1  0  0  0
 63143  1  0  0  0
 64144  1  0  0  0
 65145  1  0  0  0
 68 77  1  0  0  0
 71 72  2  0  0  0
 71 78  1  0  0  0
 71 79  1  0  0  0
 72 76  1  0  0  0
 72 86  1  0  0  0
 73 79  2  0  0  0
 73 80  1  0  0  0
 73 86  1  0  0  0
 74 77  1  0  0  0
 74 80  1  0  0  0
 74 82  2  0  0  0
 75146  1  0  0  0
 75147  1  0  0  0
 75148  1  0  0  0
 75 77  1  0  0  0
 76 81  1  0  0  0
 76149  1  0  0  0
 76150  1  0  0  0
 77151  1  0  0  0
 78 83  1  0  0  0
 78 84  1  0  0  0
 78 85  1  0  0  0
 80152  1  0  0  0
 81153  1  0  0  0
M  ISO  4   1 100  68 101  77 101  81 100
M  END
> <chiral flag>
0

> <version>
0

> <s_m_source_file>
/data/baiqing/PycharmProjects/Reinvent-master-3.2/result/LINK_invent/BTK/process_docking_weight1_custom_product_contain_oxygen_bond_distance_aromatic_linkinvent_7_9_3/rearranged_h_0188.sdf

> <i_m_source_file_index>
29

> <r_mmod_Potential_Energy-OPLS-2005>
102.144386291504

> <r_mmod_Stretch_Energy-OPLS-2005>
110.314468383789

> <r_mmod_Bend_Energy-OPLS-2005>
223.740097045898

> <r_mmod_Torsional_Energy-OPLS-2005>
202.622421264648

> <r_mmod_Improper_Torsional_Energy-OPLS-2005>
5.22371959686279

> <r_mmod_Van_der_Waal_Energy-OPLS-2005>
112.483734130859

> <r_mmod_Electrostatic_Energy-OPLS-2005>
-382.180541992188

> <r_mmod_Solvation_Energy-OPLS-2005>
-245.377029418945

> <b_mmod_Minimization_Converged-OPLS-2005>
0

> <r_mmod_RMS_Derivative-OPLS-2005>
1.04899430274963

$$$$
30
                    3D
 Structure written by MMmdl.
154162  0  0  1  0            999 V2000
  -30.6419  -14.6080   20.5994 C   0  0  0  0  0  0
  -30.4457  -12.4025   19.4354 C   0  0  0  0  0  0
  -29.5031  -12.5334   18.2176 C   0  0  0  0  0  0
  -28.0281  -12.3583   18.6325 C   0  0  0  0  0  0
  -27.6603  -13.2076   19.8746 C   0  0  2  0  0  0
  -28.7028  -12.9999   20.9919 C   0  0  0  0  0  0
  -25.2575  -13.8152   20.5682 C   0  0  0  0  0  0
  -24.1826  -13.0432   20.9174 C   0  0  0  0  0  0
  -24.6389  -11.6891   20.8737 C   0  0  0  0  0  0
  -23.9045  -10.4277   21.0400 C   0  0  0  0  0  0
  -24.3599   -9.4198   21.9184 C   0  0  0  0  0  0
  -23.6285   -8.2234   22.0755 C   0  0  0  0  0  0
  -22.4271   -8.0259   21.3541 C   0  0  0  0  0  0
  -21.9890   -9.0230   20.4648 C   0  0  0  0  0  0
  -22.7208  -10.2118   20.3055 C   0  0  0  0  0  0
  -21.6844   -6.0713   22.5271 C   0  0  0  0  0  0
  -21.4006   -6.5626   23.8205 C   0  0  0  0  0  0
  -21.3676   -5.6791   24.9180 C   0  0  0  0  0  0
  -21.6058   -4.3056   24.7234 C   0  0  0  0  0  0
  -21.8821   -3.8135   23.4356 C   0  0  0  0  0  0
  -21.9194   -4.6942   22.3405 C   0  0  0  0  0  0
  -22.7849  -13.5224   21.1865 C   0  0  0  0  0  0
  -22.1652   -4.2126   21.0983 F   0  0  0  0  0  0
  -21.5657   -3.4542   25.7753 F   0  0  0  0  0  0
  -30.0233  -13.3858   20.4553 N   0  0  0  0  0  0
  -26.3016  -12.9319   20.3359 N   0  0  0  0  0  0
  -25.9326  -11.6476   20.5768 N   0  0  0  0  0  0
  -22.0502  -12.8211   22.0423 N   0  0  0  0  0  0
  -25.4341  -15.1869   20.4110 N   0  0  0  0  0  0
  -31.7203  -14.8377   20.0432 O   0  0  0  0  0  0
  -21.6632   -6.8855   21.4231 O   0  0  0  0  0  0
  -22.3542  -14.5548   20.6750 O   0  0  0  0  0  0
  -24.6257  -31.8615   23.2000 C   0  0  0  0  0  0
  -25.9105  -32.4800   23.8348 C   0  0  1  0  0  0
  -27.2273  -27.3199   20.1122 C   0  0  0  0  0  0
  -25.5940  -33.8608   24.2289 N   0  0  0  0  0  0
  -23.4190  -30.4847   21.5417 C   0  0  2  0  0  0
  -24.8675  -28.9381   20.1080 C   0  0  0  0  0  0
  -22.7469  -29.4644   22.4925 C   0  0  0  0  0  0
  -18.0299  -28.1406   22.8497 C   0  0  0  0  0  0
  -24.1474  -36.7281   23.2637 C   0  0  0  0  0  0
  -25.9599  -30.7922   21.3691 C   0  0  0  0  0  0
  -26.0365  -29.4172   20.7140 C   0  0  0  0  0  0
  -27.2202  -28.6199   20.7072 C   0  0  0  0  0  0
  -26.0392  -26.9010   19.4707 C   0  0  0  0  0  0
  -24.8699  -27.6834   19.4799 C   0  0  0  0  0  0
  -23.6355  -29.8198   20.1563 C   0  0  0  0  0  0
  -25.4106  -36.3105   24.0336 C   0  0  1  0  0  0
  -20.5891  -28.3705   23.1302 C   0  0  2  0  0  0
  -20.6794  -26.9440   22.5418 C   0  0  0  0  0  0
  -19.5759  -26.6401   21.5234 C   0  0  0  0  0  0
  -18.1939  -26.7953   22.1633 C   0  0  0  0  0  0
  -19.1548  -28.8877   23.2895 C   0  0  0  0  0  0
  -18.9477  -30.1487   23.8893 C   0  0  0  0  0  0
  -17.6475  -30.6609   24.0586 C   0  0  0  0  0  0
  -25.9053  -34.9476   23.5108 C   0  0  0  0  0  0
  -16.5369  -29.9110   23.6344 C   0  0  0  0  0  0
  -16.7289  -28.6536   23.0347 C   0  0  0  0  0  0
  -26.4490  -31.6593   25.0714 C   0  0  0  0  0  0
  -25.3744  -31.3725   26.1452 C   0  0  0  0  0  0
  -27.0301  -30.3015   24.6134 C   0  0  0  0  0  0
  -27.6044  -32.4317   25.7513 C   0  0  0  0  0  0
  -27.5570  -37.1801   24.8481 C   0  0  0  0  0  0
  -21.4186  -29.3054   22.3677 N   0  0  0  0  0  0
  -26.4282  -37.3804   23.9428 N   0  0  0  0  0  0
  -24.6870  -31.0624   22.0948 N   0  0  0  0  0  0
  -23.4200  -28.8203   23.3010 O   0  0  0  0  0  0
  -28.3360  -26.4553   20.1468 O   0  0  0  0  0  0
  -26.5608  -34.8946   22.4668 O   0  0  0  0  0  0
  -23.5420  -32.1420   23.7318 O   0  0  0  0  0  0
  -30.7225  -18.3466   19.4938 C   0  0  0  0  0  0
  -30.5601  -19.6556   18.9088 C   0  0  0  0  0  0
  -29.9100  -18.1212   20.5728 C   0  0  0  0  0  0
  -29.6081  -20.4723   19.4904 C   0  0  0  0  0  0
  -29.7094  -16.9309   21.4064 C   0  0  0  0  0  0
  -29.9559  -15.5779   21.4885 C   0  0  0  0  0  0
  -28.6354  -22.8574   19.0799 C   0  0  0  0  0  0
  -27.8816  -25.1195   22.1150 C   0  0  0  0  0  0
  -29.1412  -23.8722   20.1750 C   0  0  1  0  0  0
  -28.1013  -25.0482   20.5885 C   0  0  2  0  0  0
  -29.0340  -21.5615   18.8609 N   0  0  0  0  0  0
  -27.8171  -23.2940   18.2705 O   0  0  0  0  0  0
  -29.6369  -23.1411   21.2903 O   0  0  0  0  0  0
  -28.9542  -19.5950   20.8795 S   0  0  0  0  0  0
  -31.4832  -12.5462   19.1273 H   0  0  0  0  0  0
  -30.4004  -11.3939   19.8460 H   0  0  0  0  0  0
  -29.7666  -11.7974   17.4572 H   0  0  0  0  0  0
  -29.6385  -13.5131   17.7570 H   0  0  0  0  0  0
  -27.8709  -11.3016   18.8524 H   0  0  0  0  0  0
  -27.3658  -12.5983   17.8005 H   0  0  0  0  0  0
  -27.6991  -14.2544   19.5711 H   0  0  0  0  0  0
  -28.7231  -11.9519   21.2943 H   0  0  0  0  0  0
  -28.4042  -13.5399   21.8873 H   0  0  0  0  0  0
  -25.2742   -9.5687   22.4763 H   0  0  0  0  0  0
  -23.9996   -7.4622   22.7469 H   0  0  0  0  0  0
  -21.0830   -8.8749   19.8945 H   0  0  0  0  0  0
  -22.3662  -10.9664   19.6171 H   0  0  0  0  0  0
  -21.1967   -7.6135   23.9702 H   0  0  0  0  0  0
  -21.1519   -6.0523   25.9084 H   0  0  0  0  0  0
  -22.0589   -2.7587   23.2870 H   0  0  0  0  0  0
  -22.4091  -11.9832   22.4769 H   0  0  0  0  0  0
  -21.1150  -13.1276   22.2697 H   0  0  0  0  0  0
  -24.6814  -15.8555   20.5277 H   0  0  0  0  0  0
  -26.3052  -15.6171   20.1277 H   0  0  0  0  0  0
  -26.7176  -32.5469   23.1098 H   0  0  0  0  0  0
  -25.0175  -33.9775   25.0490 H   0  0  0  0  0  0
  -22.7123  -31.3052   21.3985 H   0  0  0  0  0  0
  -23.3756  -35.9598   23.3331 H   0  0  0  0  0  0
  -24.3564  -36.8861   22.2047 H   0  0  0  0  0  0
  -23.7204  -37.6487   23.6629 H   0  0  0  0  0  0
  -26.0858  -31.5565   20.6004 H   0  0  0  0  0  0
  -26.8418  -30.8461   21.9951 H   0  0  0  0  0  0
  -28.1137  -28.9829   21.1960 H   0  0  0  0  0  0
  -26.0012  -25.9531   18.9542 H   0  0  0  0  0  0
  -23.9784  -27.3113   18.9952 H   0  0  0  0  0  0
  -23.7569  -30.5973   19.4006 H   0  0  0  0  0  0
  -22.7547  -29.2513   19.8514 H   0  0  0  0  0  0
  -25.1283  -36.1954   25.0825 H   0  0  0  0  0  0
  -20.9994  -28.3279   24.1414 H   0  0  0  0  0  0
  -20.5749  -26.2311   23.3603 H   0  0  0  0  0  0
  -21.6660  -26.7512   22.1182 H   0  0  0  0  0  0
  -19.6918  -25.6311   21.1255 H   0  0  0  0  0  0
  -19.6688  -27.3222   20.6771 H   0  0  0  0  0  0
  -17.4218  -26.6737   21.4023 H   0  0  0  0  0  0
  -18.0318  -26.0106   22.9027 H   0  0  0  0  0  0
  -19.7962  -30.7324   24.2220 H   0  0  0  0  0  0
  -17.5042  -31.6283   24.5201 H   0  0  0  0  0  0
  -15.5373  -30.3017   23.7671 H   0  0  0  0  0  0
  -15.8692  -28.0872   22.7021 H   0  0  0  0  0  0
  -24.5951  -30.7020   25.7818 H   0  0  0  0  0  0
  -24.8903  -32.2882   26.4853 H   0  0  0  0  0  0
  -25.8111  -30.8964   27.0236 H   0  0  0  0  0  0
  -26.2851  -29.6809   24.1142 H   0  0  0  0  0  0
  -27.3998  -29.7236   25.4612 H   0  0  0  0  0  0
  -27.8726  -30.4318   23.9345 H   0  0  0  0  0  0
  -27.2634  -33.3622   26.2075 H   0  0  0  0  0  0
  -28.3877  -32.6855   25.0356 H   0  0  0  0  0  0
  -28.0666  -31.8434   26.5454 H   0  0  0  0  0  0
  -28.2617  -38.0073   24.7537 H   0  0  0  0  0  0
  -28.1033  -36.2615   24.6299 H   0  0  0  0  0  0
  -27.2299  -37.1454   25.8888 H   0  0  0  0  0  0
  -20.9350  -29.8749   21.6874 H   0  0  0  0  0  0
  -26.0162  -38.2877   24.1438 H   0  0  0  0  0  0
  -31.4095  -17.6199   19.0821 H   0  0  0  0  0  0
  -31.1068  -19.9151   18.0120 H   0  0  0  0  0  0
  -29.1741  -17.2394   22.2942 H   0  0  0  0  0  0
  -29.5917  -15.1464   22.4082 H   0  0  0  0  0  0
  -27.5806  -24.1518   22.5165 H   0  0  0  0  0  0
  -27.0903  -25.8231   22.3740 H   0  0  0  0  0  0
  -28.7891  -25.4303   22.6304 H   0  0  0  0  0  0
  -30.0094  -24.3609   19.7313 H   0  0  0  0  0  0
  -27.1385  -24.7148   20.2094 H   0  0  0  0  0  0
  -28.7053  -21.3031   17.9417 H   0  0  0  0  0  0
  -30.1901  -22.4545   20.9311 H   0  0  0  0  0  0
  1 25  1  0  0  0
  1 30  2  0  0  0
  1 76  1  0  0  0
  2  3  1  0  0  0
  2 25  1  0  0  0
  2 85  1  0  0  0
  2 86  1  0  0  0
  3  4  1  0  0  0
  3 87  1  0  0  0
  3 88  1  0  0  0
  4  5  1  0  0  0
  4 89  1  0  0  0
  4 90  1  0  0  0
  5  6  1  0  0  0
  5 26  1  0  0  0
  5 91  1  0  0  0
  6 25  1  0  0  0
  6 92  1  0  0  0
  6 93  1  0  0  0
  7  8  2  0  0  0
  7 26  1  0  0  0
  7 29  1  0  0  0
  8  9  1  0  0  0
  8 22  1  0  0  0
  9 10  1  0  0  0
  9 27  2  0  0  0
 10 11  2  0  0  0
 10 15  1  0  0  0
 11 12  1  0  0  0
 11 94  1  0  0  0
 12 13  2  0  0  0
 12 95  1  0  0  0
 13 14  1  0  0  0
 13 31  1  0  0  0
 14 15  2  0  0  0
 14 96  1  0  0  0
 15 97  1  0  0  0
 16 17  2  0  0  0
 16 21  1  0  0  0
 16 31  1  0  0  0
 17 18  1  0  0  0
 17 98  1  0  0  0
 18 19  2  0  0  0
 18 99  1  0  0  0
 19 20  1  0  0  0
 19 24  1  0  0  0
 20 21  2  0  0  0
 20100  1  0  0  0
 21 23  1  0  0  0
 22 28  1  0  0  0
 22 32  2  0  0  0
 26 27  1  0  0  0
 28101  1  0  0  0
 28102  1  0  0  0
 29103  1  0  0  0
 29104  1  0  0  0
 33 34  1  0  0  0
 33 66  1  0  0  0
 33 70  2  0  0  0
 34 36  1  0  0  0
 34 59  1  0  0  0
 34105  1  0  0  0
 35 44  2  0  0  0
 35 45  1  0  0  0
 35 68  1  0  0  0
 36 56  1  0  0  0
 36106  1  0  0  0
 37 39  1  0  0  0
 37 47  1  0  0  0
 37 66  1  0  0  0
 37107  1  0  0  0
 38 43  2  0  0  0
 38 46  1  0  0  0
 38 47  1  0  0  0
 39 64  1  0  0  0
 39 67  2  0  0  0
 40 52  1  0  0  0
 40 53  2  0  0  0
 40 58  1  0  0  0
 41108  1  0  0  0
 41109  1  0  0  0
 41110  1  0  0  0
 41 48  1  0  0  0
 42 43  1  0  0  0
 42 66  1  0  0  0
 42111  1  0  0  0
 42112  1  0  0  0
 43 44  1  0  0  0
 44113  1  0  0  0
 45 46  2  0  0  0
 45114  1  0  0  0
 46115  1  0  0  0
 47116  1  0  0  0
 47117  1  0  0  0
 48 56  1  0  0  0
 48 65  1  0  0  0
 48118  1  0  0  0
 49 50  1  0  0  0
 49 53  1  0  0  0
 49 64  1  0  0  0
 49119  1  0  0  0
 50 51  1  0  0  0
 50120  1  0  0  0
 50121  1  0  0  0
 51 52  1  0  0  0
 51122  1  0  0  0
 51123  1  0  0  0
 52124  1  0  0  0
 52125  1  0  0  0
 53 54  1  0  0  0
 54 55  2  0  0  0
 54126  1  0  0  0
 55 57  1  0  0  0
 55127  1  0  0  0
 56 69  2  0  0  0
 57 58  2  0  0  0
 57128  1  0  0  0
 58129  1  0  0  0
 59 60  1  0  0  0
 59 61  1  0  0  0
 59 62  1  0  0  0
 60130  1  0  0  0
 60131  1  0  0  0
 60132  1  0  0  0
 61133  1  0  0  0
 61134  1  0  0  0
 61135  1  0  0  0
 62136  1  0  0  0
 62137  1  0  0  0
 62138  1  0  0  0
 63 65  1  0  0  0
 63139  1  0  0  0
 63140  1  0  0  0
 63141  1  0  0  0
 64142  1  0  0  0
 65143  1  0  0  0
 68 80  1  0  0  0
 71 72  1  0  0  0
 71 73  2  0  0  0
 71144  1  0  0  0
 72 74  2  0  0  0
 72145  1  0  0  0
 73 75  1  0  0  0
 73 84  1  0  0  0
 74 81  1  0  0  0
 74 84  1  0  0  0
 75 76  2  0  0  0
 75146  1  0  0  0
 76147  1  0  0  0
 77 79  1  0  0  0
 77 81  1  0  0  0
 77 82  2  0  0  0
 78148  1  0  0  0
 78149  1  0  0  0
 78150  1  0  0  0
 78 80  1  0  0  0
 79 80  1  0  0  0
 79 83  1  0  0  0
 79151  1  0  0  0
 80152  1  0  0  0
 81153  1  0  0  0
 83154  1  0  0  0
M  ISO  4   1 100  68 101  76 100  80 101
M  END
> <chiral flag>
0

> <version>
0

> <s_m_source_file>
/data/baiqing/PycharmProjects/Reinvent-master-3.2/result/LINK_invent/BTK/process_docking_weight1_custom_product_contain_oxygen_bond_distance_aromatic_linkinvent_7_9_3/rearranged_h_0188.sdf

> <i_m_source_file_index>
30

> <r_mmod_Potential_Energy-OPLS-2005>
185.384643554688

> <r_mmod_Stretch_Energy-OPLS-2005>
81.5468978881836

> <r_mmod_Bend_Energy-OPLS-2005>
236.27326965332

> <r_mmod_Torsional_Energy-OPLS-2005>
247.352645874023

> <r_mmod_Improper_Torsional_Energy-OPLS-2005>
5.63567161560059

> <r_mmod_Van_der_Waal_Energy-OPLS-2005>
126.954177856445

> <r_mmod_Electrostatic_Energy-OPLS-2005>
-335.980987548828

> <r_mmod_Solvation_Energy-OPLS-2005>
-219.605361938477

> <b_mmod_Minimization_Converged-OPLS-2005>
0

> <r_mmod_RMS_Derivative-OPLS-2005>
2.40675854682922

$$$$
31
                    3D
 Structure written by MMmdl.
162170  0  0  1  0            999 V2000
  -30.6680  -14.5953   20.4441 C   0  0  0  0  0  0
  -30.4166  -12.3500   19.4639 C   0  0  0  0  0  0
  -29.5037  -12.4844   18.2266 C   0  0  0  0  0  0
  -28.0235  -12.3440   18.6339 C   0  0  0  0  0  0
  -27.6471  -13.2250   19.8562 C   0  0  2  0  0  0
  -28.6907  -13.1084   20.9898 C   0  0  0  0  0  0
  -25.2519  -13.8189   20.5689 C   0  0  0  0  0  0
  -24.1803  -13.0439   20.9203 C   0  0  0  0  0  0
  -24.6389  -11.6914   20.8743 C   0  0  0  0  0  0
  -23.9060  -10.4289   21.0404 C   0  0  0  0  0  0
  -24.3612   -9.4205   21.9183 C   0  0  0  0  0  0
  -23.6290   -8.2235   22.0747 C   0  0  0  0  0  0
  -22.4274   -8.0268   21.3533 C   0  0  0  0  0  0
  -21.9906   -9.0247   20.4642 C   0  0  0  0  0  0
  -22.7232  -10.2129   20.3054 C   0  0  0  0  0  0
  -21.6850   -6.0729   22.5278 C   0  0  0  0  0  0
  -21.4023   -6.5635   23.8215 C   0  0  0  0  0  0
  -21.3661   -5.6784   24.9175 C   0  0  0  0  0  0
  -21.6045   -4.3048   24.7224 C   0  0  0  0  0  0
  -21.8815   -3.8138   23.4347 C   0  0  0  0  0  0
  -21.9190   -4.6954   22.3403 C   0  0  0  0  0  0
  -22.7819  -13.5222   21.1864 C   0  0  0  0  0  0
  -22.1653   -4.2141   21.0978 F   0  0  0  0  0  0
  -21.5626   -3.4533   25.7738 F   0  0  0  0  0  0
  -30.0090  -13.3993   20.4165 N   0  0  0  0  0  0
  -26.2954  -12.9394   20.3301 N   0  0  0  0  0  0
  -25.9323  -11.6545   20.5759 N   0  0  0  0  0  0
  -22.0457  -12.8220   22.0425 N   0  0  0  0  0  0
  -25.4197  -15.1914   20.4112 N   0  0  0  0  0  0
  -31.8764  -14.6500   20.1991 O   0  0  0  0  0  0
  -21.6630   -6.8874   21.4240 O   0  0  0  0  0  0
  -22.3500  -14.5515   20.6692 O   0  0  0  0  0  0
  -24.6200  -31.8641   23.2046 C   0  0  0  0  0  0
  -25.9067  -32.4802   23.8367 C   0  0  1  0  0  0
  -27.2279  -27.3764   20.1245 C   0  0  0  0  0  0
  -25.5902  -33.8601   24.2297 N   0  0  0  0  0  0
  -23.4123  -30.4845   21.5473 C   0  0  2  0  0  0
  -24.8592  -28.9400   20.1148 C   0  0  0  0  0  0
  -22.7451  -29.4640   22.4981 C   0  0  0  0  0  0
  -18.0289  -28.1389   22.8490 C   0  0  0  0  0  0
  -24.1491  -36.7302   23.2645 C   0  0  0  0  0  0
  -25.9453  -30.8128   21.3656 C   0  0  0  0  0  0
  -26.0220  -29.4433   20.7130 C   0  0  0  0  0  0
  -27.2132  -28.6724   20.7050 C   0  0  0  0  0  0
  -26.0517  -26.9005   19.5126 C   0  0  0  0  0  0
  -24.8715  -27.6712   19.5079 C   0  0  0  0  0  0
  -23.6238  -29.8137   20.1635 C   0  0  0  0  0  0
  -25.4112  -36.3099   24.0336 C   0  0  1  0  0  0
  -20.5880  -28.3676   23.1312 C   0  0  2  0  0  0
  -20.6773  -26.9408   22.5424 C   0  0  0  0  0  0
  -19.5749  -26.6384   21.5225 C   0  0  0  0  0  0
  -18.1929  -26.7931   22.1633 C   0  0  0  0  0  0
  -19.1533  -28.8850   23.2899 C   0  0  0  0  0  0
  -18.9459  -30.1455   23.8910 C   0  0  0  0  0  0
  -17.6455  -30.6586   24.0567 C   0  0  0  0  0  0
  -25.9040  -34.9467   23.5119 C   0  0  0  0  0  0
  -16.5349  -29.9088   23.6326 C   0  0  0  0  0  0
  -16.7274  -28.6512   23.0340 C   0  0  0  0  0  0
  -26.4469  -31.6599   25.0720 C   0  0  0  0  0  0
  -25.3723  -31.3716   26.1464 C   0  0  0  0  0  0
  -27.0308  -30.3034   24.6134 C   0  0  0  0  0  0
  -27.6045  -32.4329   25.7481 C   0  0  0  0  0  0
  -27.5582  -37.1810   24.8463 C   0  0  0  0  0  0
  -21.4170  -29.3032   22.3713 N   0  0  0  0  0  0
  -26.4296  -37.3787   23.9409 N   0  0  0  0  0  0
  -24.6777  -31.0702   22.0970 N   0  0  0  0  0  0
  -23.4197  -28.8207   23.3059 O   0  0  0  0  0  0
  -28.3610  -26.5734   20.1396 O   0  0  0  0  0  0
  -26.5616  -34.8928   22.4686 O   0  0  0  0  0  0
  -23.5377  -32.1412   23.7410 O   0  0  0  0  0  0
  -31.0635  -18.1018   17.8503 C   0  0  0  0  0  0
  -30.8867  -16.9583   18.6327 C   0  0  0  0  0  0
  -30.4321  -19.3021   18.2044 C   0  0  0  0  0  0
  -30.1083  -16.9930   19.8081 C   0  0  0  0  0  0
  -29.6624  -19.3421   19.4017 C   0  0  0  0  0  0
  -29.3173  -21.6336   20.4286 C   0  0  0  0  0  0
  -30.4381  -23.7723   19.6761 C   0  0  0  0  0  0
  -27.7593  -25.8762   22.4528 C   0  0  0  0  0  0
  -28.0622  -24.0142   20.6934 C   0  0  0  0  0  0
  -29.0687  -23.0944   19.8845 C   0  0  2  0  0  0
  -28.4522  -25.4926   21.1263 C   0  0  1  0  0  0
  -30.6392  -20.4979   17.2659 C   0  0  0  0  0  0
  -29.5101  -18.1888   20.1594 N   0  0  0  0  0  0
  -28.9559  -20.5830   19.6457 N   0  0  0  0  0  0
  -29.9070  -15.7341   20.5187 N   0  0  0  0  0  0
  -29.8304  -21.4824   21.5398 O   0  0  0  0  0  0
  -31.0067  -20.1020   16.0460 F   0  0  0  0  0  0
  -29.5330  -21.2281   17.1191 F   0  0  0  0  0  0
  -31.6094  -21.2644   17.7553 F   0  0  0  0  0  0
  -31.4657  -12.4288   19.1722 H   0  0  0  0  0  0
  -30.3077  -11.3641   19.9187 H   0  0  0  0  0  0
  -29.7610  -11.7269   17.4851 H   0  0  0  0  0  0
  -29.6657  -13.4515   17.7478 H   0  0  0  0  0  0
  -27.8471  -11.2938   18.8684 H   0  0  0  0  0  0
  -27.3756  -12.5774   17.7883 H   0  0  0  0  0  0
  -27.6587  -14.2551   19.5006 H   0  0  0  0  0  0
  -28.6821  -12.1054   21.4199 H   0  0  0  0  0  0
  -28.4570  -13.7927   21.8075 H   0  0  0  0  0  0
  -25.2760   -9.5677   22.4758 H   0  0  0  0  0  0
  -23.9996   -7.4624   22.7468 H   0  0  0  0  0  0
  -21.0831   -8.8769   19.8957 H   0  0  0  0  0  0
  -22.3688  -10.9665   19.6157 H   0  0  0  0  0  0
  -21.2024   -7.6144   23.9721 H   0  0  0  0  0  0
  -21.1487   -6.0513   25.9080 H   0  0  0  0  0  0
  -22.0594   -2.7601   23.2845 H   0  0  0  0  0  0
  -22.4064  -11.9899   22.4855 H   0  0  0  0  0  0
  -21.1072  -13.1245   22.2614 H   0  0  0  0  0  0
  -24.6500  -15.8414   20.5278 H   0  0  0  0  0  0
  -26.2631  -15.6367   20.0733 H   0  0  0  0  0  0
  -26.7145  -32.5490   23.1130 H   0  0  0  0  0  0
  -25.0024  -33.9750   25.0422 H   0  0  0  0  0  0
  -22.7036  -31.3030   21.4051 H   0  0  0  0  0  0
  -23.3747  -35.9638   23.3312 H   0  0  0  0  0  0
  -24.3576  -36.8912   22.2057 H   0  0  0  0  0  0
  -23.7239  -37.6510   23.6656 H   0  0  0  0  0  0
  -26.0679  -31.5774   20.5965 H   0  0  0  0  0  0
  -26.8289  -30.8628   21.9906 H   0  0  0  0  0  0
  -28.1113  -29.0555   21.1694 H   0  0  0  0  0  0
  -26.0465  -25.9234   19.0518 H   0  0  0  0  0  0
  -23.9780  -27.2777   19.0417 H   0  0  0  0  0  0
  -23.7376  -30.5872   19.4029 H   0  0  0  0  0  0
  -22.7452  -29.2372   19.8683 H   0  0  0  0  0  0
  -25.1297  -36.1957   25.0829 H   0  0  0  0  0  0
  -20.9977  -28.3242   24.1430 H   0  0  0  0  0  0
  -20.5680  -26.2287   23.3617 H   0  0  0  0  0  0
  -21.6643  -26.7445   22.1214 H   0  0  0  0  0  0
  -19.6898  -25.6295   21.1253 H   0  0  0  0  0  0
  -19.6681  -27.3197   20.6755 H   0  0  0  0  0  0
  -17.4202  -26.6689   21.4032 H   0  0  0  0  0  0
  -18.0314  -26.0073   22.9027 H   0  0  0  0  0  0
  -19.7930  -30.7271   24.2285 H   0  0  0  0  0  0
  -17.5008  -31.6263   24.5174 H   0  0  0  0  0  0
  -15.5349  -30.2994   23.7633 H   0  0  0  0  0  0
  -15.8684  -28.0841   22.7030 H   0  0  0  0  0  0
  -24.5881  -30.7096   25.7788 H   0  0  0  0  0  0
  -24.8944  -32.2874   26.4944 H   0  0  0  0  0  0
  -25.8070  -30.8850   27.0202 H   0  0  0  0  0  0
  -26.2876  -29.6786   24.1169 H   0  0  0  0  0  0
  -27.4038  -29.7277   25.4618 H   0  0  0  0  0  0
  -27.8726  -30.4347   23.9327 H   0  0  0  0  0  0
  -27.2663  -33.3623   26.2083 H   0  0  0  0  0  0
  -28.3833  -32.6913   25.0287 H   0  0  0  0  0  0
  -28.0742  -31.8447   26.5373 H   0  0  0  0  0  0
  -28.2614  -38.0100   24.7515 H   0  0  0  0  0  0
  -28.1072  -36.2634   24.6290 H   0  0  0  0  0  0
  -27.2304  -37.1465   25.8869 H   0  0  0  0  0  0
  -20.9349  -29.8737   21.6907 H   0  0  0  0  0  0
  -26.0181  -38.2869   24.1397 H   0  0  0  0  0  0
  -31.6719  -18.0341   16.9598 H   0  0  0  0  0  0
  -31.3570  -16.0522   18.2791 H   0  0  0  0  0  0
  -31.0999  -23.1672   19.0614 H   0  0  0  0  0  0
  -30.9554  -23.9377   20.6223 H   0  0  0  0  0  0
  -30.3330  -24.7321   19.1698 H   0  0  0  0  0  0
  -28.1166  -26.8378   22.8230 H   0  0  0  0  0  0
  -27.9642  -25.1403   23.2305 H   0  0  0  0  0  0
  -26.6757  -25.9403   22.3461 H   0  0  0  0  0  0
  -27.8130  -23.4666   21.6038 H   0  0  0  0  0  0
  -27.1178  -24.0568   20.1512 H   0  0  0  0  0  0
  -28.6353  -22.9851   18.8893 H   0  0  0  0  0  0
  -29.5059  -25.4758   21.3994 H   0  0  0  0  0  0
  -28.4333  -20.8957   18.8396 H   0  0  0  0  0  0
  -28.9952  -15.6195   20.9287 H   0  0  0  0  0  0
  1 25  1  0  0  0
  1 30  2  0  0  0
  1 85  1  0  0  0
  2  3  1  0  0  0
  2 25  1  0  0  0
  2 90  1  0  0  0
  2 91  1  0  0  0
  3  4  1  0  0  0
  3 92  1  0  0  0
  3 93  1  0  0  0
  4  5  1  0  0  0
  4 94  1  0  0  0
  4 95  1  0  0  0
  5  6  1  0  0  0
  5 26  1  0  0  0
  5 96  1  0  0  0
  6 25  1  0  0  0
  6 97  1  0  0  0
  6 98  1  0  0  0
  7  8  2  0  0  0
  7 26  1  0  0  0
  7 29  1  0  0  0
  8  9  1  0  0  0
  8 22  1  0  0  0
  9 10  1  0  0  0
  9 27  2  0  0  0
 10 11  2  0  0  0
 10 15  1  0  0  0
 11 12  1  0  0  0
 11 99  1  0  0  0
 12 13  2  0  0  0
 12100  1  0  0  0
 13 14  1  0  0  0
 13 31  1  0  0  0
 14 15  2  0  0  0
 14101  1  0  0  0
 15102  1  0  0  0
 16 17  2  0  0  0
 16 21  1  0  0  0
 16 31  1  0  0  0
 17 18  1  0  0  0
 17103  1  0  0  0
 18 19  2  0  0  0
 18104  1  0  0  0
 19 20  1  0  0  0
 19 24  1  0  0  0
 20 21  2  0  0  0
 20105  1  0  0  0
 21 23  1  0  0  0
 22 28  1  0  0  0
 22 32  2  0  0  0
 26 27  1  0  0  0
 28106  1  0  0  0
 28107  1  0  0  0
 29108  1  0  0  0
 29109  1  0  0  0
 33 34  1  0  0  0
 33 66  1  0  0  0
 33 70  2  0  0  0
 34 36  1  0  0  0
 34 59  1  0  0  0
 34110  1  0  0  0
 35 44  2  0  0  0
 35 45  1  0  0  0
 35 68  1  0  0  0
 36 56  1  0  0  0
 36111  1  0  0  0
 37 39  1  0  0  0
 37 47  1  0  0  0
 37 66  1  0  0  0
 37112  1  0  0  0
 38 43  2  0  0  0
 38 46  1  0  0  0
 38 47  1  0  0  0
 39 64  1  0  0  0
 39 67  2  0  0  0
 40 52  1  0  0  0
 40 53  2  0  0  0
 40 58  1  0  0  0
 41113  1  0  0  0
 41114  1  0  0  0
 41115  1  0  0  0
 41 48  1  0  0  0
 42 43  1  0  0  0
 42 66  1  0  0  0
 42116  1  0  0  0
 42117  1  0  0  0
 43 44  1  0  0  0
 44118  1  0  0  0
 45 46  2  0  0  0
 45119  1  0  0  0
 46120  1  0  0  0
 47121  1  0  0  0
 47122  1  0  0  0
 48 56  1  0  0  0
 48 65  1  0  0  0
 48123  1  0  0  0
 49 50  1  0  0  0
 49 53  1  0  0  0
 49 64  1  0  0  0
 49124  1  0  0  0
 50 51  1  0  0  0
 50125  1  0  0  0
 50126  1  0  0  0
 51 52  1  0  0  0
 51127  1  0  0  0
 51128  1  0  0  0
 52129  1  0  0  0
 52130  1  0  0  0
 53 54  1  0  0  0
 54 55  2  0  0  0
 54131  1  0  0  0
 55 57  1  0  0  0
 55132  1  0  0  0
 56 69  2  0  0  0
 57 58  2  0  0  0
 57133  1  0  0  0
 58134  1  0  0  0
 59 60  1  0  0  0
 59 61  1  0  0  0
 59 62  1  0  0  0
 60135  1  0  0  0
 60136  1  0  0  0
 60137  1  0  0  0
 61138  1  0  0  0
 61139  1  0  0  0
 61140  1  0  0  0
 62141  1  0  0  0
 62142  1  0  0  0
 62143  1  0  0  0
 63 65  1  0  0  0
 63144  1  0  0  0
 63145  1  0  0  0
 63146  1  0  0  0
 64147  1  0  0  0
 65148  1  0  0  0
 68 81  1  0  0  0
 71 72  2  0  0  0
 71 73  1  0  0  0
 71149  1  0  0  0
 72 74  1  0  0  0
 72150  1  0  0  0
 73 75  2  0  0  0
 73 82  1  0  0  0
 74 83  2  0  0  0
 74 85  1  0  0  0
 75 83  1  0  0  0
 75 84  1  0  0  0
 76 80  1  0  0  0
 76 84  1  0  0  0
 76 86  2  0  0  0
 77151  1  0  0  0
 77152  1  0  0  0
 77153  1  0  0  0
 77 80  1  0  0  0
 78154  1  0  0  0
 78155  1  0  0  0
 78156  1  0  0  0
 78 81  1  0  0  0
 79 80  1  0  0  0
 79 81  1  0  0  0
 79157  1  0  0  0
 79158  1  0  0  0
 80159  1  0  0  0
 81160  1  0  0  0
 82 87  1  0  0  0
 82 88  1  0  0  0
 82 89  1  0  0  0
 84161  1  0  0  0
 85162  1  0  0  0
M  ISO  4   1 100  68 101  81 101  85 100
M  END
> <chiral flag>
0

> <version>
0

> <s_m_source_file>
/data/baiqing/PycharmProjects/Reinvent-master-3.2/result/LINK_invent/BTK/process_docking_weight1_custom_product_contain_oxygen_bond_distance_aromatic_linkinvent_7_9_3/rearranged_h_0188.sdf

> <i_m_source_file_index>
31

> <r_mmod_Potential_Energy-OPLS-2005>
-25.2088241577148

> <r_mmod_Stretch_Energy-OPLS-2005>
71.1513061523438

> <r_mmod_Bend_Energy-OPLS-2005>
141.690704345703

> <r_mmod_Torsional_Energy-OPLS-2005>
319.953918457031

> <r_mmod_Improper_Torsional_Energy-OPLS-2005>
9.21056747436523

> <r_mmod_Van_der_Waal_Energy-OPLS-2005>
157.673919677734

> <r_mmod_Electrostatic_Energy-OPLS-2005>
-531.05029296875

> <r_mmod_Solvation_Energy-OPLS-2005>
-231.695068359375

> <b_mmod_Minimization_Converged-OPLS-2005>
0

> <r_mmod_RMS_Derivative-OPLS-2005>
1.46413946151733

$$$$
32
                    3D
 Structure written by MMmdl.
155163  0  0  1  0            999 V2000
  -30.6899  -14.5382   20.5704 C   0  0  0  0  0  0
  -30.4291  -12.3492   19.4392 C   0  0  0  0  0  0
  -29.5028  -12.5072   18.2161 C   0  0  0  0  0  0
  -28.0244  -12.3553   18.6247 C   0  0  0  0  0  0
  -27.6568  -13.2133   19.8648 C   0  0  2  0  0  0
  -28.6982  -13.0380   20.9928 C   0  0  0  0  0  0
  -25.2577  -13.8191   20.5665 C   0  0  0  0  0  0
  -24.1838  -13.0454   20.9182 C   0  0  0  0  0  0
  -24.6398  -11.6920   20.8727 C   0  0  0  0  0  0
  -23.9059  -10.4304   21.0396 C   0  0  0  0  0  0
  -24.3617   -9.4217   21.9167 C   0  0  0  0  0  0
  -23.6298   -8.2249   22.0738 C   0  0  0  0  0  0
  -22.4276   -8.0288   21.3547 C   0  0  0  0  0  0
  -21.9913   -9.0254   20.4637 C   0  0  0  0  0  0
  -22.7232  -10.2138   20.3041 C   0  0  0  0  0  0
  -21.6855   -6.0739   22.5281 C   0  0  0  0  0  0
  -21.4010   -6.5641   23.8216 C   0  0  0  0  0  0
  -21.3660   -5.6793   24.9175 C   0  0  0  0  0  0
  -21.6052   -4.3058   24.7226 C   0  0  0  0  0  0
  -21.8820   -3.8150   23.4345 C   0  0  0  0  0  0
  -21.9194   -4.6969   22.3403 C   0  0  0  0  0  0
  -22.7858  -13.5243   21.1846 C   0  0  0  0  0  0
  -22.1658   -4.2164   21.0978 F   0  0  0  0  0  0
  -21.5637   -3.4535   25.7733 F   0  0  0  0  0  0
  -30.0228  -13.3546   20.4358 N   0  0  0  0  0  0
  -26.3002  -12.9356   20.3305 N   0  0  0  0  0  0
  -25.9326  -11.6518   20.5739 N   0  0  0  0  0  0
  -22.0499  -12.8230   22.0411 N   0  0  0  0  0  0
  -25.4333  -15.1899   20.4078 N   0  0  0  0  0  0
  -31.8283  -14.7058   20.1276 O   0  0  0  0  0  0
  -21.6643   -6.8880   21.4242 O   0  0  0  0  0  0
  -22.3534  -14.5542   20.6687 O   0  0  0  0  0  0
  -24.6177  -31.8653   23.2068 C   0  0  0  0  0  0
  -25.9053  -32.4813   23.8374 C   0  0  1  0  0  0
  -27.2275  -27.3910   20.1247 C   0  0  0  0  0  0
  -25.5892  -33.8610   24.2310 N   0  0  0  0  0  0
  -23.4083  -30.4882   21.5481 C   0  0  2  0  0  0
  -24.8559  -28.9496   20.1135 C   0  0  0  0  0  0
  -22.7431  -29.4645   22.4977 C   0  0  0  0  0  0
  -18.0269  -28.1360   22.8501 C   0  0  0  0  0  0
  -24.1485  -36.7313   23.2641 C   0  0  0  0  0  0
  -25.9404  -30.8223   21.3623 C   0  0  0  0  0  0
  -26.0192  -29.4529   20.7114 C   0  0  0  0  0  0
  -27.2119  -28.6853   20.7052 C   0  0  0  0  0  0
  -26.0505  -26.9173   19.5072 C   0  0  0  0  0  0
  -24.8696  -27.6841   19.5021 C   0  0  0  0  0  0
  -23.6190  -29.8207   20.1630 C   0  0  0  0  0  0
  -25.4101  -36.3113   24.0345 C   0  0  1  0  0  0
  -20.5869  -28.3656   23.1314 C   0  0  2  0  0  0
  -20.6762  -26.9391   22.5418 C   0  0  0  0  0  0
  -19.5735  -26.6375   21.5217 C   0  0  0  0  0  0
  -18.1915  -26.7907   22.1633 C   0  0  0  0  0  0
  -19.1524  -28.8820   23.2906 C   0  0  0  0  0  0
  -18.9453  -30.1427   23.8916 C   0  0  0  0  0  0
  -17.6459  -30.6575   24.0561 C   0  0  0  0  0  0
  -25.9028  -34.9479   23.5132 C   0  0  0  0  0  0
  -16.5345  -29.9079   23.6327 C   0  0  0  0  0  0
  -16.7262  -28.6490   23.0356 C   0  0  0  0  0  0
  -26.4460  -31.6589   25.0705 C   0  0  0  0  0  0
  -25.3732  -31.3704   26.1463 C   0  0  0  0  0  0
  -27.0279  -30.3029   24.6076 C   0  0  0  0  0  0
  -27.6030  -32.4305   25.7471 C   0  0  0  0  0  0
  -27.5582  -37.1807   24.8467 C   0  0  0  0  0  0
  -21.4149  -29.3034   22.3728 N   0  0  0  0  0  0
  -26.4289  -37.3793   23.9419 N   0  0  0  0  0  0
  -24.6744  -31.0730   22.0981 N   0  0  0  0  0  0
  -23.4189  -28.8194   23.3037 O   0  0  0  0  0  0
  -28.3580  -26.5897   20.1542 O   0  0  0  0  0  0
  -26.5605  -34.8933   22.4700 O   0  0  0  0  0  0
  -23.5360  -32.1419   23.7442 O   0  0  0  0  0  0
  -29.7778  -17.8866   19.1090 C   0  0  0  0  0  0
  -29.9926  -18.0393   20.4550 C   0  0  0  0  0  0
  -29.4357  -20.2128   19.8712 C   0  0  0  0  0  0
  -29.9774  -22.7416   21.9694 C   0  0  0  0  0  0
  -30.4644  -16.9380   21.4038 C   0  0  0  0  0  0
  -28.1934  -25.2918   20.7979 C   0  0  0  0  0  0
  -28.9415  -22.7137   20.8376 C   0  0  1  0  0  0
  -28.8815  -24.0901   20.0582 C   0  0  1  0  0  0
  -29.7707  -19.3802   20.8791 N   0  0  0  0  0  0
  -29.2001  -21.5999   19.9060 N   0  0  0  0  0  0
  -29.9883  -15.5634   21.1039 N   0  0  0  0  0  0
  -28.1335  -23.8489   18.8765 O   0  0  0  0  0  0
  -29.3307  -19.3794   18.3251 S   0  0  0  0  0  0
  -31.4718  -12.4584   19.1384 H   0  0  0  0  0  0
  -30.3455  -11.3462   19.8608 H   0  0  0  0  0  0
  -29.7604  -11.7706   17.4539 H   0  0  0  0  0  0
  -29.6614  -13.4866   17.7612 H   0  0  0  0  0  0
  -27.8475  -11.3005   18.8378 H   0  0  0  0  0  0
  -27.3754  -12.6078   17.7847 H   0  0  0  0  0  0
  -27.6880  -14.2543   19.5426 H   0  0  0  0  0  0
  -28.6900  -12.0124   21.3637 H   0  0  0  0  0  0
  -28.4473  -13.6626   21.8511 H   0  0  0  0  0  0
  -25.2758   -9.5706   22.4745 H   0  0  0  0  0  0
  -24.0024   -7.4639   22.7447 H   0  0  0  0  0  0
  -21.0853   -8.8760   19.8937 H   0  0  0  0  0  0
  -22.3676  -10.9677   19.6157 H   0  0  0  0  0  0
  -21.1987   -7.6146   23.9726 H   0  0  0  0  0  0
  -21.1486   -6.0514   25.9083 H   0  0  0  0  0  0
  -22.0598   -2.7615   23.2835 H   0  0  0  0  0  0
  -22.4097  -11.9888   22.4811 H   0  0  0  0  0  0
  -21.1113  -13.1255   22.2598 H   0  0  0  0  0  0
  -24.6736  -15.8534   20.5127 H   0  0  0  0  0  0
  -26.2915  -15.6241   20.0917 H   0  0  0  0  0  0
  -26.7126  -32.5521   23.1135 H   0  0  0  0  0  0
  -25.0034  -33.9751   25.0454 H   0  0  0  0  0  0
  -22.7000  -31.3072   21.4078 H   0  0  0  0  0  0
  -23.3746  -35.9647   23.3299 H   0  0  0  0  0  0
  -24.3591  -36.8919   22.2057 H   0  0  0  0  0  0
  -23.7231  -37.6517   23.6646 H   0  0  0  0  0  0
  -26.0526  -31.5850   20.5900 H   0  0  0  0  0  0
  -26.8292  -30.8800   21.9791 H   0  0  0  0  0  0
  -28.1089  -29.0694   21.1712 H   0  0  0  0  0  0
  -26.0401  -25.9433   19.0394 H   0  0  0  0  0  0
  -23.9786  -27.2894   19.0326 H   0  0  0  0  0  0
  -23.7321  -30.5969   19.4053 H   0  0  0  0  0  0
  -22.7416  -29.2439   19.8653 H   0  0  0  0  0  0
  -25.1274  -36.1975   25.0836 H   0  0  0  0  0  0
  -20.9957  -28.3211   24.1433 H   0  0  0  0  0  0
  -20.5655  -26.2266   23.3605 H   0  0  0  0  0  0
  -21.6630  -26.7426   22.1214 H   0  0  0  0  0  0
  -19.6900  -25.6293   21.1224 H   0  0  0  0  0  0
  -19.6661  -27.3207   20.6763 H   0  0  0  0  0  0
  -17.4187  -26.6661   21.4028 H   0  0  0  0  0  0
  -18.0311  -26.0031   22.9011 H   0  0  0  0  0  0
  -19.7930  -30.7232   24.2294 H   0  0  0  0  0  0
  -17.5015  -31.6259   24.5152 H   0  0  0  0  0  0
  -15.5347  -30.2992   23.7620 H   0  0  0  0  0  0
  -15.8659  -28.0807   22.7070 H   0  0  0  0  0  0
  -24.5900  -30.7038   25.7821 H   0  0  0  0  0  0
  -24.8924  -32.2862   26.4915 H   0  0  0  0  0  0
  -25.8096  -30.8885   27.0221 H   0  0  0  0  0  0
  -26.2817  -29.6803   24.1116 H   0  0  0  0  0  0
  -27.4038  -29.7238   25.4520 H   0  0  0  0  0  0
  -27.8659  -30.4340   23.9226 H   0  0  0  0  0  0
  -27.2641  -33.3592   26.2070 H   0  0  0  0  0  0
  -28.3830  -32.6877   25.0295 H   0  0  0  0  0  0
  -28.0707  -31.8418   26.5370 H   0  0  0  0  0  0
  -28.2597  -38.0107   24.7525 H   0  0  0  0  0  0
  -28.1079  -36.2641   24.6271 H   0  0  0  0  0  0
  -27.2314  -37.1438   25.8873 H   0  0  0  0  0  0
  -20.9302  -29.8778   21.6972 H   0  0  0  0  0  0
  -26.0181  -38.2872   24.1414 H   0  0  0  0  0  0
  -29.8875  -16.9824   18.5240 H   0  0  0  0  0  0
  -29.7278  -23.4982   22.7134 H   0  0  0  0  0  0
  -30.9743  -22.9672   21.5920 H   0  0  0  0  0  0
  -30.0282  -21.7854   22.4913 H   0  0  0  0  0  0
  -30.1520  -17.1694   22.4224 H   0  0  0  0  0  0
  -31.5558  -16.9410   21.4423 H   0  0  0  0  0  0
  -28.6439  -25.3959   21.7854 H   0  0  0  0  0  0
  -27.1488  -25.0466   20.9996 H   0  0  0  0  0  0
  -27.9597  -22.5322   21.2782 H   0  0  0  0  0  0
  -29.8922  -24.3875   19.7715 H   0  0  0  0  0  0
  -28.9522  -21.9555   18.9816 H   0  0  0  0  0  0
  -29.0428  -15.3556   21.3843 H   0  0  0  0  0  0
  -28.0503  -24.6890   18.4369 H   0  0  0  0  0  0
  1 25  1  0  0  0
  1 30  2  0  0  0
  1 81  1  0  0  0
  2  3  1  0  0  0
  2 25  1  0  0  0
  2 84  1  0  0  0
  2 85  1  0  0  0
  3  4  1  0  0  0
  3 86  1  0  0  0
  3 87  1  0  0  0
  4  5  1  0  0  0
  4 88  1  0  0  0
  4 89  1  0  0  0
  5  6  1  0  0  0
  5 26  1  0  0  0
  5 90  1  0  0  0
  6 25  1  0  0  0
  6 91  1  0  0  0
  6 92  1  0  0  0
  7  8  2  0  0  0
  7 26  1  0  0  0
  7 29  1  0  0  0
  8  9  1  0  0  0
  8 22  1  0  0  0
  9 10  1  0  0  0
  9 27  2  0  0  0
 10 11  2  0  0  0
 10 15  1  0  0  0
 11 12  1  0  0  0
 11 93  1  0  0  0
 12 13  2  0  0  0
 12 94  1  0  0  0
 13 14  1  0  0  0
 13 31  1  0  0  0
 14 15  2  0  0  0
 14 95  1  0  0  0
 15 96  1  0  0  0
 16 17  2  0  0  0
 16 21  1  0  0  0
 16 31  1  0  0  0
 17 18  1  0  0  0
 17 97  1  0  0  0
 18 19  2  0  0  0
 18 98  1  0  0  0
 19 20  1  0  0  0
 19 24  1  0  0  0
 20 21  2  0  0  0
 20 99  1  0  0  0
 21 23  1  0  0  0
 22 28  1  0  0  0
 22 32  2  0  0  0
 26 27  1  0  0  0
 28100  1  0  0  0
 28101  1  0  0  0
 29102  1  0  0  0
 29103  1  0  0  0
 33 34  1  0  0  0
 33 66  1  0  0  0
 33 70  2  0  0  0
 34 36  1  0  0  0
 34 59  1  0  0  0
 34104  1  0  0  0
 35 44  2  0  0  0
 35 45  1  0  0  0
 35 68  1  0  0  0
 36 56  1  0  0  0
 36105  1  0  0  0
 37 39  1  0  0  0
 37 47  1  0  0  0
 37 66  1  0  0  0
 37106  1  0  0  0
 38 43  2  0  0  0
 38 46  1  0  0  0
 38 47  1  0  0  0
 39 64  1  0  0  0
 39 67  2  0  0  0
 40 52  1  0  0  0
 40 53  2  0  0  0
 40 58  1  0  0  0
 41107  1  0  0  0
 41108  1  0  0  0
 41109  1  0  0  0
 41 48  1  0  0  0
 42 43  1  0  0  0
 42 66  1  0  0  0
 42110  1  0  0  0
 42111  1  0  0  0
 43 44  1  0  0  0
 44112  1  0  0  0
 45 46  2  0  0  0
 45113  1  0  0  0
 46114  1  0  0  0
 47115  1  0  0  0
 47116  1  0  0  0
 48 56  1  0  0  0
 48 65  1  0  0  0
 48117  1  0  0  0
 49 50  1  0  0  0
 49 53  1  0  0  0
 49 64  1  0  0  0
 49118  1  0  0  0
 50 51  1  0  0  0
 50119  1  0  0  0
 50120  1  0  0  0
 51 52  1  0  0  0
 51121  1  0  0  0
 51122  1  0  0  0
 52123  1  0  0  0
 52124  1  0  0  0
 53 54  1  0  0  0
 54 55  2  0  0  0
 54125  1  0  0  0
 55 57  1  0  0  0
 55126  1  0  0  0
 56 69  2  0  0  0
 57 58  2  0  0  0
 57127  1  0  0  0
 58128  1  0  0  0
 59 60  1  0  0  0
 59 61  1  0  0  0
 59 62  1  0  0  0
 60129  1  0  0  0
 60130  1  0  0  0
 60131  1  0  0  0
 61132  1  0  0  0
 61133  1  0  0  0
 61134  1  0  0  0
 62135  1  0  0  0
 62136  1  0  0  0
 62137  1  0  0  0
 63 65  1  0  0  0
 63138  1  0  0  0
 63139  1  0  0  0
 63140  1  0  0  0
 64141  1  0  0  0
 65142  1  0  0  0
 68 76  1  0  0  0
 71 72  2  0  0  0
 71 83  1  0  0  0
 71143  1  0  0  0
 72 75  1  0  0  0
 72 79  1  0  0  0
 73 79  2  0  0  0
 73 80  1  0  0  0
 73 83  1  0  0  0
 74144  1  0  0  0
 74145  1  0  0  0
 74146  1  0  0  0
 74 77  1  0  0  0
 75 81  1  0  0  0
 75147  1  0  0  0
 75148  1  0  0  0
 76 78  1  0  0  0
 76149  1  0  0  0
 76150  1  0  0  0
 77 78  1  0  0  0
 77 80  1  0  0  0
 77151  1  0  0  0
 78 82  1  0  0  0
 78152  1  0  0  0
 80153  1  0  0  0
 81154  1  0  0  0
 82155  1  0  0  0
M  ISO  4   1 100  68 101  76 101  81 100
M  END
> <chiral flag>
0

> <version>
0

> <s_m_source_file>
/data/baiqing/PycharmProjects/Reinvent-master-3.2/result/LINK_invent/BTK/process_docking_weight1_custom_product_contain_oxygen_bond_distance_aromatic_linkinvent_7_9_3/rearranged_h_0188.sdf

> <i_m_source_file_index>
32

> <r_mmod_Potential_Energy-OPLS-2005>
-278.364105224609

> <r_mmod_Stretch_Energy-OPLS-2005>
48.1244850158691

> <r_mmod_Bend_Energy-OPLS-2005>
111.925079345703

> <r_mmod_Torsional_Energy-OPLS-2005>
237.260101318359

> <r_mmod_Improper_Torsional_Energy-OPLS-2005>
3.43008923530579

> <r_mmod_Van_der_Waal_Energy-OPLS-2005>
123.629936218262

> <r_mmod_Electrostatic_Energy-OPLS-2005>
-594.173706054688

> <r_mmod_Solvation_Energy-OPLS-2005>
-231.923187255859

> <b_mmod_Minimization_Converged-OPLS-2005>
0

> <r_mmod_RMS_Derivative-OPLS-2005>
1.88336169719696

$$$$
33
                    3D
 Structure written by MMmdl.
158166  0  0  1  0            999 V2000
  -30.6552  -14.5383   20.5083 C   0  0  0  0  0  0
  -30.4312  -12.3283   19.4362 C   0  0  0  0  0  0
  -29.5019  -12.5004   18.2145 C   0  0  0  0  0  0
  -28.0215  -12.3596   18.6244 C   0  0  0  0  0  0
  -27.6594  -13.2108   19.8703 C   0  0  2  0  0  0
  -28.7024  -13.0158   20.9952 C   0  0  0  0  0  0
  -25.2591  -13.8168   20.5691 C   0  0  0  0  0  0
  -24.1844  -13.0437   20.9182 C   0  0  0  0  0  0
  -24.6398  -11.6906   20.8732 C   0  0  0  0  0  0
  -23.9064  -10.4294   21.0408 C   0  0  0  0  0  0
  -24.3621   -9.4198   21.9177 C   0  0  0  0  0  0
  -23.6294   -8.2236   22.0748 C   0  0  0  0  0  0
  -22.4269   -8.0285   21.3548 C   0  0  0  0  0  0
  -21.9911   -9.0252   20.4645 C   0  0  0  0  0  0
  -22.7243  -10.2132   20.3051 C   0  0  0  0  0  0
  -21.6847   -6.0740   22.5279 C   0  0  0  0  0  0
  -21.4018   -6.5637   23.8217 C   0  0  0  0  0  0
  -21.3663   -5.6786   24.9171 C   0  0  0  0  0  0
  -21.6042   -4.3049   24.7217 C   0  0  0  0  0  0
  -21.8821   -3.8147   23.4336 C   0  0  0  0  0  0
  -21.9194   -4.6971   22.3396 C   0  0  0  0  0  0
  -22.7863  -13.5233   21.1845 C   0  0  0  0  0  0
  -22.1662   -4.2157   21.0976 F   0  0  0  0  0  0
  -21.5626   -3.4535   25.7730 F   0  0  0  0  0  0
  -30.0303  -13.3285   20.4410 N   0  0  0  0  0  0
  -26.3021  -12.9344   20.3350 N   0  0  0  0  0  0
  -25.9329  -11.6498   20.5759 N   0  0  0  0  0  0
  -22.0501  -12.8234   22.0403 N   0  0  0  0  0  0
  -25.4302  -15.1890   20.4117 N   0  0  0  0  0  0
  -31.8091  -14.7099   20.1122 O   0  0  0  0  0  0
  -21.6642   -6.8881   21.4238 O   0  0  0  0  0  0
  -22.3551  -14.5533   20.6680 O   0  0  0  0  0  0
  -24.6181  -31.8651   23.2063 C   0  0  0  0  0  0
  -25.9052  -32.4811   23.8374 C   0  0  1  0  0  0
  -27.2346  -27.4027   20.0995 C   0  0  0  0  0  0
  -25.5898  -33.8609   24.2299 N   0  0  0  0  0  0
  -23.4067  -30.4891   21.5473 C   0  0  2  0  0  0
  -24.8522  -28.9500   20.1116 C   0  0  0  0  0  0
  -22.7422  -29.4657   22.4969 C   0  0  0  0  0  0
  -18.0274  -28.1379   22.8489 C   0  0  0  0  0  0
  -24.1482  -36.7312   23.2638 C   0  0  0  0  0  0
  -25.9382  -30.8229   21.3611 C   0  0  0  0  0  0
  -26.0141  -29.4562   20.7054 C   0  0  0  0  0  0
  -27.2053  -28.6912   20.6903 C   0  0  0  0  0  0
  -26.0502  -26.9189   19.4973 C   0  0  0  0  0  0
  -24.8672  -27.6834   19.5030 C   0  0  0  0  0  0
  -23.6153  -29.8196   20.1622 C   0  0  0  0  0  0
  -25.4107  -36.3105   24.0331 C   0  0  1  0  0  0
  -20.5869  -28.3669   23.1297 C   0  0  2  0  0  0
  -20.6759  -26.9399   22.5406 C   0  0  0  0  0  0
  -19.5738  -26.6382   21.5203 C   0  0  0  0  0  0
  -18.1922  -26.7926   22.1617 C   0  0  0  0  0  0
  -19.1526  -28.8844   23.2891 C   0  0  0  0  0  0
  -18.9455  -30.1451   23.8901 C   0  0  0  0  0  0
  -17.6457  -30.6583   24.0572 C   0  0  0  0  0  0
  -25.9040  -34.9472   23.5118 C   0  0  0  0  0  0
  -16.5348  -29.9087   23.6330 C   0  0  0  0  0  0
  -16.7267  -28.6505   23.0348 C   0  0  0  0  0  0
  -26.4473  -31.6610   25.0721 C   0  0  0  0  0  0
  -25.3741  -31.3737   26.1478 C   0  0  0  0  0  0
  -27.0315  -30.3050   24.6124 C   0  0  0  0  0  0
  -27.6038  -32.4346   25.7490 C   0  0  0  0  0  0
  -27.5577  -37.1811   24.8462 C   0  0  0  0  0  0
  -21.4147  -29.3037   22.3702 N   0  0  0  0  0  0
  -26.4287  -37.3792   23.9416 N   0  0  0  0  0  0
  -24.6731  -31.0741   22.0968 N   0  0  0  0  0  0
  -23.4185  -28.8198   23.3018 O   0  0  0  0  0  0
  -28.4041  -26.6557   20.1691 O   0  0  0  0  0  0
  -26.5598  -34.8930   22.4677 O   0  0  0  0  0  0
  -23.5362  -32.1412   23.7449 O   0  0  0  0  0  0
  -30.2048  -19.0698   19.6863 C   0  0  0  0  0  0
  -30.4248  -17.6520   19.5467 C   0  0  0  0  0  0
  -29.5316  -19.4613   20.8158 C   0  0  0  0  0  0
  -29.9358  -16.9201   20.6265 C   0  0  0  0  0  0
  -29.2056  -21.9172   20.6317 C   0  0  0  0  0  0
  -28.5873  -22.8517   22.9555 C   0  0  0  0  0  0
  -28.4426  -25.2503   19.7884 C   0  0  0  0  0  0
  -28.9254  -23.2042   21.4795 C   0  0  2  0  0  0
  -27.8919  -24.2195   20.8402 C   0  0  1  0  0  0
  -31.0988  -17.1293   18.2950 C   0  0  0  0  0  0
  -29.1747  -20.7114   21.2569 N   0  0  0  0  0  0
  -29.8689  -15.5712   20.9014 N   0  0  0  0  0  0
  -29.4501  -22.0344   19.4294 O   0  0  0  0  0  0
  -27.2113  -24.9658   21.8414 O   0  0  0  0  0  0
  -32.3972  -16.9094   18.4930 F   0  0  0  0  0  0
  -30.5332  -16.0082   17.8482 F   0  0  0  0  0  0
  -31.0142  -18.0072   17.2934 F   0  0  0  0  0  0
  -29.1755  -18.0307   21.7620 S   0  0  0  0  0  0
  -31.4752  -12.4363   19.1365 H   0  0  0  0  0  0
  -30.3401  -11.3222   19.8478 H   0  0  0  0  0  0
  -29.7470  -11.7635   17.4491 H   0  0  0  0  0  0
  -29.6671  -13.4782   17.7592 H   0  0  0  0  0  0
  -27.8342  -11.3051   18.8300 H   0  0  0  0  0  0
  -27.3720  -12.6240   17.7895 H   0  0  0  0  0  0
  -27.6924  -14.2541   19.5550 H   0  0  0  0  0  0
  -28.6859  -11.9856   21.3533 H   0  0  0  0  0  0
  -28.4626  -13.6314   21.8636 H   0  0  0  0  0  0
  -25.2763   -9.5675   22.4754 H   0  0  0  0  0  0
  -24.0003   -7.4627   22.7462 H   0  0  0  0  0  0
  -21.0844   -8.8774   19.8957 H   0  0  0  0  0  0
  -22.3698  -10.9671   19.6165 H   0  0  0  0  0  0
  -21.2016   -7.6148   23.9723 H   0  0  0  0  0  0
  -21.1483   -6.0515   25.9078 H   0  0  0  0  0  0
  -22.0601   -2.7612   23.2832 H   0  0  0  0  0  0
  -22.4114  -11.9898   22.4810 H   0  0  0  0  0  0
  -21.1117  -13.1270   22.2600 H   0  0  0  0  0  0
  -24.6612  -15.8413   20.5193 H   0  0  0  0  0  0
  -26.2802  -15.6314   20.0845 H   0  0  0  0  0  0
  -26.7128  -32.5506   23.1135 H   0  0  0  0  0  0
  -25.0073  -33.9765   25.0462 H   0  0  0  0  0  0
  -22.6969  -31.3067   21.4064 H   0  0  0  0  0  0
  -23.3741  -35.9649   23.3312 H   0  0  0  0  0  0
  -24.3574  -36.8920   22.2052 H   0  0  0  0  0  0
  -23.7240  -37.6519   23.6653 H   0  0  0  0  0  0
  -26.0536  -31.5901   20.5938 H   0  0  0  0  0  0
  -26.8246  -30.8750   21.9817 H   0  0  0  0  0  0
  -28.1019  -29.0805   21.1518 H   0  0  0  0  0  0
  -26.0078  -25.9455   19.0340 H   0  0  0  0  0  0
  -23.9720  -27.2869   19.0449 H   0  0  0  0  0  0
  -23.7250  -30.5939   19.4018 H   0  0  0  0  0  0
  -22.7378  -29.2407   19.8654 H   0  0  0  0  0  0
  -25.1291  -36.1965   25.0822 H   0  0  0  0  0  0
  -20.9974  -28.3244   24.1415 H   0  0  0  0  0  0
  -20.5648  -26.2292   23.3608 H   0  0  0  0  0  0
  -21.6636  -26.7429   22.1214 H   0  0  0  0  0  0
  -19.6899  -25.6295   21.1231 H   0  0  0  0  0  0
  -19.6674  -27.3198   20.6739 H   0  0  0  0  0  0
  -17.4191  -26.6677   21.4019 H   0  0  0  0  0  0
  -18.0322  -26.0062   22.9007 H   0  0  0  0  0  0
  -19.7936  -30.7262   24.2269 H   0  0  0  0  0  0
  -17.5019  -31.6265   24.5172 H   0  0  0  0  0  0
  -15.5355  -30.2994   23.7653 H   0  0  0  0  0  0
  -15.8666  -28.0833   22.7054 H   0  0  0  0  0  0
  -24.5885  -30.7114   25.7827 H   0  0  0  0  0  0
  -24.8973  -32.2908   26.4950 H   0  0  0  0  0  0
  -25.8093  -30.8888   27.0226 H   0  0  0  0  0  0
  -26.2871  -29.6806   24.1171 H   0  0  0  0  0  0
  -27.4071  -29.7295   25.4597 H   0  0  0  0  0  0
  -27.8710  -30.4366   23.9291 H   0  0  0  0  0  0
  -27.2634  -33.3628   26.2096 H   0  0  0  0  0  0
  -28.3834  -32.6946   25.0316 H   0  0  0  0  0  0
  -28.0728  -31.8468   26.5390 H   0  0  0  0  0  0
  -28.2604  -38.0098   24.7518 H   0  0  0  0  0  0
  -28.1060  -36.2638   24.6281 H   0  0  0  0  0  0
  -27.2299  -37.1458   25.8862 H   0  0  0  0  0  0
  -20.9311  -29.8766   21.6926 H   0  0  0  0  0  0
  -26.0174  -38.2867   24.1417 H   0  0  0  0  0  0
  -30.5506  -19.7572   18.9281 H   0  0  0  0  0  0
  -29.2989  -22.1530   23.3968 H   0  0  0  0  0  0
  -27.5869  -22.4275   23.0457 H   0  0  0  0  0  0
  -28.6253  -23.7388   23.5891 H   0  0  0  0  0  0
  -27.9727  -25.1001   18.8166 H   0  0  0  0  0  0
  -29.4919  -25.0199   19.6011 H   0  0  0  0  0  0
  -29.8850  -23.7207   21.5260 H   0  0  0  0  0  0
  -27.1241  -23.6278   20.3375 H   0  0  0  0  0  0
  -28.8642  -20.7581   22.2183 H   0  0  0  0  0  0
  -29.0404  -15.2779   21.3986 H   0  0  0  0  0  0
  -27.2541  -25.8787   21.5637 H   0  0  0  0  0  0
  1 25  1  0  0  0
  1 30  2  0  0  0
  1 82  1  0  0  0
  2  3  1  0  0  0
  2 25  1  0  0  0
  2 89  1  0  0  0
  2 90  1  0  0  0
  3  4  1  0  0  0
  3 91  1  0  0  0
  3 92  1  0  0  0
  4  5  1  0  0  0
  4 93  1  0  0  0
  4 94  1  0  0  0
  5  6  1  0  0  0
  5 26  1  0  0  0
  5 95  1  0  0  0
  6 25  1  0  0  0
  6 96  1  0  0  0
  6 97  1  0  0  0
  7  8  2  0  0  0
  7 26  1  0  0  0
  7 29  1  0  0  0
  8  9  1  0  0  0
  8 22  1  0  0  0
  9 10  1  0  0  0
  9 27  2  0  0  0
 10 11  2  0  0  0
 10 15  1  0  0  0
 11 12  1  0  0  0
 11 98  1  0  0  0
 12 13  2  0  0  0
 12 99  1  0  0  0
 13 14  1  0  0  0
 13 31  1  0  0  0
 14 15  2  0  0  0
 14100  1  0  0  0
 15101  1  0  0  0
 16 17  2  0  0  0
 16 21  1  0  0  0
 16 31  1  0  0  0
 17 18  1  0  0  0
 17102  1  0  0  0
 18 19  2  0  0  0
 18103  1  0  0  0
 19 20  1  0  0  0
 19 24  1  0  0  0
 20 21  2  0  0  0
 20104  1  0  0  0
 21 23  1  0  0  0
 22 28  1  0  0  0
 22 32  2  0  0  0
 26 27  1  0  0  0
 28105  1  0  0  0
 28106  1  0  0  0
 29107  1  0  0  0
 29108  1  0  0  0
 33 34  1  0  0  0
 33 66  1  0  0  0
 33 70  2  0  0  0
 34 36  1  0  0  0
 34 59  1  0  0  0
 34109  1  0  0  0
 35 44  2  0  0  0
 35 45  1  0  0  0
 35 68  1  0  0  0
 36 56  1  0  0  0
 36110  1  0  0  0
 37 39  1  0  0  0
 37 47  1  0  0  0
 37 66  1  0  0  0
 37111  1  0  0  0
 38 43  2  0  0  0
 38 46  1  0  0  0
 38 47  1  0  0  0
 39 64  1  0  0  0
 39 67  2  0  0  0
 40 52  1  0  0  0
 40 53  2  0  0  0
 40 58  1  0  0  0
 41112  1  0  0  0
 41113  1  0  0  0
 41114  1  0  0  0
 41 48  1  0  0  0
 42 43  1  0  0  0
 42 66  1  0  0  0
 42115  1  0  0  0
 42116  1  0  0  0
 43 44  1  0  0  0
 44117  1  0  0  0
 45 46  2  0  0  0
 45118  1  0  0  0
 46119  1  0  0  0
 47120  1  0  0  0
 47121  1  0  0  0
 48 56  1  0  0  0
 48 65  1  0  0  0
 48122  1  0  0  0
 49 50  1  0  0  0
 49 53  1  0  0  0
 49 64  1  0  0  0
 49123  1  0  0  0
 50 51  1  0  0  0
 50124  1  0  0  0
 50125  1  0  0  0
 51 52  1  0  0  0
 51126  1  0  0  0
 51127  1  0  0  0
 52128  1  0  0  0
 52129  1  0  0  0
 53 54  1  0  0  0
 54 55  2  0  0  0
 54130  1  0  0  0
 55 57  1  0  0  0
 55131  1  0  0  0
 56 69  2  0  0  0
 57 58  2  0  0  0
 57132  1  0  0  0
 58133  1  0  0  0
 59 60  1  0  0  0
 59 61  1  0  0  0
 59 62  1  0  0  0
 60134  1  0  0  0
 60135  1  0  0  0
 60136  1  0  0  0
 61137  1  0  0  0
 61138  1  0  0  0
 61139  1  0  0  0
 62140  1  0  0  0
 62141  1  0  0  0
 62142  1  0  0  0
 63 65  1  0  0  0
 63143  1  0  0  0
 63144  1  0  0  0
 63145  1  0  0  0
 64146  1  0  0  0
 65147  1  0  0  0
 68 77  1  0  0  0
 71 72  1  0  0  0
 71 73  2  0  0  0
 71148  1  0  0  0
 72 74  2  0  0  0
 72 80  1  0  0  0
 73 81  1  0  0  0
 73 88  1  0  0  0
 74 82  1  0  0  0
 74 88  1  0  0  0
 75 78  1  0  0  0
 75 81  1  0  0  0
 75 83  2  0  0  0
 76149  1  0  0  0
 76150  1  0  0  0
 76151  1  0  0  0
 76 78  1  0  0  0
 77 79  1  0  0  0
 77152  1  0  0  0
 77153  1  0  0  0
 78 79  1  0  0  0
 78154  1  0  0  0
 79 84  1  0  0  0
 79155  1  0  0  0
 80 85  1  0  0  0
 80 86  1  0  0  0
 80 87  1  0  0  0
 81156  1  0  0  0
 82157  1  0  0  0
 84158  1  0  0  0
M  ISO  4   1 100  68 101  77 101  82 100
M  END
> <chiral flag>
0

> <version>
0

> <s_m_source_file>
/data/baiqing/PycharmProjects/Reinvent-master-3.2/result/LINK_invent/BTK/process_docking_weight1_custom_product_contain_oxygen_bond_distance_aromatic_linkinvent_7_9_3/rearranged_h_0188.sdf

> <i_m_source_file_index>
33

> <r_mmod_Potential_Energy-OPLS-2005>
52.3159332275391

> <r_mmod_Stretch_Energy-OPLS-2005>
51.994457244873

> <r_mmod_Bend_Energy-OPLS-2005>
143.266723632812

> <r_mmod_Torsional_Energy-OPLS-2005>
283.567077636719

> <r_mmod_Improper_Torsional_Energy-OPLS-2005>
3.90395951271057

> <r_mmod_Van_der_Waal_Energy-OPLS-2005>
140.445648193359

> <r_mmod_Electrostatic_Energy-OPLS-2005>
-373.894165039062

> <r_mmod_Solvation_Energy-OPLS-2005>
-219.225845336914

> <b_mmod_Minimization_Converged-OPLS-2005>
0

> <r_mmod_RMS_Derivative-OPLS-2005>
1.75801157951355

$$$$
34
                    3D
 Structure written by MMmdl.
156164  0  0  1  0            999 V2000
  -30.6876  -14.5221   20.4847 C   0  0  0  0  0  0
  -30.4175  -12.3102   19.4516 C   0  0  0  0  0  0
  -29.5003  -12.4716   18.2203 C   0  0  0  0  0  0
  -28.0196  -12.3450   18.6278 C   0  0  0  0  0  0
  -27.6539  -13.2134   19.8621 C   0  0  2  0  0  0
  -28.6957  -13.0582   20.9950 C   0  0  0  0  0  0
  -25.2561  -13.8183   20.5679 C   0  0  0  0  0  0
  -24.1820  -13.0450   20.9183 C   0  0  0  0  0  0
  -24.6380  -11.6920   20.8736 C   0  0  0  0  0  0
  -23.9051  -10.4301   21.0405 C   0  0  0  0  0  0
  -24.3609   -9.4221   21.9182 C   0  0  0  0  0  0
  -23.6288   -8.2253   22.0750 C   0  0  0  0  0  0
  -22.4271   -8.0290   21.3542 C   0  0  0  0  0  0
  -21.9902   -9.0263   20.4645 C   0  0  0  0  0  0
  -22.7225  -10.2143   20.3054 C   0  0  0  0  0  0
  -21.6861   -6.0740   22.5276 C   0  0  0  0  0  0
  -21.4021   -6.5639   23.8209 C   0  0  0  0  0  0
  -21.3653   -5.6789   24.9168 C   0  0  0  0  0  0
  -21.6039   -4.3052   24.7218 C   0  0  0  0  0  0
  -21.8825   -3.8147   23.4338 C   0  0  0  0  0  0
  -21.9196   -4.6966   22.3397 C   0  0  0  0  0  0
  -22.7844  -13.5248   21.1848 C   0  0  0  0  0  0
  -22.1665   -4.2151   21.0976 F   0  0  0  0  0  0
  -21.5619   -3.4532   25.7730 F   0  0  0  0  0  0
  -30.0236  -13.3357   20.4320 N   0  0  0  0  0  0
  -26.2984  -12.9359   20.3311 N   0  0  0  0  0  0
  -25.9308  -11.6517   20.5755 N   0  0  0  0  0  0
  -22.0480  -12.8245   22.0405 N   0  0  0  0  0  0
  -25.4273  -15.1904   20.4107 N   0  0  0  0  0  0
  -31.8688  -14.6285   20.1474 O   0  0  0  0  0  0
  -21.6642   -6.8885   21.4239 O   0  0  0  0  0  0
  -22.3530  -14.5555   20.6701 O   0  0  0  0  0  0
  -24.6155  -31.8681   23.2100 C   0  0  0  0  0  0
  -25.9049  -32.4822   23.8401 C   0  0  1  0  0  0
  -27.2251  -27.4138   20.1163 C   0  0  0  0  0  0
  -25.5905  -33.8618   24.2331 N   0  0  0  0  0  0
  -23.4056  -30.4908   21.5496 C   0  0  2  0  0  0
  -24.8537  -28.9552   20.1140 C   0  0  0  0  0  0
  -22.7422  -29.4661   22.4977 C   0  0  0  0  0  0
  -18.0284  -28.1366   22.8486 C   0  0  0  0  0  0
  -24.1491  -36.7313   23.2637 C   0  0  0  0  0  0
  -25.9352  -30.8262   21.3685 C   0  0  0  0  0  0
  -26.0117  -29.4571   20.7219 C   0  0  0  0  0  0
  -27.2021  -28.6910   20.7256 C   0  0  0  0  0  0
  -26.0650  -26.9471   19.4694 C   0  0  0  0  0  0
  -24.8754  -27.6991   19.4839 C   0  0  0  0  0  0
  -23.6163  -29.8235   20.1639 C   0  0  0  0  0  0
  -25.4109  -36.3107   24.0338 C   0  0  1  0  0  0
  -20.5873  -28.3668   23.1293 C   0  0  2  0  0  0
  -20.6792  -26.9406   22.5389 C   0  0  0  0  0  0
  -19.5747  -26.6345   21.5227 C   0  0  0  0  0  0
  -18.1935  -26.7902   22.1643 C   0  0  0  0  0  0
  -19.1533  -28.8832   23.2884 C   0  0  0  0  0  0
  -18.9462  -30.1436   23.8895 C   0  0  0  0  0  0
  -17.6468  -30.6572   24.0559 C   0  0  0  0  0  0
  -25.9035  -34.9472   23.5129 C   0  0  0  0  0  0
  -16.5354  -29.9075   23.6326 C   0  0  0  0  0  0
  -16.7273  -28.6491   23.0347 C   0  0  0  0  0  0
  -26.4476  -31.6594   25.0725 C   0  0  0  0  0  0
  -25.3739  -31.3705   26.1471 C   0  0  0  0  0  0
  -27.0304  -30.3031   24.6103 C   0  0  0  0  0  0
  -27.6052  -32.4312   25.7486 C   0  0  0  0  0  0
  -27.5581  -37.1812   24.8466 C   0  0  0  0  0  0
  -21.4147  -29.3050   22.3713 N   0  0  0  0  0  0
  -26.4295  -37.3791   23.9409 N   0  0  0  0  0  0
  -24.6701  -31.0766   22.1012 N   0  0  0  0  0  0
  -23.4186  -28.8201   23.3024 O   0  0  0  0  0  0
  -28.3658  -26.6412   20.0897 O   0  0  0  0  0  0
  -26.5596  -34.8921   22.4688 O   0  0  0  0  0  0
  -23.5343  -32.1452   23.7478 O   0  0  0  0  0  0
  -29.1952  -18.5342   21.6045 C   0  0  0  0  0  0
  -29.6270  -18.1811   20.3425 C   0  0  0  0  0  0
  -28.9447  -20.5774   20.5946 C   0  0  0  0  0  0
  -28.4763  -22.9680   21.2506 C   0  0  0  0  0  0
  -29.7193  -16.6114   18.3480 C   0  0  0  0  0  0
  -26.3290  -24.2163   21.4519 C   0  0  0  0  0  0
  -28.4727  -25.5939   21.0832 C   0  0  0  0  0  0
  -30.1802  -16.8637   19.8023 C   0  0  2  0  0  0
  -27.7214  -24.2484   20.7851 C   0  0  1  0  0  0
  -28.8086  -19.8868   21.7364 N   0  0  0  0  0  0
  -28.5233  -21.9288   20.3900 N   0  0  0  0  0  0
  -29.9060  -15.6267   20.5800 N   0  0  0  0  0  0
  -28.9872  -22.9368   22.3738 O   0  0  0  0  0  0
  -29.5689  -19.5888   19.2847 S   0  0  0  0  0  0
  -31.4652  -12.3908   19.1567 H   0  0  0  0  0  0
  -30.3055  -11.3160   19.8870 H   0  0  0  0  0  0
  -29.7446  -11.7183   17.4703 H   0  0  0  0  0  0
  -29.6722  -13.4378   17.7456 H   0  0  0  0  0  0
  -27.8325  -11.2935   18.8478 H   0  0  0  0  0  0
  -27.3737  -12.5974   17.7857 H   0  0  0  0  0  0
  -27.6771  -14.2488   19.5235 H   0  0  0  0  0  0
  -28.6714  -12.0469   21.4035 H   0  0  0  0  0  0
  -28.4687  -13.7264   21.8272 H   0  0  0  0  0  0
  -25.2757   -9.5702   22.4752 H   0  0  0  0  0  0
  -24.0000   -7.4647   22.7473 H   0  0  0  0  0  0
  -21.0832   -8.8786   19.8952 H   0  0  0  0  0  0
  -22.3688  -10.9683   19.6162 H   0  0  0  0  0  0
  -21.2029   -7.6147   23.9719 H   0  0  0  0  0  0
  -21.1459   -6.0512   25.9071 H   0  0  0  0  0  0
  -22.0610   -2.7609   23.2836 H   0  0  0  0  0  0
  -22.4086  -11.9909   22.4802 H   0  0  0  0  0  0
  -21.1103  -13.1287   22.2606 H   0  0  0  0  0  0
  -24.6602  -15.8437   20.5278 H   0  0  0  0  0  0
  -26.2731  -15.6340   20.0766 H   0  0  0  0  0  0
  -26.7123  -32.5538   23.1167 H   0  0  0  0  0  0
  -25.0063  -33.9782   25.0480 H   0  0  0  0  0  0
  -22.6948  -31.3078   21.4099 H   0  0  0  0  0  0
  -23.3743  -35.9657   23.3309 H   0  0  0  0  0  0
  -24.3582  -36.8916   22.2050 H   0  0  0  0  0  0
  -23.7256  -37.6526   23.6642 H   0  0  0  0  0  0
  -26.0486  -31.5883   20.5963 H   0  0  0  0  0  0
  -26.8228  -30.8831   21.9867 H   0  0  0  0  0  0
  -28.0968  -29.0716   21.1982 H   0  0  0  0  0  0
  -26.0773  -25.9910   18.9663 H   0  0  0  0  0  0
  -23.9902  -27.3131   18.9979 H   0  0  0  0  0  0
  -23.7259  -30.5991   19.4050 H   0  0  0  0  0  0
  -22.7406  -29.2439   19.8668 H   0  0  0  0  0  0
  -25.1284  -36.1975   25.0833 H   0  0  0  0  0  0
  -20.9955  -28.3231   24.1418 H   0  0  0  0  0  0
  -20.5761  -26.2272   23.3576 H   0  0  0  0  0  0
  -21.6652  -26.7491   22.1132 H   0  0  0  0  0  0
  -19.6904  -25.6237   21.1303 H   0  0  0  0  0  0
  -19.6666  -27.3110   20.6718 H   0  0  0  0  0  0
  -17.4204  -26.6626   21.4052 H   0  0  0  0  0  0
  -18.0340  -26.0057   22.9055 H   0  0  0  0  0  0
  -19.7935  -30.7250   24.2268 H   0  0  0  0  0  0
  -17.5024  -31.6251   24.5161 H   0  0  0  0  0  0
  -15.5357  -30.2982   23.7657 H   0  0  0  0  0  0
  -15.8670  -28.0807   22.7073 H   0  0  0  0  0  0
  -24.5904  -30.7063   25.7804 H   0  0  0  0  0  0
  -24.8938  -32.2865   26.4926 H   0  0  0  0  0  0
  -25.8087  -30.8867   27.0225 H   0  0  0  0  0  0
  -26.2849  -29.6793   24.1157 H   0  0  0  0  0  0
  -27.4070  -29.7266   25.4563 H   0  0  0  0  0  0
  -27.8690  -30.4338   23.9257 H   0  0  0  0  0  0
  -27.2666  -33.3597   26.2098 H   0  0  0  0  0  0
  -28.3843  -32.6900   25.0301 H   0  0  0  0  0  0
  -28.0744  -31.8419   26.5377 H   0  0  0  0  0  0
  -28.2607  -38.0102   24.7498 H   0  0  0  0  0  0
  -28.1071  -36.2630   24.6307 H   0  0  0  0  0  0
  -27.2297  -37.1481   25.8870 H   0  0  0  0  0  0
  -20.9308  -29.8800   21.6957 H   0  0  0  0  0  0
  -26.0184  -38.2872   24.1398 H   0  0  0  0  0  0
  -29.1415  -17.8904   22.4714 H   0  0  0  0  0  0
  -30.0477  -17.3996   17.6712 H   0  0  0  0  0  0
  -28.6333  -16.5435   18.2780 H   0  0  0  0  0  0
  -30.1364  -15.6904   17.9432 H   0  0  0  0  0  0
  -25.7846  -23.3101   21.1832 H   0  0  0  0  0  0
  -25.7027  -25.0582   21.1722 H   0  0  0  0  0  0
  -26.4154  -24.2356   22.5390 H   0  0  0  0  0  0
  -29.5409  -25.3921   21.1723 H   0  0  0  0  0  0
  -28.1765  -25.9859   22.0578 H   0  0  0  0  0  0
  -31.2632  -16.9995   19.7703 H   0  0  0  0  0  0
  -27.5988  -24.1748   19.7038 H   0  0  0  0  0  0
  -28.2078  -22.1308   19.4525 H   0  0  0  0  0  0
  -28.9523  -15.4688   20.8656 H   0  0  0  0  0  0
  1 25  1  0  0  0
  1 30  2  0  0  0
  1 82  1  0  0  0
  2  3  1  0  0  0
  2 25  1  0  0  0
  2 85  1  0  0  0
  2 86  1  0  0  0
  3  4  1  0  0  0
  3 87  1  0  0  0
  3 88  1  0  0  0
  4  5  1  0  0  0
  4 89  1  0  0  0
  4 90  1  0  0  0
  5  6  1  0  0  0
  5 26  1  0  0  0
  5 91  1  0  0  0
  6 25  1  0  0  0
  6 92  1  0  0  0
  6 93  1  0  0  0
  7  8  2  0  0  0
  7 26  1  0  0  0
  7 29  1  0  0  0
  8  9  1  0  0  0
  8 22  1  0  0  0
  9 10  1  0  0  0
  9 27  2  0  0  0
 10 11  2  0  0  0
 10 15  1  0  0  0
 11 12  1  0  0  0
 11 94  1  0  0  0
 12 13  2  0  0  0
 12 95  1  0  0  0
 13 14  1  0  0  0
 13 31  1  0  0  0
 14 15  2  0  0  0
 14 96  1  0  0  0
 15 97  1  0  0  0
 16 17  2  0  0  0
 16 21  1  0  0  0
 16 31  1  0  0  0
 17 18  1  0  0  0
 17 98  1  0  0  0
 18 19  2  0  0  0
 18 99  1  0  0  0
 19 20  1  0  0  0
 19 24  1  0  0  0
 20 21  2  0  0  0
 20100  1  0  0  0
 21 23  1  0  0  0
 22 28  1  0  0  0
 22 32  2  0  0  0
 26 27  1  0  0  0
 28101  1  0  0  0
 28102  1  0  0  0
 29103  1  0  0  0
 29104  1  0  0  0
 33 34  1  0  0  0
 33 66  1  0  0  0
 33 70  2  0  0  0
 34 36  1  0  0  0
 34 59  1  0  0  0
 34105  1  0  0  0
 35 44  2  0  0  0
 35 45  1  0  0  0
 35 68  1  0  0  0
 36 56  1  0  0  0
 36106  1  0  0  0
 37 39  1  0  0  0
 37 47  1  0  0  0
 37 66  1  0  0  0
 37107  1  0  0  0
 38 43  2  0  0  0
 38 46  1  0  0  0
 38 47  1  0  0  0
 39 64  1  0  0  0
 39 67  2  0  0  0
 40 52  1  0  0  0
 40 53  2  0  0  0
 40 58  1  0  0  0
 41108  1  0  0  0
 41109  1  0  0  0
 41110  1  0  0  0
 41 48  1  0  0  0
 42 43  1  0  0  0
 42 66  1  0  0  0
 42111  1  0  0  0
 42112  1  0  0  0
 43 44  1  0  0  0
 44113  1  0  0  0
 45 46  2  0  0  0
 45114  1  0  0  0
 46115  1  0  0  0
 47116  1  0  0  0
 47117  1  0  0  0
 48 56  1  0  0  0
 48 65  1  0  0  0
 48118  1  0  0  0
 49 50  1  0  0  0
 49 53  1  0  0  0
 49 64  1  0  0  0
 49119  1  0  0  0
 50 51  1  0  0  0
 50120  1  0  0  0
 50121  1  0  0  0
 51 52  1  0  0  0
 51122  1  0  0  0
 51123  1  0  0  0
 52124  1  0  0  0
 52125  1  0  0  0
 53 54  1  0  0  0
 54 55  2  0  0  0
 54126  1  0  0  0
 55 57  1  0  0  0
 55127  1  0  0  0
 56 69  2  0  0  0
 57 58  2  0  0  0
 57128  1  0  0  0
 58129  1  0  0  0
 59 60  1  0  0  0
 59 61  1  0  0  0
 59 62  1  0  0  0
 60130  1  0  0  0
 60131  1  0  0  0
 60132  1  0  0  0
 61133  1  0  0  0
 61134  1  0  0  0
 61135  1  0  0  0
 62136  1  0  0  0
 62137  1  0  0  0
 62138  1  0  0  0
 63 65  1  0  0  0
 63139  1  0  0  0
 63140  1  0  0  0
 63141  1  0  0  0
 64142  1  0  0  0
 65143  1  0  0  0
 68 77  1  0  0  0
 71 72  2  0  0  0
 71 80  1  0  0  0
 71144  1  0  0  0
 72 78  1  0  0  0
 72 84  1  0  0  0
 73 80  2  0  0  0
 73 81  1  0  0  0
 73 84  1  0  0  0
 74 79  1  0  0  0
 74 81  1  0  0  0
 74 83  2  0  0  0
 75145  1  0  0  0
 75146  1  0  0  0
 75147  1  0  0  0
 75 78  1  0  0  0
 76148  1  0  0  0
 76149  1  0  0  0
 76150  1  0  0  0
 76 79  1  0  0  0
 77 79  1  0  0  0
 77151  1  0  0  0
 77152  1  0  0  0
 78 82  1  0  0  0
 78153  1  0  0  0
 79154  1  0  0  0
 81155  1  0  0  0
 82156  1  0  0  0
M  ISO  4   1 100  68 101  77 101  82 100
M  END
> <chiral flag>
0

> <version>
0

> <s_m_source_file>
/data/baiqing/PycharmProjects/Reinvent-master-3.2/result/LINK_invent/BTK/process_docking_weight1_custom_product_contain_oxygen_bond_distance_aromatic_linkinvent_7_9_3/rearranged_h_0188.sdf

> <i_m_source_file_index>
34

> <r_mmod_Potential_Energy-OPLS-2005>
-115.6845703125

> <r_mmod_Stretch_Energy-OPLS-2005>
43.0473976135254

> <r_mmod_Bend_Energy-OPLS-2005>
112.295364379883

> <r_mmod_Torsional_Energy-OPLS-2005>
241.504837036133

> <r_mmod_Improper_Torsional_Energy-OPLS-2005>
11.2067899703979

> <r_mmod_Van_der_Waal_Energy-OPLS-2005>
125.489204406738

> <r_mmod_Electrostatic_Energy-OPLS-2005>
-425.685974121094

> <r_mmod_Solvation_Energy-OPLS-2005>
-245.735168457031

> <b_mmod_Minimization_Converged-OPLS-2005>
0

> <r_mmod_RMS_Derivative-OPLS-2005>
0.885258376598358

$$$$
35
                    3D
 Structure written by MMmdl.
147155  0  0  1  0            999 V2000
  -30.4935  -15.0307   20.4078 C   0  0  0  0  0  0
  -30.4495  -12.6408   19.5062 C   0  0  0  0  0  0
  -29.5296  -12.5433   18.2646 C   0  0  0  0  0  0
  -28.0646  -12.3127   18.6825 C   0  0  0  0  0  0
  -27.6289  -13.2508   19.8373 C   0  0  2  0  0  0
  -28.6708  -13.2995   20.9757 C   0  0  0  0  0  0
  -25.2459  -13.8214   20.5706 C   0  0  0  0  0  0
  -24.1783  -13.0437   20.9239 C   0  0  0  0  0  0
  -24.6401  -11.6924   20.8758 C   0  0  0  0  0  0
  -23.9083  -10.4293   21.0407 C   0  0  0  0  0  0
  -24.3628   -9.4207   21.9185 C   0  0  0  0  0  0
  -23.6299   -8.2245   22.0755 C   0  0  0  0  0  0
  -22.4281   -8.0282   21.3545 C   0  0  0  0  0  0
  -21.9920   -9.0258   20.4647 C   0  0  0  0  0  0
  -22.7253  -10.2136   20.3056 C   0  0  0  0  0  0
  -21.6855   -6.0736   22.5278 C   0  0  0  0  0  0
  -21.4015   -6.5639   23.8212 C   0  0  0  0  0  0
  -21.3661   -5.6791   24.9174 C   0  0  0  0  0  0
  -21.6044   -4.3054   24.7224 C   0  0  0  0  0  0
  -21.8818   -3.8146   23.4345 C   0  0  0  0  0  0
  -21.9194   -4.6963   22.3402 C   0  0  0  0  0  0
  -22.7802  -13.5209   21.1886 C   0  0  0  0  0  0
  -22.1661   -4.2149   21.0980 F   0  0  0  0  0  0
  -21.5630   -3.4537   25.7737 F   0  0  0  0  0  0
  -29.9387  -13.7427   20.3776 N   0  0  0  0  0  0
  -26.2884  -12.9448   20.3233 N   0  0  0  0  0  0
  -25.9334  -11.6578   20.5736 N   0  0  0  0  0  0
  -22.0446  -12.8201   22.0439 N   0  0  0  0  0  0
  -25.4106  -15.1944   20.4101 N   0  0  0  0  0  0
  -31.6990  -15.1085   20.1358 O   0  0  0  0  0  0
  -21.6643   -6.8880   21.4241 O   0  0  0  0  0  0
  -22.3490  -14.5513   20.6725 O   0  0  0  0  0  0
  -24.6497  -31.8387   23.1842 C   0  0  0  0  0  0
  -25.9241  -32.4667   23.8253 C   0  0  1  0  0  0
  -27.2156  -27.0736   20.1607 C   0  0  0  0  0  0
  -25.5962  -33.8476   24.2162 N   0  0  0  0  0  0
  -23.4570  -30.4572   21.5310 C   0  0  2  0  0  0
  -24.9082  -28.8758   20.1111 C   0  0  0  0  0  0
  -22.7603  -29.4521   22.4836 C   0  0  0  0  0  0
  -18.0313  -28.1403   22.8477 C   0  0  0  0  0  0
  -24.1493  -36.7243   23.2644 C   0  0  0  0  0  0
  -26.0185  -30.6922   21.3942 C   0  0  0  0  0  0
  -26.0890  -29.2978   20.7356 C   0  0  0  0  0  0
  -27.2432  -28.4150   20.7411 C   0  0  0  0  0  0
  -26.0105  -26.7782   19.4834 C   0  0  0  0  0  0
  -24.8859  -27.6312   19.4674 C   0  0  0  0  0  0
  -23.6877  -29.7851   20.1520 C   0  0  0  0  0  0
  -25.4128  -36.3016   24.0312 C   0  0  1  0  0  0
  -20.5931  -28.3737   23.1219 C   0  0  2  0  0  0
  -20.6797  -26.9433   22.5402 C   0  0  0  0  0  0
  -19.5768  -26.6383   21.5215 C   0  0  0  0  0  0
  -18.1951  -26.7940   22.1626 C   0  0  0  0  0  0
  -19.1572  -28.8888   23.2839 C   0  0  0  0  0  0
  -18.9485  -30.1481   23.8868 C   0  0  0  0  0  0
  -17.6480  -30.6596   24.0559 C   0  0  0  0  0  0
  -25.9083  -34.9392   23.5050 C   0  0  0  0  0  0
  -16.5371  -29.9087   23.6338 C   0  0  0  0  0  0
  -16.7296  -28.6506   23.0360 C   0  0  0  0  0  0
  -26.4537  -31.6557   25.0721 C   0  0  0  0  0  0
  -25.3699  -31.3767   26.1400 C   0  0  0  0  0  0
  -27.0412  -30.2942   24.6354 C   0  0  0  0  0  0
  -27.6052  -32.4336   25.7511 C   0  0  0  0  0  0
  -27.5574  -37.1781   24.8466 C   0  0  0  0  0  0
  -21.4287  -29.3051   22.3582 N   0  0  0  0  0  0
  -26.4288  -37.3733   23.9405 N   0  0  0  0  0  0
  -24.7286  -31.0186   22.0909 N   0  0  0  0  0  0
  -23.4215  -28.8072   23.3013 O   0  0  0  0  0  0
  -28.2361  -26.0302   20.2301 O   0  0  0  0  0  0
  -26.5676  -34.8899   22.4635 O   0  0  0  0  0  0
  -23.5599  -32.1291   23.7020 O   0  0  0  0  0  0
  -30.4622  -20.0032   20.1825 C   0  0  0  0  0  0
  -29.1554  -20.4751   20.3727 C   0  0  0  0  0  0
  -29.6784  -17.7355   20.4571 C   0  0  0  0  0  0
  -28.9326  -23.1853   20.2722 C   0  0  0  0  0  0
  -27.0761  -24.3635   21.6707 C   0  0  0  0  0  0
  -27.8578  -24.4892   20.3495 C   0  0  1  0  0  0
  -30.7295  -18.5641   20.2251 N   0  0  0  0  0  0
  -28.5429  -21.8042   20.3821 N   0  0  0  0  0  0
  -29.6458  -16.1804   20.5611 N   0  0  0  0  0  0
  -30.1256  -23.4491   20.1058 O   0  0  0  0  0  0
  -28.2477  -18.8976   20.6283 S   0  0  0  0  0  0
  -31.4780  -12.8202   19.1895 H   0  0  0  0  0  0
  -30.4680  -11.6957   20.0511 H   0  0  0  0  0  0
  -29.8635  -11.7390   17.6077 H   0  0  0  0  0  0
  -29.6027  -13.4638   17.6834 H   0  0  0  0  0  0
  -27.9744  -11.2736   19.0010 H   0  0  0  0  0  0
  -27.4008  -12.4275   17.8248 H   0  0  0  0  0  0
  -27.5837  -14.2474   19.3977 H   0  0  0  0  0  0
  -28.7775  -12.3250   21.4545 H   0  0  0  0  0  0
  -28.3542  -13.9921   21.7571 H   0  0  0  0  0  0
  -25.2770   -9.5683   22.4766 H   0  0  0  0  0  0
  -24.0005   -7.4637   22.7476 H   0  0  0  0  0  0
  -21.0850   -8.8779   19.8955 H   0  0  0  0  0  0
  -22.3708  -10.9677   19.6169 H   0  0  0  0  0  0
  -21.2006   -7.6147   23.9715 H   0  0  0  0  0  0
  -21.1485   -6.0522   25.9077 H   0  0  0  0  0  0
  -22.0596   -2.7608   23.2845 H   0  0  0  0  0  0
  -22.4062  -11.9869   22.4839 H   0  0  0  0  0  0
  -21.1059  -13.1224   22.2630 H   0  0  0  0  0  0
  -24.6310  -15.8361   20.5066 H   0  0  0  0  0  0
  -26.2297  -15.6301   20.0084 H   0  0  0  0  0  0
  -26.7309  -32.5253   23.0978 H   0  0  0  0  0  0
  -25.0066  -33.9579   25.0281 H   0  0  0  0  0  0
  -22.7629  -31.2852   21.3727 H   0  0  0  0  0  0
  -23.3760  -35.9570   23.3294 H   0  0  0  0  0  0
  -24.3573  -36.8890   22.2061 H   0  0  0  0  0  0
  -23.7245  -37.6433   23.6694 H   0  0  0  0  0  0
  -26.1833  -31.4433   20.6205 H   0  0  0  0  0  0
  -26.8852  -30.7429   22.0414 H   0  0  0  0  0  0
  -28.1388  -28.7328   21.2560 H   0  0  0  0  0  0
  -25.8970  -25.8360   18.9713 H   0  0  0  0  0  0
  -23.9889  -27.3053   18.9589 H   0  0  0  0  0  0
  -23.8295  -30.5588   19.3966 H   0  0  0  0  0  0
  -22.8011  -29.2310   19.8387 H   0  0  0  0  0  0
  -25.1320  -36.1837   25.0804 H   0  0  0  0  0  0
  -21.0023  -28.3334   24.1340 H   0  0  0  0  0  0
  -20.5693  -26.2352   23.3629 H   0  0  0  0  0  0
  -21.6661  -26.7432   22.1198 H   0  0  0  0  0  0
  -19.6929  -25.6286   21.1264 H   0  0  0  0  0  0
  -19.6704  -27.3176   20.6732 H   0  0  0  0  0  0
  -17.4219  -26.6683   21.4031 H   0  0  0  0  0  0
  -18.0349  -26.0091   22.9030 H   0  0  0  0  0  0
  -19.7959  -30.7307   24.2223 H   0  0  0  0  0  0
  -17.5032  -31.6273   24.5167 H   0  0  0  0  0  0
  -15.5370  -30.2979   23.7680 H   0  0  0  0  0  0
  -15.8697  -28.0814   22.7092 H   0  0  0  0  0  0
  -24.5888  -30.7108   25.7715 H   0  0  0  0  0  0
  -24.8879  -32.2955   26.4749 H   0  0  0  0  0  0
  -25.7961  -30.8986   27.0229 H   0  0  0  0  0  0
  -26.3048  -29.6650   24.1342 H   0  0  0  0  0  0
  -27.3976  -29.7263   25.4958 H   0  0  0  0  0  0
  -27.8977  -30.4158   23.9720 H   0  0  0  0  0  0
  -27.2637  -33.3663   26.2014 H   0  0  0  0  0  0
  -28.3904  -32.6855   25.0369 H   0  0  0  0  0  0
  -28.0678  -31.8513   26.5491 H   0  0  0  0  0  0
  -28.2586  -38.0081   24.7504 H   0  0  0  0  0  0
  -28.1075  -36.2608   24.6307 H   0  0  0  0  0  0
  -27.2288  -37.1442   25.8869 H   0  0  0  0  0  0
  -20.9513  -29.8753   21.6740 H   0  0  0  0  0  0
  -26.0150  -38.2801   24.1401 H   0  0  0  0  0  0
  -31.3136  -20.6424   19.9951 H   0  0  0  0  0  0
  -26.7620  -23.3386   21.8678 H   0  0  0  0  0  0
  -26.1724  -24.9716   21.6644 H   0  0  0  0  0  0
  -27.6876  -24.6882   22.5126 H   0  0  0  0  0  0
  -27.1754  -24.2653   19.5321 H   0  0  0  0  0  0
  -27.5415  -21.7502   20.5124 H   0  0  0  0  0  0
  -28.7115  -15.8637   20.7636 H   0  0  0  0  0  0
  1 25  1  0  0  0
  1 30  2  0  0  0
  1 79  1  0  0  0
  2  3  1  0  0  0
  2 25  1  0  0  0
  2 82  1  0  0  0
  2 83  1  0  0  0
  3  4  1  0  0  0
  3 84  1  0  0  0
  3 85  1  0  0  0
  4  5  1  0  0  0
  4 86  1  0  0  0
  4 87  1  0  0  0
  5  6  1  0  0  0
  5 26  1  0  0  0
  5 88  1  0  0  0
  6 25  1  0  0  0
  6 89  1  0  0  0
  6 90  1  0  0  0
  7  8  2  0  0  0
  7 26  1  0  0  0
  7 29  1  0  0  0
  8  9  1  0  0  0
  8 22  1  0  0  0
  9 10  1  0  0  0
  9 27  2  0  0  0
 10 11  2  0  0  0
 10 15  1  0  0  0
 11 12  1  0  0  0
 11 91  1  0  0  0
 12 13  2  0  0  0
 12 92  1  0  0  0
 13 14  1  0  0  0
 13 31  1  0  0  0
 14 15  2  0  0  0
 14 93  1  0  0  0
 15 94  1  0  0  0
 16 17  2  0  0  0
 16 21  1  0  0  0
 16 31  1  0  0  0
 17 18  1  0  0  0
 17 95  1  0  0  0
 18 19  2  0  0  0
 18 96  1  0  0  0
 19 20  1  0  0  0
 19 24  1  0  0  0
 20 21  2  0  0  0
 20 97  1  0  0  0
 21 23  1  0  0  0
 22 28  1  0  0  0
 22 32  2  0  0  0
 26 27  1  0  0  0
 28 98  1  0  0  0
 28 99  1  0  0  0
 29100  1  0  0  0
 29101  1  0  0  0
 33 34  1  0  0  0
 33 66  1  0  0  0
 33 70  2  0  0  0
 34 36  1  0  0  0
 34 59  1  0  0  0
 34102  1  0  0  0
 35 44  2  0  0  0
 35 45  1  0  0  0
 35 68  1  0  0  0
 36 56  1  0  0  0
 36103  1  0  0  0
 37 39  1  0  0  0
 37 47  1  0  0  0
 37 66  1  0  0  0
 37104  1  0  0  0
 38 43  2  0  0  0
 38 46  1  0  0  0
 38 47  1  0  0  0
 39 64  1  0  0  0
 39 67  2  0  0  0
 40 52  1  0  0  0
 40 53  2  0  0  0
 40 58  1  0  0  0
 41105  1  0  0  0
 41106  1  0  0  0
 41107  1  0  0  0
 41 48  1  0  0  0
 42 43  1  0  0  0
 42 66  1  0  0  0
 42108  1  0  0  0
 42109  1  0  0  0
 43 44  1  0  0  0
 44110  1  0  0  0
 45 46  2  0  0  0
 45111  1  0  0  0
 46112  1  0  0  0
 47113  1  0  0  0
 47114  1  0  0  0
 48 56  1  0  0  0
 48 65  1  0  0  0
 48115  1  0  0  0
 49 50  1  0  0  0
 49 53  1  0  0  0
 49 64  1  0  0  0
 49116  1  0  0  0
 50 51  1  0  0  0
 50117  1  0  0  0
 50118  1  0  0  0
 51 52  1  0  0  0
 51119  1  0  0  0
 51120  1  0  0  0
 52121  1  0  0  0
 52122  1  0  0  0
 53 54  1  0  0  0
 54 55  2  0  0  0
 54123  1  0  0  0
 55 57  1  0  0  0
 55124  1  0  0  0
 56 69  2  0  0  0
 57 58  2  0  0  0
 57125  1  0  0  0
 58126  1  0  0  0
 59 60  1  0  0  0
 59 61  1  0  0  0
 59 62  1  0  0  0
 60127  1  0  0  0
 60128  1  0  0  0
 60129  1  0  0  0
 61130  1  0  0  0
 61131  1  0  0  0
 61132  1  0  0  0
 62133  1  0  0  0
 62134  1  0  0  0
 62135  1  0  0  0
 63 65  1  0  0  0
 63136  1  0  0  0
 63137  1  0  0  0
 63138  1  0  0  0
 64139  1  0  0  0
 65140  1  0  0  0
 68 76  1  0  0  0
 71 72  2  0  0  0
 71 77  1  0  0  0
 71141  1  0  0  0
 72 78  1  0  0  0
 72 81  1  0  0  0
 73 77  2  0  0  0
 73 79  1  0  0  0
 73 81  1  0  0  0
 74 76  1  0  0  0
 74 78  1  0  0  0
 74 80  2  0  0  0
 75142  1  0  0  0
 75143  1  0  0  0
 75144  1  0  0  0
 75 76  1  0  0  0
 76145  1  0  0  0
 78146  1  0  0  0
 79147  1  0  0  0
M  ISO  4   1 100  68 101  76 101  79 100
M  END
> <chiral flag>
0

> <version>
0

> <s_m_source_file>
/data/baiqing/PycharmProjects/Reinvent-master-3.2/result/LINK_invent/BTK/process_docking_weight1_custom_product_contain_oxygen_bond_distance_aromatic_linkinvent_7_9_3/rearranged_h_0188.sdf

> <i_m_source_file_index>
35

> <r_mmod_Potential_Energy-OPLS-2005>
538.090270996094

> <r_mmod_Stretch_Energy-OPLS-2005>
294.519561767578

> <r_mmod_Bend_Energy-OPLS-2005>
303.102294921875

> <r_mmod_Torsional_Energy-OPLS-2005>
220.771697998047

> <r_mmod_Improper_Torsional_Energy-OPLS-2005>
4.18179941177368

> <r_mmod_Van_der_Waal_Energy-OPLS-2005>
109.026313781738

> <r_mmod_Electrostatic_Energy-OPLS-2005>
-386.11376953125

> <r_mmod_Solvation_Energy-OPLS-2005>
-264.02392578125

> <b_mmod_Minimization_Converged-OPLS-2005>
0

> <r_mmod_RMS_Derivative-OPLS-2005>
0.293512672185898

$$$$
36
                    3D
 Structure written by MMmdl.
154162  0  0  1  0            999 V2000
  -30.6892  -14.5416   20.4806 C   0  0  0  0  0  0
  -30.4044  -12.3231   19.4412 C   0  0  0  0  0  0
  -29.4867  -12.4923   18.2132 C   0  0  0  0  0  0
  -28.0056  -12.3693   18.6212 C   0  0  0  0  0  0
  -27.6523  -13.2226   19.8723 C   0  0  2  0  0  0
  -28.7014  -13.0615   20.9974 C   0  0  0  0  0  0
  -25.2544  -13.8204   20.5767 C   0  0  0  0  0  0
  -24.1791  -13.0443   20.9209 C   0  0  0  0  0  0
  -24.6382  -11.6929   20.8759 C   0  0  0  0  0  0
  -23.9077  -10.4296   21.0398 C   0  0  0  0  0  0
  -24.3629   -9.4216   21.9187 C   0  0  0  0  0  0
  -23.6293   -8.2256   22.0749 C   0  0  0  0  0  0
  -22.4277   -8.0304   21.3539 C   0  0  0  0  0  0
  -21.9925   -9.0278   20.4640 C   0  0  0  0  0  0
  -22.7252  -10.2147   20.3055 C   0  0  0  0  0  0
  -21.6863   -6.0753   22.5282 C   0  0  0  0  0  0
  -21.4015   -6.5655   23.8226 C   0  0  0  0  0  0
  -21.3668   -5.6790   24.9174 C   0  0  0  0  0  0
  -21.6034   -4.3059   24.7212 C   0  0  0  0  0  0
  -21.8821   -3.8174   23.4335 C   0  0  0  0  0  0
  -21.9188   -4.6984   22.3389 C   0  0  0  0  0  0
  -22.7821  -13.5239   21.1869 C   0  0  0  0  0  0
  -22.1647   -4.2185   21.0980 F   0  0  0  0  0  0
  -21.5644   -3.4548   25.7722 F   0  0  0  0  0  0
  -30.0179  -13.3550   20.4210 N   0  0  0  0  0  0
  -26.2979  -12.9406   20.3411 N   0  0  0  0  0  0
  -25.9329  -11.6549   20.5829 N   0  0  0  0  0  0
  -22.0496  -12.8179   22.0413 N   0  0  0  0  0  0
  -25.4268  -15.1932   20.4234 N   0  0  0  0  0  0
  -31.8711  -14.6204   20.1425 O   0  0  0  0  0  0
  -21.6640   -6.8887   21.4241 O   0  0  0  0  0  0
  -22.3502  -14.5549   20.6750 O   0  0  0  0  0  0
  -24.6177  -31.8644   23.2047 C   0  0  0  0  0  0
  -25.9079  -32.4787   23.8366 C   0  0  1  0  0  0
  -27.2391  -27.3949   20.1039 C   0  0  0  0  0  0
  -25.5937  -33.8585   24.2311 N   0  0  0  0  0  0
  -23.4060  -30.4882   21.5417 C   0  0  2  0  0  0
  -24.8543  -28.9407   20.1202 C   0  0  0  0  0  0
  -22.7402  -29.4701   22.4952 C   0  0  0  0  0  0
  -18.0293  -28.1359   22.8492 C   0  0  0  0  0  0
  -24.1490  -36.7275   23.2641 C   0  0  0  0  0  0
  -25.9388  -30.8212   21.3629 C   0  0  0  0  0  0
  -26.0164  -29.4495   20.7135 C   0  0  0  0  0  0
  -27.2055  -28.6805   20.7036 C   0  0  0  0  0  0
  -26.0470  -26.9003   19.5262 C   0  0  0  0  0  0
  -24.8652  -27.6650   19.5302 C   0  0  0  0  0  0
  -23.6145  -29.8055   20.1623 C   0  0  0  0  0  0
  -25.4109  -36.3070   24.0339 C   0  0  1  0  0  0
  -20.5870  -28.3681   23.1274 C   0  0  2  0  0  0
  -20.6763  -26.9406   22.5384 C   0  0  0  0  0  0
  -19.5751  -26.6364   21.5174 C   0  0  0  0  0  0
  -18.1939  -26.7910   22.1592 C   0  0  0  0  0  0
  -19.1537  -28.8830   23.2890 C   0  0  0  0  0  0
  -18.9464  -30.1431   23.8904 C   0  0  0  0  0  0
  -17.6460  -30.6574   24.0537 C   0  0  0  0  0  0
  -25.9049  -34.9449   23.5114 C   0  0  0  0  0  0
  -16.5349  -29.9064   23.6317 C   0  0  0  0  0  0
  -16.7280  -28.6468   23.0383 C   0  0  0  0  0  0
  -26.4507  -31.6581   25.0713 C   0  0  0  0  0  0
  -25.3745  -31.3685   26.1442 C   0  0  0  0  0  0
  -27.0385  -30.3025   24.6143 C   0  0  0  0  0  0
  -27.6086  -32.4302   25.7492 C   0  0  0  0  0  0
  -27.5592  -37.1775   24.8455 C   0  0  0  0  0  0
  -21.4124  -29.3066   22.3688 N   0  0  0  0  0  0
  -26.4282  -37.3759   23.9435 N   0  0  0  0  0  0
  -24.6726  -31.0739   22.0947 N   0  0  0  0  0  0
  -23.4173  -28.8269   23.3023 O   0  0  0  0  0  0
  -28.4280  -26.6780   20.1232 O   0  0  0  0  0  0
  -26.5588  -34.8904   22.4665 O   0  0  0  0  0  0
  -23.5365  -32.1436   23.7430 O   0  0  0  0  0  0
  -29.8658  -19.1433   19.8039 C   0  0  0  0  0  0
  -30.2333  -16.9961   20.2712 C   0  0  0  0  0  0
  -28.4663  -24.1356   20.4114 C   0  0  0  0  0  0
  -28.5586  -25.3872   19.4746 C   0  0  0  0  0  0
  -29.2669  -21.5258   20.4532 C   0  0  2  0  0  0
  -28.6758  -22.7621   19.6722 C   0  0  1  0  0  0
  -30.7379  -21.7983   20.8590 C   0  0  0  0  0  0
  -29.4099  -18.0487   20.4708 N   0  0  0  0  0  0
  -30.9884  -19.0260   19.0799 N   0  0  0  0  0  0
  -29.1021  -20.3109   19.6108 N   0  0  0  0  0  0
  -29.9523  -15.6562   20.7420 N   0  0  0  0  0  0
  -27.4227  -22.3166   19.1848 O   0  0  0  0  0  0
  -31.5263  -21.9238   19.7894 F   0  0  0  0  0  0
  -31.2203  -20.8473   21.6602 F   0  0  0  0  0  0
  -31.5984  -17.4638   19.2725 S   0  0  0  0  0  0
  -31.4531  -12.3845   19.1488 H   0  0  0  0  0  0
  -30.2778  -11.3295   19.8718 H   0  0  0  0  0  0
  -29.7236  -11.7413   17.4584 H   0  0  0  0  0  0
  -29.6637  -13.4638   17.7466 H   0  0  0  0  0  0
  -27.8025  -11.3150   18.8194 H   0  0  0  0  0  0
  -27.3598  -12.6513   17.7876 H   0  0  0  0  0  0
  -27.6748  -14.2637   19.5505 H   0  0  0  0  0  0
  -28.6901  -12.0427   21.3894 H   0  0  0  0  0  0
  -28.4771  -13.7115   21.8457 H   0  0  0  0  0  0
  -25.2780   -9.5711   22.4737 H   0  0  0  0  0  0
  -24.0050   -7.4647   22.7451 H   0  0  0  0  0  0
  -21.0886   -8.8778   19.8907 H   0  0  0  0  0  0
  -22.3738  -10.9683   19.6155 H   0  0  0  0  0  0
  -21.1997   -7.6158   23.9745 H   0  0  0  0  0  0
  -21.1493   -6.0520   25.9084 H   0  0  0  0  0  0
  -22.0586   -2.7631   23.2839 H   0  0  0  0  0  0
  -22.4147  -11.9810   22.4719 H   0  0  0  0  0  0
  -21.1137  -13.1176   22.2690 H   0  0  0  0  0  0
  -24.6660  -15.8511   20.5578 H   0  0  0  0  0  0
  -26.2844  -15.6375   20.1180 H   0  0  0  0  0  0
  -26.7156  -32.5490   23.1143 H   0  0  0  0  0  0
  -25.0116  -33.9748   25.0477 H   0  0  0  0  0  0
  -22.6945  -31.3029   21.3893 H   0  0  0  0  0  0
  -23.3767  -35.9583   23.3235 H   0  0  0  0  0  0
  -24.3598  -36.8948   22.2065 H   0  0  0  0  0  0
  -23.7222  -37.6456   23.6687 H   0  0  0  0  0  0
  -26.0574  -31.5870   20.5947 H   0  0  0  0  0  0
  -26.8213  -30.8751   21.9895 H   0  0  0  0  0  0
  -28.1004  -29.0675   21.1712 H   0  0  0  0  0  0
  -25.9952  -25.9144   19.0907 H   0  0  0  0  0  0
  -23.9648  -27.2550   19.0961 H   0  0  0  0  0  0
  -23.7131  -30.5644   19.3853 H   0  0  0  0  0  0
  -22.7428  -29.2082   19.8834 H   0  0  0  0  0  0
  -25.1286  -36.1898   25.0819 H   0  0  0  0  0  0
  -20.9997  -28.3246   24.1376 H   0  0  0  0  0  0
  -20.5601  -26.2298   23.3594 H   0  0  0  0  0  0
  -21.6650  -26.7399   22.1213 H   0  0  0  0  0  0
  -19.6899  -25.6264   21.1243 H   0  0  0  0  0  0
  -19.6687  -27.3137   20.6680 H   0  0  0  0  0  0
  -17.4195  -26.6682   21.4002 H   0  0  0  0  0  0
  -18.0345  -26.0027   22.8963 H   0  0  0  0  0  0
  -19.7939  -30.7243   24.2284 H   0  0  0  0  0  0
  -17.5022  -31.6269   24.5112 H   0  0  0  0  0  0
  -15.5363  -30.2970   23.7622 H   0  0  0  0  0  0
  -15.8687  -28.0756   22.7150 H   0  0  0  0  0  0
  -24.5944  -30.7024   25.7755 H   0  0  0  0  0  0
  -24.8914  -32.2822   26.4894 H   0  0  0  0  0  0
  -25.8073  -30.8843   27.0200 H   0  0  0  0  0  0
  -26.2967  -29.6736   24.1215 H   0  0  0  0  0  0
  -27.4173  -29.7340   25.4650 H   0  0  0  0  0  0
  -27.8772  -30.4362   23.9312 H   0  0  0  0  0  0
  -27.2747  -33.3626   26.2065 H   0  0  0  0  0  0
  -28.3920  -32.6811   25.0326 H   0  0  0  0  0  0
  -28.0725  -31.8401   26.5416 H   0  0  0  0  0  0
  -28.2536  -38.0147   24.7595 H   0  0  0  0  0  0
  -28.1158  -36.2680   24.6137 H   0  0  0  0  0  0
  -27.2315  -37.1242   25.8854 H   0  0  0  0  0  0
  -20.9272  -29.8806   21.6923 H   0  0  0  0  0  0
  -26.0150  -38.2814   24.1468 H   0  0  0  0  0  0
  -27.5131  -24.1407   20.9431 H   0  0  0  0  0  0
  -29.2238  -24.2522   21.1859 H   0  0  0  0  0  0
  -29.5655  -25.3877   19.0542 H   0  0  0  0  0  0
  -27.9202  -25.2853   18.5972 H   0  0  0  0  0  0
  -28.6822  -21.3821   21.3630 H   0  0  0  0  0  0
  -29.3229  -22.9365   18.8121 H   0  0  0  0  0  0
  -30.8324  -22.7265   21.4239 H   0  0  0  0  0  0
  -29.3227  -20.6108   18.6683 H   0  0  0  0  0  0
  -29.0298  -15.5009   21.1158 H   0  0  0  0  0  0
  -27.5019  -21.3598   19.1650 H   0  0  0  0  0  0
  1 25  1  0  0  0
  1 30  2  0  0  0
  1 81  1  0  0  0
  2  3  1  0  0  0
  2 25  1  0  0  0
  2 86  1  0  0  0
  2 87  1  0  0  0
  3  4  1  0  0  0
  3 88  1  0  0  0
  3 89  1  0  0  0
  4  5  1  0  0  0
  4 90  1  0  0  0
  4 91  1  0  0  0
  5  6  1  0  0  0
  5 26  1  0  0  0
  5 92  1  0  0  0
  6 25  1  0  0  0
  6 93  1  0  0  0
  6 94  1  0  0  0
  7  8  2  0  0  0
  7 26  1  0  0  0
  7 29  1  0  0  0
  8  9  1  0  0  0
  8 22  1  0  0  0
  9 10  1  0  0  0
  9 27  2  0  0  0
 10 11  2  0  0  0
 10 15  1  0  0  0
 11 12  1  0  0  0
 11 95  1  0  0  0
 12 13  2  0  0  0
 12 96  1  0  0  0
 13 14  1  0  0  0
 13 31  1  0  0  0
 14 15  2  0  0  0
 14 97  1  0  0  0
 15 98  1  0  0  0
 16 17  2  0  0  0
 16 21  1  0  0  0
 16 31  1  0  0  0
 17 18  1  0  0  0
 17 99  1  0  0  0
 18 19  2  0  0  0
 18100  1  0  0  0
 19 20  1  0  0  0
 19 24  1  0  0  0
 20 21  2  0  0  0
 20101  1  0  0  0
 21 23  1  0  0  0
 22 28  1  0  0  0
 22 32  2  0  0  0
 26 27  1  0  0  0
 28102  1  0  0  0
 28103  1  0  0  0
 29104  1  0  0  0
 29105  1  0  0  0
 33 34  1  0  0  0
 33 66  1  0  0  0
 33 70  2  0  0  0
 34 36  1  0  0  0
 34 59  1  0  0  0
 34106  1  0  0  0
 35 44  2  0  0  0
 35 45  1  0  0  0
 35 68  1  0  0  0
 36 56  1  0  0  0
 36107  1  0  0  0
 37 39  1  0  0  0
 37 47  1  0  0  0
 37 66  1  0  0  0
 37108  1  0  0  0
 38 43  2  0  0  0
 38 46  1  0  0  0
 38 47  1  0  0  0
 39 64  1  0  0  0
 39 67  2  0  0  0
 40 52  1  0  0  0
 40 53  2  0  0  0
 40 58  1  0  0  0
 41109  1  0  0  0
 41110  1  0  0  0
 41111  1  0  0  0
 41 48  1  0  0  0
 42 43  1  0  0  0
 42 66  1  0  0  0
 42112  1  0  0  0
 42113  1  0  0  0
 43 44  1  0  0  0
 44114  1  0  0  0
 45 46  2  0  0  0
 45115  1  0  0  0
 46116  1  0  0  0
 47117  1  0  0  0
 47118  1  0  0  0
 48 56  1  0  0  0
 48 65  1  0  0  0
 48119  1  0  0  0
 49 50  1  0  0  0
 49 53  1  0  0  0
 49 64  1  0  0  0
 49120  1  0  0  0
 50 51  1  0  0  0
 50121  1  0  0  0
 50122  1  0  0  0
 51 52  1  0  0  0
 51123  1  0  0  0
 51124  1  0  0  0
 52125  1  0  0  0
 52126  1  0  0  0
 53 54  1  0  0  0
 54 55  2  0  0  0
 54127  1  0  0  0
 55 57  1  0  0  0
 55128  1  0  0  0
 56 69  2  0  0  0
 57 58  2  0  0  0
 57129  1  0  0  0
 58130  1  0  0  0
 59 60  1  0  0  0
 59 61  1  0  0  0
 59 62  1  0  0  0
 60131  1  0  0  0
 60132  1  0  0  0
 60133  1  0  0  0
 61134  1  0  0  0
 61135  1  0  0  0
 61136  1  0  0  0
 62137  1  0  0  0
 62138  1  0  0  0
 62139  1  0  0  0
 63 65  1  0  0  0
 63140  1  0  0  0
 63141  1  0  0  0
 63142  1  0  0  0
 64143  1  0  0  0
 65144  1  0  0  0
 68 74  1  0  0  0
 71 78  1  0  0  0
 71 79  2  0  0  0
 71 80  1  0  0  0
 72 78  2  0  0  0
 72 81  1  0  0  0
 72 85  1  0  0  0
 73 74  1  0  0  0
 73 76  1  0  0  0
 73145  1  0  0  0
 73146  1  0  0  0
 74147  1  0  0  0
 74148  1  0  0  0
 75 76  1  0  0  0
 75 77  1  0  0  0
 75 80  1  0  0  0
 75149  1  0  0  0
 76 82  1  0  0  0
 76150  1  0  0  0
 77 83  1  0  0  0
 77 84  1  0  0  0
 77151  1  0  0  0
 79 85  1  0  0  0
 80152  1  0  0  0
 81153  1  0  0  0
 82154  1  0  0  0
M  ISO  4   1 100  68 101  74 101  81 100
M  END
> <chiral flag>
0

> <version>
0

> <s_m_source_file>
/data/baiqing/PycharmProjects/Reinvent-master-3.2/result/LINK_invent/BTK/process_docking_weight1_custom_product_contain_oxygen_bond_distance_aromatic_linkinvent_7_9_3/rearranged_h_0188.sdf

> <i_m_source_file_index>
36

> <r_mmod_Potential_Energy-OPLS-2005>
-175.021942138672

> <r_mmod_Stretch_Energy-OPLS-2005>
51.9365768432617

> <r_mmod_Bend_Energy-OPLS-2005>
141.879943847656

> <r_mmod_Torsional_Energy-OPLS-2005>
269.909484863281

> <r_mmod_Improper_Torsional_Energy-OPLS-2005>
12.8180875778198

> <r_mmod_Van_der_Waal_Energy-OPLS-2005>
139.364959716797

> <r_mmod_Electrostatic_Energy-OPLS-2005>
-586.484436035156

> <r_mmod_Solvation_Energy-OPLS-2005>
-229.041213989258

> <b_mmod_Minimization_Converged-OPLS-2005>
0

> <r_mmod_RMS_Derivative-OPLS-2005>
4.25726461410522

$$$$
37
                    3D
 Structure written by MMmdl.
153161  0  0  1  0            999 V2000
  -30.6096  -14.7442   20.5051 C   0  0  0  0  0  0
  -30.4328  -12.4658   19.4674 C   0  0  0  0  0  0
  -29.5116  -12.5261   18.2295 C   0  0  0  0  0  0
  -28.0318  -12.3585   18.6334 C   0  0  0  0  0  0
  -27.6394  -13.2359   19.8524 C   0  0  2  0  0  0
  -28.6832  -13.1468   20.9857 C   0  0  0  0  0  0
  -25.2479  -13.8192   20.5670 C   0  0  0  0  0  0
  -24.1788  -13.0423   20.9199 C   0  0  0  0  0  0
  -24.6391  -11.6909   20.8742 C   0  0  0  0  0  0
  -23.9076  -10.4285   21.0397 C   0  0  0  0  0  0
  -24.3616   -9.4203   21.9170 C   0  0  0  0  0  0
  -23.6287   -8.2244   22.0744 C   0  0  0  0  0  0
  -22.4278   -8.0270   21.3537 C   0  0  0  0  0  0
  -21.9915   -9.0244   20.4645 C   0  0  0  0  0  0
  -22.7248  -10.2121   20.3046 C   0  0  0  0  0  0
  -21.6855   -6.0734   22.5280 C   0  0  0  0  0  0
  -21.4019   -6.5642   23.8213 C   0  0  0  0  0  0
  -21.3661   -5.6792   24.9174 C   0  0  0  0  0  0
  -21.6037   -4.3050   24.7224 C   0  0  0  0  0  0
  -21.8825   -3.8148   23.4348 C   0  0  0  0  0  0
  -21.9195   -4.6963   22.3405 C   0  0  0  0  0  0
  -22.7817  -13.5196   21.1875 C   0  0  0  0  0  0
  -22.1666   -4.2153   21.0979 F   0  0  0  0  0  0
  -21.5625   -3.4537   25.7736 F   0  0  0  0  0  0
  -29.9799  -13.5195   20.4066 N   0  0  0  0  0  0
  -26.2916  -12.9408   20.3268 N   0  0  0  0  0  0
  -25.9305  -11.6544   20.5705 N   0  0  0  0  0  0
  -22.0478  -12.8173   22.0437 N   0  0  0  0  0  0
  -25.4135  -15.1916   20.4075 N   0  0  0  0  0  0
  -31.8030  -14.8333   20.1960 O   0  0  0  0  0  0
  -21.6636   -6.8874   21.4239 O   0  0  0  0  0  0
  -22.3495  -14.5497   20.6717 O   0  0  0  0  0  0
  -24.6338  -31.8533   23.1917 C   0  0  0  0  0  0
  -25.9169  -32.4729   23.8267 C   0  0  1  0  0  0
  -27.2164  -27.2309   20.1509 C   0  0  0  0  0  0
  -25.5950  -33.8529   24.2176 N   0  0  0  0  0  0
  -23.4324  -30.4746   21.5354 C   0  0  2  0  0  0
  -24.8782  -28.9146   20.1062 C   0  0  0  0  0  0
  -22.7540  -29.4594   22.4874 C   0  0  0  0  0  0
  -18.0318  -28.1380   22.8453 C   0  0  0  0  0  0
  -24.1511  -36.7272   23.2642 C   0  0  0  0  0  0
  -25.9769  -30.7540   21.3822 C   0  0  0  0  0  0
  -26.0500  -29.3740   20.7260 C   0  0  0  0  0  0
  -27.2188  -28.5454   20.7396 C   0  0  0  0  0  0
  -26.0336  -26.8537   19.4801 C   0  0  0  0  0  0
  -24.8797  -27.6647   19.4649 C   0  0  0  0  0  0
  -23.6535  -29.8106   20.1498 C   0  0  0  0  0  0
  -25.4135  -36.3042   24.0321 C   0  0  1  0  0  0
  -20.5920  -28.3706   23.1224 C   0  0  2  0  0  0
  -20.6832  -26.9422   22.5383 C   0  0  0  0  0  0
  -19.5810  -26.6365   21.5195 C   0  0  0  0  0  0
  -18.1971  -26.7914   22.1589 C   0  0  0  0  0  0
  -19.1582  -28.8855   23.2828 C   0  0  0  0  0  0
  -18.9506  -30.1455   23.8849 C   0  0  0  0  0  0
  -17.6517  -30.6580   24.0554 C   0  0  0  0  0  0
  -25.9084  -34.9426   23.5050 C   0  0  0  0  0  0
  -16.5401  -29.9094   23.6316 C   0  0  0  0  0  0
  -16.7306  -28.6516   23.0322 C   0  0  0  0  0  0
  -26.4501  -31.6574   25.0679 C   0  0  0  0  0  0
  -25.3680  -31.3782   26.1377 C   0  0  0  0  0  0
  -27.0366  -30.2978   24.6205 C   0  0  0  0  0  0
  -27.6052  -32.4334   25.7456 C   0  0  0  0  0  0
  -27.5580  -37.1800   24.8477 C   0  0  0  0  0  0
  -21.4247  -29.3052   22.3629 N   0  0  0  0  0  0
  -26.4287  -37.3759   23.9422 N   0  0  0  0  0  0
  -24.6983  -31.0480   22.0904 N   0  0  0  0  0  0
  -23.4218  -28.8136   23.2996 O   0  0  0  0  0  0
  -28.3051  -26.3226   20.1940 O   0  0  0  0  0  0
  -26.5672  -34.8937   22.4636 O   0  0  0  0  0  0
  -23.5492  -32.1394   23.7183 O   0  0  0  0  0  0
  -31.6134  -18.7805   22.3090 C   0  0  0  0  0  0
  -31.2174  -17.4853   21.9327 C   0  0  0  0  0  0
  -30.9782  -19.9106   21.7586 C   0  0  0  0  0  0
  -30.1925  -17.2916   20.9861 C   0  0  0  0  0  0
  -29.9123  -19.7477   20.8427 C   0  0  0  0  0  0
  -28.9932  -22.2037   20.8338 C   0  0  0  0  0  0
  -29.0371  -23.4765   18.5563 C   0  0  0  0  0  0
  -28.0647  -24.8664   20.5613 C   0  0  0  0  0  0
  -29.0447  -23.6442   20.0887 C   0  0  1  0  0  0
  -29.5573  -18.4372   20.4788 N   0  0  0  0  0  0
  -29.4045  -21.0110   20.2382 N   0  0  0  0  0  0
  -29.8266  -15.8791   20.7110 N   0  0  0  0  0  0
  -28.5369  -22.1818   21.9788 O   0  0  0  0  0  0
  -31.4457  -21.1412   22.0835 F   0  0  0  0  0  0
  -31.4757  -12.5955   19.1742 H   0  0  0  0  0  0
  -30.3768  -11.4841   19.9392 H   0  0  0  0  0  0
  -29.7956  -11.7592   17.5071 H   0  0  0  0  0  0
  -29.6474  -13.4822   17.7225 H   0  0  0  0  0  0
  -27.8666  -11.3058   18.8631 H   0  0  0  0  0  0
  -27.3858  -12.5861   17.7868 H   0  0  0  0  0  0
  -27.6365  -14.2645   19.4888 H   0  0  0  0  0  0
  -28.7203  -12.1336   21.3911 H   0  0  0  0  0  0
  -28.4162  -13.7990   21.8189 H   0  0  0  0  0  0
  -25.2759   -9.5686   22.4740 H   0  0  0  0  0  0
  -24.0013   -7.4634   22.7448 H   0  0  0  0  0  0
  -21.0856   -8.8750   19.8935 H   0  0  0  0  0  0
  -22.3701  -10.9648   19.6149 H   0  0  0  0  0  0
  -21.2019   -7.6150   23.9721 H   0  0  0  0  0  0
  -21.1473   -6.0519   25.9077 H   0  0  0  0  0  0
  -22.0602   -2.7613   23.2844 H   0  0  0  0  0  0
  -22.4103  -11.9842   22.4819 H   0  0  0  0  0  0
  -21.1078  -13.1163   22.2627 H   0  0  0  0  0  0
  -24.6307  -15.8312   20.4886 H   0  0  0  0  0  0
  -26.2411  -15.6322   20.0265 H   0  0  0  0  0  0
  -26.7243  -32.5385   23.1023 H   0  0  0  0  0  0
  -25.0126  -33.9618   25.0341 H   0  0  0  0  0  0
  -22.7280  -31.2954   21.3858 H   0  0  0  0  0  0
  -23.3756  -35.9617   23.3318 H   0  0  0  0  0  0
  -24.3605  -36.8875   22.2048 H   0  0  0  0  0  0
  -23.7273  -37.6475   23.6687 H   0  0  0  0  0  0
  -26.1257  -31.5134   20.6129 H   0  0  0  0  0  0
  -26.8473  -30.8011   22.0245 H   0  0  0  0  0  0
  -28.1076  -28.8844   21.2516 H   0  0  0  0  0  0
  -25.9878  -25.9067   18.9598 H   0  0  0  0  0  0
  -23.9923  -27.3166   18.9522 H   0  0  0  0  0  0
  -23.7934  -30.5905   19.4009 H   0  0  0  0  0  0
  -22.7658  -29.2603   19.8303 H   0  0  0  0  0  0
  -25.1331  -36.1858   25.0806 H   0  0  0  0  0  0
  -20.9997  -28.3306   24.1363 H   0  0  0  0  0  0
  -20.5732  -26.2343   23.3613 H   0  0  0  0  0  0
  -21.6702  -26.7474   22.1186 H   0  0  0  0  0  0
  -19.6981  -25.6270   21.1239 H   0  0  0  0  0  0
  -19.6722  -27.3163   20.6712 H   0  0  0  0  0  0
  -17.4248  -26.6633   21.3970 H   0  0  0  0  0  0
  -18.0385  -26.0034   22.8973 H   0  0  0  0  0  0
  -19.8012  -30.7239   24.2198 H   0  0  0  0  0  0
  -17.5115  -31.6259   24.5174 H   0  0  0  0  0  0
  -15.5407  -30.2994   23.7701 H   0  0  0  0  0  0
  -15.8704  -28.0854   22.7016 H   0  0  0  0  0  0
  -24.5918  -30.7036   25.7764 H   0  0  0  0  0  0
  -24.8789  -32.2967   26.4625 H   0  0  0  0  0  0
  -25.7955  -30.9126   27.0259 H   0  0  0  0  0  0
  -26.2973  -29.6672   24.1244 H   0  0  0  0  0  0
  -27.4074  -29.7283   25.4732 H   0  0  0  0  0  0
  -27.8847  -30.4261   23.9466 H   0  0  0  0  0  0
  -27.2713  -33.3761   26.1802 H   0  0  0  0  0  0
  -28.3977  -32.6630   25.0323 H   0  0  0  0  0  0
  -28.0571  -31.8561   26.5522 H   0  0  0  0  0  0
  -28.2608  -38.0094   24.7535 H   0  0  0  0  0  0
  -28.1064  -36.2616   24.6312 H   0  0  0  0  0  0
  -27.2315  -37.1480   25.8887 H   0  0  0  0  0  0
  -20.9463  -29.8814   21.6842 H   0  0  0  0  0  0
  -26.0136  -38.2831   24.1388 H   0  0  0  0  0  0
  -32.4225  -18.9055   23.0136 H   0  0  0  0  0  0
  -31.7157  -16.6454   22.3917 H   0  0  0  0  0  0
  -29.9491  -22.9848   18.2106 H   0  0  0  0  0  0
  -28.9977  -24.4462   18.0582 H   0  0  0  0  0  0
  -28.1856  -22.8891   18.2075 H   0  0  0  0  0  0
  -28.0732  -24.8587   21.6525 H   0  0  0  0  0  0
  -27.0470  -24.5710   20.3045 H   0  0  0  0  0  0
  -30.0417  -24.0050   20.3394 H   0  0  0  0  0  0
  -29.5684  -21.0703   19.2447 H   0  0  0  0  0  0
  -28.8362  -15.6995   20.7176 H   0  0  0  0  0  0
  1 25  1  0  0  0
  1 30  2  0  0  0
  1 82  1  0  0  0
  2  3  1  0  0  0
  2 25  1  0  0  0
  2 85  1  0  0  0
  2 86  1  0  0  0
  3  4  1  0  0  0
  3 87  1  0  0  0
  3 88  1  0  0  0
  4  5  1  0  0  0
  4 89  1  0  0  0
  4 90  1  0  0  0
  5  6  1  0  0  0
  5 26  1  0  0  0
  5 91  1  0  0  0
  6 25  1  0  0  0
  6 92  1  0  0  0
  6 93  1  0  0  0
  7  8  2  0  0  0
  7 26  1  0  0  0
  7 29  1  0  0  0
  8  9  1  0  0  0
  8 22  1  0  0  0
  9 10  1  0  0  0
  9 27  2  0  0  0
 10 11  2  0  0  0
 10 15  1  0  0  0
 11 12  1  0  0  0
 11 94  1  0  0  0
 12 13  2  0  0  0
 12 95  1  0  0  0
 13 14  1  0  0  0
 13 31  1  0  0  0
 14 15  2  0  0  0
 14 96  1  0  0  0
 15 97  1  0  0  0
 16 17  2  0  0  0
 16 21  1  0  0  0
 16 31  1  0  0  0
 17 18  1  0  0  0
 17 98  1  0  0  0
 18 19  2  0  0  0
 18 99  1  0  0  0
 19 20  1  0  0  0
 19 24  1  0  0  0
 20 21  2  0  0  0
 20100  1  0  0  0
 21 23  1  0  0  0
 22 28  1  0  0  0
 22 32  2  0  0  0
 26 27  1  0  0  0
 28101  1  0  0  0
 28102  1  0  0  0
 29103  1  0  0  0
 29104  1  0  0  0
 33 34  1  0  0  0
 33 66  1  0  0  0
 33 70  2  0  0  0
 34 36  1  0  0  0
 34 59  1  0  0  0
 34105  1  0  0  0
 35 44  2  0  0  0
 35 45  1  0  0  0
 35 68  1  0  0  0
 36 56  1  0  0  0
 36106  1  0  0  0
 37 39  1  0  0  0
 37 47  1  0  0  0
 37 66  1  0  0  0
 37107  1  0  0  0
 38 43  2  0  0  0
 38 46  1  0  0  0
 38 47  1  0  0  0
 39 64  1  0  0  0
 39 67  2  0  0  0
 40 52  1  0  0  0
 40 53  2  0  0  0
 40 58  1  0  0  0
 41108  1  0  0  0
 41109  1  0  0  0
 41110  1  0  0  0
 41 48  1  0  0  0
 42 43  1  0  0  0
 42 66  1  0  0  0
 42111  1  0  0  0
 42112  1  0  0  0
 43 44  1  0  0  0
 44113  1  0  0  0
 45 46  2  0  0  0
 45114  1  0  0  0
 46115  1  0  0  0
 47116  1  0  0  0
 47117  1  0  0  0
 48 56  1  0  0  0
 48 65  1  0  0  0
 48118  1  0  0  0
 49 50  1  0  0  0
 49 53  1  0  0  0
 49 64  1  0  0  0
 49119  1  0  0  0
 50 51  1  0  0  0
 50120  1  0  0  0
 50121  1  0  0  0
 51 52  1  0  0  0
 51122  1  0  0  0
 51123  1  0  0  0
 52124  1  0  0  0
 52125  1  0  0  0
 53 54  1  0  0  0
 54 55  2  0  0  0
 54126  1  0  0  0
 55 57  1  0  0  0
 55127  1  0  0  0
 56 69  2  0  0  0
 57 58  2  0  0  0
 57128  1  0  0  0
 58129  1  0  0  0
 59 60  1  0  0  0
 59 61  1  0  0  0
 59 62  1  0  0  0
 60130  1  0  0  0
 60131  1  0  0  0
 60132  1  0  0  0
 61133  1  0  0  0
 61134  1  0  0  0
 61135  1  0  0  0
 62136  1  0  0  0
 62137  1  0  0  0
 62138  1  0  0  0
 63 65  1  0  0  0
 63139  1  0  0  0
 63140  1  0  0  0
 63141  1  0  0  0
 64142  1  0  0  0
 65143  1  0  0  0
 68 78  1  0  0  0
 71 72  2  0  0  0
 71 73  1  0  0  0
 71144  1  0  0  0
 72 74  1  0  0  0
 72145  1  0  0  0
 73 75  2  0  0  0
 73 84  1  0  0  0
 74 80  2  0  0  0
 74 82  1  0  0  0
 75 80  1  0  0  0
 75 81  1  0  0  0
 76 79  1  0  0  0
 76 81  1  0  0  0
 76 83  2  0  0  0
 77146  1  0  0  0
 77147  1  0  0  0
 77148  1  0  0  0
 77 79  1  0  0  0
 78 79  1  0  0  0
 78149  1  0  0  0
 78150  1  0  0  0
 79151  1  0  0  0
 81152  1  0  0  0
 82153  1  0  0  0
M  ISO  4   1 100  68 101  78 101  82 100
M  END
> <chiral flag>
0

> <version>
0

> <s_m_source_file>
/data/baiqing/PycharmProjects/Reinvent-master-3.2/result/LINK_invent/BTK/process_docking_weight1_custom_product_contain_oxygen_bond_distance_aromatic_linkinvent_7_9_3/rearranged_h_0188.sdf

> <i_m_source_file_index>
37

> <r_mmod_Potential_Energy-OPLS-2005>
69.3199691772461

> <r_mmod_Stretch_Energy-OPLS-2005>
141.379943847656

> <r_mmod_Bend_Energy-OPLS-2005>
168.306045532227

> <r_mmod_Torsional_Energy-OPLS-2005>
285.454650878906

> <r_mmod_Improper_Torsional_Energy-OPLS-2005>
7.25830936431885

> <r_mmod_Van_der_Waal_Energy-OPLS-2005>
139.833877563477

> <r_mmod_Electrostatic_Energy-OPLS-2005>
-529.485778808594

> <r_mmod_Solvation_Energy-OPLS-2005>
-236.107345581055

> <b_mmod_Minimization_Converged-OPLS-2005>
0

> <r_mmod_RMS_Derivative-OPLS-2005>
4.01709794998169

$$$$
38
                    3D
 Structure written by MMmdl.
162170  0  0  1  0            999 V2000
  -30.6660  -14.5620   20.4847 C   0  0  0  0  0  0
  -30.4139  -12.3362   19.4556 C   0  0  0  0  0  0
  -29.4987  -12.4955   18.2232 C   0  0  0  0  0  0
  -28.0210  -12.3435   18.6308 C   0  0  0  0  0  0
  -27.6484  -13.2157   19.8592 C   0  0  2  0  0  0
  -28.6872  -13.0717   20.9946 C   0  0  0  0  0  0
  -25.2543  -13.8169   20.5680 C   0  0  0  0  0  0
  -24.1814  -13.0440   20.9179 C   0  0  0  0  0  0
  -24.6374  -11.6903   20.8726 C   0  0  0  0  0  0
  -23.9043  -10.4292   21.0396 C   0  0  0  0  0  0
  -24.3603   -9.4212   21.9172 C   0  0  0  0  0  0
  -23.6291   -8.2243   22.0747 C   0  0  0  0  0  0
  -22.4274   -8.0267   21.3533 C   0  0  0  0  0  0
  -21.9896   -9.0233   20.4631 C   0  0  0  0  0  0
  -22.7217  -10.2119   20.3047 C   0  0  0  0  0  0
  -21.6863   -6.0730   22.5279 C   0  0  0  0  0  0
  -21.4020   -6.5637   23.8211 C   0  0  0  0  0  0
  -21.3672   -5.6790   24.9173 C   0  0  0  0  0  0
  -21.6052   -4.3052   24.7225 C   0  0  0  0  0  0
  -21.8823   -3.8139   23.4352 C   0  0  0  0  0  0
  -21.9201   -4.6955   22.3405 C   0  0  0  0  0  0
  -22.7838  -13.5222   21.1859 C   0  0  0  0  0  0
  -22.1668   -4.2146   21.0979 F   0  0  0  0  0  0
  -21.5630   -3.4536   25.7737 F   0  0  0  0  0  0
  -30.0143  -13.3638   20.4346 N   0  0  0  0  0  0
  -26.2955  -12.9347   20.3297 N   0  0  0  0  0  0
  -25.9298  -11.6500   20.5731 N   0  0  0  0  0  0
  -22.0496  -12.8195   22.0405 N   0  0  0  0  0  0
  -25.4262  -15.1905   20.4124 N   0  0  0  0  0  0
  -31.8453  -14.6650   20.1336 O   0  0  0  0  0  0
  -21.6649   -6.8859   21.4229 O   0  0  0  0  0  0
  -22.3515  -14.5540   20.6721 O   0  0  0  0  0  0
  -24.6182  -31.8625   23.2076 C   0  0  0  0  0  0
  -25.9053  -32.4799   23.8379 C   0  0  1  0  0  0
  -27.2314  -27.3911   20.1088 C   0  0  0  0  0  0
  -25.5888  -33.8598   24.2319 N   0  0  0  0  0  0
  -23.4095  -30.4848   21.5480 C   0  0  2  0  0  0
  -24.8562  -28.9416   20.1170 C   0  0  0  0  0  0
  -22.7422  -29.4632   22.4972 C   0  0  0  0  0  0
  -18.0277  -28.1381   22.8482 C   0  0  0  0  0  0
  -24.1479  -36.7321   23.2642 C   0  0  0  0  0  0
  -25.9421  -30.8164   21.3654 C   0  0  0  0  0  0
  -26.0198  -29.4477   20.7112 C   0  0  0  0  0  0
  -27.2136  -28.6831   20.6942 C   0  0  0  0  0  0
  -26.0506  -26.9054   19.5112 C   0  0  0  0  0  0
  -24.8692  -27.6727   19.5100 C   0  0  0  0  0  0
  -23.6197  -29.8129   20.1648 C   0  0  0  0  0  0
  -25.4103  -36.3109   24.0339 C   0  0  1  0  0  0
  -20.5865  -28.3672   23.1304 C   0  0  2  0  0  0
  -20.6762  -26.9398   22.5412 C   0  0  0  0  0  0
  -19.5751  -26.6385   21.5201 C   0  0  0  0  0  0
  -18.1928  -26.7928   22.1608 C   0  0  0  0  0  0
  -19.1523  -28.8842   23.2894 C   0  0  0  0  0  0
  -18.9444  -30.1446   23.8904 C   0  0  0  0  0  0
  -17.6445  -30.6578   24.0565 C   0  0  0  0  0  0
  -25.9026  -34.9464   23.5134 C   0  0  0  0  0  0
  -16.5341  -29.9073   23.6333 C   0  0  0  0  0  0
  -16.7263  -28.6496   23.0344 C   0  0  0  0  0  0
  -26.4474  -31.6593   25.0724 C   0  0  0  0  0  0
  -25.3751  -31.3671   26.1481 C   0  0  0  0  0  0
  -27.0313  -30.3033   24.6121 C   0  0  0  0  0  0
  -27.6041  -32.4315   25.7487 C   0  0  0  0  0  0
  -27.5587  -37.1812   24.8458 C   0  0  0  0  0  0
  -21.4144  -29.3034   22.3705 N   0  0  0  0  0  0
  -26.4296  -37.3790   23.9410 N   0  0  0  0  0  0
  -24.6753  -31.0699   22.0984 N   0  0  0  0  0  0
  -23.4170  -28.8164   23.3027 O   0  0  0  0  0  0
  -28.3831  -26.6223   20.1028 O   0  0  0  0  0  0
  -26.5586  -34.8920   22.4695 O   0  0  0  0  0  0
  -23.5364  -32.1378   23.7458 O   0  0  0  0  0  0
  -30.8973  -17.3147   19.1831 C   0  0  0  0  0  0
  -30.0521  -17.0016   20.2248 C   0  0  0  0  0  0
  -29.5334  -19.2402   19.9107 C   0  0  0  0  0  0
  -30.4787  -21.6921   21.5841 C   0  0  0  0  0  0
  -31.3963  -22.0490   23.9439 C   0  0  0  0  0  0
  -29.7633  -22.6074   18.2575 C   0  0  0  0  0  0
  -30.4822  -22.5800   22.8278 C   0  0  0  0  0  0
  -28.2150  -24.0928   19.6717 C   0  0  0  0  0  0
  -28.2962  -25.2912   20.6797 C   0  0  0  0  0  0
  -29.2309  -21.7898   20.6750 C   0  0  1  0  0  0
  -29.3786  -23.0308   19.6902 C   0  0  1  0  0  0
  -29.2877  -18.1273   20.6433 N   0  0  0  0  0  0
  -29.9082  -15.6618   20.7617 N   0  0  0  0  0  0
  -28.9017  -20.4977   20.0174 N   0  0  0  0  0  0
  -31.4622  -20.9954   21.3163 O   0  0  0  0  0  0
  -30.7669  -18.9816   18.6850 S   0  0  0  0  0  0
  -31.4619  -12.4188   19.1625 H   0  0  0  0  0  0
  -30.3024  -11.3405   19.8888 H   0  0  0  0  0  0
  -29.7510  -11.7539   17.4651 H   0  0  0  0  0  0
  -29.6603  -13.4724   17.7634 H   0  0  0  0  0  0
  -27.8506  -11.2904   18.8595 H   0  0  0  0  0  0
  -27.3707  -12.5789   17.7882 H   0  0  0  0  0  0
  -27.6669  -14.2494   19.5134 H   0  0  0  0  0  0
  -28.6694  -12.0611   21.4058 H   0  0  0  0  0  0
  -28.4433  -13.7362   21.8246 H   0  0  0  0  0  0
  -25.2751   -9.5712   22.4725 H   0  0  0  0  0  0
  -24.0024   -7.4644   22.7467 H   0  0  0  0  0  0
  -21.0835   -8.8737   19.8922 H   0  0  0  0  0  0
  -22.3675  -10.9646   19.6145 H   0  0  0  0  0  0
  -21.2003   -7.6147   23.9710 H   0  0  0  0  0  0
  -21.1492   -6.0522   25.9078 H   0  0  0  0  0  0
  -22.0588   -2.7603   23.2856 H   0  0  0  0  0  0
  -22.4143  -11.9868   22.4800 H   0  0  0  0  0  0
  -21.1104  -13.1192   22.2608 H   0  0  0  0  0  0
  -24.6575  -15.8440   20.5154 H   0  0  0  0  0  0
  -26.2791  -15.6328   20.0940 H   0  0  0  0  0  0
  -26.7114  -32.5488   23.1132 H   0  0  0  0  0  0
  -25.0045  -33.9738   25.0467 H   0  0  0  0  0  0
  -22.7016  -31.3034   21.4038 H   0  0  0  0  0  0
  -23.3742  -35.9653   23.3298 H   0  0  0  0  0  0
  -24.3580  -36.8948   22.2062 H   0  0  0  0  0  0
  -23.7226  -37.6521   23.6656 H   0  0  0  0  0  0
  -26.0604  -31.5820   20.5973 H   0  0  0  0  0  0
  -26.8279  -30.8682   21.9860 H   0  0  0  0  0  0
  -28.1144  -29.0709   21.1481 H   0  0  0  0  0  0
  -26.0432  -25.9321   19.0419 H   0  0  0  0  0  0
  -23.9762  -27.2786   19.0445 H   0  0  0  0  0  0
  -23.7291  -30.5845   19.4021 H   0  0  0  0  0  0
  -22.7433  -29.2329   19.8708 H   0  0  0  0  0  0
  -25.1281  -36.1984   25.0830 H   0  0  0  0  0  0
  -20.9959  -28.3244   24.1427 H   0  0  0  0  0  0
  -20.5657  -26.2268   23.3603 H   0  0  0  0  0  0
  -21.6635  -26.7426   22.1214 H   0  0  0  0  0  0
  -19.6909  -25.6295   21.1235 H   0  0  0  0  0  0
  -19.6713  -27.3195   20.6735 H   0  0  0  0  0  0
  -17.4198  -26.6685   21.4012 H   0  0  0  0  0  0
  -18.0325  -26.0061   22.8995 H   0  0  0  0  0  0
  -19.7915  -30.7269   24.2276 H   0  0  0  0  0  0
  -17.4990  -31.6256   24.5169 H   0  0  0  0  0  0
  -15.5338  -30.2972   23.7652 H   0  0  0  0  0  0
  -15.8665  -28.0819   22.7048 H   0  0  0  0  0  0
  -24.5916  -30.7027   25.7827 H   0  0  0  0  0  0
  -24.8949  -32.2802   26.4998 H   0  0  0  0  0  0
  -25.8134  -30.8797   27.0201 H   0  0  0  0  0  0
  -26.2855  -29.6779   24.1203 H   0  0  0  0  0  0
  -27.4101  -29.7294   25.4591 H   0  0  0  0  0  0
  -27.8681  -30.4359   23.9261 H   0  0  0  0  0  0
  -27.2647  -33.3575   26.2144 H   0  0  0  0  0  0
  -28.3810  -32.6956   25.0297 H   0  0  0  0  0  0
  -28.0758  -31.8397   26.5342 H   0  0  0  0  0  0
  -28.2599  -38.0114   24.7511 H   0  0  0  0  0  0
  -28.1088  -36.2650   24.6271 H   0  0  0  0  0  0
  -27.2300  -37.1449   25.8855 H   0  0  0  0  0  0
  -20.9302  -29.8765   21.6937 H   0  0  0  0  0  0
  -26.0195  -38.2871   24.1406 H   0  0  0  0  0  0
  -31.5819  -16.6692   18.6497 H   0  0  0  0  0  0
  -31.3477  -22.6891   24.8245 H   0  0  0  0  0  0
  -32.4376  -22.0068   23.6224 H   0  0  0  0  0  0
  -31.0998  -21.0433   24.2448 H   0  0  0  0  0  0
  -30.0228  -23.4750   17.6483 H   0  0  0  0  0  0
  -28.9498  -22.0871   17.7510 H   0  0  0  0  0  0
  -30.6399  -21.9588   18.2595 H   0  0  0  0  0  0
  -29.4607  -22.6727   23.1964 H   0  0  0  0  0  0
  -30.7972  -23.5789   22.5255 H   0  0  0  0  0  0
  -28.1589  -24.5340   18.6753 H   0  0  0  0  0  0
  -27.2609  -23.5791   19.7924 H   0  0  0  0  0  0
  -29.1742  -25.1735   21.3157 H   0  0  0  0  0  0
  -27.4537  -25.2397   21.3729 H   0  0  0  0  0  0
  -28.3863  -21.9995   21.3323 H   0  0  0  0  0  0
  -30.2467  -23.6078   20.0158 H   0  0  0  0  0  0
  -29.0344  -15.4688   21.2263 H   0  0  0  0  0  0
  -28.5945  -20.7391   19.0840 H   0  0  0  0  0  0
  1 25  1  0  0  0
  1 30  2  0  0  0
  1 83  1  0  0  0
  2  3  1  0  0  0
  2 25  1  0  0  0
  2 87  1  0  0  0
  2 88  1  0  0  0
  3  4  1  0  0  0
  3 89  1  0  0  0
  3 90  1  0  0  0
  4  5  1  0  0  0
  4 91  1  0  0  0
  4 92  1  0  0  0
  5  6  1  0  0  0
  5 26  1  0  0  0
  5 93  1  0  0  0
  6 25  1  0  0  0
  6 94  1  0  0  0
  6 95  1  0  0  0
  7  8  2  0  0  0
  7 26  1  0  0  0
  7 29  1  0  0  0
  8  9  1  0  0  0
  8 22  1  0  0  0
  9 10  1  0  0  0
  9 27  2  0  0  0
 10 11  2  0  0  0
 10 15  1  0  0  0
 11 12  1  0  0  0
 11 96  1  0  0  0
 12 13  2  0  0  0
 12 97  1  0  0  0
 13 14  1  0  0  0
 13 31  1  0  0  0
 14 15  2  0  0  0
 14 98  1  0  0  0
 15 99  1  0  0  0
 16 17  2  0  0  0
 16 21  1  0  0  0
 16 31  1  0  0  0
 17 18  1  0  0  0
 17100  1  0  0  0
 18 19  2  0  0  0
 18101  1  0  0  0
 19 20  1  0  0  0
 19 24  1  0  0  0
 20 21  2  0  0  0
 20102  1  0  0  0
 21 23  1  0  0  0
 22 28  1  0  0  0
 22 32  2  0  0  0
 26 27  1  0  0  0
 28103  1  0  0  0
 28104  1  0  0  0
 29105  1  0  0  0
 29106  1  0  0  0
 33 34  1  0  0  0
 33 66  1  0  0  0
 33 70  2  0  0  0
 34 36  1  0  0  0
 34 59  1  0  0  0
 34107  1  0  0  0
 35 44  2  0  0  0
 35 45  1  0  0  0
 35 68  1  0  0  0
 36 56  1  0  0  0
 36108  1  0  0  0
 37 39  1  0  0  0
 37 47  1  0  0  0
 37 66  1  0  0  0
 37109  1  0  0  0
 38 43  2  0  0  0
 38 46  1  0  0  0
 38 47  1  0  0  0
 39 64  1  0  0  0
 39 67  2  0  0  0
 40 52  1  0  0  0
 40 53  2  0  0  0
 40 58  1  0  0  0
 41110  1  0  0  0
 41111  1  0  0  0
 41112  1  0  0  0
 41 48  1  0  0  0
 42 43  1  0  0  0
 42 66  1  0  0  0
 42113  1  0  0  0
 42114  1  0  0  0
 43 44  1  0  0  0
 44115  1  0  0  0
 45 46  2  0  0  0
 45116  1  0  0  0
 46117  1  0  0  0
 47118  1  0  0  0
 47119  1  0  0  0
 48 56  1  0  0  0
 48 65  1  0  0  0
 48120  1  0  0  0
 49 50  1  0  0  0
 49 53  1  0  0  0
 49 64  1  0  0  0
 49121  1  0  0  0
 50 51  1  0  0  0
 50122  1  0  0  0
 50123  1  0  0  0
 51 52  1  0  0  0
 51124  1  0  0  0
 51125  1  0  0  0
 52126  1  0  0  0
 52127  1  0  0  0
 53 54  1  0  0  0
 54 55  2  0  0  0
 54128  1  0  0  0
 55 57  1  0  0  0
 55129  1  0  0  0
 56 69  2  0  0  0
 57 58  2  0  0  0
 57130  1  0  0  0
 58131  1  0  0  0
 59 60  1  0  0  0
 59 61  1  0  0  0
 59 62  1  0  0  0
 60132  1  0  0  0
 60133  1  0  0  0
 60134  1  0  0  0
 61135  1  0  0  0
 61136  1  0  0  0
 61137  1  0  0  0
 62138  1  0  0  0
 62139  1  0  0  0
 62140  1  0  0  0
 63 65  1  0  0  0
 63141  1  0  0  0
 63142  1  0  0  0
 63143  1  0  0  0
 64144  1  0  0  0
 65145  1  0  0  0
 68 79  1  0  0  0
 71 72  2  0  0  0
 71 86  1  0  0  0
 71146  1  0  0  0
 72 82  1  0  0  0
 72 83  1  0  0  0
 73 82  2  0  0  0
 73 84  1  0  0  0
 73 86  1  0  0  0
 74 77  1  0  0  0
 74 80  1  0  0  0
 74 85  2  0  0  0
 75 77  1  0  0  0
 75147  1  0  0  0
 75148  1  0  0  0
 75149  1  0  0  0
 76150  1  0  0  0
 76151  1  0  0  0
 76152  1  0  0  0
 76 81  1  0  0  0
 77153  1  0  0  0
 77154  1  0  0  0
 78 79  1  0  0  0
 78 81  1  0  0  0
 78155  1  0  0  0
 78156  1  0  0  0
 79157  1  0  0  0
 79158  1  0  0  0
 80 81  1  0  0  0
 80 84  1  0  0  0
 80159  1  0  0  0
 81160  1  0  0  0
 83161  1  0  0  0
 84162  1  0  0  0
M  ISO  4   1 100  68 101  79 101  83 100
M  END
> <chiral flag>
0

> <version>
0

> <s_m_source_file>
/data/baiqing/PycharmProjects/Reinvent-master-3.2/result/LINK_invent/BTK/process_docking_weight1_custom_product_contain_oxygen_bond_distance_aromatic_linkinvent_7_9_3/rearranged_h_0188.sdf

> <i_m_source_file_index>
38

> <r_mmod_Potential_Energy-OPLS-2005>
-22.4644870758057

> <r_mmod_Stretch_Energy-OPLS-2005>
54.6095809936523

> <r_mmod_Bend_Energy-OPLS-2005>
120.290893554688

> <r_mmod_Torsional_Energy-OPLS-2005>
307.228271484375

> <r_mmod_Improper_Torsional_Energy-OPLS-2005>
9.57637023925781

> <r_mmod_Van_der_Waal_Energy-OPLS-2005>
126.993286132812

> <r_mmod_Electrostatic_Energy-OPLS-2005>
-439.222930908203

> <r_mmod_Solvation_Energy-OPLS-2005>
-228.571014404297

> <b_mmod_Minimization_Converged-OPLS-2005>
0

> <r_mmod_RMS_Derivative-OPLS-2005>
1.88473916053772

$$$$
39
                    3D
 Structure written by MMmdl.
154162  0  0  1  0            999 V2000
  -30.5837  -14.7978   20.4439 C   0  0  0  0  0  0
  -30.4452  -12.4860   19.4720 C   0  0  0  0  0  0
  -29.5180  -12.4982   18.2354 C   0  0  0  0  0  0
  -28.0458  -12.3082   18.6562 C   0  0  0  0  0  0
  -27.6397  -13.2260   19.8400 C   0  0  2  0  0  0
  -28.6865  -13.1884   20.9743 C   0  0  0  0  0  0
  -25.2519  -13.8176   20.5665 C   0  0  0  0  0  0
  -24.1809  -13.0430   20.9195 C   0  0  0  0  0  0
  -24.6386  -11.6904   20.8729 C   0  0  0  0  0  0
  -23.9053  -10.4286   21.0400 C   0  0  0  0  0  0
  -24.3607   -9.4210   21.9181 C   0  0  0  0  0  0
  -23.6292   -8.2242   22.0750 C   0  0  0  0  0  0
  -22.4274   -8.0271   21.3536 C   0  0  0  0  0  0
  -21.9904   -9.0245   20.4646 C   0  0  0  0  0  0
  -22.7219  -10.2131   20.3053 C   0  0  0  0  0  0
  -21.6856   -6.0727   22.5274 C   0  0  0  0  0  0
  -21.4015   -6.5633   23.8210 C   0  0  0  0  0  0
  -21.3657   -5.6785   24.9169 C   0  0  0  0  0  0
  -21.6046   -4.3051   24.7225 C   0  0  0  0  0  0
  -21.8818   -3.8137   23.4346 C   0  0  0  0  0  0
  -21.9190   -4.6952   22.3399 C   0  0  0  0  0  0
  -22.7829  -13.5230   21.1850 C   0  0  0  0  0  0
  -22.1659   -4.2136   21.0980 F   0  0  0  0  0  0
  -21.5631   -3.4538   25.7739 F   0  0  0  0  0  0
  -29.9791  -13.5577   20.3824 N   0  0  0  0  0  0
  -26.2930  -12.9364   20.3224 N   0  0  0  0  0  0
  -25.9315  -11.6515   20.5729 N   0  0  0  0  0  0
  -22.0460  -12.8246   22.0414 N   0  0  0  0  0  0
  -25.4191  -15.1906   20.4058 N   0  0  0  0  0  0
  -31.7907  -14.8910   20.1947 O   0  0  0  0  0  0
  -21.6635   -6.8872   21.4238 O   0  0  0  0  0  0
  -22.3514  -14.5520   20.6669 O   0  0  0  0  0  0
  -24.6343  -31.8519   23.1938 C   0  0  0  0  0  0
  -25.9155  -32.4732   23.8306 C   0  0  1  0  0  0
  -27.2277  -27.2365   20.1435 C   0  0  0  0  0  0
  -25.5944  -33.8536   24.2239 N   0  0  0  0  0  0
  -23.4331  -30.4696   21.5390 C   0  0  2  0  0  0
  -24.8821  -28.9044   20.1163 C   0  0  0  0  0  0
  -22.7526  -29.4582   22.4927 C   0  0  0  0  0  0
  -18.0296  -28.1387   22.8490 C   0  0  0  0  0  0
  -24.1492  -36.7273   23.2643 C   0  0  0  0  0  0
  -25.9794  -30.7560   21.3773 C   0  0  0  0  0  0
  -26.0540  -29.3740   20.7244 C   0  0  0  0  0  0
  -27.2313  -28.5548   20.7205 C   0  0  0  0  0  0
  -26.0334  -26.8334   19.5125 C   0  0  0  0  0  0
  -24.8780  -27.6434   19.4972 C   0  0  0  0  0  0
  -23.6526  -29.7937   20.1588 C   0  0  0  0  0  0
  -25.4116  -36.3056   24.0333 C   0  0  1  0  0  0
  -20.5903  -28.3699   23.1279 C   0  0  2  0  0  0
  -20.6790  -26.9416   22.5424 C   0  0  0  0  0  0
  -19.5764  -26.6379   21.5230 C   0  0  0  0  0  0
  -18.1938  -26.7931   22.1630 C   0  0  0  0  0  0
  -19.1552  -28.8860   23.2874 C   0  0  0  0  0  0
  -18.9468  -30.1461   23.8890 C   0  0  0  0  0  0
  -17.6466  -30.6590   24.0558 C   0  0  0  0  0  0
  -25.9057  -34.9426   23.5092 C   0  0  0  0  0  0
  -16.5356  -29.9084   23.6330 C   0  0  0  0  0  0
  -16.7282  -28.6501   23.0356 C   0  0  0  0  0  0
  -26.4509  -31.6563   25.0707 C   0  0  0  0  0  0
  -25.3724  -31.3731   26.1428 C   0  0  0  0  0  0
  -27.0371  -30.2973   24.6223 C   0  0  0  0  0  0
  -27.6063  -32.4309   25.7477 C   0  0  0  0  0  0
  -27.5581  -37.1789   24.8463 C   0  0  0  0  0  0
  -21.4230  -29.3033   22.3664 N   0  0  0  0  0  0
  -26.4287  -37.3759   23.9414 N   0  0  0  0  0  0
  -24.7015  -31.0451   22.0930 N   0  0  0  0  0  0
  -23.4211  -28.8147   23.3058 O   0  0  0  0  0  0
  -28.3350  -26.3514   20.1275 O   0  0  0  0  0  0
  -26.5631  -34.8915   22.4662 O   0  0  0  0  0  0
  -23.5486  -32.1364   23.7210 O   0  0  0  0  0  0
  -31.0844  -17.9245   21.3001 C   0  0  0  0  0  0
  -30.0167  -17.3923   20.6167 C   0  0  0  0  0  0
  -29.5583  -19.7685   20.4188 C   0  0  0  0  0  0
  -28.9428  -21.1136   19.8913 C   0  0  0  0  0  0
  -30.0651  -24.0677   19.0147 C   0  0  0  0  0  0
  -28.8480  -24.9653   22.0272 C   0  0  0  0  0  0
  -28.7903  -23.6467   19.7636 C   0  0  2  0  0  0
  -28.2190  -24.9234   20.6280 C   0  0  2  0  0  0
  -29.1693  -18.4682   20.1370 N   0  0  0  0  0  0
  -29.1173  -22.3049   20.4662 N   0  0  0  0  0  0
  -28.2840  -20.9095   18.6996 N   0  0  0  0  0  0
  -29.7597  -15.9239   20.5134 N   0  0  0  0  0  0
  -31.0427  -19.6948   21.3832 S   0  0  0  0  0  0
  -31.4823  -12.6332   19.1650 H   0  0  0  0  0  0
  -30.4146  -11.5165   19.9724 H   0  0  0  0  0  0
  -29.8131  -11.7141   17.5359 H   0  0  0  0  0  0
  -29.6288  -13.4427   17.7003 H   0  0  0  0  0  0
  -27.9252  -11.2644   18.9474 H   0  0  0  0  0  0
  -27.3817  -12.4641   17.8054 H   0  0  0  0  0  0
  -27.6240  -14.2380   19.4355 H   0  0  0  0  0  0
  -28.7371  -12.1983   21.4289 H   0  0  0  0  0  0
  -28.4133  -13.8773   21.7755 H   0  0  0  0  0  0
  -25.2752   -9.5698   22.4753 H   0  0  0  0  0  0
  -23.9995   -7.4643   22.7485 H   0  0  0  0  0  0
  -21.0824   -8.8768   19.8968 H   0  0  0  0  0  0
  -22.3668  -10.9669   19.6166 H   0  0  0  0  0  0
  -21.2008   -7.6143   23.9712 H   0  0  0  0  0  0
  -21.1481   -6.0514   25.9076 H   0  0  0  0  0  0
  -22.0598   -2.7600   23.2847 H   0  0  0  0  0  0
  -22.4068  -11.9931   22.4855 H   0  0  0  0  0  0
  -21.1074  -13.1295   22.2577 H   0  0  0  0  0  0
  -24.6434  -15.8359   20.5126 H   0  0  0  0  0  0
  -26.2519  -15.6356   20.0431 H   0  0  0  0  0  0
  -26.7223  -32.5368   23.1047 H   0  0  0  0  0  0
  -25.0093  -33.9657   25.0389 H   0  0  0  0  0  0
  -22.7312  -31.2921   21.3877 H   0  0  0  0  0  0
  -23.3758  -35.9599   23.3289 H   0  0  0  0  0  0
  -24.3581  -36.8912   22.2059 H   0  0  0  0  0  0
  -23.7240  -37.6470   23.6674 H   0  0  0  0  0  0
  -26.1208  -31.5112   20.6032 H   0  0  0  0  0  0
  -26.8559  -30.8071   22.0117 H   0  0  0  0  0  0
  -28.1330  -28.9132   21.1970 H   0  0  0  0  0  0
  -25.9898  -25.8672   19.0298 H   0  0  0  0  0  0
  -23.9828  -27.2799   19.0114 H   0  0  0  0  0  0
  -23.7742  -30.5639   19.3966 H   0  0  0  0  0  0
  -22.7723  -29.2223   19.8582 H   0  0  0  0  0  0
  -25.1297  -36.1900   25.0826 H   0  0  0  0  0  0
  -20.9986  -28.3277   24.1405 H   0  0  0  0  0  0
  -20.5710  -26.2308   23.3631 H   0  0  0  0  0  0
  -21.6656  -26.7454   22.1207 H   0  0  0  0  0  0
  -19.6926  -25.6288   21.1262 H   0  0  0  0  0  0
  -19.6699  -27.3191   20.6761 H   0  0  0  0  0  0
  -17.4223  -26.6699   21.4014 H   0  0  0  0  0  0
  -18.0312  -26.0068   22.9018 H   0  0  0  0  0  0
  -19.7935  -30.7280   24.2268 H   0  0  0  0  0  0
  -17.5010  -31.6266   24.5163 H   0  0  0  0  0  0
  -15.5354  -30.2980   23.7648 H   0  0  0  0  0  0
  -15.8686  -28.0806   22.7083 H   0  0  0  0  0  0
  -24.5889  -30.7096   25.7751 H   0  0  0  0  0  0
  -24.8926  -32.2909   26.4834 H   0  0  0  0  0  0
  -25.8025  -30.8909   27.0216 H   0  0  0  0  0  0
  -26.2969  -29.6696   24.1250 H   0  0  0  0  0  0
  -27.4053  -29.7257   25.4752 H   0  0  0  0  0  0
  -27.8840  -30.4239   23.9476 H   0  0  0  0  0  0
  -27.2680  -33.3625   26.2022 H   0  0  0  0  0  0
  -28.3881  -32.6847   25.0306 H   0  0  0  0  0  0
  -28.0725  -31.8457   26.5415 H   0  0  0  0  0  0
  -28.2595  -38.0091   24.7518 H   0  0  0  0  0  0
  -28.1088  -36.2628   24.6274 H   0  0  0  0  0  0
  -27.2308  -37.1417   25.8868 H   0  0  0  0  0  0
  -20.9447  -29.8721   21.6817 H   0  0  0  0  0  0
  -26.0168  -38.2837   24.1406 H   0  0  0  0  0  0
  -31.8873  -17.3922   21.7934 H   0  0  0  0  0  0
  -29.9108  -24.9926   18.4588 H   0  0  0  0  0  0
  -30.3699  -23.3064   18.2951 H   0  0  0  0  0  0
  -30.8978  -24.2295   19.6994 H   0  0  0  0  0  0
  -28.7017  -24.0228   22.5559 H   0  0  0  0  0  0
  -28.4025  -25.7527   22.6362 H   0  0  0  0  0  0
  -29.9196  -25.1560   21.9689 H   0  0  0  0  0  0
  -28.0366  -23.4796   18.9934 H   0  0  0  0  0  0
  -27.1595  -24.7175   20.7835 H   0  0  0  0  0  0
  -28.1704  -19.9829   18.3056 H   0  0  0  0  0  0
  -27.7572  -21.5988   18.1841 H   0  0  0  0  0  0
  -28.7822  -15.6866   20.4726 H   0  0  0  0  0  0
  1 25  1  0  0  0
  1 30  2  0  0  0
  1 82  1  0  0  0
  2  3  1  0  0  0
  2 25  1  0  0  0
  2 84  1  0  0  0
  2 85  1  0  0  0
  3  4  1  0  0  0
  3 86  1  0  0  0
  3 87  1  0  0  0
  4  5  1  0  0  0
  4 88  1  0  0  0
  4 89  1  0  0  0
  5  6  1  0  0  0
  5 26  1  0  0  0
  5 90  1  0  0  0
  6 25  1  0  0  0
  6 91  1  0  0  0
  6 92  1  0  0  0
  7  8  2  0  0  0
  7 26  1  0  0  0
  7 29  1  0  0  0
  8  9  1  0  0  0
  8 22  1  0  0  0
  9 10  1  0  0  0
  9 27  2  0  0  0
 10 11  2  0  0  0
 10 15  1  0  0  0
 11 12  1  0  0  0
 11 93  1  0  0  0
 12 13  2  0  0  0
 12 94  1  0  0  0
 13 14  1  0  0  0
 13 31  1  0  0  0
 14 15  2  0  0  0
 14 95  1  0  0  0
 15 96  1  0  0  0
 16 17  2  0  0  0
 16 21  1  0  0  0
 16 31  1  0  0  0
 17 18  1  0  0  0
 17 97  1  0  0  0
 18 19  2  0  0  0
 18 98  1  0  0  0
 19 20  1  0  0  0
 19 24  1  0  0  0
 20 21  2  0  0  0
 20 99  1  0  0  0
 21 23  1  0  0  0
 22 28  1  0  0  0
 22 32  2  0  0  0
 26 27  1  0  0  0
 28100  1  0  0  0
 28101  1  0  0  0
 29102  1  0  0  0
 29103  1  0  0  0
 33 34  1  0  0  0
 33 66  1  0  0  0
 33 70  2  0  0  0
 34 36  1  0  0  0
 34 59  1  0  0  0
 34104  1  0  0  0
 35 44  2  0  0  0
 35 45  1  0  0  0
 35 68  1  0  0  0
 36 56  1  0  0  0
 36105  1  0  0  0
 37 39  1  0  0  0
 37 47  1  0  0  0
 37 66  1  0  0  0
 37106  1  0  0  0
 38 43  2  0  0  0
 38 46  1  0  0  0
 38 47  1  0  0  0
 39 64  1  0  0  0
 39 67  2  0  0  0
 40 52  1  0  0  0
 40 53  2  0  0  0
 40 58  1  0  0  0
 41107  1  0  0  0
 41108  1  0  0  0
 41109  1  0  0  0
 41 48  1  0  0  0
 42 43  1  0  0  0
 42 66  1  0  0  0
 42110  1  0  0  0
 42111  1  0  0  0
 43 44  1  0  0  0
 44112  1  0  0  0
 45 46  2  0  0  0
 45113  1  0  0  0
 46114  1  0  0  0
 47115  1  0  0  0
 47116  1  0  0  0
 48 56  1  0  0  0
 48 65  1  0  0  0
 48117  1  0  0  0
 49 50  1  0  0  0
 49 53  1  0  0  0
 49 64  1  0  0  0
 49118  1  0  0  0
 50 51  1  0  0  0
 50119  1  0  0  0
 50120  1  0  0  0
 51 52  1  0  0  0
 51121  1  0  0  0
 51122  1  0  0  0
 52123  1  0  0  0
 52124  1  0  0  0
 53 54  1  0  0  0
 54 55  2  0  0  0
 54125  1  0  0  0
 55 57  1  0  0  0
 55126  1  0  0  0
 56 69  2  0  0  0
 57 58  2  0  0  0
 57127  1  0  0  0
 58128  1  0  0  0
 59 60  1  0  0  0
 59 61  1  0  0  0
 59 62  1  0  0  0
 60129  1  0  0  0
 60130  1  0  0  0
 60131  1  0  0  0
 61132  1  0  0  0
 61133  1  0  0  0
 61134  1  0  0  0
 62135  1  0  0  0
 62136  1  0  0  0
 62137  1  0  0  0
 63 65  1  0  0  0
 63138  1  0  0  0
 63139  1  0  0  0
 63140  1  0  0  0
 64141  1  0  0  0
 65142  1  0  0  0
 68 78  1  0  0  0
 71 72  2  0  0  0
 71 83  1  0  0  0
 71143  1  0  0  0
 72 79  1  0  0  0
 72 82  1  0  0  0
 73 74  1  0  0  0
 73 79  2  0  0  0
 73 83  1  0  0  0
 74 80  2  0  0  0
 74 81  1  0  0  0
 75144  1  0  0  0
 75145  1  0  0  0
 75146  1  0  0  0
 75 77  1  0  0  0
 76147  1  0  0  0
 76148  1  0  0  0
 76149  1  0  0  0
 76 78  1  0  0  0
 77 78  1  0  0  0
 77 80  1  0  0  0
 77150  1  0  0  0
 78151  1  0  0  0
 81152  1  0  0  0
 81153  1  0  0  0
 82154  1  0  0  0
M  ISO  4   1 100  68 101  78 101  82 100
M  END
> <chiral flag>
0

> <version>
0

> <s_m_source_file>
/data/baiqing/PycharmProjects/Reinvent-master-3.2/result/LINK_invent/BTK/process_docking_weight1_custom_product_contain_oxygen_bond_distance_aromatic_linkinvent_7_9_3/rearranged_h_0188.sdf

> <i_m_source_file_index>
39

> <r_mmod_Potential_Energy-OPLS-2005>
138.786560058594

> <r_mmod_Stretch_Energy-OPLS-2005>
147.436676025391

> <r_mmod_Bend_Energy-OPLS-2005>
192.551727294922

> <r_mmod_Torsional_Energy-OPLS-2005>
269.277709960938

> <r_mmod_Improper_Torsional_Energy-OPLS-2005>
7.83199739456177

> <r_mmod_Van_der_Waal_Energy-OPLS-2005>
112.932609558105

> <r_mmod_Electrostatic_Energy-OPLS-2005>
-465.931243896484

> <r_mmod_Solvation_Energy-OPLS-2005>
-229.382720947266

> <b_mmod_Minimization_Converged-OPLS-2005>
0

> <r_mmod_RMS_Derivative-OPLS-2005>
1.73510777950287

$$$$
40
                    3D
 Structure written by MMmdl.
150158  0  0  1  0            999 V2000
  -30.6499  -14.7199   20.4327 C   0  0  0  0  0  0
  -30.4129  -12.4311   19.4816 C   0  0  0  0  0  0
  -29.5035  -12.4956   18.2372 C   0  0  0  0  0  0
  -28.0289  -12.3308   18.6479 C   0  0  0  0  0  0
  -27.6361  -13.2371   19.8460 C   0  0  2  0  0  0
  -28.6792  -13.1909   20.9841 C   0  0  0  0  0  0
  -25.2481  -13.8215   20.5702 C   0  0  0  0  0  0
  -24.1786  -13.0447   20.9217 C   0  0  0  0  0  0
  -24.6382  -11.6926   20.8751 C   0  0  0  0  0  0
  -23.9065  -10.4297   21.0404 C   0  0  0  0  0  0
  -24.3617   -9.4210   21.9178 C   0  0  0  0  0  0
  -23.6293   -8.2245   22.0752 C   0  0  0  0  0  0
  -22.4275   -8.0281   21.3544 C   0  0  0  0  0  0
  -21.9910   -9.0253   20.4645 C   0  0  0  0  0  0
  -22.7236  -10.2132   20.3052 C   0  0  0  0  0  0
  -21.6856   -6.0730   22.5276 C   0  0  0  0  0  0
  -21.4020   -6.5635   23.8209 C   0  0  0  0  0  0
  -21.3660   -5.6787   24.9171 C   0  0  0  0  0  0
  -21.6044   -4.3050   24.7222 C   0  0  0  0  0  0
  -21.8819   -3.8140   23.4343 C   0  0  0  0  0  0
  -21.9196   -4.6958   22.3401 C   0  0  0  0  0  0
  -22.7806  -13.5220   21.1868 C   0  0  0  0  0  0
  -22.1661   -4.2145   21.0978 F   0  0  0  0  0  0
  -21.5629   -3.4535   25.7733 F   0  0  0  0  0  0
  -29.9827  -13.5157   20.3968 N   0  0  0  0  0  0
  -26.2904  -12.9432   20.3266 N   0  0  0  0  0  0
  -25.9313  -11.6568   20.5752 N   0  0  0  0  0  0
  -22.0453  -12.8214   22.0426 N   0  0  0  0  0  0
  -25.4154  -15.1944   20.4111 N   0  0  0  0  0  0
  -31.8519  -14.7133   20.1534 O   0  0  0  0  0  0
  -21.6643   -6.8874   21.4237 O   0  0  0  0  0  0
  -22.3488  -14.5520   20.6704 O   0  0  0  0  0  0
  -24.6288  -31.8556   23.1984 C   0  0  0  0  0  0
  -25.9126  -32.4753   23.8317 C   0  0  1  0  0  0
  -27.2173  -27.2763   20.1241 C   0  0  0  0  0  0
  -25.5931  -33.8555   24.2250 N   0  0  0  0  0  0
  -23.4233  -30.4785   21.5415 C   0  0  2  0  0  0
  -24.8673  -28.9235   20.1090 C   0  0  0  0  0  0
  -22.7483  -29.4606   22.4916 C   0  0  0  0  0  0
  -18.0289  -28.1390   22.8482 C   0  0  0  0  0  0
  -24.1494  -36.7283   23.2639 C   0  0  0  0  0  0
  -25.9662  -30.7735   21.3735 C   0  0  0  0  0  0
  -26.0363  -29.3966   20.7161 C   0  0  0  0  0  0
  -27.2104  -28.5835   20.7136 C   0  0  0  0  0  0
  -26.0215  -26.8570   19.5002 C   0  0  0  0  0  0
  -24.8636  -27.6617   19.4928 C   0  0  0  0  0  0
  -23.6389  -29.8108   20.1570 C   0  0  0  0  0  0
  -25.4121  -36.3069   24.0324 C   0  0  1  0  0  0
  -20.5890  -28.3694   23.1276 C   0  0  2  0  0  0
  -20.6782  -26.9417   22.5406 C   0  0  0  0  0  0
  -19.5759  -26.6387   21.5209 C   0  0  0  0  0  0
  -18.1936  -26.7932   22.1621 C   0  0  0  0  0  0
  -19.1542  -28.8857   23.2877 C   0  0  0  0  0  0
  -18.9464  -30.1460   23.8894 C   0  0  0  0  0  0
  -17.6464  -30.6588   24.0562 C   0  0  0  0  0  0
  -25.9058  -34.9439   23.5090 C   0  0  0  0  0  0
  -16.5356  -29.9089   23.6326 C   0  0  0  0  0  0
  -16.7275  -28.6508   23.0345 C   0  0  0  0  0  0
  -26.4503  -31.6573   25.0699 C   0  0  0  0  0  0
  -25.3729  -31.3714   26.1420 C   0  0  0  0  0  0
  -27.0351  -30.2995   24.6171 C   0  0  0  0  0  0
  -27.6059  -32.4309   25.7475 C   0  0  0  0  0  0
  -27.5583  -37.1800   24.8467 C   0  0  0  0  0  0
  -21.4192  -29.3044   22.3666 N   0  0  0  0  0  0
  -26.4296  -37.3767   23.9408 N   0  0  0  0  0  0
  -24.6917  -31.0542   22.0943 N   0  0  0  0  0  0
  -23.4194  -28.8148   23.3007 O   0  0  0  0  0  0
  -28.3468  -26.4375   20.2009 O   0  0  0  0  0  0
  -26.5629  -34.8915   22.4658 O   0  0  0  0  0  0
  -23.5447  -32.1366   23.7305 O   0  0  0  0  0  0
  -28.5129  -18.9277   21.2848 C   0  0  0  0  0  0
  -29.5516  -18.4996   20.4752 C   0  0  0  0  0  0
  -28.9331  -21.0282   20.3456 C   0  0  0  0  0  0
  -30.3825  -17.2026   20.3165 C   0  0  0  0  0  0
  -26.7958  -23.5362   20.9903 C   0  0  0  0  0  0
  -28.4168  -25.0434   19.6633 C   0  0  0  0  0  0
  -28.2654  -23.7298   20.5950 C   0  0  2  0  0  0
  -28.1866  -20.3211   21.2102 N   0  0  0  0  0  0
  -28.8496  -22.4405   20.0539 N   0  0  0  0  0  0
  -29.9307  -15.9086   20.5705 N   0  0  0  0  0  0
  -31.5302  -17.3969   19.8999 O   0  0  0  0  0  0
  -30.1190  -19.9353   19.5673 S   0  0  0  0  0  0
  -31.4587  -12.5152   19.1818 H   0  0  0  0  0  0
  -30.3256  -11.4609   19.9739 H   0  0  0  0  0  0
  -29.7822  -11.7192   17.5232 H   0  0  0  0  0  0
  -29.6413  -13.4484   17.7234 H   0  0  0  0  0  0
  -27.8800  -11.2835   18.9134 H   0  0  0  0  0  0
  -27.3751  -12.5234   17.7963 H   0  0  0  0  0  0
  -27.6258  -14.2548   19.4558 H   0  0  0  0  0  0
  -28.7053  -12.2048   21.4502 H   0  0  0  0  0  0
  -28.4207  -13.8992   21.7730 H   0  0  0  0  0  0
  -25.2759   -9.5693   22.4754 H   0  0  0  0  0  0
  -24.0002   -7.4641   22.7476 H   0  0  0  0  0  0
  -21.0839   -8.8764   19.8956 H   0  0  0  0  0  0
  -22.3683  -10.9667   19.6164 H   0  0  0  0  0  0
  -21.2013   -7.6143   23.9711 H   0  0  0  0  0  0
  -21.1485   -6.0518   25.9074 H   0  0  0  0  0  0
  -22.0601   -2.7604   23.2843 H   0  0  0  0  0  0
  -22.4073  -11.9880   22.4819 H   0  0  0  0  0  0
  -21.1070  -13.1238   22.2630 H   0  0  0  0  0  0
  -24.6412  -15.8419   20.5124 H   0  0  0  0  0  0
  -26.2493  -15.6324   20.0426 H   0  0  0  0  0  0
  -26.7188  -32.5404   23.1052 H   0  0  0  0  0  0
  -25.0081  -33.9691   25.0398 H   0  0  0  0  0  0
  -22.7189  -31.3004   21.3970 H   0  0  0  0  0  0
  -23.3756  -35.9617   23.3300 H   0  0  0  0  0  0
  -24.3582  -36.8904   22.2054 H   0  0  0  0  0  0
  -23.7249  -37.6484   23.6663 H   0  0  0  0  0  0
  -26.1028  -31.5347   20.6044 H   0  0  0  0  0  0
  -26.8452  -30.8217   22.0048 H   0  0  0  0  0  0
  -28.1076  -28.9408   21.2001 H   0  0  0  0  0  0
  -25.9417  -25.8850   19.0396 H   0  0  0  0  0  0
  -23.9639  -27.2913   19.0208 H   0  0  0  0  0  0
  -23.7648  -30.5870   19.4010 H   0  0  0  0  0  0
  -22.7563  -29.2462   19.8518 H   0  0  0  0  0  0
  -25.1308  -36.1913   25.0817 H   0  0  0  0  0  0
  -20.9991  -28.3276   24.1394 H   0  0  0  0  0  0
  -20.5695  -26.2301   23.3607 H   0  0  0  0  0  0
  -21.6646  -26.7454   22.1190 H   0  0  0  0  0  0
  -19.6919  -25.6300   21.1240 H   0  0  0  0  0  0
  -19.6696  -27.3196   20.6742 H   0  0  0  0  0  0
  -17.4205  -26.6676   21.4023 H   0  0  0  0  0  0
  -18.0339  -26.0077   22.9019 H   0  0  0  0  0  0
  -19.7940  -30.7274   24.2264 H   0  0  0  0  0  0
  -17.5020  -31.6265   24.5170 H   0  0  0  0  0  0
  -15.5356  -30.2991   23.7659 H   0  0  0  0  0  0
  -15.8674  -28.0832   22.7059 H   0  0  0  0  0  0
  -24.5921  -30.7045   25.7747 H   0  0  0  0  0  0
  -24.8902  -32.2877   26.4826 H   0  0  0  0  0  0
  -25.8052  -30.8906   27.0204 H   0  0  0  0  0  0
  -26.2926  -29.6732   24.1211 H   0  0  0  0  0  0
  -27.4060  -29.7266   25.4680 H   0  0  0  0  0  0
  -27.8790  -30.4276   23.9389 H   0  0  0  0  0  0
  -27.2675  -33.3617   26.2038 H   0  0  0  0  0  0
  -28.3882  -32.6849   25.0309 H   0  0  0  0  0  0
  -28.0712  -31.8433   26.5400 H   0  0  0  0  0  0
  -28.2602  -38.0095   24.7510 H   0  0  0  0  0  0
  -28.1076  -36.2625   24.6303 H   0  0  0  0  0  0
  -27.2294  -37.1462   25.8867 H   0  0  0  0  0  0
  -20.9376  -29.8755   21.6862 H   0  0  0  0  0  0
  -26.0171  -38.2841   24.1401 H   0  0  0  0  0  0
  -27.9739  -18.3159   21.9948 H   0  0  0  0  0  0
  -26.3921  -24.4468   21.4353 H   0  0  0  0  0  0
  -26.6789  -22.7395   21.7255 H   0  0  0  0  0  0
  -26.1785  -23.2901   20.1257 H   0  0  0  0  0  0
  -27.8001  -24.9347   18.7724 H   0  0  0  0  0  0
  -29.4301  -24.9979   19.2642 H   0  0  0  0  0  0
  -28.8255  -23.9338   21.5088 H   0  0  0  0  0  0
  -29.5025  -22.6542   19.3053 H   0  0  0  0  0  0
  -28.9627  -15.8184   20.8259 H   0  0  0  0  0  0
  1 25  1  0  0  0
  1 30  2  0  0  0
  1 80  1  0  0  0
  2  3  1  0  0  0
  2 25  1  0  0  0
  2 83  1  0  0  0
  2 84  1  0  0  0
  3  4  1  0  0  0
  3 85  1  0  0  0
  3 86  1  0  0  0
  4  5  1  0  0  0
  4 87  1  0  0  0
  4 88  1  0  0  0
  5  6  1  0  0  0
  5 26  1  0  0  0
  5 89  1  0  0  0
  6 25  1  0  0  0
  6 90  1  0  0  0
  6 91  1  0  0  0
  7  8  2  0  0  0
  7 26  1  0  0  0
  7 29  1  0  0  0
  8  9  1  0  0  0
  8 22  1  0  0  0
  9 10  1  0  0  0
  9 27  2  0  0  0
 10 11  2  0  0  0
 10 15  1  0  0  0
 11 12  1  0  0  0
 11 92  1  0  0  0
 12 13  2  0  0  0
 12 93  1  0  0  0
 13 14  1  0  0  0
 13 31  1  0  0  0
 14 15  2  0  0  0
 14 94  1  0  0  0
 15 95  1  0  0  0
 16 17  2  0  0  0
 16 21  1  0  0  0
 16 31  1  0  0  0
 17 18  1  0  0  0
 17 96  1  0  0  0
 18 19  2  0  0  0
 18 97  1  0  0  0
 19 20  1  0  0  0
 19 24  1  0  0  0
 20 21  2  0  0  0
 20 98  1  0  0  0
 21 23  1  0  0  0
 22 28  1  0  0  0
 22 32  2  0  0  0
 26 27  1  0  0  0
 28 99  1  0  0  0
 28100  1  0  0  0
 29101  1  0  0  0
 29102  1  0  0  0
 33 34  1  0  0  0
 33 66  1  0  0  0
 33 70  2  0  0  0
 34 36  1  0  0  0
 34 59  1  0  0  0
 34103  1  0  0  0
 35 44  2  0  0  0
 35 45  1  0  0  0
 35 68  1  0  0  0
 36 56  1  0  0  0
 36104  1  0  0  0
 37 39  1  0  0  0
 37 47  1  0  0  0
 37 66  1  0  0  0
 37105  1  0  0  0
 38 43  2  0  0  0
 38 46  1  0  0  0
 38 47  1  0  0  0
 39 64  1  0  0  0
 39 67  2  0  0  0
 40 52  1  0  0  0
 40 53  2  0  0  0
 40 58  1  0  0  0
 41106  1  0  0  0
 41107  1  0  0  0
 41108  1  0  0  0
 41 48  1  0  0  0
 42 43  1  0  0  0
 42 66  1  0  0  0
 42109  1  0  0  0
 42110  1  0  0  0
 43 44  1  0  0  0
 44111  1  0  0  0
 45 46  2  0  0  0
 45112  1  0  0  0
 46113  1  0  0  0
 47114  1  0  0  0
 47115  1  0  0  0
 48 56  1  0  0  0
 48 65  1  0  0  0
 48116  1  0  0  0
 49 50  1  0  0  0
 49 53  1  0  0  0
 49 64  1  0  0  0
 49117  1  0  0  0
 50 51  1  0  0  0
 50118  1  0  0  0
 50119  1  0  0  0
 51 52  1  0  0  0
 51120  1  0  0  0
 51121  1  0  0  0
 52122  1  0  0  0
 52123  1  0  0  0
 53 54  1  0  0  0
 54 55  2  0  0  0
 54124  1  0  0  0
 55 57  1  0  0  0
 55125  1  0  0  0
 56 69  2  0  0  0
 57 58  2  0  0  0
 57126  1  0  0  0
 58127  1  0  0  0
 59 60  1  0  0  0
 59 61  1  0  0  0
 59 62  1  0  0  0
 60128  1  0  0  0
 60129  1  0  0  0
 60130  1  0  0  0
 61131  1  0  0  0
 61132  1  0  0  0
 61133  1  0  0  0
 62134  1  0  0  0
 62135  1  0  0  0
 62136  1  0  0  0
 63 65  1  0  0  0
 63137  1  0  0  0
 63138  1  0  0  0
 63139  1  0  0  0
 64140  1  0  0  0
 65141  1  0  0  0
 68 76  1  0  0  0
 71 72  2  0  0  0
 71 78  1  0  0  0
 71142  1  0  0  0
 72 74  1  0  0  0
 72 82  1  0  0  0
 73 78  2  0  0  0
 73 79  1  0  0  0
 73 82  1  0  0  0
 74 80  1  0  0  0
 74 81  2  0  0  0
 75143  1  0  0  0
 75144  1  0  0  0
 75145  1  0  0  0
 75 77  1  0  0  0
 76 77  1  0  0  0
 76146  1  0  0  0
 76147  1  0  0  0
 77 79  1  0  0  0
 77148  1  0  0  0
 79149  1  0  0  0
 80150  1  0  0  0
M  ISO  4   1 100  68 101  76 101  80 100
M  END
> <chiral flag>
0

> <version>
0

> <s_m_source_file>
/data/baiqing/PycharmProjects/Reinvent-master-3.2/result/LINK_invent/BTK/process_docking_weight1_custom_product_contain_oxygen_bond_distance_aromatic_linkinvent_7_9_3/rearranged_h_0188.sdf

> <i_m_source_file_index>
40

> <r_mmod_Potential_Energy-OPLS-2005>
-59.1829986572266

> <r_mmod_Stretch_Energy-OPLS-2005>
103.264068603516

> <r_mmod_Bend_Energy-OPLS-2005>
175.961151123047

> <r_mmod_Torsional_Energy-OPLS-2005>
202.335083007812

> <r_mmod_Improper_Torsional_Energy-OPLS-2005>
5.64672374725342

> <r_mmod_Van_der_Waal_Energy-OPLS-2005>
125.913604736328

> <r_mmod_Electrostatic_Energy-OPLS-2005>
-498.120666503906

> <r_mmod_Solvation_Energy-OPLS-2005>
-250.03205871582

> <b_mmod_Minimization_Converged-OPLS-2005>
0

> <r_mmod_RMS_Derivative-OPLS-2005>
0.666864395141602

$$$$
41
                    3D
 Structure written by MMmdl.
154162  0  0  1  0            999 V2000
  -30.6936  -14.4490   20.6521 C   0  0  0  0  0  0
  -30.4350  -12.3265   19.3924 C   0  0  0  0  0  0
  -29.4901  -12.5375   18.1914 C   0  0  0  0  0  0
  -28.0117  -12.3892   18.6076 C   0  0  0  0  0  0
  -27.6688  -13.1996   19.8864 C   0  0  2  0  0  0
  -28.7141  -12.9106   20.9861 C   0  0  0  0  0  0
  -25.2625  -13.8143   20.5692 C   0  0  0  0  0  0
  -24.1858  -13.0429   20.9166 C   0  0  0  0  0  0
  -24.6403  -11.6894   20.8732 C   0  0  0  0  0  0
  -23.9064  -10.4287   21.0403 C   0  0  0  0  0  0
  -24.3617   -9.4203   21.9179 C   0  0  0  0  0  0
  -23.6291   -8.2240   22.0753 C   0  0  0  0  0  0
  -22.4271   -8.0281   21.3546 C   0  0  0  0  0  0
  -21.9907   -9.0253   20.4646 C   0  0  0  0  0  0
  -22.7236  -10.2131   20.3053 C   0  0  0  0  0  0
  -21.6850   -6.0733   22.5281 C   0  0  0  0  0  0
  -21.4011   -6.5640   23.8215 C   0  0  0  0  0  0
  -21.3663   -5.6795   24.9178 C   0  0  0  0  0  0
  -21.6049   -4.3057   24.7229 C   0  0  0  0  0  0
  -21.8822   -3.8145   23.4349 C   0  0  0  0  0  0
  -21.9194   -4.6960   22.3404 C   0  0  0  0  0  0
  -22.7880  -13.5235   21.1828 C   0  0  0  0  0  0
  -22.1661   -4.2147   21.0980 F   0  0  0  0  0  0
  -21.5630   -3.4540   25.7739 F   0  0  0  0  0  0
  -30.0374  -13.2702   20.4488 N   0  0  0  0  0  0
  -26.3068  -12.9301   20.3423 N   0  0  0  0  0  0
  -25.9333  -11.6465   20.5774 N   0  0  0  0  0  0
  -22.0515  -12.8232   22.0385 N   0  0  0  0  0  0
  -25.4367  -15.1861   20.4114 N   0  0  0  0  0  0
  -31.7740  -14.6895   20.0973 O   0  0  0  0  0  0
  -21.6639   -6.8875   21.4242 O   0  0  0  0  0  0
  -22.3568  -14.5544   20.6683 O   0  0  0  0  0  0
  -24.6133  -31.8687   23.2104 C   0  0  0  0  0  0
  -25.9029  -32.4828   23.8400 C   0  0  1  0  0  0
  -27.2377  -27.4476   20.0983 C   0  0  0  0  0  0
  -25.5887  -33.8627   24.2335 N   0  0  0  0  0  0
  -23.4011  -30.4905   21.5511 C   0  0  2  0  0  0
  -24.8490  -28.9535   20.1192 C   0  0  0  0  0  0
  -22.7402  -29.4658   22.5007 C   0  0  0  0  0  0
  -18.0269  -28.1372   22.8496 C   0  0  0  0  0  0
  -24.1483  -36.7324   23.2633 C   0  0  0  0  0  0
  -25.9275  -30.8387   21.3601 C   0  0  0  0  0  0
  -26.0080  -29.4719   20.7116 C   0  0  0  0  0  0
  -27.2085  -28.7271   20.6952 C   0  0  0  0  0  0
  -26.0649  -26.9352   19.5072 C   0  0  0  0  0  0
  -24.8710  -27.6831   19.5150 C   0  0  0  0  0  0
  -23.6095  -29.8187   20.1671 C   0  0  0  0  0  0
  -25.4103  -36.3120   24.0338 C   0  0  1  0  0  0
  -20.5858  -28.3657   23.1330 C   0  0  2  0  0  0
  -20.6761  -26.9395   22.5422 C   0  0  0  0  0  0
  -19.5741  -26.6382   21.5218 C   0  0  0  0  0  0
  -18.1917  -26.7921   22.1624 C   0  0  0  0  0  0
  -19.1518  -28.8831   23.2910 C   0  0  0  0  0  0
  -18.9445  -30.1441   23.8915 C   0  0  0  0  0  0
  -17.6447  -30.6579   24.0566 C   0  0  0  0  0  0
  -25.9031  -34.9481   23.5136 C   0  0  0  0  0  0
  -16.5341  -29.9081   23.6322 C   0  0  0  0  0  0
  -16.7261  -28.6498   23.0345 C   0  0  0  0  0  0
  -26.4464  -31.6597   25.0721 C   0  0  0  0  0  0
  -25.3740  -31.3692   26.1473 C   0  0  0  0  0  0
  -27.0288  -30.3042   24.6076 C   0  0  0  0  0  0
  -27.6049  -32.4306   25.7482 C   0  0  0  0  0  0
  -27.5589  -37.1806   24.8456 C   0  0  0  0  0  0
  -21.4133  -29.3026   22.3740 N   0  0  0  0  0  0
  -26.4289  -37.3807   23.9418 N   0  0  0  0  0  0
  -24.6656  -31.0799   22.0996 N   0  0  0  0  0  0
  -23.4179  -28.8206   23.3048 O   0  0  0  0  0  0
  -28.4025  -26.7184   20.0558 O   0  0  0  0  0  0
  -26.5598  -34.8930   22.4700 O   0  0  0  0  0  0
  -23.5329  -32.1432   23.7507 O   0  0  0  0  0  0
  -29.7539  -18.7480   19.7278 C   0  0  0  0  0  0
  -29.9437  -19.4284   20.9131 C   0  0  0  0  0  0
  -30.1281  -16.9390   21.0842 C   0  0  0  0  0  0
  -29.6571  -21.8095   20.3885 C   0  0  0  0  0  0
  -30.8261  -23.5548   21.8117 C   0  0  0  0  0  0
  -30.0871  -15.5187   21.6007 C   0  0  0  0  0  0
  -29.0650  -24.3436   20.1351 C   0  0  0  0  0  0
  -28.4184  -25.5416   20.8717 C   0  0  0  0  0  0
  -29.5161  -23.1886   21.0805 C   0  0  1  0  0  0
  -29.8316  -17.3493   19.8428 N   0  0  0  0  0  0
  -29.8449  -20.7562   21.2078 N   0  0  0  0  0  0
  -29.6009  -21.7116   19.1605 O   0  0  0  0  0  0
  -30.3334  -18.2967   22.1896 S   0  0  0  0  0  0
  -31.4735  -12.4569   19.0824 H   0  0  0  0  0  0
  -30.3661  -11.3009   19.7580 H   0  0  0  0  0  0
  -29.7270  -11.8303   17.3954 H   0  0  0  0  0  0
  -29.6518  -13.5326   17.7746 H   0  0  0  0  0  0
  -27.8175  -11.3296   18.7772 H   0  0  0  0  0  0
  -27.3592  -12.6883   17.7869 H   0  0  0  0  0  0
  -27.7318  -14.2576   19.6305 H   0  0  0  0  0  0
  -28.7036  -11.8461   21.2277 H   0  0  0  0  0  0
  -28.4624  -13.3895   21.9294 H   0  0  0  0  0  0
  -25.2764   -9.5676   22.4750 H   0  0  0  0  0  0
  -24.0002   -7.4634   22.7474 H   0  0  0  0  0  0
  -21.0839   -8.8774   19.8952 H   0  0  0  0  0  0
  -22.3699  -10.9672   19.6161 H   0  0  0  0  0  0
  -21.1999   -7.6148   23.9715 H   0  0  0  0  0  0
  -21.1483   -6.0524   25.9082 H   0  0  0  0  0  0
  -22.0598   -2.7603   23.2853 H   0  0  0  0  0  0
  -22.4127  -11.9891   22.4776 H   0  0  0  0  0  0
  -21.1136  -13.1267   22.2595 H   0  0  0  0  0  0
  -24.6723  -15.8442   20.5181 H   0  0  0  0  0  0
  -26.2969  -15.6250   20.1060 H   0  0  0  0  0  0
  -26.7102  -32.5551   23.1174 H   0  0  0  0  0  0
  -25.0029  -33.9793   25.0473 H   0  0  0  0  0  0
  -22.6889  -31.3063   21.4116 H   0  0  0  0  0  0
  -23.3747  -35.9652   23.3283 H   0  0  0  0  0  0
  -24.3582  -36.8954   22.2051 H   0  0  0  0  0  0
  -23.7227  -37.6520   23.6657 H   0  0  0  0  0  0
  -26.0334  -31.6031   20.5893 H   0  0  0  0  0  0
  -26.8176  -30.8974   21.9748 H   0  0  0  0  0  0
  -28.1080  -29.1270   21.1424 H   0  0  0  0  0  0
  -26.0790  -25.9623   19.0362 H   0  0  0  0  0  0
  -23.9801  -27.2786   19.0548 H   0  0  0  0  0  0
  -23.7147  -30.5916   19.4050 H   0  0  0  0  0  0
  -22.7345  -29.2359   19.8744 H   0  0  0  0  0  0
  -25.1273  -36.1988   25.0830 H   0  0  0  0  0  0
  -20.9953  -28.3217   24.1450 H   0  0  0  0  0  0
  -20.5675  -26.2258   23.3603 H   0  0  0  0  0  0
  -21.6633  -26.7443   22.1214 H   0  0  0  0  0  0
  -19.6902  -25.6299   21.1229 H   0  0  0  0  0  0
  -19.6682  -27.3208   20.6759 H   0  0  0  0  0  0
  -17.4194  -26.6682   21.4018 H   0  0  0  0  0  0
  -18.0308  -26.0053   22.9009 H   0  0  0  0  0  0
  -19.7922  -30.7255   24.2292 H   0  0  0  0  0  0
  -17.5000  -31.6261   24.5160 H   0  0  0  0  0  0
  -15.5341  -30.2987   23.7629 H   0  0  0  0  0  0
  -15.8662  -28.0823   22.7044 H   0  0  0  0  0  0
  -24.5907  -30.7046   25.7807 H   0  0  0  0  0  0
  -24.8935  -32.2841   26.4949 H   0  0  0  0  0  0
  -25.8098  -30.8838   27.0215 H   0  0  0  0  0  0
  -26.2826  -29.6812   24.1130 H   0  0  0  0  0  0
  -27.4063  -29.7266   25.4526 H   0  0  0  0  0  0
  -27.8659  -30.4364   23.9217 H   0  0  0  0  0  0
  -27.2676  -33.3585   26.2111 H   0  0  0  0  0  0
  -28.3833  -32.6895   25.0294 H   0  0  0  0  0  0
  -28.0746  -31.8394   26.5355 H   0  0  0  0  0  0
  -28.2582  -38.0127   24.7548 H   0  0  0  0  0  0
  -28.1107  -36.2664   24.6218 H   0  0  0  0  0  0
  -27.2316  -37.1385   25.8858 H   0  0  0  0  0  0
  -20.9290  -29.8741   21.6960 H   0  0  0  0  0  0
  -26.0178  -38.2879   24.1445 H   0  0  0  0  0  0
  -29.5061  -19.1695   18.7636 H   0  0  0  0  0  0
  -31.1455  -22.7710   22.4987 H   0  0  0  0  0  0
  -30.7154  -24.4606   22.4067 H   0  0  0  0  0  0
  -31.6400  -23.7234   21.1053 H   0  0  0  0  0  0
  -29.0434  -15.3418   21.8344 H   0  0  0  0  0  0
  -30.6271  -15.4728   22.5457 H   0  0  0  0  0  0
  -29.9285  -24.6923   19.5673 H   0  0  0  0  0  0
  -28.3506  -23.9807   19.3949 H   0  0  0  0  0  0
  -28.9894  -25.7922   21.7651 H   0  0  0  0  0  0
  -27.4231  -25.2602   21.2221 H   0  0  0  0  0  0
  -28.7322  -23.0578   21.8287 H   0  0  0  0  0  0
  -29.9172  -20.9895   22.1891 H   0  0  0  0  0  0
  1 25  1  0  0  0
  1 30  2  0  0  0
  1 76  1  0  0  0
  2  3  1  0  0  0
  2 25  1  0  0  0
  2 84  1  0  0  0
  2 85  1  0  0  0
  3  4  1  0  0  0
  3 86  1  0  0  0
  3 87  1  0  0  0
  4  5  1  0  0  0
  4 88  1  0  0  0
  4 89  1  0  0  0
  5  6  1  0  0  0
  5 26  1  0  0  0
  5 90  1  0  0  0
  6 25  1  0  0  0
  6 91  1  0  0  0
  6 92  1  0  0  0
  7  8  2  0  0  0
  7 26  1  0  0  0
  7 29  1  0  0  0
  8  9  1  0  0  0
  8 22  1  0  0  0
  9 10  1  0  0  0
  9 27  2  0  0  0
 10 11  2  0  0  0
 10 15  1  0  0  0
 11 12  1  0  0  0
 11 93  1  0  0  0
 12 13  2  0  0  0
 12 94  1  0  0  0
 13 14  1  0  0  0
 13 31  1  0  0  0
 14 15  2  0  0  0
 14 95  1  0  0  0
 15 96  1  0  0  0
 16 17  2  0  0  0
 16 21  1  0  0  0
 16 31  1  0  0  0
 17 18  1  0  0  0
 17 97  1  0  0  0
 18 19  2  0  0  0
 18 98  1  0  0  0
 19 20  1  0  0  0
 19 24  1  0  0  0
 20 21  2  0  0  0
 20 99  1  0  0  0
 21 23  1  0  0  0
 22 28  1  0  0  0
 22 32  2  0  0  0
 26 27  1  0  0  0
 28100  1  0  0  0
 28101  1  0  0  0
 29102  1  0  0  0
 29103  1  0  0  0
 33 34  1  0  0  0
 33 66  1  0  0  0
 33 70  2  0  0  0
 34 36  1  0  0  0
 34 59  1  0  0  0
 34104  1  0  0  0
 35 44  2  0  0  0
 35 45  1  0  0  0
 35 68  1  0  0  0
 36 56  1  0  0  0
 36105  1  0  0  0
 37 39  1  0  0  0
 37 47  1  0  0  0
 37 66  1  0  0  0
 37106  1  0  0  0
 38 43  2  0  0  0
 38 46  1  0  0  0
 38 47  1  0  0  0
 39 64  1  0  0  0
 39 67  2  0  0  0
 40 52  1  0  0  0
 40 53  2  0  0  0
 40 58  1  0  0  0
 41107  1  0  0  0
 41108  1  0  0  0
 41109  1  0  0  0
 41 48  1  0  0  0
 42 43  1  0  0  0
 42 66  1  0  0  0
 42110  1  0  0  0
 42111  1  0  0  0
 43 44  1  0  0  0
 44112  1  0  0  0
 45 46  2  0  0  0
 45113  1  0  0  0
 46114  1  0  0  0
 47115  1  0  0  0
 47116  1  0  0  0
 48 56  1  0  0  0
 48 65  1  0  0  0
 48117  1  0  0  0
 49 50  1  0  0  0
 49 53  1  0  0  0
 49 64  1  0  0  0
 49118  1  0  0  0
 50 51  1  0  0  0
 50119  1  0  0  0
 50120  1  0  0  0
 51 52  1  0  0  0
 51121  1  0  0  0
 51122  1  0  0  0
 52123  1  0  0  0
 52124  1  0  0  0
 53 54  1  0  0  0
 54 55  2  0  0  0
 54125  1  0  0  0
 55 57  1  0  0  0
 55126  1  0  0  0
 56 69  2  0  0  0
 57 58  2  0  0  0
 57127  1  0  0  0
 58128  1  0  0  0
 59 60  1  0  0  0
 59 61  1  0  0  0
 59 62  1  0  0  0
 60129  1  0  0  0
 60130  1  0  0  0
 60131  1  0  0  0
 61132  1  0  0  0
 61133  1  0  0  0
 61134  1  0  0  0
 62135  1  0  0  0
 62136  1  0  0  0
 62137  1  0  0  0
 63 65  1  0  0  0
 63138  1  0  0  0
 63139  1  0  0  0
 63140  1  0  0  0
 64141  1  0  0  0
 65142  1  0  0  0
 68 78  1  0  0  0
 71 72  2  0  0  0
 71 80  1  0  0  0
 71143  1  0  0  0
 72 81  1  0  0  0
 72 83  1  0  0  0
 73 76  1  0  0  0
 73 80  2  0  0  0
 73 83  1  0  0  0
 74 79  1  0  0  0
 74 81  1  0  0  0
 74 82  2  0  0  0
 75144  1  0  0  0
 75145  1  0  0  0
 75146  1  0  0  0
 75 79  1  0  0  0
 76147  1  0  0  0
 76148  1  0  0  0
 77 78  1  0  0  0
 77 79  1  0  0  0
 77149  1  0  0  0
 77150  1  0  0  0
 78151  1  0  0  0
 78152  1  0  0  0
 79153  1  0  0  0
 81154  1  0  0  0
M  ISO  4   1 100  68 101  76 100  78 101
M  END
> <chiral flag>
0

> <version>
0

> <s_m_source_file>
/data/baiqing/PycharmProjects/Reinvent-master-3.2/result/LINK_invent/BTK/process_docking_weight1_custom_product_contain_oxygen_bond_distance_aromatic_linkinvent_7_9_3/rearranged_h_0188.sdf

> <i_m_source_file_index>
41

> <r_mmod_Potential_Energy-OPLS-2005>
-81.346565246582

> <r_mmod_Stretch_Energy-OPLS-2005>
36.6658020019531

> <r_mmod_Bend_Energy-OPLS-2005>
109.784126281738

> <r_mmod_Torsional_Energy-OPLS-2005>
214.376388549805

> <r_mmod_Improper_Torsional_Energy-OPLS-2005>
2.62163591384888

> <r_mmod_Van_der_Waal_Energy-OPLS-2005>
132.075729370117

> <r_mmod_Electrostatic_Energy-OPLS-2005>
-360.216979980469

> <r_mmod_Solvation_Energy-OPLS-2005>
-226.145690917969

> <b_mmod_Minimization_Converged-OPLS-2005>
0

> <r_mmod_RMS_Derivative-OPLS-2005>
0.719315230846405

$$$$
42
                    3D
 Structure written by MMmdl.
156164  0  0  1  0            999 V2000
  -30.5876  -14.7603   20.4339 C   0  0  0  0  0  0
  -30.4326  -12.4539   19.4889 C   0  0  0  0  0  0
  -29.5147  -12.5026   18.2464 C   0  0  0  0  0  0
  -28.0384  -12.3336   18.6533 C   0  0  0  0  0  0
  -27.6424  -13.2324   19.8544 C   0  0  2  0  0  0
  -28.6830  -13.1637   20.9935 C   0  0  0  0  0  0
  -25.2509  -13.8200   20.5696 C   0  0  0  0  0  0
  -24.1807  -13.0440   20.9208 C   0  0  0  0  0  0
  -24.6396  -11.6914   20.8749 C   0  0  0  0  0  0
  -23.9077  -10.4291   21.0401 C   0  0  0  0  0  0
  -24.3631   -9.4202   21.9179 C   0  0  0  0  0  0
  -23.6300   -8.2241   22.0743 C   0  0  0  0  0  0
  -22.4283   -8.0279   21.3531 C   0  0  0  0  0  0
  -21.9923   -9.0249   20.4638 C   0  0  0  0  0  0
  -22.7254  -10.2128   20.3047 C   0  0  0  0  0  0
  -21.6857   -6.0734   22.5269 C   0  0  0  0  0  0
  -21.4027   -6.5639   23.8204 C   0  0  0  0  0  0
  -21.3661   -5.6787   24.9165 C   0  0  0  0  0  0
  -21.6049   -4.3050   24.7219 C   0  0  0  0  0  0
  -21.8826   -3.8140   23.4339 C   0  0  0  0  0  0
  -21.9199   -4.6960   22.3398 C   0  0  0  0  0  0
  -22.7827  -13.5213   21.1876 C   0  0  0  0  0  0
  -22.1666   -4.2146   21.0973 F   0  0  0  0  0  0
  -21.5625   -3.4532   25.7732 F   0  0  0  0  0  0
  -29.9870  -13.5181   20.4209 N   0  0  0  0  0  0
  -26.2938  -12.9405   20.3290 N   0  0  0  0  0  0
  -25.9329  -11.6548   20.5765 N   0  0  0  0  0  0
  -22.0493  -12.8181   22.0432 N   0  0  0  0  0  0
  -25.4207  -15.1925   20.4085 N   0  0  0  0  0  0
  -31.7764  -14.8532   20.1056 O   0  0  0  0  0  0
  -21.6642   -6.8875   21.4230 O   0  0  0  0  0  0
  -22.3505  -14.5517   20.6726 O   0  0  0  0  0  0
  -24.6309  -31.8528   23.1928 C   0  0  0  0  0  0
  -25.9127  -32.4740   23.8285 C   0  0  1  0  0  0
  -27.2300  -27.2520   20.1151 C   0  0  0  0  0  0
  -25.5919  -33.8543   24.2218 N   0  0  0  0  0  0
  -23.4282  -30.4716   21.5377 C   0  0  2  0  0  0
  -24.8744  -28.9102   20.1083 C   0  0  0  0  0  0
  -22.7501  -29.4585   22.4913 C   0  0  0  0  0  0
  -18.0287  -28.1388   22.8483 C   0  0  0  0  0  0
  -24.1490  -36.7271   23.2641 C   0  0  0  0  0  0
  -25.9727  -30.7620   21.3709 C   0  0  0  0  0  0
  -26.0446  -29.3824   20.7131 C   0  0  0  0  0  0
  -27.2195  -28.5647   20.7041 C   0  0  0  0  0  0
  -26.0254  -26.8332   19.5129 C   0  0  0  0  0  0
  -24.8699  -27.6441   19.4994 C   0  0  0  0  0  0
  -23.6438  -29.7970   20.1561 C   0  0  0  0  0  0
  -25.4120  -36.3056   24.0321 C   0  0  1  0  0  0
  -20.5891  -28.3694   23.1274 C   0  0  2  0  0  0
  -20.6774  -26.9413   22.5414 C   0  0  0  0  0  0
  -19.5752  -26.6381   21.5215 C   0  0  0  0  0  0
  -18.1931  -26.7927   22.1626 C   0  0  0  0  0  0
  -19.1541  -28.8859   23.2875 C   0  0  0  0  0  0
  -18.9464  -30.1461   23.8892 C   0  0  0  0  0  0
  -17.6464  -30.6593   24.0560 C   0  0  0  0  0  0
  -25.9065  -34.9431   23.5079 C   0  0  0  0  0  0
  -16.5354  -29.9091   23.6332 C   0  0  0  0  0  0
  -16.7274  -28.6509   23.0349 C   0  0  0  0  0  0
  -26.4492  -31.6574   25.0686 C   0  0  0  0  0  0
  -25.3709  -31.3734   26.1404 C   0  0  0  0  0  0
  -27.0346  -30.2989   24.6185 C   0  0  0  0  0  0
  -27.6045  -32.4320   25.7466 C   0  0  0  0  0  0
  -27.5578  -37.1786   24.8465 C   0  0  0  0  0  0
  -21.4206  -29.3039   22.3663 N   0  0  0  0  0  0
  -26.4289  -37.3760   23.9411 N   0  0  0  0  0  0
  -24.6967  -31.0475   22.0905 N   0  0  0  0  0  0
  -23.4193  -28.8139   23.3029 O   0  0  0  0  0  0
  -28.3672  -26.4107   20.1964 O   0  0  0  0  0  0
  -26.5652  -34.8916   22.4657 O   0  0  0  0  0  0
  -23.5459  -32.1359   23.7221 O   0  0  0  0  0  0
  -29.7428  -18.3769   17.8941 C   0  0  0  0  0  0
  -29.8926  -17.1744   18.6001 C   0  0  0  0  0  0
  -29.7582  -17.2068   20.0046 C   0  0  0  0  0  0
  -29.3400  -19.5900   19.7981 C   0  0  0  0  0  0
  -30.0407  -22.3974   18.5156 C   0  0  0  0  0  0
  -28.3106  -25.2056   18.0072 C   0  0  0  0  0  0
  -28.3296  -23.5846   20.1225 C   0  0  0  0  0  0
  -29.3749  -22.3264   19.9028 C   0  0  1  0  0  0
  -28.6302  -25.0857   19.5154 C   0  0  2  0  0  0
  -29.4643  -19.5527   18.4860 N   0  0  0  0  0  0
  -29.4472  -18.4586   20.5727 N   0  0  0  0  0  0
  -29.8108  -15.8865   20.6968 N   0  0  0  0  0  0
  -29.0031  -20.8914   20.3401 N   0  0  0  0  0  0
  -30.1028  -16.0205   17.9198 F   0  0  0  0  0  0
  -31.4750  -12.5736   19.1876 H   0  0  0  0  0  0
  -30.3740  -11.4780   19.9748 H   0  0  0  0  0  0
  -29.7966  -11.7190   17.5426 H   0  0  0  0  0  0
  -29.6472  -13.4494   17.7205 H   0  0  0  0  0  0
  -27.8915  -11.2847   18.9146 H   0  0  0  0  0  0
  -27.3840  -12.5302   17.8035 H   0  0  0  0  0  0
  -27.6376  -14.2555   19.4773 H   0  0  0  0  0  0
  -28.7168  -12.1639   21.4293 H   0  0  0  0  0  0
  -28.4124  -13.8384   21.8066 H   0  0  0  0  0  0
  -25.2782   -9.5675   22.4744 H   0  0  0  0  0  0
  -24.0001   -7.4637   22.7470 H   0  0  0  0  0  0
  -21.0848   -8.8778   19.8955 H   0  0  0  0  0  0
  -22.3711  -10.9663   19.6151 H   0  0  0  0  0  0
  -21.2021   -7.6146   23.9704 H   0  0  0  0  0  0
  -21.1480   -6.0519   25.9066 H   0  0  0  0  0  0
  -22.0608   -2.7601   23.2837 H   0  0  0  0  0  0
  -22.4119  -11.9827   22.4786 H   0  0  0  0  0  0
  -21.1113  -13.1180   22.2677 H   0  0  0  0  0  0
  -24.6468  -15.8409   20.5065 H   0  0  0  0  0  0
  -26.2559  -15.6302   20.0419 H   0  0  0  0  0  0
  -26.7187  -32.5383   23.1017 H   0  0  0  0  0  0
  -25.0028  -33.9680   25.0337 H   0  0  0  0  0  0
  -22.7250  -31.2941   21.3877 H   0  0  0  0  0  0
  -23.3759  -35.9596   23.3295 H   0  0  0  0  0  0
  -24.3576  -36.8905   22.2057 H   0  0  0  0  0  0
  -23.7240  -37.6463   23.6680 H   0  0  0  0  0  0
  -26.1105  -31.5209   20.5995 H   0  0  0  0  0  0
  -26.8502  -30.8137   22.0042 H   0  0  0  0  0  0
  -28.1188  -28.9239   21.1841 H   0  0  0  0  0  0
  -25.9380  -25.8471   19.0885 H   0  0  0  0  0  0
  -23.9677  -27.2688   19.0370 H   0  0  0  0  0  0
  -23.7619  -30.5679   19.3942 H   0  0  0  0  0  0
  -22.7630  -29.2254   19.8582 H   0  0  0  0  0  0
  -25.1308  -36.1887   25.0814 H   0  0  0  0  0  0
  -20.9989  -28.3267   24.1391 H   0  0  0  0  0  0
  -20.5666  -26.2308   23.3619 H   0  0  0  0  0  0
  -21.6641  -26.7432   22.1211 H   0  0  0  0  0  0
  -19.6920  -25.6293   21.1243 H   0  0  0  0  0  0
  -19.6688  -27.3191   20.6743 H   0  0  0  0  0  0
  -17.4202  -26.6668   21.4029 H   0  0  0  0  0  0
  -18.0334  -26.0074   22.9028 H   0  0  0  0  0  0
  -19.7941  -30.7275   24.2261 H   0  0  0  0  0  0
  -17.5022  -31.6276   24.5156 H   0  0  0  0  0  0
  -15.5356  -30.2991   23.7669 H   0  0  0  0  0  0
  -15.8670  -28.0831   22.7064 H   0  0  0  0  0  0
  -24.5881  -30.7093   25.7714 H   0  0  0  0  0  0
  -24.8909  -32.2914   26.4807 H   0  0  0  0  0  0
  -25.8010  -30.8909   27.0192 H   0  0  0  0  0  0
  -26.2933  -29.6726   24.1208 H   0  0  0  0  0  0
  -27.4024  -29.7258   25.4706 H   0  0  0  0  0  0
  -27.8807  -30.4256   23.9427 H   0  0  0  0  0  0
  -27.2647  -33.3625   26.2026 H   0  0  0  0  0  0
  -28.3861  -32.6872   25.0299 H   0  0  0  0  0  0
  -28.0708  -31.8459   26.5396 H   0  0  0  0  0  0
  -28.2586  -38.0093   24.7522 H   0  0  0  0  0  0
  -28.1084  -36.2623   24.6278 H   0  0  0  0  0  0
  -27.2300  -37.1413   25.8870 H   0  0  0  0  0  0
  -20.9397  -29.8755   21.6857 H   0  0  0  0  0  0
  -26.0159  -38.2829   24.1421 H   0  0  0  0  0  0
  -29.8190  -18.3908   16.8172 H   0  0  0  0  0  0
  -30.5088  -23.3639   18.3418 H   0  0  0  0  0  0
  -29.3219  -22.2154   17.7160 H   0  0  0  0  0  0
  -30.8548  -21.6804   18.4168 H   0  0  0  0  0  0
  -28.9423  -24.5690   17.3931 H   0  0  0  0  0  0
  -28.4690  -26.2231   17.6492 H   0  0  0  0  0  0
  -27.2873  -24.9194   17.7734 H   0  0  0  0  0  0
  -28.2030  -23.7008   21.1986 H   0  0  0  0  0  0
  -27.3474  -23.2785   19.7600 H   0  0  0  0  0  0
  -30.1962  -22.5608   20.5824 H   0  0  0  0  0  0
  -29.7188  -25.1234   19.5596 H   0  0  0  0  0  0
  -28.9853  -15.6892   21.2365 H   0  0  0  0  0  0
  -28.7966  -20.8363   21.3311 H   0  0  0  0  0  0
  1 25  1  0  0  0
  1 30  2  0  0  0
  1 82  1  0  0  0
  2  3  1  0  0  0
  2 25  1  0  0  0
  2 85  1  0  0  0
  2 86  1  0  0  0
  3  4  1  0  0  0
  3 87  1  0  0  0
  3 88  1  0  0  0
  4  5  1  0  0  0
  4 89  1  0  0  0
  4 90  1  0  0  0
  5  6  1  0  0  0
  5 26  1  0  0  0
  5 91  1  0  0  0
  6 25  1  0  0  0
  6 92  1  0  0  0
  6 93  1  0  0  0
  7  8  2  0  0  0
  7 26  1  0  0  0
  7 29  1  0  0  0
  8  9  1  0  0  0
  8 22  1  0  0  0
  9 10  1  0  0  0
  9 27  2  0  0  0
 10 11  2  0  0  0
 10 15  1  0  0  0
 11 12  1  0  0  0
 11 94  1  0  0  0
 12 13  2  0  0  0
 12 95  1  0  0  0
 13 14  1  0  0  0
 13 31  1  0  0  0
 14 15  2  0  0  0
 14 96  1  0  0  0
 15 97  1  0  0  0
 16 17  2  0  0  0
 16 21  1  0  0  0
 16 31  1  0  0  0
 17 18  1  0  0  0
 17 98  1  0  0  0
 18 19  2  0  0  0
 18 99  1  0  0  0
 19 20  1  0  0  0
 19 24  1  0  0  0
 20 21  2  0  0  0
 20100  1  0  0  0
 21 23  1  0  0  0
 22 28  1  0  0  0
 22 32  2  0  0  0
 26 27  1  0  0  0
 28101  1  0  0  0
 28102  1  0  0  0
 29103  1  0  0  0
 29104  1  0  0  0
 33 34  1  0  0  0
 33 66  1  0  0  0
 33 70  2  0  0  0
 34 36  1  0  0  0
 34 59  1  0  0  0
 34105  1  0  0  0
 35 44  2  0  0  0
 35 45  1  0  0  0
 35 68  1  0  0  0
 36 56  1  0  0  0
 36106  1  0  0  0
 37 39  1  0  0  0
 37 47  1  0  0  0
 37 66  1  0  0  0
 37107  1  0  0  0
 38 43  2  0  0  0
 38 46  1  0  0  0
 38 47  1  0  0  0
 39 64  1  0  0  0
 39 67  2  0  0  0
 40 52  1  0  0  0
 40 53  2  0  0  0
 40 58  1  0  0  0
 41108  1  0  0  0
 41109  1  0  0  0
 41110  1  0  0  0
 41 48  1  0  0  0
 42 43  1  0  0  0
 42 66  1  0  0  0
 42111  1  0  0  0
 42112  1  0  0  0
 43 44  1  0  0  0
 44113  1  0  0  0
 45 46  2  0  0  0
 45114  1  0  0  0
 46115  1  0  0  0
 47116  1  0  0  0
 47117  1  0  0  0
 48 56  1  0  0  0
 48 65  1  0  0  0
 48118  1  0  0  0
 49 50  1  0  0  0
 49 53  1  0  0  0
 49 64  1  0  0  0
 49119  1  0  0  0
 50 51  1  0  0  0
 50120  1  0  0  0
 50121  1  0  0  0
 51 52  1  0  0  0
 51122  1  0  0  0
 51123  1  0  0  0
 52124  1  0  0  0
 52125  1  0  0  0
 53 54  1  0  0  0
 54 55  2  0  0  0
 54126  1  0  0  0
 55 57  1  0  0  0
 55127  1  0  0  0
 56 69  2  0  0  0
 57 58  2  0  0  0
 57128  1  0  0  0
 58129  1  0  0  0
 59 60  1  0  0  0
 59 61  1  0  0  0
 59 62  1  0  0  0
 60130  1  0  0  0
 60131  1  0  0  0
 60132  1  0  0  0
 61133  1  0  0  0
 61134  1  0  0  0
 61135  1  0  0  0
 62136  1  0  0  0
 62137  1  0  0  0
 62138  1  0  0  0
 63 65  1  0  0  0
 63139  1  0  0  0
 63140  1  0  0  0
 63141  1  0  0  0
 64142  1  0  0  0
 65143  1  0  0  0
 68 79  1  0  0  0
 71 72  2  0  0  0
 71 80  1  0  0  0
 71144  1  0  0  0
 72 73  1  0  0  0
 72 84  1  0  0  0
 73 81  2  0  0  0
 73 82  1  0  0  0
 74 80  2  0  0  0
 74 81  1  0  0  0
 74 83  1  0  0  0
 75145  1  0  0  0
 75146  1  0  0  0
 75147  1  0  0  0
 75 78  1  0  0  0
 76148  1  0  0  0
 76149  1  0  0  0
 76150  1  0  0  0
 76 79  1  0  0  0
 77 78  1  0  0  0
 77 79  1  0  0  0
 77151  1  0  0  0
 77152  1  0  0  0
 78 83  1  0  0  0
 78153  1  0  0  0
 79154  1  0  0  0
 82155  1  0  0  0
 83156  1  0  0  0
M  ISO  4   1 100  68 101  79 101  82 100
M  END
> <chiral flag>
0

> <version>
0

> <s_m_source_file>
/data/baiqing/PycharmProjects/Reinvent-master-3.2/result/LINK_invent/BTK/process_docking_weight1_custom_product_contain_oxygen_bond_distance_aromatic_linkinvent_7_9_3/rearranged_h_0188.sdf

> <i_m_source_file_index>
42

> <r_mmod_Potential_Energy-OPLS-2005>
-143.091552734375

> <r_mmod_Stretch_Energy-OPLS-2005>
150.555252075195

> <r_mmod_Bend_Energy-OPLS-2005>
228.152618408203

> <r_mmod_Torsional_Energy-OPLS-2005>
243.874588012695

> <r_mmod_Improper_Torsional_Energy-OPLS-2005>
6.62996006011963

> <r_mmod_Van_der_Waal_Energy-OPLS-2005>
154.466873168945

> <r_mmod_Electrostatic_Energy-OPLS-2005>
-778.356689453125

> <r_mmod_Solvation_Energy-OPLS-2005>
-235.813720703125

> <b_mmod_Minimization_Converged-OPLS-2005>
0

> <r_mmod_RMS_Derivative-OPLS-2005>
1.22761213779449

$$$$
43
                    3D
 Structure written by MMmdl.
155163  0  0  1  0            999 V2000
  -30.6296  -14.7131   20.4602 C   0  0  0  0  0  0
  -30.4168  -12.4225   19.4964 C   0  0  0  0  0  0
  -29.5116  -12.4975   18.2482 C   0  0  0  0  0  0
  -28.0346  -12.3261   18.6483 C   0  0  0  0  0  0
  -27.6360  -13.2330   19.8436 C   0  0  2  0  0  0
  -28.6702  -13.1730   20.9852 C   0  0  0  0  0  0
  -25.2479  -13.8203   20.5671 C   0  0  0  0  0  0
  -24.1772  -13.0440   20.9179 C   0  0  0  0  0  0
  -24.6360  -11.6923   20.8713 C   0  0  0  0  0  0
  -23.9044  -10.4291   21.0388 C   0  0  0  0  0  0
  -24.3604   -9.4214   21.9169 C   0  0  0  0  0  0
  -23.6290   -8.2243   22.0747 C   0  0  0  0  0  0
  -22.4274   -8.0268   21.3539 C   0  0  0  0  0  0
  -21.9900   -9.0233   20.4634 C   0  0  0  0  0  0
  -22.7215  -10.2119   20.3043 C   0  0  0  0  0  0
  -21.6855   -6.0728   22.5279 C   0  0  0  0  0  0
  -21.4004   -6.5636   23.8209 C   0  0  0  0  0  0
  -21.3662   -5.6789   24.9176 C   0  0  0  0  0  0
  -21.6053   -4.3054   24.7228 C   0  0  0  0  0  0
  -21.8814   -3.8143   23.4351 C   0  0  0  0  0  0
  -21.9187   -4.6955   22.3408 C   0  0  0  0  0  0
  -22.7803  -13.5222   21.1872 C   0  0  0  0  0  0
  -22.1657   -4.2141   21.0983 F   0  0  0  0  0  0
  -21.5642   -3.4538   25.7742 F   0  0  0  0  0  0
  -29.9847  -13.4967   20.4215 N   0  0  0  0  0  0
  -26.2888  -12.9409   20.3221 N   0  0  0  0  0  0
  -25.9281  -11.6546   20.5704 N   0  0  0  0  0  0
  -22.0466  -12.8198   22.0430 N   0  0  0  0  0  0
  -25.4219  -15.1916   20.4138 N   0  0  0  0  0  0
  -31.8183  -14.7325   20.1288 O   0  0  0  0  0  0
  -21.6643   -6.8866   21.4241 O   0  0  0  0  0  0
  -22.3472  -14.5535   20.6732 O   0  0  0  0  0  0
  -24.6342  -31.8547   23.1989 C   0  0  0  0  0  0
  -25.9177  -32.4734   23.8330 C   0  0  1  0  0  0
  -27.2016  -27.2635   20.1222 C   0  0  0  0  0  0
  -25.5996  -33.8539   24.2285 N   0  0  0  0  0  0
  -23.4269  -30.4820   21.5424 C   0  0  2  0  0  0
  -24.8698  -28.9321   20.1039 C   0  0  0  0  0  0
  -22.7495  -29.4615   22.4904 C   0  0  0  0  0  0
  -18.0307  -28.1385   22.8494 C   0  0  0  0  0  0
  -24.1482  -36.7255   23.2631 C   0  0  0  0  0  0
  -25.9725  -30.7685   21.3748 C   0  0  0  0  0  0
  -26.0425  -29.3912   20.7187 C   0  0  0  0  0  0
  -27.2149  -28.5678   20.7187 C   0  0  0  0  0  0
  -26.0169  -26.8844   19.4552 C   0  0  0  0  0  0
  -24.8616  -27.6870   19.4584 C   0  0  0  0  0  0
  -23.6421  -29.8212   20.1566 C   0  0  0  0  0  0
  -25.4101  -36.3049   24.0330 C   0  0  1  0  0  0
  -20.5912  -28.3706   23.1250 C   0  0  2  0  0  0
  -20.6802  -26.9426   22.5385 C   0  0  0  0  0  0
  -19.5765  -26.6396   21.5204 C   0  0  0  0  0  0
  -18.1944  -26.7938   22.1623 C   0  0  0  0  0  0
  -19.1557  -28.8864   23.2874 C   0  0  0  0  0  0
  -18.9486  -30.1469   23.8883 C   0  0  0  0  0  0
  -17.6480  -30.6588   24.0576 C   0  0  0  0  0  0
  -25.9043  -34.9419   23.5090 C   0  0  0  0  0  0
  -16.5376  -29.9077   23.6339 C   0  0  0  0  0  0
  -16.7290  -28.6503   23.0348 C   0  0  0  0  0  0
  -26.4557  -31.6531   25.0695 C   0  0  0  0  0  0
  -25.3796  -31.3638   26.1422 C   0  0  0  0  0  0
  -27.0405  -30.2955   24.6128 C   0  0  0  0  0  0
  -27.6122  -32.4255   25.7477 C   0  0  0  0  0  0
  -27.5553  -37.1767   24.8482 C   0  0  0  0  0  0
  -21.4208  -29.3067   22.3647 N   0  0  0  0  0  0
  -26.4273  -37.3749   23.9423 N   0  0  0  0  0  0
  -24.6970  -31.0527   22.0963 N   0  0  0  0  0  0
  -23.4199  -28.8161   23.3001 O   0  0  0  0  0  0
  -28.2771  -26.3486   20.1551 O   0  0  0  0  0  0
  -26.5567  -34.8906   22.4629 O   0  0  0  0  0  0
  -23.5496  -32.1395   23.7284 O   0  0  0  0  0  0
  -29.8647  -18.4757   19.9799 C   0  0  0  0  0  0
  -30.4106  -19.3712   19.0670 C   0  0  0  0  0  0
  -29.1605  -20.9795   20.1810 C   0  0  0  0  0  0
  -30.2273  -16.9878   20.0221 C   0  0  0  0  0  0
  -31.3887  -19.0654   17.9701 C   0  0  0  0  0  0
  -28.8317  -23.7249   18.4161 C   0  0  0  0  0  0
  -27.9767  -24.8967   22.0599 C   0  0  0  0  0  0
  -28.9129  -23.7143   19.9501 C   0  0  1  0  0  0
  -27.9890  -24.9150   20.5250 C   0  0  2  0  0  0
  -30.0229  -20.7253   19.1995 N   0  0  0  0  0  0
  -29.8610  -15.9134   20.6946 N   0  0  0  0  0  0
  -28.6589  -22.3052   20.4578 N   0  0  0  0  0  0
  -28.7697  -19.4239   21.0398 S   0  0  0  0  0  0
  -31.4653  -12.5046   19.2058 H   0  0  0  0  0  0
  -30.3249  -11.4488   19.9808 H   0  0  0  0  0  0
  -29.7967  -11.7252   17.5324 H   0  0  0  0  0  0
  -29.6493  -13.4558   17.7440 H   0  0  0  0  0  0
  -27.8897  -11.2781   18.9142 H   0  0  0  0  0  0
  -27.3842  -12.5120   17.7927 H   0  0  0  0  0  0
  -27.6341  -14.2543   19.4607 H   0  0  0  0  0  0
  -28.6841  -12.1818   21.4409 H   0  0  0  0  0  0
  -28.4003  -13.8699   21.7804 H   0  0  0  0  0  0
  -25.2744   -9.5700   22.4745 H   0  0  0  0  0  0
  -24.0005   -7.4637   22.7466 H   0  0  0  0  0  0
  -21.0837   -8.8725   19.8938 H   0  0  0  0  0  0
  -22.3652  -10.9647   19.6151 H   0  0  0  0  0  0
  -21.1981   -7.6138   23.9711 H   0  0  0  0  0  0
  -21.1502   -6.0522   25.9077 H   0  0  0  0  0  0
  -22.0591   -2.7604   23.2853 H   0  0  0  0  0  0
  -22.4103  -11.9862   22.4805 H   0  0  0  0  0  0
  -21.1073  -13.1189   22.2652 H   0  0  0  0  0  0
  -24.6700  -15.8584   20.5483 H   0  0  0  0  0  0
  -26.3005  -15.6249   20.1555 H   0  0  0  0  0  0
  -26.7244  -32.5396   23.1076 H   0  0  0  0  0  0
  -25.0301  -33.9691   25.0536 H   0  0  0  0  0  0
  -22.7251  -31.3075   21.3987 H   0  0  0  0  0  0
  -23.3744  -35.9585   23.3301 H   0  0  0  0  0  0
  -24.3595  -36.8852   22.2046 H   0  0  0  0  0  0
  -23.7225  -37.6460   23.6642 H   0  0  0  0  0  0
  -26.1045  -31.5248   20.6006 H   0  0  0  0  0  0
  -26.8548  -30.8234   22.0007 H   0  0  0  0  0  0
  -28.1134  -28.9095   21.2156 H   0  0  0  0  0  0
  -25.9670  -25.9492   18.9188 H   0  0  0  0  0  0
  -23.9706  -27.3387   18.9535 H   0  0  0  0  0  0
  -23.7641  -30.6018   19.4042 H   0  0  0  0  0  0
  -22.7612  -29.2552   19.8504 H   0  0  0  0  0  0
  -25.1266  -36.1898   25.0814 H   0  0  0  0  0  0
  -21.0015  -28.3296   24.1369 H   0  0  0  0  0  0
  -20.5710  -26.2318   23.3589 H   0  0  0  0  0  0
  -21.6661  -26.7449   22.1166 H   0  0  0  0  0  0
  -19.6920  -25.6308   21.1228 H   0  0  0  0  0  0
  -19.6690  -27.3219   20.6745 H   0  0  0  0  0  0
  -17.4211  -26.6699   21.4032 H   0  0  0  0  0  0
  -18.0342  -26.0061   22.9002 H   0  0  0  0  0  0
  -19.7956  -30.7308   24.2210 H   0  0  0  0  0  0
  -17.5028  -31.6259   24.5196 H   0  0  0  0  0  0
  -15.5374  -30.2976   23.7661 H   0  0  0  0  0  0
  -15.8699  -28.0830   22.7028 H   0  0  0  0  0  0
  -24.6031  -30.6921   25.7755 H   0  0  0  0  0  0
  -24.8936  -32.2772   26.4843 H   0  0  0  0  0  0
  -25.8144  -30.8843   27.0199 H   0  0  0  0  0  0
  -26.2962  -29.6687   24.1205 H   0  0  0  0  0  0
  -27.4182  -29.7230   25.4612 H   0  0  0  0  0  0
  -27.8805  -30.4236   23.9296 H   0  0  0  0  0  0
  -27.2761  -33.3586   26.2018 H   0  0  0  0  0  0
  -28.3966  -32.6751   25.0312 H   0  0  0  0  0  0
  -28.0749  -31.8374   26.5419 H   0  0  0  0  0  0
  -28.2580  -38.0054   24.7516 H   0  0  0  0  0  0
  -28.1031  -36.2582   24.6330 H   0  0  0  0  0  0
  -27.2271  -37.1443   25.8886 H   0  0  0  0  0  0
  -20.9378  -29.8805   21.6882 H   0  0  0  0  0  0
  -26.0146  -38.2814   24.1464 H   0  0  0  0  0  0
  -30.9988  -16.8250   19.2642 H   0  0  0  0  0  0
  -32.3849  -18.8912   18.3764 H   0  0  0  0  0  0
  -31.4648  -19.8867   17.2561 H   0  0  0  0  0  0
  -31.1005  -18.1793   17.4051 H   0  0  0  0  0  0
  -28.9931  -24.7275   18.0173 H   0  0  0  0  0  0
  -27.8551  -23.3824   18.0733 H   0  0  0  0  0  0
  -29.5869  -23.0767   17.9694 H   0  0  0  0  0  0
  -27.6594  -23.9295   22.4480 H   0  0  0  0  0  0
  -27.2891  -25.6420   22.4596 H   0  0  0  0  0  0
  -28.9668  -25.1099   22.4618 H   0  0  0  0  0  0
  -29.9442  -23.9463   20.2240 H   0  0  0  0  0  0
  -26.9819  -24.6450   20.2133 H   0  0  0  0  0  0
  -28.0095  -22.2989   21.2383 H   0  0  0  0  0  0
  1 25  1  0  0  0
  1 30  2  0  0  0
  1 81  1  0  0  0
  2  3  1  0  0  0
  2 25  1  0  0  0
  2 84  1  0  0  0
  2 85  1  0  0  0
  3  4  1  0  0  0
  3 86  1  0  0  0
  3 87  1  0  0  0
  4  5  1  0  0  0
  4 88  1  0  0  0
  4 89  1  0  0  0
  5  6  1  0  0  0
  5 26  1  0  0  0
  5 90  1  0  0  0
  6 25  1  0  0  0
  6 91  1  0  0  0
  6 92  1  0  0  0
  7  8  2  0  0  0
  7 26  1  0  0  0
  7 29  1  0  0  0
  8  9  1  0  0  0
  8 22  1  0  0  0
  9 10  1  0  0  0
  9 27  2  0  0  0
 10 11  2  0  0  0
 10 15  1  0  0  0
 11 12  1  0  0  0
 11 93  1  0  0  0
 12 13  2  0  0  0
 12 94  1  0  0  0
 13 14  1  0  0  0
 13 31  1  0  0  0
 14 15  2  0  0  0
 14 95  1  0  0  0
 15 96  1  0  0  0
 16 17  2  0  0  0
 16 21  1  0  0  0
 16 31  1  0  0  0
 17 18  1  0  0  0
 17 97  1  0  0  0
 18 19  2  0  0  0
 18 98  1  0  0  0
 19 20  1  0  0  0
 19 24  1  0  0  0
 20 21  2  0  0  0
 20 99  1  0  0  0
 21 23  1  0  0  0
 22 28  1  0  0  0
 22 32  2  0  0  0
 26 27  1  0  0  0
 28100  1  0  0  0
 28101  1  0  0  0
 29102  1  0  0  0
 29103  1  0  0  0
 33 34  1  0  0  0
 33 66  1  0  0  0
 33 70  2  0  0  0
 34 36  1  0  0  0
 34 59  1  0  0  0
 34104  1  0  0  0
 35 44  2  0  0  0
 35 45  1  0  0  0
 35 68  1  0  0  0
 36 56  1  0  0  0
 36105  1  0  0  0
 37 39  1  0  0  0
 37 47  1  0  0  0
 37 66  1  0  0  0
 37106  1  0  0  0
 38 43  2  0  0  0
 38 46  1  0  0  0
 38 47  1  0  0  0
 39 64  1  0  0  0
 39 67  2  0  0  0
 40 52  1  0  0  0
 40 53  2  0  0  0
 40 58  1  0  0  0
 41107  1  0  0  0
 41108  1  0  0  0
 41109  1  0  0  0
 41 48  1  0  0  0
 42 43  1  0  0  0
 42 66  1  0  0  0
 42110  1  0  0  0
 42111  1  0  0  0
 43 44  1  0  0  0
 44112  1  0  0  0
 45 46  2  0  0  0
 45113  1  0  0  0
 46114  1  0  0  0
 47115  1  0  0  0
 47116  1  0  0  0
 48 56  1  0  0  0
 48 65  1  0  0  0
 48117  1  0  0  0
 49 50  1  0  0  0
 49 53  1  0  0  0
 49 64  1  0  0  0
 49118  1  0  0  0
 50 51  1  0  0  0
 50119  1  0  0  0
 50120  1  0  0  0
 51 52  1  0  0  0
 51121  1  0  0  0
 51122  1  0  0  0
 52123  1  0  0  0
 52124  1  0  0  0
 53 54  1  0  0  0
 54 55  2  0  0  0
 54125  1  0  0  0
 55 57  1  0  0  0
 55126  1  0  0  0
 56 69  2  0  0  0
 57 58  2  0  0  0
 57127  1  0  0  0
 58128  1  0  0  0
 59 60  1  0  0  0
 59 61  1  0  0  0
 59 62  1  0  0  0
 60129  1  0  0  0
 60130  1  0  0  0
 60131  1  0  0  0
 61132  1  0  0  0
 61133  1  0  0  0
 61134  1  0  0  0
 62135  1  0  0  0
 62136  1  0  0  0
 62137  1  0  0  0
 63 65  1  0  0  0
 63138  1  0  0  0
 63139  1  0  0  0
 63140  1  0  0  0
 64141  1  0  0  0
 65142  1  0  0  0
 68 79  1  0  0  0
 71 72  2  0  0  0
 71 74  1  0  0  0
 71 83  1  0  0  0
 72 75  1  0  0  0
 72 80  1  0  0  0
 73 80  2  0  0  0
 73 82  1  0  0  0
 73 83  1  0  0  0
 74 81  2  0  0  0
 74143  1  0  0  0
 75144  1  0  0  0
 75145  1  0  0  0
 75146  1  0  0  0
 76147  1  0  0  0
 76148  1  0  0  0
 76149  1  0  0  0
 76 78  1  0  0  0
 77150  1  0  0  0
 77151  1  0  0  0
 77152  1  0  0  0
 77 79  1  0  0  0
 78 79  1  0  0  0
 78 82  1  0  0  0
 78153  1  0  0  0
 79154  1  0  0  0
 82155  1  0  0  0
M  ISO  4   1 100  68 101  79 101  81 100
M  END
> <chiral flag>
0

> <version>
0

> <s_m_source_file>
/data/baiqing/PycharmProjects/Reinvent-master-3.2/result/LINK_invent/BTK/process_docking_weight1_custom_product_contain_oxygen_bond_distance_aromatic_linkinvent_7_9_3/rearranged_h_0188.sdf

> <i_m_source_file_index>
43

> <r_mmod_Potential_Energy-OPLS-2005>
48.9338798522949

> <r_mmod_Stretch_Energy-OPLS-2005>
113.751518249512

> <r_mmod_Bend_Energy-OPLS-2005>
171.639984130859

> <r_mmod_Torsional_Energy-OPLS-2005>
178.786972045898

> <r_mmod_Improper_Torsional_Energy-OPLS-2005>
3.97366786003113

> <r_mmod_Van_der_Waal_Energy-OPLS-2005>
132.258407592773

> <r_mmod_Electrostatic_Energy-OPLS-2005>
-437.311248779297

> <r_mmod_Solvation_Energy-OPLS-2005>
-194.12858581543

> <b_mmod_Minimization_Converged-OPLS-2005>
0

> <r_mmod_RMS_Derivative-OPLS-2005>
2.45143532752991

$$$$
44
                    3D
 Structure written by MMmdl.
161169  0  0  1  0            999 V2000
  -30.7233  -14.4523   20.5550 C   0  0  0  0  0  0
  -30.4176  -12.2872   19.4120 C   0  0  0  0  0  0
  -29.4893  -12.4813   18.1966 C   0  0  0  0  0  0
  -28.0098  -12.3531   18.6152 C   0  0  0  0  0  0
  -27.6604  -13.2024   19.8680 C   0  0  2  0  0  0
  -28.7089  -12.9944   20.9855 C   0  0  0  0  0  0
  -25.2613  -13.8155   20.5679 C   0  0  0  0  0  0
  -24.1856  -13.0440   20.9191 C   0  0  0  0  0  0
  -24.6398  -11.6910   20.8737 C   0  0  0  0  0  0
  -23.9061  -10.4292   21.0398 C   0  0  0  0  0  0
  -24.3605   -9.4209   21.9189 C   0  0  0  0  0  0
  -23.6284   -8.2242   22.0752 C   0  0  0  0  0  0
  -22.4265   -8.0272   21.3543 C   0  0  0  0  0  0
  -21.9900   -9.0256   20.4648 C   0  0  0  0  0  0
  -22.7225  -10.2134   20.3065 C   0  0  0  0  0  0
  -21.6853   -6.0727   22.5284 C   0  0  0  0  0  0
  -21.4013   -6.5640   23.8209 C   0  0  0  0  0  0
  -21.3659   -5.6791   24.9180 C   0  0  0  0  0  0
  -21.6038   -4.3058   24.7223 C   0  0  0  0  0  0
  -21.8824   -3.8143   23.4353 C   0  0  0  0  0  0
  -21.9194   -4.6960   22.3397 C   0  0  0  0  0  0
  -22.7876  -13.5240   21.1821 C   0  0  0  0  0  0
  -22.1664   -4.2148   21.0976 F   0  0  0  0  0  0
  -21.5626   -3.4538   25.7739 F   0  0  0  0  0  0
  -30.0360  -13.2858   20.4212 N   0  0  0  0  0  0
  -26.3024  -12.9310   20.3338 N   0  0  0  0  0  0
  -25.9323  -11.6480   20.5775 N   0  0  0  0  0  0
  -22.0514  -12.8256   22.0398 N   0  0  0  0  0  0
  -25.4341  -15.1861   20.4052 N   0  0  0  0  0  0
  -31.8689  -14.6019   20.1270 O   0  0  0  0  0  0
  -21.6635   -6.8876   21.4236 O   0  0  0  0  0  0
  -22.3584  -14.5567   20.6689 O   0  0  0  0  0  0
  -24.6143  -31.8713   23.2152 C   0  0  0  0  0  0
  -25.9038  -32.4845   23.8448 C   0  0  1  0  0  0
  -27.2164  -27.4258   20.0949 C   0  0  0  0  0  0
  -25.5868  -33.8643   24.2378 N   0  0  0  0  0  0
  -23.4029  -30.5021   21.5524 C   0  0  2  0  0  0
  -24.8441  -28.9786   20.1081 C   0  0  0  0  0  0
  -22.7421  -29.4691   22.4957 C   0  0  0  0  0  0
  -18.0270  -28.1385   22.8485 C   0  0  0  0  0  0
  -24.1484  -36.7325   23.2650 C   0  0  0  0  0  0
  -25.9364  -30.8364   21.3707 C   0  0  0  0  0  0
  -26.0080  -29.4752   20.7073 C   0  0  0  0  0  0
  -27.1989  -28.7076   20.6932 C   0  0  0  0  0  0
  -26.0327  -26.9615   19.4729 C   0  0  0  0  0  0
  -24.8542  -27.7249   19.4822 C   0  0  0  0  0  0
  -23.6106  -29.8492   20.1610 C   0  0  0  0  0  0
  -25.4098  -36.3151   24.0374 C   0  0  1  0  0  0
  -20.5866  -28.3669   23.1314 C   0  0  2  0  0  0
  -20.6762  -26.9413   22.5419 C   0  0  0  0  0  0
  -19.5748  -26.6388   21.5221 C   0  0  0  0  0  0
  -18.1913  -26.7928   22.1621 C   0  0  0  0  0  0
  -19.1525  -28.8850   23.2895 C   0  0  0  0  0  0
  -18.9453  -30.1454   23.8910 C   0  0  0  0  0  0
  -17.6461  -30.6582   24.0585 C   0  0  0  0  0  0
  -25.9015  -34.9497   23.5183 C   0  0  0  0  0  0
  -16.5345  -29.9103   23.6323 C   0  0  0  0  0  0
  -16.7260  -28.6516   23.0338 C   0  0  0  0  0  0
  -26.4445  -31.6613   25.0760 C   0  0  0  0  0  0
  -25.3705  -31.3716   26.1525 C   0  0  0  0  0  0
  -27.0270  -30.3056   24.6129 C   0  0  0  0  0  0
  -27.6038  -32.4311   25.7504 C   0  0  0  0  0  0
  -27.5579  -37.1824   24.8465 C   0  0  0  0  0  0
  -21.4151  -29.3029   22.3707 N   0  0  0  0  0  0
  -26.4283  -37.3821   23.9420 N   0  0  0  0  0  0
  -24.6700  -31.0815   22.1052 N   0  0  0  0  0  0
  -23.4206  -28.8208   23.2979 O   0  0  0  0  0  0
  -28.3646  -26.6578   20.1440 O   0  0  0  0  0  0
  -26.5574  -34.8938   22.4742 O   0  0  0  0  0  0
  -23.5327  -32.1449   23.7542 O   0  0  0  0  0  0
  -30.1715  -19.1180   21.1380 C   0  0  0  0  0  0
  -31.4938  -18.9899   21.4999 C   0  0  0  0  0  0
  -30.4326  -16.8334   21.1591 C   0  0  0  0  0  0
  -29.1041  -24.6256   22.2934 C   0  0  0  0  0  0
  -30.6557  -24.8774   20.3043 C   0  0  0  0  0  0
  -29.3392  -20.3625   20.8645 C   0  0  0  0  0  0
  -28.9945  -22.8724   20.4741 C   0  0  0  0  0  0
  -28.1897  -25.2288   20.0302 C   0  0  0  0  0  0
  -29.9999  -21.7791   20.9533 C   0  0  2  0  0  0
  -29.2665  -24.3881   20.7765 C   0  0  0  0  0  0
  -29.5716  -17.8502   20.9806 N   0  0  0  0  0  0
  -29.9938  -15.4927   20.9974 N   0  0  0  0  0  0
  -31.2400  -21.8588   20.1563 N   0  3  0  0  0  0
  -32.3329  -20.0310   21.7189 F   0  0  0  0  0  0
  -32.0622  -17.3516   21.6084 S   0  0  0  0  0  0
  -31.4623  -12.3653   19.1100 H   0  0  0  0  0  0
  -30.3027  -11.2819   19.8204 H   0  0  0  0  0  0
  -29.7190  -11.7428   17.4264 H   0  0  0  0  0  0
  -29.6639  -13.4585   17.7436 H   0  0  0  0  0  0
  -27.8172  -11.2975   18.8192 H   0  0  0  0  0  0
  -27.3574  -12.6212   17.7808 H   0  0  0  0  0  0
  -27.7014  -14.2455   19.5548 H   0  0  0  0  0  0
  -28.6840  -11.9632   21.3416 H   0  0  0  0  0  0
  -28.4815  -13.6100   21.8563 H   0  0  0  0  0  0
  -25.2754   -9.5687   22.4764 H   0  0  0  0  0  0
  -23.9997   -7.4632   22.7475 H   0  0  0  0  0  0
  -21.0832   -8.8770   19.8957 H   0  0  0  0  0  0
  -22.3683  -10.9672   19.6171 H   0  0  0  0  0  0
  -21.2008   -7.6151   23.9718 H   0  0  0  0  0  0
  -21.1471   -6.0523   25.9082 H   0  0  0  0  0  0
  -22.0603   -2.7609   23.2849 H   0  0  0  0  0  0
  -22.4100  -11.9897   22.4794 H   0  0  0  0  0  0
  -21.1130  -13.1286   22.2581 H   0  0  0  0  0  0
  -24.6679  -15.8413   20.5151 H   0  0  0  0  0  0
  -26.2822  -15.6240   20.0665 H   0  0  0  0  0  0
  -26.7099  -32.5539   23.1199 H   0  0  0  0  0  0
  -25.0050  -33.9814   25.0555 H   0  0  0  0  0  0
  -22.6949  -31.3218   21.4224 H   0  0  0  0  0  0
  -23.3760  -35.9636   23.3323 H   0  0  0  0  0  0
  -24.3586  -36.8908   22.2054 H   0  0  0  0  0  0
  -23.7201  -37.6532   23.6615 H   0  0  0  0  0  0
  -26.0523  -31.6091   20.6097 H   0  0  0  0  0  0
  -26.8240  -30.8809   21.9918 H   0  0  0  0  0  0
  -28.0975  -29.0899   21.1570 H   0  0  0  0  0  0
  -25.9968  -26.0055   18.9739 H   0  0  0  0  0  0
  -23.9633  -27.3433   19.0046 H   0  0  0  0  0  0
  -23.7244  -30.6345   19.4132 H   0  0  0  0  0  0
  -22.7327  -29.2760   19.8551 H   0  0  0  0  0  0
  -25.1266  -36.2058   25.0861 H   0  0  0  0  0  0
  -20.9950  -28.3224   24.1444 H   0  0  0  0  0  0
  -20.5677  -26.2281   23.3602 H   0  0  0  0  0  0
  -21.6633  -26.7461   22.1223 H   0  0  0  0  0  0
  -19.6917  -25.6305   21.1243 H   0  0  0  0  0  0
  -19.6690  -27.3197   20.6757 H   0  0  0  0  0  0
  -17.4195  -26.6686   21.4010 H   0  0  0  0  0  0
  -18.0315  -26.0063   22.9015 H   0  0  0  0  0  0
  -19.7938  -30.7256   24.2296 H   0  0  0  0  0  0
  -17.5022  -31.6272   24.5169 H   0  0  0  0  0  0
  -15.5353  -30.3016   23.7648 H   0  0  0  0  0  0
  -15.8653  -28.0856   22.7043 H   0  0  0  0  0  0
  -24.5909  -30.7004   25.7882 H   0  0  0  0  0  0
  -24.8840  -32.2857   26.4958 H   0  0  0  0  0  0
  -25.8081  -30.8920   27.0317 H   0  0  0  0  0  0
  -26.2809  -29.6856   24.1126 H   0  0  0  0  0  0
  -27.3991  -29.7253   25.4602 H   0  0  0  0  0  0
  -27.8684  -30.4411   23.9326 H   0  0  0  0  0  0
  -27.2710  -33.3635   26.2087 H   0  0  0  0  0  0
  -28.3831  -32.6838   25.0302 H   0  0  0  0  0  0
  -28.0721  -31.8431   26.5412 H   0  0  0  0  0  0
  -28.2623  -38.0104   24.7532 H   0  0  0  0  0  0
  -28.1066  -36.2648   24.6281 H   0  0  0  0  0  0
  -27.2304  -37.1463   25.8871 H   0  0  0  0  0  0
  -20.9304  -29.8815   21.6995 H   0  0  0  0  0  0
  -26.0216  -38.2917   24.1415 H   0  0  0  0  0  0
  -29.9231  -24.2058   22.8690 H   0  0  0  0  0  0
  -28.1851  -24.1708   22.6645 H   0  0  0  0  0  0
  -29.0429  -25.6923   22.5255 H   0  0  0  0  0  0
  -31.4866  -24.3510   20.7710 H   0  0  0  0  0  0
  -30.7932  -25.9309   20.5525 H   0  0  0  0  0  0
  -30.7584  -24.7986   19.2238 H   0  0  0  0  0  0
  -28.4901  -20.3541   21.5469 H   0  0  0  0  0  0
  -28.8918  -20.2581   19.8771 H   0  0  0  0  0  0
  -28.0249  -22.6275   20.9123 H   0  0  0  0  0  0
  -28.8454  -22.7381   19.4013 H   0  0  0  0  0  0
  -28.1765  -24.9684   18.9677 H   0  0  0  0  0  0
  -27.2282  -24.9198   20.4427 H   0  0  0  0  0  0
  -30.2631  -21.9602   21.9995 H   0  0  0  0  0  0
  -29.0136  -15.3191   21.1342 H   0  0  0  0  0  0
  -31.0819  -21.6769   19.1823 H   0  0  0  0  0  0
  -31.9104  -21.1894   20.5108 H   0  0  0  0  0  0
  -31.6444  -22.7760   20.2572 H   0  0  0  0  0  0
  1 25  1  0  0  0
  1 30  2  0  0  0
  1 82  1  0  0  0
  2  3  1  0  0  0
  2 25  1  0  0  0
  2 86  1  0  0  0
  2 87  1  0  0  0
  3  4  1  0  0  0
  3 88  1  0  0  0
  3 89  1  0  0  0
  4  5  1  0  0  0
  4 90  1  0  0  0
  4 91  1  0  0  0
  5  6  1  0  0  0
  5 26  1  0  0  0
  5 92  1  0  0  0
  6 25  1  0  0  0
  6 93  1  0  0  0
  6 94  1  0  0  0
  7  8  2  0  0  0
  7 26  1  0  0  0
  7 29  1  0  0  0
  8  9  1  0  0  0
  8 22  1  0  0  0
  9 10  1  0  0  0
  9 27  2  0  0  0
 10 11  2  0  0  0
 10 15  1  0  0  0
 11 12  1  0  0  0
 11 95  1  0  0  0
 12 13  2  0  0  0
 12 96  1  0  0  0
 13 14  1  0  0  0
 13 31  1  0  0  0
 14 15  2  0  0  0
 14 97  1  0  0  0
 15 98  1  0  0  0
 16 17  2  0  0  0
 16 21  1  0  0  0
 16 31  1  0  0  0
 17 18  1  0  0  0
 17 99  1  0  0  0
 18 19  2  0  0  0
 18100  1  0  0  0
 19 20  1  0  0  0
 19 24  1  0  0  0
 20 21  2  0  0  0
 20101  1  0  0  0
 21 23  1  0  0  0
 22 28  1  0  0  0
 22 32  2  0  0  0
 26 27  1  0  0  0
 28102  1  0  0  0
 28103  1  0  0  0
 29104  1  0  0  0
 29105  1  0  0  0
 33 34  1  0  0  0
 33 66  1  0  0  0
 33 70  2  0  0  0
 34 36  1  0  0  0
 34 59  1  0  0  0
 34106  1  0  0  0
 35 44  2  0  0  0
 35 45  1  0  0  0
 35 68  1  0  0  0
 36 56  1  0  0  0
 36107  1  0  0  0
 37 39  1  0  0  0
 37 47  1  0  0  0
 37 66  1  0  0  0
 37108  1  0  0  0
 38 43  2  0  0  0
 38 46  1  0  0  0
 38 47  1  0  0  0
 39 64  1  0  0  0
 39 67  2  0  0  0
 40 52  1  0  0  0
 40 53  2  0  0  0
 40 58  1  0  0  0
 41109  1  0  0  0
 41110  1  0  0  0
 41111  1  0  0  0
 41 48  1  0  0  0
 42 43  1  0  0  0
 42 66  1  0  0  0
 42112  1  0  0  0
 42113  1  0  0  0
 43 44  1  0  0  0
 44114  1  0  0  0
 45 46  2  0  0  0
 45115  1  0  0  0
 46116  1  0  0  0
 47117  1  0  0  0
 47118  1  0  0  0
 48 56  1  0  0  0
 48 65  1  0  0  0
 48119  1  0  0  0
 49 50  1  0  0  0
 49 53  1  0  0  0
 49 64  1  0  0  0
 49120  1  0  0  0
 50 51  1  0  0  0
 50121  1  0  0  0
 50122  1  0  0  0
 51 52  1  0  0  0
 51123  1  0  0  0
 51124  1  0  0  0
 52125  1  0  0  0
 52126  1  0  0  0
 53 54  1  0  0  0
 54 55  2  0  0  0
 54127  1  0  0  0
 55 57  1  0  0  0
 55128  1  0  0  0
 56 69  2  0  0  0
 57 58  2  0  0  0
 57129  1  0  0  0
 58130  1  0  0  0
 59 60  1  0  0  0
 59 61  1  0  0  0
 59 62  1  0  0  0
 60131  1  0  0  0
 60132  1  0  0  0
 60133  1  0  0  0
 61134  1  0  0  0
 61135  1  0  0  0
 61136  1  0  0  0
 62137  1  0  0  0
 62138  1  0  0  0
 62139  1  0  0  0
 63 65  1  0  0  0
 63140  1  0  0  0
 63141  1  0  0  0
 63142  1  0  0  0
 64143  1  0  0  0
 65144  1  0  0  0
 68 78  1  0  0  0
 71 72  2  0  0  0
 71 76  1  0  0  0
 71 81  1  0  0  0
 72 84  1  0  0  0
 72 85  1  0  0  0
 73 81  2  0  0  0
 73 82  1  0  0  0
 73 85  1  0  0  0
 74145  1  0  0  0
 74146  1  0  0  0
 74147  1  0  0  0
 74 80  1  0  0  0
 75 80  1  0  0  0
 75148  1  0  0  0
 75149  1  0  0  0
 75150  1  0  0  0
 76 79  1  0  0  0
 76151  1  0  0  0
 76152  1  0  0  0
 77 79  1  0  0  0
 77 80  1  0  0  0
 77153  1  0  0  0
 77154  1  0  0  0
 78 80  1  0  0  0
 78155  1  0  0  0
 78156  1  0  0  0
 79 83  1  0  0  0
 79157  1  0  0  0
 82158  1  0  0  0
 83159  1  0  0  0
 83160  1  0  0  0
 83161  1  0  0  0
M  CHG  1  83   1
M  ISO  4   1 100  68 101  78 101  82 100
M  END
> <chiral flag>
0

> <version>
0

> <s_m_source_file>
/data/baiqing/PycharmProjects/Reinvent-master-3.2/result/LINK_invent/BTK/process_docking_weight1_custom_product_contain_oxygen_bond_distance_aromatic_linkinvent_7_9_3/rearranged_h_0188.sdf

> <i_m_source_file_index>
44

> <r_mmod_Potential_Energy-OPLS-2005>
-282.543701171875

> <r_mmod_Stretch_Energy-OPLS-2005>
40.2309036254883

> <r_mmod_Bend_Energy-OPLS-2005>
115.528198242188

> <r_mmod_Torsional_Energy-OPLS-2005>
233.571792602539

> <r_mmod_Improper_Torsional_Energy-OPLS-2005>
4.65853071212769

> <r_mmod_Van_der_Waal_Energy-OPLS-2005>
147.224304199219

> <r_mmod_Electrostatic_Energy-OPLS-2005>
-373.092803955078

> <r_mmod_Solvation_Energy-OPLS-2005>
-467.0654296875

> <b_mmod_Minimization_Converged-OPLS-2005>
0

> <r_mmod_RMS_Derivative-OPLS-2005>
5.18413496017456

$$$$
45
                    3D
 Structure written by MMmdl.
158166  0  0  1  0            999 V2000
  -30.6129  -14.7943   20.4726 C   0  0  0  0  0  0
  -30.4308  -12.4951   19.4823 C   0  0  0  0  0  0
  -29.5149  -12.5098   18.2414 C   0  0  0  0  0  0
  -28.0383  -12.3341   18.6486 C   0  0  0  0  0  0
  -27.6319  -13.2415   19.8421 C   0  0  2  0  0  0
  -28.6769  -13.2116   20.9763 C   0  0  0  0  0  0
  -25.2448  -13.8214   20.5721 C   0  0  0  0  0  0
  -24.1757  -13.0442   20.9213 C   0  0  0  0  0  0
  -24.6379  -11.6933   20.8756 C   0  0  0  0  0  0
  -23.9063  -10.4300   21.0404 C   0  0  0  0  0  0
  -24.3618   -9.4214   21.9174 C   0  0  0  0  0  0
  -23.6303   -8.2250   22.0744 C   0  0  0  0  0  0
  -22.4285   -8.0289   21.3545 C   0  0  0  0  0  0
  -21.9914   -9.0254   20.4648 C   0  0  0  0  0  0
  -22.7236  -10.2139   20.3053 C   0  0  0  0  0  0
  -21.6859   -6.0739   22.5280 C   0  0  0  0  0  0
  -21.4040   -6.5636   23.8219 C   0  0  0  0  0  0
  -21.3657   -5.6780   24.9174 C   0  0  0  0  0  0
  -21.6047   -4.3047   24.7218 C   0  0  0  0  0  0
  -21.8809   -3.8142   23.4335 C   0  0  0  0  0  0
  -21.9182   -4.6964   22.3396 C   0  0  0  0  0  0
  -22.7777  -13.5213   21.1870 C   0  0  0  0  0  0
  -22.1651   -4.2141   21.0979 F   0  0  0  0  0  0
  -21.5626   -3.4540   25.7731 F   0  0  0  0  0  0
  -29.9641  -13.5777   20.3781 N   0  0  0  0  0  0
  -26.2878  -12.9445   20.3252 N   0  0  0  0  0  0
  -25.9298  -11.6584   20.5727 N   0  0  0  0  0  0
  -22.0425  -12.8237   22.0464 N   0  0  0  0  0  0
  -25.4049  -15.1952   20.4135 N   0  0  0  0  0  0
  -31.8246  -14.8221   20.2358 O   0  0  0  0  0  0
  -21.6646   -6.8890   21.4247 O   0  0  0  0  0  0
  -22.3459  -14.5501   20.6696 O   0  0  0  0  0  0
  -24.6343  -31.8539   23.1967 C   0  0  0  0  0  0
  -25.9166  -32.4745   23.8317 C   0  0  1  0  0  0
  -27.2091  -27.2347   20.1315 C   0  0  0  0  0  0
  -25.5955  -33.8546   24.2245 N   0  0  0  0  0  0
  -23.4313  -30.4781   21.5401 C   0  0  2  0  0  0
  -24.8757  -28.9236   20.1078 C   0  0  0  0  0  0
  -22.7521  -29.4606   22.4896 C   0  0  0  0  0  0
  -18.0297  -28.1389   22.8472 C   0  0  0  0  0  0
  -24.1487  -36.7274   23.2640 C   0  0  0  0  0  0
  -25.9807  -30.7586   21.3805 C   0  0  0  0  0  0
  -26.0507  -29.3810   20.7183 C   0  0  0  0  0  0
  -27.2208  -28.5501   20.7154 C   0  0  0  0  0  0
  -26.0102  -26.8594   19.4838 C   0  0  0  0  0  0
  -24.8629  -27.6731   19.4774 C   0  0  0  0  0  0
  -23.6496  -29.8147   20.1556 C   0  0  0  0  0  0
  -25.4119  -36.3066   24.0326 C   0  0  1  0  0  0
  -20.5908  -28.3712   23.1241 C   0  0  2  0  0  0
  -20.6780  -26.9421   22.5395 C   0  0  0  0  0  0
  -19.5756  -26.6376   21.5196 C   0  0  0  0  0  0
  -18.1942  -26.7930   22.1615 C   0  0  0  0  0  0
  -19.1556  -28.8862   23.2848 C   0  0  0  0  0  0
  -18.9478  -30.1457   23.8870 C   0  0  0  0  0  0
  -17.6476  -30.6583   24.0565 C   0  0  0  0  0  0
  -25.9063  -34.9434   23.5091 C   0  0  0  0  0  0
  -16.5365  -29.9087   23.6326 C   0  0  0  0  0  0
  -16.7283  -28.6508   23.0347 C   0  0  0  0  0  0
  -26.4514  -31.6577   25.0716 C   0  0  0  0  0  0
  -25.3725  -31.3760   26.1434 C   0  0  0  0  0  0
  -27.0366  -30.2976   24.6238 C   0  0  0  0  0  0
  -27.6055  -32.4334   25.7492 C   0  0  0  0  0  0
  -27.5591  -37.1792   24.8467 C   0  0  0  0  0  0
  -21.4224  -29.3059   22.3630 N   0  0  0  0  0  0
  -26.4299  -37.3773   23.9414 N   0  0  0  0  0  0
  -24.7013  -31.0493   22.0947 N   0  0  0  0  0  0
  -23.4208  -28.8139   23.2998 O   0  0  0  0  0  0
  -28.2917  -26.3150   20.2124 O   0  0  0  0  0  0
  -26.5627  -34.8922   22.4648 O   0  0  0  0  0  0
  -23.5478  -32.1370   23.7238 O   0  0  0  0  0  0
  -28.8333  -18.6764   19.1697 C   0  0  0  0  0  0
  -29.4903  -18.5630   20.3744 C   0  0  0  0  0  0
  -28.8924  -20.9090   20.3414 C   0  0  0  0  0  0
  -30.3042  -17.2744   20.8024 C   0  0  0  0  0  0
  -28.7911  -24.0376   22.4231 C   0  0  0  0  0  0
  -29.1713  -25.6344   24.4240 C   0  0  0  0  0  0
  -28.3089  -24.5244   18.5640 C   0  0  0  0  0  0
  -29.0242  -25.4790   22.8989 C   0  0  0  0  0  0
  -28.9129  -23.7015   20.9113 C   0  0  2  0  0  0
  -28.0721  -24.8151   20.0553 C   0  0  1  0  0  0
  -29.4826  -19.8707   21.0214 N   0  0  0  0  0  0
  -28.5155  -22.2250   20.8193 N   0  0  0  0  0  0
  -29.8617  -15.9731   20.5598 N   0  0  0  0  0  0
  -31.3786  -17.4681   21.3842 O   0  0  0  0  0  0
  -28.4935  -23.1648   23.2500 O   0  0  0  0  0  0
  -28.2540  -20.3074   18.8135 S   0  0  0  0  0  0
  -31.4728  -12.6198   19.1846 H   0  0  0  0  0  0
  -30.3838  -11.5301   19.9906 H   0  0  0  0  0  0
  -29.8110  -11.7227   17.5452 H   0  0  0  0  0  0
  -29.6375  -13.4542   17.7091 H   0  0  0  0  0  0
  -27.8977  -11.2879   18.9199 H   0  0  0  0  0  0
  -27.3885  -12.5164   17.7937 H   0  0  0  0  0  0
  -27.6090  -14.2568   19.4461 H   0  0  0  0  0  0
  -28.7289  -12.2213   21.4330 H   0  0  0  0  0  0
  -28.4040  -13.9069   21.7720 H   0  0  0  0  0  0
  -25.2759   -9.5692   22.4750 H   0  0  0  0  0  0
  -24.0005   -7.4640   22.7475 H   0  0  0  0  0  0
  -21.0828   -8.8763   19.8969 H   0  0  0  0  0  0
  -22.3675  -10.9668   19.6165 H   0  0  0  0  0  0
  -21.2043   -7.6137   23.9716 H   0  0  0  0  0  0
  -21.1513   -6.0518   25.9079 H   0  0  0  0  0  0
  -22.0582   -2.7601   23.2831 H   0  0  0  0  0  0
  -22.4051  -11.9921   22.4898 H   0  0  0  0  0  0
  -21.1029  -13.1258   22.2638 H   0  0  0  0  0  0
  -24.6276  -15.8363   20.5288 H   0  0  0  0  0  0
  -26.2314  -15.6470   20.0481 H   0  0  0  0  0  0
  -26.7233  -32.5372   23.1055 H   0  0  0  0  0  0
  -25.0164  -33.9677   25.0430 H   0  0  0  0  0  0
  -22.7299  -31.3025   21.3931 H   0  0  0  0  0  0
  -23.3766  -35.9593   23.3300 H   0  0  0  0  0  0
  -24.3590  -36.8893   22.2060 H   0  0  0  0  0  0
  -23.7227  -37.6465   23.6661 H   0  0  0  0  0  0
  -26.1309  -31.5220   20.6150 H   0  0  0  0  0  0
  -26.8548  -30.7997   22.0207 H   0  0  0  0  0  0
  -28.1183  -28.8922   21.2101 H   0  0  0  0  0  0
  -25.9189  -25.9059   18.9898 H   0  0  0  0  0  0
  -23.9652  -27.3212   18.9889 H   0  0  0  0  0  0
  -23.7769  -30.5903   19.3985 H   0  0  0  0  0  0
  -22.7659  -29.2500   19.8509 H   0  0  0  0  0  0
  -25.1301  -36.1920   25.0823 H   0  0  0  0  0  0
  -21.0000  -28.3294   24.1364 H   0  0  0  0  0  0
  -20.5654  -26.2330   23.3621 H   0  0  0  0  0  0
  -21.6656  -26.7425   22.1211 H   0  0  0  0  0  0
  -19.6924  -25.6275   21.1255 H   0  0  0  0  0  0
  -19.6695  -27.3169   20.6711 H   0  0  0  0  0  0
  -17.4214  -26.6665   21.4028 H   0  0  0  0  0  0
  -18.0349  -26.0075   22.9009 H   0  0  0  0  0  0
  -19.7954  -30.7278   24.2236 H   0  0  0  0  0  0
  -17.5035  -31.6262   24.5176 H   0  0  0  0  0  0
  -15.5369  -30.2983   23.7662 H   0  0  0  0  0  0
  -15.8689  -28.0822   22.7065 H   0  0  0  0  0  0
  -24.5896  -30.7110   25.7774 H   0  0  0  0  0  0
  -24.8923  -32.2941   26.4822 H   0  0  0  0  0  0
  -25.8027  -30.8967   27.0237 H   0  0  0  0  0  0
  -26.2960  -29.6720   24.1239 H   0  0  0  0  0  0
  -27.4006  -29.7250   25.4783 H   0  0  0  0  0  0
  -27.8857  -30.4238   23.9521 H   0  0  0  0  0  0
  -27.2648  -33.3641   26.2048 H   0  0  0  0  0  0
  -28.3870  -32.6896   25.0325 H   0  0  0  0  0  0
  -28.0720  -31.8483   26.5430 H   0  0  0  0  0  0
  -28.2598  -38.0097   24.7531 H   0  0  0  0  0  0
  -28.1095  -36.2635   24.6266 H   0  0  0  0  0  0
  -27.2317  -37.1404   25.8870 H   0  0  0  0  0  0
  -20.9419  -29.8797   21.6845 H   0  0  0  0  0  0
  -26.0175  -38.2847   24.1412 H   0  0  0  0  0  0
  -28.7058  -17.8990   18.4274 H   0  0  0  0  0  0
  -29.3043  -26.6846   24.6850 H   0  0  0  0  0  0
  -30.0305  -25.0837   24.8076 H   0  0  0  0  0  0
  -28.2835  -25.2802   24.9515 H   0  0  0  0  0  0
  -28.0512  -23.4953   18.3172 H   0  0  0  0  0  0
  -29.3578  -24.6661   18.3034 H   0  0  0  0  0  0
  -27.7218  -25.1750   17.9185 H   0  0  0  0  0  0
  -28.1624  -26.0701   22.5924 H   0  0  0  0  0  0
  -29.8927  -25.8909   22.3847 H   0  0  0  0  0  0
  -29.9652  -23.7802   20.6369 H   0  0  0  0  0  0
  -27.0309  -24.6034   20.2979 H   0  0  0  0  0  0
  -28.2276  -22.0732   21.7878 H   0  0  0  0  0  0
  -28.8740  -15.8860   20.3865 H   0  0  0  0  0  0
  1 25  1  0  0  0
  1 30  2  0  0  0
  1 83  1  0  0  0
  2  3  1  0  0  0
  2 25  1  0  0  0
  2 87  1  0  0  0
  2 88  1  0  0  0
  3  4  1  0  0  0
  3 89  1  0  0  0
  3 90  1  0  0  0
  4  5  1  0  0  0
  4 91  1  0  0  0
  4 92  1  0  0  0
  5  6  1  0  0  0
  5 26  1  0  0  0
  5 93  1  0  0  0
  6 25  1  0  0  0
  6 94  1  0  0  0
  6 95  1  0  0  0
  7  8  2  0  0  0
  7 26  1  0  0  0
  7 29  1  0  0  0
  8  9  1  0  0  0
  8 22  1  0  0  0
  9 10  1  0  0  0
  9 27  2  0  0  0
 10 11  2  0  0  0
 10 15  1  0  0  0
 11 12  1  0  0  0
 11 96  1  0  0  0
 12 13  2  0  0  0
 12 97  1  0  0  0
 13 14  1  0  0  0
 13 31  1  0  0  0
 14 15  2  0  0  0
 14 98  1  0  0  0
 15 99  1  0  0  0
 16 17  2  0  0  0
 16 21  1  0  0  0
 16 31  1  0  0  0
 17 18  1  0  0  0
 17100  1  0  0  0
 18 19  2  0  0  0
 18101  1  0  0  0
 19 20  1  0  0  0
 19 24  1  0  0  0
 20 21  2  0  0  0
 20102  1  0  0  0
 21 23  1  0  0  0
 22 28  1  0  0  0
 22 32  2  0  0  0
 26 27  1  0  0  0
 28103  1  0  0  0
 28104  1  0  0  0
 29105  1  0  0  0
 29106  1  0  0  0
 33 34  1  0  0  0
 33 66  1  0  0  0
 33 70  2  0  0  0
 34 36  1  0  0  0
 34 59  1  0  0  0
 34107  1  0  0  0
 35 44  2  0  0  0
 35 45  1  0  0  0
 35 68  1  0  0  0
 36 56  1  0  0  0
 36108  1  0  0  0
 37 39  1  0  0  0
 37 47  1  0  0  0
 37 66  1  0  0  0
 37109  1  0  0  0
 38 43  2  0  0  0
 38 46  1  0  0  0
 38 47  1  0  0  0
 39 64  1  0  0  0
 39 67  2  0  0  0
 40 52  1  0  0  0
 40 53  2  0  0  0
 40 58  1  0  0  0
 41110  1  0  0  0
 41111  1  0  0  0
 41112  1  0  0  0
 41 48  1  0  0  0
 42 43  1  0  0  0
 42 66  1  0  0  0
 42113  1  0  0  0
 42114  1  0  0  0
 43 44  1  0  0  0
 44115  1  0  0  0
 45 46  2  0  0  0
 45116  1  0  0  0
 46117  1  0  0  0
 47118  1  0  0  0
 47119  1  0  0  0
 48 56  1  0  0  0
 48 65  1  0  0  0
 48120  1  0  0  0
 49 50  1  0  0  0
 49 53  1  0  0  0
 49 64  1  0  0  0
 49121  1  0  0  0
 50 51  1  0  0  0
 50122  1  0  0  0
 50123  1  0  0  0
 51 52  1  0  0  0
 51124  1  0  0  0
 51125  1  0  0  0
 52126  1  0  0  0
 52127  1  0  0  0
 53 54  1  0  0  0
 54 55  2  0  0  0
 54128  1  0  0  0
 55 57  1  0  0  0
 55129  1  0  0  0
 56 69  2  0  0  0
 57 58  2  0  0  0
 57130  1  0  0  0
 58131  1  0  0  0
 59 60  1  0  0  0
 59 61  1  0  0  0
 59 62  1  0  0  0
 60132  1  0  0  0
 60133  1  0  0  0
 60134  1  0  0  0
 61135  1  0  0  0
 61136  1  0  0  0
 61137  1  0  0  0
 62138  1  0  0  0
 62139  1  0  0  0
 62140  1  0  0  0
 63 65  1  0  0  0
 63141  1  0  0  0
 63142  1  0  0  0
 63143  1  0  0  0
 64144  1  0  0  0
 65145  1  0  0  0
 68 80  1  0  0  0
 71 72  2  0  0  0
 71 86  1  0  0  0
 71146  1  0  0  0
 72 74  1  0  0  0
 72 81  1  0  0  0
 73 81  2  0  0  0
 73 82  1  0  0  0
 73 86  1  0  0  0
 74 83  1  0  0  0
 74 84  2  0  0  0
 75 78  1  0  0  0
 75 79  1  0  0  0
 75 85  2  0  0  0
 76 78  1  0  0  0
 76147  1  0  0  0
 76148  1  0  0  0
 76149  1  0  0  0
 77150  1  0  0  0
 77151  1  0  0  0
 77152  1  0  0  0
 77 80  1  0  0  0
 78153  1  0  0  0
 78154  1  0  0  0
 79 80  1  0  0  0
 79 82  1  0  0  0
 79155  1  0  0  0
 80156  1  0  0  0
 82157  1  0  0  0
 83158  1  0  0  0
M  ISO  4   1 100  68 101  80 101  83 100
M  END
> <chiral flag>
0

> <version>
0

> <s_m_source_file>
/data/baiqing/PycharmProjects/Reinvent-master-3.2/result/LINK_invent/BTK/process_docking_weight1_custom_product_contain_oxygen_bond_distance_aromatic_linkinvent_7_9_3/rearranged_h_0188.sdf

> <i_m_source_file_index>
45

> <r_mmod_Potential_Energy-OPLS-2005>
30.6482887268066

> <r_mmod_Stretch_Energy-OPLS-2005>
139.470352172852

> <r_mmod_Bend_Energy-OPLS-2005>
197.960372924805

> <r_mmod_Torsional_Energy-OPLS-2005>
260.417877197266

> <r_mmod_Improper_Torsional_Energy-OPLS-2005>
13.4599905014038

> <r_mmod_Van_der_Waal_Energy-OPLS-2005>
124.923545837402

> <r_mmod_Electrostatic_Energy-OPLS-2005>
-568.053771972656

> <r_mmod_Solvation_Energy-OPLS-2005>
-247.123886108398

> <b_mmod_Minimization_Converged-OPLS-2005>
0

> <r_mmod_RMS_Derivative-OPLS-2005>
3.15363049507141

$$$$
46
                    3D
 Structure written by MMmdl.
157165  0  0  1  0            999 V2000
  -30.5775  -14.7758   20.4517 C   0  0  0  0  0  0
  -30.4528  -12.4812   19.4541 C   0  0  0  0  0  0
  -29.5115  -12.4984   18.2278 C   0  0  0  0  0  0
  -28.0441  -12.3032   18.6618 C   0  0  0  0  0  0
  -27.6436  -13.2188   19.8485 C   0  0  2  0  0  0
  -28.6973  -13.1678   20.9775 C   0  0  0  0  0  0
  -25.2536  -13.8162   20.5701 C   0  0  0  0  0  0
  -24.1809  -13.0417   20.9195 C   0  0  0  0  0  0
  -24.6387  -11.6894   20.8758 C   0  0  0  0  0  0
  -23.9042  -10.4284   21.0409 C   0  0  0  0  0  0
  -24.3588   -9.4199   21.9185 C   0  0  0  0  0  0
  -23.6271   -8.2235   22.0765 C   0  0  0  0  0  0
  -22.4260   -8.0273   21.3545 C   0  0  0  0  0  0
  -21.9883   -9.0244   20.4648 C   0  0  0  0  0  0
  -22.7203  -10.2128   20.3063 C   0  0  0  0  0  0
  -21.6853   -6.0717   22.5259 C   0  0  0  0  0  0
  -21.4003   -6.5624   23.8193 C   0  0  0  0  0  0
  -21.3668   -5.6775   24.9163 C   0  0  0  0  0  0
  -21.6057   -4.3041   24.7222 C   0  0  0  0  0  0
  -21.8817   -3.8127   23.4342 C   0  0  0  0  0  0
  -21.9195   -4.6940   22.3384 C   0  0  0  0  0  0
  -22.7836  -13.5229   21.1844 C   0  0  0  0  0  0
  -22.1659   -4.2125   21.0963 F   0  0  0  0  0  0
  -21.5647   -3.4530   25.7737 F   0  0  0  0  0  0
  -29.9854  -13.5364   20.3762 N   0  0  0  0  0  0
  -26.2966  -12.9335   20.3308 N   0  0  0  0  0  0
  -25.9326  -11.6490   20.5773 N   0  0  0  0  0  0
  -22.0458  -12.8243   22.0408 N   0  0  0  0  0  0
  -25.4207  -15.1881   20.4116 N   0  0  0  0  0  0
  -31.7892  -14.8970   20.2409 O   0  0  0  0  0  0
  -21.6636   -6.8863   21.4223 O   0  0  0  0  0  0
  -22.3540  -14.5539   20.6703 O   0  0  0  0  0  0
  -24.6292  -31.8532   23.2006 C   0  0  0  0  0  0
  -25.9095  -32.4756   23.8366 C   0  0  1  0  0  0
  -27.2153  -27.2412   20.1371 C   0  0  0  0  0  0
  -25.5869  -33.8545   24.2289 N   0  0  0  0  0  0
  -23.4286  -30.4777   21.5438 C   0  0  2  0  0  0
  -24.8735  -28.9208   20.1235 C   0  0  0  0  0  0
  -22.7518  -29.4574   22.4921 C   0  0  0  0  0  0
  -18.0322  -28.1397   22.8471 C   0  0  0  0  0  0
  -24.1480  -36.7285   23.2645 C   0  0  0  0  0  0
  -25.9748  -30.7692   21.3748 C   0  0  0  0  0  0
  -26.0494  -29.3824   20.7287 C   0  0  0  0  0  0
  -27.2232  -28.5568   20.7231 C   0  0  0  0  0  0
  -26.0131  -26.8579   19.4997 C   0  0  0  0  0  0
  -24.8614  -27.6655   19.5032 C   0  0  0  0  0  0
  -23.6500  -29.8158   20.1599 C   0  0  0  0  0  0
  -25.4088  -36.3053   24.0354 C   0  0  1  0  0  0
  -20.5924  -28.3693   23.1292 C   0  0  2  0  0  0
  -20.6830  -26.9402   22.5422 C   0  0  0  0  0  0
  -19.5799  -26.6379   21.5231 C   0  0  0  0  0  0
  -18.1963  -26.7935   22.1625 C   0  0  0  0  0  0
  -19.1568  -28.8862   23.2881 C   0  0  0  0  0  0
  -18.9462  -30.1473   23.8885 C   0  0  0  0  0  0
  -17.6448  -30.6591   24.0559 C   0  0  0  0  0  0
  -25.9023  -34.9426   23.5124 C   0  0  0  0  0  0
  -16.5360  -29.9081   23.6305 C   0  0  0  0  0  0
  -16.7291  -28.6521   23.0297 C   0  0  0  0  0  0
  -26.4476  -31.6563   25.0716 C   0  0  0  0  0  0
  -25.3655  -31.3717   26.1410 C   0  0  0  0  0  0
  -27.0365  -30.3007   24.6162 C   0  0  0  0  0  0
  -27.6091  -32.4258   25.7446 C   0  0  0  0  0  0
  -27.5583  -37.1755   24.8462 C   0  0  0  0  0  0
  -21.4231  -29.3032   22.3681 N   0  0  0  0  0  0
  -26.4275  -37.3740   23.9433 N   0  0  0  0  0  0
  -24.6981  -31.0528   22.0961 N   0  0  0  0  0  0
  -23.4212  -28.8067   23.2980 O   0  0  0  0  0  0
  -28.3025  -26.3292   20.1845 O   0  0  0  0  0  0
  -26.5600  -34.8873   22.4687 O   0  0  0  0  0  0
  -23.5442  -32.1351   23.7292 O   0  0  0  0  0  0
  -29.4759  -18.4118   20.0575 C   0  0  0  0  0  0
  -29.5908  -19.6835   20.7982 C   0  0  0  0  0  0
  -30.0518  -19.4430   22.0745 C   0  0  0  0  0  0
  -29.8625  -17.2344   20.7393 C   0  0  0  0  0  0
  -28.8125  -22.2046   20.7777 C   0  0  0  0  0  0
  -30.3123  -20.4125   23.1846 C   0  0  0  0  0  0
  -29.9674  -23.6515   18.9735 C   0  0  0  0  0  0
  -30.1698  -24.2311   21.4026 C   0  0  0  0  0  0
  -28.0242  -24.8377   20.1795 C   0  0  0  0  0  0
  -29.2043  -23.7150   20.3142 C   0  0  0  0  0  0
  -29.4103  -21.0624   20.2517 N   0  0  0  0  0  0
  -29.7252  -15.8743   20.4064 N   0  0  0  0  0  0
  -27.9478  -22.0874   21.6484 O   0  0  0  0  0  0
  -30.3987  -17.7288   22.3318 S   0  0  0  0  0  0
  -31.4850  -12.6461   19.1374 H   0  0  0  0  0  0
  -30.4379  -11.5075   19.9460 H   0  0  0  0  0  0
  -29.7990  -11.7177   17.5225 H   0  0  0  0  0  0
  -29.6139  -13.4456   17.6947 H   0  0  0  0  0  0
  -27.9319  -11.2580   18.9541 H   0  0  0  0  0  0
  -27.3726  -12.4558   17.8166 H   0  0  0  0  0  0
  -27.6286  -14.2339   19.4513 H   0  0  0  0  0  0
  -28.7518  -12.1730   21.4238 H   0  0  0  0  0  0
  -28.4375  -13.8551   21.7856 H   0  0  0  0  0  0
  -25.2733   -9.5689   22.4772 H   0  0  0  0  0  0
  -23.9973   -7.4638   22.7506 H   0  0  0  0  0  0
  -21.0812   -8.8763   19.8967 H   0  0  0  0  0  0
  -22.3649  -10.9672   19.6193 H   0  0  0  0  0  0
  -21.1982   -7.6133   23.9680 H   0  0  0  0  0  0
  -21.1500   -6.0517   25.9062 H   0  0  0  0  0  0
  -22.0602   -2.7594   23.2840 H   0  0  0  0  0  0
  -22.4046  -11.9891   22.4794 H   0  0  0  0  0  0
  -21.1109  -13.1325   22.2641 H   0  0  0  0  0  0
  -24.6444  -15.8324   20.5211 H   0  0  0  0  0  0
  -26.2624  -15.6408   20.0831 H   0  0  0  0  0  0
  -26.7127  -32.5432   23.1111 H   0  0  0  0  0  0
  -24.9988  -33.9713   25.0415 H   0  0  0  0  0  0
  -22.7183  -31.2953   21.3994 H   0  0  0  0  0  0
  -23.3751  -35.9600   23.3273 H   0  0  0  0  0  0
  -24.3620  -36.8931   22.2062 H   0  0  0  0  0  0
  -23.7207  -37.6472   23.6690 H   0  0  0  0  0  0
  -26.0947  -31.5176   20.5900 H   0  0  0  0  0  0
  -26.8629  -30.8439   21.9921 H   0  0  0  0  0  0
  -28.1232  -28.9057   21.2119 H   0  0  0  0  0  0
  -25.9241  -25.9134   18.9871 H   0  0  0  0  0  0
  -23.9616  -27.3122   19.0186 H   0  0  0  0  0  0
  -23.7865  -30.5990   19.4129 H   0  0  0  0  0  0
  -22.7673  -29.2582   19.8444 H   0  0  0  0  0  0
  -25.1238  -36.1944   25.0856 H   0  0  0  0  0  0
  -21.0034  -28.3295   24.1412 H   0  0  0  0  0  0
  -20.5826  -26.2258   23.3611 H   0  0  0  0  0  0
  -21.6653  -26.7466   22.1126 H   0  0  0  0  0  0
  -19.6958  -25.6295   21.1263 H   0  0  0  0  0  0
  -19.6767  -27.3183   20.6757 H   0  0  0  0  0  0
  -17.4226  -26.6679   21.4043 H   0  0  0  0  0  0
  -18.0365  -26.0093   22.9040 H   0  0  0  0  0  0
  -19.7920  -30.7306   24.2268 H   0  0  0  0  0  0
  -17.4981  -31.6269   24.5152 H   0  0  0  0  0  0
  -15.5354  -30.2966   23.7634 H   0  0  0  0  0  0
  -15.8700  -28.0873   22.6952 H   0  0  0  0  0  0
  -24.5876  -30.7025   25.7708 H   0  0  0  0  0  0
  -24.8764  -32.2874   26.4720 H   0  0  0  0  0  0
  -25.7875  -30.8947   27.0256 H   0  0  0  0  0  0
  -26.2968  -29.6715   24.1193 H   0  0  0  0  0  0
  -27.4155  -29.7278   25.4646 H   0  0  0  0  0  0
  -27.8767  -30.4384   23.9350 H   0  0  0  0  0  0
  -27.2830  -33.3642   26.1943 H   0  0  0  0  0  0
  -28.3909  -32.6666   25.0218 H   0  0  0  0  0  0
  -28.0730  -31.8386   26.5387 H   0  0  0  0  0  0
  -28.2498  -38.0133   24.7528 H   0  0  0  0  0  0
  -28.1161  -36.2646   24.6240 H   0  0  0  0  0  0
  -27.2307  -37.1320   25.8861 H   0  0  0  0  0  0
  -20.9439  -29.8746   21.6873 H   0  0  0  0  0  0
  -26.0175  -38.2805   24.1495 H   0  0  0  0  0  0
  -29.0993  -18.4104   19.0451 H   0  0  0  0  0  0
  -30.8743  -21.2751   22.8320 H   0  0  0  0  0  0
  -30.8890  -19.9531   23.9878 H   0  0  0  0  0  0
  -29.3770  -20.7697   23.6174 H   0  0  0  0  0  0
  -30.9274  -23.1411   19.0790 H   0  0  0  0  0  0
  -30.1697  -24.6509   18.5837 H   0  0  0  0  0  0
  -29.3983  -23.1252   18.2082 H   0  0  0  0  0  0
  -30.8653  -23.4566   21.7302 H   0  0  0  0  0  0
  -29.6236  -24.5730   22.2836 H   0  0  0  0  0  0
  -30.7784  -25.0652   21.0514 H   0  0  0  0  0  0
  -27.2734  -24.6412   20.9475 H   0  0  0  0  0  0
  -27.5227  -24.6028   19.2424 H   0  0  0  0  0  0
  -29.9207  -21.2385   19.3969 H   0  0  0  0  0  0
  -28.7738  -15.6026   20.2102 H   0  0  0  0  0  0
  1 25  1  0  0  0
  1 30  2  0  0  0
  1 82  1  0  0  0
  2  3  1  0  0  0
  2 25  1  0  0  0
  2 85  1  0  0  0
  2 86  1  0  0  0
  3  4  1  0  0  0
  3 87  1  0  0  0
  3 88  1  0  0  0
  4  5  1  0  0  0
  4 89  1  0  0  0
  4 90  1  0  0  0
  5  6  1  0  0  0
  5 26  1  0  0  0
  5 91  1  0  0  0
  6 25  1  0  0  0
  6 92  1  0  0  0
  6 93  1  0  0  0
  7  8  2  0  0  0
  7 26  1  0  0  0
  7 29  1  0  0  0
  8  9  1  0  0  0
  8 22  1  0  0  0
  9 10  1  0  0  0
  9 27  2  0  0  0
 10 11  2  0  0  0
 10 15  1  0  0  0
 11 12  1  0  0  0
 11 94  1  0  0  0
 12 13  2  0  0  0
 12 95  1  0  0  0
 13 14  1  0  0  0
 13 31  1  0  0  0
 14 15  2  0  0  0
 14 96  1  0  0  0
 15 97  1  0  0  0
 16 17  2  0  0  0
 16 21  1  0  0  0
 16 31  1  0  0  0
 17 18  1  0  0  0
 17 98  1  0  0  0
 18 19  2  0  0  0
 18 99  1  0  0  0
 19 20  1  0  0  0
 19 24  1  0  0  0
 20 21  2  0  0  0
 20100  1  0  0  0
 21 23  1  0  0  0
 22 28  1  0  0  0
 22 32  2  0  0  0
 26 27  1  0  0  0
 28101  1  0  0  0
 28102  1  0  0  0
 29103  1  0  0  0
 29104  1  0  0  0
 33 34  1  0  0  0
 33 66  1  0  0  0
 33 70  2  0  0  0
 34 36  1  0  0  0
 34 59  1  0  0  0
 34105  1  0  0  0
 35 44  2  0  0  0
 35 45  1  0  0  0
 35 68  1  0  0  0
 36 56  1  0  0  0
 36106  1  0  0  0
 37 39  1  0  0  0
 37 47  1  0  0  0
 37 66  1  0  0  0
 37107  1  0  0  0
 38 43  2  0  0  0
 38 46  1  0  0  0
 38 47  1  0  0  0
 39 64  1  0  0  0
 39 67  2  0  0  0
 40 52  1  0  0  0
 40 53  2  0  0  0
 40 58  1  0  0  0
 41108  1  0  0  0
 41109  1  0  0  0
 41110  1  0  0  0
 41 48  1  0  0  0
 42 43  1  0  0  0
 42 66  1  0  0  0
 42111  1  0  0  0
 42112  1  0  0  0
 43 44  1  0  0  0
 44113  1  0  0  0
 45 46  2  0  0  0
 45114  1  0  0  0
 46115  1  0  0  0
 47116  1  0  0  0
 47117  1  0  0  0
 48 56  1  0  0  0
 48 65  1  0  0  0
 48118  1  0  0  0
 49 50  1  0  0  0
 49 53  1  0  0  0
 49 64  1  0  0  0
 49119  1  0  0  0
 50 51  1  0  0  0
 50120  1  0  0  0
 50121  1  0  0  0
 51 52  1  0  0  0
 51122  1  0  0  0
 51123  1  0  0  0
 52124  1  0  0  0
 52125  1  0  0  0
 53 54  1  0  0  0
 54 55  2  0  0  0
 54126  1  0  0  0
 55 57  1  0  0  0
 55127  1  0  0  0
 56 69  2  0  0  0
 57 58  2  0  0  0
 57128  1  0  0  0
 58129  1  0  0  0
 59 60  1  0  0  0
 59 61  1  0  0  0
 59 62  1  0  0  0
 60130  1  0  0  0
 60131  1  0  0  0
 60132  1  0  0  0
 61133  1  0  0  0
 61134  1  0  0  0
 61135  1  0  0  0
 62136  1  0  0  0
 62137  1  0  0  0
 62138  1  0  0  0
 63 65  1  0  0  0
 63139  1  0  0  0
 63140  1  0  0  0
 63141  1  0  0  0
 64142  1  0  0  0
 65143  1  0  0  0
 68 79  1  0  0  0
 71 72  1  0  0  0
 71 74  2  0  0  0
 71144  1  0  0  0
 72 73  2  0  0  0
 72 81  1  0  0  0
 73 76  1  0  0  0
 73 84  1  0  0  0
 74 82  1  0  0  0
 74 84  1  0  0  0
 75 80  1  0  0  0
 75 81  1  0  0  0
 75 83  2  0  0  0
 76145  1  0  0  0
 76146  1  0  0  0
 76147  1  0  0  0
 77148  1  0  0  0
 77149  1  0  0  0
 77150  1  0  0  0
 77 80  1  0  0  0
 78 80  1  0  0  0
 78151  1  0  0  0
 78152  1  0  0  0
 78153  1  0  0  0
 79 80  1  0  0  0
 79154  1  0  0  0
 79155  1  0  0  0
 81156  1  0  0  0
 82157  1  0  0  0
M  ISO  4   1 100  68 101  79 101  82 100
M  END
> <chiral flag>
0

> <version>
0

> <s_m_source_file>
/data/baiqing/PycharmProjects/Reinvent-master-3.2/result/LINK_invent/BTK/process_docking_weight1_custom_product_contain_oxygen_bond_distance_aromatic_linkinvent_7_9_3/rearranged_h_0188.sdf

> <i_m_source_file_index>
46

> <r_mmod_Potential_Energy-OPLS-2005>
195.943435668945

> <r_mmod_Stretch_Energy-OPLS-2005>
130.328720092773

> <r_mmod_Bend_Energy-OPLS-2005>
174.968048095703

> <r_mmod_Torsional_Energy-OPLS-2005>
293.609191894531

> <r_mmod_Improper_Torsional_Energy-OPLS-2005>
10.9564275741577

> <r_mmod_Van_der_Waal_Energy-OPLS-2005>
116.372505187988

> <r_mmod_Electrostatic_Energy-OPLS-2005>
-403.071746826172

> <r_mmod_Solvation_Energy-OPLS-2005>
-230.115921020508

> <b_mmod_Minimization_Converged-OPLS-2005>
0

> <r_mmod_RMS_Derivative-OPLS-2005>
4.36768102645874

$$$$
47
                    3D
 Structure written by MMmdl.
157165  0  0  1  0            999 V2000
  -30.6266  -14.6734   20.5765 C   0  0  0  0  0  0
  -30.4416  -12.4398   19.4439 C   0  0  0  0  0  0
  -29.5058  -12.5455   18.2191 C   0  0  0  0  0  0
  -28.0293  -12.3734   18.6288 C   0  0  0  0  0  0
  -27.6565  -13.2245   19.8727 C   0  0  2  0  0  0
  -28.7045  -13.0538   20.9944 C   0  0  0  0  0  0
  -25.2573  -13.8193   20.5703 C   0  0  0  0  0  0
  -24.1839  -13.0444   20.9193 C   0  0  0  0  0  0
  -24.6418  -11.6919   20.8721 C   0  0  0  0  0  0
  -23.9083  -10.4297   21.0393 C   0  0  0  0  0  0
  -24.3625   -9.4214   21.9176 C   0  0  0  0  0  0
  -23.6301   -8.2244   22.0746 C   0  0  0  0  0  0
  -22.4289   -8.0272   21.3526 C   0  0  0  0  0  0
  -21.9924   -9.0254   20.4637 C   0  0  0  0  0  0
  -22.7252  -10.2136   20.3050 C   0  0  0  0  0  0
  -21.6859   -6.0731   22.5279 C   0  0  0  0  0  0
  -21.4010   -6.5639   23.8209 C   0  0  0  0  0  0
  -21.3662   -5.6798   24.9175 C   0  0  0  0  0  0
  -21.6051   -4.3060   24.7226 C   0  0  0  0  0  0
  -21.8821   -3.8145   23.4347 C   0  0  0  0  0  0
  -21.9200   -4.6958   22.3403 C   0  0  0  0  0  0
  -22.7865  -13.5236   21.1867 C   0  0  0  0  0  0
  -22.1669   -4.2142   21.0980 F   0  0  0  0  0  0
  -21.5637   -3.4545   25.7740 F   0  0  0  0  0  0
  -30.0092  -13.4469   20.4392 N   0  0  0  0  0  0
  -26.3015  -12.9384   20.3359 N   0  0  0  0  0  0
  -25.9354  -11.6528   20.5751 N   0  0  0  0  0  0
  -22.0519  -12.8195   22.0415 N   0  0  0  0  0  0
  -25.4297  -15.1912   20.4135 N   0  0  0  0  0  0
  -31.7271  -14.8538   20.0431 O   0  0  0  0  0  0
  -21.6644   -6.8873   21.4238 O   0  0  0  0  0  0
  -22.3536  -14.5547   20.6749 O   0  0  0  0  0  0
  -24.6289  -31.8577   23.2003 C   0  0  0  0  0  0
  -25.9129  -32.4767   23.8341 C   0  0  1  0  0  0
  -27.2264  -27.2990   20.1152 C   0  0  0  0  0  0
  -25.5951  -33.8569   24.2274 N   0  0  0  0  0  0
  -23.4229  -30.4807   21.5431 C   0  0  2  0  0  0
  -24.8707  -28.9336   20.1069 C   0  0  0  0  0  0
  -22.7498  -29.4611   22.4928 C   0  0  0  0  0  0
  -18.0295  -28.1375   22.8492 C   0  0  0  0  0  0
  -24.1490  -36.7286   23.2637 C   0  0  0  0  0  0
  -25.9655  -30.7817   21.3736 C   0  0  0  0  0  0
  -26.0395  -29.4067   20.7163 C   0  0  0  0  0  0
  -27.2178  -28.5999   20.7135 C   0  0  0  0  0  0
  -26.0382  -26.8926   19.4640 C   0  0  0  0  0  0
  -24.8737  -27.6834   19.4703 C   0  0  0  0  0  0
  -23.6377  -29.8136   20.1588 C   0  0  0  0  0  0
  -25.4117  -36.3082   24.0330 C   0  0  1  0  0  0
  -20.5898  -28.3681   23.1284 C   0  0  2  0  0  0
  -20.6776  -26.9399   22.5416 C   0  0  0  0  0  0
  -19.5748  -26.6376   21.5218 C   0  0  0  0  0  0
  -18.1929  -26.7920   22.1633 C   0  0  0  0  0  0
  -19.1549  -28.8844   23.2879 C   0  0  0  0  0  0
  -18.9466  -30.1451   23.8883 C   0  0  0  0  0  0
  -17.6463  -30.6575   24.0556 C   0  0  0  0  0  0
  -25.9062  -34.9452   23.5102 C   0  0  0  0  0  0
  -16.5352  -29.9067   23.6330 C   0  0  0  0  0  0
  -16.7283  -28.6489   23.0341 C   0  0  0  0  0  0
  -26.4513  -31.6570   25.0706 C   0  0  0  0  0  0
  -25.3757  -31.3689   26.1433 C   0  0  0  0  0  0
  -27.0356  -30.2998   24.6150 C   0  0  0  0  0  0
  -27.6066  -32.4304   25.7488 C   0  0  0  0  0  0
  -27.5581  -37.1800   24.8467 C   0  0  0  0  0  0
  -21.4208  -29.3032   22.3676 N   0  0  0  0  0  0
  -26.4290  -37.3778   23.9414 N   0  0  0  0  0  0
  -24.6913  -31.0571   22.0963 N   0  0  0  0  0  0
  -23.4218  -28.8154   23.3015 O   0  0  0  0  0  0
  -28.3392  -26.4372   20.1911 O   0  0  0  0  0  0
  -26.5617  -34.8924   22.4661 O   0  0  0  0  0  0
  -23.5453  -32.1381   23.7319 O   0  0  0  0  0  0
  -30.6339  -17.9889   19.8393 C   0  0  0  0  0  0
  -29.9430  -17.3575   20.8612 C   0  0  0  0  0  0
  -29.5270  -19.9032   20.5839 C   0  0  0  0  0  0
  -29.2226  -22.4246   19.9786 C   0  0  0  0  0  0
  -30.6037  -24.4693   20.5664 C   0  0  0  0  0  0
  -29.8874  -16.5163   23.9796 C   0  0  0  0  0  0
  -28.1875  -24.9804   19.8921 C   0  0  0  0  0  0
  -29.9844  -15.8788   21.4192 C   0  0  2  0  0  0
  -29.1708  -23.9086   20.5735 C   0  0  1  0  0  0
  -30.6316  -15.8079   22.8363 C   0  0  1  0  0  0
  -30.4000  -19.3920   19.6951 N   0  0  0  0  0  0
  -29.2587  -21.3318   20.8136 N   0  0  0  0  0  0
  -29.2414  -22.2909   18.7525 O   0  0  0  0  0  0
  -31.8840  -16.2701   22.8078 F   0  0  0  0  0  0
  -28.8903  -18.5902   21.6094 S   0  0  0  0  0  0
  -31.4779  -12.5823   19.1339 H   0  0  0  0  0  0
  -30.3989  -11.4384   19.8753 H   0  0  0  0  0  0
  -29.7788  -11.8026   17.4684 H   0  0  0  0  0  0
  -29.6387  -13.5201   17.7445 H   0  0  0  0  0  0
  -27.8631  -11.3168   18.8377 H   0  0  0  0  0  0
  -27.3750  -12.6242   17.7927 H   0  0  0  0  0  0
  -27.6824  -14.2675   19.5543 H   0  0  0  0  0  0
  -28.7376  -12.0131   21.3221 H   0  0  0  0  0  0
  -28.4314  -13.6145   21.8863 H   0  0  0  0  0  0
  -25.2775   -9.5689   22.4746 H   0  0  0  0  0  0
  -24.0011   -7.4644   22.7470 H   0  0  0  0  0  0
  -21.0863   -8.8779   19.8942 H   0  0  0  0  0  0
  -22.3716  -10.9669   19.6152 H   0  0  0  0  0  0
  -21.1982   -7.6146   23.9701 H   0  0  0  0  0  0
  -21.1493   -6.0532   25.9080 H   0  0  0  0  0  0
  -22.0598   -2.7605   23.2854 H   0  0  0  0  0  0
  -22.4172  -11.9843   22.4743 H   0  0  0  0  0  0
  -21.1127  -13.1180   22.2640 H   0  0  0  0  0  0
  -24.6670  -15.8509   20.5218 H   0  0  0  0  0  0
  -26.2891  -15.6270   20.1034 H   0  0  0  0  0  0
  -26.7190  -32.5431   23.1082 H   0  0  0  0  0  0
  -25.0135  -33.9708   25.0445 H   0  0  0  0  0  0
  -22.7178  -31.3016   21.3982 H   0  0  0  0  0  0
  -23.3767  -35.9604   23.3288 H   0  0  0  0  0  0
  -24.3583  -36.8919   22.2054 H   0  0  0  0  0  0
  -23.7229  -37.6479   23.6667 H   0  0  0  0  0  0
  -26.0987  -31.5436   20.6042 H   0  0  0  0  0  0
  -26.8463  -30.8318   22.0023 H   0  0  0  0  0  0
  -28.1134  -28.9563   21.2027 H   0  0  0  0  0  0
  -25.9767  -25.9464   18.9477 H   0  0  0  0  0  0
  -23.9817  -27.3188   18.9793 H   0  0  0  0  0  0
  -23.7544  -30.5876   19.4004 H   0  0  0  0  0  0
  -22.7576  -29.2422   19.8580 H   0  0  0  0  0  0
  -25.1290  -36.1930   25.0821 H   0  0  0  0  0  0
  -20.9991  -28.3248   24.1401 H   0  0  0  0  0  0
  -20.5672  -26.2285   23.3617 H   0  0  0  0  0  0
  -21.6641  -26.7412   22.1204 H   0  0  0  0  0  0
  -19.6900  -25.6288   21.1235 H   0  0  0  0  0  0
  -19.6674  -27.3193   20.6753 H   0  0  0  0  0  0
  -17.4198  -26.6679   21.4031 H   0  0  0  0  0  0
  -18.0310  -26.0054   22.9023 H   0  0  0  0  0  0
  -19.7939  -30.7280   24.2234 H   0  0  0  0  0  0
  -17.5008  -31.6252   24.5163 H   0  0  0  0  0  0
  -15.5346  -30.2949   23.7665 H   0  0  0  0  0  0
  -15.8690  -28.0805   22.7039 H   0  0  0  0  0  0
  -24.5948  -30.7009   25.7775 H   0  0  0  0  0  0
  -24.8924  -32.2835   26.4876 H   0  0  0  0  0  0
  -25.8103  -30.8874   27.0200 H   0  0  0  0  0  0
  -26.2911  -29.6744   24.1204 H   0  0  0  0  0  0
  -27.4093  -29.7259   25.4640 H   0  0  0  0  0  0
  -27.8773  -30.4290   23.9341 H   0  0  0  0  0  0
  -27.2674  -33.3612   26.2051 H   0  0  0  0  0  0
  -28.3900  -32.6846   25.0332 H   0  0  0  0  0  0
  -28.0708  -31.8429   26.5424 H   0  0  0  0  0  0
  -28.2593  -38.0103   24.7532 H   0  0  0  0  0  0
  -28.1086  -36.2638   24.6275 H   0  0  0  0  0  0
  -27.2301  -37.1421   25.8869 H   0  0  0  0  0  0
  -20.9390  -29.8769   21.6897 H   0  0  0  0  0  0
  -26.0177  -38.2855   24.1412 H   0  0  0  0  0  0
  -31.3524  -17.5241   19.1785 H   0  0  0  0  0  0
  -31.3036  -23.7933   21.0580 H   0  0  0  0  0  0
  -30.6532  -25.4238   21.0910 H   0  0  0  0  0  0
  -30.9585  -24.6330   19.5484 H   0  0  0  0  0  0
  -28.8282  -16.2585   23.9887 H   0  0  0  0  0  0
  -29.9811  -17.5990   23.9213 H   0  0  0  0  0  0
  -30.3060  -16.2215   24.9423 H   0  0  0  0  0  0
  -27.1862  -24.6585   20.1788 H   0  0  0  0  0  0
  -28.2417  -24.8728   18.8077 H   0  0  0  0  0  0
  -28.9362  -15.6259   21.5463 H   0  0  0  0  0  0
  -28.8666  -23.8189   21.6168 H   0  0  0  0  0  0
  -30.7243  -14.7605   23.1299 H   0  0  0  0  0  0
  -29.0809  -21.5543   21.7820 H   0  0  0  0  0  0
  1 25  1  0  0  0
  1 30  2  0  0  0
  1 78  1  0  0  0
  2  3  1  0  0  0
  2 25  1  0  0  0
  2 86  1  0  0  0
  2 87  1  0  0  0
  3  4  1  0  0  0
  3 88  1  0  0  0
  3 89  1  0  0  0
  4  5  1  0  0  0
  4 90  1  0  0  0
  4 91  1  0  0  0
  5  6  1  0  0  0
  5 26  1  0  0  0
  5 92  1  0  0  0
  6 25  1  0  0  0
  6 93  1  0  0  0
  6 94  1  0  0  0
  7  8  2  0  0  0
  7 26  1  0  0  0
  7 29  1  0  0  0
  8  9  1  0  0  0
  8 22  1  0  0  0
  9 10  1  0  0  0
  9 27  2  0  0  0
 10 11  2  0  0  0
 10 15  1  0  0  0
 11 12  1  0  0  0
 11 95  1  0  0  0
 12 13  2  0  0  0
 12 96  1  0  0  0
 13 14  1  0  0  0
 13 31  1  0  0  0
 14 15  2  0  0  0
 14 97  1  0  0  0
 15 98  1  0  0  0
 16 17  2  0  0  0
 16 21  1  0  0  0
 16 31  1  0  0  0
 17 18  1  0  0  0
 17 99  1  0  0  0
 18 19  2  0  0  0
 18100  1  0  0  0
 19 20  1  0  0  0
 19 24  1  0  0  0
 20 21  2  0  0  0
 20101  1  0  0  0
 21 23  1  0  0  0
 22 28  1  0  0  0
 22 32  2  0  0  0
 26 27  1  0  0  0
 28102  1  0  0  0
 28103  1  0  0  0
 29104  1  0  0  0
 29105  1  0  0  0
 33 34  1  0  0  0
 33 66  1  0  0  0
 33 70  2  0  0  0
 34 36  1  0  0  0
 34 59  1  0  0  0
 34106  1  0  0  0
 35 44  2  0  0  0
 35 45  1  0  0  0
 35 68  1  0  0  0
 36 56  1  0  0  0
 36107  1  0  0  0
 37 39  1  0  0  0
 37 47  1  0  0  0
 37 66  1  0  0  0
 37108  1  0  0  0
 38 43  2  0  0  0
 38 46  1  0  0  0
 38 47  1  0  0  0
 39 64  1  0  0  0
 39 67  2  0  0  0
 40 52  1  0  0  0
 40 53  2  0  0  0
 40 58  1  0  0  0
 41109  1  0  0  0
 41110  1  0  0  0
 41111  1  0  0  0
 41 48  1  0  0  0
 42 43  1  0  0  0
 42 66  1  0  0  0
 42112  1  0  0  0
 42113  1  0  0  0
 43 44  1  0  0  0
 44114  1  0  0  0
 45 46  2  0  0  0
 45115  1  0  0  0
 46116  1  0  0  0
 47117  1  0  0  0
 47118  1  0  0  0
 48 56  1  0  0  0
 48 65  1  0  0  0
 48119  1  0  0  0
 49 50  1  0  0  0
 49 53  1  0  0  0
 49 64  1  0  0  0
 49120  1  0  0  0
 50 51  1  0  0  0
 50121  1  0  0  0
 50122  1  0  0  0
 51 52  1  0  0  0
 51123  1  0  0  0
 51124  1  0  0  0
 52125  1  0  0  0
 52126  1  0  0  0
 53 54  1  0  0  0
 54 55  2  0  0  0
 54127  1  0  0  0
 55 57  1  0  0  0
 55128  1  0  0  0
 56 69  2  0  0  0
 57 58  2  0  0  0
 57129  1  0  0  0
 58130  1  0  0  0
 59 60  1  0  0  0
 59 61  1  0  0  0
 59 62  1  0  0  0
 60131  1  0  0  0
 60132  1  0  0  0
 60133  1  0  0  0
 61134  1  0  0  0
 61135  1  0  0  0
 61136  1  0  0  0
 62137  1  0  0  0
 62138  1  0  0  0
 62139  1  0  0  0
 63 65  1  0  0  0
 63140  1  0  0  0
 63141  1  0  0  0
 63142  1  0  0  0
 64143  1  0  0  0
 65144  1  0  0  0
 68 77  1  0  0  0
 71 72  2  0  0  0
 71 81  1  0  0  0
 71145  1  0  0  0
 72 78  1  0  0  0
 72 85  1  0  0  0
 73 81  2  0  0  0
 73 82  1  0  0  0
 73 85  1  0  0  0
 74 79  1  0  0  0
 74 82  1  0  0  0
 74 83  2  0  0  0
 75146  1  0  0  0
 75147  1  0  0  0
 75148  1  0  0  0
 75 79  1  0  0  0
 76149  1  0  0  0
 76150  1  0  0  0
 76151  1  0  0  0
 76 80  1  0  0  0
 77 79  1  0  0  0
 77152  1  0  0  0
 77153  1  0  0  0
 78 80  1  0  0  0
 78154  1  0  0  0
 79155  1  0  0  0
 80 84  1  0  0  0
 80156  1  0  0  0
 82157  1  0  0  0
M  ISO  4   1 100  68 101  77 101  78 100
M  END
> <chiral flag>
0

> <version>
0

> <s_m_source_file>
/data/baiqing/PycharmProjects/Reinvent-master-3.2/result/LINK_invent/BTK/process_docking_weight1_custom_product_contain_oxygen_bond_distance_aromatic_linkinvent_7_9_3/rearranged_h_0188.sdf

> <i_m_source_file_index>
47

> <r_mmod_Potential_Energy-OPLS-2005>
45.6408081054688

> <r_mmod_Stretch_Energy-OPLS-2005>
101.751037597656

> <r_mmod_Bend_Energy-OPLS-2005>
164.654022216797

> <r_mmod_Torsional_Energy-OPLS-2005>
181.218475341797

> <r_mmod_Improper_Torsional_Energy-OPLS-2005>
2.31281590461731

> <r_mmod_Van_der_Waal_Energy-OPLS-2005>
121.352691650391

> <r_mmod_Electrostatic_Energy-OPLS-2005>
-345.683746337891

> <r_mmod_Solvation_Energy-OPLS-2005>
-237.39714050293

> <b_mmod_Minimization_Converged-OPLS-2005>
0

> <r_mmod_RMS_Derivative-OPLS-2005>
1.64588403701782

$$$$
48
                    3D
 Structure written by MMmdl.
155163  0  0  1  0            999 V2000
  -30.6013  -14.6134   20.4722 C   0  0  0  0  0  0
  -30.4470  -12.3631   19.4490 C   0  0  0  0  0  0
  -29.5141  -12.5024   18.2231 C   0  0  0  0  0  0
  -28.0332  -12.3411   18.6277 C   0  0  0  0  0  0
  -27.6556  -13.2046   19.8600 C   0  0  2  0  0  0
  -28.7004  -13.0391   20.9853 C   0  0  0  0  0  0
  -25.2589  -13.8124   20.5705 C   0  0  0  0  0  0
  -24.1833  -13.0404   20.9196 C   0  0  0  0  0  0
  -24.6390  -11.6878   20.8731 C   0  0  0  0  0  0
  -23.9051  -10.4275   21.0401 C   0  0  0  0  0  0
  -24.3606   -9.4199   21.9181 C   0  0  0  0  0  0
  -23.6282   -8.2236   22.0756 C   0  0  0  0  0  0
  -22.4262   -8.0273   21.3545 C   0  0  0  0  0  0
  -21.9895   -9.0247   20.4649 C   0  0  0  0  0  0
  -22.7225  -10.2125   20.3053 C   0  0  0  0  0  0
  -21.6846   -6.0730   22.5278 C   0  0  0  0  0  0
  -21.4014   -6.5637   23.8213 C   0  0  0  0  0  0
  -21.3656   -5.6790   24.9175 C   0  0  0  0  0  0
  -21.6043   -4.3052   24.7226 C   0  0  0  0  0  0
  -21.8819   -3.8146   23.4347 C   0  0  0  0  0  0
  -21.9196   -4.6961   22.3404 C   0  0  0  0  0  0
  -22.7861  -13.5221   21.1857 C   0  0  0  0  0  0
  -22.1660   -4.2146   21.0980 F   0  0  0  0  0  0
  -21.5629   -3.4537   25.7740 F   0  0  0  0  0  0
  -30.0287  -13.3705   20.4397 N   0  0  0  0  0  0
  -26.3001  -12.9284   20.3303 N   0  0  0  0  0  0
  -25.9305  -11.6448   20.5720 N   0  0  0  0  0  0
  -22.0499  -12.8219   22.0418 N   0  0  0  0  0  0
  -25.4298  -15.1829   20.4189 N   0  0  0  0  0  0
  -31.7821  -14.7694   20.1501 O   0  0  0  0  0  0
  -21.6626   -6.8867   21.4237 O   0  0  0  0  0  0
  -22.3538  -14.5521   20.6699 O   0  0  0  0  0  0
  -24.6232  -31.8622   23.2038 C   0  0  0  0  0  0
  -25.9100  -32.4784   23.8357 C   0  0  1  0  0  0
  -27.2339  -27.3593   20.1061 C   0  0  0  0  0  0
  -25.5931  -33.8585   24.2279 N   0  0  0  0  0  0
  -23.4145  -30.4857   21.5462 C   0  0  2  0  0  0
  -24.8588  -28.9389   20.1169 C   0  0  0  0  0  0
  -22.7457  -29.4644   22.4956 C   0  0  0  0  0  0
  -18.0287  -28.1386   22.8488 C   0  0  0  0  0  0
  -24.1484  -36.7303   23.2633 C   0  0  0  0  0  0
  -25.9514  -30.8034   21.3684 C   0  0  0  0  0  0
  -26.0259  -29.4329   20.7132 C   0  0  0  0  0  0
  -27.2157  -28.6548   20.6971 C   0  0  0  0  0  0
  -26.0413  -26.9030   19.4983 C   0  0  0  0  0  0
  -24.8648  -27.6755   19.5046 C   0  0  0  0  0  0
  -23.6266  -29.8167   20.1627 C   0  0  0  0  0  0
  -25.4108  -36.3079   24.0317 C   0  0  1  0  0  0
  -20.5886  -28.3684   23.1289 C   0  0  2  0  0  0
  -20.6775  -26.9415   22.5408 C   0  0  0  0  0  0
  -19.5749  -26.6392   21.5207 C   0  0  0  0  0  0
  -18.1932  -26.7933   22.1623 C   0  0  0  0  0  0
  -19.1539  -28.8847   23.2889 C   0  0  0  0  0  0
  -18.9460  -30.1454   23.8898 C   0  0  0  0  0  0
  -17.6460  -30.6586   24.0566 C   0  0  0  0  0  0
  -25.9048  -34.9452   23.5092 C   0  0  0  0  0  0
  -16.5353  -29.9088   23.6332 C   0  0  0  0  0  0
  -16.7278  -28.6509   23.0352 C   0  0  0  0  0  0
  -26.4490  -31.6592   25.0723 C   0  0  0  0  0  0
  -25.3737  -31.3732   26.1464 C   0  0  0  0  0  0
  -27.0317  -30.3016   24.6158 C   0  0  0  0  0  0
  -27.6051  -32.4321   25.7497 C   0  0  0  0  0  0
  -27.5577  -37.1804   24.8463 C   0  0  0  0  0  0
  -21.4176  -29.3041   22.3686 N   0  0  0  0  0  0
  -26.4288  -37.3776   23.9403 N   0  0  0  0  0  0
  -24.6816  -31.0672   22.0964 N   0  0  0  0  0  0
  -23.4197  -28.8208   23.3041 O   0  0  0  0  0  0
  -28.3882  -26.5732   20.1130 O   0  0  0  0  0  0
  -26.5618  -34.8920   22.4660 O   0  0  0  0  0  0
  -23.5408  -32.1412   23.7393 O   0  0  0  0  0  0
  -28.7696  -17.7613   19.7464 C   0  0  0  0  0  0
  -28.6574  -19.1723   19.6478 C   0  0  0  0  0  0
  -26.8035  -17.8962   18.5762 C   0  0  0  0  0  0
  -29.8832  -16.8680   20.2562 C   0  0  0  0  0  0
  -29.5987  -24.3241   20.1748 C   0  0  0  0  0  0
  -28.9844  -21.6928   19.8106 C   0  0  0  0  0  0
  -28.2466  -25.1178   20.2326 C   0  0  0  0  0  0
  -29.6678  -22.8149   20.6554 C   0  0  1  0  0  0
  -27.6693  -17.0959   19.1690 N   0  0  0  0  0  0
  -29.6507  -15.6418   20.6207 N   0  0  0  0  0  0
  -25.6726  -17.4549   17.9209 N   0  0  0  0  0  0
  -29.4055  -20.2894   20.1442 N   0  0  0  0  0  0
  -31.0199  -22.4087   20.6084 O   0  0  0  0  0  0
  -27.2176  -19.5797   18.7075 S   0  0  0  0  0  0
  -31.4880  -12.4875   19.1473 H   0  0  0  0  0  0
  -30.3752  -11.3622   19.8774 H   0  0  0  0  0  0
  -29.7752  -11.7622   17.4655 H   0  0  0  0  0  0
  -29.6608  -13.4782   17.7594 H   0  0  0  0  0  0
  -27.8641  -11.2873   18.8522 H   0  0  0  0  0  0
  -27.3823  -12.5805   17.7863 H   0  0  0  0  0  0
  -27.6742  -14.2404   19.5259 H   0  0  0  0  0  0
  -28.6974  -12.0158   21.3627 H   0  0  0  0  0  0
  -28.4518  -13.6712   21.8392 H   0  0  0  0  0  0
  -25.2752   -9.5675   22.4751 H   0  0  0  0  0  0
  -23.9992   -7.4625   22.7475 H   0  0  0  0  0  0
  -21.0825   -8.8762   19.8955 H   0  0  0  0  0  0
  -22.3682  -10.9662   19.6161 H   0  0  0  0  0  0
  -21.2001   -7.6145   23.9715 H   0  0  0  0  0  0
  -21.1478   -6.0520   25.9078 H   0  0  0  0  0  0
  -22.0603   -2.7607   23.2850 H   0  0  0  0  0  0
  -22.4113  -11.9876   22.4800 H   0  0  0  0  0  0
  -21.1125  -13.1259   22.2634 H   0  0  0  0  0  0
  -24.6560  -15.8342   20.4829 H   0  0  0  0  0  0
  -26.2790  -15.6196   20.0687 H   0  0  0  0  0  0
  -26.7177  -32.5454   23.1121 H   0  0  0  0  0  0
  -25.0077  -33.9726   25.0422 H   0  0  0  0  0  0
  -22.7055  -31.3031   21.4040 H   0  0  0  0  0  0
  -23.3729  -35.9652   23.3298 H   0  0  0  0  0  0
  -24.3580  -36.8935   22.2051 H   0  0  0  0  0  0
  -23.7261  -37.6513   23.6662 H   0  0  0  0  0  0
  -26.0777  -31.5650   20.5978 H   0  0  0  0  0  0
  -26.8348  -30.8536   21.9927 H   0  0  0  0  0  0
  -28.1159  -29.0360   21.1591 H   0  0  0  0  0  0
  -25.9957  -25.9482   18.9979 H   0  0  0  0  0  0
  -23.9717  -27.2861   19.0350 H   0  0  0  0  0  0
  -23.7443  -30.5905   19.4031 H   0  0  0  0  0  0
  -22.7464  -29.2441   19.8644 H   0  0  0  0  0  0
  -25.1288  -36.1924   25.0810 H   0  0  0  0  0  0
  -20.9978  -28.3256   24.1411 H   0  0  0  0  0  0
  -20.5674  -26.2296   23.3606 H   0  0  0  0  0  0
  -21.6647  -26.7449   22.1200 H   0  0  0  0  0  0
  -19.6907  -25.6300   21.1237 H   0  0  0  0  0  0
  -19.6682  -27.3195   20.6726 H   0  0  0  0  0  0
  -17.4203  -26.6677   21.4032 H   0  0  0  0  0  0
  -18.0337  -26.0080   22.9022 H   0  0  0  0  0  0
  -19.7933  -30.7273   24.2268 H   0  0  0  0  0  0
  -17.5015  -31.6265   24.5169 H   0  0  0  0  0  0
  -15.5356  -30.2987   23.7646 H   0  0  0  0  0  0
  -15.8686  -28.0825   22.7059 H   0  0  0  0  0  0
  -24.5900  -30.7089   25.7813 H   0  0  0  0  0  0
  -24.8940  -32.2899   26.4900 H   0  0  0  0  0  0
  -25.8083  -30.8916   27.0234 H   0  0  0  0  0  0
  -26.2877  -29.6786   24.1183 H   0  0  0  0  0  0
  -27.4024  -29.7255   25.4647 H   0  0  0  0  0  0
  -27.8746  -30.4300   23.9360 H   0  0  0  0  0  0
  -27.2658  -33.3620   26.2074 H   0  0  0  0  0  0
  -28.3870  -32.6895   25.0339 H   0  0  0  0  0  0
  -28.0709  -31.8452   26.5426 H   0  0  0  0  0  0
  -28.2589  -38.0103   24.7503 H   0  0  0  0  0  0
  -28.1081  -36.2637   24.6291 H   0  0  0  0  0  0
  -27.2305  -37.1463   25.8871 H   0  0  0  0  0  0
  -20.9344  -29.8768   21.6907 H   0  0  0  0  0  0
  -26.0162  -38.2850   24.1406 H   0  0  0  0  0  0
  -30.8966  -17.2770   20.2108 H   0  0  0  0  0  0
  -30.3010  -24.8813   20.7958 H   0  0  0  0  0  0
  -29.9991  -24.4002   19.1623 H   0  0  0  0  0  0
  -29.1860  -21.8698   18.7513 H   0  0  0  0  0  0
  -27.9074  -21.8146   19.9424 H   0  0  0  0  0  0
  -27.7452  -24.9017   21.1771 H   0  0  0  0  0  0
  -27.6162  -24.7131   19.4429 H   0  0  0  0  0  0
  -29.3230  -22.7488   21.6888 H   0  0  0  0  0  0
  -25.6042  -16.4730   17.6812 H   0  0  0  0  0  0
  -25.2313  -18.0766   17.2531 H   0  0  0  0  0  0
  -29.8181  -20.1571   21.0667 H   0  0  0  0  0  0
  -30.9751  -21.5046   20.2929 H   0  0  0  0  0  0
  1 25  1  0  0  0
  1 30  2  0  0  0
  1 80  1  0  0  0
  2  3  1  0  0  0
  2 25  1  0  0  0
  2 85  1  0  0  0
  2 86  1  0  0  0
  3  4  1  0  0  0
  3 87  1  0  0  0
  3 88  1  0  0  0
  4  5  1  0  0  0
  4 89  1  0  0  0
  4 90  1  0  0  0
  5  6  1  0  0  0
  5 26  1  0  0  0
  5 91  1  0  0  0
  6 25  1  0  0  0
  6 92  1  0  0  0
  6 93  1  0  0  0
  7  8  2  0  0  0
  7 26  1  0  0  0
  7 29  1  0  0  0
  8  9  1  0  0  0
  8 22  1  0  0  0
  9 10  1  0  0  0
  9 27  2  0  0  0
 10 11  2  0  0  0
 10 15  1  0  0  0
 11 12  1  0  0  0
 11 94  1  0  0  0
 12 13  2  0  0  0
 12 95  1  0  0  0
 13 14  1  0  0  0
 13 31  1  0  0  0
 14 15  2  0  0  0
 14 96  1  0  0  0
 15 97  1  0  0  0
 16 17  2  0  0  0
 16 21  1  0  0  0
 16 31  1  0  0  0
 17 18  1  0  0  0
 17 98  1  0  0  0
 18 19  2  0  0  0
 18 99  1  0  0  0
 19 20  1  0  0  0
 19 24  1  0  0  0
 20 21  2  0  0  0
 20100  1  0  0  0
 21 23  1  0  0  0
 22 28  1  0  0  0
 22 32  2  0  0  0
 26 27  1  0  0  0
 28101  1  0  0  0
 28102  1  0  0  0
 29103  1  0  0  0
 29104  1  0  0  0
 33 34  1  0  0  0
 33 66  1  0  0  0
 33 70  2  0  0  0
 34 36  1  0  0  0
 34 59  1  0  0  0
 34105  1  0  0  0
 35 44  2  0  0  0
 35 45  1  0  0  0
 35 68  1  0  0  0
 36 56  1  0  0  0
 36106  1  0  0  0
 37 39  1  0  0  0
 37 47  1  0  0  0
 37 66  1  0  0  0
 37107  1  0  0  0
 38 43  2  0  0  0
 38 46  1  0  0  0
 38 47  1  0  0  0
 39 64  1  0  0  0
 39 67  2  0  0  0
 40 52  1  0  0  0
 40 53  2  0  0  0
 40 58  1  0  0  0
 41108  1  0  0  0
 41109  1  0  0  0
 41110  1  0  0  0
 41 48  1  0  0  0
 42 43  1  0  0  0
 42 66  1  0  0  0
 42111  1  0  0  0
 42112  1  0  0  0
 43 44  1  0  0  0
 44113  1  0  0  0
 45 46  2  0  0  0
 45114  1  0  0  0
 46115  1  0  0  0
 47116  1  0  0  0
 47117  1  0  0  0
 48 56  1  0  0  0
 48 65  1  0  0  0
 48118  1  0  0  0
 49 50  1  0  0  0
 49 53  1  0  0  0
 49 64  1  0  0  0
 49119  1  0  0  0
 50 51  1  0  0  0
 50120  1  0  0  0
 50121  1  0  0  0
 51 52  1  0  0  0
 51122  1  0  0  0
 51123  1  0  0  0
 52124  1  0  0  0
 52125  1  0  0  0
 53 54  1  0  0  0
 54 55  2  0  0  0
 54126  1  0  0  0
 55 57  1  0  0  0
 55127  1  0  0  0
 56 69  2  0  0  0
 57 58  2  0  0  0
 57128  1  0  0  0
 58129  1  0  0  0
 59 60  1  0  0  0
 59 61  1  0  0  0
 59 62  1  0  0  0
 60130  1  0  0  0
 60131  1  0  0  0
 60132  1  0  0  0
 61133  1  0  0  0
 61134  1  0  0  0
 61135  1  0  0  0
 62136  1  0  0  0
 62137  1  0  0  0
 62138  1  0  0  0
 63 65  1  0  0  0
 63139  1  0  0  0
 63140  1  0  0  0
 63141  1  0  0  0
 64142  1  0  0  0
 65143  1  0  0  0
 68 77  1  0  0  0
 71 72  2  0  0  0
 71 74  1  0  0  0
 71 79  1  0  0  0
 72 82  1  0  0  0
 72 84  1  0  0  0
 73 79  2  0  0  0
 73 81  1  0  0  0
 73 84  1  0  0  0
 74 80  2  0  0  0
 74144  1  0  0  0
 75 77  1  0  0  0
 75 78  1  0  0  0
 75145  1  0  0  0
 75146  1  0  0  0
 76 78  1  0  0  0
 76 82  1  0  0  0
 76147  1  0  0  0
 76148  1  0  0  0
 77149  1  0  0  0
 77150  1  0  0  0
 78 83  1  0  0  0
 78151  1  0  0  0
 81152  1  0  0  0
 81153  1  0  0  0
 82154  1  0  0  0
 83155  1  0  0  0
M  ISO  4   1 100  68 101  77 101  80 100
M  END
> <chiral flag>
0

> <version>
0

> <s_m_source_file>
/data/baiqing/PycharmProjects/Reinvent-master-3.2/result/LINK_invent/BTK/process_docking_weight1_custom_product_contain_oxygen_bond_distance_aromatic_linkinvent_7_9_3/rearranged_h_0188.sdf

> <i_m_source_file_index>
48

> <r_mmod_Potential_Energy-OPLS-2005>
45.2008018493652

> <r_mmod_Stretch_Energy-OPLS-2005>
71.4466094970703

> <r_mmod_Bend_Energy-OPLS-2005>
151.638793945312

> <r_mmod_Torsional_Energy-OPLS-2005>
236.285049438477

> <r_mmod_Improper_Torsional_Energy-OPLS-2005>
13.6278114318848

> <r_mmod_Van_der_Waal_Energy-OPLS-2005>
138.596389770508

> <r_mmod_Electrostatic_Energy-OPLS-2005>
-381.379791259766

> <r_mmod_Solvation_Energy-OPLS-2005>
-221.161956787109

> <b_mmod_Minimization_Converged-OPLS-2005>
0

> <r_mmod_RMS_Derivative-OPLS-2005>
1.73955488204956

$$$$
49
                    3D
 Structure written by MMmdl.
159167  0  0  1  0            999 V2000
  -30.6379  -14.7468   20.4250 C   0  0  0  0  0  0
  -30.4403  -12.4646   19.4226 C   0  0  0  0  0  0
  -29.4851  -12.4894   18.2060 C   0  0  0  0  0  0
  -28.0222  -12.3059   18.6523 C   0  0  0  0  0  0
  -27.6434  -13.2229   19.8452 C   0  0  2  0  0  0
  -28.7066  -13.1828   20.9649 C   0  0  0  0  0  0
  -25.2563  -13.8207   20.5766 C   0  0  0  0  0  0
  -24.1813  -13.0454   20.9265 C   0  0  0  0  0  0
  -24.6397  -11.6937   20.8817 C   0  0  0  0  0  0
  -23.9070  -10.4320   21.0440 C   0  0  0  0  0  0
  -24.3620   -9.4224   21.9227 C   0  0  0  0  0  0
  -23.6292   -8.2258   22.0770 C   0  0  0  0  0  0
  -22.4297   -8.0292   21.3544 C   0  0  0  0  0  0
  -21.9937   -9.0286   20.4670 C   0  0  0  0  0  0
  -22.7245  -10.2152   20.3098 C   0  0  0  0  0  0
  -21.6874   -6.0748   22.5284 C   0  0  0  0  0  0
  -21.3988   -6.5645   23.8199 C   0  0  0  0  0  0
  -21.3640   -5.6801   24.9166 C   0  0  0  0  0  0
  -21.6050   -4.3081   24.7228 C   0  0  0  0  0  0
  -21.8811   -3.8161   23.4361 C   0  0  0  0  0  0
  -21.9182   -4.6977   22.3408 C   0  0  0  0  0  0
  -22.7831  -13.5226   21.1919 C   0  0  0  0  0  0
  -22.1663   -4.2158   21.0999 F   0  0  0  0  0  0
  -21.5644   -3.4561   25.7742 F   0  0  0  0  0  0
  -29.9991  -13.5301   20.3557 N   0  0  0  0  0  0
  -26.2965  -12.9403   20.3326 N   0  0  0  0  0  0
  -25.9319  -11.6545   20.5809 N   0  0  0  0  0  0
  -22.0466  -12.8200   22.0436 N   0  0  0  0  0  0
  -25.4244  -15.1922   20.4191 N   0  0  0  0  0  0
  -31.8412  -14.8347   20.1781 O   0  0  0  0  0  0
  -21.6654   -6.8894   21.4253 O   0  0  0  0  0  0
  -22.3536  -14.5552   20.6778 O   0  0  0  0  0  0
  -24.6380  -31.8579   23.2002 C   0  0  0  0  0  0
  -25.9214  -32.4766   23.8370 C   0  0  1  0  0  0
  -27.2418  -27.2863   20.1125 C   0  0  0  0  0  0
  -25.6013  -33.8544   24.2284 N   0  0  0  0  0  0
  -23.4327  -30.4796   21.5467 C   0  0  2  0  0  0
  -24.8767  -28.9187   20.1227 C   0  0  0  0  0  0
  -22.7564  -29.4560   22.4907 C   0  0  0  0  0  0
  -18.0269  -28.1441   22.8447 C   0  0  0  0  0  0
  -24.1423  -36.7300   23.2651 C   0  0  0  0  0  0
  -25.9776  -30.7777   21.3705 C   0  0  0  0  0  0
  -26.0548  -29.4068   20.7028 C   0  0  0  0  0  0
  -27.2452  -28.6102   20.6617 C   0  0  0  0  0  0
  -26.0299  -26.8380   19.5472 C   0  0  0  0  0  0
  -24.8631  -27.6378   19.5418 C   0  0  0  0  0  0
  -23.6573  -29.8280   20.1608 C   0  0  0  0  0  0
  -25.4058  -36.3054   24.0332 C   0  0  1  0  0  0
  -20.5891  -28.3698   23.1270 C   0  0  2  0  0  0
  -20.6758  -26.9425   22.5384 C   0  0  0  0  0  0
  -19.5710  -26.6396   21.5207 C   0  0  0  0  0  0
  -18.1871  -26.7953   22.1616 C   0  0  0  0  0  0
  -19.1562  -28.8881   23.2788 C   0  0  0  0  0  0
  -18.9492  -30.1450   23.8871 C   0  0  0  0  0  0
  -17.6529  -30.6634   24.0559 C   0  0  0  0  0  0
  -25.9070  -34.9443   23.5113 C   0  0  0  0  0  0
  -16.5377  -29.9134   23.6362 C   0  0  0  0  0  0
  -16.7263  -28.6571   23.0317 C   0  0  0  0  0  0
  -26.4489  -31.6628   25.0803 C   0  0  0  0  0  0
  -25.3715  -31.3812   26.1539 C   0  0  0  0  0  0
  -27.0390  -30.3099   24.6283 C   0  0  0  0  0  0
  -27.5964  -32.4469   25.7634 C   0  0  0  0  0  0
  -27.5522  -37.1767   24.8477 C   0  0  0  0  0  0
  -21.4275  -29.3008   22.3683 N   0  0  0  0  0  0
  -26.4240  -37.3804   23.9430 N   0  0  0  0  0  0
  -24.7047  -31.0506   22.1037 N   0  0  0  0  0  0
  -23.4235  -28.8084   23.3020 O   0  0  0  0  0  0
  -28.3953  -26.4830   20.0397 O   0  0  0  0  0  0
  -26.5621  -34.8958   22.4660 O   0  0  0  0  0  0
  -23.5542  -32.1348   23.7369 O   0  0  0  0  0  0
  -31.0954  -17.9753   21.2666 C   0  0  0  0  0  0
  -30.1130  -17.2654   20.5757 C   0  0  0  0  0  0
  -29.8669  -19.8972   20.6398 C   0  0  0  0  0  0
  -30.1568  -22.0203   22.0611 C   0  0  0  0  0  0
  -27.8832  -21.1756   21.4477 C   0  0  0  0  0  0
  -29.3217  -22.4818   19.7348 C   0  0  0  0  0  0
  -28.4649  -25.1014   20.6099 C   0  0  0  0  0  0
  -28.3173  -23.7709   19.7012 C   0  0  1  0  0  0
  -32.2208  -17.4393   22.1274 C   0  0  0  0  0  0
  -29.3186  -21.3732   20.9122 C   0  0  0  0  0  0
  -30.9714  -19.3960   21.2123 N   0  0  0  0  0  0
  -29.8424  -15.8821   20.4762 N   0  0  0  0  0  0
  -28.3740  -24.2421   18.3642 O   0  0  0  0  0  0
  -31.9013  -16.2767   22.7004 F   0  0  0  0  0  0
  -33.3390  -17.2681   21.4190 F   0  0  0  0  0  0
  -32.5122  -18.2733   23.1329 F   0  0  0  0  0  0
  -29.0006  -18.5038   19.8878 S   0  0  0  0  0  0
  -31.4606  -12.6205   19.0717 H   0  0  0  0  0  0
  -30.4323  -11.4853   19.9034 H   0  0  0  0  0  0
  -29.7531  -11.7137   17.4853 H   0  0  0  0  0  0
  -29.5858  -13.4381   17.6783 H   0  0  0  0  0  0
  -27.8865  -11.2607   18.9301 H   0  0  0  0  0  0
  -27.3432  -12.4773   17.8175 H   0  0  0  0  0  0
  -27.6289  -14.2349   19.4430 H   0  0  0  0  0  0
  -28.7497  -12.1987   21.4351 H   0  0  0  0  0  0
  -28.4519  -13.8908   21.7549 H   0  0  0  0  0  0
  -25.2742   -9.5719   22.4823 H   0  0  0  0  0  0
  -24.0016   -7.4653   22.7464 H   0  0  0  0  0  0
  -21.0880   -8.8793   19.8971 H   0  0  0  0  0  0
  -22.3690  -10.9725   19.6221 H   0  0  0  0  0  0
  -21.1956   -7.6135   23.9706 H   0  0  0  0  0  0
  -21.1477   -6.0532   25.9055 H   0  0  0  0  0  0
  -22.0604   -2.7638   23.2860 H   0  0  0  0  0  0
  -22.4038  -11.9798   22.4778 H   0  0  0  0  0  0
  -21.1068  -13.1235   22.2661 H   0  0  0  0  0  0
  -24.6724  -15.8484   20.5957 H   0  0  0  0  0  0
  -26.2515  -15.6436   20.0519 H   0  0  0  0  0  0
  -26.7309  -32.5450   23.1154 H   0  0  0  0  0  0
  -25.0089  -33.9653   25.0378 H   0  0  0  0  0  0
  -22.7326  -31.3043   21.4091 H   0  0  0  0  0  0
  -23.3695  -35.9641   23.3346 H   0  0  0  0  0  0
  -24.3519  -36.8949   22.2069 H   0  0  0  0  0  0
  -23.7171  -37.6522   23.6704 H   0  0  0  0  0  0
  -26.1025  -31.5403   20.5989 H   0  0  0  0  0  0
  -26.8624  -30.8304   21.9939 H   0  0  0  0  0  0
  -28.1680  -28.9964   21.0602 H   0  0  0  0  0  0
  -25.9853  -25.8570   19.0905 H   0  0  0  0  0  0
  -23.9509  -27.2490   19.1069 H   0  0  0  0  0  0
  -23.8268  -30.6289   19.4376 H   0  0  0  0  0  0
  -22.7608  -29.3050   19.8174 H   0  0  0  0  0  0
  -25.1165  -36.1921   25.0831 H   0  0  0  0  0  0
  -20.9906  -28.3309   24.1425 H   0  0  0  0  0  0
  -20.5759  -26.2308   23.3588 H   0  0  0  0  0  0
  -21.6602  -26.7468   22.1115 H   0  0  0  0  0  0
  -19.6904  -25.6311   21.1236 H   0  0  0  0  0  0
  -19.6711  -27.3190   20.6741 H   0  0  0  0  0  0
  -17.4138  -26.6734   21.3983 H   0  0  0  0  0  0
  -18.0217  -26.0097   22.9031 H   0  0  0  0  0  0
  -19.7990  -30.7189   24.2297 H   0  0  0  0  0  0
  -17.5102  -31.6323   24.5160 H   0  0  0  0  0  0
  -15.5388  -30.3049   23.7721 H   0  0  0  0  0  0
  -15.8630  -28.0921   22.7047 H   0  0  0  0  0  0
  -24.5838  -30.7210   25.7901 H   0  0  0  0  0  0
  -24.8916  -32.2984   26.4982 H   0  0  0  0  0  0
  -25.7957  -30.8994   27.0350 H   0  0  0  0  0  0
  -26.3001  -29.6854   24.1278 H   0  0  0  0  0  0
  -27.4092  -29.7339   25.4780 H   0  0  0  0  0  0
  -27.8844  -30.4421   23.9521 H   0  0  0  0  0  0
  -27.2471  -33.3792   26.2102 H   0  0  0  0  0  0
  -28.3823  -32.7078   25.0512 H   0  0  0  0  0  0
  -28.0615  -31.8742   26.5663 H   0  0  0  0  0  0
  -28.2468  -38.0121   24.7513 H   0  0  0  0  0  0
  -28.1016  -36.2620   24.6226 H   0  0  0  0  0  0
  -27.2246  -37.1370   25.8893 H   0  0  0  0  0  0
  -20.9550  -29.8848   21.6929 H   0  0  0  0  0  0
  -26.0099  -38.2858   24.1570 H   0  0  0  0  0  0
  -30.1954  -21.3976   22.9558 H   0  0  0  0  0  0
  -29.7657  -22.9940   22.3662 H   0  0  0  0  0  0
  -31.1913  -22.1976   21.7471 H   0  0  0  0  0  0
  -27.8621  -20.4651   22.2785 H   0  0  0  0  0  0
  -27.2258  -20.7736   20.6738 H   0  0  0  0  0  0
  -27.4436  -22.0991   21.8219 H   0  0  0  0  0  0
  -30.3414  -22.8324   19.5465 H   0  0  0  0  0  0
  -29.0828  -21.9137   18.8276 H   0  0  0  0  0  0
  -29.4421  -25.0498   21.0933 H   0  0  0  0  0  0
  -27.7514  -25.0500   21.4362 H   0  0  0  0  0  0
  -27.3010  -23.3937   19.8381 H   0  0  0  0  0  0
  -28.8667  -15.6632   20.3716 H   0  0  0  0  0  0
  -29.1650  -24.7732   18.2837 H   0  0  0  0  0  0
  1 25  1  0  0  0
  1 30  2  0  0  0
  1 82  1  0  0  0
  2  3  1  0  0  0
  2 25  1  0  0  0
  2 88  1  0  0  0
  2 89  1  0  0  0
  3  4  1  0  0  0
  3 90  1  0  0  0
  3 91  1  0  0  0
  4  5  1  0  0  0
  4 92  1  0  0  0
  4 93  1  0  0  0
  5  6  1  0  0  0
  5 26  1  0  0  0
  5 94  1  0  0  0
  6 25  1  0  0  0
  6 95  1  0  0  0
  6 96  1  0  0  0
  7  8  2  0  0  0
  7 26  1  0  0  0
  7 29  1  0  0  0
  8  9  1  0  0  0
  8 22  1  0  0  0
  9 10  1  0  0  0
  9 27  2  0  0  0
 10 11  2  0  0  0
 10 15  1  0  0  0
 11 12  1  0  0  0
 11 97  1  0  0  0
 12 13  2  0  0  0
 12 98  1  0  0  0
 13 14  1  0  0  0
 13 31  1  0  0  0
 14 15  2  0  0  0
 14 99  1  0  0  0
 15100  1  0  0  0
 16 17  2  0  0  0
 16 21  1  0  0  0
 16 31  1  0  0  0
 17 18  1  0  0  0
 17101  1  0  0  0
 18 19  2  0  0  0
 18102  1  0  0  0
 19 20  1  0  0  0
 19 24  1  0  0  0
 20 21  2  0  0  0
 20103  1  0  0  0
 21 23  1  0  0  0
 22 28  1  0  0  0
 22 32  2  0  0  0
 26 27  1  0  0  0
 28104  1  0  0  0
 28105  1  0  0  0
 29106  1  0  0  0
 29107  1  0  0  0
 33 34  1  0  0  0
 33 66  1  0  0  0
 33 70  2  0  0  0
 34 36  1  0  0  0
 34 59  1  0  0  0
 34108  1  0  0  0
 35 44  2  0  0  0
 35 45  1  0  0  0
 35 68  1  0  0  0
 36 56  1  0  0  0
 36109  1  0  0  0
 37 39  1  0  0  0
 37 47  1  0  0  0
 37 66  1  0  0  0
 37110  1  0  0  0
 38 43  2  0  0  0
 38 46  1  0  0  0
 38 47  1  0  0  0
 39 64  1  0  0  0
 39 67  2  0  0  0
 40 52  1  0  0  0
 40 53  2  0  0  0
 40 58  1  0  0  0
 41111  1  0  0  0
 41112  1  0  0  0
 41113  1  0  0  0
 41 48  1  0  0  0
 42 43  1  0  0  0
 42 66  1  0  0  0
 42114  1  0  0  0
 42115  1  0  0  0
 43 44  1  0  0  0
 44116  1  0  0  0
 45 46  2  0  0  0
 45117  1  0  0  0
 46118  1  0  0  0
 47119  1  0  0  0
 47120  1  0  0  0
 48 56  1  0  0  0
 48 65  1  0  0  0
 48121  1  0  0  0
 49 50  1  0  0  0
 49 53  1  0  0  0
 49 64  1  0  0  0
 49122  1  0  0  0
 50 51  1  0  0  0
 50123  1  0  0  0
 50124  1  0  0  0
 51 52  1  0  0  0
 51125  1  0  0  0
 51126  1  0  0  0
 52127  1  0  0  0
 52128  1  0  0  0
 53 54  1  0  0  0
 54 55  2  0  0  0
 54129  1  0  0  0
 55 57  1  0  0  0
 55130  1  0  0  0
 56 69  2  0  0  0
 57 58  2  0  0  0
 57131  1  0  0  0
 58132  1  0  0  0
 59 60  1  0  0  0
 59 61  1  0  0  0
 59 62  1  0  0  0
 60133  1  0  0  0
 60134  1  0  0  0
 60135  1  0  0  0
 61136  1  0  0  0
 61137  1  0  0  0
 61138  1  0  0  0
 62139  1  0  0  0
 62140  1  0  0  0
 62141  1  0  0  0
 63 65  1  0  0  0
 63142  1  0  0  0
 63143  1  0  0  0
 63144  1  0  0  0
 64145  1  0  0  0
 65146  1  0  0  0
 68 77  1  0  0  0
 71 72  2  0  0  0
 71 79  1  0  0  0
 71 81  1  0  0  0
 72 82  1  0  0  0
 72 87  1  0  0  0
 73 80  1  0  0  0
 73 81  2  0  0  0
 73 87  1  0  0  0
 74147  1  0  0  0
 74148  1  0  0  0
 74149  1  0  0  0
 74 80  1  0  0  0
 75 80  1  0  0  0
 75150  1  0  0  0
 75151  1  0  0  0
 75152  1  0  0  0
 76 78  1  0  0  0
 76 80  1  0  0  0
 76153  1  0  0  0
 76154  1  0  0  0
 77 78  1  0  0  0
 77155  1  0  0  0
 77156  1  0  0  0
 78 83  1  0  0  0
 78157  1  0  0  0
 79 84  1  0  0  0
 79 85  1  0  0  0
 79 86  1  0  0  0
 82158  1  0  0  0
 83159  1  0  0  0
M  ISO  4   1 100  68 101  77 101  82 100
M  END
> <chiral flag>
0

> <version>
0

> <s_m_source_file>
/data/baiqing/PycharmProjects/Reinvent-master-3.2/result/LINK_invent/BTK/process_docking_weight1_custom_product_contain_oxygen_bond_distance_aromatic_linkinvent_7_9_3/rearranged_h_0188.sdf

> <i_m_source_file_index>
49

> <r_mmod_Potential_Energy-OPLS-2005>
319.545379638672

> <r_mmod_Stretch_Energy-OPLS-2005>
122.769760131836

> <r_mmod_Bend_Energy-OPLS-2005>
205.288482666016

> <r_mmod_Torsional_Energy-OPLS-2005>
280.422760009766

> <r_mmod_Improper_Torsional_Energy-OPLS-2005>
9.52293014526367

> <r_mmod_Van_der_Waal_Energy-OPLS-2005>
108.943687438965

> <r_mmod_Electrostatic_Energy-OPLS-2005>
-275.396087646484

> <r_mmod_Solvation_Energy-OPLS-2005>
-209.977478027344

> <b_mmod_Minimization_Converged-OPLS-2005>
0

> <r_mmod_RMS_Derivative-OPLS-2005>
9.12985324859619

$$$$
50
                    3D
 Structure written by MMmdl.
158166  0  0  1  0            999 V2000
  -30.6024  -14.7423   20.6427 C   0  0  0  0  0  0
  -30.4119  -12.4814   19.4857 C   0  0  0  0  0  0
  -29.5181  -12.5017   18.2304 C   0  0  0  0  0  0
  -28.0444  -12.3016   18.6261 C   0  0  0  0  0  0
  -27.6259  -13.2172   19.7988 C   0  0  2  0  0  0
  -28.6327  -13.1720   20.9489 C   0  0  0  0  0  0
  -25.2590  -13.8174   20.5567 C   0  0  0  0  0  0
  -24.1847  -13.0451   20.9104 C   0  0  0  0  0  0
  -24.6359  -11.6905   20.8566 C   0  0  0  0  0  0
  -23.8986  -10.4306   21.0281 C   0  0  0  0  0  0
  -24.3608   -9.4267   21.9079 C   0  0  0  0  0  0
  -23.6333   -8.2267   22.0720 C   0  0  0  0  0  0
  -22.4301   -8.0228   21.3519 C   0  0  0  0  0  0
  -21.9848   -9.0158   20.4627 C   0  0  0  0  0  0
  -22.7132  -10.2062   20.2991 C   0  0  0  0  0  0
  -21.6873   -6.0688   22.5249 C   0  0  0  0  0  0
  -21.3995   -6.5604   23.8175 C   0  0  0  0  0  0
  -21.3698   -5.6781   24.9166 C   0  0  0  0  0  0
  -21.6103   -4.3042   24.7219 C   0  0  0  0  0  0
  -21.8846   -3.8094   23.4351 C   0  0  0  0  0  0
  -21.9225   -4.6911   22.3401 C   0  0  0  0  0  0
  -22.7929  -13.5252   21.1895 C   0  0  0  0  0  0
  -22.1692   -4.2104   21.0981 F   0  0  0  0  0  0
  -21.5668   -3.4531   25.7740 F   0  0  0  0  0  0
  -29.9522  -13.5402   20.4334 N   0  0  0  0  0  0
  -26.2844  -12.9294   20.2889 N   0  0  0  0  0  0
  -25.9227  -11.6449   20.5385 N   0  0  0  0  0  0
  -22.0651  -12.8149   22.0488 N   0  0  0  0  0  0
  -25.4513  -15.1891   20.4178 N   0  0  0  0  0  0
  -31.7635  -14.8534   20.2200 O   0  0  0  0  0  0
  -21.6682   -6.8800   21.4206 O   0  0  0  0  0  0
  -22.3545  -14.5558   20.6815 O   0  0  0  0  0  0
  -24.6353  -31.8531   23.1949 C   0  0  0  0  0  0
  -25.9163  -32.4738   23.8324 C   0  0  1  0  0  0
  -27.2425  -27.2396   20.1647 C   0  0  0  0  0  0
  -25.5958  -33.8555   24.2252 N   0  0  0  0  0  0
  -23.4367  -30.4715   21.5391 C   0  0  2  0  0  0
  -24.8922  -28.9000   20.1221 C   0  0  0  0  0  0
  -22.7537  -29.4580   22.4917 C   0  0  0  0  0  0
  -18.0313  -28.1370   22.8496 C   0  0  0  0  0  0
  -24.1511  -36.7269   23.2660 C   0  0  0  0  0  0
  -25.9845  -30.7609   21.3753 C   0  0  0  0  0  0
  -26.0608  -29.3768   20.7281 C   0  0  0  0  0  0
  -27.2418  -28.5638   20.7276 C   0  0  0  0  0  0
  -26.0492  -26.8247   19.5409 C   0  0  0  0  0  0
  -24.8910  -27.6315   19.5155 C   0  0  0  0  0  0
  -23.6590  -29.7912   20.1620 C   0  0  0  0  0  0
  -25.4129  -36.3065   24.0335 C   0  0  1  0  0  0
  -20.5932  -28.3676   23.1262 C   0  0  2  0  0  0
  -20.6791  -26.9379   22.5411 C   0  0  0  0  0  0
  -19.5768  -26.6354   21.5230 C   0  0  0  0  0  0
  -18.1947  -26.7899   22.1625 C   0  0  0  0  0  0
  -19.1573  -28.8827   23.2885 C   0  0  0  0  0  0
  -18.9481  -30.1450   23.8872 C   0  0  0  0  0  0
  -17.6462  -30.6559   24.0545 C   0  0  0  0  0  0
  -25.9061  -34.9417   23.5074 C   0  0  0  0  0  0
  -16.5351  -29.9045   23.6338 C   0  0  0  0  0  0
  -16.7302  -28.6480   23.0338 C   0  0  0  0  0  0
  -26.4484  -31.6593   25.0751 C   0  0  0  0  0  0
  -25.3684  -31.3683   26.1464 C   0  0  0  0  0  0
  -27.0356  -30.3043   24.6219 C   0  0  0  0  0  0
  -27.6095  -32.4316   25.7455 C   0  0  0  0  0  0
  -27.5583  -37.1782   24.8468 C   0  0  0  0  0  0
  -21.4236  -29.3025   22.3641 N   0  0  0  0  0  0
  -26.4298  -37.3771   23.9411 N   0  0  0  0  0  0
  -24.7051  -31.0455   22.0922 N   0  0  0  0  0  0
  -23.4210  -28.8129   23.3042 O   0  0  0  0  0  0
  -28.3594  -26.3695   20.1202 O   0  0  0  0  0  0
  -26.5645  -34.8895   22.4655 O   0  0  0  0  0  0
  -23.5494  -32.1345   23.7220 O   0  0  0  0  0  0
  -30.0663  -17.4559   19.2622 C   0  0  0  0  0  0
  -29.7864  -17.1950   20.5846 C   0  0  0  0  0  0
  -29.3829  -19.5745   20.4745 C   0  0  0  0  0  0
  -29.4890  -14.8257   23.6261 C   0  0  0  0  0  0
  -30.7785  -22.4614   20.0301 C   0  0  0  0  0  0
  -29.9586  -15.9798   22.7139 C   0  0  0  0  0  0
  -28.4261  -25.0717   20.8997 C   0  0  0  0  0  0
  -29.4389  -22.3663   20.7824 C   0  0  1  0  0  0
  -28.3665  -23.5231   20.3301 C   0  0  1  0  0  0
  -29.3541  -18.4275   21.2250 N   0  0  0  0  0  0
  -28.9899  -20.9064   20.9054 N   0  0  0  0  0  0
  -29.9330  -15.8422   21.2254 N   0  0  0  0  0  0
  -27.1728  -22.9244   20.7905 O   0  0  0  0  0  0
  -29.9300  -19.1762   18.8445 S   0  0  0  0  0  0
  -31.4610  -12.5904   19.1988 H   0  0  0  0  0  0
  -30.3229  -11.5016   19.9588 H   0  0  0  0  0  0
  -29.8121  -11.7091   17.5370 H   0  0  0  0  0  0
  -29.6527  -13.4356   17.6805 H   0  0  0  0  0  0
  -27.9305  -11.2535   18.9169 H   0  0  0  0  0  0
  -27.3890  -12.4513   17.7671 H   0  0  0  0  0  0
  -27.6185  -14.2352   19.4046 H   0  0  0  0  0  0
  -28.6559  -12.2044   21.4510 H   0  0  0  0  0  0
  -28.2577  -13.8993   21.6553 H   0  0  0  0  0  0
  -25.2779   -9.5800   22.4584 H   0  0  0  0  0  0
  -24.0083   -7.4706   22.7461 H   0  0  0  0  0  0
  -21.0749   -8.8609   19.8959 H   0  0  0  0  0  0
  -22.3517  -10.9551   19.6072 H   0  0  0  0  0  0
  -21.1885   -7.6100   23.9653 H   0  0  0  0  0  0
  -21.1547   -6.0509   25.9084 H   0  0  0  0  0  0
  -22.0581   -2.7535   23.2875 H   0  0  0  0  0  0
  -22.4321  -11.9746   22.4704 H   0  0  0  0  0  0
  -21.1323  -13.1079   22.2857 H   0  0  0  0  0  0
  -24.7400  -15.8814   20.6308 H   0  0  0  0  0  0
  -26.3284  -15.5978   20.1203 H   0  0  0  0  0  0
  -26.7249  -32.5379   23.1090 H   0  0  0  0  0  0
  -25.0096  -33.9701   25.0392 H   0  0  0  0  0  0
  -22.7408  -31.2971   21.3826 H   0  0  0  0  0  0
  -23.3781  -35.9597   23.3309 H   0  0  0  0  0  0
  -24.3613  -36.8900   22.2076 H   0  0  0  0  0  0
  -23.7219  -37.6450   23.6682 H   0  0  0  0  0  0
  -26.1263  -31.5166   20.6002 H   0  0  0  0  0  0
  -26.8597  -30.8159   22.0076 H   0  0  0  0  0  0
  -28.1415  -28.9349   21.1925 H   0  0  0  0  0  0
  -26.0158  -25.8474   19.0788 H   0  0  0  0  0  0
  -23.9982  -27.2583   19.0344 H   0  0  0  0  0  0
  -23.7821  -30.5631   19.4010 H   0  0  0  0  0  0
  -22.7768  -29.2241   19.8547 H   0  0  0  0  0  0
  -25.1293  -36.1910   25.0821 H   0  0  0  0  0  0
  -21.0049  -28.3237   24.1376 H   0  0  0  0  0  0
  -20.5697  -26.2263   23.3623 H   0  0  0  0  0  0
  -21.6651  -26.7381   22.1183 H   0  0  0  0  0  0
  -19.6909  -25.6278   21.1252 H   0  0  0  0  0  0
  -19.6691  -27.3179   20.6779 H   0  0  0  0  0  0
  -17.4208  -26.6717   21.4027 H   0  0  0  0  0  0
  -18.0303  -26.0038   22.9004 H   0  0  0  0  0  0
  -19.7953  -30.7319   24.2193 H   0  0  0  0  0  0
  -17.4993  -31.6229   24.5155 H   0  0  0  0  0  0
  -15.5362  -30.2888   23.7670 H   0  0  0  0  0  0
  -15.8727  -28.0782   22.7006 H   0  0  0  0  0  0
  -24.5888  -30.7032   25.7726 H   0  0  0  0  0  0
  -24.8857  -32.2824   26.4940 H   0  0  0  0  0  0
  -25.7994  -30.8796   27.0216 H   0  0  0  0  0  0
  -26.2942  -29.6765   24.1282 H   0  0  0  0  0  0
  -27.4116  -29.7321   25.4703 H   0  0  0  0  0  0
  -27.8762  -30.4382   23.9415 H   0  0  0  0  0  0
  -27.2794  -33.3642   26.2026 H   0  0  0  0  0  0
  -28.3847  -32.6824   25.0207 H   0  0  0  0  0  0
  -28.0823  -31.8444   26.5334 H   0  0  0  0  0  0
  -28.2578  -38.0107   24.7532 H   0  0  0  0  0  0
  -28.1085  -36.2615   24.6242 H   0  0  0  0  0  0
  -27.2306  -37.1353   25.8883 H   0  0  0  0  0  0
  -20.9433  -29.8724   21.6821 H   0  0  0  0  0  0
  -26.0167  -38.2849   24.1417 H   0  0  0  0  0  0
  -30.3906  -16.7529   18.5063 H   0  0  0  0  0  0
  -29.6781  -15.0892   24.6705 H   0  0  0  0  0  0
  -30.0046  -13.8880   23.4336 H   0  0  0  0  0  0
  -28.4105  -14.6723   23.5762 H   0  0  0  0  0  0
  -31.1900  -23.4699   20.0950 H   0  0  0  0  0  0
  -30.6702  -22.2149   18.9732 H   0  0  0  0  0  0
  -31.5286  -21.7832   20.4473 H   0  0  0  0  0  0
  -30.9659  -16.2777   23.0067 H   0  0  0  0  0  0
  -29.3208  -16.8089   23.0254 H   0  0  0  0  0  0
  -29.3907  -25.1368   21.4065 H   0  0  0  0  0  0
  -27.7173  -25.1698   21.7231 H   0  0  0  0  0  0
  -29.6926  -22.6175   21.8142 H   0  0  0  0  0  0
  -28.3035  -23.5505   19.2428 H   0  0  0  0  0  0
  -28.5940  -20.7818   21.8343 H   0  0  0  0  0  0
  -27.3804  -21.9885   20.8347 H   0  0  0  0  0  0
  1 25  1  0  0  0
  1 30  2  0  0  0
  1 82  1  0  0  0
  2  3  1  0  0  0
  2 25  1  0  0  0
  2 85  1  0  0  0
  2 86  1  0  0  0
  3  4  1  0  0  0
  3 87  1  0  0  0
  3 88  1  0  0  0
  4  5  1  0  0  0
  4 89  1  0  0  0
  4 90  1  0  0  0
  5  6  1  0  0  0
  5 26  1  0  0  0
  5 91  1  0  0  0
  6 25  1  0  0  0
  6 92  1  0  0  0
  6 93  1  0  0  0
  7  8  2  0  0  0
  7 26  1  0  0  0
  7 29  1  0  0  0
  8  9  1  0  0  0
  8 22  1  0  0  0
  9 10  1  0  0  0
  9 27  2  0  0  0
 10 11  2  0  0  0
 10 15  1  0  0  0
 11 12  1  0  0  0
 11 94  1  0  0  0
 12 13  2  0  0  0
 12 95  1  0  0  0
 13 14  1  0  0  0
 13 31  1  0  0  0
 14 15  2  0  0  0
 14 96  1  0  0  0
 15 97  1  0  0  0
 16 17  2  0  0  0
 16 21  1  0  0  0
 16 31  1  0  0  0
 17 18  1  0  0  0
 17 98  1  0  0  0
 18 19  2  0  0  0
 18 99  1  0  0  0
 19 20  1  0  0  0
 19 24  1  0  0  0
 20 21  2  0  0  0
 20100  1  0  0  0
 21 23  1  0  0  0
 22 28  1  0  0  0
 22 32  2  0  0  0
 26 27  1  0  0  0
 28101  1  0  0  0
 28102  1  0  0  0
 29103  1  0  0  0
 29104  1  0  0  0
 33 34  1  0  0  0
 33 66  1  0  0  0
 33 70  2  0  0  0
 34 36  1  0  0  0
 34 59  1  0  0  0
 34105  1  0  0  0
 35 44  2  0  0  0
 35 45  1  0  0  0
 35 68  1  0  0  0
 36 56  1  0  0  0
 36106  1  0  0  0
 37 39  1  0  0  0
 37 47  1  0  0  0
 37 66  1  0  0  0
 37107  1  0  0  0
 38 43  2  0  0  0
 38 46  1  0  0  0
 38 47  1  0  0  0
 39 64  1  0  0  0
 39 67  2  0  0  0
 40 52  1  0  0  0
 40 53  2  0  0  0
 40 58  1  0  0  0
 41108  1  0  0  0
 41109  1  0  0  0
 41110  1  0  0  0
 41 48  1  0  0  0
 42 43  1  0  0  0
 42 66  1  0  0  0
 42111  1  0  0  0
 42112  1  0  0  0
 43 44  1  0  0  0
 44113  1  0  0  0
 45 46  2  0  0  0
 45114  1  0  0  0
 46115  1  0  0  0
 47116  1  0  0  0
 47117  1  0  0  0
 48 56  1  0  0  0
 48 65  1  0  0  0
 48118  1  0  0  0
 49 50  1  0  0  0
 49 53  1  0  0  0
 49 64  1  0  0  0
 49119  1  0  0  0
 50 51  1  0  0  0
 50120  1  0  0  0
 50121  1  0  0  0
 51 52  1  0  0  0
 51122  1  0  0  0
 51123  1  0  0  0
 52124  1  0  0  0
 52125  1  0  0  0
 53 54  1  0  0  0
 54 55  2  0  0  0
 54126  1  0  0  0
 55 57  1  0  0  0
 55127  1  0  0  0
 56 69  2  0  0  0
 57 58  2  0  0  0
 57128  1  0  0  0
 58129  1  0  0  0
 59 60  1  0  0  0
 59 61  1  0  0  0
 59 62  1  0  0  0
 60130  1  0  0  0
 60131  1  0  0  0
 60132  1  0  0  0
 61133  1  0  0  0
 61134  1  0  0  0
 61135  1  0  0  0
 62136  1  0  0  0
 62137  1  0  0  0
 62138  1  0  0  0
 63 65  1  0  0  0
 63139  1  0  0  0
 63140  1  0  0  0
 63141  1  0  0  0
 64142  1  0  0  0
 65143  1  0  0  0
 68 77  1  0  0  0
 71 72  2  0  0  0
 71 84  1  0  0  0
 71144  1  0  0  0
 72 80  1  0  0  0
 72 82  1  0  0  0
 73 80  2  0  0  0
 73 81  1  0  0  0
 73 84  1  0  0  0
 74 76  1  0  0  0
 74145  1  0  0  0
 74146  1  0  0  0
 74147  1  0  0  0
 75148  1  0  0  0
 75149  1  0  0  0
 75150  1  0  0  0
 75 78  1  0  0  0
 76 82  1  0  0  0
 76151  1  0  0  0
 76152  1  0  0  0
 77 79  1  0  0  0
 77153  1  0  0  0
 77154  1  0  0  0
 78 79  1  0  0  0
 78 81  1  0  0  0
 78155  1  0  0  0
 79 83  1  0  0  0
 79156  1  0  0  0
 81157  1  0  0  0
 83158  1  0  0  0
M  ISO  4   1 100  68 101  77 101  82 100
M  END
> <chiral flag>
0

> <version>
0

> <s_m_source_file>
/data/baiqing/PycharmProjects/Reinvent-master-3.2/result/LINK_invent/BTK/process_docking_weight1_custom_product_contain_oxygen_bond_distance_aromatic_linkinvent_7_9_3/rearranged_h_0188.sdf

> <i_m_source_file_index>
50

> <r_mmod_Potential_Energy-OPLS-2005>
351.480133056641

> <r_mmod_Stretch_Energy-OPLS-2005>
153.957702636719

> <r_mmod_Bend_Energy-OPLS-2005>
225.612762451172

> <r_mmod_Torsional_Energy-OPLS-2005>
334.970977783203

> <r_mmod_Improper_Torsional_Energy-OPLS-2005>
7.18944644927979

> <r_mmod_Van_der_Waal_Energy-OPLS-2005>
122.615509033203

> <r_mmod_Electrostatic_Energy-OPLS-2005>
-373.041717529297

> <r_mmod_Solvation_Energy-OPLS-2005>
-211.326019287109

> <b_mmod_Minimization_Converged-OPLS-2005>
0

> <r_mmod_RMS_Derivative-OPLS-2005>
7.27898168563843

$$$$
51
                    3D
 Structure written by MMmdl.
161169  0  0  1  0            999 V2000
  -30.6162  -14.7973   20.4473 C   0  0  0  0  0  0
  -30.4240  -12.4798   19.4964 C   0  0  0  0  0  0
  -29.5113  -12.4966   18.2501 C   0  0  0  0  0  0
  -28.0367  -12.3328   18.6636 C   0  0  0  0  0  0
  -27.6390  -13.2442   19.8558 C   0  0  2  0  0  0
  -28.6809  -13.2177   20.9969 C   0  0  0  0  0  0
  -25.2490  -13.8225   20.5726 C   0  0  0  0  0  0
  -24.1765  -13.0444   20.9178 C   0  0  0  0  0  0
  -24.6372  -11.6939   20.8719 C   0  0  0  0  0  0
  -23.9042  -10.4303   21.0378 C   0  0  0  0  0  0
  -24.3598   -9.4235   21.9170 C   0  0  0  0  0  0
  -23.6294   -8.2263   22.0748 C   0  0  0  0  0  0
  -22.4283   -8.0274   21.3529 C   0  0  0  0  0  0
  -21.9897   -9.0233   20.4628 C   0  0  0  0  0  0
  -22.7212  -10.2126   20.3036 C   0  0  0  0  0  0
  -21.6869   -6.0721   22.5279 C   0  0  0  0  0  0
  -21.4019   -6.5625   23.8202 C   0  0  0  0  0  0
  -21.3666   -5.6785   24.9173 C   0  0  0  0  0  0
  -21.6040   -4.3048   24.7229 C   0  0  0  0  0  0
  -21.8835   -3.8134   23.4351 C   0  0  0  0  0  0
  -21.9199   -4.6943   22.3409 C   0  0  0  0  0  0
  -22.7796  -13.5225   21.1883 C   0  0  0  0  0  0
  -22.1679   -4.2132   21.0989 F   0  0  0  0  0  0
  -21.5620   -3.4535   25.7741 F   0  0  0  0  0  0
  -29.9782  -13.5700   20.4088 N   0  0  0  0  0  0
  -26.2929  -12.9458   20.3336 N   0  0  0  0  0  0
  -25.9316  -11.6582   20.5759 N   0  0  0  0  0  0
  -22.0455  -12.8173   22.0428 N   0  0  0  0  0  0
  -25.4183  -15.1940   20.4268 N   0  0  0  0  0  0
  -31.7786  -14.8555   20.0385 O   0  0  0  0  0  0
  -21.6661   -6.8861   21.4235 O   0  0  0  0  0  0
  -22.3494  -14.5564   20.6797 O   0  0  0  0  0  0
  -24.6400  -31.8472   23.1910 C   0  0  0  0  0  0
  -25.9177  -32.4696   23.8276 C   0  0  1  0  0  0
  -27.2507  -27.2364   20.1246 C   0  0  0  0  0  0
  -25.5933  -33.8497   24.2185 N   0  0  0  0  0  0
  -23.4429  -30.4643   21.5335 C   0  0  2  0  0  0
  -24.8967  -28.9000   20.1159 C   0  0  0  0  0  0
  -22.7555  -29.4578   22.4856 C   0  0  0  0  0  0
  -18.0309  -28.1390   22.8447 C   0  0  0  0  0  0
  -24.1511  -36.7281   23.2644 C   0  0  0  0  0  0
  -25.9910  -30.7552   21.3771 C   0  0  0  0  0  0
  -26.0670  -29.3739   20.7164 C   0  0  0  0  0  0
  -27.2412  -28.5543   20.7081 C   0  0  0  0  0  0
  -26.0459  -26.8286   19.5073 C   0  0  0  0  0  0
  -24.8899  -27.6353   19.5080 C   0  0  0  0  0  0
  -23.6689  -29.7862   20.1559 C   0  0  0  0  0  0
  -25.4136  -36.3036   24.0322 C   0  0  1  0  0  0
  -20.5919  -28.3716   23.1208 C   0  0  2  0  0  0
  -20.6779  -26.9417   22.5386 C   0  0  0  0  0  0
  -19.5757  -26.6383   21.5186 C   0  0  0  0  0  0
  -18.1937  -26.7917   22.1592 C   0  0  0  0  0  0
  -19.1565  -28.8863   23.2806 C   0  0  0  0  0  0
  -18.9486  -30.1444   23.8838 C   0  0  0  0  0  0
  -17.6489  -30.6569   24.0561 C   0  0  0  0  0  0
  -25.9063  -34.9405   23.5069 C   0  0  0  0  0  0
  -16.5362  -29.9054   23.6330 C   0  0  0  0  0  0
  -16.7302  -28.6494   23.0331 C   0  0  0  0  0  0
  -26.4532  -31.6544   25.0690 C   0  0  0  0  0  0
  -25.3713  -31.3707   26.1377 C   0  0  0  0  0  0
  -27.0405  -30.2948   24.6247 C   0  0  0  0  0  0
  -27.6061  -32.4324   25.7438 C   0  0  0  0  0  0
  -27.5583  -37.1786   24.8452 C   0  0  0  0  0  0
  -21.4255  -29.3068   22.3594 N   0  0  0  0  0  0
  -26.4300  -37.3742   23.9400 N   0  0  0  0  0  0
  -24.7107  -31.0411   22.0894 N   0  0  0  0  0  0
  -23.4218  -28.8132   23.3006 O   0  0  0  0  0  0
  -28.3677  -26.3649   20.2296 O   0  0  0  0  0  0
  -26.5667  -34.8888   22.4656 O   0  0  0  0  0  0
  -23.5537  -32.1325   23.7148 O   0  0  0  0  0  0
  -29.3755  -18.6971   20.7296 C   0  0  0  0  0  0
  -28.1933  -18.7970   21.4486 C   0  0  0  0  0  0
  -28.8440  -21.0518   20.5031 C   0  0  0  0  0  0
  -28.4588  -23.6634   20.4807 C   0  0  0  0  0  0
  -29.8551  -25.0560   18.8433 C   0  0  0  0  0  0
  -32.2233  -16.7074   22.4606 C   0  0  0  0  0  0
  -32.6497  -18.6678   20.9443 C   0  0  0  0  0  0
  -30.3917  -17.4527   20.6484 C   0  0  1  0  0  0
  -28.5064  -25.0055   19.5739 C   0  0  2  0  0  0
  -31.5589  -17.8277   21.6385 C   0  0  0  0  0  0
  -29.6738  -20.0054   20.1668 N   0  0  0  0  0  0
  -27.5240  -17.8082   22.1622 N   0  0  0  0  0  0
  -28.9608  -22.4508   20.0069 N   0  0  0  0  0  0
  -29.9269  -15.9730   20.7729 N   0  0  0  0  0  0
  -27.9841  -23.7497   21.6169 O   0  0  0  0  0  0
  -27.5347  -20.4423   21.5095 S   0  0  0  0  0  0
  -31.4671  -12.5887   19.1936 H   0  0  0  0  0  0
  -30.3634  -11.5144   20.0008 H   0  0  0  0  0  0
  -29.7908  -11.6905   17.5680 H   0  0  0  0  0  0
  -29.6500  -13.4301   17.7017 H   0  0  0  0  0  0
  -27.8937  -11.2866   18.9378 H   0  0  0  0  0  0
  -27.3805  -12.5170   17.8124 H   0  0  0  0  0  0
  -27.6251  -14.2603   19.4611 H   0  0  0  0  0  0
  -28.7248  -12.2365   21.4746 H   0  0  0  0  0  0
  -28.4097  -13.9290   21.7807 H   0  0  0  0  0  0
  -25.2730   -9.5744   22.4754 H   0  0  0  0  0  0
  -24.0004   -7.4674   22.7489 H   0  0  0  0  0  0
  -21.0822   -8.8738   19.8943 H   0  0  0  0  0  0
  -22.3642  -10.9652   19.6149 H   0  0  0  0  0  0
  -21.2025   -7.6134   23.9702 H   0  0  0  0  0  0
  -21.1468   -6.0517   25.9073 H   0  0  0  0  0  0
  -22.0605   -2.7593   23.2866 H   0  0  0  0  0  0
  -22.4061  -11.9795   22.4742 H   0  0  0  0  0  0
  -21.1071  -13.1176   22.2643 H   0  0  0  0  0  0
  -24.6715  -15.8545   20.6162 H   0  0  0  0  0  0
  -26.3069  -15.6502   20.2612 H   0  0  0  0  0  0
  -26.7243  -32.5333   23.1009 H   0  0  0  0  0  0
  -25.0024  -33.9597   25.0298 H   0  0  0  0  0  0
  -22.7504  -31.2912   21.3691 H   0  0  0  0  0  0
  -23.3750  -35.9626   23.3304 H   0  0  0  0  0  0
  -24.3610  -36.8942   22.2056 H   0  0  0  0  0  0
  -23.7291  -37.6495   23.6683 H   0  0  0  0  0  0
  -26.1422  -31.5217   20.6150 H   0  0  0  0  0  0
  -26.8596  -30.7949   22.0220 H   0  0  0  0  0  0
  -28.1409  -28.9147   21.1877 H   0  0  0  0  0  0
  -25.9529  -25.8562   19.0570 H   0  0  0  0  0  0
  -23.9818  -27.2598   19.0581 H   0  0  0  0  0  0
  -23.8108  -30.5559   19.3961 H   0  0  0  0  0  0
  -22.7918  -29.2170   19.8417 H   0  0  0  0  0  0
  -25.1316  -36.1906   25.0818 H   0  0  0  0  0  0
  -20.9960  -28.3308   24.1347 H   0  0  0  0  0  0
  -20.5686  -26.2318   23.3612 H   0  0  0  0  0  0
  -21.6652  -26.7454   22.1200 H   0  0  0  0  0  0
  -19.6960  -25.6299   21.1237 H   0  0  0  0  0  0
  -19.6708  -27.3156   20.6691 H   0  0  0  0  0  0
  -17.4235  -26.6664   21.3986 H   0  0  0  0  0  0
  -18.0334  -26.0050   22.8977 H   0  0  0  0  0  0
  -19.7987  -30.7240   24.2199 H   0  0  0  0  0  0
  -17.5078  -31.6237   24.5158 H   0  0  0  0  0  0
  -15.5381  -30.2953   23.7685 H   0  0  0  0  0  0
  -15.8708  -28.0812   22.7039 H   0  0  0  0  0  0
  -24.5887  -30.7082   25.7662 H   0  0  0  0  0  0
  -24.8883  -32.2868   26.4776 H   0  0  0  0  0  0
  -25.7977  -30.8879   27.0173 H   0  0  0  0  0  0
  -26.3009  -29.6625   24.1308 H   0  0  0  0  0  0
  -27.4097  -29.7289   25.4807 H   0  0  0  0  0  0
  -27.8876  -30.4199   23.9491 H   0  0  0  0  0  0
  -27.2667  -33.3652   26.1963 H   0  0  0  0  0  0
  -28.3849  -32.6875   25.0232 H   0  0  0  0  0  0
  -28.0745  -31.8499   26.5394 H   0  0  0  0  0  0
  -28.2565  -38.0100   24.7497 H   0  0  0  0  0  0
  -28.1112  -36.2637   24.6282 H   0  0  0  0  0  0
  -27.2284  -37.1413   25.8842 H   0  0  0  0  0  0
  -20.9481  -29.8817   21.6799 H   0  0  0  0  0  0
  -26.0192  -38.2823   24.1405 H   0  0  0  0  0  0
  -30.0021  -24.1763   18.2170 H   0  0  0  0  0  0
  -30.6905  -25.1156   19.5423 H   0  0  0  0  0  0
  -29.9064  -25.9238   18.1870 H   0  0  0  0  0  0
  -32.8058  -17.1325   23.2800 H   0  0  0  0  0  0
  -32.9268  -16.1322   21.8582 H   0  0  0  0  0  0
  -31.5015  -16.0267   22.9104 H   0  0  0  0  0  0
  -33.4299  -18.9717   21.6430 H   0  0  0  0  0  0
  -32.2493  -19.5782   20.4990 H   0  0  0  0  0  0
  -33.1324  -18.1044   20.1469 H   0  0  0  0  0  0
  -30.8147  -17.4651   19.6439 H   0  0  0  0  0  0
  -27.7580  -24.8837   18.7948 H   0  0  0  0  0  0
  -31.1217  -18.4707   22.4068 H   0  0  0  0  0  0
  -28.0516  -17.1936   22.7731 H   0  0  0  0  0  0
  -26.6405  -18.0618   22.5955 H   0  0  0  0  0  0
  -29.4617  -22.5310   19.1355 H   0  0  0  0  0  0
  -28.9614  -15.8607   21.0436 H   0  0  0  0  0  0
  1 25  1  0  0  0
  1 30  2  0  0  0
  1 84  1  0  0  0
  2  3  1  0  0  0
  2 25  1  0  0  0
  2 87  1  0  0  0
  2 88  1  0  0  0
  3  4  1  0  0  0
  3 89  1  0  0  0
  3 90  1  0  0  0
  4  5  1  0  0  0
  4 91  1  0  0  0
  4 92  1  0  0  0
  5  6  1  0  0  0
  5 26  1  0  0  0
  5 93  1  0  0  0
  6 25  1  0  0  0
  6 94  1  0  0  0
  6 95  1  0  0  0
  7  8  2  0  0  0
  7 26  1  0  0  0
  7 29  1  0  0  0
  8  9  1  0  0  0
  8 22  1  0  0  0
  9 10  1  0  0  0
  9 27  2  0  0  0
 10 11  2  0  0  0
 10 15  1  0  0  0
 11 12  1  0  0  0
 11 96  1  0  0  0
 12 13  2  0  0  0
 12 97  1  0  0  0
 13 14  1  0  0  0
 13 31  1  0  0  0
 14 15  2  0  0  0
 14 98  1  0  0  0
 15 99  1  0  0  0
 16 17  2  0  0  0
 16 21  1  0  0  0
 16 31  1  0  0  0
 17 18  1  0  0  0
 17100  1  0  0  0
 18 19  2  0  0  0
 18101  1  0  0  0
 19 20  1  0  0  0
 19 24  1  0  0  0
 20 21  2  0  0  0
 20102  1  0  0  0
 21 23  1  0  0  0
 22 28  1  0  0  0
 22 32  2  0  0  0
 26 27  1  0  0  0
 28103  1  0  0  0
 28104  1  0  0  0
 29105  1  0  0  0
 29106  1  0  0  0
 33 34  1  0  0  0
 33 66  1  0  0  0
 33 70  2  0  0  0
 34 36  1  0  0  0
 34 59  1  0  0  0
 34107  1  0  0  0
 35 44  2  0  0  0
 35 45  1  0  0  0
 35 68  1  0  0  0
 36 56  1  0  0  0
 36108  1  0  0  0
 37 39  1  0  0  0
 37 47  1  0  0  0
 37 66  1  0  0  0
 37109  1  0  0  0
 38 43  2  0  0  0
 38 46  1  0  0  0
 38 47  1  0  0  0
 39 64  1  0  0  0
 39 67  2  0  0  0
 40 52  1  0  0  0
 40 53  2  0  0  0
 40 58  1  0  0  0
 41110  1  0  0  0
 41111  1  0  0  0
 41112  1  0  0  0
 41 48  1  0  0  0
 42 43  1  0  0  0
 42 66  1  0  0  0
 42113  1  0  0  0
 42114  1  0  0  0
 43 44  1  0  0  0
 44115  1  0  0  0
 45 46  2  0  0  0
 45116  1  0  0  0
 46117  1  0  0  0
 47118  1  0  0  0
 47119  1  0  0  0
 48 56  1  0  0  0
 48 65  1  0  0  0
 48120  1  0  0  0
 49 50  1  0  0  0
 49 53  1  0  0  0
 49 64  1  0  0  0
 49121  1  0  0  0
 50 51  1  0  0  0
 50122  1  0  0  0
 50123  1  0  0  0
 51 52  1  0  0  0
 51124  1  0  0  0
 51125  1  0  0  0
 52126  1  0  0  0
 52127  1  0  0  0
 53 54  1  0  0  0
 54 55  2  0  0  0
 54128  1  0  0  0
 55 57  1  0  0  0
 55129  1  0  0  0
 56 69  2  0  0  0
 57 58  2  0  0  0
 57130  1  0  0  0
 58131  1  0  0  0
 59 60  1  0  0  0
 59 61  1  0  0  0
 59 62  1  0  0  0
 60132  1  0  0  0
 60133  1  0  0  0
 60134  1  0  0  0
 61135  1  0  0  0
 61136  1  0  0  0
 61137  1  0  0  0
 62138  1  0  0  0
 62139  1  0  0  0
 62140  1  0  0  0
 63 65  1  0  0  0
 63141  1  0  0  0
 63142  1  0  0  0
 63143  1  0  0  0
 64144  1  0  0  0
 65145  1  0  0  0
 68 79  1  0  0  0
 71 72  2  0  0  0
 71 78  1  0  0  0
 71 81  1  0  0  0
 72 82  1  0  0  0
 72 86  1  0  0  0
 73 81  2  0  0  0
 73 83  1  0  0  0
 73 86  1  0  0  0
 74 79  1  0  0  0
 74 83  1  0  0  0
 74 85  2  0  0  0
 75146  1  0  0  0
 75147  1  0  0  0
 75148  1  0  0  0
 75 79  1  0  0  0
 76149  1  0  0  0
 76150  1  0  0  0
 76151  1  0  0  0
 76 80  1  0  0  0
 77 80  1  0  0  0
 77152  1  0  0  0
 77153  1  0  0  0
 77154  1  0  0  0
 78 80  1  0  0  0
 78 84  1  0  0  0
 78155  1  0  0  0
 79156  1  0  0  0
 80157  1  0  0  0
 82158  1  0  0  0
 82159  1  0  0  0
 83160  1  0  0  0
 84161  1  0  0  0
M  ISO  4   1 100  68 101  79 101  84 100
M  END
> <chiral flag>
0

> <version>
0

> <s_m_source_file>
/data/baiqing/PycharmProjects/Reinvent-master-3.2/result/LINK_invent/BTK/process_docking_weight1_custom_product_contain_oxygen_bond_distance_aromatic_linkinvent_7_9_3/rearranged_h_0188.sdf

> <i_m_source_file_index>
51

> <r_mmod_Potential_Energy-OPLS-2005>
149.577651977539

> <r_mmod_Stretch_Energy-OPLS-2005>
149.266250610352

> <r_mmod_Bend_Energy-OPLS-2005>
205.226119995117

> <r_mmod_Torsional_Energy-OPLS-2005>
225.54541015625

> <r_mmod_Improper_Torsional_Energy-OPLS-2005>
8.57923412322998

> <r_mmod_Van_der_Waal_Energy-OPLS-2005>
118.964370727539

> <r_mmod_Electrostatic_Energy-OPLS-2005>
-427.626159667969

> <r_mmod_Solvation_Energy-OPLS-2005>
-235.139907836914

> <b_mmod_Minimization_Converged-OPLS-2005>
0

> <r_mmod_RMS_Derivative-OPLS-2005>
4.74810266494751

$$$$
52
                    3D
 Structure written by MMmdl.
149157  0  0  1  0            999 V2000
  -30.5713  -14.7781   20.4436 C   0  0  0  0  0  0
  -30.4267  -12.4653   19.4739 C   0  0  0  0  0  0
  -29.5084  -12.5162   18.2330 C   0  0  0  0  0  0
  -28.0361  -12.3283   18.6521 C   0  0  0  0  0  0
  -27.6383  -13.2283   19.8513 C   0  0  2  0  0  0
  -28.6842  -13.1622   20.9854 C   0  0  0  0  0  0
  -25.2484  -13.8179   20.5732 C   0  0  0  0  0  0
  -24.1777  -13.0435   20.9241 C   0  0  0  0  0  0
  -24.6356  -11.6902   20.8763 C   0  0  0  0  0  0
  -23.9042  -10.4288   21.0411 C   0  0  0  0  0  0
  -24.3594   -9.4212   21.9199 C   0  0  0  0  0  0
  -23.6273   -8.2248   22.0765 C   0  0  0  0  0  0
  -22.4267   -8.0272   21.3544 C   0  0  0  0  0  0
  -21.9892   -9.0242   20.4654 C   0  0  0  0  0  0
  -22.7212  -10.2127   20.3059 C   0  0  0  0  0  0
  -21.6843   -6.0724   22.5282 C   0  0  0  0  0  0
  -21.4017   -6.5629   23.8219 C   0  0  0  0  0  0
  -21.3667   -5.6786   24.9177 C   0  0  0  0  0  0
  -21.6040   -4.3050   24.7234 C   0  0  0  0  0  0
  -21.8815   -3.8132   23.4359 C   0  0  0  0  0  0
  -21.9188   -4.6948   22.3407 C   0  0  0  0  0  0
  -22.7806  -13.5219   21.1893 C   0  0  0  0  0  0
  -22.1651   -4.2128   21.0990 F   0  0  0  0  0  0
  -21.5626   -3.4542   25.7753 F   0  0  0  0  0  0
  -29.9761  -13.5316   20.3994 N   0  0  0  0  0  0
  -26.2909  -12.9381   20.3287 N   0  0  0  0  0  0
  -25.9285  -11.6523   20.5754 N   0  0  0  0  0  0
  -22.0414  -12.8235   22.0437 N   0  0  0  0  0  0
  -25.4150  -15.1916   20.4156 N   0  0  0  0  0  0
  -31.7668  -14.8738   20.1491 O   0  0  0  0  0  0
  -21.6632   -6.8869   21.4243 O   0  0  0  0  0  0
  -22.3521  -14.5526   20.6715 O   0  0  0  0  0  0
  -24.6340  -31.8523   23.1937 C   0  0  0  0  0  0
  -25.9150  -32.4757   23.8302 C   0  0  1  0  0  0
  -27.2282  -27.2396   20.1396 C   0  0  0  0  0  0
  -25.5954  -33.8551   24.2253 N   0  0  0  0  0  0
  -23.4331  -30.4643   21.5449 C   0  0  2  0  0  0
  -24.8808  -28.8969   20.1185 C   0  0  0  0  0  0
  -22.7579  -29.4491   22.4957 C   0  0  0  0  0  0
  -18.0332  -28.1322   22.8372 C   0  0  0  0  0  0
  -24.1486  -36.7285   23.2641 C   0  0  0  0  0  0
  -25.9742  -30.7593   21.3699 C   0  0  0  0  0  0
  -26.0525  -29.3737   20.7226 C   0  0  0  0  0  0
  -27.2322  -28.5624   20.7071 C   0  0  0  0  0  0
  -26.0338  -26.8207   19.5262 C   0  0  0  0  0  0
  -24.8783  -27.6323   19.5037 C   0  0  0  0  0  0
  -23.6497  -29.7860   20.1654 C   0  0  0  0  0  0
  -25.4108  -36.3072   24.0334 C   0  0  1  0  0  0
  -20.5943  -28.3498   23.1093 C   0  0  2  0  0  0
  -20.6889  -26.9264   22.5071 C   0  0  0  0  0  0
  -19.5729  -26.6000   21.5127 C   0  0  0  0  0  0
  -18.1909  -26.7869   22.1480 C   0  0  0  0  0  0
  -19.1620  -28.8720   23.2758 C   0  0  0  0  0  0
  -18.9646  -30.1326   23.8804 C   0  0  0  0  0  0
  -17.6682  -30.6551   24.0540 C   0  0  0  0  0  0
  -25.9050  -34.9448   23.5085 C   0  0  0  0  0  0
  -16.5516  -29.9107   23.6346 C   0  0  0  0  0  0
  -16.7353  -28.6527   23.0277 C   0  0  0  0  0  0
  -26.4507  -31.6592   25.0699 C   0  0  0  0  0  0
  -25.3715  -31.3725   26.1402 C   0  0  0  0  0  0
  -27.0359  -30.3023   24.6161 C   0  0  0  0  0  0
  -27.6061  -32.4294   25.7514 C   0  0  0  0  0  0
  -27.5574  -37.1801   24.8471 C   0  0  0  0  0  0
  -21.4303  -29.2947   22.3660 N   0  0  0  0  0  0
  -26.4285  -37.3768   23.9410 N   0  0  0  0  0  0
  -24.7007  -31.0417   22.0953 N   0  0  0  0  0  0
  -23.4243  -28.8015   23.3051 O   0  0  0  0  0  0
  -28.3472  -26.3732   20.1076 O   0  0  0  0  0  0
  -26.5605  -34.8928   22.4636 O   0  0  0  0  0  0
  -23.5489  -32.1339   23.7244 O   0  0  0  0  0  0
  -30.0058  -17.3618   20.5726 C   0  0  0  0  0  0
  -29.5413  -19.6400   20.4611 C   0  0  0  0  0  0
  -29.1724  -22.2507   20.4566 C   0  0  0  0  0  0
  -27.4906  -24.9594   21.9882 C   0  0  0  0  0  0
  -28.3417  -23.5496   19.9375 C   0  0  0  0  0  0
  -28.3790  -24.9882   20.7334 C   0  0  1  0  0  0
  -29.0441  -18.3543   20.3931 N   0  0  0  0  0  0
  -31.2532  -17.8206   20.7843 N   0  0  0  0  0  0
  -29.7411  -15.8941   20.5845 N   0  0  0  0  0  0
  -28.7931  -20.9216   20.2341 N   0  0  0  0  0  0
  -30.2159  -22.4831   21.0692 O   0  0  0  0  0  0
  -31.2618  -19.5302   20.7741 S   0  0  0  0  0  0
  -31.4709  -12.5756   19.1799 H   0  0  0  0  0  0
  -30.3554  -11.4851   19.9501 H   0  0  0  0  0  0
  -29.7942  -11.7442   17.5172 H   0  0  0  0  0  0
  -29.6349  -13.4696   17.7178 H   0  0  0  0  0  0
  -27.9069  -11.2801   18.9236 H   0  0  0  0  0  0
  -27.3720  -12.5040   17.8054 H   0  0  0  0  0  0
  -27.6285  -14.2475   19.4684 H   0  0  0  0  0  0
  -28.7349  -12.1591   21.4124 H   0  0  0  0  0  0
  -28.4186  -13.8296   21.8078 H   0  0  0  0  0  0
  -25.2726   -9.5704   22.4793 H   0  0  0  0  0  0
  -23.9969   -7.4646   22.7497 H   0  0  0  0  0  0
  -21.0821   -8.8750   19.8973 H   0  0  0  0  0  0
  -22.3647  -10.9662   19.6173 H   0  0  0  0  0  0
  -21.2012   -7.6142   23.9713 H   0  0  0  0  0  0
  -21.1495   -6.0527   25.9087 H   0  0  0  0  0  0
  -22.0586   -2.7596   23.2869 H   0  0  0  0  0  0
  -22.3968  -11.9880   22.4845 H   0  0  0  0  0  0
  -21.1034  -13.1306   22.2608 H   0  0  0  0  0  0
  -24.6387  -15.8361   20.5248 H   0  0  0  0  0  0
  -26.2455  -15.6384   20.0471 H   0  0  0  0  0  0
  -26.7209  -32.5420   23.1038 H   0  0  0  0  0  0
  -25.0176  -33.9695   25.0454 H   0  0  0  0  0  0
  -22.7241  -31.2810   21.4026 H   0  0  0  0  0  0
  -23.3758  -35.9612   23.3297 H   0  0  0  0  0  0
  -24.3588  -36.8900   22.2058 H   0  0  0  0  0  0
  -23.7231  -37.6475   23.6664 H   0  0  0  0  0  0
  -26.0918  -31.5074   20.5851 H   0  0  0  0  0  0
  -26.8604  -30.8307   21.9890 H   0  0  0  0  0  0
  -28.1408  -28.9333   21.1613 H   0  0  0  0  0  0
  -25.9992  -25.8431   19.0681 H   0  0  0  0  0  0
  -23.9835  -27.2641   19.0203 H   0  0  0  0  0  0
  -23.7753  -30.5575   19.4066 H   0  0  0  0  0  0
  -22.7694  -29.2149   19.8647 H   0  0  0  0  0  0
  -25.1291  -36.1912   25.0831 H   0  0  0  0  0  0
  -21.0015  -28.2916   24.1209 H   0  0  0  0  0  0
  -20.6239  -26.1933   23.3116 H   0  0  0  0  0  0
  -21.6634  -26.7523   22.0489 H   0  0  0  0  0  0
  -19.6728  -25.5691   21.1672 H   0  0  0  0  0  0
  -19.6767  -27.2315   20.6298 H   0  0  0  0  0  0
  -17.4224  -26.6596   21.3827 H   0  0  0  0  0  0
  -18.0157  -26.0068   22.8879 H   0  0  0  0  0  0
  -19.8222  -30.7035   24.2103 H   0  0  0  0  0  0
  -17.5347  -31.6251   24.5159 H   0  0  0  0  0  0
  -15.5551  -30.3056   23.7747 H   0  0  0  0  0  0
  -15.8715  -28.0907   22.6982 H   0  0  0  0  0  0
  -24.5905  -30.7068   25.7708 H   0  0  0  0  0  0
  -24.8899  -32.2891   26.4818 H   0  0  0  0  0  0
  -25.8029  -30.8898   27.0186 H   0  0  0  0  0  0
  -26.2966  -29.6769   24.1145 H   0  0  0  0  0  0
  -27.4017  -29.7265   25.4670 H   0  0  0  0  0  0
  -27.8836  -30.4304   23.9425 H   0  0  0  0  0  0
  -27.2687  -33.3590   26.2105 H   0  0  0  0  0  0
  -28.3920  -32.6830   25.0393 H   0  0  0  0  0  0
  -28.0671  -31.8381   26.5432 H   0  0  0  0  0  0
  -28.2587  -38.0101   24.7516 H   0  0  0  0  0  0
  -28.1074  -36.2631   24.6302 H   0  0  0  0  0  0
  -27.2306  -37.1456   25.8879 H   0  0  0  0  0  0
  -20.9574  -29.8811   21.6931 H   0  0  0  0  0  0
  -26.0169  -38.2847   24.1389 H   0  0  0  0  0  0
  -27.6917  -24.0718   22.5897 H   0  0  0  0  0  0
  -26.4312  -24.9514   21.7301 H   0  0  0  0  0  0
  -27.6766  -25.8303   22.6187 H   0  0  0  0  0  0
  -27.3042  -23.2551   19.7720 H   0  0  0  0  0  0
  -28.7421  -23.7374   18.9412 H   0  0  0  0  0  0
  -29.3912  -25.0022   21.1348 H   0  0  0  0  0  0
  -28.7705  -15.6568   20.6999 H   0  0  0  0  0  0
  -27.8787  -20.8045   19.8228 H   0  0  0  0  0  0
  1 25  1  0  0  0
  1 30  2  0  0  0
  1 79  1  0  0  0
  2  3  1  0  0  0
  2 25  1  0  0  0
  2 83  1  0  0  0
  2 84  1  0  0  0
  3  4  1  0  0  0
  3 85  1  0  0  0
  3 86  1  0  0  0
  4  5  1  0  0  0
  4 87  1  0  0  0
  4 88  1  0  0  0
  5  6  1  0  0  0
  5 26  1  0  0  0
  5 89  1  0  0  0
  6 25  1  0  0  0
  6 90  1  0  0  0
  6 91  1  0  0  0
  7  8  2  0  0  0
  7 26  1  0  0  0
  7 29  1  0  0  0
  8  9  1  0  0  0
  8 22  1  0  0  0
  9 10  1  0  0  0
  9 27  2  0  0  0
 10 11  2  0  0  0
 10 15  1  0  0  0
 11 12  1  0  0  0
 11 92  1  0  0  0
 12 13  2  0  0  0
 12 93  1  0  0  0
 13 14  1  0  0  0
 13 31  1  0  0  0
 14 15  2  0  0  0
 14 94  1  0  0  0
 15 95  1  0  0  0
 16 17  2  0  0  0
 16 21  1  0  0  0
 16 31  1  0  0  0
 17 18  1  0  0  0
 17 96  1  0  0  0
 18 19  2  0  0  0
 18 97  1  0  0  0
 19 20  1  0  0  0
 19 24  1  0  0  0
 20 21  2  0  0  0
 20 98  1  0  0  0
 21 23  1  0  0  0
 22 28  1  0  0  0
 22 32  2  0  0  0
 26 27  1  0  0  0
 28 99  1  0  0  0
 28100  1  0  0  0
 29101  1  0  0  0
 29102  1  0  0  0
 33 34  1  0  0  0
 33 66  1  0  0  0
 33 70  2  0  0  0
 34 36  1  0  0  0
 34 59  1  0  0  0
 34103  1  0  0  0
 35 44  2  0  0  0
 35 45  1  0  0  0
 35 68  1  0  0  0
 36 56  1  0  0  0
 36104  1  0  0  0
 37 39  1  0  0  0
 37 47  1  0  0  0
 37 66  1  0  0  0
 37105  1  0  0  0
 38 43  2  0  0  0
 38 46  1  0  0  0
 38 47  1  0  0  0
 39 64  1  0  0  0
 39 67  2  0  0  0
 40 52  1  0  0  0
 40 53  2  0  0  0
 40 58  1  0  0  0
 41106  1  0  0  0
 41107  1  0  0  0
 41108  1  0  0  0
 41 48  1  0  0  0
 42 43  1  0  0  0
 42 66  1  0  0  0
 42109  1  0  0  0
 42110  1  0  0  0
 43 44  1  0  0  0
 44111  1  0  0  0
 45 46  2  0  0  0
 45112  1  0  0  0
 46113  1  0  0  0
 47114  1  0  0  0
 47115  1  0  0  0
 48 56  1  0  0  0
 48 65  1  0  0  0
 48116  1  0  0  0
 49 50  1  0  0  0
 49 53  1  0  0  0
 49 64  1  0  0  0
 49117  1  0  0  0
 50 51  1  0  0  0
 50118  1  0  0  0
 50119  1  0  0  0
 51 52  1  0  0  0
 51120  1  0  0  0
 51121  1  0  0  0
 52122  1  0  0  0
 52123  1  0  0  0
 53 54  1  0  0  0
 54 55  2  0  0  0
 54124  1  0  0  0
 55 57  1  0  0  0
 55125  1  0  0  0
 56 69  2  0  0  0
 57 58  2  0  0  0
 57126  1  0  0  0
 58127  1  0  0  0
 59 60  1  0  0  0
 59 61  1  0  0  0
 59 62  1  0  0  0
 60128  1  0  0  0
 60129  1  0  0  0
 60130  1  0  0  0
 61131  1  0  0  0
 61132  1  0  0  0
 61133  1  0  0  0
 62134  1  0  0  0
 62135  1  0  0  0
 62136  1  0  0  0
 63 65  1  0  0  0
 63137  1  0  0  0
 63138  1  0  0  0
 63139  1  0  0  0
 64140  1  0  0  0
 65141  1  0  0  0
 68 76  1  0  0  0
 71 77  1  0  0  0
 71 78  2  0  0  0
 71 79  1  0  0  0
 72 77  2  0  0  0
 72 80  1  0  0  0
 72 82  1  0  0  0
 73 75  1  0  0  0
 73 80  1  0  0  0
 73 81  2  0  0  0
 74142  1  0  0  0
 74143  1  0  0  0
 74144  1  0  0  0
 74 76  1  0  0  0
 75 76  1  0  0  0
 75145  1  0  0  0
 75146  1  0  0  0
 76147  1  0  0  0
 78 82  1  0  0  0
 79148  1  0  0  0
 80149  1  0  0  0
M  ISO  4   1 100  68 101  76 101  79 100
M  END
> <chiral flag>
0

> <version>
0

> <s_m_source_file>
/data/baiqing/PycharmProjects/Reinvent-master-3.2/result/LINK_invent/BTK/process_docking_weight1_custom_product_contain_oxygen_bond_distance_aromatic_linkinvent_7_9_3/rearranged_h_0188.sdf

> <i_m_source_file_index>
52

> <r_mmod_Potential_Energy-OPLS-2005>
92.0701904296875

> <r_mmod_Stretch_Energy-OPLS-2005>
146.677307128906

> <r_mmod_Bend_Energy-OPLS-2005>
201.406555175781

> <r_mmod_Torsional_Energy-OPLS-2005>
219.391784667969

> <r_mmod_Improper_Torsional_Energy-OPLS-2005>
5.78288459777832

> <r_mmod_Van_der_Waal_Energy-OPLS-2005>
112.028701782227

> <r_mmod_Electrostatic_Energy-OPLS-2005>
-446.571136474609

> <r_mmod_Solvation_Energy-OPLS-2005>
-241.397415161133

> <b_mmod_Minimization_Converged-OPLS-2005>
0

> <r_mmod_RMS_Derivative-OPLS-2005>
4.18649482727051

$$$$
53
                    3D
 Structure written by MMmdl.
149157  0  0  1  0            999 V2000
  -30.5034  -15.0322   20.4050 C   0  0  0  0  0  0
  -30.4449  -12.6431   19.5007 C   0  0  0  0  0  0
  -29.5259  -12.5411   18.2599 C   0  0  0  0  0  0
  -28.0618  -12.3111   18.6796 C   0  0  0  0  0  0
  -27.6260  -13.2516   19.8320 C   0  0  2  0  0  0
  -28.6681  -13.3122   20.9683 C   0  0  0  0  0  0
  -25.2448  -13.8200   20.5713 C   0  0  0  0  0  0
  -24.1770  -13.0424   20.9236 C   0  0  0  0  0  0
  -24.6391  -11.6913   20.8750 C   0  0  0  0  0  0
  -23.9074  -10.4286   21.0400 C   0  0  0  0  0  0
  -24.3617   -9.4202   21.9181 C   0  0  0  0  0  0
  -23.6293   -8.2237   22.0749 C   0  0  0  0  0  0
  -22.4278   -8.0273   21.3540 C   0  0  0  0  0  0
  -21.9913   -9.0246   20.4643 C   0  0  0  0  0  0
  -22.7241  -10.2126   20.3051 C   0  0  0  0  0  0
  -21.6854   -6.0732   22.5280 C   0  0  0  0  0  0
  -21.4012   -6.5637   23.8215 C   0  0  0  0  0  0
  -21.3662   -5.6789   24.9179 C   0  0  0  0  0  0
  -21.6051   -4.3051   24.7227 C   0  0  0  0  0  0
  -21.8820   -3.8140   23.4350 C   0  0  0  0  0  0
  -21.9185   -4.6957   22.3403 C   0  0  0  0  0  0
  -22.7791  -13.5198   21.1891 C   0  0  0  0  0  0
  -22.1656   -4.2140   21.0982 F   0  0  0  0  0  0
  -21.5635   -3.4540   25.7742 F   0  0  0  0  0  0
  -29.9329  -13.7518   20.3627 N   0  0  0  0  0  0
  -26.2872  -12.9442   20.3219 N   0  0  0  0  0  0
  -25.9324  -11.6572   20.5715 N   0  0  0  0  0  0
  -22.0431  -12.8191   22.0451 N   0  0  0  0  0  0
  -25.4085  -15.1933   20.4146 N   0  0  0  0  0  0
  -31.7151  -15.0855   20.1637 O   0  0  0  0  0  0
  -21.6641   -6.8874   21.4244 O   0  0  0  0  0  0
  -22.3477  -14.5501   20.6724 O   0  0  0  0  0  0
  -24.6492  -31.8373   23.1833 C   0  0  0  0  0  0
  -25.9242  -32.4657   23.8246 C   0  0  1  0  0  0
  -27.2206  -27.0747   20.1651 C   0  0  0  0  0  0
  -25.5969  -33.8464   24.2164 N   0  0  0  0  0  0
  -23.4564  -30.4546   21.5297 C   0  0  2  0  0  0
  -24.9079  -28.8686   20.1121 C   0  0  0  0  0  0
  -22.7599  -29.4512   22.4838 C   0  0  0  0  0  0
  -18.0307  -28.1388   22.8467 C   0  0  0  0  0  0
  -24.1495  -36.7239   23.2644 C   0  0  0  0  0  0
  -26.0161  -30.6925   21.3908 C   0  0  0  0  0  0
  -26.0873  -29.2968   20.7345 C   0  0  0  0  0  0
  -27.2429  -28.4179   20.7402 C   0  0  0  0  0  0
  -26.0132  -26.7627   19.5008 C   0  0  0  0  0  0
  -24.8872  -27.6169   19.4787 C   0  0  0  0  0  0
  -23.6874  -29.7782   20.1517 C   0  0  0  0  0  0
  -25.4128  -36.3012   24.0315 C   0  0  1  0  0  0
  -20.5924  -28.3724   23.1217 C   0  0  2  0  0  0
  -20.6782  -26.9419   22.5400 C   0  0  0  0  0  0
  -19.5763  -26.6372   21.5200 C   0  0  0  0  0  0
  -18.1947  -26.7925   22.1612 C   0  0  0  0  0  0
  -19.1565  -28.8875   23.2831 C   0  0  0  0  0  0
  -18.9482  -30.1468   23.8860 C   0  0  0  0  0  0
  -17.6477  -30.6583   24.0551 C   0  0  0  0  0  0
  -25.9085  -34.9384   23.5052 C   0  0  0  0  0  0
  -16.5367  -29.9076   23.6332 C   0  0  0  0  0  0
  -16.7291  -28.6494   23.0356 C   0  0  0  0  0  0
  -26.4548  -31.6540   25.0708 C   0  0  0  0  0  0
  -25.3723  -31.3742   26.1400 C   0  0  0  0  0  0
  -27.0412  -30.2924   24.6327 C   0  0  0  0  0  0
  -27.6076  -32.4306   25.7493 C   0  0  0  0  0  0
  -27.5576  -37.1781   24.8466 C   0  0  0  0  0  0
  -21.4285  -29.3038   22.3586 N   0  0  0  0  0  0
  -26.4289  -37.3731   23.9407 N   0  0  0  0  0  0
  -24.7274  -31.0174   22.0894 N   0  0  0  0  0  0
  -23.4211  -28.8067   23.3018 O   0  0  0  0  0  0
  -28.2602  -26.0553   20.2383 O   0  0  0  0  0  0
  -26.5676  -34.8895   22.4636 O   0  0  0  0  0  0
  -23.5597  -32.1273   23.7022 O   0  0  0  0  0  0
  -31.0279  -18.5107   20.6382 C   0  0  0  0  0  0
  -29.8269  -17.7539   20.4574 C   0  0  0  0  0  0
  -30.7447  -19.8768   20.6034 C   0  0  0  0  0  0
  -28.5209  -21.4628   20.2059 C   0  0  0  0  0  0
  -27.9734  -24.4969   20.1338 C   0  0  0  0  0  0
  -28.9791  -23.1136   20.3776 C   0  0  1  0  0  0
  -28.8493  -18.7596   20.3104 N   0  0  0  0  0  0
  -29.3778  -20.1033   20.3853 N   0  0  0  0  0  0
  -31.6018  -20.9559   20.7650 N   0  0  0  0  0  0
  -29.6725  -16.2041   20.4888 N   0  0  0  0  0  0
  -32.2615  -17.9880   20.8479 F   0  0  0  0  0  0
  -29.4499  -23.2216   21.6216 F   0  0  0  0  0  0
  -31.4742  -12.8170   19.1824 H   0  0  0  0  0  0
  -30.4593  -11.7010   20.0512 H   0  0  0  0  0  0
  -29.8608  -11.7363   17.6045 H   0  0  0  0  0  0
  -29.5981  -13.4604   17.6759 H   0  0  0  0  0  0
  -27.9711  -11.2725   18.9995 H   0  0  0  0  0  0
  -27.3972  -12.4258   17.8233 H   0  0  0  0  0  0
  -27.5781  -14.2451   19.3855 H   0  0  0  0  0  0
  -28.7759  -12.3436   21.4581 H   0  0  0  0  0  0
  -28.3510  -14.0144   21.7407 H   0  0  0  0  0  0
  -25.2752   -9.5681   22.4767 H   0  0  0  0  0  0
  -24.0003   -7.4626   22.7468 H   0  0  0  0  0  0
  -21.0843   -8.8762   19.8953 H   0  0  0  0  0  0
  -22.3686  -10.9667   19.6167 H   0  0  0  0  0  0
  -21.2008   -7.6145   23.9719 H   0  0  0  0  0  0
  -21.1490   -6.0518   25.9086 H   0  0  0  0  0  0
  -22.0596   -2.7605   23.2850 H   0  0  0  0  0  0
  -22.4040  -11.9850   22.4838 H   0  0  0  0  0  0
  -21.1049  -13.1215   22.2658 H   0  0  0  0  0  0
  -24.6308  -15.8349   20.5275 H   0  0  0  0  0  0
  -26.2383  -15.6430   20.0513 H   0  0  0  0  0  0
  -26.7306  -32.5248   23.0968 H   0  0  0  0  0  0
  -25.0089  -33.9568   25.0298 H   0  0  0  0  0  0
  -22.7617  -31.2816   21.3695 H   0  0  0  0  0  0
  -23.3762  -35.9567   23.3293 H   0  0  0  0  0  0
  -24.3579  -36.8886   22.2061 H   0  0  0  0  0  0
  -23.7250  -37.6430   23.6690 H   0  0  0  0  0  0
  -26.1768  -31.4424   20.6147 H   0  0  0  0  0  0
  -26.8837  -30.7462   22.0364 H   0  0  0  0  0  0
  -28.1388  -28.7405   21.2520 H   0  0  0  0  0  0
  -25.9037  -25.8075   19.0100 H   0  0  0  0  0  0
  -23.9875  -27.2843   18.9784 H   0  0  0  0  0  0
  -23.8310  -30.5487   19.3936 H   0  0  0  0  0  0
  -22.8006  -29.2238   19.8392 H   0  0  0  0  0  0
  -25.1321  -36.1831   25.0808 H   0  0  0  0  0  0
  -21.0009  -28.3312   24.1340 H   0  0  0  0  0  0
  -20.5644  -26.2342   23.3629 H   0  0  0  0  0  0
  -21.6655  -26.7397   22.1223 H   0  0  0  0  0  0
  -19.6927  -25.6275   21.1252 H   0  0  0  0  0  0
  -19.6702  -27.3164   20.6718 H   0  0  0  0  0  0
  -17.4214  -26.6660   21.4018 H   0  0  0  0  0  0
  -18.0351  -26.0072   22.9014 H   0  0  0  0  0  0
  -19.7960  -30.7287   24.2217 H   0  0  0  0  0  0
  -17.5033  -31.6260   24.5159 H   0  0  0  0  0  0
  -15.5368  -30.2965   23.7673 H   0  0  0  0  0  0
  -15.8691  -28.0797   22.7092 H   0  0  0  0  0  0
  -24.5938  -30.7039   25.7735 H   0  0  0  0  0  0
  -24.8869  -32.2917   26.4729 H   0  0  0  0  0  0
  -25.8012  -30.8998   27.0236 H   0  0  0  0  0  0
  -26.3038  -29.6637   24.1323 H   0  0  0  0  0  0
  -27.3985  -29.7238   25.4921 H   0  0  0  0  0  0
  -27.8964  -30.4135   23.9679 H   0  0  0  0  0  0
  -27.2685  -33.3641   26.1993 H   0  0  0  0  0  0
  -28.3933  -32.6802   25.0349 H   0  0  0  0  0  0
  -28.0695  -31.8475   26.5472 H   0  0  0  0  0  0
  -28.2590  -38.0079   24.7504 H   0  0  0  0  0  0
  -28.1077  -36.2608   24.6302 H   0  0  0  0  0  0
  -27.2295  -37.1439   25.8870 H   0  0  0  0  0  0
  -20.9512  -29.8751   21.6755 H   0  0  0  0  0  0
  -26.0149  -38.2800   24.1400 H   0  0  0  0  0  0
  -28.1065  -21.3902   19.2007 H   0  0  0  0  0  0
  -27.6560  -21.3341   20.8554 H   0  0  0  0  0  0
  -27.1122  -24.3396   20.7845 H   0  0  0  0  0  0
  -27.5824  -24.3623   19.1258 H   0  0  0  0  0  0
  -29.8465  -23.2565   19.7341 H   0  0  0  0  0  0
  -32.5559  -20.8131   21.0744 H   0  0  0  0  0  0
  -31.2539  -21.8911   20.9371 H   0  0  0  0  0  0
  -28.7067  -15.9331   20.5635 H   0  0  0  0  0  0
  1 25  1  0  0  0
  1 30  2  0  0  0
  1 80  1  0  0  0
  2  3  1  0  0  0
  2 25  1  0  0  0
  2 83  1  0  0  0
  2 84  1  0  0  0
  3  4  1  0  0  0
  3 85  1  0  0  0
  3 86  1  0  0  0
  4  5  1  0  0  0
  4 87  1  0  0  0
  4 88  1  0  0  0
  5  6  1  0  0  0
  5 26  1  0  0  0
  5 89  1  0  0  0
  6 25  1  0  0  0
  6 90  1  0  0  0
  6 91  1  0  0  0
  7  8  2  0  0  0
  7 26  1  0  0  0
  7 29  1  0  0  0
  8  9  1  0  0  0
  8 22  1  0  0  0
  9 10  1  0  0  0
  9 27  2  0  0  0
 10 11  2  0  0  0
 10 15  1  0  0  0
 11 12  1  0  0  0
 11 92  1  0  0  0
 12 13  2  0  0  0
 12 93  1  0  0  0
 13 14  1  0  0  0
 13 31  1  0  0  0
 14 15  2  0  0  0
 14 94  1  0  0  0
 15 95  1  0  0  0
 16 17  2  0  0  0
 16 21  1  0  0  0
 16 31  1  0  0  0
 17 18  1  0  0  0
 17 96  1  0  0  0
 18 19  2  0  0  0
 18 97  1  0  0  0
 19 20  1  0  0  0
 19 24  1  0  0  0
 20 21  2  0  0  0
 20 98  1  0  0  0
 21 23  1  0  0  0
 22 28  1  0  0  0
 22 32  2  0  0  0
 26 27  1  0  0  0
 28 99  1  0  0  0
 28100  1  0  0  0
 29101  1  0  0  0
 29102  1  0  0  0
 33 34  1  0  0  0
 33 66  1  0  0  0
 33 70  2  0  0  0
 34 36  1  0  0  0
 34 59  1  0  0  0
 34103  1  0  0  0
 35 44  2  0  0  0
 35 45  1  0  0  0
 35 68  1  0  0  0
 36 56  1  0  0  0
 36104  1  0  0  0
 37 39  1  0  0  0
 37 47  1  0  0  0
 37 66  1  0  0  0
 37105  1  0  0  0
 38 43  2  0  0  0
 38 46  1  0  0  0
 38 47  1  0  0  0
 39 64  1  0  0  0
 39 67  2  0  0  0
 40 52  1  0  0  0
 40 53  2  0  0  0
 40 58  1  0  0  0
 41106  1  0  0  0
 41107  1  0  0  0
 41108  1  0  0  0
 41 48  1  0  0  0
 42 43  1  0  0  0
 42 66  1  0  0  0
 42109  1  0  0  0
 42110  1  0  0  0
 43 44  1  0  0  0
 44111  1  0  0  0
 45 46  2  0  0  0
 45112  1  0  0  0
 46113  1  0  0  0
 47114  1  0  0  0
 47115  1  0  0  0
 48 56  1  0  0  0
 48 65  1  0  0  0
 48116  1  0  0  0
 49 50  1  0  0  0
 49 53  1  0  0  0
 49 64  1  0  0  0
 49117  1  0  0  0
 50 51  1  0  0  0
 50118  1  0  0  0
 50119  1  0  0  0
 51 52  1  0  0  0
 51120  1  0  0  0
 51121  1  0  0  0
 52122  1  0  0  0
 52123  1  0  0  0
 53 54  1  0  0  0
 54 55  2  0  0  0
 54124  1  0  0  0
 55 57  1  0  0  0
 55125  1  0  0  0
 56 69  2  0  0  0
 57 58  2  0  0  0
 57126  1  0  0  0
 58127  1  0  0  0
 59 60  1  0  0  0
 59 61  1  0  0  0
 59 62  1  0  0  0
 60128  1  0  0  0
 60129  1  0  0  0
 60130  1  0  0  0
 61131  1  0  0  0
 61132  1  0  0  0
 61133  1  0  0  0
 62134  1  0  0  0
 62135  1  0  0  0
 62136  1  0  0  0
 63 65  1  0  0  0
 63137  1  0  0  0
 63138  1  0  0  0
 63139  1  0  0  0
 64140  1  0  0  0
 65141  1  0  0  0
 68 75  1  0  0  0
 71 72  1  0  0  0
 71 73  2  0  0  0
 71 81  1  0  0  0
 72 77  2  0  0  0
 72 80  1  0  0  0
 73 78  1  0  0  0
 73 79  1  0  0  0
 74 76  1  0  0  0
 74 78  1  0  0  0
 74142  1  0  0  0
 74143  1  0  0  0
 75 76  1  0  0  0
 75144  1  0  0  0
 75145  1  0  0  0
 76 82  1  0  0  0
 76146  1  0  0  0
 77 78  1  0  0  0
 79147  1  0  0  0
 79148  1  0  0  0
 80149  1  0  0  0
M  ISO  4   1 100  68 101  75 101  80 100
M  END
> <chiral flag>
0

> <version>
0

> <s_m_source_file>
/data/baiqing/PycharmProjects/Reinvent-master-3.2/result/LINK_invent/BTK/process_docking_weight1_custom_product_contain_oxygen_bond_distance_aromatic_linkinvent_7_9_3/rearranged_h_0188.sdf

> <i_m_source_file_index>
53

> <r_mmod_Potential_Energy-OPLS-2005>
638.838012695312

> <r_mmod_Stretch_Energy-OPLS-2005>
332.764801025391

> <r_mmod_Bend_Energy-OPLS-2005>
314.324188232422

> <r_mmod_Torsional_Energy-OPLS-2005>
228.811584472656

> <r_mmod_Improper_Torsional_Energy-OPLS-2005>
6.60400104522705

> <r_mmod_Van_der_Waal_Energy-OPLS-2005>
106.602348327637

> <r_mmod_Electrostatic_Energy-OPLS-2005>
-377.7099609375

> <r_mmod_Solvation_Energy-OPLS-2005>
-226.158767700195

> <b_mmod_Minimization_Converged-OPLS-2005>
0

> <r_mmod_RMS_Derivative-OPLS-2005>
1.25614929199219

$$$$
54
                    3D
 Structure written by MMmdl.
150158  0  0  1  0            999 V2000
  -30.7567  -14.5199   20.6050 C   0  0  0  0  0  0
  -30.4107  -12.3642   19.4281 C   0  0  0  0  0  0
  -29.4855  -12.5294   18.2074 C   0  0  0  0  0  0
  -28.0145  -12.3605   18.6308 C   0  0  0  0  0  0
  -27.6501  -13.2241   19.8694 C   0  0  2  0  0  0
  -28.6998  -13.0728   20.9986 C   0  0  0  0  0  0
  -25.2416  -13.8143   20.5510 C   0  0  0  0  0  0
  -24.1769  -13.0428   20.9214 C   0  0  0  0  0  0
  -24.6387  -11.6909   20.8811 C   0  0  0  0  0  0
  -23.9060  -10.4298   21.0450 C   0  0  0  0  0  0
  -24.3608   -9.4216   21.9212 C   0  0  0  0  0  0
  -23.6291   -8.2238   22.0759 C   0  0  0  0  0  0
  -22.4281   -8.0275   21.3533 C   0  0  0  0  0  0
  -21.9920   -9.0267   20.4655 C   0  0  0  0  0  0
  -22.7242  -10.2153   20.3094 C   0  0  0  0  0  0
  -21.6860   -6.0728   22.5281 C   0  0  0  0  0  0
  -21.4016   -6.5632   23.8208 C   0  0  0  0  0  0
  -21.3668   -5.6787   24.9170 C   0  0  0  0  0  0
  -21.6052   -4.3048   24.7222 C   0  0  0  0  0  0
  -21.8826   -3.8145   23.4343 C   0  0  0  0  0  0
  -21.9201   -4.6950   22.3398 C   0  0  0  0  0  0
  -22.7796  -13.5226   21.1874 C   0  0  0  0  0  0
  -22.1668   -4.2143   21.0970 F   0  0  0  0  0  0
  -21.5628   -3.4535   25.7732 F   0  0  0  0  0  0
  -30.0239  -13.3754   20.4359 N   0  0  0  0  0  0
  -26.2952  -12.9399   20.3344 N   0  0  0  0  0  0
  -25.9332  -11.6547   20.5857 N   0  0  0  0  0  0
  -22.0447  -12.8221   22.0437 N   0  0  0  0  0  0
  -25.3828  -15.1814   20.3451 N   0  0  0  0  0  0
  -31.8489  -14.6699   20.0555 O   0  0  0  0  0  0
  -21.6652   -6.8870   21.4240 O   0  0  0  0  0  0
  -22.3488  -14.5536   20.6717 O   0  0  0  0  0  0
  -24.6214  -31.8645   23.2023 C   0  0  0  0  0  0
  -25.9075  -32.4797   23.8348 C   0  0  1  0  0  0
  -27.2361  -27.3813   20.1149 C   0  0  0  0  0  0
  -25.5922  -33.8593   24.2284 N   0  0  0  0  0  0
  -23.4110  -30.4831   21.5453 C   0  0  2  0  0  0
  -24.8611  -28.9365   20.1179 C   0  0  0  0  0  0
  -22.7449  -29.4650   22.4993 C   0  0  0  0  0  0
  -18.0310  -28.1365   22.8473 C   0  0  0  0  0  0
  -24.1498  -36.7298   23.2640 C   0  0  0  0  0  0
  -25.9460  -30.8150   21.3607 C   0  0  0  0  0  0
  -26.0243  -29.4430   20.7119 C   0  0  0  0  0  0
  -27.2176  -28.6750   20.7008 C   0  0  0  0  0  0
  -26.0567  -26.9007   19.5130 C   0  0  0  0  0  0
  -24.8752  -27.6691   19.5105 C   0  0  0  0  0  0
  -23.6222  -29.8088   20.1631 C   0  0  0  0  0  0
  -25.4106  -36.3084   24.0338 C   0  0  1  0  0  0
  -20.5891  -28.3697   23.1346 C   0  0  2  0  0  0
  -20.6839  -26.9430   22.5421 C   0  0  0  0  0  0
  -19.5849  -26.6475   21.5179 C   0  0  0  0  0  0
  -18.1996  -26.7940   22.1561 C   0  0  0  0  0  0
  -19.1539  -28.8846   23.2905 C   0  0  0  0  0  0
  -18.9442  -30.1433   23.8941 C   0  0  0  0  0  0
  -17.6440  -30.6566   24.0558 C   0  0  0  0  0  0
  -25.9048  -34.9456   23.5098 C   0  0  0  0  0  0
  -16.5341  -29.9044   23.6316 C   0  0  0  0  0  0
  -16.7284  -28.6461   23.0337 C   0  0  0  0  0  0
  -26.4487  -31.6585   25.0700 C   0  0  0  0  0  0
  -25.3738  -31.3719   26.1442 C   0  0  0  0  0  0
  -27.0310  -30.3014   24.6109 C   0  0  0  0  0  0
  -27.6071  -32.4292   25.7451 C   0  0  0  0  0  0
  -27.5577  -37.1795   24.8466 C   0  0  0  0  0  0
  -21.4167  -29.3083   22.3751 N   0  0  0  0  0  0
  -26.4287  -37.3760   23.9422 N   0  0  0  0  0  0
  -24.6775  -31.0700   22.0940 N   0  0  0  0  0  0
  -23.4211  -28.8172   23.3021 O   0  0  0  0  0  0
  -28.3866  -26.6057   20.0859 O   0  0  0  0  0  0
  -26.5590  -34.8909   22.4667 O   0  0  0  0  0  0
  -23.5390  -32.1430   23.7384 O   0  0  0  0  0  0
  -28.1837  -16.6418   21.1647 C   0  0  0  0  0  0
  -29.5513  -16.6451   21.1032 C   0  0  0  0  0  0
  -29.1247  -18.8972   20.7599 C   0  0  0  0  0  0
  -28.6237  -21.3599   20.4389 C   0  0  0  0  0  0
  -28.6805  -24.0337   19.9499 C   0  0  0  0  0  0
  -28.3541  -25.3269   20.7815 C   0  0  0  0  0  0
  -29.1584  -22.7863   20.7955 C   0  0  2  0  0  0
  -30.0820  -17.9499   20.9193 N   0  0  0  0  0  0
  -30.3206  -15.4851   21.4501 N   0  0  0  0  0  0
  -29.4441  -20.2987   20.6694 N   0  0  0  0  0  0
  -27.4887  -21.2404   19.9653 O   0  0  0  0  0  0
  -30.4955  -22.7561   20.8173 F   0  0  0  0  0  0
  -27.4964  -18.2175   20.8450 S   0  0  0  0  0  0
  -31.4534  -12.4448   19.1182 H   0  0  0  0  0  0
  -30.3095  -11.3619   19.8472 H   0  0  0  0  0  0
  -29.7401  -11.8010   17.4361 H   0  0  0  0  0  0
  -29.6321  -13.5153   17.7610 H   0  0  0  0  0  0
  -27.8516  -11.3062   18.8615 H   0  0  0  0  0  0
  -27.3562  -12.5944   17.7914 H   0  0  0  0  0  0
  -27.6727  -14.2623   19.5391 H   0  0  0  0  0  0
  -28.6933  -12.0610   21.4058 H   0  0  0  0  0  0
  -28.4532  -13.7236   21.8374 H   0  0  0  0  0  0
  -25.2760   -9.5689   22.4776 H   0  0  0  0  0  0
  -24.0021   -7.4632   22.7467 H   0  0  0  0  0  0
  -21.0863   -8.8799   19.8943 H   0  0  0  0  0  0
  -22.3711  -10.9694   19.6196 H   0  0  0  0  0  0
  -21.1986   -7.6140   23.9708 H   0  0  0  0  0  0
  -21.1487   -6.0503   25.9066 H   0  0  0  0  0  0
  -22.0590   -2.7610   23.2836 H   0  0  0  0  0  0
  -22.4069  -11.9892   22.4846 H   0  0  0  0  0  0
  -21.1062  -13.1255   22.2638 H   0  0  0  0  0  0
  -24.5788  -15.7984   20.3914 H   0  0  0  0  0  0
  -26.1610  -15.5986   19.8492 H   0  0  0  0  0  0
  -26.7139  -32.5487   23.1101 H   0  0  0  0  0  0
  -25.0117  -33.9741   25.0449 H   0  0  0  0  0  0
  -22.7051  -31.3036   21.3994 H   0  0  0  0  0  0
  -23.3749  -35.9645   23.3307 H   0  0  0  0  0  0
  -24.3607  -36.8904   22.2060 H   0  0  0  0  0  0
  -23.7264  -37.6510   23.6634 H   0  0  0  0  0  0
  -26.0644  -31.5792   20.5914 H   0  0  0  0  0  0
  -26.8320  -30.8700   21.9814 H   0  0  0  0  0  0
  -28.1167  -29.0606   21.1600 H   0  0  0  0  0  0
  -26.0542  -25.9269   19.0441 H   0  0  0  0  0  0
  -23.9815  -27.2800   19.0398 H   0  0  0  0  0  0
  -23.7270  -30.5807   19.3999 H   0  0  0  0  0  0
  -22.7469  -29.2266   19.8692 H   0  0  0  0  0  0
  -25.1279  -36.1940   25.0826 H   0  0  0  0  0  0
  -20.9944  -28.3277   24.1489 H   0  0  0  0  0  0
  -20.5743  -26.2250   23.3554 H   0  0  0  0  0  0
  -21.6721  -26.7522   22.1207 H   0  0  0  0  0  0
  -19.7090  -25.6430   21.1111 H   0  0  0  0  0  0
  -19.6776  -27.3372   20.6786 H   0  0  0  0  0  0
  -17.4289  -26.6714   21.3956 H   0  0  0  0  0  0
  -18.0402  -26.0047   22.8911 H   0  0  0  0  0  0
  -19.7892  -30.7277   24.2314 H   0  0  0  0  0  0
  -17.4984  -31.6257   24.5136 H   0  0  0  0  0  0
  -15.5332  -30.2941   23.7623 H   0  0  0  0  0  0
  -15.8702  -28.0765   22.6978 H   0  0  0  0  0  0
  -24.5923  -30.7053   25.7772 H   0  0  0  0  0  0
  -24.8930  -32.2895   26.4849 H   0  0  0  0  0  0
  -25.8106  -30.8917   27.0213 H   0  0  0  0  0  0
  -26.2864  -29.6780   24.1158 H   0  0  0  0  0  0
  -27.4053  -29.7261   25.4584 H   0  0  0  0  0  0
  -27.8709  -30.4325   23.9284 H   0  0  0  0  0  0
  -27.2708  -33.3581   26.2067 H   0  0  0  0  0  0
  -28.3858  -32.6871   25.0255 H   0  0  0  0  0  0
  -28.0760  -31.8386   26.5332 H   0  0  0  0  0  0
  -28.2576  -38.0094   24.7472 H   0  0  0  0  0  0
  -28.1069  -36.2626   24.6306 H   0  0  0  0  0  0
  -27.2303  -37.1469   25.8863 H   0  0  0  0  0  0
  -20.9323  -29.8831   21.6994 H   0  0  0  0  0  0
  -26.0182  -38.2846   24.1380 H   0  0  0  0  0  0
  -27.5339  -15.8222   21.4209 H   0  0  0  0  0  0
  -29.4655  -24.2692   19.2320 H   0  0  0  0  0  0
  -27.8032  -23.7817   19.3531 H   0  0  0  0  0  0
  -29.0906  -25.4118   21.5821 H   0  0  0  0  0  0
  -27.4002  -25.1848   21.2917 H   0  0  0  0  0  0
  -28.8641  -22.9476   21.8325 H   0  0  0  0  0  0
  -31.1484  -15.8009   21.9329 H   0  0  0  0  0  0
  -30.3952  -20.5458   20.9026 H   0  0  0  0  0  0
  1 25  1  0  0  0
  1 30  2  0  0  0
  1 79  1  0  0  0
  2  3  1  0  0  0
  2 25  1  0  0  0
  2 84  1  0  0  0
  2 85  1  0  0  0
  3  4  1  0  0  0
  3 86  1  0  0  0
  3 87  1  0  0  0
  4  5  1  0  0  0
  4 88  1  0  0  0
  4 89  1  0  0  0
  5  6  1  0  0  0
  5 26  1  0  0  0
  5 90  1  0  0  0
  6 25  1  0  0  0
  6 91  1  0  0  0
  6 92  1  0  0  0
  7  8  2  0  0  0
  7 26  1  0  0  0
  7 29  1  0  0  0
  8  9  1  0  0  0
  8 22  1  0  0  0
  9 10  1  0  0  0
  9 27  2  0  0  0
 10 11  2  0  0  0
 10 15  1  0  0  0
 11 12  1  0  0  0
 11 93  1  0  0  0
 12 13  2  0  0  0
 12 94  1  0  0  0
 13 14  1  0  0  0
 13 31  1  0  0  0
 14 15  2  0  0  0
 14 95  1  0  0  0
 15 96  1  0  0  0
 16 17  2  0  0  0
 16 21  1  0  0  0
 16 31  1  0  0  0
 17 18  1  0  0  0
 17 97  1  0  0  0
 18 19  2  0  0  0
 18 98  1  0  0  0
 19 20  1  0  0  0
 19 24  1  0  0  0
 20 21  2  0  0  0
 20 99  1  0  0  0
 21 23  1  0  0  0
 22 28  1  0  0  0
 22 32  2  0  0  0
 26 27  1  0  0  0
 28100  1  0  0  0
 28101  1  0  0  0
 29102  1  0  0  0
 29103  1  0  0  0
 33 34  1  0  0  0
 33 66  1  0  0  0
 33 70  2  0  0  0
 34 36  1  0  0  0
 34 59  1  0  0  0
 34104  1  0  0  0
 35 44  2  0  0  0
 35 45  1  0  0  0
 35 68  1  0  0  0
 36 56  1  0  0  0
 36105  1  0  0  0
 37 39  1  0  0  0
 37 47  1  0  0  0
 37 66  1  0  0  0
 37106  1  0  0  0
 38 43  2  0  0  0
 38 46  1  0  0  0
 38 47  1  0  0  0
 39 64  1  0  0  0
 39 67  2  0  0  0
 40 52  1  0  0  0
 40 53  2  0  0  0
 40 58  1  0  0  0
 41107  1  0  0  0
 41108  1  0  0  0
 41109  1  0  0  0
 41 48  1  0  0  0
 42 43  1  0  0  0
 42 66  1  0  0  0
 42110  1  0  0  0
 42111  1  0  0  0
 43 44  1  0  0  0
 44112  1  0  0  0
 45 46  2  0  0  0
 45113  1  0  0  0
 46114  1  0  0  0
 47115  1  0  0  0
 47116  1  0  0  0
 48 56  1  0  0  0
 48 65  1  0  0  0
 48117  1  0  0  0
 49 50  1  0  0  0
 49 53  1  0  0  0
 49 64  1  0  0  0
 49118  1  0  0  0
 50 51  1  0  0  0
 50119  1  0  0  0
 50120  1  0  0  0
 51 52  1  0  0  0
 51121  1  0  0  0
 51122  1  0  0  0
 52123  1  0  0  0
 52124  1  0  0  0
 53 54  1  0  0  0
 54 55  2  0  0  0
 54125  1  0  0  0
 55 57  1  0  0  0
 55126  1  0  0  0
 56 69  2  0  0  0
 57 58  2  0  0  0
 57127  1  0  0  0
 58128  1  0  0  0
 59 60  1  0  0  0
 59 61  1  0  0  0
 59 62  1  0  0  0
 60129  1  0  0  0
 60130  1  0  0  0
 60131  1  0  0  0
 61132  1  0  0  0
 61133  1  0  0  0
 61134  1  0  0  0
 62135  1  0  0  0
 62136  1  0  0  0
 62137  1  0  0  0
 63 65  1  0  0  0
 63138  1  0  0  0
 63139  1  0  0  0
 63140  1  0  0  0
 64141  1  0  0  0
 65142  1  0  0  0
 68 76  1  0  0  0
 71 72  2  0  0  0
 71 83  1  0  0  0
 71143  1  0  0  0
 72 78  1  0  0  0
 72 79  1  0  0  0
 73 78  2  0  0  0
 73 80  1  0  0  0
 73 83  1  0  0  0
 74 77  1  0  0  0
 74 80  1  0  0  0
 74 81  2  0  0  0
 75 76  1  0  0  0
 75 77  1  0  0  0
 75144  1  0  0  0
 75145  1  0  0  0
 76146  1  0  0  0
 76147  1  0  0  0
 77 82  1  0  0  0
 77148  1  0  0  0
 79149  1  0  0  0
 80150  1  0  0  0
M  ISO  4   1 100  68 101  76 101  79 100
M  END
> <chiral flag>
0

> <version>
0

> <s_m_source_file>
/data/baiqing/PycharmProjects/Reinvent-master-3.2/result/LINK_invent/BTK/process_docking_weight1_custom_product_contain_oxygen_bond_distance_aromatic_linkinvent_7_9_3/rearranged_h_0188.sdf

> <i_m_source_file_index>
54

> <r_mmod_Potential_Energy-OPLS-2005>
-77.7316284179688

> <r_mmod_Stretch_Energy-OPLS-2005>
51.4615440368652

> <r_mmod_Bend_Energy-OPLS-2005>
133.994552612305

> <r_mmod_Torsional_Energy-OPLS-2005>
287.918304443359

> <r_mmod_Improper_Torsional_Energy-OPLS-2005>
10.672269821167

> <r_mmod_Van_der_Waal_Energy-OPLS-2005>
119.203681945801

> <r_mmod_Electrostatic_Energy-OPLS-2005>
-485.467254638672

> <r_mmod_Solvation_Energy-OPLS-2005>
-217.891616821289

> <b_mmod_Minimization_Converged-OPLS-2005>
0

> <r_mmod_RMS_Derivative-OPLS-2005>
3.48938751220703

$$$$
55
                    3D
 Structure written by MMmdl.
154162  0  0  1  0            999 V2000
  -30.6892  -14.4714   20.6000 C   0  0  0  0  0  0
  -30.4182  -12.3131   19.4149 C   0  0  0  0  0  0
  -29.4955  -12.5311   18.1986 C   0  0  0  0  0  0
  -28.0073  -12.4144   18.5950 C   0  0  0  0  0  0
  -27.6589  -13.2145   19.8816 C   0  0  2  0  0  0
  -28.7018  -12.9676   20.9937 C   0  0  0  0  0  0
  -25.2598  -13.8181   20.5719 C   0  0  0  0  0  0
  -24.1849  -13.0471   20.9221 C   0  0  0  0  0  0
  -24.6380  -11.6941   20.8746 C   0  0  0  0  0  0
  -23.9062  -10.4328   21.0411 C   0  0  0  0  0  0
  -24.3610   -9.4241   21.9171 C   0  0  0  0  0  0
  -23.6307   -8.2261   22.0725 C   0  0  0  0  0  0
  -22.4277   -8.0284   21.3539 C   0  0  0  0  0  0
  -21.9919   -9.0270   20.4636 C   0  0  0  0  0  0
  -22.7236  -10.2162   20.3059 C   0  0  0  0  0  0
  -21.6860   -6.0747   22.5285 C   0  0  0  0  0  0
  -21.4010   -6.5638   23.8222 C   0  0  0  0  0  0
  -21.3681   -5.6793   24.9180 C   0  0  0  0  0  0
  -21.6050   -4.3056   24.7230 C   0  0  0  0  0  0
  -21.8823   -3.8152   23.4354 C   0  0  0  0  0  0
  -21.9189   -4.6978   22.3409 C   0  0  0  0  0  0
  -22.7866  -13.5274   21.1884 C   0  0  0  0  0  0
  -22.1655   -4.2157   21.0990 F   0  0  0  0  0  0
  -21.5650   -3.4541   25.7747 F   0  0  0  0  0  0
  -30.0257  -13.2922   20.4414 N   0  0  0  0  0  0
  -26.3013  -12.9357   20.3385 N   0  0  0  0  0  0
  -25.9290  -11.6516   20.5746 N   0  0  0  0  0  0
  -22.0476  -12.8256   22.0421 N   0  0  0  0  0  0
  -25.4365  -15.1908   20.4141 N   0  0  0  0  0  0
  -31.7840  -14.6763   20.0671 O   0  0  0  0  0  0
  -21.6638   -6.8877   21.4234 O   0  0  0  0  0  0
  -22.3561  -14.5574   20.6724 O   0  0  0  0  0  0
  -24.6237  -31.8618   23.2092 C   0  0  0  0  0  0
  -25.9109  -32.4781   23.8416 C   0  0  1  0  0  0
  -27.2313  -27.4100   20.1150 C   0  0  0  0  0  0
  -25.5968  -33.8593   24.2345 N   0  0  0  0  0  0
  -23.4129  -30.4879   21.5440 C   0  0  2  0  0  0
  -24.8613  -28.9476   20.1149 C   0  0  0  0  0  0
  -22.7469  -29.4650   22.4956 C   0  0  0  0  0  0
  -18.0299  -28.1368   22.8507 C   0  0  0  0  0  0
  -24.1481  -36.7275   23.2623 C   0  0  0  0  0  0
  -25.9414  -30.8209   21.3668 C   0  0  0  0  0  0
  -26.0198  -29.4513   20.7210 C   0  0  0  0  0  0
  -27.2120  -28.6861   20.7249 C   0  0  0  0  0  0
  -26.0634  -26.9320   19.4901 C   0  0  0  0  0  0
  -24.8756  -27.6857   19.4951 C   0  0  0  0  0  0
  -23.6262  -29.8173   20.1599 C   0  0  0  0  0  0
  -25.4096  -36.3078   24.0343 C   0  0  1  0  0  0
  -20.5891  -28.3677   23.1297 C   0  0  2  0  0  0
  -20.6763  -26.9411   22.5400 C   0  0  0  0  0  0
  -19.5731  -26.6385   21.5198 C   0  0  0  0  0  0
  -18.1929  -26.7923   22.1637 C   0  0  0  0  0  0
  -19.1549  -28.8843   23.2896 C   0  0  0  0  0  0
  -18.9479  -30.1453   23.8906 C   0  0  0  0  0  0
  -17.6475  -30.6577   24.0581 C   0  0  0  0  0  0
  -25.9044  -34.9454   23.5135 C   0  0  0  0  0  0
  -16.5368  -29.9079   23.6321 C   0  0  0  0  0  0
  -16.7290  -28.6494   23.0356 C   0  0  0  0  0  0
  -26.4525  -31.6558   25.0747 C   0  0  0  0  0  0
  -25.3795  -31.3686   26.1497 C   0  0  0  0  0  0
  -27.0347  -30.2992   24.6121 C   0  0  0  0  0  0
  -27.6095  -32.4282   25.7546 C   0  0  0  0  0  0
  -27.5568  -37.1785   24.8477 C   0  0  0  0  0  0
  -21.4187  -29.3040   22.3691 N   0  0  0  0  0  0
  -26.4270  -37.3790   23.9438 N   0  0  0  0  0  0
  -24.6768  -31.0719   22.0982 N   0  0  0  0  0  0
  -23.4216  -28.8203   23.3028 O   0  0  0  0  0  0
  -28.3354  -26.5836   20.1062 O   0  0  0  0  0  0
  -26.5585  -34.8933   22.4679 O   0  0  0  0  0  0
  -23.5413  -32.1403   23.7454 O   0  0  0  0  0  0
  -30.3090  -19.6783   21.5242 C   0  0  0  0  0  0
  -28.4748  -20.0580   20.1249 C   0  0  0  0  0  0
  -29.4649  -20.6451   20.8799 C   0  0  0  0  0  0
  -29.9520  -18.3721   21.2654 C   0  0  0  0  0  0
  -28.9618  -23.1337   20.6350 C   0  0  0  0  0  0
  -27.2799  -25.3583   22.0701 C   0  0  0  0  0  0
  -29.5148  -24.5436   21.0128 C   0  0  0  0  0  0
  -28.5494  -25.7591   21.2820 C   0  0  1  0  0  0
  -29.6744  -22.0606   21.0635 N   0  0  0  0  0  0
  -30.0438  -15.4701   21.3452 N   0  0  0  0  0  0
  -27.9326  -23.0321   19.9664 O   0  0  0  0  0  0
  -32.1545  -17.0050   21.7083 O   0  0  0  0  0  0
  -30.2948  -16.9655   23.4372 O   0  0  0  0  0  0
  -28.5992  -18.3038   20.1593 S   0  0  0  0  0  0
  -30.7166  -16.9207   22.0254 S   0  0  0  0  0  0
  -31.4650  -12.4031   19.1233 H   0  0  0  0  0  0
  -30.3017  -11.2981   19.8003 H   0  0  0  0  0  0
  -29.7303  -11.8143   17.4103 H   0  0  0  0  0  0
  -29.6791  -13.5197   17.7747 H   0  0  0  0  0  0
  -27.7704  -11.3571   18.7251 H   0  0  0  0  0  0
  -27.3803  -12.7617   17.7703 H   0  0  0  0  0  0
  -27.7096  -14.2726   19.6195 H   0  0  0  0  0  0
  -28.6816  -11.9196   21.3046 H   0  0  0  0  0  0
  -28.4627  -13.5352   21.8929 H   0  0  0  0  0  0
  -25.2745   -9.5739   22.4737 H   0  0  0  0  0  0
  -24.0050   -7.4653   22.7410 H   0  0  0  0  0  0
  -21.0863   -8.8780   19.8920 H   0  0  0  0  0  0
  -22.3678  -10.9698   19.6185 H   0  0  0  0  0  0
  -21.1964   -7.6142   23.9738 H   0  0  0  0  0  0
  -21.1516   -6.0507   25.9094 H   0  0  0  0  0  0
  -22.0570   -2.7611   23.2847 H   0  0  0  0  0  0
  -22.4072  -11.9922   22.4839 H   0  0  0  0  0  0
  -21.1064  -13.1243   22.2588 H   0  0  0  0  0  0
  -24.6785  -15.8529   20.5310 H   0  0  0  0  0  0
  -26.2783  -15.6129   20.0435 H   0  0  0  0  0  0
  -26.7198  -32.5487   23.1207 H   0  0  0  0  0  0
  -25.0281  -33.9735   25.0598 H   0  0  0  0  0  0
  -22.7039  -31.3065   21.3988 H   0  0  0  0  0  0
  -23.3756  -35.9595   23.3300 H   0  0  0  0  0  0
  -24.3585  -36.8854   22.2033 H   0  0  0  0  0  0
  -23.7223  -37.6488   23.6612 H   0  0  0  0  0  0
  -26.0591  -31.5796   20.5912 H   0  0  0  0  0  0
  -26.8289  -30.8759   21.9869 H   0  0  0  0  0  0
  -28.1048  -29.0673   21.2006 H   0  0  0  0  0  0
  -26.0765  -25.9574   19.0249 H   0  0  0  0  0  0
  -23.9883  -27.2870   19.0215 H   0  0  0  0  0  0
  -23.7517  -30.5882   19.3988 H   0  0  0  0  0  0
  -22.7514  -29.2411   19.8549 H   0  0  0  0  0  0
  -25.1262  -36.1936   25.0834 H   0  0  0  0  0  0
  -21.0009  -28.3211   24.1403 H   0  0  0  0  0  0
  -20.5623  -26.2302   23.3596 H   0  0  0  0  0  0
  -21.6639  -26.7393   22.1214 H   0  0  0  0  0  0
  -19.6881  -25.6295   21.1219 H   0  0  0  0  0  0
  -19.6637  -27.3209   20.6731 H   0  0  0  0  0  0
  -17.4189  -26.6711   21.4043 H   0  0  0  0  0  0
  -18.0329  -26.0024   22.8995 H   0  0  0  0  0  0
  -19.7951  -30.7278   24.2261 H   0  0  0  0  0  0
  -17.5026  -31.6262   24.5194 H   0  0  0  0  0  0
  -15.5374  -30.3001   23.7598 H   0  0  0  0  0  0
  -15.8697  -28.0814   22.7047 H   0  0  0  0  0  0
  -24.5989  -30.6993   25.7871 H   0  0  0  0  0  0
  -24.8976  -32.2838   26.4935 H   0  0  0  0  0  0
  -25.8155  -30.8897   27.0264 H   0  0  0  0  0  0
  -26.2874  -29.6780   24.1159 H   0  0  0  0  0  0
  -27.4106  -29.7210   25.4573 H   0  0  0  0  0  0
  -27.8738  -30.4329   23.9290 H   0  0  0  0  0  0
  -27.2705  -33.3602   26.2107 H   0  0  0  0  0  0
  -28.3945  -32.6795   25.0393 H   0  0  0  0  0  0
  -28.0720  -31.8403   26.5488 H   0  0  0  0  0  0
  -28.2614  -38.0058   24.7522 H   0  0  0  0  0  0
  -28.1028  -36.2599   24.6286 H   0  0  0  0  0  0
  -27.2301  -37.1428   25.8884 H   0  0  0  0  0  0
  -20.9360  -29.8786   21.6931 H   0  0  0  0  0  0
  -26.0146  -38.2859   24.1467 H   0  0  0  0  0  0
  -31.1284  -19.9384   22.1814 H   0  0  0  0  0  0
  -27.6873  -20.5331   19.5523 H   0  0  0  0  0  0
  -27.5365  -24.6969   22.8999 H   0  0  0  0  0  0
  -26.5570  -24.8352   21.4452 H   0  0  0  0  0  0
  -26.7818  -26.2270   22.5064 H   0  0  0  0  0  0
  -30.1126  -24.4084   21.9150 H   0  0  0  0  0  0
  -30.2256  -24.8295   20.2402 H   0  0  0  0  0  0
  -29.0895  -26.4278   21.9562 H   0  0  0  0  0  0
  -30.4916  -22.3020   21.6141 H   0  0  0  0  0  0
  -29.1117  -15.3026   21.7127 H   0  0  0  0  0  0
  1 25  1  0  0  0
  1 30  2  0  0  0
  1 80  1  0  0  0
  2  3  1  0  0  0
  2 25  1  0  0  0
  2 86  1  0  0  0
  2 87  1  0  0  0
  3  4  1  0  0  0
  3 88  1  0  0  0
  3 89  1  0  0  0
  4  5  1  0  0  0
  4 90  1  0  0  0
  4 91  1  0  0  0
  5  6  1  0  0  0
  5 26  1  0  0  0
  5 92  1  0  0  0
  6 25  1  0  0  0
  6 93  1  0  0  0
  6 94  1  0  0  0
  7  8  2  0  0  0
  7 26  1  0  0  0
  7 29  1  0  0  0
  8  9  1  0  0  0
  8 22  1  0  0  0
  9 10  1  0  0  0
  9 27  2  0  0  0
 10 11  2  0  0  0
 10 15  1  0  0  0
 11 12  1  0  0  0
 11 95  1  0  0  0
 12 13  2  0  0  0
 12 96  1  0  0  0
 13 14  1  0  0  0
 13 31  1  0  0  0
 14 15  2  0  0  0
 14 97  1  0  0  0
 15 98  1  0  0  0
 16 17  2  0  0  0
 16 21  1  0  0  0
 16 31  1  0  0  0
 17 18  1  0  0  0
 17 99  1  0  0  0
 18 19  2  0  0  0
 18100  1  0  0  0
 19 20  1  0  0  0
 19 24  1  0  0  0
 20 21  2  0  0  0
 20101  1  0  0  0
 21 23  1  0  0  0
 22 28  1  0  0  0
 22 32  2  0  0  0
 26 27  1  0  0  0
 28102  1  0  0  0
 28103  1  0  0  0
 29104  1  0  0  0
 29105  1  0  0  0
 33 34  1  0  0  0
 33 66  1  0  0  0
 33 70  2  0  0  0
 34 36  1  0  0  0
 34 59  1  0  0  0
 34106  1  0  0  0
 35 44  2  0  0  0
 35 45  1  0  0  0
 35 68  1  0  0  0
 36 56  1  0  0  0
 36107  1  0  0  0
 37 39  1  0  0  0
 37 47  1  0  0  0
 37 66  1  0  0  0
 37108  1  0  0  0
 38 43  2  0  0  0
 38 46  1  0  0  0
 38 47  1  0  0  0
 39 64  1  0  0  0
 39 67  2  0  0  0
 40 52  1  0  0  0
 40 53  2  0  0  0
 40 58  1  0  0  0
 41109  1  0  0  0
 41110  1  0  0  0
 41111  1  0  0  0
 41 48  1  0  0  0
 42 43  1  0  0  0
 42 66  1  0  0  0
 42112  1  0  0  0
 42113  1  0  0  0
 43 44  1  0  0  0
 44114  1  0  0  0
 45 46  2  0  0  0
 45115  1  0  0  0
 46116  1  0  0  0
 47117  1  0  0  0
 47118  1  0  0  0
 48 56  1  0  0  0
 48 65  1  0  0  0
 48119  1  0  0  0
 49 50  1  0  0  0
 49 53  1  0  0  0
 49 64  1  0  0  0
 49120  1  0  0  0
 50 51  1  0  0  0
 50121  1  0  0  0
 50122  1  0  0  0
 51 52  1  0  0  0
 51123  1  0  0  0
 51124  1  0  0  0
 52125  1  0  0  0
 52126  1  0  0  0
 53 54  1  0  0  0
 54 55  2  0  0  0
 54127  1  0  0  0
 55 57  1  0  0  0
 55128  1  0  0  0
 56 69  2  0  0  0
 57 58  2  0  0  0
 57129  1  0  0  0
 58130  1  0  0  0
 59 60  1  0  0  0
 59 61  1  0  0  0
 59 62  1  0  0  0
 60131  1  0  0  0
 60132  1  0  0  0
 60133  1  0  0  0
 61134  1  0  0  0
 61135  1  0  0  0
 61136  1  0  0  0
 62137  1  0  0  0
 62138  1  0  0  0
 62139  1  0  0  0
 63 65  1  0  0  0
 63140  1  0  0  0
 63141  1  0  0  0
 63142  1  0  0  0
 64143  1  0  0  0
 65144  1  0  0  0
 68 78  1  0  0  0
 71 73  1  0  0  0
 71 74  2  0  0  0
 71145  1  0  0  0
 72 73  2  0  0  0
 72 84  1  0  0  0
 72146  1  0  0  0
 73 79  1  0  0  0
 74 84  1  0  0  0
 74 85  1  0  0  0
 75 77  1  0  0  0
 75 79  1  0  0  0
 75 81  2  0  0  0
 76147  1  0  0  0
 76148  1  0  0  0
 76149  1  0  0  0
 76 78  1  0  0  0
 77 78  1  0  0  0
 77150  1  0  0  0
 77151  1  0  0  0
 78152  1  0  0  0
 79153  1  0  0  0
 80154  1  0  0  0
 80 85  1  0  0  0
 82 85  2  0  0  0
 83 85  2  0  0  0
M  ISO  4   1 100  68 101  78 101  80 100
M  END
> <chiral flag>
0

> <version>
0

> <s_m_source_file>
/data/baiqing/PycharmProjects/Reinvent-master-3.2/result/LINK_invent/BTK/process_docking_weight1_custom_product_contain_oxygen_bond_distance_aromatic_linkinvent_7_9_3/rearranged_h_0188.sdf

> <i_m_source_file_index>
55

> <r_mmod_Potential_Energy-OPLS-2005>
-258.848510742188

> <r_mmod_Stretch_Energy-OPLS-2005>
43.1418800354004

> <r_mmod_Bend_Energy-OPLS-2005>
131.863235473633

> <r_mmod_Torsional_Energy-OPLS-2005>
194.603744506836

> <r_mmod_Improper_Torsional_Energy-OPLS-2005>
2.64147734642029

> <r_mmod_Van_der_Waal_Energy-OPLS-2005>
118.074577331543

> <r_mmod_Electrostatic_Energy-OPLS-2005>
-493.074432373047

> <r_mmod_Solvation_Energy-OPLS-2005>
-271.682800292969

> <b_mmod_Minimization_Converged-OPLS-2005>
0

> <r_mmod_RMS_Derivative-OPLS-2005>
5.57233381271362

$$$$
56
                    3D
 Structure written by MMmdl.
153161  0  0  1  0            999 V2000
  -30.6258  -14.7240   20.4526 C   0  0  0  0  0  0
  -30.4230  -12.4399   19.4734 C   0  0  0  0  0  0
  -29.5048  -12.4994   18.2337 C   0  0  0  0  0  0
  -28.0303  -12.3310   18.6467 C   0  0  0  0  0  0
  -27.6381  -13.2325   19.8480 C   0  0  2  0  0  0
  -28.6819  -13.1710   20.9837 C   0  0  0  0  0  0
  -25.2492  -13.8198   20.5689 C   0  0  0  0  0  0
  -24.1792  -13.0444   20.9224 C   0  0  0  0  0  0
  -24.6385  -11.6924   20.8761 C   0  0  0  0  0  0
  -23.9064  -10.4295   21.0414 C   0  0  0  0  0  0
  -24.3619   -9.4210   21.9187 C   0  0  0  0  0  0
  -23.6297   -8.2245   22.0755 C   0  0  0  0  0  0
  -22.4278   -8.0280   21.3549 C   0  0  0  0  0  0
  -21.9913   -9.0251   20.4648 C   0  0  0  0  0  0
  -22.7240  -10.2133   20.3059 C   0  0  0  0  0  0
  -21.6853   -6.0734   22.5281 C   0  0  0  0  0  0
  -21.4010   -6.5640   23.8214 C   0  0  0  0  0  0
  -21.3661   -5.6794   24.9177 C   0  0  0  0  0  0
  -21.6046   -4.3057   24.7227 C   0  0  0  0  0  0
  -21.8819   -3.8148   23.4349 C   0  0  0  0  0  0
  -21.9192   -4.6962   22.3403 C   0  0  0  0  0  0
  -22.7815  -13.5225   21.1877 C   0  0  0  0  0  0
  -22.1663   -4.2149   21.0980 F   0  0  0  0  0  0
  -21.5629   -3.4541   25.7738 F   0  0  0  0  0  0
  -29.9820  -13.5100   20.3969 N   0  0  0  0  0  0
  -26.2913  -12.9411   20.3274 N   0  0  0  0  0  0
  -25.9312  -11.6552   20.5758 N   0  0  0  0  0  0
  -22.0462  -12.8210   22.0429 N   0  0  0  0  0  0
  -25.4173  -15.1917   20.4062 N   0  0  0  0  0  0
  -31.8207  -14.7930   20.1537 O   0  0  0  0  0  0
  -21.6643   -6.8877   21.4242 O   0  0  0  0  0  0
  -22.3499  -14.5531   20.6722 O   0  0  0  0  0  0
  -24.6295  -31.8546   23.1957 C   0  0  0  0  0  0
  -25.9122  -32.4746   23.8305 C   0  0  1  0  0  0
  -27.2266  -27.2727   20.1168 C   0  0  0  0  0  0
  -25.5926  -33.8549   24.2234 N   0  0  0  0  0  0
  -23.4247  -30.4754   21.5389 C   0  0  2  0  0  0
  -24.8706  -28.9183   20.1066 C   0  0  0  0  0  0
  -22.7487  -29.4595   22.4906 C   0  0  0  0  0  0
  -18.0290  -28.1387   22.8489 C   0  0  0  0  0  0
  -24.1491  -36.7271   23.2638 C   0  0  0  0  0  0
  -25.9677  -30.7714   21.3701 C   0  0  0  0  0  0
  -26.0398  -29.3945   20.7107 C   0  0  0  0  0  0
  -27.2151  -28.5827   20.7037 C   0  0  0  0  0  0
  -26.0245  -26.8432   19.5166 C   0  0  0  0  0  0
  -24.8671  -27.6502   19.5015 C   0  0  0  0  0  0
  -23.6406  -29.8047   20.1558 C   0  0  0  0  0  0
  -25.4118  -36.3057   24.0323 C   0  0  1  0  0  0
  -20.5891  -28.3690   23.1274 C   0  0  2  0  0  0
  -20.6772  -26.9409   22.5406 C   0  0  0  0  0  0
  -19.5750  -26.6381   21.5208 C   0  0  0  0  0  0
  -18.1932  -26.7930   22.1625 C   0  0  0  0  0  0
  -19.1543  -28.8857   23.2877 C   0  0  0  0  0  0
  -18.9469  -30.1460   23.8893 C   0  0  0  0  0  0
  -17.6469  -30.6589   24.0566 C   0  0  0  0  0  0
  -25.9060  -34.9434   23.5080 C   0  0  0  0  0  0
  -16.5359  -29.9090   23.6331 C   0  0  0  0  0  0
  -16.7277  -28.6506   23.0353 C   0  0  0  0  0  0
  -26.4497  -31.6578   25.0701 C   0  0  0  0  0  0
  -25.3718  -31.3736   26.1422 C   0  0  0  0  0  0
  -27.0335  -30.2996   24.6173 C   0  0  0  0  0  0
  -27.6052  -32.4317   25.7479 C   0  0  0  0  0  0
  -27.5577  -37.1786   24.8466 C   0  0  0  0  0  0
  -21.4194  -29.3038   22.3662 N   0  0  0  0  0  0
  -26.4284  -37.3762   23.9417 N   0  0  0  0  0  0
  -24.6932  -31.0520   22.0920 N   0  0  0  0  0  0
  -23.4198  -28.8140   23.3000 O   0  0  0  0  0  0
  -28.3652  -26.4445   20.2074 O   0  0  0  0  0  0
  -26.5635  -34.8917   22.4652 O   0  0  0  0  0  0
  -23.5446  -32.1358   23.7263 O   0  0  0  0  0  0
  -28.4989  -19.1041   21.0695 C   0  0  0  0  0  0
  -29.6630  -18.6608   20.4525 C   0  0  0  0  0  0
  -29.0984  -21.1977   20.1990 C   0  0  0  0  0  0
  -28.2991  -23.7370   20.1996 C   0  0  0  0  0  0
  -27.5748  -18.2601   21.8922 C   0  0  0  0  0  0
  -28.3016  -25.1640   17.9982 C   0  0  0  0  0  0
  -30.4636  -17.2941   20.4502 C   0  0  0  0  0  0
  -28.6351  -25.1453   19.5017 C   0  0  1  0  0  0
  -28.1981  -20.4994   20.9178 N   0  0  0  0  0  0
  -29.0782  -22.6402   19.8683 N   0  0  0  0  0  0
  -29.8908  -15.8899   20.6180 N   0  0  0  0  0  0
  -27.3655  -23.6686   21.0030 O   0  0  0  0  0  0
  -30.3805  -20.0785   19.6382 S   0  0  0  0  0  0
  -31.4665  -12.5509   19.1726 H   0  0  0  0  0  0
  -30.3553  -11.4650   19.9592 H   0  0  0  0  0  0
  -29.7838  -11.7249   17.5178 H   0  0  0  0  0  0
  -29.6373  -13.4532   17.7202 H   0  0  0  0  0  0
  -27.8820  -11.2826   18.9090 H   0  0  0  0  0  0
  -27.3741  -12.5258   17.7976 H   0  0  0  0  0  0
  -27.6322  -14.2533   19.4657 H   0  0  0  0  0  0
  -28.7118  -12.1771   21.4327 H   0  0  0  0  0  0
  -28.4233  -13.8635   21.7865 H   0  0  0  0  0  0
  -25.2757   -9.5687   22.4768 H   0  0  0  0  0  0
  -24.0005   -7.4632   22.7469 H   0  0  0  0  0  0
  -21.0849   -8.8767   19.8948 H   0  0  0  0  0  0
  -22.3694  -10.9674   19.6171 H   0  0  0  0  0  0
  -21.2001   -7.6148   23.9715 H   0  0  0  0  0  0
  -21.1485   -6.0525   25.9079 H   0  0  0  0  0  0
  -22.0597   -2.7609   23.2847 H   0  0  0  0  0  0
  -22.4083  -11.9868   22.4810 H   0  0  0  0  0  0
  -21.1077  -13.1227   22.2637 H   0  0  0  0  0  0
  -24.6402  -15.8373   20.4927 H   0  0  0  0  0  0
  -26.2446  -15.6197   20.0130 H   0  0  0  0  0  0
  -26.7185  -32.5393   23.1041 H   0  0  0  0  0  0
  -25.0084  -33.9692   25.0385 H   0  0  0  0  0  0
  -22.7203  -31.2964   21.3904 H   0  0  0  0  0  0
  -23.3757  -35.9599   23.3300 H   0  0  0  0  0  0
  -24.3581  -36.8892   22.2053 H   0  0  0  0  0  0
  -23.7242  -37.6470   23.6666 H   0  0  0  0  0  0
  -26.1029  -31.5323   20.6009 H   0  0  0  0  0  0
  -26.8469  -30.8201   22.0008 H   0  0  0  0  0  0
  -28.1131  -28.9437   21.1855 H   0  0  0  0  0  0
  -25.9386  -25.8528   19.1028 H   0  0  0  0  0  0
  -23.9636  -27.2691   19.0455 H   0  0  0  0  0  0
  -23.7634  -30.5789   19.3979 H   0  0  0  0  0  0
  -22.7593  -29.2361   19.8532 H   0  0  0  0  0  0
  -25.1299  -36.1889   25.0813 H   0  0  0  0  0  0
  -20.9993  -28.3261   24.1391 H   0  0  0  0  0  0
  -20.5664  -26.2298   23.3607 H   0  0  0  0  0  0
  -21.6640  -26.7424   22.1206 H   0  0  0  0  0  0
  -19.6919  -25.6292   21.1239 H   0  0  0  0  0  0
  -19.6698  -27.3192   20.6741 H   0  0  0  0  0  0
  -17.4198  -26.6672   21.4033 H   0  0  0  0  0  0
  -18.0343  -26.0070   22.9024 H   0  0  0  0  0  0
  -19.7946  -30.7274   24.2261 H   0  0  0  0  0  0
  -17.5026  -31.6273   24.5163 H   0  0  0  0  0  0
  -15.5360  -30.2996   23.7660 H   0  0  0  0  0  0
  -15.8671  -28.0827   22.7074 H   0  0  0  0  0  0
  -24.5915  -30.7058   25.7754 H   0  0  0  0  0  0
  -24.8886  -32.2905   26.4804 H   0  0  0  0  0  0
  -25.8034  -30.8953   27.0221 H   0  0  0  0  0  0
  -26.2909  -29.6752   24.1194 H   0  0  0  0  0  0
  -27.4020  -29.7253   25.4681 H   0  0  0  0  0  0
  -27.8782  -30.4274   23.9401 H   0  0  0  0  0  0
  -27.2672  -33.3639   26.2015 H   0  0  0  0  0  0
  -28.3887  -32.6833   25.0319 H   0  0  0  0  0  0
  -28.0686  -31.8459   26.5429 H   0  0  0  0  0  0
  -28.2576  -38.0101   24.7521 H   0  0  0  0  0  0
  -28.1087  -36.2629   24.6269 H   0  0  0  0  0  0
  -27.2298  -37.1396   25.8868 H   0  0  0  0  0  0
  -20.9370  -29.8760   21.6874 H   0  0  0  0  0  0
  -26.0155  -38.2827   24.1441 H   0  0  0  0  0  0
  -28.1277  -17.5665   22.5255 H   0  0  0  0  0  0
  -26.9126  -17.6715   21.2579 H   0  0  0  0  0  0
  -26.9471  -18.8654   22.5468 H   0  0  0  0  0  0
  -28.9141  -24.4404   17.4601 H   0  0  0  0  0  0
  -28.5051  -26.1432   17.5651 H   0  0  0  0  0  0
  -27.2673  -24.9023   17.7881 H   0  0  0  0  0  0
  -31.2342  -17.3834   21.2175 H   0  0  0  0  0  0
  -31.0242  -17.2688   19.5141 H   0  0  0  0  0  0
  -29.7257  -25.1511   19.5234 H   0  0  0  0  0  0
  -29.8221  -22.8931   19.2347 H   0  0  0  0  0  0
  -28.9045  -15.7956   20.8023 H   0  0  0  0  0  0
  1 25  1  0  0  0
  1 30  2  0  0  0
  1 81  1  0  0  0
  2  3  1  0  0  0
  2 25  1  0  0  0
  2 84  1  0  0  0
  2 85  1  0  0  0
  3  4  1  0  0  0
  3 86  1  0  0  0
  3 87  1  0  0  0
  4  5  1  0  0  0
  4 88  1  0  0  0
  4 89  1  0  0  0
  5  6  1  0  0  0
  5 26  1  0  0  0
  5 90  1  0  0  0
  6 25  1  0  0  0
  6 91  1  0  0  0
  6 92  1  0  0  0
  7  8  2  0  0  0
  7 26  1  0  0  0
  7 29  1  0  0  0
  8  9  1  0  0  0
  8 22  1  0  0  0
  9 10  1  0  0  0
  9 27  2  0  0  0
 10 11  2  0  0  0
 10 15  1  0  0  0
 11 12  1  0  0  0
 11 93  1  0  0  0
 12 13  2  0  0  0
 12 94  1  0  0  0
 13 14  1  0  0  0
 13 31  1  0  0  0
 14 15  2  0  0  0
 14 95  1  0  0  0
 15 96  1  0  0  0
 16 17  2  0  0  0
 16 21  1  0  0  0
 16 31  1  0  0  0
 17 18  1  0  0  0
 17 97  1  0  0  0
 18 19  2  0  0  0
 18 98  1  0  0  0
 19 20  1  0  0  0
 19 24  1  0  0  0
 20 21  2  0  0  0
 20 99  1  0  0  0
 21 23  1  0  0  0
 22 28  1  0  0  0
 22 32  2  0  0  0
 26 27  1  0  0  0
 28100  1  0  0  0
 28101  1  0  0  0
 29102  1  0  0  0
 29103  1  0  0  0
 33 34  1  0  0  0
 33 66  1  0  0  0
 33 70  2  0  0  0
 34 36  1  0  0  0
 34 59  1  0  0  0
 34104  1  0  0  0
 35 44  2  0  0  0
 35 45  1  0  0  0
 35 68  1  0  0  0
 36 56  1  0  0  0
 36105  1  0  0  0
 37 39  1  0  0  0
 37 47  1  0  0  0
 37 66  1  0  0  0
 37106  1  0  0  0
 38 43  2  0  0  0
 38 46  1  0  0  0
 38 47  1  0  0  0
 39 64  1  0  0  0
 39 67  2  0  0  0
 40 52  1  0  0  0
 40 53  2  0  0  0
 40 58  1  0  0  0
 41107  1  0  0  0
 41108  1  0  0  0
 41109  1  0  0  0
 41 48  1  0  0  0
 42 43  1  0  0  0
 42 66  1  0  0  0
 42110  1  0  0  0
 42111  1  0  0  0
 43 44  1  0  0  0
 44112  1  0  0  0
 45 46  2  0  0  0
 45113  1  0  0  0
 46114  1  0  0  0
 47115  1  0  0  0
 47116  1  0  0  0
 48 56  1  0  0  0
 48 65  1  0  0  0
 48117  1  0  0  0
 49 50  1  0  0  0
 49 53  1  0  0  0
 49 64  1  0  0  0
 49118  1  0  0  0
 50 51  1  0  0  0
 50119  1  0  0  0
 50120  1  0  0  0
 51 52  1  0  0  0
 51121  1  0  0  0
 51122  1  0  0  0
 52123  1  0  0  0
 52124  1  0  0  0
 53 54  1  0  0  0
 54 55  2  0  0  0
 54125  1  0  0  0
 55 57  1  0  0  0
 55126  1  0  0  0
 56 69  2  0  0  0
 57 58  2  0  0  0
 57127  1  0  0  0
 58128  1  0  0  0
 59 60  1  0  0  0
 59 61  1  0  0  0
 59 62  1  0  0  0
 60129  1  0  0  0
 60130  1  0  0  0
 60131  1  0  0  0
 61132  1  0  0  0
 61133  1  0  0  0
 61134  1  0  0  0
 62135  1  0  0  0
 62136  1  0  0  0
 62137  1  0  0  0
 63 65  1  0  0  0
 63138  1  0  0  0
 63139  1  0  0  0
 63140  1  0  0  0
 64141  1  0  0  0
 65142  1  0  0  0
 68 78  1  0  0  0
 71 72  2  0  0  0
 71 75  1  0  0  0
 71 79  1  0  0  0
 72 77  1  0  0  0
 72 83  1  0  0  0
 73 79  2  0  0  0
 73 80  1  0  0  0
 73 83  1  0  0  0
 74 78  1  0  0  0
 74 80  1  0  0  0
 74 82  2  0  0  0
 75143  1  0  0  0
 75144  1  0  0  0
 75145  1  0  0  0
 76146  1  0  0  0
 76147  1  0  0  0
 76148  1  0  0  0
 76 78  1  0  0  0
 77 81  1  0  0  0
 77149  1  0  0  0
 77150  1  0  0  0
 78151  1  0  0  0
 80152  1  0  0  0
 81153  1  0  0  0
M  ISO  4   1 100  68 101  78 101  81 100
M  END
> <chiral flag>
0

> <version>
0

> <s_m_source_file>
/data/baiqing/PycharmProjects/Reinvent-master-3.2/result/LINK_invent/BTK/process_docking_weight1_custom_product_contain_oxygen_bond_distance_aromatic_linkinvent_7_9_3/rearranged_h_0188.sdf

> <i_m_source_file_index>
56

> <r_mmod_Potential_Energy-OPLS-2005>
28.953727722168

> <r_mmod_Stretch_Energy-OPLS-2005>
108.086158752441

> <r_mmod_Bend_Energy-OPLS-2005>
221.51985168457

> <r_mmod_Torsional_Energy-OPLS-2005>
202.276611328125

> <r_mmod_Improper_Torsional_Energy-OPLS-2005>
5.7061824798584

> <r_mmod_Van_der_Waal_Energy-OPLS-2005>
109.752449035645

> <r_mmod_Electrostatic_Energy-OPLS-2005>
-437.361358642578

> <r_mmod_Solvation_Energy-OPLS-2005>
-257.200775146484

> <b_mmod_Minimization_Converged-OPLS-2005>
0

> <r_mmod_RMS_Derivative-OPLS-2005>
0.888943493366241

$$$$
57
                    3D
 Structure written by MMmdl.
157165  0  0  1  0            999 V2000
  -30.6010  -14.7435   20.4293 C   0  0  0  0  0  0
  -30.4357  -12.4476   19.4427 C   0  0  0  0  0  0
  -29.5004  -12.4997   18.2156 C   0  0  0  0  0  0
  -28.0286  -12.3254   18.6388 C   0  0  0  0  0  0
  -27.6387  -13.2252   19.8414 C   0  0  2  0  0  0
  -28.6945  -13.1593   20.9657 C   0  0  0  0  0  0
  -25.2522  -13.8184   20.5713 C   0  0  0  0  0  0
  -24.1796  -13.0422   20.9190 C   0  0  0  0  0  0
  -24.6398  -11.6915   20.8753 C   0  0  0  0  0  0
  -23.9081  -10.4287   21.0409 C   0  0  0  0  0  0
  -24.3631   -9.4201   21.9186 C   0  0  0  0  0  0
  -23.6299   -8.2238   22.0757 C   0  0  0  0  0  0
  -22.4278   -8.0280   21.3539 C   0  0  0  0  0  0
  -21.9915   -9.0257   20.4649 C   0  0  0  0  0  0
  -22.7258  -10.2136   20.3065 C   0  0  0  0  0  0
  -21.6848   -6.0738   22.5284 C   0  0  0  0  0  0
  -21.4015   -6.5644   23.8215 C   0  0  0  0  0  0
  -21.3661   -5.6789   24.9167 C   0  0  0  0  0  0
  -21.6046   -4.3053   24.7214 C   0  0  0  0  0  0
  -21.8821   -3.8153   23.4334 C   0  0  0  0  0  0
  -21.9192   -4.6967   22.3396 C   0  0  0  0  0  0
  -22.7835  -13.5222   21.1841 C   0  0  0  0  0  0
  -22.1658   -4.2164   21.0966 F   0  0  0  0  0  0
  -21.5622   -3.4533   25.7722 F   0  0  0  0  0  0
  -29.9843  -13.5151   20.3630 N   0  0  0  0  0  0
  -26.2930  -12.9384   20.3273 N   0  0  0  0  0  0
  -25.9321  -11.6526   20.5748 N   0  0  0  0  0  0
  -22.0485  -12.8212   22.0428 N   0  0  0  0  0  0
  -25.4170  -15.1919   20.4160 N   0  0  0  0  0  0
  -31.8137  -14.8364   20.2226 O   0  0  0  0  0  0
  -21.6638   -6.8882   21.4241 O   0  0  0  0  0  0
  -22.3518  -14.5500   20.6679 O   0  0  0  0  0  0
  -24.6325  -31.8533   23.1957 C   0  0  0  0  0  0
  -25.9137  -32.4746   23.8303 C   0  0  1  0  0  0
  -27.2398  -27.2603   20.1187 C   0  0  0  0  0  0
  -25.5931  -33.8555   24.2219 N   0  0  0  0  0  0
  -23.4331  -30.4727   21.5377 C   0  0  2  0  0  0
  -24.8841  -28.9096   20.1167 C   0  0  0  0  0  0
  -22.7484  -29.4612   22.4888 C   0  0  0  0  0  0
  -18.0278  -28.1399   22.8466 C   0  0  0  0  0  0
  -24.1486  -36.7262   23.2643 C   0  0  0  0  0  0
  -25.9806  -30.7604   21.3807 C   0  0  0  0  0  0
  -26.0580  -29.3826   20.7194 C   0  0  0  0  0  0
  -27.2416  -28.5748   20.7005 C   0  0  0  0  0  0
  -26.0407  -26.8422   19.5079 C   0  0  0  0  0  0
  -24.8800  -27.6467   19.5027 C   0  0  0  0  0  0
  -23.6543  -29.7987   20.1587 C   0  0  0  0  0  0
  -25.4122  -36.3067   24.0310 C   0  0  1  0  0  0
  -20.5893  -28.3719   23.1230 C   0  0  2  0  0  0
  -20.6778  -26.9435   22.5399 C   0  0  0  0  0  0
  -19.5754  -26.6387   21.5206 C   0  0  0  0  0  0
  -18.1925  -26.7935   22.1603 C   0  0  0  0  0  0
  -19.1542  -28.8870   23.2849 C   0  0  0  0  0  0
  -18.9469  -30.1457   23.8889 C   0  0  0  0  0  0
  -17.6475  -30.6608   24.0560 C   0  0  0  0  0  0
  -25.9055  -34.9445   23.5071 C   0  0  0  0  0  0
  -16.5362  -29.9116   23.6341 C   0  0  0  0  0  0
  -16.7270  -28.6527   23.0361 C   0  0  0  0  0  0
  -26.4504  -31.6594   25.0717 C   0  0  0  0  0  0
  -25.3704  -31.3759   26.1417 C   0  0  0  0  0  0
  -27.0373  -30.2994   24.6266 C   0  0  0  0  0  0
  -27.6025  -32.4384   25.7488 C   0  0  0  0  0  0
  -27.5566  -37.1788   24.8461 C   0  0  0  0  0  0
  -21.4199  -29.3069   22.3604 N   0  0  0  0  0  0
  -26.4286  -37.3772   23.9394 N   0  0  0  0  0  0
  -24.7001  -31.0456   22.0952 N   0  0  0  0  0  0
  -23.4137  -28.8146   23.3019 O   0  0  0  0  0  0
  -28.3512  -26.3838   20.0786 O   0  0  0  0  0  0
  -26.5639  -34.8931   22.4651 O   0  0  0  0  0  0
  -23.5455  -32.1377   23.7215 O   0  0  0  0  0  0
  -30.5932  -19.3649   21.9977 C   0  0  0  0  0  0
  -29.7707  -19.6726   20.9080 C   0  0  0  0  0  0
  -30.0775  -17.2773   20.7229 C   0  0  0  0  0  0
  -30.3971  -22.5408   19.0600 C   0  0  0  0  0  0
  -30.4756  -22.9142   21.4744 C   0  0  0  0  0  0
  -28.2992  -25.0682   20.8101 C   0  0  0  0  0  0
  -28.3221  -23.5190   20.2436 C   0  0  2  0  0  0
  -30.9770  -20.1374   23.2272 C   0  0  0  0  0  0
  -29.5533  -22.4310   20.3490 C   0  0  0  0  0  0
  -29.4378  -18.4107   20.2638 N   0  0  0  0  0  0
  -29.1254  -20.9558   20.5111 N   0  0  0  0  0  0
  -29.7894  -15.8688   20.3801 N   0  0  0  0  0  0
  -27.7365  -23.4539   19.0462 F   0  0  0  0  0  0
  -32.1621  -20.7308   23.0957 F   0  0  0  0  0  0
  -30.0605  -21.0370   23.5748 F   0  0  0  0  0  0
  -31.0898  -19.3271   24.2817 F   0  0  0  0  0  0
  -31.2041  -17.7043   21.9779 S   0  0  0  0  0  0
  -31.4752  -12.5819   19.1359 H   0  0  0  0  0  0
  -30.3846  -11.4733   19.9301 H   0  0  0  0  0  0
  -29.7784  -11.7286   17.4959 H   0  0  0  0  0  0
  -29.6224  -13.4543   17.7016 H   0  0  0  0  0  0
  -27.8830  -11.2769   18.8980 H   0  0  0  0  0  0
  -27.3680  -12.5174   17.7946 H   0  0  0  0  0  0
  -27.6245  -14.2444   19.4560 H   0  0  0  0  0  0
  -28.7372  -12.1611   21.4054 H   0  0  0  0  0  0
  -28.4432  -13.8452   21.7779 H   0  0  0  0  0  0
  -25.2782   -9.5653   22.4741 H   0  0  0  0  0  0
  -23.9997   -7.4632   22.7478 H   0  0  0  0  0  0
  -21.0840   -8.8799   19.8954 H   0  0  0  0  0  0
  -22.3739  -10.9666   19.6169 H   0  0  0  0  0  0
  -21.2025   -7.6156   23.9720 H   0  0  0  0  0  0
  -21.1473   -6.0517   25.9071 H   0  0  0  0  0  0
  -22.0602   -2.7618   23.2828 H   0  0  0  0  0  0
  -22.4108  -11.9861   22.4782 H   0  0  0  0  0  0
  -21.1110  -13.1233   22.2654 H   0  0  0  0  0  0
  -24.6460  -15.8373   20.5428 H   0  0  0  0  0  0
  -26.2599  -15.6499   20.0951 H   0  0  0  0  0  0
  -26.7204  -32.5408   23.1035 H   0  0  0  0  0  0
  -25.0054  -33.9689   25.0340 H   0  0  0  0  0  0
  -22.7333  -31.2967   21.3849 H   0  0  0  0  0  0
  -23.3757  -35.9584   23.3330 H   0  0  0  0  0  0
  -24.3557  -36.8883   22.2056 H   0  0  0  0  0  0
  -23.7247  -37.6459   23.6675 H   0  0  0  0  0  0
  -26.1305  -31.5282   20.6195 H   0  0  0  0  0  0
  -26.8509  -30.8017   22.0250 H   0  0  0  0  0  0
  -28.1529  -28.9428   21.1518 H   0  0  0  0  0  0
  -26.0024  -25.8732   19.0267 H   0  0  0  0  0  0
  -23.9817  -27.2774   19.0287 H   0  0  0  0  0  0
  -23.7866  -30.5744   19.4026 H   0  0  0  0  0  0
  -22.7710  -29.2334   19.8509 H   0  0  0  0  0  0
  -25.1324  -36.1894   25.0801 H   0  0  0  0  0  0
  -20.9967  -28.3352   24.1357 H   0  0  0  0  0  0
  -20.5680  -26.2359   23.3620 H   0  0  0  0  0  0
  -21.6652  -26.7472   22.1213 H   0  0  0  0  0  0
  -19.6943  -25.6284   21.1287 H   0  0  0  0  0  0
  -19.6713  -27.3151   20.6697 H   0  0  0  0  0  0
  -17.4200  -26.6641   21.4010 H   0  0  0  0  0  0
  -18.0352  -26.0077   22.9001 H   0  0  0  0  0  0
  -19.7955  -30.7247   24.2276 H   0  0  0  0  0  0
  -17.5057  -31.6299   24.5141 H   0  0  0  0  0  0
  -15.5372  -30.3024   23.7689 H   0  0  0  0  0  0
  -15.8654  -28.0860   22.7100 H   0  0  0  0  0  0
  -24.5863  -30.7148   25.7708 H   0  0  0  0  0  0
  -24.8915  -32.2949   26.4821 H   0  0  0  0  0  0
  -25.7992  -30.8923   27.0207 H   0  0  0  0  0  0
  -26.2987  -29.6706   24.1272 H   0  0  0  0  0  0
  -27.3997  -29.7313   25.4842 H   0  0  0  0  0  0
  -27.8899  -30.4233   23.9576 H   0  0  0  0  0  0
  -27.2583  -33.3688   26.2027 H   0  0  0  0  0  0
  -28.3838  -32.6958   25.0321 H   0  0  0  0  0  0
  -28.0699  -31.8560   26.5442 H   0  0  0  0  0  0
  -28.2589  -38.0081   24.7511 H   0  0  0  0  0  0
  -28.1069  -36.2608   24.6306 H   0  0  0  0  0  0
  -27.2276  -37.1462   25.8867 H   0  0  0  0  0  0
  -20.9374  -29.8760   21.6785 H   0  0  0  0  0  0
  -26.0158  -38.2832   24.1437 H   0  0  0  0  0  0
  -30.7313  -23.5670   18.8970 H   0  0  0  0  0  0
  -29.8412  -22.2478   18.1689 H   0  0  0  0  0  0
  -31.2921  -21.9166   19.0970 H   0  0  0  0  0  0
  -30.9119  -23.8822   21.2239 H   0  0  0  0  0  0
  -31.3225  -22.2542   21.6126 H   0  0  0  0  0  0
  -29.9511  -23.0574   22.4166 H   0  0  0  0  0  0
  -27.3790  -25.1252   21.3911 H   0  0  0  0  0  0
  -29.0653  -25.1519   21.5772 H   0  0  0  0  0  0
  -27.5742  -23.0492   20.8829 H   0  0  0  0  0  0
  -28.3374  -20.7704   19.8953 H   0  0  0  0  0  0
  -28.8215  -15.6737   20.1849 H   0  0  0  0  0  0
  1 25  1  0  0  0
  1 30  2  0  0  0
  1 82  1  0  0  0
  2  3  1  0  0  0
  2 25  1  0  0  0
  2 88  1  0  0  0
  2 89  1  0  0  0
  3  4  1  0  0  0
  3 90  1  0  0  0
  3 91  1  0  0  0
  4  5  1  0  0  0
  4 92  1  0  0  0
  4 93  1  0  0  0
  5  6  1  0  0  0
  5 26  1  0  0  0
  5 94  1  0  0  0
  6 25  1  0  0  0
  6 95  1  0  0  0
  6 96  1  0  0  0
  7  8  2  0  0  0
  7 26  1  0  0  0
  7 29  1  0  0  0
  8  9  1  0  0  0
  8 22  1  0  0  0
  9 10  1  0  0  0
  9 27  2  0  0  0
 10 11  2  0  0  0
 10 15  1  0  0  0
 11 12  1  0  0  0
 11 97  1  0  0  0
 12 13  2  0  0  0
 12 98  1  0  0  0
 13 14  1  0  0  0
 13 31  1  0  0  0
 14 15  2  0  0  0
 14 99  1  0  0  0
 15100  1  0  0  0
 16 17  2  0  0  0
 16 21  1  0  0  0
 16 31  1  0  0  0
 17 18  1  0  0  0
 17101  1  0  0  0
 18 19  2  0  0  0
 18102  1  0  0  0
 19 20  1  0  0  0
 19 24  1  0  0  0
 20 21  2  0  0  0
 20103  1  0  0  0
 21 23  1  0  0  0
 22 28  1  0  0  0
 22 32  2  0  0  0
 26 27  1  0  0  0
 28104  1  0  0  0
 28105  1  0  0  0
 29106  1  0  0  0
 29107  1  0  0  0
 33 34  1  0  0  0
 33 66  1  0  0  0
 33 70  2  0  0  0
 34 36  1  0  0  0
 34 59  1  0  0  0
 34108  1  0  0  0
 35 44  2  0  0  0
 35 45  1  0  0  0
 35 68  1  0  0  0
 36 56  1  0  0  0
 36109  1  0  0  0
 37 39  1  0  0  0
 37 47  1  0  0  0
 37 66  1  0  0  0
 37110  1  0  0  0
 38 43  2  0  0  0
 38 46  1  0  0  0
 38 47  1  0  0  0
 39 64  1  0  0  0
 39 67  2  0  0  0
 40 52  1  0  0  0
 40 53  2  0  0  0
 40 58  1  0  0  0
 41111  1  0  0  0
 41112  1  0  0  0
 41113  1  0  0  0
 41 48  1  0  0  0
 42 43  1  0  0  0
 42 66  1  0  0  0
 42114  1  0  0  0
 42115  1  0  0  0
 43 44  1  0  0  0
 44116  1  0  0  0
 45 46  2  0  0  0
 45117  1  0  0  0
 46118  1  0  0  0
 47119  1  0  0  0
 47120  1  0  0  0
 48 56  1  0  0  0
 48 65  1  0  0  0
 48121  1  0  0  0
 49 50  1  0  0  0
 49 53  1  0  0  0
 49 64  1  0  0  0
 49122  1  0  0  0
 50 51  1  0  0  0
 50123  1  0  0  0
 50124  1  0  0  0
 51 52  1  0  0  0
 51125  1  0  0  0
 51126  1  0  0  0
 52127  1  0  0  0
 52128  1  0  0  0
 53 54  1  0  0  0
 54 55  2  0  0  0
 54129  1  0  0  0
 55 57  1  0  0  0
 55130  1  0  0  0
 56 69  2  0  0  0
 57 58  2  0  0  0
 57131  1  0  0  0
 58132  1  0  0  0
 59 60  1  0  0  0
 59 61  1  0  0  0
 59 62  1  0  0  0
 60133  1  0  0  0
 60134  1  0  0  0
 60135  1  0  0  0
 61136  1  0  0  0
 61137  1  0  0  0
 61138  1  0  0  0
 62139  1  0  0  0
 62140  1  0  0  0
 62141  1  0  0  0
 63 65  1  0  0  0
 63142  1  0  0  0
 63143  1  0  0  0
 63144  1  0  0  0
 64145  1  0  0  0
 65146  1  0  0  0
 68 76  1  0  0  0
 71 72  2  0  0  0
 71 78  1  0  0  0
 71 87  1  0  0  0
 72 80  1  0  0  0
 72 81  1  0  0  0
 73 80  2  0  0  0
 73 82  1  0  0  0
 73 87  1  0  0  0
 74147  1  0  0  0
 74148  1  0  0  0
 74149  1  0  0  0
 74 79  1  0  0  0
 75 79  1  0  0  0
 75150  1  0  0  0
 75151  1  0  0  0
 75152  1  0  0  0
 76 77  1  0  0  0
 76153  1  0  0  0
 76154  1  0  0  0
 77 79  1  0  0  0
 77 83  1  0  0  0
 77155  1  0  0  0
 78 84  1  0  0  0
 78 85  1  0  0  0
 78 86  1  0  0  0
 79 81  1  0  0  0
 81156  1  0  0  0
 82157  1  0  0  0
M  ISO  4   1 100  68 101  76 101  82 100
M  END
> <chiral flag>
0

> <version>
0

> <s_m_source_file>
/data/baiqing/PycharmProjects/Reinvent-master-3.2/result/LINK_invent/BTK/process_docking_weight1_custom_product_contain_oxygen_bond_distance_aromatic_linkinvent_7_9_3/rearranged_h_0188.sdf

> <i_m_source_file_index>
57

> <r_mmod_Potential_Energy-OPLS-2005>
272.381378173828

> <r_mmod_Stretch_Energy-OPLS-2005>
144.519821166992

> <r_mmod_Bend_Energy-OPLS-2005>
236.264129638672

> <r_mmod_Torsional_Energy-OPLS-2005>
287.791931152344

> <r_mmod_Improper_Torsional_Energy-OPLS-2005>
12.3253803253174

> <r_mmod_Van_der_Waal_Energy-OPLS-2005>
122.241836547852

> <r_mmod_Electrostatic_Energy-OPLS-2005>
-413.004028320312

> <r_mmod_Solvation_Energy-OPLS-2005>
-203.389678955078

> <b_mmod_Minimization_Converged-OPLS-2005>
0

> <r_mmod_RMS_Derivative-OPLS-2005>
4.29791641235352

$$$$
58
                    3D
 Structure written by MMmdl.
162170  0  0  1  0            999 V2000
  -30.7544  -14.4629   20.5498 C   0  0  0  0  0  0
  -30.3967  -12.3217   19.3940 C   0  0  0  0  0  0
  -29.4585  -12.4845   18.1844 C   0  0  0  0  0  0
  -27.9899  -12.3331   18.6134 C   0  0  0  0  0  0
  -27.6508  -13.1924   19.8559 C   0  0  2  0  0  0
  -28.7024  -12.9885   20.9782 C   0  0  0  0  0  0
  -25.2565  -13.8114   20.5641 C   0  0  0  0  0  0
  -24.1812  -13.0379   20.9250 C   0  0  0  0  0  0
  -24.6393  -11.6871   20.8840 C   0  0  0  0  0  0
  -23.9091  -10.4254   21.0486 C   0  0  0  0  0  0
  -24.3634   -9.4165   21.9243 C   0  0  0  0  0  0
  -23.6286   -8.2212   22.0730 C   0  0  0  0  0  0
  -22.4288   -8.0298   21.3466 C   0  0  0  0  0  0
  -21.9931   -9.0298   20.4595 C   0  0  0  0  0  0
  -22.7285  -10.2181   20.3083 C   0  0  0  0  0  0
  -21.6831   -6.0750   22.5286 C   0  0  0  0  0  0
  -21.3992   -6.5637   23.8224 C   0  0  0  0  0  0
  -21.3654   -5.6768   24.9180 C   0  0  0  0  0  0
  -21.6061   -4.3029   24.7233 C   0  0  0  0  0  0
  -21.8806   -3.8158   23.4344 C   0  0  0  0  0  0
  -21.9159   -4.6976   22.3426 C   0  0  0  0  0  0
  -22.7867  -13.5204   21.1858 C   0  0  0  0  0  0
  -22.1637   -4.2172   21.0998 F   0  0  0  0  0  0
  -21.5649   -3.4522   25.7752 F   0  0  0  0  0  0
  -30.0119  -13.3280   20.4049 N   0  0  0  0  0  0
  -26.2979  -12.9225   20.3312 N   0  0  0  0  0  0
  -25.9318  -11.6395   20.5826 N   0  0  0  0  0  0
  -22.0517  -12.8291   22.0468 N   0  0  0  0  0  0
  -25.4307  -15.1825   20.4010 N   0  0  0  0  0  0
  -31.8825  -14.5649   20.0692 O   0  0  0  0  0  0
  -21.6599   -6.8940   21.4229 O   0  0  0  0  0  0
  -22.3552  -14.5436   20.6655 O   0  0  0  0  0  0
  -24.6092  -31.8652   23.2127 C   0  0  0  0  0  0
  -25.8965  -32.4854   23.8410 C   0  0  1  0  0  0
  -27.2349  -27.4649   20.0791 C   0  0  0  0  0  0
  -25.5823  -33.8647   24.2332 N   0  0  0  0  0  0
  -23.4003  -30.4807   21.5581 C   0  0  2  0  0  0
  -24.8456  -28.9502   20.1269 C   0  0  0  0  0  0
  -22.7422  -29.4592   22.5102 C   0  0  0  0  0  0
  -18.0270  -28.1324   22.8402 C   0  0  0  0  0  0
  -24.1482  -36.7322   23.2625 C   0  0  0  0  0  0
  -25.9222  -30.8362   21.3662 C   0  0  0  0  0  0
  -26.0025  -29.4708   20.7191 C   0  0  0  0  0  0
  -27.2037  -28.7315   20.7035 C   0  0  0  0  0  0
  -26.0635  -26.9569   19.4722 C   0  0  0  0  0  0
  -24.8637  -27.6903   19.5083 C   0  0  0  0  0  0
  -23.6112  -29.8098   20.1737 C   0  0  0  0  0  0
  -25.4100  -36.3115   24.0319 C   0  0  1  0  0  0
  -20.5861  -28.3636   23.1362 C   0  0  2  0  0  0
  -20.6742  -26.9360   22.5395 C   0  0  0  0  0  0
  -19.5752  -26.6443   21.5125 C   0  0  0  0  0  0
  -18.1989  -26.7868   22.1572 C   0  0  0  0  0  0
  -19.1496  -28.8795   23.2861 C   0  0  0  0  0  0
  -18.9365  -30.1386   23.8880 C   0  0  0  0  0  0
  -17.6354  -30.6501   24.0543 C   0  0  0  0  0  0
  -25.9008  -34.9491   23.5128 C   0  0  0  0  0  0
  -16.5293  -29.8951   23.6284 C   0  0  0  0  0  0
  -16.7267  -28.6431   23.0211 C   0  0  0  0  0  0
  -26.4430  -31.6632   25.0711 C   0  0  0  0  0  0
  -25.3718  -31.3682   26.1477 C   0  0  0  0  0  0
  -27.0245  -30.3084   24.6031 C   0  0  0  0  0  0
  -27.6034  -32.4352   25.7479 C   0  0  0  0  0  0
  -27.5591  -37.1816   24.8470 C   0  0  0  0  0  0
  -21.4124  -29.3042   22.3839 N   0  0  0  0  0  0
  -26.4311  -37.3792   23.9396 N   0  0  0  0  0  0
  -24.6614  -31.0709   22.1072 N   0  0  0  0  0  0
  -23.4149  -28.8050   23.3115 O   0  0  0  0  0  0
  -28.3976  -26.7417   20.0375 O   0  0  0  0  0  0
  -26.5573  -34.8926   22.4686 O   0  0  0  0  0  0
  -23.5275  -32.1369   23.7505 O   0  0  0  0  0  0
  -28.1498  -19.4059   19.6170 C   0  0  0  0  0  0
  -28.0437  -19.6755   20.9605 C   0  0  0  0  0  0
  -28.3222  -18.5317   21.7643 C   0  0  0  0  0  0
  -28.6586  -17.4088   21.0607 C   0  0  0  0  0  0
  -27.9765  -24.3397   20.3975 C   0  0  0  0  0  0
  -25.4641  -21.6406   20.6997 C   0  0  0  0  0  0
  -23.1450  -21.7950   21.8498 C   0  0  0  0  0  0
  -28.9403  -16.0345   21.5671 C   0  0  0  0  0  0
  -27.3507  -23.3500   21.3918 C   0  0  0  0  0  0
  -24.4611  -22.5015   21.4756 C   0  0  0  0  0  0
  -28.4346  -25.6780   20.9908 C   0  0  0  0  0  0
  -26.9868  -21.9426   20.8221 C   0  0  1  0  0  0
  -27.6855  -20.8919   21.5713 N   0  0  0  0  0  0
  -30.2640  -15.5699   21.1461 N   0  0  0  0  0  0
  -28.1240  -24.0801   19.1964 O   0  0  0  0  0  0
  -25.0464  -20.7037   20.0019 O   0  0  0  0  0  0
  -28.2393  -18.5715   23.0758 F   0  0  0  0  0  0
  -28.6195  -17.7449   19.3417 S   0  0  0  0  0  0
  -31.4339  -12.4042   19.0637 H   0  0  0  0  0  0
  -30.3036  -11.3157   19.8100 H   0  0  0  0  0  0
  -29.6951  -11.7398   17.4220 H   0  0  0  0  0  0
  -29.6015  -13.4631   17.7276 H   0  0  0  0  0  0
  -27.8159  -11.2803   18.8324 H   0  0  0  0  0  0
  -27.3223  -12.5810   17.7833 H   0  0  0  0  0  0
  -27.6837  -14.2231   19.5031 H   0  0  0  0  0  0
  -28.7079  -11.9514   21.3075 H   0  0  0  0  0  0
  -28.4848  -13.5310   21.8973 H   0  0  0  0  0  0
  -25.2792   -9.5656   22.4797 H   0  0  0  0  0  0
  -23.9991   -7.4611   22.7463 H   0  0  0  0  0  0
  -21.0845   -8.8826   19.8942 H   0  0  0  0  0  0
  -22.3743  -10.9712   19.6202 H   0  0  0  0  0  0
  -21.1957   -7.6146   23.9744 H   0  0  0  0  0  0
  -21.1464   -6.0495   25.9076 H   0  0  0  0  0  0
  -22.0596   -2.7629   23.2829 H   0  0  0  0  0  0
  -22.4039  -11.9984   22.4937 H   0  0  0  0  0  0
  -21.1132  -13.1325   22.2477 H   0  0  0  0  0  0
  -24.6480  -15.8250   20.4733 H   0  0  0  0  0  0
  -26.2573  -15.6284   20.0303 H   0  0  0  0  0  0
  -26.7055  -32.5579   23.1207 H   0  0  0  0  0  0
  -25.0122  -33.9943   25.0576 H   0  0  0  0  0  0
  -22.6832  -31.2898   21.4129 H   0  0  0  0  0  0
  -23.3757  -35.9661   23.3317 H   0  0  0  0  0  0
  -24.3582  -36.8915   22.2048 H   0  0  0  0  0  0
  -23.7276  -37.6536   23.6629 H   0  0  0  0  0  0
  -26.0202  -31.5990   20.5937 H   0  0  0  0  0  0
  -26.8178  -30.8948   21.9724 H   0  0  0  0  0  0
  -28.0929  -29.1255   21.1757 H   0  0  0  0  0  0
  -26.0743  -25.9990   18.9648 H   0  0  0  0  0  0
  -23.9656  -27.2860   19.0561 H   0  0  0  0  0  0
  -23.7393  -30.5765   19.4064 H   0  0  0  0  0  0
  -22.7437  -29.2171   19.8730 H   0  0  0  0  0  0
  -25.1303  -36.2007   25.0826 H   0  0  0  0  0  0
  -20.9912  -28.3190   24.1471 H   0  0  0  0  0  0
  -20.5569  -26.2173   23.3490 H   0  0  0  0  0  0
  -21.6603  -26.7385   22.1192 H   0  0  0  0  0  0
  -19.6966  -25.6424   21.1001 H   0  0  0  0  0  0
  -19.6720  -27.3395   20.6792 H   0  0  0  0  0  0
  -17.4161  -26.6467   21.4056 H   0  0  0  0  0  0
  -18.0595  -25.9966   22.8989 H   0  0  0  0  0  0
  -19.7836  -30.7219   24.2164 H   0  0  0  0  0  0
  -17.4844  -31.6157   24.5133 H   0  0  0  0  0  0
  -15.5252  -30.2748   23.7623 H   0  0  0  0  0  0
  -15.8707  -28.0726   22.6800 H   0  0  0  0  0  0
  -24.5901  -30.7048   25.7763 H   0  0  0  0  0  0
  -24.8911  -32.2815   26.4996 H   0  0  0  0  0  0
  -25.8106  -30.8790   27.0190 H   0  0  0  0  0  0
  -26.2748  -29.6887   24.1097 H   0  0  0  0  0  0
  -27.4032  -29.7299   25.4465 H   0  0  0  0  0  0
  -27.8596  -30.4432   23.9150 H   0  0  0  0  0  0
  -27.2669  -33.3638   26.2123 H   0  0  0  0  0  0
  -28.3820  -32.6939   25.0285 H   0  0  0  0  0  0
  -28.0720  -31.8421   26.5357 H   0  0  0  0  0  0
  -28.2594  -38.0110   24.7478 H   0  0  0  0  0  0
  -28.1082  -36.2638   24.6350 H   0  0  0  0  0  0
  -27.2279  -37.1550   25.8858 H   0  0  0  0  0  0
  -20.9422  -29.8526   21.6794 H   0  0  0  0  0  0
  -26.0192  -38.2861   24.1443 H   0  0  0  0  0  0
  -27.9542  -20.0432   18.7645 H   0  0  0  0  0  0
  -22.7358  -22.2631   22.7502 H   0  0  0  0  0  0
  -23.2871  -20.7299   22.0755 H   0  0  0  0  0  0
  -22.3965  -21.8979   21.0578 H   0  0  0  0  0  0
  -28.1145  -15.4470   21.1973 H   0  0  0  0  0  0
  -28.8944  -15.9998   22.6581 H   0  0  0  0  0  0
  -26.4981  -23.8700   21.8361 H   0  0  0  0  0  0
  -28.0845  -23.2481   22.1948 H   0  0  0  0  0  0
  -24.2684  -23.4197   20.9109 H   0  0  0  0  0  0
  -24.9240  -22.8066   22.4100 H   0  0  0  0  0  0
  -29.4551  -25.5562   21.3519 H   0  0  0  0  0  0
  -27.8130  -25.9111   21.8555 H   0  0  0  0  0  0
  -27.3684  -21.8788   19.8003 H   0  0  0  0  0  0
  -27.4381  -20.7676   22.5494 H   0  0  0  0  0  0
  -30.9380  -16.3213   21.1059 H   0  0  0  0  0  0
  1 25  1  0  0  0
  1 30  2  0  0  0
  1 84  1  0  0  0
  2  3  1  0  0  0
  2 25  1  0  0  0
  2 89  1  0  0  0
  2 90  1  0  0  0
  3  4  1  0  0  0
  3 91  1  0  0  0
  3 92  1  0  0  0
  4  5  1  0  0  0
  4 93  1  0  0  0
  4 94  1  0  0  0
  5  6  1  0  0  0
  5 26  1  0  0  0
  5 95  1  0  0  0
  6 25  1  0  0  0
  6 96  1  0  0  0
  6 97  1  0  0  0
  7  8  2  0  0  0
  7 26  1  0  0  0
  7 29  1  0  0  0
  8  9  1  0  0  0
  8 22  1  0  0  0
  9 10  1  0  0  0
  9 27  2  0  0  0
 10 11  2  0  0  0
 10 15  1  0  0  0
 11 12  1  0  0  0
 11 98  1  0  0  0
 12 13  2  0  0  0
 12 99  1  0  0  0
 13 14  1  0  0  0
 13 31  1  0  0  0
 14 15  2  0  0  0
 14100  1  0  0  0
 15101  1  0  0  0
 16 17  2  0  0  0
 16 21  1  0  0  0
 16 31  1  0  0  0
 17 18  1  0  0  0
 17102  1  0  0  0
 18 19  2  0  0  0
 18103  1  0  0  0
 19 20  1  0  0  0
 19 24  1  0  0  0
 20 21  2  0  0  0
 20104  1  0  0  0
 21 23  1  0  0  0
 22 28  1  0  0  0
 22 32  2  0  0  0
 26 27  1  0  0  0
 28105  1  0  0  0
 28106  1  0  0  0
 29107  1  0  0  0
 29108  1  0  0  0
 33 34  1  0  0  0
 33 66  1  0  0  0
 33 70  2  0  0  0
 34 36  1  0  0  0
 34 59  1  0  0  0
 34109  1  0  0  0
 35 44  2  0  0  0
 35 45  1  0  0  0
 35 68  1  0  0  0
 36 56  1  0  0  0
 36110  1  0  0  0
 37 39  1  0  0  0
 37 47  1  0  0  0
 37 66  1  0  0  0
 37111  1  0  0  0
 38 43  2  0  0  0
 38 46  1  0  0  0
 38 47  1  0  0  0
 39 64  1  0  0  0
 39 67  2  0  0  0
 40 52  1  0  0  0
 40 53  2  0  0  0
 40 58  1  0  0  0
 41112  1  0  0  0
 41113  1  0  0  0
 41114  1  0  0  0
 41 48  1  0  0  0
 42 43  1  0  0  0
 42 66  1  0  0  0
 42115  1  0  0  0
 42116  1  0  0  0
 43 44  1  0  0  0
 44117  1  0  0  0
 45 46  2  0  0  0
 45118  1  0  0  0
 46119  1  0  0  0
 47120  1  0  0  0
 47121  1  0  0  0
 48 56  1  0  0  0
 48 65  1  0  0  0
 48122  1  0  0  0
 49 50  1  0  0  0
 49 53  1  0  0  0
 49 64  1  0  0  0
 49123  1  0  0  0
 50 51  1  0  0  0
 50124  1  0  0  0
 50125  1  0  0  0
 51 52  1  0  0  0
 51126  1  0  0  0
 51127  1  0  0  0
 52128  1  0  0  0
 52129  1  0  0  0
 53 54  1  0  0  0
 54 55  2  0  0  0
 54130  1  0  0  0
 55 57  1  0  0  0
 55131  1  0  0  0
 56 69  2  0  0  0
 57 58  2  0  0  0
 57132  1  0  0  0
 58133  1  0  0  0
 59 60  1  0  0  0
 59 61  1  0  0  0
 59 62  1  0  0  0
 60134  1  0  0  0
 60135  1  0  0  0
 60136  1  0  0  0
 61137  1  0  0  0
 61138  1  0  0  0
 61139  1  0  0  0
 62140  1  0  0  0
 62141  1  0  0  0
 62142  1  0  0  0
 63 65  1  0  0  0
 63143  1  0  0  0
 63144  1  0  0  0
 63145  1  0  0  0
 64146  1  0  0  0
 65147  1  0  0  0
 68 81  1  0  0  0
 71 72  2  0  0  0
 71 88  1  0  0  0
 71148  1  0  0  0
 72 73  1  0  0  0
 72 83  1  0  0  0
 73 74  2  0  0  0
 73 87  1  0  0  0
 74 78  1  0  0  0
 74 88  1  0  0  0
 75 79  1  0  0  0
 75 81  1  0  0  0
 75 85  2  0  0  0
 76 80  1  0  0  0
 76 82  1  0  0  0
 76 86  2  0  0  0
 77 80  1  0  0  0
 77149  1  0  0  0
 77150  1  0  0  0
 77151  1  0  0  0
 78 84  1  0  0  0
 78152  1  0  0  0
 78153  1  0  0  0
 79154  1  0  0  0
 79155  1  0  0  0
 79 82  1  0  0  0
 80156  1  0  0  0
 80157  1  0  0  0
 81158  1  0  0  0
 81159  1  0  0  0
 82 83  1  0  0  0
 82160  1  0  0  0
 83161  1  0  0  0
 84162  1  0  0  0
M  ISO  4   1 100  68 101  81 101  84 100
M  END
> <chiral flag>
0

> <version>
0

> <s_m_source_file>
/data/baiqing/PycharmProjects/Reinvent-master-3.2/result/LINK_invent/BTK/process_docking_weight1_custom_product_contain_oxygen_bond_distance_aromatic_linkinvent_7_9_3/rearranged_h_0188.sdf

> <i_m_source_file_index>
58

> <r_mmod_Potential_Energy-OPLS-2005>
-11.6207685470581

> <r_mmod_Stretch_Energy-OPLS-2005>
35.3077507019043

> <r_mmod_Bend_Energy-OPLS-2005>
143.130874633789

> <r_mmod_Torsional_Energy-OPLS-2005>
278.771362304688

> <r_mmod_Improper_Torsional_Energy-OPLS-2005>
5.88823556900024

> <r_mmod_Van_der_Waal_Energy-OPLS-2005>
130.267135620117

> <r_mmod_Electrostatic_Energy-OPLS-2005>
-384.975799560547

> <r_mmod_Solvation_Energy-OPLS-2005>
-234.643173217773

> <b_mmod_Minimization_Converged-OPLS-2005>
0

> <r_mmod_RMS_Derivative-OPLS-2005>
10.0780181884766

$$$$
59
                    3D
 Structure written by MMmdl.
156164  0  0  1  0            999 V2000
  -30.5803  -14.6929   20.4786 C   0  0  0  0  0  0
  -30.4453  -12.4227   19.4649 C   0  0  0  0  0  0
  -29.5134  -12.4969   18.2337 C   0  0  0  0  0  0
  -28.0343  -12.3325   18.6414 C   0  0  0  0  0  0
  -27.6466  -13.2146   19.8571 C   0  0  2  0  0  0
  -28.6887  -13.0902   20.9900 C   0  0  0  0  0  0
  -25.2528  -13.8162   20.5678 C   0  0  0  0  0  0
  -24.1791  -13.0436   20.9198 C   0  0  0  0  0  0
  -24.6355  -11.6906   20.8738 C   0  0  0  0  0  0
  -23.9019  -10.4290   21.0402 C   0  0  0  0  0  0
  -24.3583   -9.4215   21.9177 C   0  0  0  0  0  0
  -23.6270   -8.2245   22.0755 C   0  0  0  0  0  0
  -22.4255   -8.0273   21.3544 C   0  0  0  0  0  0
  -21.9871   -9.0244   20.4652 C   0  0  0  0  0  0
  -22.7190  -10.2128   20.3059 C   0  0  0  0  0  0
  -21.6853   -6.0728   22.5270 C   0  0  0  0  0  0
  -21.4020   -6.5635   23.8205 C   0  0  0  0  0  0
  -21.3659   -5.6788   24.9166 C   0  0  0  0  0  0
  -21.6039   -4.3049   24.7219 C   0  0  0  0  0  0
  -21.8819   -3.8141   23.4342 C   0  0  0  0  0  0
  -21.9191   -4.6955   22.3396 C   0  0  0  0  0  0
  -22.7819  -13.5239   21.1863 C   0  0  0  0  0  0
  -22.1658   -4.2145   21.0975 F   0  0  0  0  0  0
  -21.5623   -3.4532   25.7733 F   0  0  0  0  0  0
  -29.9981  -13.4514   20.4259 N   0  0  0  0  0  0
  -26.2937  -12.9329   20.3270 N   0  0  0  0  0  0
  -25.9279  -11.6492   20.5732 N   0  0  0  0  0  0
  -22.0442  -12.8256   22.0424 N   0  0  0  0  0  0
  -25.4252  -15.1885   20.4091 N   0  0  0  0  0  0
  -31.7574  -14.8548   20.1365 O   0  0  0  0  0  0
  -21.6634   -6.8866   21.4234 O   0  0  0  0  0  0
  -22.3512  -14.5547   20.6710 O   0  0  0  0  0  0
  -24.6272  -31.8561   23.1994 C   0  0  0  0  0  0
  -25.9116  -32.4752   23.8331 C   0  0  1  0  0  0
  -27.2299  -27.3046   20.1275 C   0  0  0  0  0  0
  -25.5918  -33.8555   24.2241 N   0  0  0  0  0  0
  -23.4211  -30.4776   21.5403 C   0  0  2  0  0  0
  -24.8694  -28.9185   20.1179 C   0  0  0  0  0  0
  -22.7475  -29.4608   22.4920 C   0  0  0  0  0  0
  -18.0286  -28.1378   22.8492 C   0  0  0  0  0  0
  -24.1487  -36.7285   23.2637 C   0  0  0  0  0  0
  -25.9621  -30.7834   21.3721 C   0  0  0  0  0  0
  -26.0376  -29.4076   20.7164 C   0  0  0  0  0  0
  -27.2227  -28.6142   20.7025 C   0  0  0  0  0  0
  -26.0406  -26.8574   19.5185 C   0  0  0  0  0  0
  -24.8723  -27.6497   19.5114 C   0  0  0  0  0  0
  -23.6386  -29.8031   20.1597 C   0  0  0  0  0  0
  -25.4115  -36.3061   24.0308 C   0  0  1  0  0  0
  -20.5886  -28.3685   23.1278 C   0  0  2  0  0  0
  -20.6761  -26.9406   22.5408 C   0  0  0  0  0  0
  -19.5739  -26.6387   21.5203 C   0  0  0  0  0  0
  -18.1921  -26.7926   22.1622 C   0  0  0  0  0  0
  -19.1540  -28.8850   23.2880 C   0  0  0  0  0  0
  -18.9461  -30.1447   23.8906 C   0  0  0  0  0  0
  -17.6461  -30.6581   24.0562 C   0  0  0  0  0  0
  -25.9051  -34.9430   23.5075 C   0  0  0  0  0  0
  -16.5351  -29.9076   23.6337 C   0  0  0  0  0  0
  -16.7274  -28.6491   23.0367 C   0  0  0  0  0  0
  -26.4504  -31.6588   25.0724 C   0  0  0  0  0  0
  -25.3747  -31.3742   26.1466 C   0  0  0  0  0  0
  -27.0347  -30.2993   24.6213 C   0  0  0  0  0  0
  -27.6041  -32.4357   25.7504 C   0  0  0  0  0  0
  -27.5569  -37.1794   24.8461 C   0  0  0  0  0  0
  -21.4184  -29.3038   22.3668 N   0  0  0  0  0  0
  -26.4285  -37.3764   23.9401 N   0  0  0  0  0  0
  -24.6881  -31.0571   22.0938 N   0  0  0  0  0  0
  -23.4194  -28.8164   23.3019 O   0  0  0  0  0  0
  -28.3702  -26.4877   20.1058 O   0  0  0  0  0  0
  -26.5638  -34.8910   22.4651 O   0  0  0  0  0  0
  -23.5438  -32.1368   23.7324 O   0  0  0  0  0  0
  -30.9703  -17.9109   20.3028 C   0  0  0  0  0  0
  -29.8513  -17.1264   20.5183 C   0  0  0  0  0  0
  -29.4374  -19.6731   20.0999 C   0  0  0  0  0  0
  -27.5210  -25.1235   22.0102 C   0  0  0  0  0  0
  -29.3281  -20.7156   17.2804 C   0  0  0  0  0  0
  -28.3521  -23.7799   19.9158 C   0  0  0  0  0  0
  -28.8895  -21.0760   19.6171 C   0  0  1  0  0  0
  -28.4230  -25.1470   20.7626 C   0  0  1  0  0  0
  -28.8866  -22.3838   20.5467 C   0  0  2  0  0  0
  -30.7311  -19.2956   20.0840 N   0  0  0  0  0  0
  -29.7321  -15.7497   20.7352 N   0  0  0  0  0  0
  -29.6527  -21.4401   18.4620 O   0  0  0  0  0  0
  -28.1464  -22.0983   21.6193 F   0  0  0  0  0  0
  -28.4421  -18.2283   20.4920 S   0  0  0  0  0  0
  -31.4822  -12.5721   19.1606 H   0  0  0  0  0  0
  -30.4104  -11.4348   19.9259 H   0  0  0  0  0  0
  -29.7881  -11.7277   17.5110 H   0  0  0  0  0  0
  -29.6503  -13.4536   17.7274 H   0  0  0  0  0  0
  -27.8743  -11.2816   18.8861 H   0  0  0  0  0  0
  -27.3826  -12.5480   17.7937 H   0  0  0  0  0  0
  -27.6566  -14.2439   19.4995 H   0  0  0  0  0  0
  -28.7109  -12.0712   21.3797 H   0  0  0  0  0  0
  -28.4265  -13.7265   21.8359 H   0  0  0  0  0  0
  -25.2719   -9.5707   22.4760 H   0  0  0  0  0  0
  -23.9983   -7.4638   22.7473 H   0  0  0  0  0  0
  -21.0801   -8.8753   19.8957 H   0  0  0  0  0  0
  -22.3623  -10.9673   19.6182 H   0  0  0  0  0  0
  -21.2027   -7.6144   23.9708 H   0  0  0  0  0  0
  -21.1475   -6.0517   25.9069 H   0  0  0  0  0  0
  -22.0601   -2.7605   23.2837 H   0  0  0  0  0  0
  -22.4029  -11.9934   22.4860 H   0  0  0  0  0  0
  -21.1069  -13.1329   22.2619 H   0  0  0  0  0  0
  -24.6563  -15.8409   20.5161 H   0  0  0  0  0  0
  -26.2620  -15.6238   20.0436 H   0  0  0  0  0  0
  -26.7178  -32.5406   23.1075 H   0  0  0  0  0  0
  -25.0037  -33.9698   25.0361 H   0  0  0  0  0  0
  -22.7141  -31.2964   21.3914 H   0  0  0  0  0  0
  -23.3738  -35.9633   23.3313 H   0  0  0  0  0  0
  -24.3562  -36.8912   22.2051 H   0  0  0  0  0  0
  -23.7270  -37.6489   23.6674 H   0  0  0  0  0  0
  -26.0993  -31.5487   20.6075 H   0  0  0  0  0  0
  -26.8382  -30.8276   22.0078 H   0  0  0  0  0  0
  -28.1274  -28.9910   21.1577 H   0  0  0  0  0  0
  -26.0139  -25.8812   19.0552 H   0  0  0  0  0  0
  -23.9739  -27.2679   19.0467 H   0  0  0  0  0  0
  -23.7593  -30.5747   19.3980 H   0  0  0  0  0  0
  -22.7583  -29.2328   19.8597 H   0  0  0  0  0  0
  -25.1304  -36.1886   25.0800 H   0  0  0  0  0  0
  -20.9983  -28.3259   24.1396 H   0  0  0  0  0  0
  -20.5636  -26.2295   23.3607 H   0  0  0  0  0  0
  -21.6625  -26.7408   22.1212 H   0  0  0  0  0  0
  -19.6889  -25.6300   21.1224 H   0  0  0  0  0  0
  -19.6671  -27.3200   20.6733 H   0  0  0  0  0  0
  -17.4184  -26.6691   21.4032 H   0  0  0  0  0  0
  -18.0322  -26.0054   22.9007 H   0  0  0  0  0  0
  -19.7936  -30.7261   24.2284 H   0  0  0  0  0  0
  -17.5014  -31.6268   24.5151 H   0  0  0  0  0  0
  -15.5348  -30.2979   23.7653 H   0  0  0  0  0  0
  -15.8676  -28.0800   22.7098 H   0  0  0  0  0  0
  -24.5877  -30.7142   25.7806 H   0  0  0  0  0  0
  -24.9004  -32.2923   26.4937 H   0  0  0  0  0  0
  -25.8079  -30.8879   27.0215 H   0  0  0  0  0  0
  -26.2924  -29.6746   24.1230 H   0  0  0  0  0  0
  -27.3999  -29.7256   25.4742 H   0  0  0  0  0  0
  -27.8822  -30.4243   23.9471 H   0  0  0  0  0  0
  -27.2595  -33.3628   26.2099 H   0  0  0  0  0  0
  -28.3843  -32.6982   25.0348 H   0  0  0  0  0  0
  -28.0733  -31.8501   26.5421 H   0  0  0  0  0  0
  -28.2587  -38.0088   24.7484 H   0  0  0  0  0  0
  -28.1058  -36.2611   24.6306 H   0  0  0  0  0  0
  -27.2279  -37.1470   25.8863 H   0  0  0  0  0  0
  -20.9355  -29.8749   21.6869 H   0  0  0  0  0  0
  -26.0149  -38.2825   24.1425 H   0  0  0  0  0  0
  -31.9944  -17.5651   20.2732 H   0  0  0  0  0  0
  -27.7555  -24.2798   22.6570 H   0  0  0  0  0  0
  -26.4658  -25.0575   21.7467 H   0  0  0  0  0  0
  -27.6631  -26.0226   22.6104 H   0  0  0  0  0  0
  -29.9244  -21.0934   16.4493 H   0  0  0  0  0  0
  -28.2772  -20.8372   17.0145 H   0  0  0  0  0  0
  -29.5420  -19.6506   17.3803 H   0  0  0  0  0  0
  -28.9215  -23.9518   19.0027 H   0  0  0  0  0  0
  -27.3248  -23.6342   19.5824 H   0  0  0  0  0  0
  -27.8528  -20.9203   19.3123 H   0  0  0  0  0  0
  -29.4413  -25.1465   21.1530 H   0  0  0  0  0  0
  -29.9022  -22.5360   20.9125 H   0  0  0  0  0  0
  -28.8066  -15.4474   21.0010 H   0  0  0  0  0  0
  1 25  1  0  0  0
  1 30  2  0  0  0
  1 81  1  0  0  0
  2  3  1  0  0  0
  2 25  1  0  0  0
  2 85  1  0  0  0
  2 86  1  0  0  0
  3  4  1  0  0  0
  3 87  1  0  0  0
  3 88  1  0  0  0
  4  5  1  0  0  0
  4 89  1  0  0  0
  4 90  1  0  0  0
  5  6  1  0  0  0
  5 26  1  0  0  0
  5 91  1  0  0  0
  6 25  1  0  0  0
  6 92  1  0  0  0
  6 93  1  0  0  0
  7  8  2  0  0  0
  7 26  1  0  0  0
  7 29  1  0  0  0
  8  9  1  0  0  0
  8 22  1  0  0  0
  9 10  1  0  0  0
  9 27  2  0  0  0
 10 11  2  0  0  0
 10 15  1  0  0  0
 11 12  1  0  0  0
 11 94  1  0  0  0
 12 13  2  0  0  0
 12 95  1  0  0  0
 13 14  1  0  0  0
 13 31  1  0  0  0
 14 15  2  0  0  0
 14 96  1  0  0  0
 15 97  1  0  0  0
 16 17  2  0  0  0
 16 21  1  0  0  0
 16 31  1  0  0  0
 17 18  1  0  0  0
 17 98  1  0  0  0
 18 19  2  0  0  0
 18 99  1  0  0  0
 19 20  1  0  0  0
 19 24  1  0  0  0
 20 21  2  0  0  0
 20100  1  0  0  0
 21 23  1  0  0  0
 22 28  1  0  0  0
 22 32  2  0  0  0
 26 27  1  0  0  0
 28101  1  0  0  0
 28102  1  0  0  0
 29103  1  0  0  0
 29104  1  0  0  0
 33 34  1  0  0  0
 33 66  1  0  0  0
 33 70  2  0  0  0
 34 36  1  0  0  0
 34 59  1  0  0  0
 34105  1  0  0  0
 35 44  2  0  0  0
 35 45  1  0  0  0
 35 68  1  0  0  0
 36 56  1  0  0  0
 36106  1  0  0  0
 37 39  1  0  0  0
 37 47  1  0  0  0
 37 66  1  0  0  0
 37107  1  0  0  0
 38 43  2  0  0  0
 38 46  1  0  0  0
 38 47  1  0  0  0
 39 64  1  0  0  0
 39 67  2  0  0  0
 40 52  1  0  0  0
 40 53  2  0  0  0
 40 58  1  0  0  0
 41108  1  0  0  0
 41109  1  0  0  0
 41110  1  0  0  0
 41 48  1  0  0  0
 42 43  1  0  0  0
 42 66  1  0  0  0
 42111  1  0  0  0
 42112  1  0  0  0
 43 44  1  0  0  0
 44113  1  0  0  0
 45 46  2  0  0  0
 45114  1  0  0  0
 46115  1  0  0  0
 47116  1  0  0  0
 47117  1  0  0  0
 48 56  1  0  0  0
 48 65  1  0  0  0
 48118  1  0  0  0
 49 50  1  0  0  0
 49 53  1  0  0  0
 49 64  1  0  0  0
 49119  1  0  0  0
 50 51  1  0  0  0
 50120  1  0  0  0
 50121  1  0  0  0
 51 52  1  0  0  0
 51122  1  0  0  0
 51123  1  0  0  0
 52124  1  0  0  0
 52125  1  0  0  0
 53 54  1  0  0  0
 54 55  2  0  0  0
 54126  1  0  0  0
 55 57  1  0  0  0
 55127  1  0  0  0
 56 69  2  0  0  0
 57 58  2  0  0  0
 57128  1  0  0  0
 58129  1  0  0  0
 59 60  1  0  0  0
 59 61  1  0  0  0
 59 62  1  0  0  0
 60130  1  0  0  0
 60131  1  0  0  0
 60132  1  0  0  0
 61133  1  0  0  0
 61134  1  0  0  0
 61135  1  0  0  0
 62136  1  0  0  0
 62137  1  0  0  0
 62138  1  0  0  0
 63 65  1  0  0  0
 63139  1  0  0  0
 63140  1  0  0  0
 63141  1  0  0  0
 64142  1  0  0  0
 65143  1  0  0  0
 68 78  1  0  0  0
 71 72  2  0  0  0
 71 80  1  0  0  0
 71144  1  0  0  0
 72 81  1  0  0  0
 72 84  1  0  0  0
 73 77  1  0  0  0
 73 80  2  0  0  0
 73 84  1  0  0  0
 74145  1  0  0  0
 74146  1  0  0  0
 74147  1  0  0  0
 74 78  1  0  0  0
 75 82  1  0  0  0
 75148  1  0  0  0
 75149  1  0  0  0
 75150  1  0  0  0
 76 78  1  0  0  0
 76 79  1  0  0  0
 76151  1  0  0  0
 76152  1  0  0  0
 77 79  1  0  0  0
 77 82  1  0  0  0
 77153  1  0  0  0
 78154  1  0  0  0
 79 83  1  0  0  0
 79155  1  0  0  0
 81156  1  0  0  0
M  ISO  4   1 100  68 101  78 101  81 100
M  END
> <chiral flag>
0

> <version>
0

> <s_m_source_file>
/data/baiqing/PycharmProjects/Reinvent-master-3.2/result/LINK_invent/BTK/process_docking_weight1_custom_product_contain_oxygen_bond_distance_aromatic_linkinvent_7_9_3/rearranged_h_0188.sdf

> <i_m_source_file_index>
59

> <r_mmod_Potential_Energy-OPLS-2005>
102.602531433105

> <r_mmod_Stretch_Energy-OPLS-2005>
97.6383666992188

> <r_mmod_Bend_Energy-OPLS-2005>
164.654235839844

> <r_mmod_Torsional_Energy-OPLS-2005>
227.547149658203

> <r_mmod_Improper_Torsional_Energy-OPLS-2005>
5.78191089630127

> <r_mmod_Van_der_Waal_Energy-OPLS-2005>
112.750411987305

> <r_mmod_Electrostatic_Energy-OPLS-2005>
-353.176391601562

> <r_mmod_Solvation_Energy-OPLS-2005>
-211.972686767578

> <b_mmod_Minimization_Converged-OPLS-2005>
0

> <r_mmod_RMS_Derivative-OPLS-2005>
1.5983030796051

$$$$
60
                    3D
 Structure written by MMmdl.
161169  0  0  1  0            999 V2000
  -30.6131  -14.7146   20.4633 C   0  0  0  0  0  0
  -30.4222  -12.4220   19.4875 C   0  0  0  0  0  0
  -29.5196  -12.5419   18.2390 C   0  0  0  0  0  0
  -28.0345  -12.3884   18.6279 C   0  0  0  0  0  0
  -27.6507  -13.2433   19.8678 C   0  0  2  0  0  0
  -28.6931  -13.1297   21.0033 C   0  0  0  0  0  0
  -25.2528  -13.8212   20.5702 C   0  0  0  0  0  0
  -24.1827  -13.0423   20.9174 C   0  0  0  0  0  0
  -24.6450  -11.6913   20.8728 C   0  0  0  0  0  0
  -23.9113  -10.4280   21.0377 C   0  0  0  0  0  0
  -24.3647   -9.4204   21.9164 C   0  0  0  0  0  0
  -23.6316   -8.2243   22.0751 C   0  0  0  0  0  0
  -22.4294   -8.0274   21.3535 C   0  0  0  0  0  0
  -21.9934   -9.0248   20.4639 C   0  0  0  0  0  0
  -22.7270  -10.2122   20.3034 C   0  0  0  0  0  0
  -21.6865   -6.0740   22.5270 C   0  0  0  0  0  0
  -21.4028   -6.5636   23.8206 C   0  0  0  0  0  0
  -21.3666   -5.6789   24.9164 C   0  0  0  0  0  0
  -21.6040   -4.3050   24.7211 C   0  0  0  0  0  0
  -21.8822   -3.8141   23.4332 C   0  0  0  0  0  0
  -21.9195   -4.6962   22.3389 C   0  0  0  0  0  0
  -22.7847  -13.5193   21.1829 C   0  0  0  0  0  0
  -22.1660   -4.2146   21.0974 F   0  0  0  0  0  0
  -21.5622   -3.4534   25.7726 F   0  0  0  0  0  0
  -30.0023  -13.4771   20.4405 N   0  0  0  0  0  0
  -26.2993  -12.9449   20.3341 N   0  0  0  0  0  0
  -25.9393  -11.6576   20.5748 N   0  0  0  0  0  0
  -22.0492  -12.8192   22.0394 N   0  0  0  0  0  0
  -25.4168  -15.1948   20.4167 N   0  0  0  0  0  0
  -31.7740  -14.8262   20.0574 O   0  0  0  0  0  0
  -21.6641   -6.8886   21.4238 O   0  0  0  0  0  0
  -22.3531  -14.5488   20.6662 O   0  0  0  0  0  0
  -24.6307  -31.8539   23.1966 C   0  0  0  0  0  0
  -25.9125  -32.4744   23.8325 C   0  0  1  0  0  0
  -27.2256  -27.2587   20.1214 C   0  0  0  0  0  0
  -25.5931  -33.8548   24.2255 N   0  0  0  0  0  0
  -23.4287  -30.4747   21.5396 C   0  0  2  0  0  0
  -24.8762  -28.9201   20.1109 C   0  0  0  0  0  0
  -22.7499  -29.4591   22.4905 C   0  0  0  0  0  0
  -18.0297  -28.1357   22.8506 C   0  0  0  0  0  0
  -24.1500  -36.7275   23.2638 C   0  0  0  0  0  0
  -25.9745  -30.7651   21.3781 C   0  0  0  0  0  0
  -26.0464  -29.3879   20.7174 C   0  0  0  0  0  0
  -27.2203  -28.5688   20.7134 C   0  0  0  0  0  0
  -26.0191  -26.8492   19.5057 C   0  0  0  0  0  0
  -24.8666  -27.6579   19.4982 C   0  0  0  0  0  0
  -23.6471  -29.8048   20.1571 C   0  0  0  0  0  0
  -25.4119  -36.3056   24.0332 C   0  0  1  0  0  0
  -20.5900  -28.3676   23.1275 C   0  0  2  0  0  0
  -20.6783  -26.9395   22.5405 C   0  0  0  0  0  0
  -19.5758  -26.6367   21.5215 C   0  0  0  0  0  0
  -18.1941  -26.7911   22.1628 C   0  0  0  0  0  0
  -19.1552  -28.8838   23.2888 C   0  0  0  0  0  0
  -18.9464  -30.1435   23.8898 C   0  0  0  0  0  0
  -17.6460  -30.6567   24.0552 C   0  0  0  0  0  0
  -25.9057  -34.9428   23.5087 C   0  0  0  0  0  0
  -16.5351  -29.9057   23.6319 C   0  0  0  0  0  0
  -16.7283  -28.6465   23.0373 C   0  0  0  0  0  0
  -26.4492  -31.6576   25.0726 C   0  0  0  0  0  0
  -25.3710  -31.3729   26.1442 C   0  0  0  0  0  0
  -27.0356  -30.2993   24.6223 C   0  0  0  0  0  0
  -27.6009  -32.4347   25.7530 C   0  0  0  0  0  0
  -27.5584  -37.1804   24.8454 C   0  0  0  0  0  0
  -21.4198  -29.3039   22.3665 N   0  0  0  0  0  0
  -26.4289  -37.3756   23.9407 N   0  0  0  0  0  0
  -24.6967  -31.0496   22.0948 N   0  0  0  0  0  0
  -23.4199  -28.8132   23.3001 O   0  0  0  0  0  0
  -28.3512  -26.4034   20.2005 O   0  0  0  0  0  0
  -26.5617  -34.8896   22.4653 O   0  0  0  0  0  0
  -23.5450  -32.1381   23.7252 O   0  0  0  0  0  0
  -30.3174  -17.4877   19.0079 C   0  0  0  0  0  0
  -29.9116  -17.2172   20.2920 C   0  0  0  0  0  0
  -29.5487  -19.5883   20.1873 C   0  0  0  0  0  0
  -32.1077  -21.5505   20.4295 C   0  0  0  0  0  0
  -31.7789  -23.9496   20.2990 C   0  0  0  0  0  0
  -31.1043  -22.5875   18.3413 C   0  0  0  0  0  0
  -28.4576  -25.0577   19.5388 C   0  0  0  0  0  0
  -29.6700  -22.4089   20.5252 C   0  0  2  0  0  0
  -28.5279  -23.6113   20.3328 C   0  0  1  0  0  0
  -31.1178  -22.6097   19.8852 C   0  0  0  0  0  0
  -29.4435  -18.4326   20.9296 N   0  0  0  0  0  0
  -29.8679  -15.8312   20.8211 N   0  0  0  0  0  0
  -29.1909  -20.9439   20.5841 N   0  0  0  0  0  0
  -28.1633  -22.8355   19.2061 O   0  0  0  0  0  0
  -30.1228  -19.1783   18.5645 S   0  0  0  0  0  0
  -31.4753  -12.4981   19.2120 H   0  0  0  0  0  0
  -30.3059  -11.4337   19.9377 H   0  0  0  0  0  0
  -29.7990  -11.7964   17.4927 H   0  0  0  0  0  0
  -29.6768  -13.5150   17.7701 H   0  0  0  0  0  0
  -27.8514  -11.3335   18.8288 H   0  0  0  0  0  0
  -27.3970  -12.6488   17.7801 H   0  0  0  0  0  0
  -27.6571  -14.2805   19.5329 H   0  0  0  0  0  0
  -28.7153  -12.1151   21.4037 H   0  0  0  0  0  0
  -28.4391  -13.7830   21.8387 H   0  0  0  0  0  0
  -25.2788   -9.5677   22.4750 H   0  0  0  0  0  0
  -24.0005   -7.4649   22.7490 H   0  0  0  0  0  0
  -21.0848   -8.8774   19.8977 H   0  0  0  0  0  0
  -22.3714  -10.9659   19.6145 H   0  0  0  0  0  0
  -21.2038   -7.6144   23.9713 H   0  0  0  0  0  0
  -21.1491   -6.0512   25.9073 H   0  0  0  0  0  0
  -22.0606   -2.7599   23.2823 H   0  0  0  0  0  0
  -22.4096  -11.9828   22.4742 H   0  0  0  0  0  0
  -21.1114  -13.1232   22.2597 H   0  0  0  0  0  0
  -24.6403  -15.8392   20.5172 H   0  0  0  0  0  0
  -26.2649  -15.6450   20.0961 H   0  0  0  0  0  0
  -26.7194  -32.5396   23.1062 H   0  0  0  0  0  0
  -25.0115  -33.9716   25.0425 H   0  0  0  0  0  0
  -22.7265  -31.2969   21.3891 H   0  0  0  0  0  0
  -23.3771  -35.9595   23.3258 H   0  0  0  0  0  0
  -24.3597  -36.8938   22.2059 H   0  0  0  0  0  0
  -23.7247  -37.6462   23.6685 H   0  0  0  0  0  0
  -26.1197  -31.5309   20.6146 H   0  0  0  0  0  0
  -26.8475  -30.8083   22.0171 H   0  0  0  0  0  0
  -28.1167  -28.9222   21.2030 H   0  0  0  0  0  0
  -25.9046  -25.8751   19.0554 H   0  0  0  0  0  0
  -23.9646  -27.2866   19.0328 H   0  0  0  0  0  0
  -23.7725  -30.5763   19.3970 H   0  0  0  0  0  0
  -22.7671  -29.2345   19.8546 H   0  0  0  0  0  0
  -25.1303  -36.1891   25.0826 H   0  0  0  0  0  0
  -21.0016  -28.3240   24.1386 H   0  0  0  0  0  0
  -20.5686  -26.2282   23.3605 H   0  0  0  0  0  0
  -21.6646  -26.7413   22.1196 H   0  0  0  0  0  0
  -19.6915  -25.6281   21.1245 H   0  0  0  0  0  0
  -19.6685  -27.3168   20.6742 H   0  0  0  0  0  0
  -17.4215  -26.6686   21.4015 H   0  0  0  0  0  0
  -18.0312  -26.0025   22.8994 H   0  0  0  0  0  0
  -19.7937  -30.7260   24.2267 H   0  0  0  0  0  0
  -17.5004  -31.6251   24.5138 H   0  0  0  0  0  0
  -15.5349  -30.2953   23.7630 H   0  0  0  0  0  0
  -15.8688  -28.0757   22.7111 H   0  0  0  0  0  0
  -24.5863  -30.7112   25.7762 H   0  0  0  0  0  0
  -24.8940  -32.2910   26.4880 H   0  0  0  0  0  0
  -25.8023  -30.8886   27.0211 H   0  0  0  0  0  0
  -26.2962  -29.6746   24.1201 H   0  0  0  0  0  0
  -27.3987  -29.7240   25.4749 H   0  0  0  0  0  0
  -27.8849  -30.4265   23.9507 H   0  0  0  0  0  0
  -27.2555  -33.3637   26.2073 H   0  0  0  0  0  0
  -28.3838  -32.6936   25.0395 H   0  0  0  0  0  0
  -28.0640  -31.8511   26.5492 H   0  0  0  0  0  0
  -28.2553  -38.0147   24.7526 H   0  0  0  0  0  0
  -28.1136  -36.2676   24.6237 H   0  0  0  0  0  0
  -27.2311  -37.1383   25.8859 H   0  0  0  0  0  0
  -20.9375  -29.8757   21.6873 H   0  0  0  0  0  0
  -26.0160  -38.2829   24.1395 H   0  0  0  0  0  0
  -30.6860  -16.7879   18.2704 H   0  0  0  0  0  0
  -33.1353  -21.7748   20.1437 H   0  0  0  0  0  0
  -31.9287  -20.5466   20.0656 H   0  0  0  0  0  0
  -32.0826  -21.5141   21.5196 H   0  0  0  0  0  0
  -32.8172  -24.0038   19.9677 H   0  0  0  0  0  0
  -31.7797  -24.0814   21.3812 H   0  0  0  0  0  0
  -31.2950  -24.8194   19.8624 H   0  0  0  0  0  0
  -32.1151  -22.6424   17.9370 H   0  0  0  0  0  0
  -30.5536  -23.4335   17.9315 H   0  0  0  0  0  0
  -30.6411  -21.7001   17.9256 H   0  0  0  0  0  0
  -27.7054  -25.0127   18.7545 H   0  0  0  0  0  0
  -29.3591  -25.1523   18.9327 H   0  0  0  0  0  0
  -29.9059  -22.5139   21.5898 H   0  0  0  0  0  0
  -29.3774  -24.1563   20.7258 H   0  0  0  0  0  0
  -29.0669  -15.6242   21.3964 H   0  0  0  0  0  0
  -28.6323  -20.8523   21.4275 H   0  0  0  0  0  0
  -28.4993  -21.9603   19.4430 H   0  0  0  0  0  0
  1 25  1  0  0  0
  1 30  2  0  0  0
  1 82  1  0  0  0
  2  3  1  0  0  0
  2 25  1  0  0  0
  2 86  1  0  0  0
  2 87  1  0  0  0
  3  4  1  0  0  0
  3 88  1  0  0  0
  3 89  1  0  0  0
  4  5  1  0  0  0
  4 90  1  0  0  0
  4 91  1  0  0  0
  5  6  1  0  0  0
  5 26  1  0  0  0
  5 92  1  0  0  0
  6 25  1  0  0  0
  6 93  1  0  0  0
  6 94  1  0  0  0
  7  8  2  0  0  0
  7 26  1  0  0  0
  7 29  1  0  0  0
  8  9  1  0  0  0
  8 22  1  0  0  0
  9 10  1  0  0  0
  9 27  2  0  0  0
 10 11  2  0  0  0
 10 15  1  0  0  0
 11 12  1  0  0  0
 11 95  1  0  0  0
 12 13  2  0  0  0
 12 96  1  0  0  0
 13 14  1  0  0  0
 13 31  1  0  0  0
 14 15  2  0  0  0
 14 97  1  0  0  0
 15 98  1  0  0  0
 16 17  2  0  0  0
 16 21  1  0  0  0
 16 31  1  0  0  0
 17 18  1  0  0  0
 17 99  1  0  0  0
 18 19  2  0  0  0
 18100  1  0  0  0
 19 20  1  0  0  0
 19 24  1  0  0  0
 20 21  2  0  0  0
 20101  1  0  0  0
 21 23  1  0  0  0
 22 28  1  0  0  0
 22 32  2  0  0  0
 26 27  1  0  0  0
 28102  1  0  0  0
 28103  1  0  0  0
 29104  1  0  0  0
 29105  1  0  0  0
 33 34  1  0  0  0
 33 66  1  0  0  0
 33 70  2  0  0  0
 34 36  1  0  0  0
 34 59  1  0  0  0
 34106  1  0  0  0
 35 44  2  0  0  0
 35 45  1  0  0  0
 35 68  1  0  0  0
 36 56  1  0  0  0
 36107  1  0  0  0
 37 39  1  0  0  0
 37 47  1  0  0  0
 37 66  1  0  0  0
 37108  1  0  0  0
 38 43  2  0  0  0
 38 46  1  0  0  0
 38 47  1  0  0  0
 39 64  1  0  0  0
 39 67  2  0  0  0
 40 52  1  0  0  0
 40 53  2  0  0  0
 40 58  1  0  0  0
 41109  1  0  0  0
 41110  1  0  0  0
 41111  1  0  0  0
 41 48  1  0  0  0
 42 43  1  0  0  0
 42 66  1  0  0  0
 42112  1  0  0  0
 42113  1  0  0  0
 43 44  1  0  0  0
 44114  1  0  0  0
 45 46  2  0  0  0
 45115  1  0  0  0
 46116  1  0  0  0
 47117  1  0  0  0
 47118  1  0  0  0
 48 56  1  0  0  0
 48 65  1  0  0  0
 48119  1  0  0  0
 49 50  1  0  0  0
 49 53  1  0  0  0
 49 64  1  0  0  0
 49120  1  0  0  0
 50 51  1  0  0  0
 50121  1  0  0  0
 50122  1  0  0  0
 51 52  1  0  0  0
 51123  1  0  0  0
 51124  1  0  0  0
 52125  1  0  0  0
 52126  1  0  0  0
 53 54  1  0  0  0
 54 55  2  0  0  0
 54127  1  0  0  0
 55 57  1  0  0  0
 55128  1  0  0  0
 56 69  2  0  0  0
 57 58  2  0  0  0
 57129  1  0  0  0
 58130  1  0  0  0
 59 60  1  0  0  0
 59 61  1  0  0  0
 59 62  1  0  0  0
 60131  1  0  0  0
 60132  1  0  0  0
 60133  1  0  0  0
 61134  1  0  0  0
 61135  1  0  0  0
 61136  1  0  0  0
 62137  1  0  0  0
 62138  1  0  0  0
 62139  1  0  0  0
 63 65  1  0  0  0
 63140  1  0  0  0
 63141  1  0  0  0
 63142  1  0  0  0
 64143  1  0  0  0
 65144  1  0  0  0
 68 77  1  0  0  0
 71 72  2  0  0  0
 71 85  1  0  0  0
 71145  1  0  0  0
 72 81  1  0  0  0
 72 82  1  0  0  0
 73 81  2  0  0  0
 73 83  1  0  0  0
 73 85  1  0  0  0
 74146  1  0  0  0
 74147  1  0  0  0
 74148  1  0  0  0
 74 80  1  0  0  0
 75 80  1  0  0  0
 75149  1  0  0  0
 75150  1  0  0  0
 75151  1  0  0  0
 76 80  1  0  0  0
 76152  1  0  0  0
 76153  1  0  0  0
 76154  1  0  0  0
 77 79  1  0  0  0
 77155  1  0  0  0
 77156  1  0  0  0
 78 79  1  0  0  0
 78 80  1  0  0  0
 78 83  1  0  0  0
 78157  1  0  0  0
 79 84  1  0  0  0
 79158  1  0  0  0
 82159  1  0  0  0
 83160  1  0  0  0
 84161  1  0  0  0
M  ISO  4   1 100  68 101  77 101  82 100
M  END
> <chiral flag>
0

> <version>
0

> <s_m_source_file>
/data/baiqing/PycharmProjects/Reinvent-master-3.2/result/LINK_invent/BTK/process_docking_weight1_custom_product_contain_oxygen_bond_distance_aromatic_linkinvent_7_9_3/rearranged_h_0188.sdf

> <i_m_source_file_index>
60

> <r_mmod_Potential_Energy-OPLS-2005>
387.038940429688

> <r_mmod_Stretch_Energy-OPLS-2005>
151.04899597168

> <r_mmod_Bend_Energy-OPLS-2005>
454.947357177734

> <r_mmod_Torsional_Energy-OPLS-2005>
294.599578857422

> <r_mmod_Improper_Torsional_Energy-OPLS-2005>
6.11263227462769

> <r_mmod_Van_der_Waal_Energy-OPLS-2005>
161.390319824219

> <r_mmod_Electrostatic_Energy-OPLS-2005>
-534.097900390625

> <r_mmod_Solvation_Energy-OPLS-2005>
-221.214904785156

> <b_mmod_Minimization_Converged-OPLS-2005>
0

> <r_mmod_RMS_Derivative-OPLS-2005>
3.08893227577209

$$$$
61
                    3D
 Structure written by MMmdl.
155163  0  0  1  0            999 V2000
  -30.6574  -14.7216   20.4961 C   0  0  0  0  0  0
  -30.4237  -12.4552   19.4606 C   0  0  0  0  0  0
  -29.5006  -12.5063   18.2266 C   0  0  0  0  0  0
  -28.0307  -12.3271   18.6507 C   0  0  0  0  0  0
  -27.6383  -13.2343   19.8474 C   0  0  2  0  0  0
  -28.6869  -13.1846   20.9796 C   0  0  0  0  0  0
  -25.2504  -13.8207   20.5728 C   0  0  0  0  0  0
  -24.1801  -13.0442   20.9227 C   0  0  0  0  0  0
  -24.6398  -11.6920   20.8765 C   0  0  0  0  0  0
  -23.9073  -10.4294   21.0418 C   0  0  0  0  0  0
  -24.3622   -9.4205   21.9193 C   0  0  0  0  0  0
  -23.6297   -8.2237   22.0757 C   0  0  0  0  0  0
  -22.4280   -8.0283   21.3543 C   0  0  0  0  0  0
  -21.9921   -9.0259   20.4651 C   0  0  0  0  0  0
  -22.7248  -10.2136   20.3064 C   0  0  0  0  0  0
  -21.6851   -6.0741   22.5280 C   0  0  0  0  0  0
  -21.4011   -6.5644   23.8217 C   0  0  0  0  0  0
  -21.3660   -5.6796   24.9177 C   0  0  0  0  0  0
  -21.6042   -4.3059   24.7226 C   0  0  0  0  0  0
  -21.8817   -3.8153   23.4346 C   0  0  0  0  0  0
  -21.9193   -4.6969   22.3405 C   0  0  0  0  0  0
  -22.7818  -13.5219   21.1879 C   0  0  0  0  0  0
  -22.1665   -4.2155   21.0984 F   0  0  0  0  0  0
  -21.5626   -3.4545   25.7739 F   0  0  0  0  0  0
  -29.9815  -13.5280   20.3808 N   0  0  0  0  0  0
  -26.2930  -12.9420   20.3306 N   0  0  0  0  0  0
  -25.9326  -11.6556   20.5765 N   0  0  0  0  0  0
  -22.0470  -12.8199   22.0434 N   0  0  0  0  0  0
  -25.4188  -15.1930   20.4141 N   0  0  0  0  0  0
  -31.8484  -14.7733   20.1764 O   0  0  0  0  0  0
  -21.6640   -6.8879   21.4238 O   0  0  0  0  0  0
  -22.3506  -14.5530   20.6737 O   0  0  0  0  0  0
  -24.6317  -31.8547   23.1995 C   0  0  0  0  0  0
  -25.9141  -32.4751   23.8337 C   0  0  1  0  0  0
  -27.2169  -27.2568   20.1141 C   0  0  0  0  0  0
  -25.5932  -33.8556   24.2262 N   0  0  0  0  0  0
  -23.4279  -30.4790   21.5440 C   0  0  2  0  0  0
  -24.8713  -28.9271   20.1097 C   0  0  0  0  0  0
  -22.7503  -29.4601   22.4915 C   0  0  0  0  0  0
  -18.0299  -28.1381   22.8482 C   0  0  0  0  0  0
  -24.1489  -36.7280   23.2642 C   0  0  0  0  0  0
  -25.9751  -30.7647   21.3803 C   0  0  0  0  0  0
  -26.0442  -29.3885   20.7188 C   0  0  0  0  0  0
  -27.2159  -28.5652   20.7106 C   0  0  0  0  0  0
  -26.0119  -26.8614   19.4869 C   0  0  0  0  0  0
  -24.8609  -27.6722   19.4855 C   0  0  0  0  0  0
  -23.6445  -29.8162   20.1589 C   0  0  0  0  0  0
  -25.4115  -36.3069   24.0328 C   0  0  1  0  0  0
  -20.5901  -28.3692   23.1269 C   0  0  2  0  0  0
  -20.6792  -26.9409   22.5407 C   0  0  0  0  0  0
  -19.5768  -26.6377   21.5210 C   0  0  0  0  0  0
  -18.1948  -26.7925   22.1624 C   0  0  0  0  0  0
  -19.1549  -28.8854   23.2873 C   0  0  0  0  0  0
  -18.9469  -30.1453   23.8892 C   0  0  0  0  0  0
  -17.6466  -30.6583   24.0560 C   0  0  0  0  0  0
  -25.9051  -34.9437   23.5097 C   0  0  0  0  0  0
  -16.5360  -29.9078   23.6330 C   0  0  0  0  0  0
  -16.7283  -28.6497   23.0353 C   0  0  0  0  0  0
  -26.4510  -31.6582   25.0733 C   0  0  0  0  0  0
  -25.3728  -31.3727   26.1448 C   0  0  0  0  0  0
  -27.0363  -30.2998   24.6232 C   0  0  0  0  0  0
  -27.6061  -32.4330   25.7507 C   0  0  0  0  0  0
  -27.5578  -37.1800   24.8467 C   0  0  0  0  0  0
  -21.4210  -29.3040   22.3657 N   0  0  0  0  0  0
  -26.4293  -37.3765   23.9407 N   0  0  0  0  0  0
  -24.6979  -31.0510   22.0971 N   0  0  0  0  0  0
  -23.4195  -28.8138   23.3015 O   0  0  0  0  0  0
  -28.3389  -26.3943   20.1765 O   0  0  0  0  0  0
  -26.5631  -34.8917   22.4669 O   0  0  0  0  0  0
  -23.5470  -32.1370   23.7291 O   0  0  0  0  0  0
  -31.4947  -17.9578   23.2118 C   0  0  0  0  0  0
  -31.2272  -16.7396   22.5534 C   0  0  0  0  0  0
  -30.8513  -18.9455   22.5311 C   0  0  0  0  0  0
  -30.4209  -17.0001   21.4734 C   0  0  0  0  0  0
  -28.7679  -22.1972   20.0440 C   0  0  0  0  0  0
  -29.4207  -19.4088   20.5012 C   0  0  0  0  0  0
  -28.3477  -24.9716   19.6759 C   0  0  0  0  0  0
  -28.5596  -23.6982   20.6571 C   0  0  1  0  0  0
  -29.3257  -20.9809   20.9647 C   0  0  1  0  0  0
  -30.1658  -18.4370   21.4231 N   0  0  0  0  0  0
  -29.9603  -15.9044   20.7353 N   0  0  0  0  0  0
  -27.3848  -23.6428   21.4500 O   0  0  0  0  0  0
  -28.6143  -20.9857   22.0939 F   0  0  0  0  0  0
  -31.4651  -12.5687   19.1528 H   0  0  0  0  0  0
  -30.3616  -11.4823   19.9518 H   0  0  0  0  0  0
  -29.7794  -11.7320   17.5102 H   0  0  0  0  0  0
  -29.6232  -13.4605   17.7117 H   0  0  0  0  0  0
  -27.8952  -11.2798   18.9237 H   0  0  0  0  0  0
  -27.3660  -12.5057   17.8050 H   0  0  0  0  0  0
  -27.6275  -14.2530   19.4594 H   0  0  0  0  0  0
  -28.4253  -13.8832   21.7762 H   0  0  0  0  0  0
  -28.7263  -12.1956   21.4389 H   0  0  0  0  0  0
  -25.2760   -9.5683   22.4777 H   0  0  0  0  0  0
  -24.0010   -7.4625   22.7475 H   0  0  0  0  0  0
  -21.0856   -8.8781   19.8951 H   0  0  0  0  0  0
  -22.3711  -10.9682   19.6184 H   0  0  0  0  0  0
  -21.2000   -7.6154   23.9720 H   0  0  0  0  0  0
  -21.1488   -6.0530   25.9081 H   0  0  0  0  0  0
  -22.0596   -2.7616   23.2847 H   0  0  0  0  0  0
  -22.4092  -11.9844   22.4791 H   0  0  0  0  0  0
  -21.1093  -13.1223   22.2665 H   0  0  0  0  0  0
  -24.6508  -15.8465   20.5253 H   0  0  0  0  0  0
  -26.2659  -15.6342   20.0803 H   0  0  0  0  0  0
  -26.7209  -32.5396   23.1079 H   0  0  0  0  0  0
  -25.0068  -33.9688   25.0403 H   0  0  0  0  0  0
  -22.7254  -31.3021   21.3997 H   0  0  0  0  0  0
  -23.3753  -35.9609   23.3303 H   0  0  0  0  0  0
  -24.3575  -36.8905   22.2055 H   0  0  0  0  0  0
  -23.7243  -37.6482   23.6665 H   0  0  0  0  0  0
  -26.1187  -31.5261   20.6126 H   0  0  0  0  0  0
  -26.8512  -30.8079   22.0155 H   0  0  0  0  0  0
  -28.1146  -28.9143   21.2001 H   0  0  0  0  0  0
  -25.8989  -25.9069   19.0026 H   0  0  0  0  0  0
  -23.9611  -27.3121   19.0066 H   0  0  0  0  0  0
  -23.7718  -30.5935   19.4045 H   0  0  0  0  0  0
  -22.7615  -29.2525   19.8535 H   0  0  0  0  0  0
  -25.1302  -36.1917   25.0822 H   0  0  0  0  0  0
  -20.9994  -28.3270   24.1386 H   0  0  0  0  0  0
  -20.5693  -26.2296   23.3607 H   0  0  0  0  0  0
  -21.6663  -26.7438   22.1199 H   0  0  0  0  0  0
  -19.6928  -25.6285   21.1246 H   0  0  0  0  0  0
  -19.6712  -27.3182   20.6736 H   0  0  0  0  0  0
  -17.4218  -26.6663   21.4031 H   0  0  0  0  0  0
  -18.0355  -26.0072   22.9026 H   0  0  0  0  0  0
  -19.7939  -30.7273   24.2265 H   0  0  0  0  0  0
  -17.5017  -31.6262   24.5160 H   0  0  0  0  0  0
  -15.5358  -30.2977   23.7655 H   0  0  0  0  0  0
  -15.8684  -28.0810   22.7072 H   0  0  0  0  0  0
  -24.5912  -30.7069   25.7774 H   0  0  0  0  0  0
  -24.8906  -32.2887   26.4866 H   0  0  0  0  0  0
  -25.8036  -30.8912   27.0232 H   0  0  0  0  0  0
  -26.2952  -29.6740   24.1245 H   0  0  0  0  0  0
  -27.4025  -29.7275   25.4766 H   0  0  0  0  0  0
  -27.8840  -30.4277   23.9496 H   0  0  0  0  0  0
  -27.2668  -33.3634   26.2070 H   0  0  0  0  0  0
  -28.3872  -32.6881   25.0334 H   0  0  0  0  0  0
  -28.0724  -31.8464   26.5433 H   0  0  0  0  0  0
  -28.2603  -38.0093   24.7506 H   0  0  0  0  0  0
  -28.1073  -36.2623   24.6307 H   0  0  0  0  0  0
  -27.2293  -37.1463   25.8872 H   0  0  0  0  0  0
  -20.9389  -29.8758   21.6864 H   0  0  0  0  0  0
  -26.0173  -38.2842   24.1398 H   0  0  0  0  0  0
  -32.0887  -18.0987   24.1051 H   0  0  0  0  0  0
  -31.5838  -15.7688   22.8710 H   0  0  0  0  0  0
  -30.8427  -19.9940   22.7850 H   0  0  0  0  0  0
  -29.4673  -22.2903   19.2109 H   0  0  0  0  0  0
  -27.8355  -21.8732   19.5821 H   0  0  0  0  0  0
  -28.4151  -19.0157   20.3502 H   0  0  0  0  0  0
  -29.9096  -19.3623   19.5279 H   0  0  0  0  0  0
  -27.5344  -24.7485   18.9931 H   0  0  0  0  0  0
  -29.2131  -24.9573   19.0127 H   0  0  0  0  0  0
  -29.4078  -23.9182   21.3062 H   0  0  0  0  0  0
  -30.3285  -21.3082   21.2370 H   0  0  0  0  0  0
  -28.9600  -15.8503   20.6207 H   0  0  0  0  0  0
  -26.6473  -23.4870   20.8684 H   0  0  0  0  0  0
  1 25  1  0  0  0
  1 30  2  0  0  0
  1 81  1  0  0  0
  2  3  1  0  0  0
  2 25  1  0  0  0
  2 84  1  0  0  0
  2 85  1  0  0  0
  3  4  1  0  0  0
  3 86  1  0  0  0
  3 87  1  0  0  0
  4  5  1  0  0  0
  4 88  1  0  0  0
  4 89  1  0  0  0
  5  6  1  0  0  0
  5 26  1  0  0  0
  5 90  1  0  0  0
  6 25  1  0  0  0
  6 91  1  0  0  0
  6 92  1  0  0  0
  7  8  2  0  0  0
  7 26  1  0  0  0
  7 29  1  0  0  0
  8  9  1  0  0  0
  8 22  1  0  0  0
  9 10  1  0  0  0
  9 27  2  0  0  0
 10 11  2  0  0  0
 10 15  1  0  0  0
 11 12  1  0  0  0
 11 93  1  0  0  0
 12 13  2  0  0  0
 12 94  1  0  0  0
 13 14  1  0  0  0
 13 31  1  0  0  0
 14 15  2  0  0  0
 14 95  1  0  0  0
 15 96  1  0  0  0
 16 17  2  0  0  0
 16 21  1  0  0  0
 16 31  1  0  0  0
 17 18  1  0  0  0
 17 97  1  0  0  0
 18 19  2  0  0  0
 18 98  1  0  0  0
 19 20  1  0  0  0
 19 24  1  0  0  0
 20 21  2  0  0  0
 20 99  1  0  0  0
 21 23  1  0  0  0
 22 28  1  0  0  0
 22 32  2  0  0  0
 26 27  1  0  0  0
 28100  1  0  0  0
 28101  1  0  0  0
 29102  1  0  0  0
 29103  1  0  0  0
 33 34  1  0  0  0
 33 66  1  0  0  0
 33 70  2  0  0  0
 34 36  1  0  0  0
 34 59  1  0  0  0
 34104  1  0  0  0
 35 44  2  0  0  0
 35 45  1  0  0  0
 35 68  1  0  0  0
 36 56  1  0  0  0
 36105  1  0  0  0
 37 39  1  0  0  0
 37 47  1  0  0  0
 37 66  1  0  0  0
 37106  1  0  0  0
 38 43  2  0  0  0
 38 46  1  0  0  0
 38 47  1  0  0  0
 39 64  1  0  0  0
 39 67  2  0  0  0
 40 52  1  0  0  0
 40 53  2  0  0  0
 40 58  1  0  0  0
 41107  1  0  0  0
 41108  1  0  0  0
 41109  1  0  0  0
 41 48  1  0  0  0
 42 43  1  0  0  0
 42 66  1  0  0  0
 42110  1  0  0  0
 42111  1  0  0  0
 43 44  1  0  0  0
 44112  1  0  0  0
 45 46  2  0  0  0
 45113  1  0  0  0
 46114  1  0  0  0
 47115  1  0  0  0
 47116  1  0  0  0
 48 56  1  0  0  0
 48 65  1  0  0  0
 48117  1  0  0  0
 49 50  1  0  0  0
 49 53  1  0  0  0
 49 64  1  0  0  0
 49118  1  0  0  0
 50 51  1  0  0  0
 50119  1  0  0  0
 50120  1  0  0  0
 51 52  1  0  0  0
 51121  1  0  0  0
 51122  1  0  0  0
 52123  1  0  0  0
 52124  1  0  0  0
 53 54  1  0  0  0
 54 55  2  0  0  0
 54125  1  0  0  0
 55 57  1  0  0  0
 55126  1  0  0  0
 56 69  2  0  0  0
 57 58  2  0  0  0
 57127  1  0  0  0
 58128  1  0  0  0
 59 60  1  0  0  0
 59 61  1  0  0  0
 59 62  1  0  0  0
 60129  1  0  0  0
 60130  1  0  0  0
 60131  1  0  0  0
 61132  1  0  0  0
 61133  1  0  0  0
 61134  1  0  0  0
 62135  1  0  0  0
 62136  1  0  0  0
 62137  1  0  0  0
 63 65  1  0  0  0
 63138  1  0  0  0
 63139  1  0  0  0
 63140  1  0  0  0
 64141  1  0  0  0
 65142  1  0  0  0
 68 77  1  0  0  0
 71 72  1  0  0  0
 71 73  2  0  0  0
 71143  1  0  0  0
 72 74  2  0  0  0
 72144  1  0  0  0
 73 80  1  0  0  0
 73145  1  0  0  0
 74 80  1  0  0  0
 74 81  1  0  0  0
 75 78  1  0  0  0
 75 79  1  0  0  0
 75146  1  0  0  0
 75147  1  0  0  0
 76 79  1  0  0  0
 76 80  1  0  0  0
 76148  1  0  0  0
 76149  1  0  0  0
 77 78  1  0  0  0
 77150  1  0  0  0
 77151  1  0  0  0
 78 82  1  0  0  0
 78152  1  0  0  0
 79 83  1  0  0  0
 79153  1  0  0  0
 81154  1  0  0  0
 82155  1  0  0  0
M  ISO  4   1 100  68 101  77 101  81 100
M  END
> <chiral flag>
0

> <version>
0

> <s_m_source_file>
/data/baiqing/PycharmProjects/Reinvent-master-3.2/result/LINK_invent/BTK/process_docking_weight1_custom_product_contain_oxygen_bond_distance_aromatic_linkinvent_7_9_3/rearranged_h_0188.sdf

> <i_m_source_file_index>
61

> <r_mmod_Potential_Energy-OPLS-2005>
244.837020874023

> <r_mmod_Stretch_Energy-OPLS-2005>
138.640335083008

> <r_mmod_Bend_Energy-OPLS-2005>
210.870697021484

> <r_mmod_Torsional_Energy-OPLS-2005>
252.220657348633

> <r_mmod_Improper_Torsional_Energy-OPLS-2005>
6.29445695877075

> <r_mmod_Van_der_Waal_Energy-OPLS-2005>
129.742538452148

> <r_mmod_Electrostatic_Energy-OPLS-2005>
-327.952850341797

> <r_mmod_Solvation_Energy-OPLS-2005>
-245.314086914062

> <b_mmod_Minimization_Converged-OPLS-2005>
0

> <r_mmod_RMS_Derivative-OPLS-2005>
1.39106130599976

$$$$
62
                    3D
 Structure written by MMmdl.
165173  0  0  1  0            999 V2000
  -31.3773  -14.6642   21.1692 C   0  0  0  0  0  0
  -30.6851  -13.8693   18.9070 C   0  0  0  0  0  0
  -29.3605  -13.6274   17.6745 C   0  0  0  0  0  0
  -27.5749  -13.6513   18.1505 C   0  0  0  0  0  0
  -27.1530  -14.1839   19.8992 C   0  0  2  0  0  0
  -28.6083  -14.5346   21.1888 C   0  0  0  0  0  0
  -24.9404  -14.0004   20.7635 C   0  0  0  0  0  0
  -24.0100  -13.0652   20.9950 C   0  0  0  0  0  0
  -24.6178  -11.7796   20.8608 C   0  0  0  0  0  0
  -23.9528  -10.4548   20.9994 C   0  0  0  0  0  0
  -24.3963   -9.4496   21.8926 C   0  0  0  0  0  0
  -23.6577   -8.2519   22.0653 C   0  0  0  0  0  0
  -22.4536   -8.0422   21.3500 C   0  0  0  0  0  0
  -22.0224   -9.0336   20.4515 C   0  0  0  0  0  0
  -22.7616  -10.2175   20.2767 C   0  0  0  0  0  0
  -21.6984   -6.0833   22.5287 C   0  0  0  0  0  0
  -21.4105   -6.5702   23.8222 C   0  0  0  0  0  0
  -21.3685   -5.6826   24.9165 C   0  0  0  0  0  0
  -21.6037   -4.3088   24.7202 C   0  0  0  0  0  0
  -21.8813   -3.8199   23.4319 C   0  0  0  0  0  0
  -21.9242   -4.7040   22.3389 C   0  0  0  0  0  0
  -22.5971  -13.4415   21.2342 C   0  0  0  0  0  0
  -22.1687   -4.2216   21.0968 F   0  0  0  0  0  0
  -21.5606   -3.4554   25.7706 F   0  0  0  0  0  0
  -30.2709  -14.4161   20.5391 N   0  0  0  0  0  0
  -26.0573  -13.3479   20.4102 N   0  0  0  0  0  0
  -25.9071  -11.9594   20.5024 N   0  0  0  0  0  0
  -21.9132  -12.7154   22.1000 N   0  0  0  0  0  0
  -24.8804  -15.3914   20.7953 N   0  0  0  0  0  0
  -32.4315  -14.5254   20.5619 O   0  0  0  0  0  0
  -21.6834   -6.9029   21.4265 O   0  0  0  0  0  0
  -22.1309  -14.4516   20.7062 O   0  0  0  0  0  0
  -24.7428  -31.7258   23.1032 C   0  0  0  0  0  0
  -25.9737  -32.4082   23.7769 C   0  0  1  0  0  0
  -27.0654  -26.0531   20.1594 C   0  0  0  0  0  0
  -25.6064  -33.7944   24.1587 N   0  0  0  0  0  0
  -23.5767  -30.3209   21.4797 C   0  0  2  0  0  0
  -24.9872  -28.5371   20.1078 C   0  0  0  0  0  0
  -22.7951  -29.3975   22.4567 C   0  0  0  0  0  0
  -18.0369  -28.1450   22.8423 C   0  0  0  0  0  0
  -24.1508  -36.6981   23.2670 C   0  0  0  0  0  0
  -26.1752  -30.2289   21.4525 C   0  0  0  0  0  0
  -26.1926  -28.7330   20.7864 C   0  0  0  0  0  0
  -27.2003  -27.5381   20.7647 C   0  0  0  0  0  0
  -25.8471  -26.2335   19.4294 C   0  0  0  0  0  0
  -24.8929  -27.3218   19.4045 C   0  0  0  0  0  0
  -23.8405  -29.5888   20.1267 C   0  0  0  0  0  0
  -25.4180  -36.2669   24.0240 C   0  0  1  0  0  0
  -20.6017  -28.3815   23.1047 C   0  0  2  0  0  0
  -20.6802  -26.9430   22.5414 C   0  0  0  0  0  0
  -19.5791  -26.6359   21.5216 C   0  0  0  0  0  0
  -18.1974  -26.7968   22.1605 C   0  0  0  0  0  0
  -19.1646  -28.8967   23.2708 C   0  0  0  0  0  0
  -18.9546  -30.1539   23.8774 C   0  0  0  0  0  0
  -17.6531  -30.6612   24.0546 C   0  0  0  0  0  0
  -25.9202  -34.9073   23.4793 C   0  0  0  0  0  0
  -16.5416  -29.9088   23.6367 C   0  0  0  0  0  0
  -16.7349  -28.6523   23.0362 C   0  0  0  0  0  0
  -26.4719  -31.6376   25.0637 C   0  0  0  0  0  0
  -25.3630  -31.3845   26.1145 C   0  0  0  0  0  0
  -27.0732  -30.2652   24.6958 C   0  0  0  0  0  0
  -27.6070  -32.4364   25.7479 C   0  0  0  0  0  0
  -27.5552  -37.1645   24.8470 C   0  0  0  0  0  0
  -21.4556  -29.2963   22.3307 N   0  0  0  0  0  0
  -26.4250  -37.3499   23.9414 N   0  0  0  0  0  0
  -24.8675  -30.8074   22.0627 N   0  0  0  0  0  0
  -23.4158  -28.7649   23.3137 O   0  0  0  0  0  0
  -27.8488  -24.5162   20.1048 O   0  0  0  0  0  0
  -26.5927  -34.8787   22.4468 O   0  0  0  0  0  0
  -23.6347  -32.0665   23.5639 O   0  0  0  0  0  0
  -33.8783  -17.4059   21.2811 C   0  0  0  0  0  0
  -32.5966  -17.7230   20.9095 C   0  0  0  0  0  0
  -32.0901  -16.4009   22.5887 C   0  0  0  0  0  0
  -30.1607  -16.5731   18.6500 C   0  0  0  0  0  0
  -31.9771  -19.5618   19.3010 C   0  0  0  0  0  0
  -27.9553  -16.2613   17.8417 C   0  0  0  0  0  0
  -28.8982  -12.7400   19.8074 C   0  0  0  0  0  0
  -28.1912  -17.9274   19.8239 C   0  0  0  0  0  0
  -27.6357  -22.4463   20.0415 C   0  0  0  0  0  0
  -32.0469  -18.0495   19.5459 C   0  0  2  0  0  0
  -28.2845  -20.2448   19.6440 C   0  0  2  0  0  0
  -28.8181  -15.7838   19.1282 C   0  0  0  0  0  0
  -31.6856  -17.4939   21.9540 N   0  0  0  0  0  0
  -31.2908  -15.2529   22.3717 N   0  0  0  0  0  0
  -30.7218  -17.4306   19.5137 N   0  0  0  0  0  0
  -30.6367  -16.4608   17.5147 O   0  0  0  0  0  0
  -28.2639  -20.2931   18.3126 F   0  0  0  0  0  0
  -33.8532  -16.3570   22.6856 S   0  0  0  0  0  0
  -31.4883  -14.4285   18.4270 H   0  0  0  0  0  0
  -31.2279  -12.9228   18.9903 H   0  0  0  0  0  0
  -29.5506  -12.6711   17.1817 H   0  0  0  0  0  0
  -29.5491  -14.2839   16.8312 H   0  0  0  0  0  0
  -27.1799  -12.6413   18.0133 H   0  0  0  0  0  0
  -26.9313  -14.1097   17.4032 H   0  0  0  0  0  0
  -26.7406  -15.1398   19.6773 H   0  0  0  0  0  0
  -28.5201  -13.8735   22.0553 H   0  0  0  0  0  0
  -28.4620  -15.5186   21.6353 H   0  0  0  0  0  0
  -25.3007   -9.6073   22.4627 H   0  0  0  0  0  0
  -24.0244   -7.5006   22.7508 H   0  0  0  0  0  0
  -21.1120   -8.8849   19.8873 H   0  0  0  0  0  0
  -22.3950  -10.9655   19.5880 H   0  0  0  0  0  0
  -21.2126   -7.6212   23.9747 H   0  0  0  0  0  0
  -21.1494   -6.0545   25.9071 H   0  0  0  0  0  0
  -22.0555   -2.7658   23.2800 H   0  0  0  0  0  0
  -22.3277  -11.9129   22.5505 H   0  0  0  0  0  0
  -20.9602  -12.9655   22.3218 H   0  0  0  0  0  0
  -24.0098  -15.8792   20.9795 H   0  0  0  0  0  0
  -25.6493  -16.0158   20.5897 H   0  0  0  0  0  0
  -26.7861  -32.4388   23.0507 H   0  0  0  0  0  0
  -25.0038  -33.8865   24.9627 H   0  0  0  0  0  0
  -22.9393  -31.1813   21.2618 H   0  0  0  0  0  0
  -23.3812  -35.9262   23.3214 H   0  0  0  0  0  0
  -24.3559  -36.8800   22.2107 H   0  0  0  0  0  0
  -23.7236  -37.6088   23.6874 H   0  0  0  0  0  0
  -26.4597  -30.9163   20.6557 H   0  0  0  0  0  0
  -27.0050  -30.2794   22.1441 H   0  0  0  0  0  0
  -28.1034  -27.7053   21.3349 H   0  0  0  0  0  0
  -25.5425  -25.3678   18.8574 H   0  0  0  0  0  0
  -24.0001  -27.1611   18.8139 H   0  0  0  0  0  0
  -24.0745  -30.3383   19.3689 H   0  0  0  0  0  0
  -22.9185  -29.1179   19.7802 H   0  0  0  0  0  0
  -25.1425  -36.1339   25.0725 H   0  0  0  0  0  0
  -21.0089  -28.3490   24.1174 H   0  0  0  0  0  0
  -20.5604  -26.2459   23.3722 H   0  0  0  0  0  0
  -21.6663  -26.7297   22.1268 H   0  0  0  0  0  0
  -19.6936  -25.6240   21.1314 H   0  0  0  0  0  0
  -19.6753  -27.3113   20.6696 H   0  0  0  0  0  0
  -17.4248  -26.6718   21.4004 H   0  0  0  0  0  0
  -18.0346  -26.0146   22.9025 H   0  0  0  0  0  0
  -19.8020  -30.7387   24.2085 H   0  0  0  0  0  0
  -17.5079  -31.6274   24.5176 H   0  0  0  0  0  0
  -15.5407  -30.2949   23.7757 H   0  0  0  0  0  0
  -15.8756  -28.0808   22.7123 H   0  0  0  0  0  0
  -24.5919  -30.7088   25.7428 H   0  0  0  0  0  0
  -24.8727  -32.3100   26.4157 H   0  0  0  0  0  0
  -25.7691  -30.9292   27.0185 H   0  0  0  0  0  0
  -26.3518  -29.6057   24.2133 H   0  0  0  0  0  0
  -27.4087  -29.7372   25.5895 H   0  0  0  0  0  0
  -27.9530  -30.3642   24.0603 H   0  0  0  0  0  0
  -27.2565  -33.3822   26.1619 H   0  0  0  0  0  0
  -28.4094  -32.6652   25.0449 H   0  0  0  0  0  0
  -28.0496  -31.8787   26.5743 H   0  0  0  0  0  0
  -28.2502  -38.0000   24.7525 H   0  0  0  0  0  0
  -28.1122  -36.2517   24.6297 H   0  0  0  0  0  0
  -27.2269  -37.1257   25.8871 H   0  0  0  0  0  0
  -20.9962  -29.8546   21.6246 H   0  0  0  0  0  0
  -26.0027  -38.2520   24.1431 H   0  0  0  0  0  0
  -34.7912  -17.5324   20.7162 H   0  0  0  0  0  0
  -32.9809  -19.9835   19.2186 H   0  0  0  0  0  0
  -31.4861  -20.0747   20.1257 H   0  0  0  0  0  0
  -31.4481  -19.7962   18.3782 H   0  0  0  0  0  0
  -28.1716  -15.7817   16.8929 H   0  0  0  0  0  0
  -28.1122  -17.3084   17.5673 H   0  0  0  0  0  0
  -26.8760  -16.2300   17.9748 H   0  0  0  0  0  0
  -29.7488  -12.2593   20.3167 H   0  0  0  0  0  0
  -28.8045  -11.9222   19.0788 H   0  0  0  0  0  0
  -28.2688  -12.2959   20.5803 H   0  0  0  0  0  0
  -27.1096  -17.8190   19.7428 H   0  0  0  0  0  0
  -28.3418  -17.8278   20.8994 H   0  0  0  0  0  0
  -27.4597  -22.3422   21.1108 H   0  0  0  0  0  0
  -26.6309  -22.4163   19.6172 H   0  0  0  0  0  0
  -32.6710  -17.5935   18.7761 H   0  0  0  0  0  0
  -29.3290  -20.3626   19.9122 H   0  0  0  0  0  0
  -30.3624  -15.2857   22.7606 H   0  0  0  0  0  0
  -30.2397  -17.5364   20.3960 H   0  0  0  0  0  0
  1 25  1  0  0  0
  1 30  2  0  0  0
  1 84  1  0  0  0
  2  3  1  0  0  0
  2 25  1  0  0  0
  2 89  1  0  0  0
  2 90  1  0  0  0
  3  4  1  0  0  0
  3 91  1  0  0  0
  3 92  1  0  0  0
  4  5  1  0  0  0
  4 93  1  0  0  0
  4 94  1  0  0  0
  5  6  1  0  0  0
  5 26  1  0  0  0
  5 95  1  0  0  0
  6 25  1  0  0  0
  6 96  1  0  0  0
  6 97  1  0  0  0
  7  8  2  0  0  0
  7 26  1  0  0  0
  7 29  1  0  0  0
  8  9  1  0  0  0
  8 22  1  0  0  0
  9 10  1  0  0  0
  9 27  2  0  0  0
 10 11  2  0  0  0
 10 15  1  0  0  0
 11 12  1  0  0  0
 11 98  1  0  0  0
 12 13  2  0  0  0
 12 99  1  0  0  0
 13 14  1  0  0  0
 13 31  1  0  0  0
 14 15  2  0  0  0
 14100  1  0  0  0
 15101  1  0  0  0
 16 17  2  0  0  0
 16 21  1  0  0  0
 16 31  1  0  0  0
 17 18  1  0  0  0
 17102  1  0  0  0
 18 19  2  0  0  0
 18103  1  0  0  0
 19 20  1  0  0  0
 19 24  1  0  0  0
 20 21  2  0  0  0
 20104  1  0  0  0
 21 23  1  0  0  0
 22 28  1  0  0  0
 22 32  2  0  0  0
 26 27  1  0  0  0
 28105  1  0  0  0
 28106  1  0  0  0
 29107  1  0  0  0
 29108  1  0  0  0
 33 34  1  0  0  0
 33 66  1  0  0  0
 33 70  2  0  0  0
 34 36  1  0  0  0
 34 59  1  0  0  0
 34109  1  0  0  0
 35 44  2  0  0  0
 35 45  1  0  0  0
 35 68  1  0  0  0
 36 56  1  0  0  0
 36110  1  0  0  0
 37 39  1  0  0  0
 37 47  1  0  0  0
 37 66  1  0  0  0
 37111  1  0  0  0
 38 43  2  0  0  0
 38 46  1  0  0  0
 38 47  1  0  0  0
 39 64  1  0  0  0
 39 67  2  0  0  0
 40 52  1  0  0  0
 40 53  2  0  0  0
 40 58  1  0  0  0
 41112  1  0  0  0
 41113  1  0  0  0
 41114  1  0  0  0
 41 48  1  0  0  0
 42 43  1  0  0  0
 42 66  1  0  0  0
 42115  1  0  0  0
 42116  1  0  0  0
 43 44  1  0  0  0
 44117  1  0  0  0
 45 46  2  0  0  0
 45118  1  0  0  0
 46119  1  0  0  0
 47120  1  0  0  0
 47121  1  0  0  0
 48 56  1  0  0  0
 48 65  1  0  0  0
 48122  1  0  0  0
 49 50  1  0  0  0
 49 53  1  0  0  0
 49 64  1  0  0  0
 49123  1  0  0  0
 50 51  1  0  0  0
 50124  1  0  0  0
 50125  1  0  0  0
 51 52  1  0  0  0
 51126  1  0  0  0
 51127  1  0  0  0
 52128  1  0  0  0
 52129  1  0  0  0
 53 54  1  0  0  0
 54 55  2  0  0  0
 54130  1  0  0  0
 55 57  1  0  0  0
 55131  1  0  0  0
 56 69  2  0  0  0
 57 58  2  0  0  0
 57132  1  0  0  0
 58133  1  0  0  0
 59 60  1  0  0  0
 59 61  1  0  0  0
 59 62  1  0  0  0
 60134  1  0  0  0
 60135  1  0  0  0
 60136  1  0  0  0
 61137  1  0  0  0
 61138  1  0  0  0
 61139  1  0  0  0
 62140  1  0  0  0
 62141  1  0  0  0
 62142  1  0  0  0
 63 65  1  0  0  0
 63143  1  0  0  0
 63144  1  0  0  0
 63145  1  0  0  0
 64146  1  0  0  0
 65147  1  0  0  0
 68 79  1  0  0  0
 71 72  2  0  0  0
 71 88  1  0  0  0
 71148  1  0  0  0
 72 80  1  0  0  0
 72 83  1  0  0  0
 73 83  2  0  0  0
 73 84  1  0  0  0
 73 88  1  0  0  0
 74 82  1  0  0  0
 74 85  1  0  0  0
 74 86  2  0  0  0
 75149  1  0  0  0
 75150  1  0  0  0
 75151  1  0  0  0
 75 80  1  0  0  0
 76152  1  0  0  0
 76153  1  0  0  0
 76154  1  0  0  0
 76 82  1  0  0  0
 77 82  1  0  0  0
 77155  1  0  0  0
 77156  1  0  0  0
 77157  1  0  0  0
 78 81  1  0  0  0
 78 82  1  0  0  0
 78158  1  0  0  0
 78159  1  0  0  0
 79 81  1  0  0  0
 79160  1  0  0  0
 79161  1  0  0  0
 80 85  1  0  0  0
 80162  1  0  0  0
 81 87  1  0  0  0
 81163  1  0  0  0
 84164  1  0  0  0
 85165  1  0  0  0
M  ISO  4   1 100  68 101  79 101  84 100
M  END
> <chiral flag>
0

> <version>
0

> <s_m_source_file>
/data/baiqing/PycharmProjects/Reinvent-master-3.2/result/LINK_invent/BTK/process_docking_weight1_custom_product_contain_oxygen_bond_distance_aromatic_linkinvent_7_9_3/rearranged_h_0188.sdf

> <i_m_source_file_index>
62

> <r_mmod_Potential_Energy-OPLS-2005>
12198.6357421875

> <r_mmod_Stretch_Energy-OPLS-2005>
6996.416015625

> <r_mmod_Bend_Energy-OPLS-2005>
1319.13342285156

> <r_mmod_Torsional_Energy-OPLS-2005>
411.522918701172

> <r_mmod_Improper_Torsional_Energy-OPLS-2005>
23.7419090270996

> <r_mmod_Van_der_Waal_Energy-OPLS-2005>
1677.35668945312

> <r_mmod_Electrostatic_Energy-OPLS-2005>
-575.955993652344

> <r_mmod_Solvation_Energy-OPLS-2005>
-226.851333618164

> <b_mmod_Minimization_Converged-OPLS-2005>
0

> <r_mmod_RMS_Derivative-OPLS-2005>
3.77186608314514

$$$$
63
                    3D
 Structure written by MMmdl.
162170  0  0  1  0            999 V2000
  -30.6671  -14.5568   20.5014 C   0  0  0  0  0  0
  -30.4295  -12.3433   19.4341 C   0  0  0  0  0  0
  -29.4999  -12.4954   18.2114 C   0  0  0  0  0  0
  -28.0212  -12.3481   18.6255 C   0  0  0  0  0  0
  -27.6541  -13.2084   19.8647 C   0  0  2  0  0  0
  -28.7024  -13.0487   20.9889 C   0  0  0  0  0  0
  -25.2576  -13.8152   20.5689 C   0  0  0  0  0  0
  -24.1840  -13.0433   20.9199 C   0  0  0  0  0  0
  -24.6401  -11.6902   20.8757 C   0  0  0  0  0  0
  -23.9068  -10.4293   21.0429 C   0  0  0  0  0  0
  -24.3623   -9.4202   21.9202 C   0  0  0  0  0  0
  -23.6296   -8.2239   22.0767 C   0  0  0  0  0  0
  -22.4277   -8.0284   21.3556 C   0  0  0  0  0  0
  -21.9920   -9.0259   20.4653 C   0  0  0  0  0  0
  -22.7252  -10.2136   20.3071 C   0  0  0  0  0  0
  -21.6851   -6.0739   22.5285 C   0  0  0  0  0  0
  -21.4010   -6.5643   23.8218 C   0  0  0  0  0  0
  -21.3659   -5.6796   24.9183 C   0  0  0  0  0  0
  -21.6043   -4.3060   24.7232 C   0  0  0  0  0  0
  -21.8818   -3.8152   23.4353 C   0  0  0  0  0  0
  -21.9194   -4.6965   22.3406 C   0  0  0  0  0  0
  -22.7858  -13.5233   21.1853 C   0  0  0  0  0  0
  -22.1663   -4.2154   21.0980 F   0  0  0  0  0  0
  -21.5633   -3.4546   25.7748 F   0  0  0  0  0  0
  -30.0221  -13.3586   20.4171 N   0  0  0  0  0  0
  -26.3001  -12.9324   20.3344 N   0  0  0  0  0  0
  -25.9327  -11.6489   20.5779 N   0  0  0  0  0  0
  -22.0489  -12.8230   22.0399 N   0  0  0  0  0  0
  -25.4267  -15.1873   20.4073 N   0  0  0  0  0  0
  -31.8460  -14.6953   20.1648 O   0  0  0  0  0  0
  -21.6640   -6.8884   21.4248 O   0  0  0  0  0  0
  -22.3550  -14.5543   20.6696 O   0  0  0  0  0  0
  -24.6212  -31.8635   23.2066 C   0  0  0  0  0  0
  -25.9077  -32.4810   23.8385 C   0  0  1  0  0  0
  -27.2364  -27.3935   20.1099 C   0  0  0  0  0  0
  -25.5925  -33.8607   24.2314 N   0  0  0  0  0  0
  -23.4110  -30.4861   21.5485 C   0  0  2  0  0  0
  -24.8562  -28.9476   20.1132 C   0  0  0  0  0  0
  -22.7446  -29.4647   22.4989 C   0  0  0  0  0  0
  -18.0277  -28.1387   22.8499 C   0  0  0  0  0  0
  -24.1484  -36.7297   23.2646 C   0  0  0  0  0  0
  -25.9419  -30.8204   21.3617 C   0  0  0  0  0  0
  -26.0211  -29.4518   20.7065 C   0  0  0  0  0  0
  -27.2151  -28.6870   20.6928 C   0  0  0  0  0  0
  -26.0516  -26.9174   19.5048 C   0  0  0  0  0  0
  -24.8695  -27.6820   19.5044 C   0  0  0  0  0  0
  -23.6191  -29.8164   20.1645 C   0  0  0  0  0  0
  -25.4110  -36.3102   24.0340 C   0  0  1  0  0  0
  -20.5869  -28.3689   23.1312 C   0  0  2  0  0  0
  -20.6768  -26.9426   22.5415 C   0  0  0  0  0  0
  -19.5738  -26.6391   21.5223 C   0  0  0  0  0  0
  -18.1914  -26.7936   22.1628 C   0  0  0  0  0  0
  -19.1527  -28.8856   23.2893 C   0  0  0  0  0  0
  -18.9448  -30.1465   23.8898 C   0  0  0  0  0  0
  -17.6445  -30.6593   24.0571 C   0  0  0  0  0  0
  -25.9038  -34.9470   23.5117 C   0  0  0  0  0  0
  -16.5339  -29.9084   23.6344 C   0  0  0  0  0  0
  -16.7266  -28.6505   23.0364 C   0  0  0  0  0  0
  -26.4488  -31.6615   25.0739 C   0  0  0  0  0  0
  -25.3751  -31.3674   26.1479 C   0  0  0  0  0  0
  -27.0364  -30.3080   24.6122 C   0  0  0  0  0  0
  -27.6059  -32.4351   25.7492 C   0  0  0  0  0  0
  -27.5580  -37.1793   24.8463 C   0  0  0  0  0  0
  -21.4172  -29.3039   22.3714 N   0  0  0  0  0  0
  -26.4287  -37.3798   23.9422 N   0  0  0  0  0  0
  -24.6766  -31.0711   22.0978 N   0  0  0  0  0  0
  -23.4185  -28.8207   23.3070 O   0  0  0  0  0  0
  -28.3912  -26.6208   20.1275 O   0  0  0  0  0  0
  -26.5599  -34.8941   22.4677 O   0  0  0  0  0  0
  -23.5400  -32.1385   23.7453 O   0  0  0  0  0  0
  -31.2298  -19.1991   21.2342 C   0  0  0  0  0  0
  -30.2395  -19.3211   20.2900 C   0  0  0  0  0  0
  -29.6171  -18.0301   20.0191 C   0  0  0  0  0  0
  -30.1917  -16.9657   20.7206 C   0  0  0  0  0  0
  -29.1439  -21.7023   20.3332 C   0  0  0  0  0  0
  -28.4577  -24.7152   17.9436 C   0  0  0  0  0  0
  -26.1766  -21.5394   19.7743 C   0  0  0  0  0  0
  -29.9842  -20.6506   19.5468 C   0  0  0  0  0  0
  -28.2496  -25.2051   20.4487 C   0  0  0  0  0  0
  -28.2771  -22.7014   19.4949 C   0  0  2  0  0  0
  -28.7723  -24.1977   19.3620 C   0  0  1  0  0  0
  -28.5051  -17.8586   19.0023 C   0  0  0  0  0  0
  -29.8597  -15.6294   20.7090 N   0  0  0  0  0  0
  -29.1540  -21.7557   21.5674 O   0  0  0  0  0  0
  -26.9218  -22.7365   19.9557 O   0  0  0  0  0  0
  -27.6954  -18.9167   18.9657 F   0  0  0  0  0  0
  -29.0038  -17.6933   17.7774 F   0  0  0  0  0  0
  -27.7360  -16.8018   19.2715 F   0  0  0  0  0  0
  -31.4552  -17.5603   21.7715 S   0  0  0  0  0  0
  -31.4728  -12.4515   19.1318 H   0  0  0  0  0  0
  -30.3432  -11.3465   19.8692 H   0  0  0  0  0  0
  -29.7506  -11.7538   17.4517 H   0  0  0  0  0  0
  -29.6536  -13.4714   17.7481 H   0  0  0  0  0  0
  -27.8415  -11.2939   18.8404 H   0  0  0  0  0  0
  -27.3707  -12.6017   17.7883 H   0  0  0  0  0  0
  -27.6745  -14.2444   19.5320 H   0  0  0  0  0  0
  -28.6985  -12.0293   21.3774 H   0  0  0  0  0  0
  -28.4684  -13.6927   21.8384 H   0  0  0  0  0  0
  -25.2773   -9.5670   22.4775 H   0  0  0  0  0  0
  -24.0005   -7.4632   22.7490 H   0  0  0  0  0  0
  -21.0860   -8.8785   19.8949 H   0  0  0  0  0  0
  -22.3731  -10.9683   19.6181 H   0  0  0  0  0  0
  -21.1991   -7.6148   23.9722 H   0  0  0  0  0  0
  -21.1487   -6.0529   25.9086 H   0  0  0  0  0  0
  -22.0595   -2.7612   23.2861 H   0  0  0  0  0  0
  -22.4110  -11.9883   22.4766 H   0  0  0  0  0  0
  -21.1113  -13.1266   22.2610 H   0  0  0  0  0  0
  -24.6499  -15.8316   20.5017 H   0  0  0  0  0  0
  -26.2571  -15.6277   20.0308 H   0  0  0  0  0  0
  -26.7165  -32.5502   23.1167 H   0  0  0  0  0  0
  -25.0161  -33.9777   25.0516 H   0  0  0  0  0  0
  -22.7020  -31.3036   21.4072 H   0  0  0  0  0  0
  -23.3774  -35.9593   23.3285 H   0  0  0  0  0  0
  -24.3590  -36.8947   22.2064 H   0  0  0  0  0  0
  -23.7194  -37.6475   23.6685 H   0  0  0  0  0  0
  -26.0531  -31.5861   20.5926 H   0  0  0  0  0  0
  -26.8301  -30.8776   21.9796 H   0  0  0  0  0  0
  -28.1136  -29.0757   21.1511 H   0  0  0  0  0  0
  -26.0245  -25.9441   19.0375 H   0  0  0  0  0  0
  -23.9763  -27.2862   19.0407 H   0  0  0  0  0  0
  -23.7245  -30.5888   19.4017 H   0  0  0  0  0  0
  -22.7433  -29.2335   19.8734 H   0  0  0  0  0  0
  -25.1279  -36.1967   25.0831 H   0  0  0  0  0  0
  -20.9940  -28.3256   24.1442 H   0  0  0  0  0  0
  -20.5712  -26.2295   23.3603 H   0  0  0  0  0  0
  -21.6633  -26.7491   22.1180 H   0  0  0  0  0  0
  -19.6907  -25.6302   21.1252 H   0  0  0  0  0  0
  -19.6673  -27.3208   20.6753 H   0  0  0  0  0  0
  -17.4192  -26.6732   21.4016 H   0  0  0  0  0  0
  -18.0282  -26.0060   22.8996 H   0  0  0  0  0  0
  -19.7924  -30.7289   24.2260 H   0  0  0  0  0  0
  -17.4997  -31.6276   24.5171 H   0  0  0  0  0  0
  -15.5340  -30.2974   23.7665 H   0  0  0  0  0  0
  -15.8673  -28.0819   22.7071 H   0  0  0  0  0  0
  -24.5946  -30.7008   25.7793 H   0  0  0  0  0  0
  -24.8912  -32.2800   26.4962 H   0  0  0  0  0  0
  -25.8101  -30.8816   27.0223 H   0  0  0  0  0  0
  -26.2912  -29.6783   24.1241 H   0  0  0  0  0  0
  -27.4246  -29.7379   25.4576 H   0  0  0  0  0  0
  -27.8691  -30.4456   23.9214 H   0  0  0  0  0  0
  -27.2695  -33.3673   26.2040 H   0  0  0  0  0  0
  -28.3857  -32.6866   25.0290 H   0  0  0  0  0  0
  -28.0735  -31.8493   26.5420 H   0  0  0  0  0  0
  -28.2562  -38.0129   24.7597 H   0  0  0  0  0  0
  -28.1119  -36.2671   24.6187 H   0  0  0  0  0  0
  -27.2313  -37.1315   25.8868 H   0  0  0  0  0  0
  -20.9354  -29.8746   21.6913 H   0  0  0  0  0  0
  -26.0179  -38.2864   24.1479 H   0  0  0  0  0  0
  -31.8779  -19.9749   21.6275 H   0  0  0  0  0  0
  -28.8500  -25.7211   17.7893 H   0  0  0  0  0  0
  -27.3863  -24.7414   17.7513 H   0  0  0  0  0  0
  -28.9092  -24.0807   17.1805 H   0  0  0  0  0  0
  -25.1397  -21.7157   20.0613 H   0  0  0  0  0  0
  -26.5474  -20.7258   20.3978 H   0  0  0  0  0  0
  -26.1834  -21.2190   18.7314 H   0  0  0  0  0  0
  -29.5158  -20.4723   18.5805 H   0  0  0  0  0  0
  -30.9376  -21.1264   19.3156 H   0  0  0  0  0  0
  -28.8163  -25.0323   21.3641 H   0  0  0  0  0  0
  -27.2234  -24.9778   20.7343 H   0  0  0  0  0  0
  -28.2594  -22.2852   18.4857 H   0  0  0  0  0  0
  -29.8604  -24.1907   19.4401 H   0  0  0  0  0  0
  -28.8783  -15.4084   20.7756 H   0  0  0  0  0  0
  1 25  1  0  0  0
  1 30  2  0  0  0
  1 83  1  0  0  0
  2  3  1  0  0  0
  2 25  1  0  0  0
  2 90  1  0  0  0
  2 91  1  0  0  0
  3  4  1  0  0  0
  3 92  1  0  0  0
  3 93  1  0  0  0
  4  5  1  0  0  0
  4 94  1  0  0  0
  4 95  1  0  0  0
  5  6  1  0  0  0
  5 26  1  0  0  0
  5 96  1  0  0  0
  6 25  1  0  0  0
  6 97  1  0  0  0
  6 98  1  0  0  0
  7  8  2  0  0  0
  7 26  1  0  0  0
  7 29  1  0  0  0
  8  9  1  0  0  0
  8 22  1  0  0  0
  9 10  1  0  0  0
  9 27  2  0  0  0
 10 11  2  0  0  0
 10 15  1  0  0  0
 11 12  1  0  0  0
 11 99  1  0  0  0
 12 13  2  0  0  0
 12100  1  0  0  0
 13 14  1  0  0  0
 13 31  1  0  0  0
 14 15  2  0  0  0
 14101  1  0  0  0
 15102  1  0  0  0
 16 17  2  0  0  0
 16 21  1  0  0  0
 16 31  1  0  0  0
 17 18  1  0  0  0
 17103  1  0  0  0
 18 19  2  0  0  0
 18104  1  0  0  0
 19 20  1  0  0  0
 19 24  1  0  0  0
 20 21  2  0  0  0
 20105  1  0  0  0
 21 23  1  0  0  0
 22 28  1  0  0  0
 22 32  2  0  0  0
 26 27  1  0  0  0
 28106  1  0  0  0
 28107  1  0  0  0
 29108  1  0  0  0
 29109  1  0  0  0
 33 34  1  0  0  0
 33 66  1  0  0  0
 33 70  2  0  0  0
 34 36  1  0  0  0
 34 59  1  0  0  0
 34110  1  0  0  0
 35 44  2  0  0  0
 35 45  1  0  0  0
 35 68  1  0  0  0
 36 56  1  0  0  0
 36111  1  0  0  0
 37 39  1  0  0  0
 37 47  1  0  0  0
 37 66  1  0  0  0
 37112  1  0  0  0
 38 43  2  0  0  0
 38 46  1  0  0  0
 38 47  1  0  0  0
 39 64  1  0  0  0
 39 67  2  0  0  0
 40 52  1  0  0  0
 40 53  2  0  0  0
 40 58  1  0  0  0
 41113  1  0  0  0
 41114  1  0  0  0
 41115  1  0  0  0
 41 48  1  0  0  0
 42 43  1  0  0  0
 42 66  1  0  0  0
 42116  1  0  0  0
 42117  1  0  0  0
 43 44  1  0  0  0
 44118  1  0  0  0
 45 46  2  0  0  0
 45119  1  0  0  0
 46120  1  0  0  0
 47121  1  0  0  0
 47122  1  0  0  0
 48 56  1  0  0  0
 48 65  1  0  0  0
 48123  1  0  0  0
 49 50  1  0  0  0
 49 53  1  0  0  0
 49 64  1  0  0  0
 49124  1  0  0  0
 50 51  1  0  0  0
 50125  1  0  0  0
 50126  1  0  0  0
 51 52  1  0  0  0
 51127  1  0  0  0
 51128  1  0  0  0
 52129  1  0  0  0
 52130  1  0  0  0
 53 54  1  0  0  0
 54 55  2  0  0  0
 54131  1  0  0  0
 55 57  1  0  0  0
 55132  1  0  0  0
 56 69  2  0  0  0
 57 58  2  0  0  0
 57133  1  0  0  0
 58134  1  0  0  0
 59 60  1  0  0  0
 59 61  1  0  0  0
 59 62  1  0  0  0
 60135  1  0  0  0
 60136  1  0  0  0
 60137  1  0  0  0
 61138  1  0  0  0
 61139  1  0  0  0
 61140  1  0  0  0
 62141  1  0  0  0
 62142  1  0  0  0
 62143  1  0  0  0
 63 65  1  0  0  0
 63144  1  0  0  0
 63145  1  0  0  0
 63146  1  0  0  0
 64147  1  0  0  0
 65148  1  0  0  0
 68 79  1  0  0  0
 71 72  2  0  0  0
 71 89  1  0  0  0
 71149  1  0  0  0
 72 73  1  0  0  0
 72 78  1  0  0  0
 73 74  2  0  0  0
 73 82  1  0  0  0
 74 83  1  0  0  0
 74 89  1  0  0  0
 75 78  1  0  0  0
 75 80  1  0  0  0
 75 84  2  0  0  0
 76150  1  0  0  0
 76151  1  0  0  0
 76152  1  0  0  0
 76 81  1  0  0  0
 77 85  1  0  0  0
 77153  1  0  0  0
 77154  1  0  0  0
 77155  1  0  0  0
 78156  1  0  0  0
 78157  1  0  0  0
 79 81  1  0  0  0
 79158  1  0  0  0
 79159  1  0  0  0
 80 81  1  0  0  0
 80 85  1  0  0  0
 80160  1  0  0  0
 81161  1  0  0  0
 82 86  1  0  0  0
 82 87  1  0  0  0
 82 88  1  0  0  0
 83162  1  0  0  0
M  ISO  4   1 100  68 101  79 101  83 100
M  END
> <chiral flag>
0

> <version>
0

> <s_m_source_file>
/data/baiqing/PycharmProjects/Reinvent-master-3.2/result/LINK_invent/BTK/process_docking_weight1_custom_product_contain_oxygen_bond_distance_aromatic_linkinvent_7_9_3/rearranged_h_0188.sdf

> <i_m_source_file_index>
63

> <r_mmod_Potential_Energy-OPLS-2005>
157.895172119141

> <r_mmod_Stretch_Energy-OPLS-2005>
55.7957305908203

> <r_mmod_Bend_Energy-OPLS-2005>
127.853614807129

> <r_mmod_Torsional_Energy-OPLS-2005>
256.755859375

> <r_mmod_Improper_Torsional_Energy-OPLS-2005>
7.43808460235596

> <r_mmod_Van_der_Waal_Energy-OPLS-2005>
124.241622924805

> <r_mmod_Electrostatic_Energy-OPLS-2005>
-217.043167114258

> <r_mmod_Solvation_Energy-OPLS-2005>
-222.937438964844

> <b_mmod_Minimization_Converged-OPLS-2005>
0

> <r_mmod_RMS_Derivative-OPLS-2005>
1.84813106060028

$$$$
64
                    3D
 Structure written by MMmdl.
149157  0  0  1  0            999 V2000
  -30.6192  -14.7440   20.4678 C   0  0  0  0  0  0
  -30.4316  -12.4554   19.4694 C   0  0  0  0  0  0
  -29.5085  -12.5039   18.2325 C   0  0  0  0  0  0
  -28.0351  -12.3270   18.6485 C   0  0  0  0  0  0
  -27.6401  -13.2297   19.8479 C   0  0  2  0  0  0
  -28.6868  -13.1685   20.9818 C   0  0  0  0  0  0
  -25.2505  -13.8191   20.5688 C   0  0  0  0  0  0
  -24.1800  -13.0436   20.9213 C   0  0  0  0  0  0
  -24.6389  -11.6913   20.8756 C   0  0  0  0  0  0
  -23.9066  -10.4292   21.0402 C   0  0  0  0  0  0
  -24.3620   -9.4207   21.9181 C   0  0  0  0  0  0
  -23.6296   -8.2244   22.0751 C   0  0  0  0  0  0
  -22.4279   -8.0280   21.3540 C   0  0  0  0  0  0
  -21.9912   -9.0252   20.4645 C   0  0  0  0  0  0
  -22.7238  -10.2135   20.3052 C   0  0  0  0  0  0
  -21.6856   -6.0736   22.5280 C   0  0  0  0  0  0
  -21.4014   -6.5637   23.8213 C   0  0  0  0  0  0
  -21.3663   -5.6790   24.9174 C   0  0  0  0  0  0
  -21.6045   -4.3053   24.7224 C   0  0  0  0  0  0
  -21.8819   -3.8145   23.4345 C   0  0  0  0  0  0
  -21.9192   -4.6962   22.3402 C   0  0  0  0  0  0
  -22.7821  -13.5220   21.1868 C   0  0  0  0  0  0
  -22.1659   -4.2145   21.0980 F   0  0  0  0  0  0
  -21.5630   -3.4537   25.7738 F   0  0  0  0  0  0
  -29.9855  -13.5221   20.3949 N   0  0  0  0  0  0
  -26.2929  -12.9394   20.3274 N   0  0  0  0  0  0
  -25.9319  -11.6540   20.5757 N   0  0  0  0  0  0
  -22.0461  -12.8221   22.0426 N   0  0  0  0  0  0
  -25.4174  -15.1919   20.4090 N   0  0  0  0  0  0
  -31.8072  -14.8243   20.1428 O   0  0  0  0  0  0
  -21.6641   -6.8879   21.4241 O   0  0  0  0  0  0
  -22.3509  -14.5522   20.6703 O   0  0  0  0  0  0
  -24.6326  -31.8547   23.1989 C   0  0  0  0  0  0
  -25.9151  -32.4747   23.8332 C   0  0  1  0  0  0
  -27.2142  -27.2527   20.1254 C   0  0  0  0  0  0
  -25.5940  -33.8552   24.2250 N   0  0  0  0  0  0
  -23.4286  -30.4794   21.5432 C   0  0  2  0  0  0
  -24.8744  -28.9291   20.1085 C   0  0  0  0  0  0
  -22.7508  -29.4604   22.4912 C   0  0  0  0  0  0
  -18.0294  -28.1387   22.8484 C   0  0  0  0  0  0
  -24.1489  -36.7284   23.2639 C   0  0  0  0  0  0
  -25.9766  -30.7652   21.3804 C   0  0  0  0  0  0
  -26.0484  -29.3887   20.7192 C   0  0  0  0  0  0
  -27.2218  -28.5643   20.7148 C   0  0  0  0  0  0
  -26.0154  -26.8696   19.4802 C   0  0  0  0  0  0
  -24.8645  -27.6785   19.4767 C   0  0  0  0  0  0
  -23.6460  -29.8170   20.1582 C   0  0  0  0  0  0
  -25.4117  -36.3067   24.0325 C   0  0  1  0  0  0
  -20.5898  -28.3701   23.1264 C   0  0  2  0  0  0
  -20.6782  -26.9416   22.5408 C   0  0  0  0  0  0
  -19.5756  -26.6383   21.5214 C   0  0  0  0  0  0
  -18.1937  -26.7929   22.1626 C   0  0  0  0  0  0
  -19.1547  -28.8863   23.2867 C   0  0  0  0  0  0
  -18.9467  -30.1466   23.8882 C   0  0  0  0  0  0
  -17.6464  -30.6587   24.0563 C   0  0  0  0  0  0
  -25.9062  -34.9436   23.5091 C   0  0  0  0  0  0
  -16.5357  -29.9082   23.6329 C   0  0  0  0  0  0
  -16.7281  -28.6501   23.0349 C   0  0  0  0  0  0
  -26.4508  -31.6577   25.0729 C   0  0  0  0  0  0
  -25.3720  -31.3736   26.1440 C   0  0  0  0  0  0
  -27.0361  -30.2988   24.6238 C   0  0  0  0  0  0
  -27.6054  -32.4323   25.7504 C   0  0  0  0  0  0
  -27.5579  -37.1796   24.8464 C   0  0  0  0  0  0
  -21.4216  -29.3046   22.3651 N   0  0  0  0  0  0
  -26.4290  -37.3768   23.9409 N   0  0  0  0  0  0
  -24.6983  -31.0511   22.0968 N   0  0  0  0  0  0
  -23.4206  -28.8142   23.3011 O   0  0  0  0  0  0
  -28.2966  -26.3372   20.1902 O   0  0  0  0  0  0
  -26.5638  -34.8914   22.4663 O   0  0  0  0  0  0
  -23.5474  -32.1375   23.7280 O   0  0  0  0  0  0
  -30.2116  -17.3086   20.8508 C   0  0  0  0  0  0
  -31.2943  -17.6728   21.6237 C   0  0  0  0  0  0
  -30.0221  -19.6986   20.8591 C   0  0  0  0  0  0
  -28.0001  -24.8599   20.0668 C   0  0  0  0  0  0
  -29.0569  -23.6832   20.4422 C   0  0  2  0  0  0
  -28.6943  -22.1158   20.1563 C   0  0  2  0  0  0
  -29.4734  -18.5022   20.4420 N   0  0  0  0  0  0
  -29.8405  -15.8835   20.6402 N   0  0  0  0  0  0
  -29.6603  -21.0964   20.7060 N   0  0  0  0  0  0
  -29.2698  -23.7470   21.8426 O   0  0  0  0  0  0
  -28.6102  -21.9340   18.8395 F   0  0  0  0  0  0
  -31.4880  -19.4024   21.7950 S   0  0  0  0  0  0
  -32.4208  -16.7033   22.4980 Cl  0  0  0  0  0  0
  -31.4726  -12.5774   19.1656 H   0  0  0  0  0  0
  -30.3753  -11.4802   19.9560 H   0  0  0  0  0  0
  -29.7913  -11.7290   17.5186 H   0  0  0  0  0  0
  -29.6335  -13.4567   17.7157 H   0  0  0  0  0  0
  -27.8944  -11.2789   18.9144 H   0  0  0  0  0  0
  -27.3767  -12.5143   17.7994 H   0  0  0  0  0  0
  -27.6314  -14.2491   19.4622 H   0  0  0  0  0  0
  -28.7253  -12.1713   21.4227 H   0  0  0  0  0  0
  -28.4228  -13.8508   21.7919 H   0  0  0  0  0  0
  -25.2760   -9.5688   22.4759 H   0  0  0  0  0  0
  -24.0003   -7.4638   22.7472 H   0  0  0  0  0  0
  -21.0840   -8.8770   19.8960 H   0  0  0  0  0  0
  -22.3684  -10.9673   19.6166 H   0  0  0  0  0  0
  -21.2008   -7.6145   23.9717 H   0  0  0  0  0  0
  -21.1484   -6.0518   25.9079 H   0  0  0  0  0  0
  -22.0597   -2.7606   23.2844 H   0  0  0  0  0  0
  -22.4069  -11.9889   22.4830 H   0  0  0  0  0  0
  -21.1078  -13.1252   22.2622 H   0  0  0  0  0  0
  -24.6441  -15.8395   20.5163 H   0  0  0  0  0  0
  -26.2527  -15.6363   20.0512 H   0  0  0  0  0  0
  -26.7215  -32.5388   23.1068 H   0  0  0  0  0  0
  -25.0066  -33.9686   25.0379 H   0  0  0  0  0  0
  -22.7257  -31.3025   21.3995 H   0  0  0  0  0  0
  -23.3753  -35.9613   23.3293 H   0  0  0  0  0  0
  -24.3578  -36.8920   22.2056 H   0  0  0  0  0  0
  -23.7243  -37.6482   23.6670 H   0  0  0  0  0  0
  -26.1198  -31.5277   20.6134 H   0  0  0  0  0  0
  -26.8524  -30.8097   22.0160 H   0  0  0  0  0  0
  -28.1184  -28.9107   21.2094 H   0  0  0  0  0  0
  -25.9294  -25.9168   18.9810 H   0  0  0  0  0  0
  -23.9676  -27.3238   18.9871 H   0  0  0  0  0  0
  -23.7698  -30.5950   19.4039 H   0  0  0  0  0  0
  -22.7628  -29.2528   19.8527 H   0  0  0  0  0  0
  -25.1298  -36.1908   25.0817 H   0  0  0  0  0  0
  -20.9993  -28.3282   24.1385 H   0  0  0  0  0  0
  -20.5682  -26.2314   23.3616 H   0  0  0  0  0  0
  -21.6648  -26.7440   22.1199 H   0  0  0  0  0  0
  -19.6916  -25.6292   21.1249 H   0  0  0  0  0  0
  -19.6688  -27.3187   20.6739 H   0  0  0  0  0  0
  -17.4205  -26.6677   21.4030 H   0  0  0  0  0  0
  -18.0335  -26.0072   22.9023 H   0  0  0  0  0  0
  -19.7942  -30.7290   24.2238 H   0  0  0  0  0  0
  -17.5016  -31.6262   24.5173 H   0  0  0  0  0  0
  -15.5356  -30.2978   23.7663 H   0  0  0  0  0  0
  -15.8683  -28.0820   22.7063 H   0  0  0  0  0  0
  -24.5893  -30.7091   25.7759 H   0  0  0  0  0  0
  -24.8914  -32.2911   26.4846 H   0  0  0  0  0  0
  -25.8022  -30.8916   27.0228 H   0  0  0  0  0  0
  -26.2957  -29.6727   24.1246 H   0  0  0  0  0  0
  -27.4013  -29.7261   25.4774 H   0  0  0  0  0  0
  -27.8845  -30.4251   23.9508 H   0  0  0  0  0  0
  -27.2655  -33.3625   26.2069 H   0  0  0  0  0  0
  -28.3870  -32.6886   25.0339 H   0  0  0  0  0  0
  -28.0717  -31.8460   26.5433 H   0  0  0  0  0  0
  -28.2590  -38.0100   24.7514 H   0  0  0  0  0  0
  -28.1083  -36.2632   24.6279 H   0  0  0  0  0  0
  -27.2299  -37.1429   25.8867 H   0  0  0  0  0  0
  -20.9403  -29.8767   21.6852 H   0  0  0  0  0  0
  -26.0166  -38.2841   24.1409 H   0  0  0  0  0  0
  -27.0857  -24.6512   20.6243 H   0  0  0  0  0  0
  -27.7510  -24.6950   19.0180 H   0  0  0  0  0  0
  -29.9997  -23.9110   19.9421 H   0  0  0  0  0  0
  -27.7018  -21.8973   20.5553 H   0  0  0  0  0  0
  -28.8501  -15.7064   20.6383 H   0  0  0  0  0  0
  -30.2771  -21.6415   21.3015 H   0  0  0  0  0  0
  -29.4798  -24.6534   22.0485 H   0  0  0  0  0  0
  1 25  1  0  0  0
  1 30  2  0  0  0
  1 78  1  0  0  0
  2  3  1  0  0  0
  2 25  1  0  0  0
  2 84  1  0  0  0
  2 85  1  0  0  0
  3  4  1  0  0  0
  3 86  1  0  0  0
  3 87  1  0  0  0
  4  5  1  0  0  0
  4 88  1  0  0  0
  4 89  1  0  0  0
  5  6  1  0  0  0
  5 26  1  0  0  0
  5 90  1  0  0  0
  6 25  1  0  0  0
  6 91  1  0  0  0
  6 92  1  0  0  0
  7  8  2  0  0  0
  7 26  1  0  0  0
  7 29  1  0  0  0
  8  9  1  0  0  0
  8 22  1  0  0  0
  9 10  1  0  0  0
  9 27  2  0  0  0
 10 11  2  0  0  0
 10 15  1  0  0  0
 11 12  1  0  0  0
 11 93  1  0  0  0
 12 13  2  0  0  0
 12 94  1  0  0  0
 13 14  1  0  0  0
 13 31  1  0  0  0
 14 15  2  0  0  0
 14 95  1  0  0  0
 15 96  1  0  0  0
 16 17  2  0  0  0
 16 21  1  0  0  0
 16 31  1  0  0  0
 17 18  1  0  0  0
 17 97  1  0  0  0
 18 19  2  0  0  0
 18 98  1  0  0  0
 19 20  1  0  0  0
 19 24  1  0  0  0
 20 21  2  0  0  0
 20 99  1  0  0  0
 21 23  1  0  0  0
 22 28  1  0  0  0
 22 32  2  0  0  0
 26 27  1  0  0  0
 28100  1  0  0  0
 28101  1  0  0  0
 29102  1  0  0  0
 29103  1  0  0  0
 33 34  1  0  0  0
 33 66  1  0  0  0
 33 70  2  0  0  0
 34 36  1  0  0  0
 34 59  1  0  0  0
 34104  1  0  0  0
 35 44  2  0  0  0
 35 45  1  0  0  0
 35 68  1  0  0  0
 36 56  1  0  0  0
 36105  1  0  0  0
 37 39  1  0  0  0
 37 47  1  0  0  0
 37 66  1  0  0  0
 37106  1  0  0  0
 38 43  2  0  0  0
 38 46  1  0  0  0
 38 47  1  0  0  0
 39 64  1  0  0  0
 39 67  2  0  0  0
 40 52  1  0  0  0
 40 53  2  0  0  0
 40 58  1  0  0  0
 41107  1  0  0  0
 41108  1  0  0  0
 41109  1  0  0  0
 41 48  1  0  0  0
 42 43  1  0  0  0
 42 66  1  0  0  0
 42110  1  0  0  0
 42111  1  0  0  0
 43 44  1  0  0  0
 44112  1  0  0  0
 45 46  2  0  0  0
 45113  1  0  0  0
 46114  1  0  0  0
 47115  1  0  0  0
 47116  1  0  0  0
 48 56  1  0  0  0
 48 65  1  0  0  0
 48117  1  0  0  0
 49 50  1  0  0  0
 49 53  1  0  0  0
 49 64  1  0  0  0
 49118  1  0  0  0
 50 51  1  0  0  0
 50119  1  0  0  0
 50120  1  0  0  0
 51 52  1  0  0  0
 51121  1  0  0  0
 51122  1  0  0  0
 52123  1  0  0  0
 52124  1  0  0  0
 53 54  1  0  0  0
 54 55  2  0  0  0
 54125  1  0  0  0
 55 57  1  0  0  0
 55126  1  0  0  0
 56 69  2  0  0  0
 57 58  2  0  0  0
 57127  1  0  0  0
 58128  1  0  0  0
 59 60  1  0  0  0
 59 61  1  0  0  0
 59 62  1  0  0  0
 60129  1  0  0  0
 60130  1  0  0  0
 60131  1  0  0  0
 61132  1  0  0  0
 61133  1  0  0  0
 61134  1  0  0  0
 62135  1  0  0  0
 62136  1  0  0  0
 62137  1  0  0  0
 63 65  1  0  0  0
 63138  1  0  0  0
 63139  1  0  0  0
 63140  1  0  0  0
 64141  1  0  0  0
 65142  1  0  0  0
 68 74  1  0  0  0
 71 72  2  0  0  0
 71 77  1  0  0  0
 71 78  1  0  0  0
 72 82  1  0  0  0
 72 83  1  0  0  0
 73 77  2  0  0  0
 73 79  1  0  0  0
 73 82  1  0  0  0
 74 75  1  0  0  0
 74143  1  0  0  0
 74144  1  0  0  0
 75 76  1  0  0  0
 75 80  1  0  0  0
 75145  1  0  0  0
 76 79  1  0  0  0
 76 81  1  0  0  0
 76146  1  0  0  0
 78147  1  0  0  0
 79148  1  0  0  0
 80149  1  0  0  0
M  ISO  4   1 100  68 101  74 101  78 100
M  END
> <chiral flag>
0

> <version>
0

> <s_m_source_file>
/data/baiqing/PycharmProjects/Reinvent-master-3.2/result/LINK_invent/BTK/process_docking_weight1_custom_product_contain_oxygen_bond_distance_aromatic_linkinvent_7_9_3/rearranged_h_0188.sdf

> <i_m_source_file_index>
64

> <r_mmod_Potential_Energy-OPLS-2005>
79.5647735595703

> <r_mmod_Stretch_Energy-OPLS-2005>
124.201972961426

> <r_mmod_Bend_Energy-OPLS-2005>
182.595306396484

> <r_mmod_Torsional_Energy-OPLS-2005>
244.243316650391

> <r_mmod_Improper_Torsional_Energy-OPLS-2005>
7.20680332183838

> <r_mmod_Van_der_Waal_Energy-OPLS-2005>
122.306221008301

> <r_mmod_Electrostatic_Energy-OPLS-2005>
-457.597839355469

> <r_mmod_Solvation_Energy-OPLS-2005>
-232.134857177734

> <b_mmod_Minimization_Converged-OPLS-2005>
0

> <r_mmod_RMS_Derivative-OPLS-2005>
0.728042840957642

$$$$
65
                    3D
 Structure written by MMmdl.
156163  0  0  1  0            999 V2000
  -30.6178  -14.6954   20.4724 C   0  0  0  0  0  0
  -30.4322  -12.4280   19.4548 C   0  0  0  0  0  0
  -29.5041  -12.4975   18.2229 C   0  0  0  0  0  0
  -28.0294  -12.3293   18.6399 C   0  0  0  0  0  0
  -27.6418  -13.2243   19.8476 C   0  0  2  0  0  0
  -28.6877  -13.1347   20.9791 C   0  0  0  0  0  0
  -25.2518  -13.8186   20.5679 C   0  0  0  0  0  0
  -24.1809  -13.0438   20.9208 C   0  0  0  0  0  0
  -24.6389  -11.6911   20.8750 C   0  0  0  0  0  0
  -23.9068  -10.4289   21.0413 C   0  0  0  0  0  0
  -24.3622   -9.4204   21.9186 C   0  0  0  0  0  0
  -23.6295   -8.2241   22.0754 C   0  0  0  0  0  0
  -22.4277   -8.0281   21.3544 C   0  0  0  0  0  0
  -21.9915   -9.0255   20.4647 C   0  0  0  0  0  0
  -22.7245  -10.2131   20.3056 C   0  0  0  0  0  0
  -21.6851   -6.0737   22.5281 C   0  0  0  0  0  0
  -21.4014   -6.5640   23.8215 C   0  0  0  0  0  0
  -21.3657   -5.6792   24.9176 C   0  0  0  0  0  0
  -21.6044   -4.3055   24.7226 C   0  0  0  0  0  0
  -21.8819   -3.8147   23.4346 C   0  0  0  0  0  0
  -21.9193   -4.6965   22.3403 C   0  0  0  0  0  0
  -22.7830  -13.5222   21.1870 C   0  0  0  0  0  0
  -22.1661   -4.2151   21.0980 F   0  0  0  0  0  0
  -21.5626   -3.4537   25.7738 F   0  0  0  0  0  0
  -29.9902  -13.4781   20.3958 N   0  0  0  0  0  0
  -26.2935  -12.9378   20.3261 N   0  0  0  0  0  0
  -25.9314  -11.6527   20.5744 N   0  0  0  0  0  0
  -22.0478  -12.8210   22.0424 N   0  0  0  0  0  0
  -25.4207  -15.1914   20.4084 N   0  0  0  0  0  0
  -31.8129  -14.8049   20.1895 O   0  0  0  0  0  0
  -21.6637   -6.8881   21.4243 O   0  0  0  0  0  0
  -22.3513  -14.5528   20.6718 O   0  0  0  0  0  0
  -24.6272  -31.8568   23.1993 C   0  0  0  0  0  0
  -25.9107  -32.4764   23.8334 C   0  0  1  0  0  0
  -27.2255  -27.3005   20.1315 C   0  0  0  0  0  0
  -25.5911  -33.8567   24.2259 N   0  0  0  0  0  0
  -23.4230  -30.4770   21.5422 C   0  0  2  0  0  0
  -24.8710  -28.9219   20.1161 C   0  0  0  0  0  0
  -22.7482  -29.4602   22.4933 C   0  0  0  0  0  0
  -18.0288  -28.1382   22.8479 C   0  0  0  0  0  0
  -24.1491  -36.7293   23.2640 C   0  0  0  0  0  0
  -25.9636  -30.7828   21.3712 C   0  0  0  0  0  0
  -26.0402  -29.4059   20.7182 C   0  0  0  0  0  0
  -27.2245  -28.6086   20.7102 C   0  0  0  0  0  0
  -26.0366  -26.8633   19.5142 C   0  0  0  0  0  0
  -24.8713  -27.6566   19.5040 C   0  0  0  0  0  0
  -23.6402  -29.8054   20.1603 C   0  0  0  0  0  0
  -25.4116  -36.3077   24.0326 C   0  0  1  0  0  0
  -20.5885  -28.3689   23.1276 C   0  0  2  0  0  0
  -20.6779  -26.9410   22.5410 C   0  0  0  0  0  0
  -19.5761  -26.6382   21.5209 C   0  0  0  0  0  0
  -18.1939  -26.7926   22.1616 C   0  0  0  0  0  0
  -19.1539  -28.8855   23.2873 C   0  0  0  0  0  0
  -18.9464  -30.1458   23.8890 C   0  0  0  0  0  0
  -17.6462  -30.6585   24.0564 C   0  0  0  0  0  0
  -25.9048  -34.9447   23.5096 C   0  0  0  0  0  0
  -16.5353  -29.9082   23.6331 C   0  0  0  0  0  0
  -16.7277  -28.6502   23.0346 C   0  0  0  0  0  0
  -26.4488  -31.6579   25.0710 C   0  0  0  0  0  0
  -25.3717  -31.3721   26.1433 C   0  0  0  0  0  0
  -27.0336  -30.3003   24.6167 C   0  0  0  0  0  0
  -27.6046  -32.4316   25.7481 C   0  0  0  0  0  0
  -27.5584  -37.1801   24.8464 C   0  0  0  0  0  0
  -21.4194  -29.3036   22.3668 N   0  0  0  0  0  0
  -26.4297  -37.3768   23.9409 N   0  0  0  0  0  0
  -24.6901  -31.0563   22.0948 N   0  0  0  0  0  0
  -23.4192  -28.8149   23.3031 O   0  0  0  0  0  0
  -28.3377  -26.4466   20.1255 O   0  0  0  0  0  0
  -26.5627  -34.8919   22.4669 O   0  0  0  0  0  0
  -23.5431  -32.1369   23.7312 O   0  0  0  0  0  0
  -30.4149  -17.3429   22.4573 C   0  0  0  0  0  0
  -29.6968  -19.9757   20.7717 C   0  0  0  0  0  0
  -31.8164  -17.3778   23.0463 C   0  0  0  0  0  0
  -29.3150  -18.4555   20.4352 C   0  0  0  0  0  0
  -29.0419  -22.4845   20.8917 C   0  0  0  0  0  0
  -28.2088  -25.1101   20.7680 C   0  0  0  0  0  0
  -30.2891  -17.2473   20.9287 C   0  0  2  0  0  0
  -28.5095  -23.7178   20.0048 C   0  0  1  0  0  0
  -28.9300  -21.0540   20.3811 N   0  0  0  0  0  0
  -29.8367  -15.8156   20.6668 N   0  0  0  0  0  0
  -29.4358  -17.3347   23.2071 O   0  0  0  0  0  0
  -30.7161  -20.1843   21.4300 O   0  0  0  0  0  0
  -27.3161  -23.2729   19.3774 O   0  0  0  0  0  0
  -31.4721  -12.5572   19.1490 H   0  0  0  0  0  0
  -30.3772  -11.4463   19.9275 H   0  0  0  0  0  0
  -29.7776  -11.7273   17.5002 H   0  0  0  0  0  0
  -29.6353  -13.4540   17.7147 H   0  0  0  0  0  0
  -27.8791  -11.2799   18.8965 H   0  0  0  0  0  0
  -27.3719  -12.5304   17.7930 H   0  0  0  0  0  0
  -27.6422  -14.2488   19.4750 H   0  0  0  0  0  0
  -28.7140  -12.1306   21.4046 H   0  0  0  0  0  0
  -28.4318  -13.8074   21.7996 H   0  0  0  0  0  0
  -25.2768   -9.5675   22.4760 H   0  0  0  0  0  0
  -24.0002   -7.4628   22.7472 H   0  0  0  0  0  0
  -21.0846   -8.8775   19.8949 H   0  0  0  0  0  0
  -22.3709  -10.9671   19.6162 H   0  0  0  0  0  0
  -21.2007   -7.6147   23.9720 H   0  0  0  0  0  0
  -21.1479   -6.0520   25.9080 H   0  0  0  0  0  0
  -22.0602   -2.7610   23.2847 H   0  0  0  0  0  0
  -22.4096  -11.9869   22.4808 H   0  0  0  0  0  0
  -21.1094  -13.1230   22.2631 H   0  0  0  0  0  0
  -24.6488  -15.8409   20.5143 H   0  0  0  0  0  0
  -26.2577  -15.6311   20.0485 H   0  0  0  0  0  0
  -26.7175  -32.5429   23.1083 H   0  0  0  0  0  0
  -25.0047  -33.9703   25.0397 H   0  0  0  0  0  0
  -22.7178  -31.2974   21.3946 H   0  0  0  0  0  0
  -23.3749  -35.9630   23.3301 H   0  0  0  0  0  0
  -24.3578  -36.8919   22.2056 H   0  0  0  0  0  0
  -23.7248  -37.6496   23.6665 H   0  0  0  0  0  0
  -26.0921  -31.5427   20.5994 H   0  0  0  0  0  0
  -26.8442  -30.8358   21.9999 H   0  0  0  0  0  0
  -28.1263  -28.9771   21.1793 H   0  0  0  0  0  0
  -26.0080  -25.8899   19.0433 H   0  0  0  0  0  0
  -23.9757  -27.2797   19.0295 H   0  0  0  0  0  0
  -23.7625  -30.5781   19.4003 H   0  0  0  0  0  0
  -22.7598  -29.2347   19.8592 H   0  0  0  0  0  0
  -25.1297  -36.1931   25.0818 H   0  0  0  0  0  0
  -20.9975  -28.3273   24.1398 H   0  0  0  0  0  0
  -20.5684  -26.2296   23.3609 H   0  0  0  0  0  0
  -21.6649  -26.7445   22.1200 H   0  0  0  0  0  0
  -19.6924  -25.6294   21.1242 H   0  0  0  0  0  0
  -19.6706  -27.3192   20.6739 H   0  0  0  0  0  0
  -17.4208  -26.6671   21.4019 H   0  0  0  0  0  0
  -18.0341  -26.0069   22.9013 H   0  0  0  0  0  0
  -19.7944  -30.7275   24.2250 H   0  0  0  0  0  0
  -17.5022  -31.6266   24.5167 H   0  0  0  0  0  0
  -15.5354  -30.2982   23.7668 H   0  0  0  0  0  0
  -15.8676  -28.0829   22.7051 H   0  0  0  0  0  0
  -24.5912  -30.7039   25.7771 H   0  0  0  0  0  0
  -24.8881  -32.2886   26.4828 H   0  0  0  0  0  0
  -25.8043  -30.8938   27.0230 H   0  0  0  0  0  0
  -26.2910  -29.6745   24.1200 H   0  0  0  0  0  0
  -27.4037  -29.7264   25.4672 H   0  0  0  0  0  0
  -27.8777  -30.4286   23.9386 H   0  0  0  0  0  0
  -27.2658  -33.3627   26.2039 H   0  0  0  0  0  0
  -28.3870  -32.6850   25.0315 H   0  0  0  0  0  0
  -28.0694  -31.8448   26.5417 H   0  0  0  0  0  0
  -28.2595  -38.0104   24.7507 H   0  0  0  0  0  0
  -28.1084  -36.2630   24.6293 H   0  0  0  0  0  0
  -27.2297  -37.1450   25.8866 H   0  0  0  0  0  0
  -20.9373  -29.8746   21.6865 H   0  0  0  0  0  0
  -26.0179  -38.2845   24.1403 H   0  0  0  0  0  0
  -32.2880  -18.3375   22.8366 H   0  0  0  0  0  0
  -32.4267  -16.5861   22.6128 H   0  0  0  0  0  0
  -31.7807  -17.2361   24.1259 H   0  0  0  0  0  0
  -29.2122  -18.3905   19.3523 H   0  0  0  0  0  0
  -28.3138  -18.2879   20.8336 H   0  0  0  0  0  0
  -28.5073  -22.5010   21.8423 H   0  0  0  0  0  0
  -30.0809  -22.6914   21.1536 H   0  0  0  0  0  0
  -28.9317  -25.1611   21.5825 H   0  0  0  0  0  0
  -27.2496  -25.0373   21.2840 H   0  0  0  0  0  0
  -31.2707  -17.3955   20.4763 H   0  0  0  0  0  0
  -29.2508  -23.9077   19.2269 H   0  0  0  0  0  0
  -28.1338  -20.8700   19.7836 H   0  0  0  0  0  0
  -28.8597  -15.6307   20.8338 H   0  0  0  0  0  0
  -26.6647  -23.1379   20.0589 H   0  0  0  0  0  0
  1 25  1  0  0  0
  1 30  2  0  0  0
  1 80  1  0  0  0
  2  3  1  0  0  0
  2 25  1  0  0  0
  2 84  1  0  0  0
  2 85  1  0  0  0
  3  4  1  0  0  0
  3 86  1  0  0  0
  3 87  1  0  0  0
  4  5  1  0  0  0
  4 88  1  0  0  0
  4 89  1  0  0  0
  5  6  1  0  0  0
  5 26  1  0  0  0
  5 90  1  0  0  0
  6 25  1  0  0  0
  6 91  1  0  0  0
  6 92  1  0  0  0
  7  8  2  0  0  0
  7 26  1  0  0  0
  7 29  1  0  0  0
  8  9  1  0  0  0
  8 22  1  0  0  0
  9 10  1  0  0  0
  9 27  2  0  0  0
 10 11  2  0  0  0
 10 15  1  0  0  0
 11 12  1  0  0  0
 11 93  1  0  0  0
 12 13  2  0  0  0
 12 94  1  0  0  0
 13 14  1  0  0  0
 13 31  1  0  0  0
 14 15  2  0  0  0
 14 95  1  0  0  0
 15 96  1  0  0  0
 16 17  2  0  0  0
 16 21  1  0  0  0
 16 31  1  0  0  0
 17 18  1  0  0  0
 17 97  1  0  0  0
 18 19  2  0  0  0
 18 98  1  0  0  0
 19 20  1  0  0  0
 19 24  1  0  0  0
 20 21  2  0  0  0
 20 99  1  0  0  0
 21 23  1  0  0  0
 22 28  1  0  0  0
 22 32  2  0  0  0
 26 27  1  0  0  0
 28100  1  0  0  0
 28101  1  0  0  0
 29102  1  0  0  0
 29103  1  0  0  0
 33 34  1  0  0  0
 33 66  1  0  0  0
 33 70  2  0  0  0
 34 36  1  0  0  0
 34 59  1  0  0  0
 34104  1  0  0  0
 35 44  2  0  0  0
 35 45  1  0  0  0
 35 68  1  0  0  0
 36 56  1  0  0  0
 36105  1  0  0  0
 37 39  1  0  0  0
 37 47  1  0  0  0
 37 66  1  0  0  0
 37106  1  0  0  0
 38 43  2  0  0  0
 38 46  1  0  0  0
 38 47  1  0  0  0
 39 64  1  0  0  0
 39 67  2  0  0  0
 40 52  1  0  0  0
 40 53  2  0  0  0
 40 58  1  0  0  0
 41107  1  0  0  0
 41108  1  0  0  0
 41109  1  0  0  0
 41 48  1  0  0  0
 42 43  1  0  0  0
 42 66  1  0  0  0
 42110  1  0  0  0
 42111  1  0  0  0
 43 44  1  0  0  0
 44112  1  0  0  0
 45 46  2  0  0  0
 45113  1  0  0  0
 46114  1  0  0  0
 47115  1  0  0  0
 47116  1  0  0  0
 48 56  1  0  0  0
 48 65  1  0  0  0
 48117  1  0  0  0
 49 50  1  0  0  0
 49 53  1  0  0  0
 49 64  1  0  0  0
 49118  1  0  0  0
 50 51  1  0  0  0
 50119  1  0  0  0
 50120  1  0  0  0
 51 52  1  0  0  0
 51121  1  0  0  0
 51122  1  0  0  0
 52123  1  0  0  0
 52124  1  0  0  0
 53 54  1  0  0  0
 54 55  2  0  0  0
 54125  1  0  0  0
 55 57  1  0  0  0
 55126  1  0  0  0
 56 69  2  0  0  0
 57 58  2  0  0  0
 57127  1  0  0  0
 58128  1  0  0  0
 59 60  1  0  0  0
 59 61  1  0  0  0
 59 62  1  0  0  0
 60129  1  0  0  0
 60130  1  0  0  0
 60131  1  0  0  0
 61132  1  0  0  0
 61133  1  0  0  0
 61134  1  0  0  0
 62135  1  0  0  0
 62136  1  0  0  0
 62137  1  0  0  0
 63 65  1  0  0  0
 63138  1  0  0  0
 63139  1  0  0  0
 63140  1  0  0  0
 64141  1  0  0  0
 65142  1  0  0  0
 68 76  1  0  0  0
 71 73  1  0  0  0
 71 77  1  0  0  0
 71 81  2  0  0  0
 72 74  1  0  0  0
 72 79  1  0  0  0
 72 82  2  0  0  0
 73143  1  0  0  0
 73144  1  0  0  0
 73145  1  0  0  0
 74146  1  0  0  0
 74147  1  0  0  0
 74 77  1  0  0  0
 75 78  1  0  0  0
 75 79  1  0  0  0
 75148  1  0  0  0
 75149  1  0  0  0
 76 78  1  0  0  0
 76150  1  0  0  0
 76151  1  0  0  0
 77 80  1  0  0  0
 77152  1  0  0  0
 78 83  1  0  0  0
 78153  1  0  0  0
 79154  1  0  0  0
 80155  1  0  0  0
 83156  1  0  0  0
M  ISO  4   1 100  68 101  76 101  80 100
M  END
> <chiral flag>
0

> <version>
0

> <s_m_source_file>
/data/baiqing/PycharmProjects/Reinvent-master-3.2/result/LINK_invent/BTK/process_docking_weight1_custom_product_contain_oxygen_bond_distance_aromatic_linkinvent_7_9_3/rearranged_h_0188.sdf

> <i_m_source_file_index>
65

> <r_mmod_Potential_Energy-OPLS-2005>
-139.420684814453

> <r_mmod_Stretch_Energy-OPLS-2005>
105.64867401123

> <r_mmod_Bend_Energy-OPLS-2005>
150.741912841797

> <r_mmod_Torsional_Energy-OPLS-2005>
247.871841430664

> <r_mmod_Improper_Torsional_Energy-OPLS-2005>
5.35171937942505

> <r_mmod_Van_der_Waal_Energy-OPLS-2005>
119.046539306641

> <r_mmod_Electrostatic_Energy-OPLS-2005>
-575.271789550781

> <r_mmod_Solvation_Energy-OPLS-2005>
-257.179748535156

> <b_mmod_Minimization_Converged-OPLS-2005>
0

> <r_mmod_RMS_Derivative-OPLS-2005>
0.763920783996582

$$$$
66
                    3D
 Structure written by MMmdl.
159167  0  0  1  0            999 V2000
  -30.6277  -14.7643   20.5053 C   0  0  0  0  0  0
  -30.4281  -12.4756   19.4891 C   0  0  0  0  0  0
  -29.5146  -12.5255   18.2465 C   0  0  0  0  0  0
  -28.0428  -12.3348   18.6559 C   0  0  0  0  0  0
  -27.6413  -13.2373   19.8523 C   0  0  2  0  0  0
  -28.6783  -13.1814   20.9937 C   0  0  0  0  0  0
  -25.2513  -13.8205   20.5700 C   0  0  0  0  0  0
  -24.1812  -13.0443   20.9190 C   0  0  0  0  0  0
  -24.6404  -11.6922   20.8722 C   0  0  0  0  0  0
  -23.9084  -10.4299   21.0389 C   0  0  0  0  0  0
  -24.3622   -9.4224   21.9177 C   0  0  0  0  0  0
  -23.6298   -8.2260   22.0759 C   0  0  0  0  0  0
  -22.4282   -8.0291   21.3552 C   0  0  0  0  0  0
  -21.9919   -9.0260   20.4632 C   0  0  0  0  0  0
  -22.7254  -10.2136   20.3043 C   0  0  0  0  0  0
  -21.6860   -6.0735   22.5291 C   0  0  0  0  0  0
  -21.4015   -6.5640   23.8227 C   0  0  0  0  0  0
  -21.3661   -5.6794   24.9183 C   0  0  0  0  0  0
  -21.6053   -4.3059   24.7236 C   0  0  0  0  0  0
  -21.8819   -3.8144   23.4362 C   0  0  0  0  0  0
  -21.9197   -4.6958   22.3410 C   0  0  0  0  0  0
  -22.7827  -13.5214   21.1852 C   0  0  0  0  0  0
  -22.1669   -4.2145   21.0985 F   0  0  0  0  0  0
  -21.5623   -3.4539   25.7750 F   0  0  0  0  0  0
  -29.9839  -13.5415   20.4235 N   0  0  0  0  0  0
  -26.2941  -12.9424   20.3271 N   0  0  0  0  0  0
  -25.9334  -11.6554   20.5721 N   0  0  0  0  0  0
  -22.0473  -12.8184   22.0383 N   0  0  0  0  0  0
  -25.4193  -15.1937   20.4143 N   0  0  0  0  0  0
  -31.7745  -14.8628   20.0512 O   0  0  0  0  0  0
  -21.6647   -6.8889   21.4256 O   0  0  0  0  0  0
  -22.3502  -14.5520   20.6707 O   0  0  0  0  0  0
  -24.6349  -31.8546   23.1991 C   0  0  0  0  0  0
  -25.9166  -32.4736   23.8347 C   0  0  1  0  0  0
  -27.2138  -27.2254   20.1118 C   0  0  0  0  0  0
  -25.5953  -33.8550   24.2245 N   0  0  0  0  0  0
  -23.4339  -30.4794   21.5427 C   0  0  2  0  0  0
  -24.8792  -28.9273   20.1079 C   0  0  0  0  0  0
  -22.7519  -29.4601   22.4889 C   0  0  0  0  0  0
  -18.0307  -28.1402   22.8498 C   0  0  0  0  0  0
  -24.1486  -36.7260   23.2643 C   0  0  0  0  0  0
  -25.9864  -30.7459   21.3978 C   0  0  0  0  0  0
  -26.0525  -29.3705   20.7299 C   0  0  0  0  0  0
  -27.2165  -28.5290   20.7278 C   0  0  0  0  0  0
  -26.0178  -26.8780   19.4396 C   0  0  0  0  0  0
  -24.8704  -27.6913   19.4524 C   0  0  0  0  0  0
  -23.6550  -29.8214   20.1570 C   0  0  0  0  0  0
  -25.4126  -36.3060   24.0319 C   0  0  1  0  0  0
  -20.5911  -28.3733   23.1250 C   0  0  2  0  0  0
  -20.6800  -26.9447   22.5403 C   0  0  0  0  0  0
  -19.5763  -26.6403   21.5215 C   0  0  0  0  0  0
  -18.1945  -26.7946   22.1633 C   0  0  0  0  0  0
  -19.1558  -28.8876   23.2876 C   0  0  0  0  0  0
  -18.9474  -30.1471   23.8906 C   0  0  0  0  0  0
  -17.6466  -30.6599   24.0567 C   0  0  0  0  0  0
  -25.9077  -34.9431   23.5088 C   0  0  0  0  0  0
  -16.5363  -29.9096   23.6333 C   0  0  0  0  0  0
  -16.7290  -28.6513   23.0359 C   0  0  0  0  0  0
  -26.4528  -31.6590   25.0771 C   0  0  0  0  0  0
  -25.3711  -31.3757   26.1455 C   0  0  0  0  0  0
  -27.0419  -30.2991   24.6357 C   0  0  0  0  0  0
  -27.6059  -32.4380   25.7541 C   0  0  0  0  0  0
  -27.5574  -37.1787   24.8462 C   0  0  0  0  0  0
  -21.4221  -29.3068   22.3618 N   0  0  0  0  0  0
  -26.4289  -37.3765   23.9407 N   0  0  0  0  0  0
  -24.7032  -31.0464   22.1002 N   0  0  0  0  0  0
  -23.4192  -28.8137   23.3003 O   0  0  0  0  0  0
  -28.2980  -26.2998   20.1942 O   0  0  0  0  0  0
  -26.5644  -34.8899   22.4657 O   0  0  0  0  0  0
  -23.5485  -32.1406   23.7237 O   0  0  0  0  0  0
  -29.8205  -18.5173   21.0608 C   0  0  0  0  0  0
  -29.6352  -17.1746   20.4555 C   0  0  0  0  0  0
  -29.2790  -19.6099   20.3552 C   0  0  0  0  0  0
  -28.5437  -22.0623   20.1379 C   0  0  0  0  0  0
  -28.3603  -23.8549   17.2341 C   0  0  0  0  0  0
  -30.3568  -25.0512   18.2082 C   0  0  0  0  0  0
  -30.1977  -15.9470   22.5438 C   0  0  0  0  0  0
  -28.8420  -23.6078   20.5178 C   0  0  0  0  0  0
  -28.2286  -24.8675   19.6587 C   0  0  2  0  0  0
  -28.8227  -24.9503   18.2090 C   0  0  0  0  0  0
  -28.9805  -17.2278   19.3121 N   0  0  0  0  0  0
  -29.3111  -21.0005   20.6151 N   0  0  0  0  0  0
  -30.0070  -15.8727   21.0934 N   0  0  0  0  0  0
  -27.5499  -21.8301   19.4487 O   0  0  0  0  0  0
  -28.3767  -26.0733   17.6433 F   0  0  0  0  0  0
  -28.5542  -18.8441   18.9569 S   0  0  0  0  0  0
  -31.4738  -12.5872   19.1961 H   0  0  0  0  0  0
  -30.3635  -11.4995   19.9710 H   0  0  0  0  0  0
  -29.8087  -11.7600   17.5273 H   0  0  0  0  0  0
  -29.6372  -13.4848   17.7415 H   0  0  0  0  0  0
  -27.9106  -11.2860   18.9234 H   0  0  0  0  0  0
  -27.3849  -12.5139   17.8051 H   0  0  0  0  0  0
  -27.6350  -14.2584   19.4692 H   0  0  0  0  0  0
  -28.7107  -12.1879   21.4422 H   0  0  0  0  0  0
  -28.3880  -13.8658   21.7916 H   0  0  0  0  0  0
  -25.2775   -9.5698   22.4738 H   0  0  0  0  0  0
  -24.0000   -7.4652   22.7484 H   0  0  0  0  0  0
  -21.0864   -8.8777   19.8919 H   0  0  0  0  0  0
  -22.3735  -10.9657   19.6131 H   0  0  0  0  0  0
  -21.2014   -7.6149   23.9737 H   0  0  0  0  0  0
  -21.1475   -6.0515   25.9089 H   0  0  0  0  0  0
  -22.0592   -2.7608   23.2871 H   0  0  0  0  0  0
  -22.4085  -11.9844   22.4764 H   0  0  0  0  0  0
  -21.1078  -13.1184   22.2562 H   0  0  0  0  0  0
  -24.6490  -15.8433   20.5286 H   0  0  0  0  0  0
  -26.2710  -15.6389   20.0976 H   0  0  0  0  0  0
  -26.7221  -32.5359   23.1064 H   0  0  0  0  0  0
  -25.0076  -33.9699   25.0370 H   0  0  0  0  0  0
  -22.7353  -31.3058   21.3983 H   0  0  0  0  0  0
  -23.3761  -35.9574   23.3301 H   0  0  0  0  0  0
  -24.3562  -36.8904   22.2055 H   0  0  0  0  0  0
  -23.7225  -37.6449   23.6682 H   0  0  0  0  0  0
  -26.1556  -31.5109   20.6384 H   0  0  0  0  0  0
  -26.8512  -30.7732   22.0493 H   0  0  0  0  0  0
  -28.1083  -28.8597   21.2405 H   0  0  0  0  0  0
  -25.9172  -25.9628   18.8811 H   0  0  0  0  0  0
  -23.9797  -27.3585   18.9385 H   0  0  0  0  0  0
  -23.7845  -30.6031   19.4074 H   0  0  0  0  0  0
  -22.7705  -29.2620   19.8454 H   0  0  0  0  0  0
  -25.1309  -36.1898   25.0811 H   0  0  0  0  0  0
  -21.0023  -28.3320   24.1356 H   0  0  0  0  0  0
  -20.5723  -26.2345   23.3621 H   0  0  0  0  0  0
  -21.6668  -26.7470   22.1177 H   0  0  0  0  0  0
  -19.6933  -25.6310   21.1256 H   0  0  0  0  0  0
  -19.6687  -27.3202   20.6732 H   0  0  0  0  0  0
  -17.4219  -26.6700   21.4028 H   0  0  0  0  0  0
  -18.0341  -26.0079   22.9022 H   0  0  0  0  0  0
  -19.7940  -30.7297   24.2278 H   0  0  0  0  0  0
  -17.5014  -31.6270   24.5184 H   0  0  0  0  0  0
  -15.5364  -30.3000   23.7645 H   0  0  0  0  0  0
  -15.8694  -28.0826   22.7076 H   0  0  0  0  0  0
  -24.5867  -30.7160   25.7730 H   0  0  0  0  0  0
  -24.8937  -32.2940   26.4884 H   0  0  0  0  0  0
  -25.7984  -30.8890   27.0231 H   0  0  0  0  0  0
  -26.3051  -29.6691   24.1355 H   0  0  0  0  0  0
  -27.4022  -29.7325   25.4957 H   0  0  0  0  0  0
  -27.8965  -30.4250   23.9704 H   0  0  0  0  0  0
  -27.2639  -33.3683   26.2088 H   0  0  0  0  0  0
  -28.3861  -32.6950   25.0363 H   0  0  0  0  0  0
  -28.0732  -31.8546   26.5481 H   0  0  0  0  0  0
  -28.2585  -38.0085   24.7527 H   0  0  0  0  0  0
  -28.1090  -36.2630   24.6287 H   0  0  0  0  0  0
  -27.2297  -37.1417   25.8862 H   0  0  0  0  0  0
  -20.9413  -29.8785   21.6810 H   0  0  0  0  0  0
  -26.0162  -38.2840   24.1411 H   0  0  0  0  0  0
  -30.3431  -18.6289   21.9990 H   0  0  0  0  0  0
  -28.7941  -22.8850   17.4671 H   0  0  0  0  0  0
  -28.6723  -24.0945   16.2163 H   0  0  0  0  0  0
  -27.2748  -23.7538   17.2287 H   0  0  0  0  0  0
  -30.8199  -24.1039   18.4823 H   0  0  0  0  0  0
  -30.7070  -25.8069   18.9103 H   0  0  0  0  0  0
  -30.7341  -25.3156   17.2207 H   0  0  0  0  0  0
  -31.1474  -16.4324   22.7687 H   0  0  0  0  0  0
  -30.2034  -14.9666   23.0226 H   0  0  0  0  0  0
  -29.4012  -16.5273   23.0111 H   0  0  0  0  0  0
  -29.9203  -23.7256   20.6042 H   0  0  0  0  0  0
  -28.4713  -23.7190   21.5356 H   0  0  0  0  0  0
  -27.1849  -24.5826   19.5835 H   0  0  0  0  0  0
  -30.0278  -21.2832   21.2701 H   0  0  0  0  0  0
  1 25  1  0  0  0
  1 30  2  0  0  0
  1 83  1  0  0  0
  2  3  1  0  0  0
  2 25  1  0  0  0
  2 87  1  0  0  0
  2 88  1  0  0  0
  3  4  1  0  0  0
  3 89  1  0  0  0
  3 90  1  0  0  0
  4  5  1  0  0  0
  4 91  1  0  0  0
  4 92  1  0  0  0
  5  6  1  0  0  0
  5 26  1  0  0  0
  5 93  1  0  0  0
  6 25  1  0  0  0
  6 94  1  0  0  0
  6 95  1  0  0  0
  7  8  2  0  0  0
  7 26  1  0  0  0
  7 29  1  0  0  0
  8  9  1  0  0  0
  8 22  1  0  0  0
  9 10  1  0  0  0
  9 27  2  0  0  0
 10 11  2  0  0  0
 10 15  1  0  0  0
 11 12  1  0  0  0
 11 96  1  0  0  0
 12 13  2  0  0  0
 12 97  1  0  0  0
 13 14  1  0  0  0
 13 31  1  0  0  0
 14 15  2  0  0  0
 14 98  1  0  0  0
 15 99  1  0  0  0
 16 17  2  0  0  0
 16 21  1  0  0  0
 16 31  1  0  0  0
 17 18  1  0  0  0
 17100  1  0  0  0
 18 19  2  0  0  0
 18101  1  0  0  0
 19 20  1  0  0  0
 19 24  1  0  0  0
 20 21  2  0  0  0
 20102  1  0  0  0
 21 23  1  0  0  0
 22 28  1  0  0  0
 22 32  2  0  0  0
 26 27  1  0  0  0
 28103  1  0  0  0
 28104  1  0  0  0
 29105  1  0  0  0
 29106  1  0  0  0
 33 34  1  0  0  0
 33 66  1  0  0  0
 33 70  2  0  0  0
 34 36  1  0  0  0
 34 59  1  0  0  0
 34107  1  0  0  0
 35 44  2  0  0  0
 35 45  1  0  0  0
 35 68  1  0  0  0
 36 56  1  0  0  0
 36108  1  0  0  0
 37 39  1  0  0  0
 37 47  1  0  0  0
 37 66  1  0  0  0
 37109  1  0  0  0
 38 43  2  0  0  0
 38 46  1  0  0  0
 38 47  1  0  0  0
 39 64  1  0  0  0
 39 67  2  0  0  0
 40 52  1  0  0  0
 40 53  2  0  0  0
 40 58  1  0  0  0
 41110  1  0  0  0
 41111  1  0  0  0
 41112  1  0  0  0
 41 48  1  0  0  0
 42 43  1  0  0  0
 42 66  1  0  0  0
 42113  1  0  0  0
 42114  1  0  0  0
 43 44  1  0  0  0
 44115  1  0  0  0
 45 46  2  0  0  0
 45116  1  0  0  0
 46117  1  0  0  0
 47118  1  0  0  0
 47119  1  0  0  0
 48 56  1  0  0  0
 48 65  1  0  0  0
 48120  1  0  0  0
 49 50  1  0  0  0
 49 53  1  0  0  0
 49 64  1  0  0  0
 49121  1  0  0  0
 50 51  1  0  0  0
 50122  1  0  0  0
 50123  1  0  0  0
 51 52  1  0  0  0
 51124  1  0  0  0
 51125  1  0  0  0
 52126  1  0  0  0
 52127  1  0  0  0
 53 54  1  0  0  0
 54 55  2  0  0  0
 54128  1  0  0  0
 55 57  1  0  0  0
 55129  1  0  0  0
 56 69  2  0  0  0
 57 58  2  0  0  0
 57130  1  0  0  0
 58131  1  0  0  0
 59 60  1  0  0  0
 59 61  1  0  0  0
 59 62  1  0  0  0
 60132  1  0  0  0
 60133  1  0  0  0
 60134  1  0  0  0
 61135  1  0  0  0
 61136  1  0  0  0
 61137  1  0  0  0
 62138  1  0  0  0
 62139  1  0  0  0
 62140  1  0  0  0
 63 65  1  0  0  0
 63141  1  0  0  0
 63142  1  0  0  0
 63143  1  0  0  0
 64144  1  0  0  0
 65145  1  0  0  0
 68 79  1  0  0  0
 71 72  1  0  0  0
 71 73  2  0  0  0
 71146  1  0  0  0
 72 81  2  0  0  0
 72 83  1  0  0  0
 73 82  1  0  0  0
 73 86  1  0  0  0
 74 78  1  0  0  0
 74 82  1  0  0  0
 74 84  2  0  0  0
 75147  1  0  0  0
 75148  1  0  0  0
 75149  1  0  0  0
 75 80  1  0  0  0
 76 80  1  0  0  0
 76150  1  0  0  0
 76151  1  0  0  0
 76152  1  0  0  0
 77 83  1  0  0  0
 77153  1  0  0  0
 77154  1  0  0  0
 77155  1  0  0  0
 78156  1  0  0  0
 78157  1  0  0  0
 78 79  1  0  0  0
 79 80  1  0  0  0
 79158  1  0  0  0
 80 85  1  0  0  0
 81 86  1  0  0  0
 82159  1  0  0  0
M  ISO  4   1 100  68 101  79 101  83 100
M  END
> <chiral flag>
0

> <version>
0

> <s_m_source_file>
/data/baiqing/PycharmProjects/Reinvent-master-3.2/result/LINK_invent/BTK/process_docking_weight1_custom_product_contain_oxygen_bond_distance_aromatic_linkinvent_7_9_3/rearranged_h_0188.sdf

> <i_m_source_file_index>
66

> <r_mmod_Potential_Energy-OPLS-2005>
236.425491333008

> <r_mmod_Stretch_Energy-OPLS-2005>
146.989135742188

> <r_mmod_Bend_Energy-OPLS-2005>
192.317947387695

> <r_mmod_Torsional_Energy-OPLS-2005>
275.586822509766

> <r_mmod_Improper_Torsional_Energy-OPLS-2005>
3.85005855560303

> <r_mmod_Van_der_Waal_Energy-OPLS-2005>
122.77725982666

> <r_mmod_Electrostatic_Energy-OPLS-2005>
-388.220123291016

> <r_mmod_Solvation_Energy-OPLS-2005>
-217.532424926758

> <b_mmod_Minimization_Converged-OPLS-2005>
0

> <r_mmod_RMS_Derivative-OPLS-2005>
2.38810729980469

$$$$
67
                    3D
 Structure written by MMmdl.
152160  0  0  1  0            999 V2000
  -30.6503  -14.5334   20.5348 C   0  0  0  0  0  0
  -30.4359  -12.3292   19.4357 C   0  0  0  0  0  0
  -29.5027  -12.4890   18.2151 C   0  0  0  0  0  0
  -28.0217  -12.3555   18.6263 C   0  0  0  0  0  0
  -27.6615  -13.2004   19.8776 C   0  0  2  0  0  0
  -28.7049  -12.9947   20.9992 C   0  0  0  0  0  0
  -25.2594  -13.8138   20.5697 C   0  0  0  0  0  0
  -24.1837  -13.0421   20.9172 C   0  0  0  0  0  0
  -24.6384  -11.6887   20.8735 C   0  0  0  0  0  0
  -23.9047  -10.4282   21.0406 C   0  0  0  0  0  0
  -24.3609   -9.4202   21.9183 C   0  0  0  0  0  0
  -23.6288   -8.2238   22.0751 C   0  0  0  0  0  0
  -22.4267   -8.0274   21.3540 C   0  0  0  0  0  0
  -21.9897   -9.0246   20.4644 C   0  0  0  0  0  0
  -22.7221  -10.2128   20.3058 C   0  0  0  0  0  0
  -21.6848   -6.0733   22.5279 C   0  0  0  0  0  0
  -21.4012   -6.5637   23.8211 C   0  0  0  0  0  0
  -21.3661   -5.6794   24.9178 C   0  0  0  0  0  0
  -21.6042   -4.3057   24.7228 C   0  0  0  0  0  0
  -21.8821   -3.8145   23.4349 C   0  0  0  0  0  0
  -21.9189   -4.6960   22.3403 C   0  0  0  0  0  0
  -22.7862  -13.5232   21.1839 C   0  0  0  0  0  0
  -22.1660   -4.2145   21.0980 F   0  0  0  0  0  0
  -21.5627   -3.4543   25.7743 F   0  0  0  0  0  0
  -30.0314  -13.3212   20.4462 N   0  0  0  0  0  0
  -26.3026  -12.9289   20.3387 N   0  0  0  0  0  0
  -25.9311  -11.6458   20.5775 N   0  0  0  0  0  0
  -22.0507  -12.8236   22.0402 N   0  0  0  0  0  0
  -25.4314  -15.1862   20.4151 N   0  0  0  0  0  0
  -31.7809  -14.7404   20.0821 O   0  0  0  0  0  0
  -21.6629   -6.8874   21.4240 O   0  0  0  0  0  0
  -22.3548  -14.5541   20.6687 O   0  0  0  0  0  0
  -24.6170  -31.8652   23.2073 C   0  0  0  0  0  0
  -25.9050  -32.4810   23.8376 C   0  0  1  0  0  0
  -27.2409  -27.4030   20.0920 C   0  0  0  0  0  0
  -25.5895  -33.8610   24.2306 N   0  0  0  0  0  0
  -23.4064  -30.4876   21.5480 C   0  0  2  0  0  0
  -24.8539  -28.9474   20.1128 C   0  0  0  0  0  0
  -22.7419  -29.4642   22.4977 C   0  0  0  0  0  0
  -18.0271  -28.1373   22.8493 C   0  0  0  0  0  0
  -24.1485  -36.7312   23.2638 C   0  0  0  0  0  0
  -25.9382  -30.8191   21.3658 C   0  0  0  0  0  0
  -26.0138  -29.4507   20.7123 C   0  0  0  0  0  0
  -27.2043  -28.6838   20.7017 C   0  0  0  0  0  0
  -26.0542  -26.9156   19.4960 C   0  0  0  0  0  0
  -24.8703  -27.6800   19.5047 C   0  0  0  0  0  0
  -23.6171  -29.8183   20.1630 C   0  0  0  0  0  0
  -25.4107  -36.3108   24.0334 C   0  0  1  0  0  0
  -20.5865  -28.3659   23.1317 C   0  0  2  0  0  0
  -20.6762  -26.9395   22.5422 C   0  0  0  0  0  0
  -19.5744  -26.6381   21.5215 C   0  0  0  0  0  0
  -18.1922  -26.7918   22.1625 C   0  0  0  0  0  0
  -19.1522  -28.8833   23.2901 C   0  0  0  0  0  0
  -18.9450  -30.1437   23.8913 C   0  0  0  0  0  0
  -17.6452  -30.6581   24.0563 C   0  0  0  0  0  0
  -25.9033  -34.9473   23.5119 C   0  0  0  0  0  0
  -16.5343  -29.9084   23.6326 C   0  0  0  0  0  0
  -16.7259  -28.6498   23.0349 C   0  0  0  0  0  0
  -26.4472  -31.6599   25.0716 C   0  0  0  0  0  0
  -25.3739  -31.3714   26.1469 C   0  0  0  0  0  0
  -27.0301  -30.3036   24.6110 C   0  0  0  0  0  0
  -27.6048  -32.4324   25.7471 C   0  0  0  0  0  0
  -27.5581  -37.1808   24.8464 C   0  0  0  0  0  0
  -21.4144  -29.3024   22.3718 N   0  0  0  0  0  0
  -26.4295  -37.3793   23.9407 N   0  0  0  0  0  0
  -24.6722  -31.0726   22.0986 N   0  0  0  0  0  0
  -23.4178  -28.8196   23.3039 O   0  0  0  0  0  0
  -28.4227  -26.6768   20.1342 O   0  0  0  0  0  0
  -26.5606  -34.8929   22.4687 O   0  0  0  0  0  0
  -23.5356  -32.1420   23.7453 O   0  0  0  0  0  0
  -29.3100  -17.3755   19.5031 C   0  0  0  0  0  0
  -29.8669  -16.8440   20.6520 C   0  0  0  0  0  0
  -29.8193  -19.3647   20.5338 C   0  0  0  0  0  0
  -29.9998  -20.8541   20.7764 C   0  0  0  0  0  0
  -28.6354  -24.1601   20.0810 C   0  0  0  0  0  0
  -28.6978  -16.6270   18.3597 C   0  0  0  0  0  0
  -29.7001  -23.1102   19.6645 C   0  0  0  0  0  0
  -28.6298  -25.5080   19.3021 C   0  0  0  0  0  0
  -29.2871  -18.7797   19.4532 N   0  0  0  0  0  0
  -29.8880  -15.5290   21.0419 N   0  0  0  0  0  0
  -29.3657  -21.6838   19.9194 N   0  0  0  0  0  0
  -30.7303  -21.2709   21.6786 O   0  0  0  0  0  0
  -27.8252  -23.9283   20.9855 O   0  0  0  0  0  0
  -30.4188  -18.1557   21.6910 S   0  0  0  0  0  0
  -31.4786  -12.4458   19.1333 H   0  0  0  0  0  0
  -30.3588  -11.3216   19.8476 H   0  0  0  0  0  0
  -29.7456  -11.7411   17.4591 H   0  0  0  0  0  0
  -29.6717  -13.4569   17.7440 H   0  0  0  0  0  0
  -27.8329  -11.3012   18.8316 H   0  0  0  0  0  0
  -27.3725  -12.6221   17.7915 H   0  0  0  0  0  0
  -27.6975  -14.2442   19.5740 H   0  0  0  0  0  0
  -28.6943  -11.9586   21.3420 H   0  0  0  0  0  0
  -28.4589  -13.5904   21.8798 H   0  0  0  0  0  0
  -25.2763   -9.5677   22.4750 H   0  0  0  0  0  0
  -23.9996   -7.4629   22.7472 H   0  0  0  0  0  0
  -21.0824   -8.8766   19.8956 H   0  0  0  0  0  0
  -22.3680  -10.9668   19.6168 H   0  0  0  0  0  0
  -21.2011   -7.6147   23.9715 H   0  0  0  0  0  0
  -21.1478   -6.0524   25.9079 H   0  0  0  0  0  0
  -22.0600   -2.7608   23.2848 H   0  0  0  0  0  0
  -22.4125  -11.9900   22.4796 H   0  0  0  0  0  0
  -21.1126  -13.1265   22.2608 H   0  0  0  0  0  0
  -24.6671  -15.8408   20.5415 H   0  0  0  0  0  0
  -26.2904  -15.6351   20.1273 H   0  0  0  0  0  0
  -26.7116  -32.5508   23.1130 H   0  0  0  0  0  0
  -25.0046  -33.9765   25.0452 H   0  0  0  0  0  0
  -22.6964  -31.3054   21.4072 H   0  0  0  0  0  0
  -23.3746  -35.9648   23.3316 H   0  0  0  0  0  0
  -24.3577  -36.8913   22.2051 H   0  0  0  0  0  0
  -23.7245  -37.6524   23.6642 H   0  0  0  0  0  0
  -26.0569  -31.5846   20.5977 H   0  0  0  0  0  0
  -26.8234  -30.8708   21.9879 H   0  0  0  0  0  0
  -28.0995  -29.0716   21.1681 H   0  0  0  0  0  0
  -26.0110  -25.9379   19.0402 H   0  0  0  0  0  0
  -23.9746  -27.2827   19.0474 H   0  0  0  0  0  0
  -23.7295  -30.5933   19.4040 H   0  0  0  0  0  0
  -22.7397  -29.2410   19.8657 H   0  0  0  0  0  0
  -25.1291  -36.1970   25.0828 H   0  0  0  0  0  0
  -20.9955  -28.3225   24.1438 H   0  0  0  0  0  0
  -20.5660  -26.2268   23.3608 H   0  0  0  0  0  0
  -21.6633  -26.7435   22.1218 H   0  0  0  0  0  0
  -19.6907  -25.6296   21.1234 H   0  0  0  0  0  0
  -19.6687  -27.3200   20.6752 H   0  0  0  0  0  0
  -17.4195  -26.6664   21.4025 H   0  0  0  0  0  0
  -18.0323  -26.0051   22.9014 H   0  0  0  0  0  0
  -19.7927  -30.7246   24.2293 H   0  0  0  0  0  0
  -17.5009  -31.6265   24.5158 H   0  0  0  0  0  0
  -15.5344  -30.2991   23.7640 H   0  0  0  0  0  0
  -15.8656  -28.0818   22.7062 H   0  0  0  0  0  0
  -24.5899  -30.7073   25.7810 H   0  0  0  0  0  0
  -24.8947  -32.2875   26.4932 H   0  0  0  0  0  0
  -25.8097  -30.8873   27.0218 H   0  0  0  0  0  0
  -26.2845  -29.6798   24.1165 H   0  0  0  0  0  0
  -27.4060  -29.7274   25.4575 H   0  0  0  0  0  0
  -27.8687  -30.4344   23.9267 H   0  0  0  0  0  0
  -27.2662  -33.3610   26.2077 H   0  0  0  0  0  0
  -28.3835  -32.6908   25.0283 H   0  0  0  0  0  0
  -28.0740  -31.8435   26.5363 H   0  0  0  0  0  0
  -28.2611  -38.0093   24.7506 H   0  0  0  0  0  0
  -28.1068  -36.2628   24.6299 H   0  0  0  0  0  0
  -27.2303  -37.1477   25.8869 H   0  0  0  0  0  0
  -20.9307  -29.8742   21.6936 H   0  0  0  0  0  0
  -26.0188  -38.2875   24.1402 H   0  0  0  0  0  0
  -29.1953  -15.6741   18.1909 H   0  0  0  0  0  0
  -28.7674  -17.1914   17.4297 H   0  0  0  0  0  0
  -27.6419  -16.4288   18.5398 H   0  0  0  0  0  0
  -30.6386  -23.3797   20.1506 H   0  0  0  0  0  0
  -29.8791  -23.2198   18.5946 H   0  0  0  0  0  0
  -27.9316  -25.4526   18.4691 H   0  0  0  0  0  0
  -29.6115  -25.6218   18.8425 H   0  0  0  0  0  0
  -29.0331  -15.1984   21.4640 H   0  0  0  0  0  0
  -28.7629  -21.2264   19.2474 H   0  0  0  0  0  0
  1 25  1  0  0  0
  1 30  2  0  0  0
  1 80  1  0  0  0
  2  3  1  0  0  0
  2 25  1  0  0  0
  2 85  1  0  0  0
  2 86  1  0  0  0
  3  4  1  0  0  0
  3 87  1  0  0  0
  3 88  1  0  0  0
  4  5  1  0  0  0
  4 89  1  0  0  0
  4 90  1  0  0  0
  5  6  1  0  0  0
  5 26  1  0  0  0
  5 91  1  0  0  0
  6 25  1  0  0  0
  6 92  1  0  0  0
  6 93  1  0  0  0
  7  8  2  0  0  0
  7 26  1  0  0  0
  7 29  1  0  0  0
  8  9  1  0  0  0
  8 22  1  0  0  0
  9 10  1  0  0  0
  9 27  2  0  0  0
 10 11  2  0  0  0
 10 15  1  0  0  0
 11 12  1  0  0  0
 11 94  1  0  0  0
 12 13  2  0  0  0
 12 95  1  0  0  0
 13 14  1  0  0  0
 13 31  1  0  0  0
 14 15  2  0  0  0
 14 96  1  0  0  0
 15 97  1  0  0  0
 16 17  2  0  0  0
 16 21  1  0  0  0
 16 31  1  0  0  0
 17 18  1  0  0  0
 17 98  1  0  0  0
 18 19  2  0  0  0
 18 99  1  0  0  0
 19 20  1  0  0  0
 19 24  1  0  0  0
 20 21  2  0  0  0
 20100  1  0  0  0
 21 23  1  0  0  0
 22 28  1  0  0  0
 22 32  2  0  0  0
 26 27  1  0  0  0
 28101  1  0  0  0
 28102  1  0  0  0
 29103  1  0  0  0
 29104  1  0  0  0
 33 34  1  0  0  0
 33 66  1  0  0  0
 33 70  2  0  0  0
 34 36  1  0  0  0
 34 59  1  0  0  0
 34105  1  0  0  0
 35 44  2  0  0  0
 35 45  1  0  0  0
 35 68  1  0  0  0
 36 56  1  0  0  0
 36106  1  0  0  0
 37 39  1  0  0  0
 37 47  1  0  0  0
 37 66  1  0  0  0
 37107  1  0  0  0
 38 43  2  0  0  0
 38 46  1  0  0  0
 38 47  1  0  0  0
 39 64  1  0  0  0
 39 67  2  0  0  0
 40 52  1  0  0  0
 40 53  2  0  0  0
 40 58  1  0  0  0
 41108  1  0  0  0
 41109  1  0  0  0
 41110  1  0  0  0
 41 48  1  0  0  0
 42 43  1  0  0  0
 42 66  1  0  0  0
 42111  1  0  0  0
 42112  1  0  0  0
 43 44  1  0  0  0
 44113  1  0  0  0
 45 46  2  0  0  0
 45114  1  0  0  0
 46115  1  0  0  0
 47116  1  0  0  0
 47117  1  0  0  0
 48 56  1  0  0  0
 48 65  1  0  0  0
 48118  1  0  0  0
 49 50  1  0  0  0
 49 53  1  0  0  0
 49 64  1  0  0  0
 49119  1  0  0  0
 50 51  1  0  0  0
 50120  1  0  0  0
 50121  1  0  0  0
 51 52  1  0  0  0
 51122  1  0  0  0
 51123  1  0  0  0
 52124  1  0  0  0
 52125  1  0  0  0
 53 54  1  0  0  0
 54 55  2  0  0  0
 54126  1  0  0  0
 55 57  1  0  0  0
 55127  1  0  0  0
 56 69  2  0  0  0
 57 58  2  0  0  0
 57128  1  0  0  0
 58129  1  0  0  0
 59 60  1  0  0  0
 59 61  1  0  0  0
 59 62  1  0  0  0
 60130  1  0  0  0
 60131  1  0  0  0
 60132  1  0  0  0
 61133  1  0  0  0
 61134  1  0  0  0
 61135  1  0  0  0
 62136  1  0  0  0
 62137  1  0  0  0
 62138  1  0  0  0
 63 65  1  0  0  0
 63139  1  0  0  0
 63140  1  0  0  0
 63141  1  0  0  0
 64142  1  0  0  0
 65143  1  0  0  0
 68 78  1  0  0  0
 71 72  2  0  0  0
 71 76  1  0  0  0
 71 79  1  0  0  0
 72 80  1  0  0  0
 72 84  1  0  0  0
 73 74  1  0  0  0
 73 79  2  0  0  0
 73 84  1  0  0  0
 74 81  1  0  0  0
 74 82  2  0  0  0
 75 77  1  0  0  0
 75 78  1  0  0  0
 75 83  2  0  0  0
 76144  1  0  0  0
 76145  1  0  0  0
 76146  1  0  0  0
 77 81  1  0  0  0
 77147  1  0  0  0
 77148  1  0  0  0
 78149  1  0  0  0
 78150  1  0  0  0
 80151  1  0  0  0
 81152  1  0  0  0
M  ISO  4   1 100  68 101  78 101  80 100
M  END
> <chiral flag>
0

> <version>
0

> <s_m_source_file>
/data/baiqing/PycharmProjects/Reinvent-master-3.2/result/LINK_invent/BTK/process_docking_weight1_custom_product_contain_oxygen_bond_distance_aromatic_linkinvent_7_9_3/rearranged_h_0188.sdf

> <i_m_source_file_index>
67

> <r_mmod_Potential_Energy-OPLS-2005>
-105.887161254883

> <r_mmod_Stretch_Energy-OPLS-2005>
44.9946746826172

> <r_mmod_Bend_Energy-OPLS-2005>
115.211082458496

> <r_mmod_Torsional_Energy-OPLS-2005>
256.993133544922

> <r_mmod_Improper_Torsional_Energy-OPLS-2005>
5.82766914367676

> <r_mmod_Van_der_Waal_Energy-OPLS-2005>
118.206832885742

> <r_mmod_Electrostatic_Energy-OPLS-2005>
-396.938690185547

> <r_mmod_Solvation_Energy-OPLS-2005>
-270.274963378906

> <b_mmod_Minimization_Converged-OPLS-2005>
0

> <r_mmod_RMS_Derivative-OPLS-2005>
0.912563621997833

$$$$
68
                    3D
 Structure written by MMmdl.
155163  0  0  1  0            999 V2000
  -30.5884  -14.7941   20.4747 C   0  0  0  0  0  0
  -30.4356  -12.4941   19.4646 C   0  0  0  0  0  0
  -29.5091  -12.5199   18.2281 C   0  0  0  0  0  0
  -28.0355  -12.3348   18.6449 C   0  0  0  0  0  0
  -27.6356  -13.2340   19.8453 C   0  0  2  0  0  0
  -28.6844  -13.1810   20.9776 C   0  0  0  0  0  0
  -25.2490  -13.8201   20.5722 C   0  0  0  0  0  0
  -24.1786  -13.0435   20.9229 C   0  0  0  0  0  0
  -24.6383  -11.6915   20.8748 C   0  0  0  0  0  0
  -23.9063  -10.4292   21.0405 C   0  0  0  0  0  0
  -24.3616   -9.4203   21.9175 C   0  0  0  0  0  0
  -23.6293   -8.2236   22.0747 C   0  0  0  0  0  0
  -22.4278   -8.0271   21.3533 C   0  0  0  0  0  0
  -21.9908   -9.0249   20.4642 C   0  0  0  0  0  0
  -22.7237  -10.2125   20.3056 C   0  0  0  0  0  0
  -21.6851   -6.0729   22.5274 C   0  0  0  0  0  0
  -21.4019   -6.5631   23.8210 C   0  0  0  0  0  0
  -21.3664   -5.6779   24.9168 C   0  0  0  0  0  0
  -21.6044   -4.3037   24.7212 C   0  0  0  0  0  0
  -21.8822   -3.8137   23.4331 C   0  0  0  0  0  0
  -21.9196   -4.6962   22.3395 C   0  0  0  0  0  0
  -22.7811  -13.5208   21.1875 C   0  0  0  0  0  0
  -22.1659   -4.2148   21.0968 F   0  0  0  0  0  0
  -21.5637   -3.4524   25.7724 F   0  0  0  0  0  0
  -29.9707  -13.5609   20.3828 N   0  0  0  0  0  0
  -26.2902  -12.9411   20.3254 N   0  0  0  0  0  0
  -25.9301  -11.6544   20.5712 N   0  0  0  0  0  0
  -22.0441  -12.8223   22.0435 N   0  0  0  0  0  0
  -25.4162  -15.1933   20.4172 N   0  0  0  0  0  0
  -31.7973  -14.8672   20.2201 O   0  0  0  0  0  0
  -21.6636   -6.8867   21.4234 O   0  0  0  0  0  0
  -22.3505  -14.5511   20.6712 O   0  0  0  0  0  0
  -24.6336  -31.8520   23.1946 C   0  0  0  0  0  0
  -25.9145  -32.4739   23.8317 C   0  0  1  0  0  0
  -27.2219  -27.2304   20.1558 C   0  0  0  0  0  0
  -25.5935  -33.8545   24.2240 N   0  0  0  0  0  0
  -23.4326  -30.4736   21.5365 C   0  0  2  0  0  0
  -24.8828  -28.9055   20.1160 C   0  0  0  0  0  0
  -22.7522  -29.4605   22.4896 C   0  0  0  0  0  0
  -18.0305  -28.1387   22.8493 C   0  0  0  0  0  0
  -24.1483  -36.7283   23.2641 C   0  0  0  0  0  0
  -25.9793  -30.7551   21.3772 C   0  0  0  0  0  0
  -26.0551  -29.3730   20.7256 C   0  0  0  0  0  0
  -27.2316  -28.5515   20.7246 C   0  0  0  0  0  0
  -26.0291  -26.8318   19.5195 C   0  0  0  0  0  0
  -24.8762  -27.6444   19.4986 C   0  0  0  0  0  0
  -23.6558  -29.7993   20.1560 C   0  0  0  0  0  0
  -25.4115  -36.3071   24.0330 C   0  0  1  0  0  0
  -20.5912  -28.3706   23.1259 C   0  0  2  0  0  0
  -20.6781  -26.9425   22.5403 C   0  0  0  0  0  0
  -19.5750  -26.6368   21.5223 C   0  0  0  0  0  0
  -18.1938  -26.7923   22.1645 C   0  0  0  0  0  0
  -19.1558  -28.8862   23.2874 C   0  0  0  0  0  0
  -18.9482  -30.1467   23.8891 C   0  0  0  0  0  0
  -17.6480  -30.6587   24.0571 C   0  0  0  0  0  0
  -25.9054  -34.9436   23.5089 C   0  0  0  0  0  0
  -16.5371  -29.9090   23.6326 C   0  0  0  0  0  0
  -16.7289  -28.6507   23.0352 C   0  0  0  0  0  0
  -26.4503  -31.6579   25.0718 C   0  0  0  0  0  0
  -25.3717  -31.3746   26.1432 C   0  0  0  0  0  0
  -27.0353  -30.2992   24.6228 C   0  0  0  0  0  0
  -27.6042  -32.4340   25.7490 C   0  0  0  0  0  0
  -27.5581  -37.1804   24.8468 C   0  0  0  0  0  0
  -21.4229  -29.3050   22.3643 N   0  0  0  0  0  0
  -26.4288  -37.3774   23.9416 N   0  0  0  0  0  0
  -24.7007  -31.0461   22.0925 N   0  0  0  0  0  0
  -23.4210  -28.8162   23.3016 O   0  0  0  0  0  0
  -28.3104  -26.3211   20.1640 O   0  0  0  0  0  0
  -26.5627  -34.8916   22.4656 O   0  0  0  0  0  0
  -23.5475  -32.1356   23.7219 O   0  0  0  0  0  0
  -30.6892  -18.7233   22.5018 C   0  0  0  0  0  0
  -29.9859  -17.3115   20.9246 C   0  0  0  0  0  0
  -29.5401  -19.6092   20.8317 C   0  0  0  0  0  0
  -28.1368  -24.9273   20.7438 C   0  0  0  0  0  0
  -28.5357  -22.0831   20.8526 C   0  0  1  0  0  0
  -28.7356  -23.5318   20.0983 C   0  0  2  0  0  0
  -27.0475  -21.8559   21.1811 C   0  0  0  0  0  0
  -30.6505  -17.4762   22.0667 N   0  0  0  0  0  0
  -30.1848  -19.8200   21.9676 N   0  0  0  0  0  0
  -29.3925  -18.3695   20.2624 N   0  0  0  0  0  0
  -31.3728  -18.9052   23.6629 N   0  0  0  0  0  0
  -29.7806  -15.9367   20.5343 N   0  0  0  0  0  0
  -29.0692  -20.8115   20.1888 N   0  0  0  0  0  0
  -30.1467  -23.6390   20.0477 O   0  0  0  0  0  0
  -26.3325  -21.7567   20.0601 F   0  0  0  0  0  0
  -26.8849  -20.7450   21.9020 F   0  0  0  0  0  0
  -31.4747  -12.6307   19.1602 H   0  0  0  0  0  0
  -30.3953  -11.5216   19.9577 H   0  0  0  0  0  0
  -29.7966  -11.7415   17.5208 H   0  0  0  0  0  0
  -29.6277  -13.4697   17.7027 H   0  0  0  0  0  0
  -27.8950  -11.2860   18.9079 H   0  0  0  0  0  0
  -27.3779  -12.5232   17.7947 H   0  0  0  0  0  0
  -27.6196  -14.2532   19.4588 H   0  0  0  0  0  0
  -28.7398  -12.1813   21.4121 H   0  0  0  0  0  0
  -28.4123  -13.8525   21.7944 H   0  0  0  0  0  0
  -25.2750   -9.5691   22.4756 H   0  0  0  0  0  0
  -24.0002   -7.4626   22.7465 H   0  0  0  0  0  0
  -21.0834   -8.8764   19.8951 H   0  0  0  0  0  0
  -22.3675  -10.9669   19.6177 H   0  0  0  0  0  0
  -21.2008   -7.6138   23.9716 H   0  0  0  0  0  0
  -21.1490   -6.0499   25.9070 H   0  0  0  0  0  0
  -22.0605   -2.7603   23.2822 H   0  0  0  0  0  0
  -22.4028  -11.9899   22.4880 H   0  0  0  0  0  0
  -21.1058  -13.1274   22.2596 H   0  0  0  0  0  0
  -24.6439  -15.8399   20.5377 H   0  0  0  0  0  0
  -26.2362  -15.6365   20.0278 H   0  0  0  0  0  0
  -26.7210  -32.5380   23.1056 H   0  0  0  0  0  0
  -25.0093  -33.9664   25.0395 H   0  0  0  0  0  0
  -22.7311  -31.2968   21.3852 H   0  0  0  0  0  0
  -23.3746  -35.9612   23.3292 H   0  0  0  0  0  0
  -24.3569  -36.8903   22.2056 H   0  0  0  0  0  0
  -23.7226  -37.6479   23.6664 H   0  0  0  0  0  0
  -26.1148  -31.5084   20.6010 H   0  0  0  0  0  0
  -26.8576  -30.8100   22.0092 H   0  0  0  0  0  0
  -28.1332  -28.9114   21.2020 H   0  0  0  0  0  0
  -25.9807  -25.8610   19.0466 H   0  0  0  0  0  0
  -23.9816  -27.2800   19.0131 H   0  0  0  0  0  0
  -23.7883  -30.5699   19.3959 H   0  0  0  0  0  0
  -22.7735  -29.2352   19.8491 H   0  0  0  0  0  0
  -25.1299  -36.1917   25.0826 H   0  0  0  0  0  0
  -21.0002  -28.3276   24.1376 H   0  0  0  0  0  0
  -20.5661  -26.2353   23.3637 H   0  0  0  0  0  0
  -21.6645  -26.7411   22.1206 H   0  0  0  0  0  0
  -19.6900  -25.6269   21.1278 H   0  0  0  0  0  0
  -19.6655  -27.3155   20.6733 H   0  0  0  0  0  0
  -17.4201  -26.6675   21.4050 H   0  0  0  0  0  0
  -18.0349  -26.0066   22.9050 H   0  0  0  0  0  0
  -19.7963  -30.7280   24.2250 H   0  0  0  0  0  0
  -17.5036  -31.6255   24.5200 H   0  0  0  0  0  0
  -15.5374  -30.2990   23.7651 H   0  0  0  0  0  0
  -15.8686  -28.0824   22.7072 H   0  0  0  0  0  0
  -24.5898  -30.7083   25.7767 H   0  0  0  0  0  0
  -24.8905  -32.2920   26.4836 H   0  0  0  0  0  0
  -25.8028  -30.8943   27.0226 H   0  0  0  0  0  0
  -26.2946  -29.6735   24.1234 H   0  0  0  0  0  0
  -27.4001  -29.7269   25.4768 H   0  0  0  0  0  0
  -27.8837  -30.4258   23.9498 H   0  0  0  0  0  0
  -27.2635  -33.3651   26.2039 H   0  0  0  0  0  0
  -28.3859  -32.6887   25.0319 H   0  0  0  0  0  0
  -28.0700  -31.8487   26.5425 H   0  0  0  0  0  0
  -28.2612  -38.0092   24.7525 H   0  0  0  0  0  0
  -28.1064  -36.2629   24.6289 H   0  0  0  0  0  0
  -27.2305  -37.1458   25.8872 H   0  0  0  0  0  0
  -20.9411  -29.8802   21.6874 H   0  0  0  0  0  0
  -26.0159  -38.2844   24.1412 H   0  0  0  0  0  0
  -28.5244  -24.9966   21.7613 H   0  0  0  0  0  0
  -27.0676  -24.7669   20.8844 H   0  0  0  0  0  0
  -29.0488  -22.1647   21.8125 H   0  0  0  0  0  0
  -28.3525  -23.4392   19.0806 H   0  0  0  0  0  0
  -26.6284  -22.6714   21.7728 H   0  0  0  0  0  0
  -31.5365  -18.0846   24.2304 H   0  0  0  0  0  0
  -31.1816  -19.7566   24.1726 H   0  0  0  0  0  0
  -28.8112  -15.7212   20.3858 H   0  0  0  0  0  0
  -28.6044  -20.6183   19.3110 H   0  0  0  0  0  0
  -30.4657  -22.7561   19.8738 H   0  0  0  0  0  0
  1 25  1  0  0  0
  1 30  2  0  0  0
  1 82  1  0  0  0
  2  3  1  0  0  0
  2 25  1  0  0  0
  2 87  1  0  0  0
  2 88  1  0  0  0
  3  4  1  0  0  0
  3 89  1  0  0  0
  3 90  1  0  0  0
  4  5  1  0  0  0
  4 91  1  0  0  0
  4 92  1  0  0  0
  5  6  1  0  0  0
  5 26  1  0  0  0
  5 93  1  0  0  0
  6 25  1  0  0  0
  6 94  1  0  0  0
  6 95  1  0  0  0
  7  8  2  0  0  0
  7 26  1  0  0  0
  7 29  1  0  0  0
  8  9  1  0  0  0
  8 22  1  0  0  0
  9 10  1  0  0  0
  9 27  2  0  0  0
 10 11  2  0  0  0
 10 15  1  0  0  0
 11 12  1  0  0  0
 11 96  1  0  0  0
 12 13  2  0  0  0
 12 97  1  0  0  0
 13 14  1  0  0  0
 13 31  1  0  0  0
 14 15  2  0  0  0
 14 98  1  0  0  0
 15 99  1  0  0  0
 16 17  2  0  0  0
 16 21  1  0  0  0
 16 31  1  0  0  0
 17 18  1  0  0  0
 17100  1  0  0  0
 18 19  2  0  0  0
 18101  1  0  0  0
 19 20  1  0  0  0
 19 24  1  0  0  0
 20 21  2  0  0  0
 20102  1  0  0  0
 21 23  1  0  0  0
 22 28  1  0  0  0
 22 32  2  0  0  0
 26 27  1  0  0  0
 28103  1  0  0  0
 28104  1  0  0  0
 29105  1  0  0  0
 29106  1  0  0  0
 33 34  1  0  0  0
 33 66  1  0  0  0
 33 70  2  0  0  0
 34 36  1  0  0  0
 34 59  1  0  0  0
 34107  1  0  0  0
 35 44  2  0  0  0
 35 45  1  0  0  0
 35 68  1  0  0  0
 36 56  1  0  0  0
 36108  1  0  0  0
 37 39  1  0  0  0
 37 47  1  0  0  0
 37 66  1  0  0  0
 37109  1  0  0  0
 38 43  2  0  0  0
 38 46  1  0  0  0
 38 47  1  0  0  0
 39 64  1  0  0  0
 39 67  2  0  0  0
 40 52  1  0  0  0
 40 53  2  0  0  0
 40 58  1  0  0  0
 41110  1  0  0  0
 41111  1  0  0  0
 41112  1  0  0  0
 41 48  1  0  0  0
 42 43  1  0  0  0
 42 66  1  0  0  0
 42113  1  0  0  0
 42114  1  0  0  0
 43 44  1  0  0  0
 44115  1  0  0  0
 45 46  2  0  0  0
 45116  1  0  0  0
 46117  1  0  0  0
 47118  1  0  0  0
 47119  1  0  0  0
 48 56  1  0  0  0
 48 65  1  0  0  0
 48120  1  0  0  0
 49 50  1  0  0  0
 49 53  1  0  0  0
 49 64  1  0  0  0
 49121  1  0  0  0
 50 51  1  0  0  0
 50122  1  0  0  0
 50123  1  0  0  0
 51 52  1  0  0  0
 51124  1  0  0  0
 51125  1  0  0  0
 52126  1  0  0  0
 52127  1  0  0  0
 53 54  1  0  0  0
 54 55  2  0  0  0
 54128  1  0  0  0
 55 57  1  0  0  0
 55129  1  0  0  0
 56 69  2  0  0  0
 57 58  2  0  0  0
 57130  1  0  0  0
 58131  1  0  0  0
 59 60  1  0  0  0
 59 61  1  0  0  0
 59 62  1  0  0  0
 60132  1  0  0  0
 60133  1  0  0  0
 60134  1  0  0  0
 61135  1  0  0  0
 61136  1  0  0  0
 61137  1  0  0  0
 62138  1  0  0  0
 62139  1  0  0  0
 62140  1  0  0  0
 63 65  1  0  0  0
 63141  1  0  0  0
 63142  1  0  0  0
 63143  1  0  0  0
 64144  1  0  0  0
 65145  1  0  0  0
 68 74  1  0  0  0
 71 78  2  0  0  0
 71 79  1  0  0  0
 71 81  1  0  0  0
 72 78  1  0  0  0
 72 80  2  0  0  0
 72 82  1  0  0  0
 73 79  2  0  0  0
 73 80  1  0  0  0
 73 83  1  0  0  0
 74 76  1  0  0  0
 74146  1  0  0  0
 74147  1  0  0  0
 75 76  1  0  0  0
 75 77  1  0  0  0
 75 83  1  0  0  0
 75148  1  0  0  0
 76 84  1  0  0  0
 76149  1  0  0  0
 77 85  1  0  0  0
 77 86  1  0  0  0
 77150  1  0  0  0
 81151  1  0  0  0
 81152  1  0  0  0
 82153  1  0  0  0
 83154  1  0  0  0
 84155  1  0  0  0
M  ISO  4   1 100  68 101  74 101  82 100
M  END
> <chiral flag>
0

> <version>
0

> <s_m_source_file>
/data/baiqing/PycharmProjects/Reinvent-master-3.2/result/LINK_invent/BTK/process_docking_weight1_custom_product_contain_oxygen_bond_distance_aromatic_linkinvent_7_9_3/rearranged_h_0188.sdf

> <i_m_source_file_index>
68

> <r_mmod_Potential_Energy-OPLS-2005>
-666.279968261719

> <r_mmod_Stretch_Energy-OPLS-2005>
144.99755859375

> <r_mmod_Bend_Energy-OPLS-2005>
185.325576782227

> <r_mmod_Torsional_Energy-OPLS-2005>
290.000549316406

> <r_mmod_Improper_Torsional_Energy-OPLS-2005>
14.734619140625

> <r_mmod_Van_der_Waal_Energy-OPLS-2005>
149.648391723633

> <r_mmod_Electrostatic_Energy-OPLS-2005>
-1288.79650878906

> <r_mmod_Solvation_Energy-OPLS-2005>
-268.212432861328

> <b_mmod_Minimization_Converged-OPLS-2005>
0

> <r_mmod_RMS_Derivative-OPLS-2005>
1.90412437915802

$$$$
69
                    3D
 Structure written by MMmdl.
154162  0  0  1  0            999 V2000
  -30.6118  -14.7984   20.3948 C   0  0  0  0  0  0
  -30.4257  -12.4833   19.4814 C   0  0  0  0  0  0
  -29.5155  -12.5048   18.2371 C   0  0  0  0  0  0
  -28.0402  -12.3274   18.6407 C   0  0  0  0  0  0
  -27.6318  -13.2412   19.8288 C   0  0  2  0  0  0
  -28.6729  -13.2279   20.9676 C   0  0  0  0  0  0
  -25.2469  -13.8225   20.5667 C   0  0  0  0  0  0
  -24.1779  -13.0445   20.9198 C   0  0  0  0  0  0
  -24.6401  -11.6934   20.8739 C   0  0  0  0  0  0
  -23.9083  -10.4307   21.0392 C   0  0  0  0  0  0
  -24.3635   -9.4241   21.9165 C   0  0  0  0  0  0
  -23.6326   -8.2262   22.0739 C   0  0  0  0  0  0
  -22.4319   -8.0290   21.3529 C   0  0  0  0  0  0
  -21.9931   -9.0257   20.4614 C   0  0  0  0  0  0
  -22.7255  -10.2139   20.3035 C   0  0  0  0  0  0
  -21.6851   -6.0749   22.5285 C   0  0  0  0  0  0
  -21.4024   -6.5637   23.8222 C   0  0  0  0  0  0
  -21.3667   -5.6783   24.9170 C   0  0  0  0  0  0
  -21.6051   -4.3042   24.7198 C   0  0  0  0  0  0
  -21.8817   -3.8148   23.4317 C   0  0  0  0  0  0
  -21.9191   -4.6987   22.3395 C   0  0  0  0  0  0
  -22.7798  -13.5221   21.1861 C   0  0  0  0  0  0
  -22.1657   -4.2172   21.0969 F   0  0  0  0  0  0
  -21.5621   -3.4524   25.7706 F   0  0  0  0  0  0
  -29.9713  -13.5734   20.3755 N   0  0  0  0  0  0
  -26.2893  -12.9434   20.3166 N   0  0  0  0  0  0
  -25.9320  -11.6582   20.5694 N   0  0  0  0  0  0
  -22.0419  -12.8238   22.0419 N   0  0  0  0  0  0
  -25.4173  -15.1953   20.4114 N   0  0  0  0  0  0
  -31.8310  -14.8041   20.1901 O   0  0  0  0  0  0
  -21.6643   -6.8912   21.4261 O   0  0  0  0  0  0
  -22.3491  -14.5530   20.6697 O   0  0  0  0  0  0
  -24.6324  -31.8548   23.1951 C   0  0  0  0  0  0
  -25.9139  -32.4765   23.8342 C   0  0  1  0  0  0
  -27.2234  -27.2544   20.1162 C   0  0  0  0  0  0
  -25.5942  -33.8568   24.2273 N   0  0  0  0  0  0
  -23.4330  -30.4730   21.5388 C   0  0  2  0  0  0
  -24.8830  -28.9136   20.1121 C   0  0  0  0  0  0
  -22.7525  -29.4571   22.4891 C   0  0  0  0  0  0
  -18.0295  -28.1375   22.8468 C   0  0  0  0  0  0
  -24.1498  -36.7298   23.2639 C   0  0  0  0  0  0
  -25.9795  -30.7622   21.3768 C   0  0  0  0  0  0
  -26.0545  -29.3807   20.7214 C   0  0  0  0  0  0
  -27.2330  -28.5646   20.7084 C   0  0  0  0  0  0
  -26.0297  -26.8465   19.4920 C   0  0  0  0  0  0
  -24.8764  -27.6576   19.4827 C   0  0  0  0  0  0
  -23.6562  -29.8068   20.1553 C   0  0  0  0  0  0
  -25.4120  -36.3094   24.0329 C   0  0  1  0  0  0
  -20.5907  -28.3696   23.1259 C   0  0  2  0  0  0
  -20.6777  -26.9413   22.5394 C   0  0  0  0  0  0
  -19.5761  -26.6365   21.5193 C   0  0  0  0  0  0
  -18.1940  -26.7907   22.1603 C   0  0  0  0  0  0
  -19.1547  -28.8847   23.2865 C   0  0  0  0  0  0
  -18.9460  -30.1434   23.8891 C   0  0  0  0  0  0
  -17.6457  -30.6566   24.0552 C   0  0  0  0  0  0
  -25.9053  -34.9452   23.5106 C   0  0  0  0  0  0
  -16.5345  -29.9057   23.6322 C   0  0  0  0  0  0
  -16.7277  -28.6476   23.0340 C   0  0  0  0  0  0
  -26.4488  -31.6584   25.0734 C   0  0  0  0  0  0
  -25.3678  -31.3721   26.1438 C   0  0  0  0  0  0
  -27.0312  -30.3004   24.6181 C   0  0  0  0  0  0
  -27.6051  -32.4299   25.7500 C   0  0  0  0  0  0
  -27.5594  -37.1808   24.8453 C   0  0  0  0  0  0
  -21.4223  -29.3050   22.3658 N   0  0  0  0  0  0
  -26.4302  -37.3785   23.9410 N   0  0  0  0  0  0
  -24.7011  -31.0484   22.0940 N   0  0  0  0  0  0
  -23.4223  -28.8107   23.2996 O   0  0  0  0  0  0
  -28.3202  -26.3665   20.0833 O   0  0  0  0  0  0
  -26.5606  -34.8924   22.4671 O   0  0  0  0  0  0
  -23.5471  -32.1358   23.7235 O   0  0  0  0  0  0
  -31.5489  -18.8791   19.2514 C   0  0  0  0  0  0
  -30.1473  -17.3714   20.1312 C   0  0  0  0  0  0
  -29.6423  -19.6607   20.0454 C   0  0  0  0  0  0
  -30.4833  -22.5218   21.1107 C   0  0  0  0  0  0
  -28.1691  -24.9541   20.6073 C   0  0  0  0  0  0
  -29.0324  -22.2586   20.6616 C   0  0  1  0  0  0
  -28.4741  -23.5484   19.8139 C   0  0  1  0  0  0
  -31.3192  -17.6156   19.5458 N   0  0  0  0  0  0
  -30.7942  -19.9380   19.4610 N   0  0  0  0  0  0
  -29.2417  -18.3881   20.3822 N   0  0  0  0  0  0
  -32.7389  -19.1169   18.6357 N   0  0  0  0  0  0
  -29.8512  -15.9799   20.4290 N   0  0  0  0  0  0
  -28.7797  -20.8040   20.2226 N   0  0  0  0  0  0
  -27.3332  -23.1750   19.2292 F   0  0  0  0  0  0
  -31.4694  -12.5972   19.1753 H   0  0  0  0  0  0
  -30.3738  -11.5197   19.9907 H   0  0  0  0  0  0
  -29.8199  -11.7260   17.5356 H   0  0  0  0  0  0
  -29.6455  -13.4523   17.7123 H   0  0  0  0  0  0
  -27.8970  -11.2817   18.9137 H   0  0  0  0  0  0
  -27.3913  -12.5061   17.7835 H   0  0  0  0  0  0
  -27.6074  -14.2537   19.4258 H   0  0  0  0  0  0
  -28.7118  -12.2509   21.4511 H   0  0  0  0  0  0
  -28.3990  -13.9472   21.7418 H   0  0  0  0  0  0
  -25.2781   -9.5702   22.4730 H   0  0  0  0  0  0
  -24.0017   -7.4657   22.7446 H   0  0  0  0  0  0
  -21.0864   -8.8784   19.8913 H   0  0  0  0  0  0
  -22.3736  -10.9676   19.6110 H   0  0  0  0  0  0
  -21.2049   -7.6143   23.9749 H   0  0  0  0  0  0
  -21.1478   -6.0486   25.9081 H   0  0  0  0  0  0
  -22.0601   -2.7611   23.2795 H   0  0  0  0  0  0
  -22.4009  -11.9925   22.4889 H   0  0  0  0  0  0
  -21.1016  -13.1248   22.2534 H   0  0  0  0  0  0
  -24.6531  -15.8508   20.5377 H   0  0  0  0  0  0
  -26.2602  -15.6406   20.0740 H   0  0  0  0  0  0
  -26.7211  -32.5417   23.1098 H   0  0  0  0  0  0
  -25.0154  -33.9713   25.0466 H   0  0  0  0  0  0
  -22.7312  -31.2960   21.3896 H   0  0  0  0  0  0
  -23.3767  -35.9621   23.3270 H   0  0  0  0  0  0
  -24.3597  -36.8941   22.2062 H   0  0  0  0  0  0
  -23.7226  -37.6483   23.6665 H   0  0  0  0  0  0
  -26.1149  -31.5215   20.6054 H   0  0  0  0  0  0
  -26.8581  -30.8197   22.0073 H   0  0  0  0  0  0
  -28.1380  -28.9250   21.1788 H   0  0  0  0  0  0
  -25.9940  -25.8872   18.9955 H   0  0  0  0  0  0
  -23.9858  -27.3008   18.9858 H   0  0  0  0  0  0
  -23.7962  -30.5852   19.4042 H   0  0  0  0  0  0
  -22.7737  -29.2477   19.8403 H   0  0  0  0  0  0
  -25.1299  -36.1951   25.0814 H   0  0  0  0  0  0
  -20.9989  -28.3248   24.1381 H   0  0  0  0  0  0
  -20.5658  -26.2300   23.3591 H   0  0  0  0  0  0
  -21.6644  -26.7409   22.1202 H   0  0  0  0  0  0
  -19.6917  -25.6262   21.1244 H   0  0  0  0  0  0
  -19.6697  -27.3152   20.6709 H   0  0  0  0  0  0
  -17.4207  -26.6657   21.3998 H   0  0  0  0  0  0
  -18.0340  -26.0041   22.8998 H   0  0  0  0  0  0
  -19.7936  -30.7253   24.2271 H   0  0  0  0  0  0
  -17.5002  -31.6246   24.5154 H   0  0  0  0  0  0
  -15.5344  -30.2956   23.7627 H   0  0  0  0  0  0
  -15.8677  -28.0779   22.7065 H   0  0  0  0  0  0
  -24.5881  -30.7046   25.7752 H   0  0  0  0  0  0
  -24.8837  -32.2884   26.4839 H   0  0  0  0  0  0
  -25.7993  -30.8915   27.0239 H   0  0  0  0  0  0
  -26.2875  -29.6759   24.1221 H   0  0  0  0  0  0
  -27.4033  -29.7259   25.4681 H   0  0  0  0  0  0
  -27.8751  -30.4299   23.9392 H   0  0  0  0  0  0
  -27.2692  -33.3625   26.2064 H   0  0  0  0  0  0
  -28.3886  -32.6813   25.0322 H   0  0  0  0  0  0
  -28.0701  -31.8411   26.5431 H   0  0  0  0  0  0
  -28.2576  -38.0142   24.7553 H   0  0  0  0  0  0
  -28.1127  -36.2673   24.6215 H   0  0  0  0  0  0
  -27.2320  -37.1385   25.8856 H   0  0  0  0  0  0
  -20.9397  -29.8844   21.6927 H   0  0  0  0  0  0
  -26.0182  -38.2859   24.1401 H   0  0  0  0  0  0
  -30.5663  -23.4662   21.6504 H   0  0  0  0  0  0
  -31.1727  -22.5758   20.2676 H   0  0  0  0  0  0
  -30.8373  -21.7450   21.7846 H   0  0  0  0  0  0
  -28.8417  -24.9466   21.4639 H   0  0  0  0  0  0
  -27.1822  -24.8560   21.0620 H   0  0  0  0  0  0
  -28.4501  -22.2946   21.5826 H   0  0  0  0  0  0
  -29.1547  -23.7497   18.9850 H   0  0  0  0  0  0
  -33.2468  -18.3198   18.2731 H   0  0  0  0  0  0
  -32.8589  -19.9895   18.1378 H   0  0  0  0  0  0
  -28.8795  -15.8092   20.6139 H   0  0  0  0  0  0
  -27.8555  -20.5173   20.5264 H   0  0  0  0  0  0
  1 25  1  0  0  0
  1 30  2  0  0  0
  1 82  1  0  0  0
  2  3  1  0  0  0
  2 25  1  0  0  0
  2 85  1  0  0  0
  2 86  1  0  0  0
  3  4  1  0  0  0
  3 87  1  0  0  0
  3 88  1  0  0  0
  4  5  1  0  0  0
  4 89  1  0  0  0
  4 90  1  0  0  0
  5  6  1  0  0  0
  5 26  1  0  0  0
  5 91  1  0  0  0
  6 25  1  0  0  0
  6 92  1  0  0  0
  6 93  1  0  0  0
  7  8  2  0  0  0
  7 26  1  0  0  0
  7 29  1  0  0  0
  8  9  1  0  0  0
  8 22  1  0  0  0
  9 10  1  0  0  0
  9 27  2  0  0  0
 10 11  2  0  0  0
 10 15  1  0  0  0
 11 12  1  0  0  0
 11 94  1  0  0  0
 12 13  2  0  0  0
 12 95  1  0  0  0
 13 14  1  0  0  0
 13 31  1  0  0  0
 14 15  2  0  0  0
 14 96  1  0  0  0
 15 97  1  0  0  0
 16 17  2  0  0  0
 16 21  1  0  0  0
 16 31  1  0  0  0
 17 18  1  0  0  0
 17 98  1  0  0  0
 18 19  2  0  0  0
 18 99  1  0  0  0
 19 20  1  0  0  0
 19 24  1  0  0  0
 20 21  2  0  0  0
 20100  1  0  0  0
 21 23  1  0  0  0
 22 28  1  0  0  0
 22 32  2  0  0  0
 26 27  1  0  0  0
 28101  1  0  0  0
 28102  1  0  0  0
 29103  1  0  0  0
 29104  1  0  0  0
 33 34  1  0  0  0
 33 66  1  0  0  0
 33 70  2  0  0  0
 34 36  1  0  0  0
 34 59  1  0  0  0
 34105  1  0  0  0
 35 44  2  0  0  0
 35 45  1  0  0  0
 35 68  1  0  0  0
 36 56  1  0  0  0
 36106  1  0  0  0
 37 39  1  0  0  0
 37 47  1  0  0  0
 37 66  1  0  0  0
 37107  1  0  0  0
 38 43  2  0  0  0
 38 46  1  0  0  0
 38 47  1  0  0  0
 39 64  1  0  0  0
 39 67  2  0  0  0
 40 52  1  0  0  0
 40 53  2  0  0  0
 40 58  1  0  0  0
 41108  1  0  0  0
 41109  1  0  0  0
 41110  1  0  0  0
 41 48  1  0  0  0
 42 43  1  0  0  0
 42 66  1  0  0  0
 42111  1  0  0  0
 42112  1  0  0  0
 43 44  1  0  0  0
 44113  1  0  0  0
 45 46  2  0  0  0
 45114  1  0  0  0
 46115  1  0  0  0
 47116  1  0  0  0
 47117  1  0  0  0
 48 56  1  0  0  0
 48 65  1  0  0  0
 48118  1  0  0  0
 49 50  1  0  0  0
 49 53  1  0  0  0
 49 64  1  0  0  0
 49119  1  0  0  0
 50 51  1  0  0  0
 50120  1  0  0  0
 50121  1  0  0  0
 51 52  1  0  0  0
 51122  1  0  0  0
 51123  1  0  0  0
 52124  1  0  0  0
 52125  1  0  0  0
 53 54  1  0  0  0
 54 55  2  0  0  0
 54126  1  0  0  0
 55 57  1  0  0  0
 55127  1  0  0  0
 56 69  2  0  0  0
 57 58  2  0  0  0
 57128  1  0  0  0
 58129  1  0  0  0
 59 60  1  0  0  0
 59 61  1  0  0  0
 59 62  1  0  0  0
 60130  1  0  0  0
 60131  1  0  0  0
 60132  1  0  0  0
 61133  1  0  0  0
 61134  1  0  0  0
 61135  1  0  0  0
 62136  1  0  0  0
 62137  1  0  0  0
 62138  1  0  0  0
 63 65  1  0  0  0
 63139  1  0  0  0
 63140  1  0  0  0
 63141  1  0  0  0
 64142  1  0  0  0
 65143  1  0  0  0
 68 75  1  0  0  0
 71 78  2  0  0  0
 71 79  1  0  0  0
 71 81  1  0  0  0
 72 78  1  0  0  0
 72 80  2  0  0  0
 72 82  1  0  0  0
 73 79  2  0  0  0
 73 80  1  0  0  0
 73 83  1  0  0  0
 74144  1  0  0  0
 74145  1  0  0  0
 74146  1  0  0  0
 74 76  1  0  0  0
 75 77  1  0  0  0
 75147  1  0  0  0
 75148  1  0  0  0
 76 77  1  0  0  0
 76 83  1  0  0  0
 76149  1  0  0  0
 77 84  1  0  0  0
 77150  1  0  0  0
 81151  1  0  0  0
 81152  1  0  0  0
 82153  1  0  0  0
 83154  1  0  0  0
M  ISO  4   1 100  68 101  75 101  82 100
M  END
> <chiral flag>
0

> <version>
0

> <s_m_source_file>
/data/baiqing/PycharmProjects/Reinvent-master-3.2/result/LINK_invent/BTK/process_docking_weight1_custom_product_contain_oxygen_bond_distance_aromatic_linkinvent_7_9_3/rearranged_h_0188.sdf

> <i_m_source_file_index>
69

> <r_mmod_Potential_Energy-OPLS-2005>
-557.637023925781

> <r_mmod_Stretch_Energy-OPLS-2005>
147.144683837891

> <r_mmod_Bend_Energy-OPLS-2005>
209.050811767578

> <r_mmod_Torsional_Energy-OPLS-2005>
243.982635498047

> <r_mmod_Improper_Torsional_Energy-OPLS-2005>
9.56214237213135

> <r_mmod_Van_der_Waal_Energy-OPLS-2005>
154.462890625

> <r_mmod_Electrostatic_Energy-OPLS-2005>
-1171.70031738281

> <r_mmod_Solvation_Energy-OPLS-2005>
-252.069412231445

> <b_mmod_Minimization_Converged-OPLS-2005>
0

> <r_mmod_RMS_Derivative-OPLS-2005>
5.15933752059937

$$$$
70
                    3D
 Structure written by MMmdl.
150158  0  0  1  0            999 V2000
  -30.6051  -14.7908   20.4566 C   0  0  0  0  0  0
  -30.4270  -12.4916   19.4674 C   0  0  0  0  0  0
  -29.5030  -12.5191   18.2306 C   0  0  0  0  0  0
  -28.0318  -12.3367   18.6481 C   0  0  0  0  0  0
  -27.6351  -13.2407   19.8453 C   0  0  2  0  0  0
  -28.6824  -13.1997   20.9785 C   0  0  0  0  0  0
  -25.2469  -13.8213   20.5720 C   0  0  0  0  0  0
  -24.1780  -13.0440   20.9231 C   0  0  0  0  0  0
  -24.6385  -11.6924   20.8746 C   0  0  0  0  0  0
  -23.9061  -10.4294   21.0398 C   0  0  0  0  0  0
  -24.3623   -9.4209   21.9173 C   0  0  0  0  0  0
  -23.6295   -8.2243   22.0748 C   0  0  0  0  0  0
  -22.4277   -8.0279   21.3539 C   0  0  0  0  0  0
  -21.9909   -9.0249   20.4643 C   0  0  0  0  0  0
  -22.7234  -10.2127   20.3044 C   0  0  0  0  0  0
  -21.6856   -6.0727   22.5275 C   0  0  0  0  0  0
  -21.4013   -6.5633   23.8203 C   0  0  0  0  0  0
  -21.3661   -5.6795   24.9172 C   0  0  0  0  0  0
  -21.6044   -4.3053   24.7231 C   0  0  0  0  0  0
  -21.8819   -3.8138   23.4351 C   0  0  0  0  0  0
  -21.9191   -4.6954   22.3403 C   0  0  0  0  0  0
  -22.7800  -13.5205   21.1890 C   0  0  0  0  0  0
  -22.1665   -4.2136   21.0980 F   0  0  0  0  0  0
  -21.5628   -3.4540   25.7741 F   0  0  0  0  0  0
  -29.9741  -13.5646   20.3849 N   0  0  0  0  0  0
  -26.2915  -12.9444   20.3290 N   0  0  0  0  0  0
  -25.9324  -11.6572   20.5750 N   0  0  0  0  0  0
  -22.0463  -12.8174   22.0442 N   0  0  0  0  0  0
  -25.4097  -15.1947   20.4142 N   0  0  0  0  0  0
  -31.8054  -14.8651   20.1804 O   0  0  0  0  0  0
  -21.6650   -6.8869   21.4233 O   0  0  0  0  0  0
  -22.3468  -14.5511   20.6746 O   0  0  0  0  0  0
  -24.6359  -31.8518   23.1944 C   0  0  0  0  0  0
  -25.9179  -32.4735   23.8302 C   0  0  1  0  0  0
  -27.2268  -27.2390   20.1504 C   0  0  0  0  0  0
  -25.5972  -33.8529   24.2249 N   0  0  0  0  0  0
  -23.4334  -30.4718   21.5380 C   0  0  2  0  0  0
  -24.8808  -28.9036   20.1177 C   0  0  0  0  0  0
  -22.7533  -29.4585   22.4899 C   0  0  0  0  0  0
  -18.0291  -28.1384   22.8483 C   0  0  0  0  0  0
  -24.1475  -36.7256   23.2638 C   0  0  0  0  0  0
  -25.9782  -30.7588   21.3732 C   0  0  0  0  0  0
  -26.0534  -29.3754   20.7231 C   0  0  0  0  0  0
  -27.2309  -28.5595   20.7204 C   0  0  0  0  0  0
  -26.0341  -26.8301   19.5210 C   0  0  0  0  0  0
  -24.8762  -27.6381   19.5066 C   0  0  0  0  0  0
  -23.6548  -29.7981   20.1574 C   0  0  0  0  0  0
  -25.4112  -36.3058   24.0328 C   0  0  1  0  0  0
  -20.5903  -28.3698   23.1259 C   0  0  2  0  0  0
  -20.6780  -26.9409   22.5404 C   0  0  0  0  0  0
  -19.5750  -26.6380   21.5213 C   0  0  0  0  0  0
  -18.1931  -26.7930   22.1618 C   0  0  0  0  0  0
  -19.1551  -28.8862   23.2856 C   0  0  0  0  0  0
  -18.9469  -30.1467   23.8858 C   0  0  0  0  0  0
  -17.6470  -30.6576   24.0568 C   0  0  0  0  0  0
  -25.9059  -34.9429   23.5092 C   0  0  0  0  0  0
  -16.5368  -29.9067   23.6343 C   0  0  0  0  0  0
  -16.7279  -28.6491   23.0355 C   0  0  0  0  0  0
  -26.4529  -31.6562   25.0699 C   0  0  0  0  0  0
  -25.3736  -31.3728   26.1420 C   0  0  0  0  0  0
  -27.0402  -30.2975   24.6207 C   0  0  0  0  0  0
  -27.6081  -32.4307   25.7468 C   0  0  0  0  0  0
  -27.5564  -37.1784   24.8471 C   0  0  0  0  0  0
  -21.4231  -29.3032   22.3645 N   0  0  0  0  0  0
  -26.4270  -37.3778   23.9426 N   0  0  0  0  0  0
  -24.7014  -31.0477   22.0913 N   0  0  0  0  0  0
  -23.4217  -28.8142   23.3029 O   0  0  0  0  0  0
  -28.3353  -26.3573   20.1346 O   0  0  0  0  0  0
  -26.5613  -34.8912   22.4648 O   0  0  0  0  0  0
  -23.5505  -32.1336   23.7228 O   0  0  0  0  0  0
  -28.6010  -18.7271   19.2751 C   0  0  0  0  0  0
  -29.5086  -18.6830   20.3072 C   0  0  0  0  0  0
  -28.9718  -21.0439   20.2042 C   0  0  0  0  0  0
  -28.4524  -23.6338   20.0240 C   0  0  0  0  0  0
  -27.2387  -24.9026   21.9163 C   0  0  0  0  0  0
  -30.3223  -17.4032   20.8084 C   0  0  0  0  0  0
  -28.3493  -25.0180   20.8547 C   0  0  2  0  0  0
  -29.6780  -20.0323   20.8246 N   0  0  0  0  0  0
  -28.9651  -22.4764   20.6162 N   0  0  0  0  0  0
  -29.8496  -15.9476   20.6446 N   0  0  0  0  0  0
  -28.0707  -23.6369   18.8506 O   0  0  0  0  0  0
  -27.9983  -20.3516   18.9055 S   0  0  0  0  0  0
  -31.4655  -12.6220   19.1612 H   0  0  0  0  0  0
  -30.3804  -11.5205   19.9615 H   0  0  0  0  0  0
  -29.7913  -11.7393   17.5251 H   0  0  0  0  0  0
  -29.6212  -13.4670   17.7021 H   0  0  0  0  0  0
  -27.8932  -11.2884   18.9133 H   0  0  0  0  0  0
  -27.3713  -12.5248   17.7995 H   0  0  0  0  0  0
  -27.6185  -14.2598   19.4564 H   0  0  0  0  0  0
  -28.7326  -12.2094   21.4337 H   0  0  0  0  0  0
  -28.4126  -13.8925   21.7768 H   0  0  0  0  0  0
  -25.2766   -9.5689   22.4749 H   0  0  0  0  0  0
  -24.0009   -7.4626   22.7457 H   0  0  0  0  0  0
  -21.0847   -8.8758   19.8936 H   0  0  0  0  0  0
  -22.3689  -10.9666   19.6155 H   0  0  0  0  0  0
  -21.2004   -7.6141   23.9704 H   0  0  0  0  0  0
  -21.1486   -6.0526   25.9071 H   0  0  0  0  0  0
  -22.0595   -2.7600   23.2862 H   0  0  0  0  0  0
  -22.4115  -11.9859   22.4850 H   0  0  0  0  0  0
  -21.1064  -13.1148   22.2630 H   0  0  0  0  0  0
  -24.6322  -15.8383   20.5102 H   0  0  0  0  0  0
  -26.2535  -15.6431   20.0842 H   0  0  0  0  0  0
  -26.7239  -32.5376   23.1034 H   0  0  0  0  0  0
  -25.0241  -33.9656   25.0481 H   0  0  0  0  0  0
  -22.7334  -31.2950   21.3856 H   0  0  0  0  0  0
  -23.3758  -35.9567   23.3294 H   0  0  0  0  0  0
  -24.3546  -36.8877   22.2049 H   0  0  0  0  0  0
  -23.7191  -37.6443   23.6653 H   0  0  0  0  0  0
  -26.1233  -31.5158   20.6018 H   0  0  0  0  0  0
  -26.8541  -30.8078   22.0086 H   0  0  0  0  0  0
  -28.1348  -28.9237   21.1865 H   0  0  0  0  0  0
  -25.9962  -25.8552   19.0552 H   0  0  0  0  0  0
  -23.9789  -27.2680   19.0301 H   0  0  0  0  0  0
  -23.7882  -30.5714   19.3999 H   0  0  0  0  0  0
  -22.7727  -29.2336   19.8491 H   0  0  0  0  0  0
  -25.1281  -36.1907   25.0818 H   0  0  0  0  0  0
  -20.9984  -28.3280   24.1389 H   0  0  0  0  0  0
  -20.5696  -26.2300   23.3613 H   0  0  0  0  0  0
  -21.6644  -26.7436   22.1190 H   0  0  0  0  0  0
  -19.6913  -25.6292   21.1242 H   0  0  0  0  0  0
  -19.6692  -27.3190   20.6749 H   0  0  0  0  0  0
  -17.4213  -26.6686   21.4012 H   0  0  0  0  0  0
  -18.0300  -26.0070   22.9004 H   0  0  0  0  0  0
  -19.7955  -30.7304   24.2181 H   0  0  0  0  0  0
  -17.5028  -31.6252   24.5184 H   0  0  0  0  0  0
  -15.5367  -30.2964   23.7678 H   0  0  0  0  0  0
  -15.8679  -28.0812   22.7069 H   0  0  0  0  0  0
  -24.5926  -30.7057   25.7750 H   0  0  0  0  0  0
  -24.8917  -32.2903   26.4816 H   0  0  0  0  0  0
  -25.8042  -30.8936   27.0227 H   0  0  0  0  0  0
  -26.3000  -29.6672   24.1268 H   0  0  0  0  0  0
  -27.4131  -29.7282   25.4735 H   0  0  0  0  0  0
  -27.8839  -30.4238   23.9411 H   0  0  0  0  0  0
  -27.2713  -33.3644   26.1986 H   0  0  0  0  0  0
  -28.3917  -32.6821   25.0302 H   0  0  0  0  0  0
  -28.0715  -31.8469   26.5432 H   0  0  0  0  0  0
  -28.2606  -38.0068   24.7551 H   0  0  0  0  0  0
  -28.1037  -36.2611   24.6259 H   0  0  0  0  0  0
  -27.2282  -37.1380   25.8873 H   0  0  0  0  0  0
  -20.9425  -29.8730   21.6821 H   0  0  0  0  0  0
  -26.0148  -38.2843   24.1476 H   0  0  0  0  0  0
  -28.2689  -17.8927   18.6716 H   0  0  0  0  0  0
  -27.3418  -23.9824   22.4935 H   0  0  0  0  0  0
  -26.2459  -24.8819   21.4667 H   0  0  0  0  0  0
  -27.2774  -25.7310   22.6234 H   0  0  0  0  0  0
  -30.5100  -17.5233   21.8753 H   0  0  0  0  0  0
  -31.3148  -17.4566   20.3586 H   0  0  0  0  0  0
  -29.2887  -25.0549   21.4089 H   0  0  0  0  0  0
  -29.3572  -22.6341   21.5328 H   0  0  0  0  0  0
  -28.8612  -15.8044   20.7814 H   0  0  0  0  0  0
  1 25  1  0  0  0
  1 30  2  0  0  0
  1 80  1  0  0  0
  2  3  1  0  0  0
  2 25  1  0  0  0
  2 83  1  0  0  0
  2 84  1  0  0  0
  3  4  1  0  0  0
  3 85  1  0  0  0
  3 86  1  0  0  0
  4  5  1  0  0  0
  4 87  1  0  0  0
  4 88  1  0  0  0
  5  6  1  0  0  0
  5 26  1  0  0  0
  5 89  1  0  0  0
  6 25  1  0  0  0
  6 90  1  0  0  0
  6 91  1  0  0  0
  7  8  2  0  0  0
  7 26  1  0  0  0
  7 29  1  0  0  0
  8  9  1  0  0  0
  8 22  1  0  0  0
  9 10  1  0  0  0
  9 27  2  0  0  0
 10 11  2  0  0  0
 10 15  1  0  0  0
 11 12  1  0  0  0
 11 92  1  0  0  0
 12 13  2  0  0  0
 12 93  1  0  0  0
 13 14  1  0  0  0
 13 31  1  0  0  0
 14 15  2  0  0  0
 14 94  1  0  0  0
 15 95  1  0  0  0
 16 17  2  0  0  0
 16 21  1  0  0  0
 16 31  1  0  0  0
 17 18  1  0  0  0
 17 96  1  0  0  0
 18 19  2  0  0  0
 18 97  1  0  0  0
 19 20  1  0  0  0
 19 24  1  0  0  0
 20 21  2  0  0  0
 20 98  1  0  0  0
 21 23  1  0  0  0
 22 28  1  0  0  0
 22 32  2  0  0  0
 26 27  1  0  0  0
 28 99  1  0  0  0
 28100  1  0  0  0
 29101  1  0  0  0
 29102  1  0  0  0
 33 34  1  0  0  0
 33 66  1  0  0  0
 33 70  2  0  0  0
 34 36  1  0  0  0
 34 59  1  0  0  0
 34103  1  0  0  0
 35 44  2  0  0  0
 35 45  1  0  0  0
 35 68  1  0  0  0
 36 56  1  0  0  0
 36104  1  0  0  0
 37 39  1  0  0  0
 37 47  1  0  0  0
 37 66  1  0  0  0
 37105  1  0  0  0
 38 43  2  0  0  0
 38 46  1  0  0  0
 38 47  1  0  0  0
 39 64  1  0  0  0
 39 67  2  0  0  0
 40 52  1  0  0  0
 40 53  2  0  0  0
 40 58  1  0  0  0
 41106  1  0  0  0
 41107  1  0  0  0
 41108  1  0  0  0
 41 48  1  0  0  0
 42 43  1  0  0  0
 42 66  1  0  0  0
 42109  1  0  0  0
 42110  1  0  0  0
 43 44  1  0  0  0
 44111  1  0  0  0
 45 46  2  0  0  0
 45112  1  0  0  0
 46113  1  0  0  0
 47114  1  0  0  0
 47115  1  0  0  0
 48 56  1  0  0  0
 48 65  1  0  0  0
 48116  1  0  0  0
 49 50  1  0  0  0
 49 53  1  0  0  0
 49 64  1  0  0  0
 49117  1  0  0  0
 50 51  1  0  0  0
 50118  1  0  0  0
 50119  1  0  0  0
 51 52  1  0  0  0
 51120  1  0  0  0
 51121  1  0  0  0
 52122  1  0  0  0
 52123  1  0  0  0
 53 54  1  0  0  0
 54 55  2  0  0  0
 54124  1  0  0  0
 55 57  1  0  0  0
 55125  1  0  0  0
 56 69  2  0  0  0
 57 58  2  0  0  0
 57126  1  0  0  0
 58127  1  0  0  0
 59 60  1  0  0  0
 59 61  1  0  0  0
 59 62  1  0  0  0
 60128  1  0  0  0
 60129  1  0  0  0
 60130  1  0  0  0
 61131  1  0  0  0
 61132  1  0  0  0
 61133  1  0  0  0
 62134  1  0  0  0
 62135  1  0  0  0
 62136  1  0  0  0
 63 65  1  0  0  0
 63137  1  0  0  0
 63138  1  0  0  0
 63139  1  0  0  0
 64140  1  0  0  0
 65141  1  0  0  0
 68 77  1  0  0  0
 71 72  2  0  0  0
 71 82  1  0  0  0
 71142  1  0  0  0
 72 76  1  0  0  0
 72 78  1  0  0  0
 73 78  2  0  0  0
 73 79  1  0  0  0
 73 82  1  0  0  0
 74 77  1  0  0  0
 74 79  1  0  0  0
 74 81  2  0  0  0
 75143  1  0  0  0
 75144  1  0  0  0
 75145  1  0  0  0
 75 77  1  0  0  0
 76 80  1  0  0  0
 76146  1  0  0  0
 76147  1  0  0  0
 77148  1  0  0  0
 79149  1  0  0  0
 80150  1  0  0  0
M  ISO  4   1 100  68 101  77 101  80 100
M  END
> <chiral flag>
0

> <version>
0

> <s_m_source_file>
/data/baiqing/PycharmProjects/Reinvent-master-3.2/result/LINK_invent/BTK/process_docking_weight1_custom_product_contain_oxygen_bond_distance_aromatic_linkinvent_7_9_3/rearranged_h_0188.sdf

> <i_m_source_file_index>
70

> <r_mmod_Potential_Energy-OPLS-2005>
-11.4225645065308

> <r_mmod_Stretch_Energy-OPLS-2005>
136.038696289062

> <r_mmod_Bend_Energy-OPLS-2005>
183.537933349609

> <r_mmod_Torsional_Energy-OPLS-2005>
231.875244140625

> <r_mmod_Improper_Torsional_Energy-OPLS-2005>
4.48356628417969

> <r_mmod_Van_der_Waal_Energy-OPLS-2005>
109.373924255371

> <r_mmod_Electrostatic_Energy-OPLS-2005>
-529.539611816406

> <r_mmod_Solvation_Energy-OPLS-2005>
-247.83740234375

> <b_mmod_Minimization_Converged-OPLS-2005>
0

> <r_mmod_RMS_Derivative-OPLS-2005>
2.33405089378357

$$$$
71
                    3D
 Structure written by MMmdl.
158166  0  0  1  0            999 V2000
  -30.6513  -14.5416   20.5293 C   0  0  0  0  0  0
  -30.4365  -12.3340   19.4327 C   0  0  0  0  0  0
  -29.5050  -12.4976   18.2117 C   0  0  0  0  0  0
  -28.0236  -12.3426   18.6190 C   0  0  0  0  0  0
  -27.6564  -13.1942   19.8618 C   0  0  2  0  0  0
  -28.7010  -12.9932   20.9846 C   0  0  0  0  0  0
  -25.2590  -13.8131   20.5642 C   0  0  0  0  0  0
  -24.1843  -13.0433   20.9178 C   0  0  0  0  0  0
  -24.6373  -11.6892   20.8730 C   0  0  0  0  0  0
  -23.9029  -10.4291   21.0399 C   0  0  0  0  0  0
  -24.3594   -9.4215   21.9173 C   0  0  0  0  0  0
  -23.6278   -8.2249   22.0751 C   0  0  0  0  0  0
  -22.4262   -8.0275   21.3543 C   0  0  0  0  0  0
  -21.9885   -9.0244   20.4646 C   0  0  0  0  0  0
  -22.7202  -10.2128   20.3048 C   0  0  0  0  0  0
  -21.6847   -6.0727   22.5280 C   0  0  0  0  0  0
  -21.4012   -6.5632   23.8215 C   0  0  0  0  0  0
  -21.3665   -5.6790   24.9180 C   0  0  0  0  0  0
  -21.6043   -4.3053   24.7231 C   0  0  0  0  0  0
  -21.8821   -3.8137   23.4356 C   0  0  0  0  0  0
  -21.9197   -4.6953   22.3407 C   0  0  0  0  0  0
  -22.7872  -13.5245   21.1850 C   0  0  0  0  0  0
  -22.1659   -4.2137   21.0981 F   0  0  0  0  0  0
  -21.5639   -3.4533   25.7745 F   0  0  0  0  0  0
  -30.0243  -13.3306   20.4340 N   0  0  0  0  0  0
  -26.2991  -12.9261   20.3287 N   0  0  0  0  0  0
  -25.9287  -11.6441   20.5734 N   0  0  0  0  0  0
  -22.0513  -12.8254   22.0417 N   0  0  0  0  0  0
  -25.4311  -15.1842   20.4001 N   0  0  0  0  0  0
  -31.8156  -14.6981   20.1472 O   0  0  0  0  0  0
  -21.6638   -6.8864   21.4240 O   0  0  0  0  0  0
  -22.3557  -14.5550   20.6699 O   0  0  0  0  0  0
  -24.6196  -31.8653   23.2089 C   0  0  0  0  0  0
  -25.9085  -32.4806   23.8384 C   0  0  1  0  0  0
  -27.2304  -27.3985   20.0845 C   0  0  0  0  0  0
  -25.5939  -33.8604   24.2336 N   0  0  0  0  0  0
  -23.4060  -30.4931   21.5503 C   0  0  2  0  0  0
  -24.8483  -28.9541   20.1170 C   0  0  0  0  0  0
  -22.7418  -29.4673   22.4973 C   0  0  0  0  0  0
  -18.0303  -28.1353   22.8482 C   0  0  0  0  0  0
  -24.1496  -36.7297   23.2635 C   0  0  0  0  0  0
  -25.9402  -30.8189   21.3688 C   0  0  0  0  0  0
  -26.0121  -29.4514   20.7122 C   0  0  0  0  0  0
  -27.2007  -28.6813   20.6933 C   0  0  0  0  0  0
  -26.0342  -26.9211   19.4952 C   0  0  0  0  0  0
  -24.8560  -27.6891   19.5094 C   0  0  0  0  0  0
  -23.6147  -29.8283   20.1649 C   0  0  0  0  0  0
  -25.4114  -36.3102   24.0342 C   0  0  1  0  0  0
  -20.5891  -28.3678   23.1321 C   0  0  2  0  0  0
  -20.6809  -26.9401   22.5446 C   0  0  0  0  0  0
  -19.5822  -26.6397   21.5199 C   0  0  0  0  0  0
  -18.1980  -26.7921   22.1580 C   0  0  0  0  0  0
  -19.1541  -28.8826   23.2906 C   0  0  0  0  0  0
  -18.9459  -30.1423   23.8923 C   0  0  0  0  0  0
  -17.6456  -30.6561   24.0550 C   0  0  0  0  0  0
  -25.9041  -34.9466   23.5129 C   0  0  0  0  0  0
  -16.5355  -29.9053   23.6298 C   0  0  0  0  0  0
  -16.7283  -28.6461   23.0339 C   0  0  0  0  0  0
  -26.4505  -31.6583   25.0712 C   0  0  0  0  0  0
  -25.3768  -31.3685   26.1455 C   0  0  0  0  0  0
  -27.0348  -30.3028   24.6108 C   0  0  0  0  0  0
  -27.6087  -32.4292   25.7469 C   0  0  0  0  0  0
  -27.5590  -37.1806   24.8471 C   0  0  0  0  0  0
  -21.4144  -29.3061   22.3719 N   0  0  0  0  0  0
  -26.4302  -37.3783   23.9410 N   0  0  0  0  0  0
  -24.6737  -31.0735   22.1001 N   0  0  0  0  0  0
  -23.4181  -28.8203   23.3009 O   0  0  0  0  0  0
  -28.4262  -26.6908   20.0852 O   0  0  0  0  0  0
  -26.5579  -34.8920   22.4681 O   0  0  0  0  0  0
  -23.5384  -32.1413   23.7469 O   0  0  0  0  0  0
  -29.6060  -19.3835   21.0593 C   0  0  0  0  0  0
  -27.5499  -20.2692   22.0105 C   0  0  0  0  0  0
  -29.3095  -18.0781   21.5522 C   0  0  0  0  0  0
  -28.1372  -17.9132   22.3536 C   0  0  0  0  0  0
  -28.7439  -20.4921   21.2901 C   0  0  0  0  0  0
  -27.2477  -19.0006   22.5351 C   0  0  0  0  0  0
  -30.1980  -16.9334   21.1635 C   0  0  0  0  0  0
  -29.7782  -15.6672   20.9079 C   0  0  0  0  0  0
  -28.2874  -22.8533   20.5705 C   0  0  0  0  0  0
  -27.8285  -16.6074   23.0876 C   0  0  0  0  0  0
  -28.5231  -25.3171   19.6201 C   0  0  0  0  0  0
  -28.8094  -24.3029   20.7680 C   0  0  2  0  0  0
  -26.0581  -18.8409   23.2498 N   0  0  0  0  0  0
  -29.1114  -21.8273   20.8968 N   0  0  0  0  0  0
  -27.1488  -22.6682   20.1284 O   0  0  0  0  0  0
  -30.1208  -24.2735   21.0309 F   0  0  0  0  0  0
  -31.4789  -12.4503   19.1318 H   0  0  0  0  0  0
  -30.3557  -11.3277   19.8460 H   0  0  0  0  0  0
  -29.7602  -11.7654   17.4446 H   0  0  0  0  0  0
  -29.6605  -13.4787   17.7600 H   0  0  0  0  0  0
  -27.8453  -11.2880   18.8295 H   0  0  0  0  0  0
  -27.3752  -12.5983   17.7805 H   0  0  0  0  0  0
  -27.6838  -14.2304   19.5281 H   0  0  0  0  0  0
  -28.6964  -11.9577   21.3282 H   0  0  0  0  0  0
  -28.4588  -13.5818   21.8705 H   0  0  0  0  0  0
  -25.2735   -9.5719   22.4749 H   0  0  0  0  0  0
  -24.0000   -7.4652   22.7479 H   0  0  0  0  0  0
  -21.0811   -8.8749   19.8959 H   0  0  0  0  0  0
  -22.3634  -10.9670   19.6170 H   0  0  0  0  0  0
  -21.1988   -7.6134   23.9717 H   0  0  0  0  0  0
  -21.1486   -6.0513   25.9087 H   0  0  0  0  0  0
  -22.0592   -2.7593   23.2859 H   0  0  0  0  0  0
  -22.4108  -11.9903   22.4805 H   0  0  0  0  0  0
  -21.1150  -13.1317   22.2638 H   0  0  0  0  0  0
  -24.6623  -15.8384   20.4994 H   0  0  0  0  0  0
  -26.2761  -15.6235   20.0585 H   0  0  0  0  0  0
  -26.7145  -32.5501   23.1130 H   0  0  0  0  0  0
  -25.0163  -33.9760   25.0535 H   0  0  0  0  0  0
  -22.6961  -31.3112   21.4141 H   0  0  0  0  0  0
  -23.3756  -35.9630   23.3307 H   0  0  0  0  0  0
  -24.3599  -36.8897   22.2049 H   0  0  0  0  0  0
  -23.7250  -37.6508   23.6636 H   0  0  0  0  0  0
  -26.0643  -31.5879   20.6045 H   0  0  0  0  0  0
  -26.8227  -30.8618   21.9954 H   0  0  0  0  0  0
  -28.1009  -29.0674   21.1511 H   0  0  0  0  0  0
  -25.9569  -25.9623   19.0090 H   0  0  0  0  0  0
  -23.9578  -27.2978   19.0510 H   0  0  0  0  0  0
  -23.7279  -30.6038   19.4060 H   0  0  0  0  0  0
  -22.7358  -29.2540   19.8684 H   0  0  0  0  0  0
  -25.1295  -36.1963   25.0833 H   0  0  0  0  0  0
  -20.9978  -28.3273   24.1436 H   0  0  0  0  0  0
  -20.5700  -26.2279   23.3641 H   0  0  0  0  0  0
  -21.6693  -26.7446   22.1271 H   0  0  0  0  0  0
  -19.7003  -25.6326   21.1211 H   0  0  0  0  0  0
  -19.6813  -27.3232   20.6750 H   0  0  0  0  0  0
  -17.4275  -26.6698   21.3953 H   0  0  0  0  0  0
  -18.0361  -26.0031   22.8934 H   0  0  0  0  0  0
  -19.7935  -30.7228   24.2316 H   0  0  0  0  0  0
  -17.5006  -31.6240   24.5143 H   0  0  0  0  0  0
  -15.5345  -30.2955   23.7596 H   0  0  0  0  0  0
  -15.8684  -28.0768   22.7051 H   0  0  0  0  0  0
  -24.5948  -30.7031   25.7784 H   0  0  0  0  0  0
  -24.8948  -32.2834   26.4909 H   0  0  0  0  0  0
  -25.8117  -30.8849   27.0208 H   0  0  0  0  0  0
  -26.2902  -29.6757   24.1186 H   0  0  0  0  0  0
  -27.4153  -29.7300   25.4576 H   0  0  0  0  0  0
  -27.8727  -30.4356   23.9255 H   0  0  0  0  0  0
  -27.2735  -33.3588   26.2078 H   0  0  0  0  0  0
  -28.3882  -32.6842   25.0278 H   0  0  0  0  0  0
  -28.0765  -31.8381   26.5355 H   0  0  0  0  0  0
  -28.2610  -38.0098   24.7508 H   0  0  0  0  0  0
  -28.1082  -36.2631   24.6307 H   0  0  0  0  0  0
  -27.2307  -37.1473   25.8873 H   0  0  0  0  0  0
  -20.9293  -29.8807   21.6968 H   0  0  0  0  0  0
  -26.0195  -38.2868   24.1380 H   0  0  0  0  0  0
  -30.5090  -19.5316   20.4833 H   0  0  0  0  0  0
  -26.8731  -21.0904   22.2037 H   0  0  0  0  0  0
  -31.2552  -17.1529   21.1010 H   0  0  0  0  0  0
  -28.7168  -15.5117   20.9567 H   0  0  0  0  0  0
  -28.7183  -16.0056   23.2646 H   0  0  0  0  0  0
  -27.0967  -16.0167   22.5370 H   0  0  0  0  0  0
  -27.4224  -16.8026   24.0799 H   0  0  0  0  0  0
  -27.6955  -24.9823   19.0051 H   0  0  0  0  0  0
  -29.3711  -25.2847   18.9352 H   0  0  0  0  0  0
  -28.3264  -24.6640   21.6745 H   0  0  0  0  0  0
  -25.3100  -19.5049   23.0810 H   0  0  0  0  0  0
  -25.7108  -17.8939   23.3621 H   0  0  0  0  0  0
  -30.0796  -22.0912   21.0322 H   0  0  0  0  0  0
  1 25  1  0  0  0
  1 30  2  0  0  0
  1 78  1  0  0  0
  2  3  1  0  0  0
  2 25  1  0  0  0
  2 87  1  0  0  0
  2 88  1  0  0  0
  3  4  1  0  0  0
  3 89  1  0  0  0
  3 90  1  0  0  0
  4  5  1  0  0  0
  4 91  1  0  0  0
  4 92  1  0  0  0
  5  6  1  0  0  0
  5 26  1  0  0  0
  5 93  1  0  0  0
  6 25  1  0  0  0
  6 94  1  0  0  0
  6 95  1  0  0  0
  7  8  2  0  0  0
  7 26  1  0  0  0
  7 29  1  0  0  0
  8  9  1  0  0  0
  8 22  1  0  0  0
  9 10  1  0  0  0
  9 27  2  0  0  0
 10 11  2  0  0  0
 10 15  1  0  0  0
 11 12  1  0  0  0
 11 96  1  0  0  0
 12 13  2  0  0  0
 12 97  1  0  0  0
 13 14  1  0  0  0
 13 31  1  0  0  0
 14 15  2  0  0  0
 14 98  1  0  0  0
 15 99  1  0  0  0
 16 17  2  0  0  0
 16 21  1  0  0  0
 16 31  1  0  0  0
 17 18  1  0  0  0
 17100  1  0  0  0
 18 19  2  0  0  0
 18101  1  0  0  0
 19 20  1  0  0  0
 19 24  1  0  0  0
 20 21  2  0  0  0
 20102  1  0  0  0
 21 23  1  0  0  0
 22 28  1  0  0  0
 22 32  2  0  0  0
 26 27  1  0  0  0
 28103  1  0  0  0
 28104  1  0  0  0
 29105  1  0  0  0
 29106  1  0  0  0
 33 34  1  0  0  0
 33 66  1  0  0  0
 33 70  2  0  0  0
 34 36  1  0  0  0
 34 59  1  0  0  0
 34107  1  0  0  0
 35 44  2  0  0  0
 35 45  1  0  0  0
 35 68  1  0  0  0
 36 56  1  0  0  0
 36108  1  0  0  0
 37 39  1  0  0  0
 37 47  1  0  0  0
 37 66  1  0  0  0
 37109  1  0  0  0
 38 43  2  0  0  0
 38 46  1  0  0  0
 38 47  1  0  0  0
 39 64  1  0  0  0
 39 67  2  0  0  0
 40 52  1  0  0  0
 40 53  2  0  0  0
 40 58  1  0  0  0
 41110  1  0  0  0
 41111  1  0  0  0
 41112  1  0  0  0
 41 48  1  0  0  0
 42 43  1  0  0  0
 42 66  1  0  0  0
 42113  1  0  0  0
 42114  1  0  0  0
 43 44  1  0  0  0
 44115  1  0  0  0
 45 46  2  0  0  0
 45116  1  0  0  0
 46117  1  0  0  0
 47118  1  0  0  0
 47119  1  0  0  0
 48 56  1  0  0  0
 48 65  1  0  0  0
 48120  1  0  0  0
 49 50  1  0  0  0
 49 53  1  0  0  0
 49 64  1  0  0  0
 49121  1  0  0  0
 50 51  1  0  0  0
 50122  1  0  0  0
 50123  1  0  0  0
 51 52  1  0  0  0
 51124  1  0  0  0
 51125  1  0  0  0
 52126  1  0  0  0
 52127  1  0  0  0
 53 54  1  0  0  0
 54 55  2  0  0  0
 54128  1  0  0  0
 55 57  1  0  0  0
 55129  1  0  0  0
 56 69  2  0  0  0
 57 58  2  0  0  0
 57130  1  0  0  0
 58131  1  0  0  0
 59 60  1  0  0  0
 59 61  1  0  0  0
 59 62  1  0  0  0
 60132  1  0  0  0
 60133  1  0  0  0
 60134  1  0  0  0
 61135  1  0  0  0
 61136  1  0  0  0
 61137  1  0  0  0
 62138  1  0  0  0
 62139  1  0  0  0
 62140  1  0  0  0
 63 65  1  0  0  0
 63141  1  0  0  0
 63142  1  0  0  0
 63143  1  0  0  0
 64144  1  0  0  0
 65145  1  0  0  0
 68 81  1  0  0  0
 71 73  2  0  0  0
 71 75  1  0  0  0
 71146  1  0  0  0
 72 75  2  0  0  0
 72 76  1  0  0  0
 72147  1  0  0  0
 73 74  1  0  0  0
 73 77  1  0  0  0
 74 76  2  0  0  0
 74 80  1  0  0  0
 75 84  1  0  0  0
 76 83  1  0  0  0
 77 78  2  0  0  0
 77148  1  0  0  0
 78149  1  0  0  0
 79 82  1  0  0  0
 79 84  1  0  0  0
 79 85  2  0  0  0
 80150  1  0  0  0
 80151  1  0  0  0
 80152  1  0  0  0
 81 82  1  0  0  0
 81153  1  0  0  0
 81154  1  0  0  0
 82 86  1  0  0  0
 82155  1  0  0  0
 83156  1  0  0  0
 83157  1  0  0  0
 84158  1  0  0  0
M  ISO  4   1 100  68 101  78 100  81 101
M  END
> <chiral flag>
0

> <version>
0

> <s_m_source_file>
/data/baiqing/PycharmProjects/Reinvent-master-3.2/result/LINK_invent/BTK/process_docking_weight1_custom_product_contain_oxygen_bond_distance_aromatic_linkinvent_7_9_3/rearranged_h_0188.sdf

> <i_m_source_file_index>
71

> <r_mmod_Potential_Energy-OPLS-2005>
-2.40380525588989

> <r_mmod_Stretch_Energy-OPLS-2005>
50.0234069824219

> <r_mmod_Bend_Energy-OPLS-2005>
117.239807128906

> <r_mmod_Torsional_Energy-OPLS-2005>
217.20686340332

> <r_mmod_Improper_Torsional_Energy-OPLS-2005>
9.1352710723877

> <r_mmod_Van_der_Waal_Energy-OPLS-2005>
170.455505371094

> <r_mmod_Electrostatic_Energy-OPLS-2005>
-373.677215576172

> <r_mmod_Solvation_Energy-OPLS-2005>
-213.796173095703

> <b_mmod_Minimization_Converged-OPLS-2005>
0

> <r_mmod_RMS_Derivative-OPLS-2005>
1.85257875919342

$$$$
72
                    3D
 Structure written by MMmdl.
156164  0  0  1  0            999 V2000
  -30.6871  -14.4761   20.5462 C   0  0  0  0  0  0
  -30.4237  -12.2966   19.4296 C   0  0  0  0  0  0
  -29.4997  -12.5031   18.2105 C   0  0  0  0  0  0
  -28.0175  -12.3754   18.6150 C   0  0  0  0  0  0
  -27.6624  -13.2091   19.8766 C   0  0  2  0  0  0
  -28.7022  -12.9836   20.9970 C   0  0  0  0  0  0
  -25.2586  -13.8177   20.5669 C   0  0  0  0  0  0
  -24.1834  -13.0454   20.9154 C   0  0  0  0  0  0
  -24.6389  -11.6928   20.8731 C   0  0  0  0  0  0
  -23.9051  -10.4318   21.0399 C   0  0  0  0  0  0
  -24.3611   -9.4238   21.9175 C   0  0  0  0  0  0
  -23.6297   -8.2272   22.0749 C   0  0  0  0  0  0
  -22.4274   -8.0294   21.3546 C   0  0  0  0  0  0
  -21.9906   -9.0261   20.4651 C   0  0  0  0  0  0
  -22.7228  -10.2145   20.3054 C   0  0  0  0  0  0
  -21.6857   -6.0740   22.5279 C   0  0  0  0  0  0
  -21.4026   -6.5642   23.8219 C   0  0  0  0  0  0
  -21.3666   -5.6785   24.9178 C   0  0  0  0  0  0
  -21.6037   -4.3044   24.7215 C   0  0  0  0  0  0
  -21.8822   -3.8147   23.4338 C   0  0  0  0  0  0
  -21.9205   -4.6970   22.3400 C   0  0  0  0  0  0
  -22.7856  -13.5255   21.1814 C   0  0  0  0  0  0
  -22.1662   -4.2158   21.0974 F   0  0  0  0  0  0
  -21.5634   -3.4531   25.7726 F   0  0  0  0  0  0
  -30.0363  -13.2834   20.4494 N   0  0  0  0  0  0
  -26.3027  -12.9349   20.3375 N   0  0  0  0  0  0
  -25.9317  -11.6512   20.5767 N   0  0  0  0  0  0
  -22.0478  -12.8282   22.0388 N   0  0  0  0  0  0
  -25.4315  -15.1898   20.4098 N   0  0  0  0  0  0
  -31.8313  -14.6371   20.1049 O   0  0  0  0  0  0
  -21.6649   -6.8880   21.4237 O   0  0  0  0  0  0
  -22.3538  -14.5542   20.6621 O   0  0  0  0  0  0
  -24.6131  -31.8675   23.2100 C   0  0  0  0  0  0
  -25.9020  -32.4816   23.8402 C   0  0  1  0  0  0
  -27.2316  -27.4422   20.1096 C   0  0  0  0  0  0
  -25.5867  -33.8615   24.2342 N   0  0  0  0  0  0
  -23.4003  -30.4904   21.5514 C   0  0  2  0  0  0
  -24.8479  -28.9577   20.1145 C   0  0  0  0  0  0
  -22.7403  -29.4649   22.5009 C   0  0  0  0  0  0
  -18.0257  -28.1391   22.8482 C   0  0  0  0  0  0
  -24.1480  -36.7329   23.2638 C   0  0  0  0  0  0
  -25.9264  -30.8423   21.3557 C   0  0  0  0  0  0
  -26.0066  -29.4762   20.7055 C   0  0  0  0  0  0
  -27.2044  -28.7275   20.6952 C   0  0  0  0  0  0
  -26.0582  -26.9351   19.5089 C   0  0  0  0  0  0
  -24.8681  -27.6870   19.5113 C   0  0  0  0  0  0
  -23.6066  -29.8195   20.1665 C   0  0  0  0  0  0
  -25.4100  -36.3114   24.0341 C   0  0  1  0  0  0
  -20.5851  -28.3664   23.1330 C   0  0  2  0  0  0
  -20.6755  -26.9402   22.5429 C   0  0  0  0  0  0
  -19.5737  -26.6390   21.5220 C   0  0  0  0  0  0
  -18.1910  -26.7936   22.1623 C   0  0  0  0  0  0
  -19.1508  -28.8846   23.2899 C   0  0  0  0  0  0
  -18.9445  -30.1449   23.8904 C   0  0  0  0  0  0
  -17.6450  -30.6589   24.0564 C   0  0  0  0  0  0
  -25.9014  -34.9469   23.5142 C   0  0  0  0  0  0
  -16.5338  -29.9100   23.6322 C   0  0  0  0  0  0
  -16.7250  -28.6523   23.0333 C   0  0  0  0  0  0
  -26.4433  -31.6587   25.0731 C   0  0  0  0  0  0
  -25.3679  -31.3692   26.1465 C   0  0  0  0  0  0
  -27.0276  -30.3035   24.6091 C   0  0  0  0  0  0
  -27.6003  -32.4295   25.7511 C   0  0  0  0  0  0
  -27.5585  -37.1808   24.8450 C   0  0  0  0  0  0
  -21.4133  -29.3020   22.3745 N   0  0  0  0  0  0
  -26.4290  -37.3796   23.9409 N   0  0  0  0  0  0
  -24.6655  -31.0791   22.0988 N   0  0  0  0  0  0
  -23.4177  -28.8189   23.3052 O   0  0  0  0  0  0
  -28.3944  -26.7042   20.1222 O   0  0  0  0  0  0
  -26.5586  -34.8911   22.4707 O   0  0  0  0  0  0
  -23.5328  -32.1427   23.7499 O   0  0  0  0  0  0
  -28.8578  -19.0279   20.9809 C   0  0  0  0  0  0
  -30.8882  -18.7791   19.7190 C   0  0  0  0  0  0
  -29.8630  -19.6240   20.1837 C   0  0  0  0  0  0
  -28.9293  -17.6424   21.2601 C   0  0  0  0  0  0
  -30.0013  -16.8761   20.7489 C   0  0  0  0  0  0
  -29.2530  -22.0801   20.2595 C   0  0  0  0  0  0
  -28.1252  -25.6417   22.2917 C   0  0  0  0  0  0
  -29.6601  -24.6677   20.5012 C   0  0  0  0  0  0
  -29.5887  -23.4259   19.5725 C   0  0  2  0  0  0
  -28.3339  -25.4229   20.7798 C   0  0  1  0  0  0
  -30.9645  -17.4583   19.9912 N   0  0  0  0  0  0
  -29.9000  -20.9993   19.7784 N   0  0  0  0  0  0
  -29.9482  -15.4825   21.0509 N   0  0  0  0  0  0
  -28.4466  -22.0317   21.1920 O   0  0  0  0  0  0
  -27.9595  -17.0439   21.9950 F   0  0  0  0  0  0
  -28.7530  -23.6309   18.5505 F   0  0  0  0  0  0
  -31.4699  -12.3908   19.1294 H   0  0  0  0  0  0
  -30.3147  -11.2845   19.8245 H   0  0  0  0  0  0
  -29.7394  -11.7814   17.4295 H   0  0  0  0  0  0
  -29.6777  -13.4900   17.7798 H   0  0  0  0  0  0
  -27.8154  -11.3199   18.7992 H   0  0  0  0  0  0
  -27.3759  -12.6659   17.7820 H   0  0  0  0  0  0
  -27.7073  -14.2590   19.5861 H   0  0  0  0  0  0
  -28.6739  -11.9472   21.3354 H   0  0  0  0  0  0
  -28.4655  -13.5837   21.8771 H   0  0  0  0  0  0
  -25.2757   -9.5726   22.4742 H   0  0  0  0  0  0
  -24.0020   -7.4669   22.7459 H   0  0  0  0  0  0
  -21.0846   -8.8766   19.8957 H   0  0  0  0  0  0
  -22.3677  -10.9672   19.6162 H   0  0  0  0  0  0
  -21.2009   -7.6148   23.9726 H   0  0  0  0  0  0
  -21.1487   -6.0511   25.9080 H   0  0  0  0  0  0
  -22.0594   -2.7611   23.2830 H   0  0  0  0  0  0
  -22.4062  -11.9959   22.4834 H   0  0  0  0  0  0
  -21.1086  -13.1328   22.2526 H   0  0  0  0  0  0
  -24.6708  -15.8467   20.5421 H   0  0  0  0  0  0
  -26.3030  -15.6439   20.1703 H   0  0  0  0  0  0
  -26.7114  -32.5535   23.1194 H   0  0  0  0  0  0
  -25.0009  -33.9784   25.0481 H   0  0  0  0  0  0
  -22.6871  -31.3066   21.4131 H   0  0  0  0  0  0
  -23.3724  -35.9672   23.3291 H   0  0  0  0  0  0
  -24.3568  -36.8958   22.2054 H   0  0  0  0  0  0
  -23.7244  -37.6538   23.6657 H   0  0  0  0  0  0
  -26.0266  -31.6072   20.5851 H   0  0  0  0  0  0
  -26.8196  -30.9041   21.9659 H   0  0  0  0  0  0
  -28.0999  -29.1234   21.1538 H   0  0  0  0  0  0
  -26.0621  -25.9625   19.0374 H   0  0  0  0  0  0
  -23.9765  -27.2831   19.0504 H   0  0  0  0  0  0
  -23.7062  -30.5915   19.4027 H   0  0  0  0  0  0
  -22.7337  -29.2325   19.8760 H   0  0  0  0  0  0
  -25.1279  -36.1984   25.0836 H   0  0  0  0  0  0
  -20.9924  -28.3216   24.1461 H   0  0  0  0  0  0
  -20.5654  -26.2261   23.3605 H   0  0  0  0  0  0
  -21.6625  -26.7450   22.1218 H   0  0  0  0  0  0
  -19.6880  -25.6302   21.1241 H   0  0  0  0  0  0
  -19.6687  -27.3207   20.6757 H   0  0  0  0  0  0
  -17.4187  -26.6675   21.4020 H   0  0  0  0  0  0
  -18.0294  -26.0088   22.9028 H   0  0  0  0  0  0
  -19.7922  -30.7254   24.2275 H   0  0  0  0  0  0
  -17.5015  -31.6263   24.5176 H   0  0  0  0  0  0
  -15.5344  -30.3011   23.7657 H   0  0  0  0  0  0
  -15.8645  -28.0859   22.7046 H   0  0  0  0  0  0
  -24.5775  -30.7156   25.7767 H   0  0  0  0  0  0
  -24.8957  -32.2866   26.4987 H   0  0  0  0  0  0
  -25.7967  -30.8748   27.0185 H   0  0  0  0  0  0
  -26.2813  -29.6771   24.1188 H   0  0  0  0  0  0
  -27.4133  -29.7299   25.4525 H   0  0  0  0  0  0
  -27.8597  -30.4396   23.9185 H   0  0  0  0  0  0
  -27.2600  -33.3572   26.2135 H   0  0  0  0  0  0
  -28.3790  -32.6896   25.0337 H   0  0  0  0  0  0
  -28.0677  -31.8384   26.5398 H   0  0  0  0  0  0
  -28.2585  -38.0124   24.7509 H   0  0  0  0  0  0
  -28.1101  -36.2647   24.6251 H   0  0  0  0  0  0
  -27.2293  -37.1429   25.8850 H   0  0  0  0  0  0
  -20.9297  -29.8732   21.6962 H   0  0  0  0  0  0
  -26.0176  -38.2878   24.1394 H   0  0  0  0  0  0
  -28.0232  -19.5961   21.3588 H   0  0  0  0  0  0
  -31.6772  -19.1751   19.0971 H   0  0  0  0  0  0
  -28.1153  -24.6927   22.8292 H   0  0  0  0  0  0
  -27.1764  -26.1341   22.5035 H   0  0  0  0  0  0
  -28.9204  -26.2583   22.7136 H   0  0  0  0  0  0
  -30.3820  -25.3711   20.0836 H   0  0  0  0  0  0
  -30.1116  -24.3560   21.4436 H   0  0  0  0  0  0
  -30.5716  -23.3163   19.1114 H   0  0  0  0  0  0
  -27.4986  -24.8314   20.4014 H   0  0  0  0  0  0
  -30.5608  -21.2107   19.0414 H   0  0  0  0  0  0
  -29.0927  -15.2027   21.5044 H   0  0  0  0  0  0
  1 25  1  0  0  0
  1 30  2  0  0  0
  1 83  1  0  0  0
  2  3  1  0  0  0
  2 25  1  0  0  0
  2 87  1  0  0  0
  2 88  1  0  0  0
  3  4  1  0  0  0
  3 89  1  0  0  0
  3 90  1  0  0  0
  4  5  1  0  0  0
  4 91  1  0  0  0
  4 92  1  0  0  0
  5  6  1  0  0  0
  5 26  1  0  0  0
  5 93  1  0  0  0
  6 25  1  0  0  0
  6 94  1  0  0  0
  6 95  1  0  0  0
  7  8  2  0  0  0
  7 26  1  0  0  0
  7 29  1  0  0  0
  8  9  1  0  0  0
  8 22  1  0  0  0
  9 10  1  0  0  0
  9 27  2  0  0  0
 10 11  2  0  0  0
 10 15  1  0  0  0
 11 12  1  0  0  0
 11 96  1  0  0  0
 12 13  2  0  0  0
 12 97  1  0  0  0
 13 14  1  0  0  0
 13 31  1  0  0  0
 14 15  2  0  0  0
 14 98  1  0  0  0
 15 99  1  0  0  0
 16 17  2  0  0  0
 16 21  1  0  0  0
 16 31  1  0  0  0
 17 18  1  0  0  0
 17100  1  0  0  0
 18 19  2  0  0  0
 18101  1  0  0  0
 19 20  1  0  0  0
 19 24  1  0  0  0
 20 21  2  0  0  0
 20102  1  0  0  0
 21 23  1  0  0  0
 22 28  1  0  0  0
 22 32  2  0  0  0
 26 27  1  0  0  0
 28103  1  0  0  0
 28104  1  0  0  0
 29105  1  0  0  0
 29106  1  0  0  0
 33 34  1  0  0  0
 33 66  1  0  0  0
 33 70  2  0  0  0
 34 36  1  0  0  0
 34 59  1  0  0  0
 34107  1  0  0  0
 35 44  2  0  0  0
 35 45  1  0  0  0
 35 68  1  0  0  0
 36 56  1  0  0  0
 36108  1  0  0  0
 37 39  1  0  0  0
 37 47  1  0  0  0
 37 66  1  0  0  0
 37109  1  0  0  0
 38 43  2  0  0  0
 38 46  1  0  0  0
 38 47  1  0  0  0
 39 64  1  0  0  0
 39 67  2  0  0  0
 40 52  1  0  0  0
 40 53  2  0  0  0
 40 58  1  0  0  0
 41110  1  0  0  0
 41111  1  0  0  0
 41112  1  0  0  0
 41 48  1  0  0  0
 42 43  1  0  0  0
 42 66  1  0  0  0
 42113  1  0  0  0
 42114  1  0  0  0
 43 44  1  0  0  0
 44115  1  0  0  0
 45 46  2  0  0  0
 45116  1  0  0  0
 46117  1  0  0  0
 47118  1  0  0  0
 47119  1  0  0  0
 48 56  1  0  0  0
 48 65  1  0  0  0
 48120  1  0  0  0
 49 50  1  0  0  0
 49 53  1  0  0  0
 49 64  1  0  0  0
 49121  1  0  0  0
 50 51  1  0  0  0
 50122  1  0  0  0
 50123  1  0  0  0
 51 52  1  0  0  0
 51124  1  0  0  0
 51125  1  0  0  0
 52126  1  0  0  0
 52127  1  0  0  0
 53 54  1  0  0  0
 54 55  2  0  0  0
 54128  1  0  0  0
 55 57  1  0  0  0
 55129  1  0  0  0
 56 69  2  0  0  0
 57 58  2  0  0  0
 57130  1  0  0  0
 58131  1  0  0  0
 59 60  1  0  0  0
 59 61  1  0  0  0
 59 62  1  0  0  0
 60132  1  0  0  0
 60133  1  0  0  0
 60134  1  0  0  0
 61135  1  0  0  0
 61136  1  0  0  0
 61137  1  0  0  0
 62138  1  0  0  0
 62139  1  0  0  0
 62140  1  0  0  0
 63 65  1  0  0  0
 63141  1  0  0  0
 63142  1  0  0  0
 63143  1  0  0  0
 64144  1  0  0  0
 65145  1  0  0  0
 68 80  1  0  0  0
 71 73  2  0  0  0
 71 74  1  0  0  0
 71146  1  0  0  0
 72 73  1  0  0  0
 72 81  2  0  0  0
 72147  1  0  0  0
 73 82  1  0  0  0
 74 75  2  0  0  0
 74 85  1  0  0  0
 75 81  1  0  0  0
 75 83  1  0  0  0
 76 79  1  0  0  0
 76 82  1  0  0  0
 76 84  2  0  0  0
 77148  1  0  0  0
 77149  1  0  0  0
 77150  1  0  0  0
 77 80  1  0  0  0
 78 79  1  0  0  0
 78 80  1  0  0  0
 78151  1  0  0  0
 78152  1  0  0  0
 79 86  1  0  0  0
 79153  1  0  0  0
 80154  1  0  0  0
 82155  1  0  0  0
 83156  1  0  0  0
M  ISO  4   1 100  68 101  80 101  83 100
M  END
> <chiral flag>
0

> <version>
0

> <s_m_source_file>
/data/baiqing/PycharmProjects/Reinvent-master-3.2/result/LINK_invent/BTK/process_docking_weight1_custom_product_contain_oxygen_bond_distance_aromatic_linkinvent_7_9_3/rearranged_h_0188.sdf

> <i_m_source_file_index>
72

> <r_mmod_Potential_Energy-OPLS-2005>
-206.413269042969

> <r_mmod_Stretch_Energy-OPLS-2005>
38.3501853942871

> <r_mmod_Bend_Energy-OPLS-2005>
109.473922729492

> <r_mmod_Torsional_Energy-OPLS-2005>
240.952087402344

> <r_mmod_Improper_Torsional_Energy-OPLS-2005>
3.76416754722595

> <r_mmod_Van_der_Waal_Energy-OPLS-2005>
155.292358398438

> <r_mmod_Electrostatic_Energy-OPLS-2005>
-525.148071289062

> <r_mmod_Solvation_Energy-OPLS-2005>
-242.182495117188

> <b_mmod_Minimization_Converged-OPLS-2005>
0

> <r_mmod_RMS_Derivative-OPLS-2005>
2.34087347984314

$$$$
73
                    3D
 Structure written by MMmdl.
161169  0  0  1  0            999 V2000
  -30.6892  -14.4474   20.5615 C   0  0  0  0  0  0
  -30.4207  -12.2715   19.4192 C   0  0  0  0  0  0
  -29.5030  -12.4860   18.1970 C   0  0  0  0  0  0
  -28.0192  -12.3666   18.6043 C   0  0  0  0  0  0
  -27.6672  -13.1978   19.8701 C   0  0  2  0  0  0
  -28.7051  -12.9475   20.9845 C   0  0  0  0  0  0
  -25.2621  -13.8113   20.5663 C   0  0  0  0  0  0
  -24.1851  -13.0405   20.9170 C   0  0  0  0  0  0
  -24.6411  -11.6864   20.8734 C   0  0  0  0  0  0
  -23.9082  -10.4258   21.0430 C   0  0  0  0  0  0
  -24.3645   -9.4161   21.9192 C   0  0  0  0  0  0
  -23.6275   -8.2228   22.0762 C   0  0  0  0  0  0
  -22.4246   -8.0304   21.3568 C   0  0  0  0  0  0
  -21.9891   -9.0277   20.4666 C   0  0  0  0  0  0
  -22.7263  -10.2128   20.3074 C   0  0  0  0  0  0
  -21.6808   -6.0761   22.5307 C   0  0  0  0  0  0
  -21.3987   -6.5648   23.8257 C   0  0  0  0  0  0
  -21.3656   -5.6786   24.9196 C   0  0  0  0  0  0
  -21.6076   -4.3062   24.7217 C   0  0  0  0  0  0
  -21.8806   -3.8171   23.4320 C   0  0  0  0  0  0
  -21.9157   -4.6992   22.3391 C   0  0  0  0  0  0
  -22.7904  -13.5248   21.1818 C   0  0  0  0  0  0
  -22.1650   -4.2207   21.0955 F   0  0  0  0  0  0
  -21.5607   -3.4526   25.7703 F   0  0  0  0  0  0
  -30.0369  -13.2583   20.4410 N   0  0  0  0  0  0
  -26.3045  -12.9291   20.3316 N   0  0  0  0  0  0
  -25.9337  -11.6455   20.5728 N   0  0  0  0  0  0
  -22.0486  -12.8302   22.0371 N   0  0  0  0  0  0
  -25.4362  -15.1826   20.4148 N   0  0  0  0  0  0
  -31.8105  -14.6445   20.0822 O   0  0  0  0  0  0
  -21.6591   -6.8917   21.4283 O   0  0  0  0  0  0
  -22.3654  -14.5577   20.6631 O   0  0  0  0  0  0
  -24.6200  -31.8620   23.2059 C   0  0  0  0  0  0
  -25.9123  -32.4754   23.8305 C   0  0  1  0  0  0
  -27.1872  -27.3854   20.1092 C   0  0  0  0  0  0
  -25.5981  -33.8557   24.2235 N   0  0  0  0  0  0
  -23.4040  -30.4913   21.5506 C   0  0  2  0  0  0
  -24.8396  -28.9559   20.1066 C   0  0  0  0  0  0
  -22.7435  -29.4632   22.4938 C   0  0  0  0  0  0
  -18.0272  -28.1390   22.8426 C   0  0  0  0  0  0
  -24.1523  -36.7287   23.2622 C   0  0  0  0  0  0
  -25.9395  -30.8115   21.3684 C   0  0  0  0  0  0
  -26.0070  -29.4501   20.7074 C   0  0  0  0  0  0
  -27.1896  -28.6730   20.7022 C   0  0  0  0  0  0
  -26.0095  -26.9139   19.4944 C   0  0  0  0  0  0
  -24.8411  -27.6952   19.4893 C   0  0  0  0  0  0
  -23.6105  -29.8335   20.1618 C   0  0  0  0  0  0
  -25.4132  -36.3023   24.0297 C   0  0  1  0  0  0
  -20.5869  -28.3649   23.1278 C   0  0  2  0  0  0
  -20.6771  -26.9377   22.5377 C   0  0  0  0  0  0
  -19.5777  -26.6378   21.5144 C   0  0  0  0  0  0
  -18.1956  -26.7920   22.1559 C   0  0  0  0  0  0
  -19.1530  -28.8827   23.2853 C   0  0  0  0  0  0
  -18.9455  -30.1436   23.8854 C   0  0  0  0  0  0
  -17.6460  -30.6569   24.0566 C   0  0  0  0  0  0
  -25.9077  -34.9416   23.5036 C   0  0  0  0  0  0
  -16.5352  -29.9061   23.6341 C   0  0  0  0  0  0
  -16.7254  -28.6516   23.0279 C   0  0  0  0  0  0
  -26.4516  -31.6545   25.0647 C   0  0  0  0  0  0
  -25.3803  -31.3748   26.1425 C   0  0  0  0  0  0
  -27.0296  -30.2934   24.6060 C   0  0  0  0  0  0
  -27.6059  -32.4263   25.7470 C   0  0  0  0  0  0
  -27.5572  -37.1800   24.8435 C   0  0  0  0  0  0
  -21.4163  -29.3013   22.3707 N   0  0  0  0  0  0
  -26.4264  -37.3740   23.9394 N   0  0  0  0  0  0
  -24.6735  -31.0688   22.0998 N   0  0  0  0  0  0
  -23.4186  -28.8155   23.2970 O   0  0  0  0  0  0
  -28.2905  -26.5621   20.1175 O   0  0  0  0  0  0
  -26.5608  -34.8881   22.4587 O   0  0  0  0  0  0
  -23.5398  -32.1430   23.7455 O   0  0  0  0  0  0
  -31.1541  -17.5311   20.4598 C   0  0  0  0  0  0
  -30.1187  -16.7870   20.9914 C   0  0  0  0  0  0
  -29.7579  -19.2616   20.9785 C   0  0  0  0  0  0
  -29.1373  -22.9418   21.5539 C   0  0  0  0  0  0
  -28.8666  -22.7965   22.8944 C   0  0  0  0  0  0
  -29.7983  -21.8059   20.8449 C   0  0  0  0  0  0
  -28.6417  -24.0737   25.1360 C   0  0  0  0  0  0
  -29.1654  -26.2281   22.2350 C   0  0  0  0  0  0
  -28.7978  -24.1679   20.6377 C   0  0  0  0  0  0
  -27.9852  -23.6378   23.8132 C   0  0  0  0  0  0
  -28.2886  -25.5589   21.1649 C   0  0  2  0  0  0
  -30.9457  -18.9243   20.4649 N   0  0  0  0  0  0
  -29.9710  -15.4311   21.1355 N   0  0  0  0  0  0
  -29.2891  -20.5963   21.1864 N   0  0  0  0  0  0
  -30.6569  -21.9356   19.9672 O   0  0  0  0  0  0
  -29.3475  -21.8018   23.6682 O   0  0  0  0  0  0
  -28.8351  -17.8583   21.5206 S   0  0  0  0  0  0
  -31.4770  -12.3275   19.1431 H   0  0  0  0  0  0
  -30.2712  -11.2632   19.8108 H   0  0  0  0  0  0
  -29.7320  -11.7537   17.4229 H   0  0  0  0  0  0
  -29.6937  -13.4649   17.7547 H   0  0  0  0  0  0
  -27.8220  -11.3117   18.7928 H   0  0  0  0  0  0
  -27.3734  -12.6521   17.7727 H   0  0  0  0  0  0
  -27.7227  -14.2477   19.5846 H   0  0  0  0  0  0
  -28.6756  -11.8970   21.2758 H   0  0  0  0  0  0
  -28.4768  -13.5067   21.8936 H   0  0  0  0  0  0
  -25.2827   -9.5549   22.4722 H   0  0  0  0  0  0
  -23.9978   -7.4569   22.7432 H   0  0  0  0  0  0
  -21.0827   -8.8823   19.8945 H   0  0  0  0  0  0
  -22.3796  -10.9670   19.6154 H   0  0  0  0  0  0
  -21.2015   -7.6155   23.9785 H   0  0  0  0  0  0
  -21.1490   -6.0500   25.9114 H   0  0  0  0  0  0
  -22.0574   -2.7631   23.2790 H   0  0  0  0  0  0
  -22.4056  -12.0000   22.4854 H   0  0  0  0  0  0
  -21.1110  -13.1392   22.2499 H   0  0  0  0  0  0
  -24.6618  -15.8303   20.5193 H   0  0  0  0  0  0
  -26.2832  -15.6268   20.0841 H   0  0  0  0  0  0
  -26.7188  -32.5444   23.1057 H   0  0  0  0  0  0
  -25.0155  -33.9708   25.0382 H   0  0  0  0  0  0
  -22.6943  -31.3099   21.4185 H   0  0  0  0  0  0
  -23.3733  -35.9668   23.3265 H   0  0  0  0  0  0
  -24.3610  -36.8933   22.2032 H   0  0  0  0  0  0
  -23.7354  -37.6512   23.6680 H   0  0  0  0  0  0
  -26.0745  -31.5778   20.6056 H   0  0  0  0  0  0
  -26.8224  -30.8454   21.9948 H   0  0  0  0  0  0
  -28.0903  -29.0346   21.1749 H   0  0  0  0  0  0
  -25.9913  -25.9379   19.0276 H   0  0  0  0  0  0
  -23.9441  -27.3196   19.0131 H   0  0  0  0  0  0
  -23.7272  -30.6144   19.4087 H   0  0  0  0  0  0
  -22.7281  -29.2652   19.8597 H   0  0  0  0  0  0
  -25.1338  -36.1807   25.0780 H   0  0  0  0  0  0
  -20.9940  -28.3198   24.1401 H   0  0  0  0  0  0
  -20.5588  -26.2238   23.3551 H   0  0  0  0  0  0
  -21.6664  -26.7378   22.1228 H   0  0  0  0  0  0
  -19.6961  -25.6283   21.1183 H   0  0  0  0  0  0
  -19.6767  -27.3162   20.6666 H   0  0  0  0  0  0
  -17.4204  -26.6532   21.4009 H   0  0  0  0  0  0
  -18.0471  -26.0086   22.8996 H   0  0  0  0  0  0
  -19.7931  -30.7288   24.2177 H   0  0  0  0  0  0
  -17.5012  -31.6251   24.5175 H   0  0  0  0  0  0
  -15.5356  -30.2953   23.7740 H   0  0  0  0  0  0
  -15.8645  -28.0902   22.6917 H   0  0  0  0  0  0
  -24.5891  -30.7166   25.7824 H   0  0  0  0  0  0
  -24.9132  -32.2969   26.4893 H   0  0  0  0  0  0
  -25.8169  -30.8904   27.0165 H   0  0  0  0  0  0
  -26.2808  -29.6749   24.1085 H   0  0  0  0  0  0
  -27.3975  -29.7111   25.4521 H   0  0  0  0  0  0
  -27.8716  -30.4152   23.9239 H   0  0  0  0  0  0
  -27.2608  -33.3545   26.2040 H   0  0  0  0  0  0
  -28.3929  -32.6852   25.0379 H   0  0  0  0  0  0
  -28.0654  -31.8388   26.5433 H   0  0  0  0  0  0
  -28.2561  -38.0121   24.7451 H   0  0  0  0  0  0
  -28.1095  -36.2642   24.6279 H   0  0  0  0  0  0
  -27.2284  -37.1462   25.8834 H   0  0  0  0  0  0
  -20.9297  -29.8774   21.7007 H   0  0  0  0  0  0
  -26.0116  -38.2785   24.1431 H   0  0  0  0  0  0
  -32.0819  -17.1603   20.0474 H   0  0  0  0  0  0
  -28.1037  -24.9184   25.5697 H   0  0  0  0  0  0
  -29.6751  -24.3901   25.0061 H   0  0  0  0  0  0
  -28.6347  -23.2670   25.8702 H   0  0  0  0  0  0
  -28.6228  -27.0462   22.7120 H   0  0  0  0  0  0
  -30.0532  -26.6505   21.7726 H   0  0  0  0  0  0
  -29.5029  -25.5650   23.0245 H   0  0  0  0  0  0
  -28.0809  -23.8068   19.9024 H   0  0  0  0  0  0
  -29.7019  -24.3956   20.0770 H   0  0  0  0  0  0
  -27.1047  -23.0404   24.0489 H   0  0  0  0  0  0
  -27.5687  -24.5006   23.3239 H   0  0  0  0  0  0
  -27.2656  -25.4226   21.5218 H   0  0  0  0  0  0
  -29.1001  -15.1215   21.5413 H   0  0  0  0  0  0
  -28.4693  -20.6465   21.7779 H   0  0  0  0  0  0
  -30.0285  -21.3408   23.1923 H   0  0  0  0  0  0
  1 25  1  0  0  0
  1 30  2  0  0  0
  1 83  1  0  0  0
  2  3  1  0  0  0
  2 25  1  0  0  0
  2 88  1  0  0  0
  2 89  1  0  0  0
  3  4  1  0  0  0
  3 90  1  0  0  0
  3 91  1  0  0  0
  4  5  1  0  0  0
  4 92  1  0  0  0
  4 93  1  0  0  0
  5  6  1  0  0  0
  5 26  1  0  0  0
  5 94  1  0  0  0
  6 25  1  0  0  0
  6 95  1  0  0  0
  6 96  1  0  0  0
  7  8  2  0  0  0
  7 26  1  0  0  0
  7 29  1  0  0  0
  8  9  1  0  0  0
  8 22  1  0  0  0
  9 10  1  0  0  0
  9 27  2  0  0  0
 10 11  2  0  0  0
 10 15  1  0  0  0
 11 12  1  0  0  0
 11 97  1  0  0  0
 12 13  2  0  0  0
 12 98  1  0  0  0
 13 14  1  0  0  0
 13 31  1  0  0  0
 14 15  2  0  0  0
 14 99  1  0  0  0
 15100  1  0  0  0
 16 17  2  0  0  0
 16 21  1  0  0  0
 16 31  1  0  0  0
 17 18  1  0  0  0
 17101  1  0  0  0
 18 19  2  0  0  0
 18102  1  0  0  0
 19 20  1  0  0  0
 19 24  1  0  0  0
 20 21  2  0  0  0
 20103  1  0  0  0
 21 23  1  0  0  0
 22 28  1  0  0  0
 22 32  2  0  0  0
 26 27  1  0  0  0
 28104  1  0  0  0
 28105  1  0  0  0
 29106  1  0  0  0
 29107  1  0  0  0
 33 34  1  0  0  0
 33 66  1  0  0  0
 33 70  2  0  0  0
 34 36  1  0  0  0
 34 59  1  0  0  0
 34108  1  0  0  0
 35 44  2  0  0  0
 35 45  1  0  0  0
 35 68  1  0  0  0
 36 56  1  0  0  0
 36109  1  0  0  0
 37 39  1  0  0  0
 37 47  1  0  0  0
 37 66  1  0  0  0
 37110  1  0  0  0
 38 43  2  0  0  0
 38 46  1  0  0  0
 38 47  1  0  0  0
 39 64  1  0  0  0
 39 67  2  0  0  0
 40 52  1  0  0  0
 40 53  2  0  0  0
 40 58  1  0  0  0
 41111  1  0  0  0
 41112  1  0  0  0
 41113  1  0  0  0
 41 48  1  0  0  0
 42 43  1  0  0  0
 42 66  1  0  0  0
 42114  1  0  0  0
 42115  1  0  0  0
 43 44  1  0  0  0
 44116  1  0  0  0
 45 46  2  0  0  0
 45117  1  0  0  0
 46118  1  0  0  0
 47119  1  0  0  0
 47120  1  0  0  0
 48 56  1  0  0  0
 48 65  1  0  0  0
 48121  1  0  0  0
 49 50  1  0  0  0
 49 53  1  0  0  0
 49 64  1  0  0  0
 49122  1  0  0  0
 50 51  1  0  0  0
 50123  1  0  0  0
 50124  1  0  0  0
 51 52  1  0  0  0
 51125  1  0  0  0
 51126  1  0  0  0
 52127  1  0  0  0
 52128  1  0  0  0
 53 54  1  0  0  0
 54 55  2  0  0  0
 54129  1  0  0  0
 55 57  1  0  0  0
 55130  1  0  0  0
 56 69  2  0  0  0
 57 58  2  0  0  0
 57131  1  0  0  0
 58132  1  0  0  0
 59 60  1  0  0  0
 59 61  1  0  0  0
 59 62  1  0  0  0
 60133  1  0  0  0
 60134  1  0  0  0
 60135  1  0  0  0
 61136  1  0  0  0
 61137  1  0  0  0
 61138  1  0  0  0
 62139  1  0  0  0
 62140  1  0  0  0
 62141  1  0  0  0
 63 65  1  0  0  0
 63142  1  0  0  0
 63143  1  0  0  0
 63144  1  0  0  0
 64145  1  0  0  0
 65146  1  0  0  0
 68 81  1  0  0  0
 71 72  2  0  0  0
 71 82  1  0  0  0
 71147  1  0  0  0
 72 83  1  0  0  0
 72 87  1  0  0  0
 73 82  2  0  0  0
 73 84  1  0  0  0
 73 87  1  0  0  0
 74 75  2  0  0  0
 74 76  1  0  0  0
 74 79  1  0  0  0
 75 80  1  0  0  0
 75 86  1  0  0  0
 76 84  1  0  0  0
 76 85  2  0  0  0
 77 80  1  0  0  0
 77148  1  0  0  0
 77149  1  0  0  0
 77150  1  0  0  0
 78151  1  0  0  0
 78152  1  0  0  0
 78153  1  0  0  0
 78 81  1  0  0  0
 79 81  1  0  0  0
 79154  1  0  0  0
 79155  1  0  0  0
 80156  1  0  0  0
 80157  1  0  0  0
 81158  1  0  0  0
 83159  1  0  0  0
 84160  1  0  0  0
 86161  1  0  0  0
M  ISO  4   1 100  68 101  81 101  83 100
M  END
> <chiral flag>
0

> <version>
0

> <s_m_source_file>
/data/baiqing/PycharmProjects/Reinvent-master-3.2/result/LINK_invent/BTK/process_docking_weight1_custom_product_contain_oxygen_bond_distance_aromatic_linkinvent_7_9_3/rearranged_h_0188.sdf

> <i_m_source_file_index>
73

> <r_mmod_Potential_Energy-OPLS-2005>
-52.0851364135742

> <r_mmod_Stretch_Energy-OPLS-2005>
50.7900848388672

> <r_mmod_Bend_Energy-OPLS-2005>
141.733505249023

> <r_mmod_Torsional_Energy-OPLS-2005>
246.055465698242

> <r_mmod_Improper_Torsional_Energy-OPLS-2005>
4.63119840621948

> <r_mmod_Van_der_Waal_Energy-OPLS-2005>
155.659118652344

> <r_mmod_Electrostatic_Energy-OPLS-2005>
-426.703002929688

> <r_mmod_Solvation_Energy-OPLS-2005>
-243.957702636719

> <b_mmod_Minimization_Converged-OPLS-2005>
0

> <r_mmod_RMS_Derivative-OPLS-2005>
7.0384669303894

$$$$
74
                    3D
 Structure written by MMmdl.
156164  0  0  1  0            999 V2000
  -30.7122  -14.4622   20.6168 C   0  0  0  0  0  0
  -30.4293  -12.3141   19.4230 C   0  0  0  0  0  0
  -29.4990  -12.5262   18.2099 C   0  0  0  0  0  0
  -28.0216  -12.3787   18.6204 C   0  0  0  0  0  0
  -27.6689  -13.2064   19.8840 C   0  0  2  0  0  0
  -28.7086  -12.9699   21.0039 C   0  0  0  0  0  0
  -25.2620  -13.8152   20.5696 C   0  0  0  0  0  0
  -24.1857  -13.0433   20.9157 C   0  0  0  0  0  0
  -24.6401  -11.6897   20.8707 C   0  0  0  0  0  0
  -23.9056  -10.4292   21.0382 C   0  0  0  0  0  0
  -24.3600   -9.4215   21.9169 C   0  0  0  0  0  0
  -23.6275   -8.2251   22.0753 C   0  0  0  0  0  0
  -22.4261   -8.0280   21.3544 C   0  0  0  0  0  0
  -21.9891   -9.0255   20.4647 C   0  0  0  0  0  0
  -22.7220  -10.2133   20.3044 C   0  0  0  0  0  0
  -21.6860   -6.0724   22.5274 C   0  0  0  0  0  0
  -21.4025   -6.5629   23.8207 C   0  0  0  0  0  0
  -21.3659   -5.6779   24.9167 C   0  0  0  0  0  0
  -21.6043   -4.3043   24.7220 C   0  0  0  0  0  0
  -21.8820   -3.8136   23.4341 C   0  0  0  0  0  0
  -21.9201   -4.6952   22.3397 C   0  0  0  0  0  0
  -22.7881  -13.5247   21.1816 C   0  0  0  0  0  0
  -22.1664   -4.2137   21.0973 F   0  0  0  0  0  0
  -21.5623   -3.4525   25.7729 F   0  0  0  0  0  0
  -30.0489  -13.2800   20.4685 N   0  0  0  0  0  0
  -26.3061  -12.9322   20.3391 N   0  0  0  0  0  0
  -25.9335  -11.6479   20.5745 N   0  0  0  0  0  0
  -22.0522  -12.8253   22.0373 N   0  0  0  0  0  0
  -25.4363  -15.1868   20.4149 N   0  0  0  0  0  0
  -31.7742  -14.7093   20.0364 O   0  0  0  0  0  0
  -21.6643   -6.8865   21.4234 O   0  0  0  0  0  0
  -22.3566  -14.5562   20.6680 O   0  0  0  0  0  0
  -24.6183  -31.8687   23.2117 C   0  0  0  0  0  0
  -25.9072  -32.4824   23.8408 C   0  0  1  0  0  0
  -27.2296  -27.4069   20.1002 C   0  0  0  0  0  0
  -25.5922  -33.8620   24.2342 N   0  0  0  0  0  0
  -23.4066  -30.4958   21.5523 C   0  0  2  0  0  0
  -24.8544  -28.9702   20.1104 C   0  0  0  0  0  0
  -22.7430  -29.4672   22.4970 C   0  0  0  0  0  0
  -18.0277  -28.1338   22.8493 C   0  0  0  0  0  0
  -24.1494  -36.7305   23.2637 C   0  0  0  0  0  0
  -25.9421  -30.8267   21.3724 C   0  0  0  0  0  0
  -26.0194  -29.4625   20.7114 C   0  0  0  0  0  0
  -27.2109  -28.6909   20.7019 C   0  0  0  0  0  0
  -26.0414  -26.9560   19.4694 C   0  0  0  0  0  0
  -24.8629  -27.7174   19.4831 C   0  0  0  0  0  0
  -23.6173  -29.8375   20.1651 C   0  0  0  0  0  0
  -25.4115  -36.3106   24.0339 C   0  0  1  0  0  0
  -20.5869  -28.3678   23.1294 C   0  0  2  0  0  0
  -20.6783  -26.9399   22.5427 C   0  0  0  0  0  0
  -19.5753  -26.6310   21.5256 C   0  0  0  0  0  0
  -18.1932  -26.7857   22.1677 C   0  0  0  0  0  0
  -19.1521  -28.8829   23.2866 C   0  0  0  0  0  0
  -18.9443  -30.1445   23.8836 C   0  0  0  0  0  0
  -17.6441  -30.6566   24.0513 C   0  0  0  0  0  0
  -25.9045  -34.9470   23.5133 C   0  0  0  0  0  0
  -16.5337  -29.9037   23.6309 C   0  0  0  0  0  0
  -16.7254  -28.6440   23.0342 C   0  0  0  0  0  0
  -26.4492  -31.6598   25.0734 C   0  0  0  0  0  0
  -25.3747  -31.3695   26.1469 C   0  0  0  0  0  0
  -27.0319  -30.3037   24.6110 C   0  0  0  0  0  0
  -27.6072  -32.4322   25.7486 C   0  0  0  0  0  0
  -27.5582  -37.1813   24.8470 C   0  0  0  0  0  0
  -21.4153  -29.3054   22.3706 N   0  0  0  0  0  0
  -26.4301  -37.3786   23.9409 N   0  0  0  0  0  0
  -24.6736  -31.0777   22.1032 N   0  0  0  0  0  0
  -23.4189  -28.8194   23.3005 O   0  0  0  0  0  0
  -28.3652  -26.6018   20.1614 O   0  0  0  0  0  0
  -26.5590  -34.8906   22.4684 O   0  0  0  0  0  0
  -23.5372  -32.1449   23.7504 O   0  0  0  0  0  0
  -29.6810  -18.8534   22.1604 C   0  0  0  0  0  0
  -29.9925  -19.1912   20.8625 C   0  0  0  0  0  0
  -30.1574  -16.7621   21.3800 C   0  0  0  0  0  0
  -29.8430  -20.4742   20.1140 C   0  0  0  0  0  0
  -29.5374  -24.3794   22.0682 C   0  0  0  0  0  0
  -27.2524  -22.3673   20.8717 C   0  0  0  0  0  0
  -28.0957  -25.1778   20.1028 C   0  0  0  0  0  0
  -29.1562  -24.1430   20.5958 C   0  0  2  0  0  0
  -28.6634  -22.6692   20.3192 C   0  0  1  0  0  0
  -29.7617  -17.4772   22.4380 N   0  0  0  0  0  0
  -30.1399  -15.3426   21.4563 N   0  0  0  0  0  0
  -29.5420  -21.5877   20.8172 N   0  0  0  0  0  0
  -29.9059  -20.4837   18.8825 O   0  0  0  0  0  0
  -30.4877  -17.7607   19.9568 S   0  0  0  0  0  0
  -31.4754  -12.4132   19.1258 H   0  0  0  0  0  0
  -30.3282  -11.2973   19.8055 H   0  0  0  0  0  0
  -29.7379  -11.8099   17.4219 H   0  0  0  0  0  0
  -29.6674  -13.5170   17.7840 H   0  0  0  0  0  0
  -27.8372  -11.3204   18.8079 H   0  0  0  0  0  0
  -27.3685  -12.6592   17.7932 H   0  0  0  0  0  0
  -27.7209  -14.2587   19.6034 H   0  0  0  0  0  0
  -28.6832  -11.9289   21.3290 H   0  0  0  0  0  0
  -28.4512  -13.5494   21.8914 H   0  0  0  0  0  0
  -25.2742   -9.5697   22.4746 H   0  0  0  0  0  0
  -23.9985   -7.4649   22.7482 H   0  0  0  0  0  0
  -21.0817   -8.8768   19.8964 H   0  0  0  0  0  0
  -22.3665  -10.9664   19.6156 H   0  0  0  0  0  0
  -21.2024   -7.6139   23.9703 H   0  0  0  0  0  0
  -21.1477   -6.0513   25.9067 H   0  0  0  0  0  0
  -22.0602   -2.7599   23.2845 H   0  0  0  0  0  0
  -22.4128  -11.9909   22.4762 H   0  0  0  0  0  0
  -21.1158  -13.1321   22.2595 H   0  0  0  0  0  0
  -24.6715  -15.8433   20.5279 H   0  0  0  0  0  0
  -26.2970  -15.6293   20.1179 H   0  0  0  0  0  0
  -26.7141  -32.5523   23.1170 H   0  0  0  0  0  0
  -25.0102  -33.9793   25.0503 H   0  0  0  0  0  0
  -22.6957  -31.3144   21.4155 H   0  0  0  0  0  0
  -23.3755  -35.9640   23.3325 H   0  0  0  0  0  0
  -24.3593  -36.8899   22.2047 H   0  0  0  0  0  0
  -23.7242  -37.6518   23.6636 H   0  0  0  0  0  0
  -26.0611  -31.5973   20.6092 H   0  0  0  0  0  0
  -26.8262  -30.8748   21.9954 H   0  0  0  0  0  0
  -28.1037  -29.0624   21.1863 H   0  0  0  0  0  0
  -25.9861  -26.0032   18.9654 H   0  0  0  0  0  0
  -23.9697  -27.3369   19.0068 H   0  0  0  0  0  0
  -23.7245  -30.6156   19.4086 H   0  0  0  0  0  0
  -22.7398  -29.2614   19.8658 H   0  0  0  0  0  0
  -25.1292  -36.1978   25.0830 H   0  0  0  0  0  0
  -20.9948  -28.3257   24.1416 H   0  0  0  0  0  0
  -21.6647  -26.7452   22.1217 H   0  0  0  0  0  0
  -20.5701  -26.2300   23.3648 H   0  0  0  0  0  0
  -19.6916  -25.6200   21.1332 H   0  0  0  0  0  0
  -19.6666  -27.3082   20.6758 H   0  0  0  0  0  0
  -17.4201  -26.6552   21.4092 H   0  0  0  0  0  0
  -18.0368  -26.0025   22.9114 H   0  0  0  0  0  0
  -19.7933  -30.7282   24.2131 H   0  0  0  0  0  0
  -17.4996  -31.6253   24.5098 H   0  0  0  0  0  0
  -15.5334  -30.2931   23.7648 H   0  0  0  0  0  0
  -15.8655  -28.0745   22.7100 H   0  0  0  0  0  0
  -24.5918  -30.7058   25.7782 H   0  0  0  0  0  0
  -24.8937  -32.2845   26.4933 H   0  0  0  0  0  0
  -25.8087  -30.8836   27.0212 H   0  0  0  0  0  0
  -26.2859  -29.6802   24.1169 H   0  0  0  0  0  0
  -27.4094  -29.7269   25.4562 H   0  0  0  0  0  0
  -27.8695  -30.4363   23.9259 H   0  0  0  0  0  0
  -27.2703  -33.3612   26.2094 H   0  0  0  0  0  0
  -28.3850  -32.6908   25.0289 H   0  0  0  0  0  0
  -28.0775  -31.8428   26.5368 H   0  0  0  0  0  0
  -28.2613  -38.0097   24.7495 H   0  0  0  0  0  0
  -28.1067  -36.2624   24.6331 H   0  0  0  0  0  0
  -27.2295  -37.1498   25.8873 H   0  0  0  0  0  0
  -20.9306  -29.8838   21.6987 H   0  0  0  0  0  0
  -26.0198  -38.2868   24.1402 H   0  0  0  0  0  0
  -29.3176  -19.5181   22.9320 H   0  0  0  0  0  0
  -29.8753  -25.4052   22.2202 H   0  0  0  0  0  0
  -30.3518  -23.7257   22.3799 H   0  0  0  0  0  0
  -28.6975  -24.2074   22.7398 H   0  0  0  0  0  0
  -26.4816  -22.9833   20.4114 H   0  0  0  0  0  0
  -27.1991  -22.5114   21.9511 H   0  0  0  0  0  0
  -26.9625  -21.3358   20.6675 H   0  0  0  0  0  0
  -27.1998  -25.0063   20.7008 H   0  0  0  0  0  0
  -27.8552  -24.9235   19.0701 H   0  0  0  0  0  0
  -30.0595  -24.2975   20.0034 H   0  0  0  0  0  0
  -28.5872  -22.5829   19.2335 H   0  0  0  0  0  0
  -29.4314  -14.9559   22.0579 H   0  0  0  0  0  0
  -29.6288  -21.5212   21.8214 H   0  0  0  0  0  0
  1 25  1  0  0  0
  1 30  2  0  0  0
  1 81  1  0  0  0
  2  3  1  0  0  0
  2 25  1  0  0  0
  2 85  1  0  0  0
  2 86  1  0  0  0
  3  4  1  0  0  0
  3 87  1  0  0  0
  3 88  1  0  0  0
  4  5  1  0  0  0
  4 89  1  0  0  0
  4 90  1  0  0  0
  5  6  1  0  0  0
  5 26  1  0  0  0
  5 91  1  0  0  0
  6 25  1  0  0  0
  6 92  1  0  0  0
  6 93  1  0  0  0
  7  8  2  0  0  0
  7 26  1  0  0  0
  7 29  1  0  0  0
  8  9  1  0  0  0
  8 22  1  0  0  0
  9 10  1  0  0  0
  9 27  2  0  0  0
 10 11  2  0  0  0
 10 15  1  0  0  0
 11 12  1  0  0  0
 11 94  1  0  0  0
 12 13  2  0  0  0
 12 95  1  0  0  0
 13 14  1  0  0  0
 13 31  1  0  0  0
 14 15  2  0  0  0
 14 96  1  0  0  0
 15 97  1  0  0  0
 16 17  2  0  0  0
 16 21  1  0  0  0
 16 31  1  0  0  0
 17 18  1  0  0  0
 17 98  1  0  0  0
 18 19  2  0  0  0
 18 99  1  0  0  0
 19 20  1  0  0  0
 19 24  1  0  0  0
 20 21  2  0  0  0
 20100  1  0  0  0
 21 23  1  0  0  0
 22 28  1  0  0  0
 22 32  2  0  0  0
 26 27  1  0  0  0
 28101  1  0  0  0
 28102  1  0  0  0
 29103  1  0  0  0
 29104  1  0  0  0
 33 34  1  0  0  0
 33 66  1  0  0  0
 33 70  2  0  0  0
 34 36  1  0  0  0
 34 59  1  0  0  0
 34105  1  0  0  0
 35 44  2  0  0  0
 35 45  1  0  0  0
 35 68  1  0  0  0
 36 56  1  0  0  0
 36106  1  0  0  0
 37 39  1  0  0  0
 37 47  1  0  0  0
 37 66  1  0  0  0
 37107  1  0  0  0
 38 43  2  0  0  0
 38 46  1  0  0  0
 38 47  1  0  0  0
 39 64  1  0  0  0
 39 67  2  0  0  0
 40 52  1  0  0  0
 40 53  2  0  0  0
 40 58  1  0  0  0
 41108  1  0  0  0
 41109  1  0  0  0
 41110  1  0  0  0
 41 48  1  0  0  0
 42 43  1  0  0  0
 42 66  1  0  0  0
 42111  1  0  0  0
 42112  1  0  0  0
 43 44  1  0  0  0
 44113  1  0  0  0
 45 46  2  0  0  0
 45114  1  0  0  0
 46115  1  0  0  0
 47116  1  0  0  0
 47117  1  0  0  0
 48 56  1  0  0  0
 48 65  1  0  0  0
 48118  1  0  0  0
 49 50  1  0  0  0
 49 53  1  0  0  0
 49 64  1  0  0  0
 49119  1  0  0  0
 50 51  1  0  0  0
 50120  1  0  0  0
 50121  1  0  0  0
 51 52  1  0  0  0
 51122  1  0  0  0
 51123  1  0  0  0
 52124  1  0  0  0
 52125  1  0  0  0
 53 54  1  0  0  0
 54 55  2  0  0  0
 54126  1  0  0  0
 55 57  1  0  0  0
 55127  1  0  0  0
 56 69  2  0  0  0
 57 58  2  0  0  0
 57128  1  0  0  0
 58129  1  0  0  0
 59 60  1  0  0  0
 59 61  1  0  0  0
 59 62  1  0  0  0
 60130  1  0  0  0
 60131  1  0  0  0
 60132  1  0  0  0
 61133  1  0  0  0
 61134  1  0  0  0
 61135  1  0  0  0
 62136  1  0  0  0
 62137  1  0  0  0
 62138  1  0  0  0
 63 65  1  0  0  0
 63139  1  0  0  0
 63140  1  0  0  0
 63141  1  0  0  0
 64142  1  0  0  0
 65143  1  0  0  0
 68 77  1  0  0  0
 71 72  2  0  0  0
 71 80  1  0  0  0
 71144  1  0  0  0
 72 74  1  0  0  0
 72 84  1  0  0  0
 73 80  2  0  0  0
 73 81  1  0  0  0
 73 84  1  0  0  0
 74 82  1  0  0  0
 74 83  2  0  0  0
 75145  1  0  0  0
 75146  1  0  0  0
 75147  1  0  0  0
 75 78  1  0  0  0
 76148  1  0  0  0
 76149  1  0  0  0
 76150  1  0  0  0
 76 79  1  0  0  0
 77 78  1  0  0  0
 77151  1  0  0  0
 77152  1  0  0  0
 78 79  1  0  0  0
 78153  1  0  0  0
 79 82  1  0  0  0
 79154  1  0  0  0
 81155  1  0  0  0
 82156  1  0  0  0
M  ISO  4   1 100  68 101  77 101  81 100
M  END
> <chiral flag>
0

> <version>
0

> <s_m_source_file>
/data/baiqing/PycharmProjects/Reinvent-master-3.2/result/LINK_invent/BTK/process_docking_weight1_custom_product_contain_oxygen_bond_distance_aromatic_linkinvent_7_9_3/rearranged_h_0188.sdf

> <i_m_source_file_index>
74

> <r_mmod_Potential_Energy-OPLS-2005>
-153.264801025391

> <r_mmod_Stretch_Energy-OPLS-2005>
43.396671295166

> <r_mmod_Bend_Energy-OPLS-2005>
108.868087768555

> <r_mmod_Torsional_Energy-OPLS-2005>
242.189239501953

> <r_mmod_Improper_Torsional_Energy-OPLS-2005>
5.59892082214355

> <r_mmod_Van_der_Waal_Energy-OPLS-2005>
141.981018066406

> <r_mmod_Electrostatic_Energy-OPLS-2005>
-476.234191894531

> <r_mmod_Solvation_Energy-OPLS-2005>
-234.867797851562

> <b_mmod_Minimization_Converged-OPLS-2005>
0

> <r_mmod_RMS_Derivative-OPLS-2005>
1.84639453887939

$$$$
75
                    3D
 Structure written by MMmdl.
153161  0  0  1  0            999 V2000
  -30.5735  -14.7422   20.4658 C   0  0  0  0  0  0
  -30.4455  -12.4523   19.4645 C   0  0  0  0  0  0
  -29.5136  -12.5092   18.2320 C   0  0  0  0  0  0
  -28.0386  -12.3288   18.6456 C   0  0  0  0  0  0
  -27.6452  -13.2199   19.8528 C   0  0  2  0  0  0
  -28.6910  -13.1253   20.9862 C   0  0  0  0  0  0
  -25.2533  -13.8168   20.5677 C   0  0  0  0  0  0
  -24.1816  -13.0431   20.9209 C   0  0  0  0  0  0
  -24.6391  -11.6903   20.8749 C   0  0  0  0  0  0
  -23.9063  -10.4287   21.0412 C   0  0  0  0  0  0
  -24.3615   -9.4202   21.9189 C   0  0  0  0  0  0
  -23.6291   -8.2239   22.0756 C   0  0  0  0  0  0
  -22.4274   -8.0278   21.3545 C   0  0  0  0  0  0
  -21.9909   -9.0252   20.4649 C   0  0  0  0  0  0
  -22.7237  -10.2131   20.3060 C   0  0  0  0  0  0
  -21.6852   -6.0734   22.5278 C   0  0  0  0  0  0
  -21.4013   -6.5639   23.8211 C   0  0  0  0  0  0
  -21.3658   -5.6793   24.9174 C   0  0  0  0  0  0
  -21.6045   -4.3055   24.7226 C   0  0  0  0  0  0
  -21.8819   -3.8146   23.4347 C   0  0  0  0  0  0
  -21.9192   -4.6962   22.3403 C   0  0  0  0  0  0
  -22.7840  -13.5225   21.1867 C   0  0  0  0  0  0
  -22.1661   -4.2147   21.0980 F   0  0  0  0  0  0
  -21.5629   -3.4540   25.7739 F   0  0  0  0  0  0
  -29.9938  -13.4939   20.4130 N   0  0  0  0  0  0
  -26.2948  -12.9349   20.3270 N   0  0  0  0  0  0
  -25.9315  -11.6506   20.5747 N   0  0  0  0  0  0
  -22.0479  -12.8218   22.0421 N   0  0  0  0  0  0
  -25.4219  -15.1892   20.4061 N   0  0  0  0  0  0
  -31.7606  -14.8866   20.1526 O   0  0  0  0  0  0
  -21.6637   -6.8876   21.4240 O   0  0  0  0  0  0
  -22.3530  -14.5531   20.6711 O   0  0  0  0  0  0
  -24.6294  -31.8547   23.1969 C   0  0  0  0  0  0
  -25.9121  -32.4750   23.8319 C   0  0  1  0  0  0
  -27.2268  -27.2723   20.1399 C   0  0  0  0  0  0
  -25.5920  -33.8553   24.2247 N   0  0  0  0  0  0
  -23.4267  -30.4741   21.5399 C   0  0  2  0  0  0
  -24.8752  -28.9130   20.1167 C   0  0  0  0  0  0
  -22.7493  -29.4593   22.4922 C   0  0  0  0  0  0
  -18.0289  -28.1387   22.8483 C   0  0  0  0  0  0
  -24.1489  -36.7284   23.2643 C   0  0  0  0  0  0
  -25.9694  -30.7720   21.3728 C   0  0  0  0  0  0
  -26.0445  -29.3918   20.7219 C   0  0  0  0  0  0
  -27.2252  -28.5850   20.7171 C   0  0  0  0  0  0
  -26.0379  -26.8499   19.5127 C   0  0  0  0  0  0
  -24.8754  -27.6491   19.5021 C   0  0  0  0  0  0
  -23.6454  -29.8002   20.1587 C   0  0  0  0  0  0
  -25.4115  -36.3068   24.0328 C   0  0  1  0  0  0
  -20.5891  -28.3690   23.1277 C   0  0  2  0  0  0
  -20.6775  -26.9410   22.5412 C   0  0  0  0  0  0
  -19.5752  -26.6383   21.5213 C   0  0  0  0  0  0
  -18.1932  -26.7928   22.1625 C   0  0  0  0  0  0
  -19.1543  -28.8856   23.2874 C   0  0  0  0  0  0
  -18.9465  -30.1457   23.8891 C   0  0  0  0  0  0
  -17.6466  -30.6588   24.0562 C   0  0  0  0  0  0
  -25.9054  -34.9438   23.5093 C   0  0  0  0  0  0
  -16.5356  -29.9087   23.6332 C   0  0  0  0  0  0
  -16.7276  -28.6506   23.0351 C   0  0  0  0  0  0
  -26.4493  -31.6575   25.0706 C   0  0  0  0  0  0
  -25.3719  -31.3727   26.1430 C   0  0  0  0  0  0
  -27.0340  -30.2995   24.6181 C   0  0  0  0  0  0
  -27.6043  -32.4319   25.7484 C   0  0  0  0  0  0
  -27.5577  -37.1797   24.8466 C   0  0  0  0  0  0
  -21.4202  -29.3037   22.3667 N   0  0  0  0  0  0
  -26.4290  -37.3766   23.9409 N   0  0  0  0  0  0
  -24.6942  -31.0519   22.0936 N   0  0  0  0  0  0
  -23.4194  -28.8142   23.3027 O   0  0  0  0  0  0
  -28.3494  -26.4190   20.1257 O   0  0  0  0  0  0
  -26.5633  -34.8915   22.4667 O   0  0  0  0  0  0
  -23.5447  -32.1362   23.7273 O   0  0  0  0  0  0
  -30.5836  -19.4616   20.7190 C   0  0  0  0  0  0
  -29.3636  -19.8302   20.1695 C   0  0  0  0  0  0
  -29.7887  -17.2729   20.5165 C   0  0  0  0  0  0
  -28.3110  -23.7492   19.9002 C   0  0  0  0  0  0
  -29.5699  -21.3577   18.1857 C   0  0  0  0  0  0
  -27.3424  -24.9846   21.9515 C   0  0  0  0  0  0
  -28.8674  -21.2015   19.5486 C   0  0  2  0  0  0
  -28.3666  -25.0714   20.8042 C   0  0  2  0  0  0
  -30.8108  -18.0585   20.9028 N   0  0  0  0  0  0
  -29.7060  -15.8031   20.6646 N   0  0  0  0  0  0
  -28.8919  -22.5418   20.2908 N   0  0  0  0  0  0
  -27.6976  -23.8256   18.8338 O   0  0  0  0  0  0
  -28.4428  -18.3149   19.9342 S   0  0  0  0  0  0
  -31.4828  -12.5995   19.1588 H   0  0  0  0  0  0
  -30.4077  -11.4681   19.9341 H   0  0  0  0  0  0
  -29.7953  -11.7412   17.5103 H   0  0  0  0  0  0
  -29.6361  -13.4661   17.7222 H   0  0  0  0  0  0
  -27.8953  -11.2785   18.9022 H   0  0  0  0  0  0
  -27.3805  -12.5261   17.7985 H   0  0  0  0  0  0
  -27.6443  -14.2441   19.4803 H   0  0  0  0  0  0
  -28.7276  -12.1145   21.3952 H   0  0  0  0  0  0
  -28.4238  -13.7767   21.8200 H   0  0  0  0  0  0
  -25.2761   -9.5677   22.4762 H   0  0  0  0  0  0
  -23.9999   -7.4629   22.7475 H   0  0  0  0  0  0
  -21.0840   -8.8772   19.8955 H   0  0  0  0  0  0
  -22.3697  -10.9671   19.6170 H   0  0  0  0  0  0
  -21.2006   -7.6147   23.9714 H   0  0  0  0  0  0
  -21.1481   -6.0524   25.9077 H   0  0  0  0  0  0
  -22.0600   -2.7608   23.2848 H   0  0  0  0  0  0
  -22.4092  -11.9878   22.4809 H   0  0  0  0  0  0
  -21.1099  -13.1246   22.2628 H   0  0  0  0  0  0
  -24.6439  -15.8329   20.5037 H   0  0  0  0  0  0
  -26.2446  -15.6265   20.0134 H   0  0  0  0  0  0
  -26.7186  -32.5406   23.1061 H   0  0  0  0  0  0
  -25.0047  -33.9686   25.0381 H   0  0  0  0  0  0
  -22.7230  -31.2954   21.3900 H   0  0  0  0  0  0
  -23.3749  -35.9617   23.3304 H   0  0  0  0  0  0
  -24.3580  -36.8909   22.2057 H   0  0  0  0  0  0
  -23.7244  -37.6485   23.6670 H   0  0  0  0  0  0
  -26.1024  -31.5296   20.5993 H   0  0  0  0  0  0
  -26.8492  -30.8263   22.0026 H   0  0  0  0  0  0
  -28.1268  -28.9516   21.1873 H   0  0  0  0  0  0
  -26.0050  -25.8798   19.0378 H   0  0  0  0  0  0
  -23.9800  -27.2764   19.0238 H   0  0  0  0  0  0
  -23.7711  -30.5724   19.3988 H   0  0  0  0  0  0
  -22.7643  -29.2318   19.8555 H   0  0  0  0  0  0
  -25.1298  -36.1913   25.0821 H   0  0  0  0  0  0
  -20.9982  -28.3266   24.1399 H   0  0  0  0  0  0
  -20.5672  -26.2300   23.3614 H   0  0  0  0  0  0
  -21.6643  -26.7432   22.1208 H   0  0  0  0  0  0
  -19.6914  -25.6294   21.1244 H   0  0  0  0  0  0
  -19.6692  -27.3190   20.6742 H   0  0  0  0  0  0
  -17.4202  -26.6674   21.4027 H   0  0  0  0  0  0
  -18.0332  -26.0072   22.9024 H   0  0  0  0  0  0
  -19.7941  -30.7274   24.2257 H   0  0  0  0  0  0
  -17.5021  -31.6268   24.5163 H   0  0  0  0  0  0
  -15.5356  -30.2988   23.7660 H   0  0  0  0  0  0
  -15.8676  -28.0826   22.7065 H   0  0  0  0  0  0
  -24.5894  -30.7077   25.7762 H   0  0  0  0  0  0
  -24.8911  -32.2898   26.4844 H   0  0  0  0  0  0
  -25.8036  -30.8913   27.0214 H   0  0  0  0  0  0
  -26.2919  -29.6739   24.1207 H   0  0  0  0  0  0
  -27.4033  -29.7259   25.4692 H   0  0  0  0  0  0
  -27.8789  -30.4278   23.9411 H   0  0  0  0  0  0
  -27.2646  -33.3623   26.2045 H   0  0  0  0  0  0
  -28.3862  -32.6871   25.0320 H   0  0  0  0  0  0
  -28.0699  -31.8454   26.5415 H   0  0  0  0  0  0
  -28.2593  -38.0095   24.7506 H   0  0  0  0  0  0
  -28.1073  -36.2625   24.6298 H   0  0  0  0  0  0
  -27.2295  -37.1452   25.8870 H   0  0  0  0  0  0
  -20.9390  -29.8756   21.6869 H   0  0  0  0  0  0
  -26.0167  -38.2840   24.1408 H   0  0  0  0  0  0
  -31.3998  -20.1357   20.9390 H   0  0  0  0  0  0
  -29.4247  -20.4675   17.5726 H   0  0  0  0  0  0
  -30.6441  -21.4960   18.3109 H   0  0  0  0  0  0
  -29.1943  -22.1983   17.6045 H   0  0  0  0  0  0
  -27.4671  -25.8096   22.6527 H   0  0  0  0  0  0
  -27.4626  -24.0587   22.5149 H   0  0  0  0  0  0
  -26.3175  -25.0053   21.5820 H   0  0  0  0  0  0
  -27.8092  -21.0552   19.3238 H   0  0  0  0  0  0
  -29.3507  -25.0337   21.2723 H   0  0  0  0  0  0
  -28.7632  -15.4786   20.8027 H   0  0  0  0  0  0
  -29.3621  -22.5486   21.1860 H   0  0  0  0  0  0
  1 25  1  0  0  0
  1 30  2  0  0  0
  1 80  1  0  0  0
  2  3  1  0  0  0
  2 25  1  0  0  0
  2 84  1  0  0  0
  2 85  1  0  0  0
  3  4  1  0  0  0
  3 86  1  0  0  0
  3 87  1  0  0  0
  4  5  1  0  0  0
  4 88  1  0  0  0
  4 89  1  0  0  0
  5  6  1  0  0  0
  5 26  1  0  0  0
  5 90  1  0  0  0
  6 25  1  0  0  0
  6 91  1  0  0  0
  6 92  1  0  0  0
  7  8  2  0  0  0
  7 26  1  0  0  0
  7 29  1  0  0  0
  8  9  1  0  0  0
  8 22  1  0  0  0
  9 10  1  0  0  0
  9 27  2  0  0  0
 10 11  2  0  0  0
 10 15  1  0  0  0
 11 12  1  0  0  0
 11 93  1  0  0  0
 12 13  2  0  0  0
 12 94  1  0  0  0
 13 14  1  0  0  0
 13 31  1  0  0  0
 14 15  2  0  0  0
 14 95  1  0  0  0
 15 96  1  0  0  0
 16 17  2  0  0  0
 16 21  1  0  0  0
 16 31  1  0  0  0
 17 18  1  0  0  0
 17 97  1  0  0  0
 18 19  2  0  0  0
 18 98  1  0  0  0
 19 20  1  0  0  0
 19 24  1  0  0  0
 20 21  2  0  0  0
 20 99  1  0  0  0
 21 23  1  0  0  0
 22 28  1  0  0  0
 22 32  2  0  0  0
 26 27  1  0  0  0
 28100  1  0  0  0
 28101  1  0  0  0
 29102  1  0  0  0
 29103  1  0  0  0
 33 34  1  0  0  0
 33 66  1  0  0  0
 33 70  2  0  0  0
 34 36  1  0  0  0
 34 59  1  0  0  0
 34104  1  0  0  0
 35 44  2  0  0  0
 35 45  1  0  0  0
 35 68  1  0  0  0
 36 56  1  0  0  0
 36105  1  0  0  0
 37 39  1  0  0  0
 37 47  1  0  0  0
 37 66  1  0  0  0
 37106  1  0  0  0
 38 43  2  0  0  0
 38 46  1  0  0  0
 38 47  1  0  0  0
 39 64  1  0  0  0
 39 67  2  0  0  0
 40 52  1  0  0  0
 40 53  2  0  0  0
 40 58  1  0  0  0
 41107  1  0  0  0
 41108  1  0  0  0
 41109  1  0  0  0
 41 48  1  0  0  0
 42 43  1  0  0  0
 42 66  1  0  0  0
 42110  1  0  0  0
 42111  1  0  0  0
 43 44  1  0  0  0
 44112  1  0  0  0
 45 46  2  0  0  0
 45113  1  0  0  0
 46114  1  0  0  0
 47115  1  0  0  0
 47116  1  0  0  0
 48 56  1  0  0  0
 48 65  1  0  0  0
 48117  1  0  0  0
 49 50  1  0  0  0
 49 53  1  0  0  0
 49 64  1  0  0  0
 49118  1  0  0  0
 50 51  1  0  0  0
 50119  1  0  0  0
 50120  1  0  0  0
 51 52  1  0  0  0
 51121  1  0  0  0
 51122  1  0  0  0
 52123  1  0  0  0
 52124  1  0  0  0
 53 54  1  0  0  0
 54 55  2  0  0  0
 54125  1  0  0  0
 55 57  1  0  0  0
 55126  1  0  0  0
 56 69  2  0  0  0
 57 58  2  0  0  0
 57127  1  0  0  0
 58128  1  0  0  0
 59 60  1  0  0  0
 59 61  1  0  0  0
 59 62  1  0  0  0
 60129  1  0  0  0
 60130  1  0  0  0
 60131  1  0  0  0
 61132  1  0  0  0
 61133  1  0  0  0
 61134  1  0  0  0
 62135  1  0  0  0
 62136  1  0  0  0
 62137  1  0  0  0
 63 65  1  0  0  0
 63138  1  0  0  0
 63139  1  0  0  0
 63140  1  0  0  0
 64141  1  0  0  0
 65142  1  0  0  0
 68 78  1  0  0  0
 71 72  2  0  0  0
 71 79  1  0  0  0
 71143  1  0  0  0
 72 77  1  0  0  0
 72 83  1  0  0  0
 73 79  2  0  0  0
 73 80  1  0  0  0
 73 83  1  0  0  0
 74 78  1  0  0  0
 74 81  1  0  0  0
 74 82  2  0  0  0
 75144  1  0  0  0
 75145  1  0  0  0
 75146  1  0  0  0
 75 77  1  0  0  0
 76147  1  0  0  0
 76148  1  0  0  0
 76149  1  0  0  0
 76 78  1  0  0  0
 77 81  1  0  0  0
 77150  1  0  0  0
 78151  1  0  0  0
 80152  1  0  0  0
 81153  1  0  0  0
M  ISO  4   1 100  68 101  78 101  80 100
M  END
> <chiral flag>
0

> <version>
0

> <s_m_source_file>
/data/baiqing/PycharmProjects/Reinvent-master-3.2/result/LINK_invent/BTK/process_docking_weight1_custom_product_contain_oxygen_bond_distance_aromatic_linkinvent_7_9_3/rearranged_h_0188.sdf

> <i_m_source_file_index>
75

> <r_mmod_Potential_Energy-OPLS-2005>
37.1428108215332

> <r_mmod_Stretch_Energy-OPLS-2005>
112.56266784668

> <r_mmod_Bend_Energy-OPLS-2005>
182.370132446289

> <r_mmod_Torsional_Energy-OPLS-2005>
229.634567260742

> <r_mmod_Improper_Torsional_Energy-OPLS-2005>
7.23035144805908

> <r_mmod_Van_der_Waal_Energy-OPLS-2005>
110.686576843262

> <r_mmod_Electrostatic_Energy-OPLS-2005>
-431.688323974609

> <r_mmod_Solvation_Energy-OPLS-2005>
-251.568832397461

> <b_mmod_Minimization_Converged-OPLS-2005>
0

> <r_mmod_RMS_Derivative-OPLS-2005>
0.289382815361023

$$$$
76
                    3D
 Structure written by MMmdl.
163171  0  0  1  0            999 V2000
  -30.6759  -14.4476   20.4389 C   0  0  0  0  0  0
  -30.4244  -12.2502   19.4589 C   0  0  0  0  0  0
  -29.4974  -12.3903   18.2333 C   0  0  0  0  0  0
  -28.0138  -12.2944   18.6393 C   0  0  0  0  0  0
  -27.6488  -13.1905   19.8520 C   0  0  2  0  0  0
  -28.6822  -13.0447   20.9948 C   0  0  0  0  0  0
  -25.2541  -13.8162   20.5674 C   0  0  0  0  0  0
  -24.1817  -13.0499   20.9175 C   0  0  0  0  0  0
  -24.6337  -11.6907   20.8801 C   0  0  0  0  0  0
  -23.9046  -10.4298   21.0458 C   0  0  0  0  0  0
  -24.3618   -9.4201   21.9221 C   0  0  0  0  0  0
  -23.6298   -8.2245   22.0755 C   0  0  0  0  0  0
  -22.4286   -8.0290   21.3538 C   0  0  0  0  0  0
  -21.9940   -9.0267   20.4636 C   0  0  0  0  0  0
  -22.7254  -10.2144   20.3063 C   0  0  0  0  0  0
  -21.6852   -6.0749   22.5274 C   0  0  0  0  0  0
  -21.4018   -6.5648   23.8213 C   0  0  0  0  0  0
  -21.3655   -5.6795   24.9177 C   0  0  0  0  0  0
  -21.6042   -4.3059   24.7224 C   0  0  0  0  0  0
  -21.8824   -3.8157   23.4348 C   0  0  0  0  0  0
  -21.9193   -4.6975   22.3403 C   0  0  0  0  0  0
  -22.7814  -13.5239   21.1843 C   0  0  0  0  0  0
  -22.1658   -4.2154   21.0980 F   0  0  0  0  0  0
  -21.5627   -3.4544   25.7743 F   0  0  0  0  0  0
  -30.0264  -13.2661   20.4392 N   0  0  0  0  0  0
  -26.2938  -12.9283   20.3270 N   0  0  0  0  0  0
  -25.9244  -11.6484   20.5811 N   0  0  0  0  0  0
  -22.0476  -12.8252   22.0385 N   0  0  0  0  0  0
  -25.4349  -15.1930   20.4027 N   0  0  0  0  0  0
  -31.8705  -14.5762   20.1641 O   0  0  0  0  0  0
  -21.6643   -6.8903   21.4229 O   0  0  0  0  0  0
  -22.3504  -14.5559   20.6661 O   0  0  0  0  0  0
  -24.6131  -31.8689   23.1984 C   0  0  0  0  0  0
  -25.9033  -32.4770   23.8361 C   0  0  1  0  0  0
  -27.2486  -27.4576   20.0791 C   0  0  0  0  0  0
  -25.5936  -33.8571   24.2295 N   0  0  0  0  0  0
  -23.4018  -30.4979   21.5208 C   0  0  2  0  0  0
  -24.8581  -28.9479   20.1086 C   0  0  0  0  0  0
  -22.7434  -29.4724   22.4730 C   0  0  0  0  0  0
  -18.0320  -28.1342   22.8438 C   0  0  0  0  0  0
  -24.1520  -36.7363   23.2642 C   0  0  0  0  0  0
  -25.9218  -30.8524   21.3315 C   0  0  0  0  0  0
  -26.0104  -29.4729   20.7052 C   0  0  0  0  0  0
  -27.2107  -28.7322   20.6940 C   0  0  0  0  0  0
  -26.0769  -26.9278   19.5041 C   0  0  0  0  0  0
  -24.8812  -27.6690   19.5188 C   0  0  0  0  0  0
  -23.6224  -29.8140   20.1395 C   0  0  0  0  0  0
  -25.4087  -36.3040   24.0331 C   0  0  1  0  0  0
  -20.5926  -28.3654   23.1205 C   0  0  2  0  0  0
  -20.6757  -26.9368   22.5274 C   0  0  0  0  0  0
  -19.5723  -26.6399   21.5071 C   0  0  0  0  0  0
  -18.1932  -26.7897   22.1568 C   0  0  0  0  0  0
  -19.1586  -28.8786   23.2854 C   0  0  0  0  0  0
  -18.9533  -30.1364   23.8912 C   0  0  0  0  0  0
  -17.6548  -30.6511   24.0578 C   0  0  0  0  0  0
  -25.9056  -34.9434   23.5102 C   0  0  0  0  0  0
  -16.5436  -29.9065   23.6263 C   0  0  0  0  0  0
  -16.7326  -28.6507   23.0220 C   0  0  0  0  0  0
  -26.4485  -31.6593   25.0734 C   0  0  0  0  0  0
  -25.3769  -31.3773   26.1542 C   0  0  0  0  0  0
  -27.0321  -30.3048   24.6049 C   0  0  0  0  0  0
  -27.6033  -32.4326   25.7547 C   0  0  0  0  0  0
  -27.5567  -37.1790   24.8442 C   0  0  0  0  0  0
  -21.4134  -29.3150   22.3661 N   0  0  0  0  0  0
  -26.4262  -37.3715   23.9420 N   0  0  0  0  0  0
  -24.6630  -31.0929   22.0748 N   0  0  0  0  0  0
  -23.4299  -28.8190   23.2643 O   0  0  0  0  0  0
  -28.4312  -26.7984   19.8685 O   0  0  0  0  0  0
  -26.5590  -34.8948   22.4637 O   0  0  0  0  0  0
  -23.5330  -32.1342   23.7436 O   0  0  0  0  0  0
  -28.2827  -19.6955   21.0031 C   0  0  0  0  0  0
  -30.3899  -19.0115   20.1748 C   0  0  0  0  0  0
  -29.5887  -20.0606   20.7570 C   0  0  0  0  0  0
  -29.6274  -17.8757   19.9802 C   0  0  0  0  0  0
  -29.4759  -22.5389   20.9137 C   0  0  0  0  0  0
  -29.3862  -16.3165   18.0226 C   0  0  0  0  0  0
  -29.7114  -26.7430   21.8950 C   0  0  0  0  0  0
  -30.3697  -23.7770   21.0067 C   0  0  0  0  0  0
  -29.8525  -24.9476   20.1523 C   0  0  0  0  0  0
  -30.0699  -16.5829   19.3816 C   0  0  2  0  0  0
  -28.9007  -25.9247   20.8780 C   0  0  2  0  0  0
  -31.8447  -19.0818   19.7305 C   0  0  0  0  0  0
  -30.1020  -21.3552   21.0612 N   0  0  0  0  0  0
  -29.8376  -15.4848   20.3166 N   0  0  0  0  0  0
  -28.2597  -22.6722   20.7352 O   0  0  0  0  0  0
  -32.3953  -20.2851   19.9062 F   0  0  0  0  0  0
  -32.6119  -18.2034   20.3843 F   0  0  0  0  0  0
  -31.9404  -18.8049   18.4272 F   0  0  0  0  0  0
  -27.9583  -18.0835   20.4569 S   0  0  0  0  0  0
  -31.4617  -12.3688   19.1386 H   0  0  0  0  0  0
  -30.3598  -11.2581   19.9053 H   0  0  0  0  0  0
  -29.7326  -11.6166   17.5007 H   0  0  0  0  0  0
  -29.6850  -13.3321   17.7297 H   0  0  0  0  0  0
  -27.8157  -11.2511   18.8870 H   0  0  0  0  0  0
  -27.3716  -12.5300   17.7895 H   0  0  0  0  0  0
  -27.6662  -14.2136   19.4813 H   0  0  0  0  0  0
  -28.6185  -12.0617   21.4599 H   0  0  0  0  0  0
  -28.4619  -13.7612   21.7898 H   0  0  0  0  0  0
  -25.2766   -9.5685   22.4799 H   0  0  0  0  0  0
  -24.0010   -7.4639   22.7476 H   0  0  0  0  0  0
  -21.0891   -8.8808   19.8928 H   0  0  0  0  0  0
  -22.3762  -10.9701   19.6174 H   0  0  0  0  0  0
  -21.2005   -7.6151   23.9724 H   0  0  0  0  0  0
  -21.1468   -6.0522   25.9082 H   0  0  0  0  0  0
  -22.0606   -2.7610   23.2849 H   0  0  0  0  0  0
  -22.4091  -11.9926   22.4795 H   0  0  0  0  0  0
  -21.1057  -13.1233   22.2536 H   0  0  0  0  0  0
  -24.6736  -15.8543   20.4973 H   0  0  0  0  0  0
  -26.2925  -15.6228   20.0880 H   0  0  0  0  0  0
  -26.7137  -32.5513   23.1198 H   0  0  0  0  0  0
  -25.0044  -33.9707   25.0393 H   0  0  0  0  0  0
  -22.6790  -31.2997   21.3547 H   0  0  0  0  0  0
  -23.3681  -35.9807   23.3235 H   0  0  0  0  0  0
  -24.3669  -36.9058   22.2093 H   0  0  0  0  0  0
  -23.7408  -37.6598   23.6706 H   0  0  0  0  0  0
  -26.0199  -31.6060   20.5449 H   0  0  0  0  0  0
  -26.8146  -30.9219   21.9395 H   0  0  0  0  0  0
  -28.1209  -29.1629   21.0871 H   0  0  0  0  0  0
  -26.1106  -25.9667   19.0065 H   0  0  0  0  0  0
  -23.9897  -27.2744   19.0533 H   0  0  0  0  0  0
  -23.7443  -30.5744   19.3646 H   0  0  0  0  0  0
  -22.7526  -29.2251   19.8523 H   0  0  0  0  0  0
  -25.1213  -36.1901   25.0800 H   0  0  0  0  0  0
  -21.0043  -28.3229   24.1323 H   0  0  0  0  0  0
  -20.5521  -26.2284   23.3464 H   0  0  0  0  0  0
  -21.6612  -26.7246   22.1133 H   0  0  0  0  0  0
  -19.6878  -25.6333   21.1033 H   0  0  0  0  0  0
  -19.6690  -27.3245   20.6635 H   0  0  0  0  0  0
  -17.4131  -26.6641   21.4031 H   0  0  0  0  0  0
  -18.0387  -26.0036   22.8982 H   0  0  0  0  0  0
  -19.8044  -30.7073   24.2338 H   0  0  0  0  0  0
  -17.5154  -31.6219   24.5154 H   0  0  0  0  0  0
  -15.5418  -30.2983   23.7507 H   0  0  0  0  0  0
  -15.8758  -28.0860   22.6770 H   0  0  0  0  0  0
  -24.5847  -30.7190   25.7988 H   0  0  0  0  0  0
  -24.9082  -32.2998   26.4992 H   0  0  0  0  0  0
  -25.8198  -30.8989   27.0281 H   0  0  0  0  0  0
  -26.2776  -29.6756   24.1323 H   0  0  0  0  0  0
  -27.4365  -29.7397   25.4446 H   0  0  0  0  0  0
  -27.8513  -30.4362   23.8963 H   0  0  0  0  0  0
  -27.2503  -33.3496   26.2235 H   0  0  0  0  0  0
  -28.3832  -32.7058   25.0449 H   0  0  0  0  0  0
  -28.0692  -31.8397   26.5412 H   0  0  0  0  0  0
  -28.2389  -38.0239   24.7408 H   0  0  0  0  0  0
  -28.1183  -36.2707   24.6184 H   0  0  0  0  0  0
  -27.2304  -37.1353   25.8854 H   0  0  0  0  0  0
  -20.9192  -29.9224   21.7250 H   0  0  0  0  0  0
  -26.0138  -38.2777   24.1459 H   0  0  0  0  0  0
  -27.4801  -20.2628   21.4556 H   0  0  0  0  0  0
  -29.6006  -17.1202   17.3209 H   0  0  0  0  0  0
  -28.3008  -16.2304   18.0811 H   0  0  0  0  0  0
  -29.7578  -15.4148   17.5461 H   0  0  0  0  0  0
  -30.1428  -26.0848   22.6395 H   0  0  0  0  0  0
  -29.0997  -27.4885   22.3997 H   0  0  0  0  0  0
  -30.5827  -27.2354   21.4530 H   0  0  0  0  0  0
  -31.3994  -23.5269   20.7255 H   0  0  0  0  0  0
  -30.4224  -24.0944   22.0410 H   0  0  0  0  0  0
  -29.3577  -24.5595   19.2636 H   0  0  0  0  0  0
  -30.7253  -25.4796   19.7746 H   0  0  0  0  0  0
  -31.1360  -16.6350   19.1645 H   0  0  0  0  0  0
  -28.0593  -25.4013   21.3517 H   0  0  0  0  0  0
  -31.0873  -21.4195   21.3032 H   0  0  0  0  0  0
  -28.8836  -15.3369   20.6078 H   0  0  0  0  0  0
  1 25  1  0  0  0
  1 30  2  0  0  0
  1 84  1  0  0  0
  2  3  1  0  0  0
  2 25  1  0  0  0
  2 90  1  0  0  0
  2 91  1  0  0  0
  3  4  1  0  0  0
  3 92  1  0  0  0
  3 93  1  0  0  0
  4  5  1  0  0  0
  4 94  1  0  0  0
  4 95  1  0  0  0
  5  6  1  0  0  0
  5 26  1  0  0  0
  5 96  1  0  0  0
  6 25  1  0  0  0
  6 97  1  0  0  0
  6 98  1  0  0  0
  7  8  2  0  0  0
  7 26  1  0  0  0
  7 29  1  0  0  0
  8  9  1  0  0  0
  8 22  1  0  0  0
  9 10  1  0  0  0
  9 27  2  0  0  0
 10 11  2  0  0  0
 10 15  1  0  0  0
 11 12  1  0  0  0
 11 99  1  0  0  0
 12 13  2  0  0  0
 12100  1  0  0  0
 13 14  1  0  0  0
 13 31  1  0  0  0
 14 15  2  0  0  0
 14101  1  0  0  0
 15102  1  0  0  0
 16 17  2  0  0  0
 16 21  1  0  0  0
 16 31  1  0  0  0
 17 18  1  0  0  0
 17103  1  0  0  0
 18 19  2  0  0  0
 18104  1  0  0  0
 19 20  1  0  0  0
 19 24  1  0  0  0
 20 21  2  0  0  0
 20105  1  0  0  0
 21 23  1  0  0  0
 22 28  1  0  0  0
 22 32  2  0  0  0
 26 27  1  0  0  0
 28106  1  0  0  0
 28107  1  0  0  0
 29108  1  0  0  0
 29109  1  0  0  0
 33 34  1  0  0  0
 33 66  1  0  0  0
 33 70  2  0  0  0
 34 36  1  0  0  0
 34 59  1  0  0  0
 34110  1  0  0  0
 35 44  2  0  0  0
 35 45  1  0  0  0
 35 68  1  0  0  0
 36 56  1  0  0  0
 36111  1  0  0  0
 37 39  1  0  0  0
 37 47  1  0  0  0
 37 66  1  0  0  0
 37112  1  0  0  0
 38 43  2  0  0  0
 38 46  1  0  0  0
 38 47  1  0  0  0
 39 64  1  0  0  0
 39 67  2  0  0  0
 40 52  1  0  0  0
 40 53  2  0  0  0
 40 58  1  0  0  0
 41113  1  0  0  0
 41114  1  0  0  0
 41115  1  0  0  0
 41 48  1  0  0  0
 42 43  1  0  0  0
 42 66  1  0  0  0
 42116  1  0  0  0
 42117  1  0  0  0
 43 44  1  0  0  0
 44118  1  0  0  0
 45 46  2  0  0  0
 45119  1  0  0  0
 46120  1  0  0  0
 47121  1  0  0  0
 47122  1  0  0  0
 48 56  1  0  0  0
 48 65  1  0  0  0
 48123  1  0  0  0
 49 50  1  0  0  0
 49 53  1  0  0  0
 49 64  1  0  0  0
 49124  1  0  0  0
 50 51  1  0  0  0
 50125  1  0  0  0
 50126  1  0  0  0
 51 52  1  0  0  0
 51127  1  0  0  0
 51128  1  0  0  0
 52129  1  0  0  0
 52130  1  0  0  0
 53 54  1  0  0  0
 54 55  2  0  0  0
 54131  1  0  0  0
 55 57  1  0  0  0
 55132  1  0  0  0
 56 69  2  0  0  0
 57 58  2  0  0  0
 57133  1  0  0  0
 58134  1  0  0  0
 59 60  1  0  0  0
 59 61  1  0  0  0
 59 62  1  0  0  0
 60135  1  0  0  0
 60136  1  0  0  0
 60137  1  0  0  0
 61138  1  0  0  0
 61139  1  0  0  0
 61140  1  0  0  0
 62141  1  0  0  0
 62142  1  0  0  0
 62143  1  0  0  0
 63 65  1  0  0  0
 63144  1  0  0  0
 63145  1  0  0  0
 63146  1  0  0  0
 64147  1  0  0  0
 65148  1  0  0  0
 68 81  1  0  0  0
 71 73  2  0  0  0
 71 89  1  0  0  0
 71149  1  0  0  0
 72 73  1  0  0  0
 72 74  2  0  0  0
 72 82  1  0  0  0
 73 83  1  0  0  0
 74 80  1  0  0  0
 74 89  1  0  0  0
 75 78  1  0  0  0
 75 83  1  0  0  0
 75 85  2  0  0  0
 76150  1  0  0  0
 76151  1  0  0  0
 76152  1  0  0  0
 76 80  1  0  0  0
 77153  1  0  0  0
 77154  1  0  0  0
 77155  1  0  0  0
 77 81  1  0  0  0
 78 79  1  0  0  0
 78156  1  0  0  0
 78157  1  0  0  0
 79 81  1  0  0  0
 79158  1  0  0  0
 79159  1  0  0  0
 80 84  1  0  0  0
 80160  1  0  0  0
 81161  1  0  0  0
 82 86  1  0  0  0
 82 87  1  0  0  0
 82 88  1  0  0  0
 83162  1  0  0  0
 84163  1  0  0  0
M  ISO  4   1 100  68 101  81 101  84 100
M  END
> <chiral flag>
0

> <version>
0

> <s_m_source_file>
/data/baiqing/PycharmProjects/Reinvent-master-3.2/result/LINK_invent/BTK/process_docking_weight1_custom_product_contain_oxygen_bond_distance_aromatic_linkinvent_7_9_3/rearranged_h_0188.sdf

> <i_m_source_file_index>
76

> <r_mmod_Potential_Energy-OPLS-2005>
-61.6797370910645

> <r_mmod_Stretch_Energy-OPLS-2005>
34.2588386535645

> <r_mmod_Bend_Energy-OPLS-2005>
105.783950805664

> <r_mmod_Torsional_Energy-OPLS-2005>
259.285247802734

> <r_mmod_Improper_Torsional_Energy-OPLS-2005>
15.6756172180176

> <r_mmod_Van_der_Waal_Energy-OPLS-2005>
133.423812866211

> <r_mmod_Electrostatic_Energy-OPLS-2005>
-417.263641357422

> <r_mmod_Solvation_Energy-OPLS-2005>
-217.213760375977

> <b_mmod_Minimization_Converged-OPLS-2005>
0

> <r_mmod_RMS_Derivative-OPLS-2005>
12.9321413040161

$$$$
77
                    3D
 Structure written by MMmdl.
162170  0  0  1  0            999 V2000
  -30.6782  -14.5098   20.5156 C   0  0  0  0  0  0
  -30.4263  -12.3099   19.4409 C   0  0  0  0  0  0
  -29.5031  -12.4888   18.2167 C   0  0  0  0  0  0
  -28.0228  -12.3532   18.6253 C   0  0  0  0  0  0
  -27.6611  -13.2065   19.8709 C   0  0  2  0  0  0
  -28.7013  -13.0152   20.9974 C   0  0  0  0  0  0
  -25.2605  -13.8154   20.5674 C   0  0  0  0  0  0
  -24.1855  -13.0438   20.9175 C   0  0  0  0  0  0
  -24.6402  -11.6903   20.8733 C   0  0  0  0  0  0
  -23.9060  -10.4290   21.0412 C   0  0  0  0  0  0
  -24.3621   -9.4208   21.9188 C   0  0  0  0  0  0
  -23.6298   -8.2245   22.0754 C   0  0  0  0  0  0
  -22.4277   -8.0287   21.3546 C   0  0  0  0  0  0
  -21.9912   -9.0259   20.4647 C   0  0  0  0  0  0
  -22.7237  -10.2136   20.3059 C   0  0  0  0  0  0
  -21.6851   -6.0741   22.5282 C   0  0  0  0  0  0
  -21.4012   -6.5645   23.8216 C   0  0  0  0  0  0
  -21.3659   -5.6797   24.9180 C   0  0  0  0  0  0
  -21.6039   -4.3059   24.7226 C   0  0  0  0  0  0
  -21.8821   -3.8154   23.4346 C   0  0  0  0  0  0
  -21.9194   -4.6970   22.3405 C   0  0  0  0  0  0
  -22.7878  -13.5244   21.1841 C   0  0  0  0  0  0
  -22.1663   -4.2157   21.0982 F   0  0  0  0  0  0
  -21.5628   -3.4542   25.7738 F   0  0  0  0  0  0
  -30.0306  -13.3140   20.4416 N   0  0  0  0  0  0
  -26.3027  -12.9322   20.3335 N   0  0  0  0  0  0
  -25.9332  -11.6481   20.5763 N   0  0  0  0  0  0
  -22.0522  -12.8238   22.0396 N   0  0  0  0  0  0
  -25.4332  -15.1876   20.4081 N   0  0  0  0  0  0
  -31.8478  -14.6399   20.1518 O   0  0  0  0  0  0
  -21.6641   -6.8888   21.4246 O   0  0  0  0  0  0
  -22.3566  -14.5557   20.6701 O   0  0  0  0  0  0
  -24.6142  -31.8673   23.2113 C   0  0  0  0  0  0
  -25.9030  -32.4835   23.8408 C   0  0  1  0  0  0
  -27.2304  -27.4269   20.1133 C   0  0  0  0  0  0
  -25.5890  -33.8633   24.2336 N   0  0  0  0  0  0
  -23.4045  -30.4899   21.5498 C   0  0  2  0  0  0
  -24.8555  -28.9581   20.1127 C   0  0  0  0  0  0
  -22.7416  -29.4635   22.4976 C   0  0  0  0  0  0
  -18.0264  -28.1377   22.8498 C   0  0  0  0  0  0
  -24.1479  -36.7306   23.2634 C   0  0  0  0  0  0
  -25.9329  -30.8345   21.3636 C   0  0  0  0  0  0
  -26.0146  -29.4677   20.7127 C   0  0  0  0  0  0
  -27.2100  -28.7104   20.7076 C   0  0  0  0  0  0
  -26.0617  -26.9379   19.4961 C   0  0  0  0  0  0
  -24.8743  -27.6946   19.4962 C   0  0  0  0  0  0
  -23.6173  -29.8252   20.1629 C   0  0  0  0  0  0
  -25.4103  -36.3110   24.0333 C   0  0  1  0  0  0
  -20.5862  -28.3660   23.1322 C   0  0  2  0  0  0
  -20.6750  -26.9394   22.5425 C   0  0  0  0  0  0
  -19.5728  -26.6384   21.5214 C   0  0  0  0  0  0
  -18.1908  -26.7921   22.1628 C   0  0  0  0  0  0
  -19.1520  -28.8829   23.2910 C   0  0  0  0  0  0
  -18.9449  -30.1437   23.8924 C   0  0  0  0  0  0
  -17.6458  -30.6586   24.0559 C   0  0  0  0  0  0
  -25.9032  -34.9481   23.5125 C   0  0  0  0  0  0
  -16.5347  -29.9097   23.6320 C   0  0  0  0  0  0
  -16.7256  -28.6505   23.0353 C   0  0  0  0  0  0
  -26.4474  -31.6603   25.0724 C   0  0  0  0  0  0
  -25.3757  -31.3714   26.1486 C   0  0  0  0  0  0
  -27.0277  -30.3045   24.6068 C   0  0  0  0  0  0
  -27.6047  -32.4323   25.7490 C   0  0  0  0  0  0
  -27.5573  -37.1813   24.8467 C   0  0  0  0  0  0
  -21.4139  -29.3026   22.3729 N   0  0  0  0  0  0
  -26.4282  -37.3801   23.9413 N   0  0  0  0  0  0
  -24.6686  -31.0786   22.1007 N   0  0  0  0  0  0
  -23.4183  -28.8164   23.3008 O   0  0  0  0  0  0
  -28.3513  -26.6252   20.1545 O   0  0  0  0  0  0
  -26.5593  -34.8924   22.4692 O   0  0  0  0  0  0
  -23.5327  -32.1413   23.7510 O   0  0  0  0  0  0
  -30.3001  -18.9686   19.4702 C   0  0  0  0  0  0
  -30.6348  -17.5761   19.5351 C   0  0  0  0  0  0
  -29.3557  -19.3689   20.3715 C   0  0  0  0  0  0
  -29.9442  -16.8853   20.5265 C   0  0  0  0  0  0
  -31.6157  -17.0186   18.5470 C   0  0  0  0  0  0
  -29.8462  -21.1491   22.6780 C   0  0  0  0  0  0
  -28.8841  -26.0519   22.4131 C   0  0  0  0  0  0
  -28.8879  -24.2100   20.6015 C   0  0  0  0  0  0
  -29.4318  -21.6843   21.2938 C   0  0  2  0  0  0
  -28.2468  -25.5423   21.1078 C   0  0  2  0  0  0
  -28.5341  -22.9603   21.4672 C   0  0  2  0  0  0
  -29.9087  -15.5589   20.8901 N   0  0  0  0  0  0
  -28.7651  -20.6397   20.4882 N   0  0  0  0  0  0
  -27.2188  -22.5189   21.2054 O   0  0  0  0  0  0
  -28.8636  -18.0063   21.3536 S   0  0  0  0  0  0
  -31.4729  -12.4043   19.1444 H   0  0  0  0  0  0
  -30.3245  -11.3060   19.8572 H   0  0  0  0  0  0
  -29.7487  -11.7493   17.4530 H   0  0  0  0  0  0
  -29.6734  -13.4660   17.7620 H   0  0  0  0  0  0
  -27.8363  -11.2988   18.8341 H   0  0  0  0  0  0
  -27.3753  -12.6144   17.7871 H   0  0  0  0  0  0
  -27.6982  -14.2488   19.5559 H   0  0  0  0  0  0
  -28.6802  -11.9889   21.3672 H   0  0  0  0  0  0
  -28.4649  -13.6420   21.8588 H   0  0  0  0  0  0
  -25.2771   -9.5687   22.4751 H   0  0  0  0  0  0
  -24.0011   -7.4638   22.7473 H   0  0  0  0  0  0
  -21.0843   -8.8778   19.8953 H   0  0  0  0  0  0
  -22.3703  -10.9680   19.6163 H   0  0  0  0  0  0
  -21.2002   -7.6153   23.9723 H   0  0  0  0  0  0
  -21.1478   -6.0525   25.9080 H   0  0  0  0  0  0
  -22.0598   -2.7614   23.2844 H   0  0  0  0  0  0
  -22.4141  -11.9890   22.4777 H   0  0  0  0  0  0
  -21.1142  -13.1263   22.2609 H   0  0  0  0  0  0
  -24.6664  -15.8420   20.5183 H   0  0  0  0  0  0
  -26.2831  -15.6255   20.0763 H   0  0  0  0  0  0
  -26.7093  -32.5552   23.1168 H   0  0  0  0  0  0
  -25.0050  -33.9809   25.0480 H   0  0  0  0  0  0
  -22.6916  -31.3047   21.4108 H   0  0  0  0  0  0
  -23.3742  -35.9642   23.3310 H   0  0  0  0  0  0
  -24.3557  -36.8911   22.2043 H   0  0  0  0  0  0
  -23.7235  -37.6517   23.6641 H   0  0  0  0  0  0
  -26.0393  -31.5986   20.5923 H   0  0  0  0  0  0
  -26.8222  -30.8952   21.9790 H   0  0  0  0  0  0
  -28.1025  -29.0925   21.1828 H   0  0  0  0  0  0
  -26.0700  -25.9625   19.0308 H   0  0  0  0  0  0
  -23.9842  -27.2988   19.0267 H   0  0  0  0  0  0
  -23.7305  -30.6025   19.4067 H   0  0  0  0  0  0
  -22.7415  -29.2479   19.8626 H   0  0  0  0  0  0
  -25.1280  -36.1967   25.0827 H   0  0  0  0  0  0
  -20.9959  -28.3218   24.1439 H   0  0  0  0  0  0
  -20.5630  -26.2267   23.3610 H   0  0  0  0  0  0
  -21.6621  -26.7415   22.1229 H   0  0  0  0  0  0
  -19.6888  -25.6296   21.1230 H   0  0  0  0  0  0
  -19.6672  -27.3204   20.6749 H   0  0  0  0  0  0
  -17.4180  -26.6668   21.4031 H   0  0  0  0  0  0
  -18.0313  -26.0061   22.9020 H   0  0  0  0  0  0
  -19.7926  -30.7235   24.2318 H   0  0  0  0  0  0
  -17.5014  -31.6274   24.5152 H   0  0  0  0  0  0
  -15.5349  -30.3014   23.7619 H   0  0  0  0  0  0
  -15.8648  -28.0828   22.7073 H   0  0  0  0  0  0
  -24.5941  -30.7038   25.7850 H   0  0  0  0  0  0
  -24.8937  -32.2870   26.4924 H   0  0  0  0  0  0
  -25.8137  -30.8915   27.0245 H   0  0  0  0  0  0
  -26.2810  -29.6861   24.1081 H   0  0  0  0  0  0
  -27.4005  -29.7230   25.4505 H   0  0  0  0  0  0
  -27.8666  -30.4360   23.9230 H   0  0  0  0  0  0
  -27.2665  -33.3618   26.2085 H   0  0  0  0  0  0
  -28.3865  -32.6894   25.0332 H   0  0  0  0  0  0
  -28.0707  -31.8435   26.5404 H   0  0  0  0  0  0
  -28.2604  -38.0096   24.7503 H   0  0  0  0  0  0
  -28.1049  -36.2628   24.6305 H   0  0  0  0  0  0
  -27.2284  -37.1485   25.8869 H   0  0  0  0  0  0
  -20.9282  -29.8789   21.6997 H   0  0  0  0  0  0
  -26.0161  -38.2871   24.1446 H   0  0  0  0  0  0
  -30.7523  -19.6256   18.7411 H   0  0  0  0  0  0
  -31.8546  -17.7423   17.7685 H   0  0  0  0  0  0
  -31.2240  -16.1339   18.0456 H   0  0  0  0  0  0
  -32.5593  -16.7606   19.0266 H   0  0  0  0  0  0
  -28.9775  -20.8321   23.2569 H   0  0  0  0  0  0
  -30.3606  -21.9190   23.2548 H   0  0  0  0  0  0
  -30.5323  -20.3048   22.6088 H   0  0  0  0  0  0
  -28.3817  -26.9521   22.7681 H   0  0  0  0  0  0
  -29.9369  -26.2965   22.2705 H   0  0  0  0  0  0
  -28.8162  -25.3212   23.2182 H   0  0  0  0  0  0
  -28.5916  -24.0279   19.5678 H   0  0  0  0  0  0
  -29.9718  -24.3378   20.5789 H   0  0  0  0  0  0
  -30.3455  -21.9719   20.7684 H   0  0  0  0  0  0
  -27.1966  -25.3274   21.3193 H   0  0  0  0  0  0
  -28.5712  -23.2614   22.5134 H   0  0  0  0  0  0
  -29.0661  -15.2796   21.3710 H   0  0  0  0  0  0
  -28.6307  -20.9943   19.5422 H   0  0  0  0  0  0
  -27.3764  -21.5988   20.9622 H   0  0  0  0  0  0
  1 25  1  0  0  0
  1 30  2  0  0  0
  1 82  1  0  0  0
  2  3  1  0  0  0
  2 25  1  0  0  0
  2 86  1  0  0  0
  2 87  1  0  0  0
  3  4  1  0  0  0
  3 88  1  0  0  0
  3 89  1  0  0  0
  4  5  1  0  0  0
  4 90  1  0  0  0
  4 91  1  0  0  0
  5  6  1  0  0  0
  5 26  1  0  0  0
  5 92  1  0  0  0
  6 25  1  0  0  0
  6 93  1  0  0  0
  6 94  1  0  0  0
  7  8  2  0  0  0
  7 26  1  0  0  0
  7 29  1  0  0  0
  8  9  1  0  0  0
  8 22  1  0  0  0
  9 10  1  0  0  0
  9 27  2  0  0  0
 10 11  2  0  0  0
 10 15  1  0  0  0
 11 12  1  0  0  0
 11 95  1  0  0  0
 12 13  2  0  0  0
 12 96  1  0  0  0
 13 14  1  0  0  0
 13 31  1  0  0  0
 14 15  2  0  0  0
 14 97  1  0  0  0
 15 98  1  0  0  0
 16 17  2  0  0  0
 16 21  1  0  0  0
 16 31  1  0  0  0
 17 18  1  0  0  0
 17 99  1  0  0  0
 18 19  2  0  0  0
 18100  1  0  0  0
 19 20  1  0  0  0
 19 24  1  0  0  0
 20 21  2  0  0  0
 20101  1  0  0  0
 21 23  1  0  0  0
 22 28  1  0  0  0
 22 32  2  0  0  0
 26 27  1  0  0  0
 28102  1  0  0  0
 28103  1  0  0  0
 29104  1  0  0  0
 29105  1  0  0  0
 33 34  1  0  0  0
 33 66  1  0  0  0
 33 70  2  0  0  0
 34 36  1  0  0  0
 34 59  1  0  0  0
 34106  1  0  0  0
 35 44  2  0  0  0
 35 45  1  0  0  0
 35 68  1  0  0  0
 36 56  1  0  0  0
 36107  1  0  0  0
 37 39  1  0  0  0
 37 47  1  0  0  0
 37 66  1  0  0  0
 37108  1  0  0  0
 38 43  2  0  0  0
 38 46  1  0  0  0
 38 47  1  0  0  0
 39 64  1  0  0  0
 39 67  2  0  0  0
 40 52  1  0  0  0
 40 53  2  0  0  0
 40 58  1  0  0  0
 41109  1  0  0  0
 41110  1  0  0  0
 41111  1  0  0  0
 41 48  1  0  0  0
 42 43  1  0  0  0
 42 66  1  0  0  0
 42112  1  0  0  0
 42113  1  0  0  0
 43 44  1  0  0  0
 44114  1  0  0  0
 45 46  2  0  0  0
 45115  1  0  0  0
 46116  1  0  0  0
 47117  1  0  0  0
 47118  1  0  0  0
 48 56  1  0  0  0
 48 65  1  0  0  0
 48119  1  0  0  0
 49 50  1  0  0  0
 49 53  1  0  0  0
 49 64  1  0  0  0
 49120  1  0  0  0
 50 51  1  0  0  0
 50121  1  0  0  0
 50122  1  0  0  0
 51 52  1  0  0  0
 51123  1  0  0  0
 51124  1  0  0  0
 52125  1  0  0  0
 52126  1  0  0  0
 53 54  1  0  0  0
 54 55  2  0  0  0
 54127  1  0  0  0
 55 57  1  0  0  0
 55128  1  0  0  0
 56 69  2  0  0  0
 57 58  2  0  0  0
 57129  1  0  0  0
 58130  1  0  0  0
 59 60  1  0  0  0
 59 61  1  0  0  0
 59 62  1  0  0  0
 60131  1  0  0  0
 60132  1  0  0  0
 60133  1  0  0  0
 61134  1  0  0  0
 61135  1  0  0  0
 61136  1  0  0  0
 62137  1  0  0  0
 62138  1  0  0  0
 62139  1  0  0  0
 63 65  1  0  0  0
 63140  1  0  0  0
 63141  1  0  0  0
 63142  1  0  0  0
 64143  1  0  0  0
 65144  1  0  0  0
 68 80  1  0  0  0
 71 72  1  0  0  0
 71 73  2  0  0  0
 71145  1  0  0  0
 72 74  2  0  0  0
 72 75  1  0  0  0
 73 83  1  0  0  0
 73 85  1  0  0  0
 74 82  1  0  0  0
 74 85  1  0  0  0
 75146  1  0  0  0
 75147  1  0  0  0
 75148  1  0  0  0
 76149  1  0  0  0
 76150  1  0  0  0
 76151  1  0  0  0
 76 79  1  0  0  0
 77152  1  0  0  0
 77153  1  0  0  0
 77154  1  0  0  0
 77 80  1  0  0  0
 78 80  1  0  0  0
 78 81  1  0  0  0
 78155  1  0  0  0
 78156  1  0  0  0
 79 81  1  0  0  0
 79 83  1  0  0  0
 79157  1  0  0  0
 80158  1  0  0  0
 81 84  1  0  0  0
 81159  1  0  0  0
 82160  1  0  0  0
 83161  1  0  0  0
 84162  1  0  0  0
M  ISO  4   1 100  68 101  80 101  82 100
M  END
> <chiral flag>
0

> <version>
0

> <s_m_source_file>
/data/baiqing/PycharmProjects/Reinvent-master-3.2/result/LINK_invent/BTK/process_docking_weight1_custom_product_contain_oxygen_bond_distance_aromatic_linkinvent_7_9_3/rearranged_h_0188.sdf

> <i_m_source_file_index>
77

> <r_mmod_Potential_Energy-OPLS-2005>
-49.1070022583008

> <r_mmod_Stretch_Energy-OPLS-2005>
43.5733833312988

> <r_mmod_Bend_Energy-OPLS-2005>
118.715797424316

> <r_mmod_Torsional_Energy-OPLS-2005>
320.273681640625

> <r_mmod_Improper_Torsional_Energy-OPLS-2005>
9.69732856750488

> <r_mmod_Van_der_Waal_Energy-OPLS-2005>
143.221069335938

> <r_mmod_Electrostatic_Energy-OPLS-2005>
-486.852325439453

> <r_mmod_Solvation_Energy-OPLS-2005>
-217.691162109375

> <b_mmod_Minimization_Converged-OPLS-2005>
0

> <r_mmod_RMS_Derivative-OPLS-2005>
1.92307007312775

$$$$
78
                    3D
 Structure written by MMmdl.
158166  0  0  1  0            999 V2000
  -30.6941  -14.4764   20.5854 C   0  0  0  0  0  0
  -30.4305  -12.3169   19.4171 C   0  0  0  0  0  0
  -29.4975  -12.5070   18.2026 C   0  0  0  0  0  0
  -28.0184  -12.3634   18.6160 C   0  0  0  0  0  0
  -27.6623  -13.2031   19.8722 C   0  0  2  0  0  0
  -28.7045  -12.9831   20.9924 C   0  0  0  0  0  0
  -25.2603  -13.8146   20.5659 C   0  0  0  0  0  0
  -24.1853  -13.0429   20.9178 C   0  0  0  0  0  0
  -24.6402  -11.6894   20.8731 C   0  0  0  0  0  0
  -23.9066  -10.4282   21.0403 C   0  0  0  0  0  0
  -24.3617   -9.4199   21.9185 C   0  0  0  0  0  0
  -23.6291   -8.2233   22.0757 C   0  0  0  0  0  0
  -22.4275   -8.0276   21.3542 C   0  0  0  0  0  0
  -21.9909   -9.0249   20.4640 C   0  0  0  0  0  0
  -22.7239  -10.2126   20.3048 C   0  0  0  0  0  0
  -21.6852   -6.0734   22.5282 C   0  0  0  0  0  0
  -21.4010   -6.5637   23.8215 C   0  0  0  0  0  0
  -21.3660   -5.6790   24.9174 C   0  0  0  0  0  0
  -21.6042   -4.3055   24.7223 C   0  0  0  0  0  0
  -21.8822   -3.8146   23.4346 C   0  0  0  0  0  0
  -21.9192   -4.6961   22.3403 C   0  0  0  0  0  0
  -22.7876  -13.5232   21.1843 C   0  0  0  0  0  0
  -22.1664   -4.2149   21.0981 F   0  0  0  0  0  0
  -21.5631   -3.4540   25.7736 F   0  0  0  0  0  0
  -30.0328  -13.2963   20.4395 N   0  0  0  0  0  0
  -26.3034  -12.9305   20.3344 N   0  0  0  0  0  0
  -25.9327  -11.6472   20.5759 N   0  0  0  0  0  0
  -22.0517  -12.8214   22.0391 N   0  0  0  0  0  0
  -25.4317  -15.1861   20.4030 N   0  0  0  0  0  0
  -31.8308  -14.6685   20.1411 O   0  0  0  0  0  0
  -21.6640   -6.8876   21.4242 O   0  0  0  0  0  0
  -22.3566  -14.5546   20.6701 O   0  0  0  0  0  0
  -24.6144  -31.8681   23.2094 C   0  0  0  0  0  0
  -25.9035  -32.4824   23.8395 C   0  0  1  0  0  0
  -27.2381  -27.4337   20.1063 C   0  0  0  0  0  0
  -25.5897  -33.8623   24.2327 N   0  0  0  0  0  0
  -23.4036  -30.4899   21.5487 C   0  0  2  0  0  0
  -24.8531  -28.9487   20.1214 C   0  0  0  0  0  0
  -22.7403  -29.4668   22.4990 C   0  0  0  0  0  0
  -18.0268  -28.1395   22.8491 C   0  0  0  0  0  0
  -24.1487  -36.7307   23.2643 C   0  0  0  0  0  0
  -25.9320  -30.8310   21.3651 C   0  0  0  0  0  0
  -26.0106  -29.4610   20.7231 C   0  0  0  0  0  0
  -27.2073  -28.7075   20.7197 C   0  0  0  0  0  0
  -26.0705  -26.9352   19.4980 C   0  0  0  0  0  0
  -24.8765  -27.6824   19.5094 C   0  0  0  0  0  0
  -23.6144  -29.8159   20.1654 C   0  0  0  0  0  0
  -25.4104  -36.3103   24.0341 C   0  0  1  0  0  0
  -20.5861  -28.3674   23.1317 C   0  0  2  0  0  0
  -20.6766  -26.9415   22.5415 C   0  0  0  0  0  0
  -19.5741  -26.6391   21.5225 C   0  0  0  0  0  0
  -18.1914  -26.7946   22.1624 C   0  0  0  0  0  0
  -19.1521  -28.8851   23.2906 C   0  0  0  0  0  0
  -18.9455  -30.1460   23.8913 C   0  0  0  0  0  0
  -17.6457  -30.6602   24.0570 C   0  0  0  0  0  0
  -25.9026  -34.9472   23.5125 C   0  0  0  0  0  0
  -16.5343  -29.9106   23.6339 C   0  0  0  0  0  0
  -16.7258  -28.6528   23.0349 C   0  0  0  0  0  0
  -26.4464  -31.6604   25.0722 C   0  0  0  0  0  0
  -25.3738  -31.3694   26.1475 C   0  0  0  0  0  0
  -27.0312  -30.3056   24.6093 C   0  0  0  0  0  0
  -27.6032  -32.4332   25.7492 C   0  0  0  0  0  0
  -27.5575  -37.1807   24.8466 C   0  0  0  0  0  0
  -21.4132  -29.3048   22.3723 N   0  0  0  0  0  0
  -26.4285  -37.3789   23.9411 N   0  0  0  0  0  0
  -24.6677  -31.0782   22.0994 N   0  0  0  0  0  0
  -23.4175  -28.8217   23.3037 O   0  0  0  0  0  0
  -28.3955  -26.6968   20.0165 O   0  0  0  0  0  0
  -26.5591  -34.8922   22.4689 O   0  0  0  0  0  0
  -23.5332  -32.1432   23.7483 O   0  0  0  0  0  0
  -29.4850  -17.9199   21.4436 C   0  0  0  0  0  0
  -30.3387  -16.8555   21.2743 C   0  0  0  0  0  0
  -31.5799  -18.6638   21.5895 C   0  0  0  0  0  0
  -28.8548  -20.9688   21.6878 C   0  0  0  0  0  0
  -32.7902  -19.5331   21.7544 C   0  0  0  0  0  0
  -28.4208  -24.4371   21.0629 C   0  0  0  0  0  0
  -29.1002  -23.5899   22.1756 C   0  0  0  0  0  0
  -28.7712  -25.9469   21.1751 C   0  0  0  0  0  0
  -28.4837  -22.2085   22.5412 C   0  0  1  0  0  0
  -30.2809  -19.0377   21.6453 N   0  0  0  0  0  0
  -31.6125  -17.3450   21.3464 N   0  3  0  0  0  0
  -29.9596  -15.4851   21.0982 N   0  0  0  0  0  0
  -30.0558  -20.4030   21.9303 N   0  0  0  0  0  0
  -28.0369  -20.5063   20.8843 O   0  0  0  0  0  0
  -27.1551  -22.3232   22.6180 F   0  0  0  0  0  0
  -31.4733  -12.4300   19.1149 H   0  0  0  0  0  0
  -30.3446  -11.3036   19.8136 H   0  0  0  0  0  0
  -29.7393  -11.7812   17.4248 H   0  0  0  0  0  0
  -29.6618  -13.4917   17.7622 H   0  0  0  0  0  0
  -27.8308  -11.3074   18.8116 H   0  0  0  0  0  0
  -27.3673  -12.6382   17.7851 H   0  0  0  0  0  0
  -27.7051  -14.2505   19.5746 H   0  0  0  0  0  0
  -28.6859  -11.9455   21.3298 H   0  0  0  0  0  0
  -28.4647  -13.5774   21.8752 H   0  0  0  0  0  0
  -25.2767   -9.5673   22.4755 H   0  0  0  0  0  0
  -24.0001   -7.4627   22.7472 H   0  0  0  0  0  0
  -21.0848   -8.8760   19.8944 H   0  0  0  0  0  0
  -22.3707  -10.9658   19.6149 H   0  0  0  0  0  0
  -21.2000   -7.6146   23.9715 H   0  0  0  0  0  0
  -21.1479   -6.0521   25.9075 H   0  0  0  0  0  0
  -22.0601   -2.7610   23.2847 H   0  0  0  0  0  0
  -22.4130  -11.9855   22.4746 H   0  0  0  0  0  0
  -21.1132  -13.1228   22.2597 H   0  0  0  0  0  0
  -24.6548  -15.8329   20.4844 H   0  0  0  0  0  0
  -26.2654  -15.6180   20.0258 H   0  0  0  0  0  0
  -26.7113  -32.5538   23.1169 H   0  0  0  0  0  0
  -25.0065  -33.9794   25.0484 H   0  0  0  0  0  0
  -22.6926  -31.3065   21.4045 H   0  0  0  0  0  0
  -23.3750  -35.9643   23.3306 H   0  0  0  0  0  0
  -24.3582  -36.8916   22.2058 H   0  0  0  0  0  0
  -23.7238  -37.6512   23.6654 H   0  0  0  0  0  0
  -26.0428  -31.5911   20.5902 H   0  0  0  0  0  0
  -26.8212  -30.8911   21.9805 H   0  0  0  0  0  0
  -28.1053  -29.1048   21.1717 H   0  0  0  0  0  0
  -26.0914  -25.9698   19.0115 H   0  0  0  0  0  0
  -23.9876  -27.2816   19.0407 H   0  0  0  0  0  0
  -23.7209  -30.5872   19.4013 H   0  0  0  0  0  0
  -22.7406  -29.2314   19.8706 H   0  0  0  0  0  0
  -25.1287  -36.1963   25.0838 H   0  0  0  0  0  0
  -20.9953  -28.3240   24.1436 H   0  0  0  0  0  0
  -20.5682  -26.2286   23.3605 H   0  0  0  0  0  0
  -21.6629  -26.7473   22.1186 H   0  0  0  0  0  0
  -19.6894  -25.6306   21.1245 H   0  0  0  0  0  0
  -19.6679  -27.3212   20.6767 H   0  0  0  0  0  0
  -17.4187  -26.6711   21.4020 H   0  0  0  0  0  0
  -18.0290  -26.0090   22.9018 H   0  0  0  0  0  0
  -19.7934  -30.7276   24.2278 H   0  0  0  0  0  0
  -17.5018  -31.6287   24.5169 H   0  0  0  0  0  0
  -15.5347  -30.3015   23.7674 H   0  0  0  0  0  0
  -15.8649  -28.0863   22.7052 H   0  0  0  0  0  0
  -24.5913  -30.7043   25.7808 H   0  0  0  0  0  0
  -24.8934  -32.2846   26.4944 H   0  0  0  0  0  0
  -25.8097  -30.8844   27.0218 H   0  0  0  0  0  0
  -26.2859  -29.6805   24.1160 H   0  0  0  0  0  0
  -27.4119  -29.7294   25.4536 H   0  0  0  0  0  0
  -27.8669  -30.4399   23.9222 H   0  0  0  0  0  0
  -27.2647  -33.3636   26.2064 H   0  0  0  0  0  0
  -28.3845  -32.6886   25.0320 H   0  0  0  0  0  0
  -28.0696  -31.8464   26.5415 H   0  0  0  0  0  0
  -28.2582  -38.0113   24.7513 H   0  0  0  0  0  0
  -28.1074  -36.2640   24.6282 H   0  0  0  0  0  0
  -27.2287  -37.1438   25.8866 H   0  0  0  0  0  0
  -20.9288  -29.8768   21.6944 H   0  0  0  0  0  0
  -26.0171  -38.2865   24.1413 H   0  0  0  0  0  0
  -28.4059  -17.9683   21.4630 H   0  0  0  0  0  0
  -32.8455  -19.8698   22.7898 H   0  0  0  0  0  0
  -32.7116  -20.3846   21.0787 H   0  0  0  0  0  0
  -33.6820  -18.9561   21.5089 H   0  0  0  0  0  0
  -27.3364  -24.3312   21.1105 H   0  0  0  0  0  0
  -28.7223  -24.0547   20.0876 H   0  0  0  0  0  0
  -29.0767  -24.1795   23.0934 H   0  0  0  0  0  0
  -30.1609  -23.4729   21.9479 H   0  0  0  0  0  0
  -29.8511  -26.0543   21.2824 H   0  0  0  0  0  0
  -28.3356  -26.3715   22.0821 H   0  0  0  0  0  0
  -28.7891  -21.9712   23.5613 H   0  0  0  0  0  0
  -32.4580  -16.7968   21.2396 H   0  0  0  0  0  0
  -29.0096  -15.2425   21.3317 H   0  0  0  0  0  0
  -30.7936  -20.8347   22.4666 H   0  0  0  0  0  0
  1 25  1  0  0  0
  1 30  2  0  0  0
  1 82  1  0  0  0
  2  3  1  0  0  0
  2 25  1  0  0  0
  2 86  1  0  0  0
  2 87  1  0  0  0
  3  4  1  0  0  0
  3 88  1  0  0  0
  3 89  1  0  0  0
  4  5  1  0  0  0
  4 90  1  0  0  0
  4 91  1  0  0  0
  5  6  1  0  0  0
  5 26  1  0  0  0
  5 92  1  0  0  0
  6 25  1  0  0  0
  6 93  1  0  0  0
  6 94  1  0  0  0
  7  8  2  0  0  0
  7 26  1  0  0  0
  7 29  1  0  0  0
  8  9  1  0  0  0
  8 22  1  0  0  0
  9 10  1  0  0  0
  9 27  2  0  0  0
 10 11  2  0  0  0
 10 15  1  0  0  0
 11 12  1  0  0  0
 11 95  1  0  0  0
 12 13  2  0  0  0
 12 96  1  0  0  0
 13 14  1  0  0  0
 13 31  1  0  0  0
 14 15  2  0  0  0
 14 97  1  0  0  0
 15 98  1  0  0  0
 16 17  2  0  0  0
 16 21  1  0  0  0
 16 31  1  0  0  0
 17 18  1  0  0  0
 17 99  1  0  0  0
 18 19  2  0  0  0
 18100  1  0  0  0
 19 20  1  0  0  0
 19 24  1  0  0  0
 20 21  2  0  0  0
 20101  1  0  0  0
 21 23  1  0  0  0
 22 28  1  0  0  0
 22 32  2  0  0  0
 26 27  1  0  0  0
 28102  1  0  0  0
 28103  1  0  0  0
 29104  1  0  0  0
 29105  1  0  0  0
 33 34  1  0  0  0
 33 66  1  0  0  0
 33 70  2  0  0  0
 34 36  1  0  0  0
 34 59  1  0  0  0
 34106  1  0  0  0
 35 44  2  0  0  0
 35 45  1  0  0  0
 35 68  1  0  0  0
 36 56  1  0  0  0
 36107  1  0  0  0
 37 39  1  0  0  0
 37 47  1  0  0  0
 37 66  1  0  0  0
 37108  1  0  0  0
 38 43  2  0  0  0
 38 46  1  0  0  0
 38 47  1  0  0  0
 39 64  1  0  0  0
 39 67  2  0  0  0
 40 52  1  0  0  0
 40 53  2  0  0  0
 40 58  1  0  0  0
 41109  1  0  0  0
 41110  1  0  0  0
 41111  1  0  0  0
 41 48  1  0  0  0
 42 43  1  0  0  0
 42 66  1  0  0  0
 42112  1  0  0  0
 42113  1  0  0  0
 43 44  1  0  0  0
 44114  1  0  0  0
 45 46  2  0  0  0
 45115  1  0  0  0
 46116  1  0  0  0
 47117  1  0  0  0
 47118  1  0  0  0
 48 56  1  0  0  0
 48 65  1  0  0  0
 48119  1  0  0  0
 49 50  1  0  0  0
 49 53  1  0  0  0
 49 64  1  0  0  0
 49120  1  0  0  0
 50 51  1  0  0  0
 50121  1  0  0  0
 50122  1  0  0  0
 51 52  1  0  0  0
 51123  1  0  0  0
 51124  1  0  0  0
 52125  1  0  0  0
 52126  1  0  0  0
 53 54  1  0  0  0
 54 55  2  0  0  0
 54127  1  0  0  0
 55 57  1  0  0  0
 55128  1  0  0  0
 56 69  2  0  0  0
 57 58  2  0  0  0
 57129  1  0  0  0
 58130  1  0  0  0
 59 60  1  0  0  0
 59 61  1  0  0  0
 59 62  1  0  0  0
 60131  1  0  0  0
 60132  1  0  0  0
 60133  1  0  0  0
 61134  1  0  0  0
 61135  1  0  0  0
 61136  1  0  0  0
 62137  1  0  0  0
 62138  1  0  0  0
 62139  1  0  0  0
 63 65  1  0  0  0
 63140  1  0  0  0
 63141  1  0  0  0
 63142  1  0  0  0
 64143  1  0  0  0
 65144  1  0  0  0
 68 78  1  0  0  0
 71 72  2  0  0  0
 71 80  1  0  0  0
 71145  1  0  0  0
 72 81  1  0  0  0
 72 82  1  0  0  0
 73 75  1  0  0  0
 73 80  1  0  0  0
 73 81  2  0  0  0
 74 79  1  0  0  0
 74 83  1  0  0  0
 74 84  2  0  0  0
 75146  1  0  0  0
 75147  1  0  0  0
 75148  1  0  0  0
 76 77  1  0  0  0
 76 78  1  0  0  0
 76149  1  0  0  0
 76150  1  0  0  0
 77 79  1  0  0  0
 77151  1  0  0  0
 77152  1  0  0  0
 78153  1  0  0  0
 78154  1  0  0  0
 79 85  1  0  0  0
 79155  1  0  0  0
 80 83  1  0  0  0
 81156  1  0  0  0
 82157  1  0  0  0
 83158  1  0  0  0
M  CHG  1  81   1
M  ISO  4   1 100  68 101  78 101  82 100
M  END
> <chiral flag>
0

> <version>
0

> <s_m_source_file>
/data/baiqing/PycharmProjects/Reinvent-master-3.2/result/LINK_invent/BTK/process_docking_weight1_custom_product_contain_oxygen_bond_distance_aromatic_linkinvent_7_9_3/rearranged_h_0188.sdf

> <i_m_source_file_index>
78

> <r_mmod_Potential_Energy-OPLS-2005>
-191.516906738281

> <r_mmod_Stretch_Energy-OPLS-2005>
39.1641578674316

> <r_mmod_Bend_Energy-OPLS-2005>
124.375885009766

> <r_mmod_Torsional_Energy-OPLS-2005>
248.546569824219

> <r_mmod_Improper_Torsional_Energy-OPLS-2005>
4.91734790802002

> <r_mmod_Van_der_Waal_Energy-OPLS-2005>
130.229476928711

> <r_mmod_Electrostatic_Energy-OPLS-2005>
-290.432434082031

> <r_mmod_Solvation_Energy-OPLS-2005>
-460.404632568359

> <b_mmod_Minimization_Converged-OPLS-2005>
0

> <r_mmod_RMS_Derivative-OPLS-2005>
1.31773602962494

$$$$
79
                    3D
 Structure written by MMmdl.
154162  0  0  1  0            999 V2000
  -30.6670  -14.6652   20.4780 C   0  0  0  0  0  0
  -30.4197  -12.4137   19.4582 C   0  0  0  0  0  0
  -29.4983  -12.4927   18.2241 C   0  0  0  0  0  0
  -28.0250  -12.3286   18.6412 C   0  0  0  0  0  0
  -27.6410  -13.2285   19.8463 C   0  0  2  0  0  0
  -28.6866  -13.1542   20.9793 C   0  0  0  0  0  0
  -25.2514  -13.8201   20.5684 C   0  0  0  0  0  0
  -24.1808  -13.0448   20.9198 C   0  0  0  0  0  0
  -24.6391  -11.6919   20.8738 C   0  0  0  0  0  0
  -23.9081  -10.4292   21.0399 C   0  0  0  0  0  0
  -24.3630   -9.4209   21.9180 C   0  0  0  0  0  0
  -23.6301   -8.2248   22.0759 C   0  0  0  0  0  0
  -22.4283   -8.0284   21.3552 C   0  0  0  0  0  0
  -21.9914   -9.0260   20.4654 C   0  0  0  0  0  0
  -22.7247  -10.2136   20.3057 C   0  0  0  0  0  0
  -21.6855   -6.0740   22.5281 C   0  0  0  0  0  0
  -21.4016   -6.5645   23.8212 C   0  0  0  0  0  0
  -21.3658   -5.6794   24.9174 C   0  0  0  0  0  0
  -21.6038   -4.3059   24.7222 C   0  0  0  0  0  0
  -21.8823   -3.8157   23.4339 C   0  0  0  0  0  0
  -21.9193   -4.6971   22.3397 C   0  0  0  0  0  0
  -22.7830  -13.5218   21.1851 C   0  0  0  0  0  0
  -22.1664   -4.2156   21.0977 F   0  0  0  0  0  0
  -21.5621   -3.4541   25.7736 F   0  0  0  0  0  0
  -29.9912  -13.4758   20.3934 N   0  0  0  0  0  0
  -26.2939  -12.9400   20.3283 N   0  0  0  0  0  0
  -25.9328  -11.6543   20.5760 N   0  0  0  0  0  0
  -22.0490  -12.8212   22.0411 N   0  0  0  0  0  0
  -25.4206  -15.1941   20.4102 N   0  0  0  0  0  0
  -31.8602  -14.7172   20.1703 O   0  0  0  0  0  0
  -21.6643   -6.8886   21.4245 O   0  0  0  0  0  0
  -22.3503  -14.5518   20.6694 O   0  0  0  0  0  0
  -24.6293  -31.8604   23.2056 C   0  0  0  0  0  0
  -25.9141  -32.4777   23.8362 C   0  0  1  0  0  0
  -27.2088  -27.3094   20.0981 C   0  0  0  0  0  0
  -25.5968  -33.8572   24.2295 N   0  0  0  0  0  0
  -23.4205  -30.4920   21.5507 C   0  0  2  0  0  0
  -24.8589  -28.9552   20.1125 C   0  0  0  0  0  0
  -22.7472  -29.4655   22.4923 C   0  0  0  0  0  0
  -18.0291  -28.1378   22.8493 C   0  0  0  0  0  0
  -24.1496  -36.7308   23.2636 C   0  0  0  0  0  0
  -25.9657  -30.7895   21.3771 C   0  0  0  0  0  0
  -26.0344  -29.4176   20.7186 C   0  0  0  0  0  0
  -27.2107  -28.6043   20.7086 C   0  0  0  0  0  0
  -26.0034  -26.9208   19.4616 C   0  0  0  0  0  0
  -24.8460  -27.7088   19.4801 C   0  0  0  0  0  0
  -23.6320  -29.8393   20.1625 C   0  0  0  0  0  0
  -25.4115  -36.3082   24.0329 C   0  0  1  0  0  0
  -20.5895  -28.3693   23.1276 C   0  0  2  0  0  0
  -20.6784  -26.9407   22.5411 C   0  0  0  0  0  0
  -19.5754  -26.6379   21.5218 C   0  0  0  0  0  0
  -18.1932  -26.7921   22.1629 C   0  0  0  0  0  0
  -19.1540  -28.8849   23.2892 C   0  0  0  0  0  0
  -18.9461  -30.1452   23.8909 C   0  0  0  0  0  0
  -17.6460  -30.6581   24.0569 C   0  0  0  0  0  0
  -25.9052  -34.9449   23.5099 C   0  0  0  0  0  0
  -16.5354  -29.9079   23.6330 C   0  0  0  0  0  0
  -16.7280  -28.6500   23.0347 C   0  0  0  0  0  0
  -26.4502  -31.6581   25.0731 C   0  0  0  0  0  0
  -25.3753  -31.3734   26.1478 C   0  0  0  0  0  0
  -27.0332  -30.3003   24.6179 C   0  0  0  0  0  0
  -27.6059  -32.4301   25.7519 C   0  0  0  0  0  0
  -27.5577  -37.1812   24.8456 C   0  0  0  0  0  0
  -21.4186  -29.3063   22.3668 N   0  0  0  0  0  0
  -26.4291  -37.3781   23.9395 N   0  0  0  0  0  0
  -24.6921  -31.0616   22.1022 N   0  0  0  0  0  0
  -23.4188  -28.8158   23.2970 O   0  0  0  0  0  0
  -28.3122  -26.4286   20.1477 O   0  0  0  0  0  0
  -26.5597  -34.8913   22.4647 O   0  0  0  0  0  0
  -23.5460  -32.1397   23.7392 O   0  0  0  0  0  0
  -28.3512  -20.1110   20.0548 C   0  0  0  0  0  0
  -30.0340  -18.6118   20.6962 C   0  0  0  0  0  0
  -29.1281  -21.2723   20.3783 C   0  0  0  0  0  0
  -30.8079  -19.7718   21.0416 C   0  0  0  0  0  0
  -29.0011  -23.8822   20.2935 C   0  0  0  0  0  0
  -28.3458  -25.0347   18.1198 C   0  0  0  0  0  0
  -30.6870  -17.1727   20.7644 C   0  0  0  0  0  0
  -28.1296  -25.0343   19.6489 C   0  0  2  0  0  0
  -28.7808  -18.8083   20.2003 N   0  0  0  0  0  0
  -30.3697  -21.0534   20.8904 N   0  0  0  0  0  0
  -32.0993  -19.6863   21.5503 N   0  0  0  0  0  0
  -28.5586  -22.5936   20.1044 N   0  0  0  0  0  0
  -29.9820  -15.8370   20.7041 N   0  0  0  0  0  0
  -30.0164  -24.1661   20.9363 O   0  0  0  0  0  0
  -31.4605  -12.5199   19.1507 H   0  0  0  0  0  0
  -30.3506  -11.4358   19.9367 H   0  0  0  0  0  0
  -29.7714  -11.7274   17.4956 H   0  0  0  0  0  0
  -29.6356  -13.4522   17.7246 H   0  0  0  0  0  0
  -27.8690  -11.2784   18.8940 H   0  0  0  0  0  0
  -27.3705  -12.5344   17.7942 H   0  0  0  0  0  0
  -27.6391  -14.2500   19.4670 H   0  0  0  0  0  0
  -28.7094  -12.1597   21.4265 H   0  0  0  0  0  0
  -28.4349  -13.8477   21.7824 H   0  0  0  0  0  0
  -25.2774   -9.5679   22.4747 H   0  0  0  0  0  0
  -24.0014   -7.4631   22.7471 H   0  0  0  0  0  0
  -21.0850   -8.8781   19.8949 H   0  0  0  0  0  0
  -22.3714  -10.9679   19.6161 H   0  0  0  0  0  0
  -21.2024   -7.6151   23.9721 H   0  0  0  0  0  0
  -21.1470   -6.0523   25.9075 H   0  0  0  0  0  0
  -22.0606   -2.7617   23.2839 H   0  0  0  0  0  0
  -22.4131  -11.9879   22.4794 H   0  0  0  0  0  0
  -21.1109  -13.1236   22.2626 H   0  0  0  0  0  0
  -24.6527  -15.8472   20.5236 H   0  0  0  0  0  0
  -26.2687  -15.6384   20.0828 H   0  0  0  0  0  0
  -26.7211  -32.5426   23.1109 H   0  0  0  0  0  0
  -25.0155  -33.9716   25.0470 H   0  0  0  0  0  0
  -22.7205  -31.3189   21.4146 H   0  0  0  0  0  0
  -23.3745  -35.9653   23.3276 H   0  0  0  0  0  0
  -24.3614  -36.8939   22.2058 H   0  0  0  0  0  0
  -23.7258  -37.6512   23.6661 H   0  0  0  0  0  0
  -26.0980  -31.5527   20.6081 H   0  0  0  0  0  0
  -26.8501  -30.8387   22.0011 H   0  0  0  0  0  0
  -28.1095  -28.9562   21.1953 H   0  0  0  0  0  0
  -25.8913  -25.9892   18.9326 H   0  0  0  0  0  0
  -23.9477  -27.3473   18.9984 H   0  0  0  0  0  0
  -23.7541  -30.6240   19.4138 H   0  0  0  0  0  0
  -22.7491  -29.2758   19.8528 H   0  0  0  0  0  0
  -25.1291  -36.1944   25.0828 H   0  0  0  0  0  0
  -21.0020  -28.3261   24.1384 H   0  0  0  0  0  0
  -20.5696  -26.2287   23.3605 H   0  0  0  0  0  0
  -21.6645  -26.7433   22.1187 H   0  0  0  0  0  0
  -19.6909  -25.6294   21.1235 H   0  0  0  0  0  0
  -19.6685  -27.3201   20.6754 H   0  0  0  0  0  0
  -17.4198  -26.6679   21.4030 H   0  0  0  0  0  0
  -18.0328  -26.0064   22.9026 H   0  0  0  0  0  0
  -19.7934  -30.7275   24.2265 H   0  0  0  0  0  0
  -17.5009  -31.6261   24.5161 H   0  0  0  0  0  0
  -15.5350  -30.2980   23.7653 H   0  0  0  0  0  0
  -15.8682  -28.0834   22.7036 H   0  0  0  0  0  0
  -24.5934  -30.7059   25.7836 H   0  0  0  0  0  0
  -24.8944  -32.2909   26.4881 H   0  0  0  0  0  0
  -25.8114  -30.8951   27.0261 H   0  0  0  0  0  0
  -26.2900  -29.6771   24.1197 H   0  0  0  0  0  0
  -27.4017  -29.7243   25.4674 H   0  0  0  0  0  0
  -27.8773  -30.4266   23.9400 H   0  0  0  0  0  0
  -27.2659  -33.3595   26.2094 H   0  0  0  0  0  0
  -28.3892  -32.6863   25.0378 H   0  0  0  0  0  0
  -28.0694  -31.8425   26.5450 H   0  0  0  0  0  0
  -28.2584  -38.0122   24.7507 H   0  0  0  0  0  0
  -28.1088  -36.2649   24.6271 H   0  0  0  0  0  0
  -27.2299  -37.1447   25.8865 H   0  0  0  0  0  0
  -20.9333  -29.8829   21.6937 H   0  0  0  0  0  0
  -26.0166  -38.2850   24.1412 H   0  0  0  0  0  0
  -27.3562  -20.2334   19.6487 H   0  0  0  0  0  0
  -27.6880  -25.7349   17.6079 H   0  0  0  0  0  0
  -28.1542  -24.0533   17.6856 H   0  0  0  0  0  0
  -29.3701  -25.3124   17.8658 H   0  0  0  0  0  0
  -31.2717  -17.1451   21.6840 H   0  0  0  0  0  0
  -31.4214  -17.1889   19.9569 H   0  0  0  0  0  0
  -27.1249  -24.6945   19.8911 H   0  0  0  0  0  0
  -32.6098  -18.8114   21.5512 H   0  0  0  0  0  0
  -32.6733  -20.5193   21.6076 H   0  0  0  0  0  0
  -27.6715  -22.5571   19.6229 H   0  0  0  0  0  0
  -28.9852  -15.8145   20.8606 H   0  0  0  0  0  0
  1 25  1  0  0  0
  1 30  2  0  0  0
  1 83  1  0  0  0
  2  3  1  0  0  0
  2 25  1  0  0  0
  2 85  1  0  0  0
  2 86  1  0  0  0
  3  4  1  0  0  0
  3 87  1  0  0  0
  3 88  1  0  0  0
  4  5  1  0  0  0
  4 89  1  0  0  0
  4 90  1  0  0  0
  5  6  1  0  0  0
  5 26  1  0  0  0
  5 91  1  0  0  0
  6 25  1  0  0  0
  6 92  1  0  0  0
  6 93  1  0  0  0
  7  8  2  0  0  0
  7 26  1  0  0  0
  7 29  1  0  0  0
  8  9  1  0  0  0
  8 22  1  0  0  0
  9 10  1  0  0  0
  9 27  2  0  0  0
 10 11  2  0  0  0
 10 15  1  0  0  0
 11 12  1  0  0  0
 11 94  1  0  0  0
 12 13  2  0  0  0
 12 95  1  0  0  0
 13 14  1  0  0  0
 13 31  1  0  0  0
 14 15  2  0  0  0
 14 96  1  0  0  0
 15 97  1  0  0  0
 16 17  2  0  0  0
 16 21  1  0  0  0
 16 31  1  0  0  0
 17 18  1  0  0  0
 17 98  1  0  0  0
 18 19  2  0  0  0
 18 99  1  0  0  0
 19 20  1  0  0  0
 19 24  1  0  0  0
 20 21  2  0  0  0
 20100  1  0  0  0
 21 23  1  0  0  0
 22 28  1  0  0  0
 22 32  2  0  0  0
 26 27  1  0  0  0
 28101  1  0  0  0
 28102  1  0  0  0
 29103  1  0  0  0
 29104  1  0  0  0
 33 34  1  0  0  0
 33 66  1  0  0  0
 33 70  2  0  0  0
 34 36  1  0  0  0
 34 59  1  0  0  0
 34105  1  0  0  0
 35 44  2  0  0  0
 35 45  1  0  0  0
 35 68  1  0  0  0
 36 56  1  0  0  0
 36106  1  0  0  0
 37 39  1  0  0  0
 37 47  1  0  0  0
 37 66  1  0  0  0
 37107  1  0  0  0
 38 43  2  0  0  0
 38 46  1  0  0  0
 38 47  1  0  0  0
 39 64  1  0  0  0
 39 67  2  0  0  0
 40 52  1  0  0  0
 40 53  2  0  0  0
 40 58  1  0  0  0
 41108  1  0  0  0
 41109  1  0  0  0
 41110  1  0  0  0
 41 48  1  0  0  0
 42 43  1  0  0  0
 42 66  1  0  0  0
 42111  1  0  0  0
 42112  1  0  0  0
 43 44  1  0  0  0
 44113  1  0  0  0
 45 46  2  0  0  0
 45114  1  0  0  0
 46115  1  0  0  0
 47116  1  0  0  0
 47117  1  0  0  0
 48 56  1  0  0  0
 48 65  1  0  0  0
 48118  1  0  0  0
 49 50  1  0  0  0
 49 53  1  0  0  0
 49 64  1  0  0  0
 49119  1  0  0  0
 50 51  1  0  0  0
 50120  1  0  0  0
 50121  1  0  0  0
 51 52  1  0  0  0
 51122  1  0  0  0
 51123  1  0  0  0
 52124  1  0  0  0
 52125  1  0  0  0
 53 54  1  0  0  0
 54 55  2  0  0  0
 54126  1  0  0  0
 55 57  1  0  0  0
 55127  1  0  0  0
 56 69  2  0  0  0
 57 58  2  0  0  0
 57128  1  0  0  0
 58129  1  0  0  0
 59 60  1  0  0  0
 59 61  1  0  0  0
 59 62  1  0  0  0
 60130  1  0  0  0
 60131  1  0  0  0
 60132  1  0  0  0
 61133  1  0  0  0
 61134  1  0  0  0
 61135  1  0  0  0
 62136  1  0  0  0
 62137  1  0  0  0
 62138  1  0  0  0
 63 65  1  0  0  0
 63139  1  0  0  0
 63140  1  0  0  0
 63141  1  0  0  0
 64142  1  0  0  0
 65143  1  0  0  0
 68 78  1  0  0  0
 71 73  2  0  0  0
 71 79  1  0  0  0
 71144  1  0  0  0
 72 74  1  0  0  0
 72 77  1  0  0  0
 72 79  2  0  0  0
 73 80  1  0  0  0
 73 82  1  0  0  0
 74 80  2  0  0  0
 74 81  1  0  0  0
 75 78  1  0  0  0
 75 82  1  0  0  0
 75 84  2  0  0  0
 76145  1  0  0  0
 76146  1  0  0  0
 76147  1  0  0  0
 76 78  1  0  0  0
 77 83  1  0  0  0
 77148  1  0  0  0
 77149  1  0  0  0
 78150  1  0  0  0
 81151  1  0  0  0
 81152  1  0  0  0
 82153  1  0  0  0
 83154  1  0  0  0
M  ISO  4   1 100  68 101  78 101  83 100
M  END
> <chiral flag>
0

> <version>
0

> <s_m_source_file>
/data/baiqing/PycharmProjects/Reinvent-master-3.2/result/LINK_invent/BTK/process_docking_weight1_custom_product_contain_oxygen_bond_distance_aromatic_linkinvent_7_9_3/rearranged_h_0188.sdf

> <i_m_source_file_index>
79

> <r_mmod_Potential_Energy-OPLS-2005>
-13.4763240814209

> <r_mmod_Stretch_Energy-OPLS-2005>
89.1470489501953

> <r_mmod_Bend_Energy-OPLS-2005>
174.939315795898

> <r_mmod_Torsional_Energy-OPLS-2005>
203.274673461914

> <r_mmod_Improper_Torsional_Energy-OPLS-2005>
5.91408157348633

> <r_mmod_Van_der_Waal_Energy-OPLS-2005>
160.996612548828

> <r_mmod_Electrostatic_Energy-OPLS-2005>
-433.513336181641

> <r_mmod_Solvation_Energy-OPLS-2005>
-275.294189453125

> <b_mmod_Minimization_Converged-OPLS-2005>
0

> <r_mmod_RMS_Derivative-OPLS-2005>
2.64629626274109

$$$$
80
                    3D
 Structure written by MMmdl.
147154  0  0  1  0            999 V2000
  -30.4201  -15.1986   20.3511 C   0  0  0  0  0  0
  -30.4522  -12.7468   19.5310 C   0  0  0  0  0  0
  -29.5431  -12.5637   18.2876 C   0  0  0  0  0  0
  -28.0835  -12.3023   18.7042 C   0  0  0  0  0  0
  -27.6187  -13.2683   19.8222 C   0  0  2  0  0  0
  -28.6514  -13.3988   20.9585 C   0  0  0  0  0  0
  -25.2432  -13.8243   20.5726 C   0  0  0  0  0  0
  -24.1767  -13.0444   20.9233 C   0  0  0  0  0  0
  -24.6407  -11.6935   20.8742 C   0  0  0  0  0  0
  -23.9095  -10.4297   21.0398 C   0  0  0  0  0  0
  -24.3636   -9.4213   21.9180 C   0  0  0  0  0  0
  -23.6303   -8.2253   22.0753 C   0  0  0  0  0  0
  -22.4284   -8.0289   21.3546 C   0  0  0  0  0  0
  -21.9925   -9.0264   20.4648 C   0  0  0  0  0  0
  -22.7260  -10.2139   20.3055 C   0  0  0  0  0  0
  -21.6858   -6.0740   22.5279 C   0  0  0  0  0  0
  -21.4019   -6.5641   23.8213 C   0  0  0  0  0  0
  -21.3661   -5.6791   24.9173 C   0  0  0  0  0  0
  -21.6044   -4.3054   24.7221 C   0  0  0  0  0  0
  -21.8821   -3.8148   23.4341 C   0  0  0  0  0  0
  -21.9195   -4.6967   22.3399 C   0  0  0  0  0  0
  -22.7787  -13.5206   21.1892 C   0  0  0  0  0  0
  -22.1663   -4.2154   21.0977 F   0  0  0  0  0  0
  -21.5625   -3.4536   25.7733 F   0  0  0  0  0  0
  -29.9064  -13.8766   20.3598 N   0  0  0  0  0  0
  -26.2850  -12.9504   20.3180 N   0  0  0  0  0  0
  -25.9342  -11.6615   20.5692 N   0  0  0  0  0  0
  -22.0445  -12.8191   22.0446 N   0  0  0  0  0  0
  -25.4094  -15.1977   20.4193 N   0  0  0  0  0  0
  -31.6469  -15.2265   20.1685 O   0  0  0  0  0  0
  -21.6646   -6.8886   21.4242 O   0  0  0  0  0  0
  -22.3469  -14.5508   20.6733 O   0  0  0  0  0  0
  -24.6582  -31.8281   23.1736 C   0  0  0  0  0  0
  -25.9283  -32.4614   23.8188 C   0  0  1  0  0  0
  -27.2182  -26.9713   20.1882 C   0  0  0  0  0  0
  -25.5964  -33.8426   24.2093 N   0  0  0  0  0  0
  -23.4710  -30.4404   21.5229 C   0  0  2  0  0  0
  -24.9230  -28.8306   20.1187 C   0  0  0  0  0  0
  -22.7644  -29.4461   22.4804 C   0  0  0  0  0  0
  -18.0316  -28.1403   22.8467 C   0  0  0  0  0  0
  -24.1491  -36.7224   23.2647 C   0  0  0  0  0  0
  -26.0373  -30.6495   21.3967 C   0  0  0  0  0  0
  -26.1069  -29.2420   20.7448 C   0  0  0  0  0  0
  -27.2538  -28.3350   20.7486 C   0  0  0  0  0  0
  -26.0037  -26.6954   19.5241 C   0  0  0  0  0  0
  -24.8935  -27.5764   19.4888 C   0  0  0  0  0  0
  -23.7088  -29.7558   20.1494 C   0  0  0  0  0  0
  -25.4132  -36.2984   24.0301 C   0  0  1  0  0  0
  -20.5941  -28.3748   23.1194 C   0  0  2  0  0  0
  -20.6800  -26.9437   22.5398 C   0  0  0  0  0  0
  -19.5775  -26.6377   21.5210 C   0  0  0  0  0  0
  -18.1954  -26.7938   22.1615 C   0  0  0  0  0  0
  -19.1579  -28.8893   23.2819 C   0  0  0  0  0  0
  -18.9491  -30.1482   23.8858 C   0  0  0  0  0  0
  -17.6487  -30.6596   24.0554 C   0  0  0  0  0  0
  -25.9095  -34.9367   23.5021 C   0  0  0  0  0  0
  -16.5380  -29.9087   23.6342 C   0  0  0  0  0  0
  -16.7299  -28.6506   23.0361 C   0  0  0  0  0  0
  -26.4550  -31.6543   25.0699 C   0  0  0  0  0  0
  -25.3683  -31.3780   26.1359 C   0  0  0  0  0  0
  -27.0448  -30.2916   24.6407 C   0  0  0  0  0  0
  -27.6042  -32.4355   25.7501 C   0  0  0  0  0  0
  -27.5571  -37.1767   24.8464 C   0  0  0  0  0  0
  -21.4319  -29.3049   22.3552 N   0  0  0  0  0  0
  -26.4282  -37.3712   23.9405 N   0  0  0  0  0  0
  -24.7434  -30.9986   22.0850 N   0  0  0  0  0  0
  -23.4212  -28.8036   23.3030 O   0  0  0  0  0  0
  -28.2523  -25.9122   20.1908 O   0  0  0  0  0  0
  -26.5706  -34.8895   22.4616 O   0  0  0  0  0  0
  -23.5659  -32.1231   23.6853 O   0  0  0  0  0  0
  -29.8370  -18.3187   20.6772 C   0  0  0  0  0  0
  -30.2018  -23.1692   19.4790 C   0  0  0  0  0  0
  -29.5026  -16.6776   20.2434 C   0  0  0  0  0  0
  -28.0654  -24.3262   20.5348 C   0  0  0  0  0  0
  -28.9311  -21.1819   20.6857 C   0  0  0  0  0  0
  -28.7894  -22.8035   19.9503 C   0  0  2  0  0  0
  -30.7067  -18.4789   21.5346 O   0  0  0  0  0  0
  -29.0679  -19.6615   20.1200 O   0  0  0  0  0  0
  -31.4749  -12.9451   19.2085 H   0  0  0  0  0  0
  -30.5012  -11.8263   20.1152 H   0  0  0  0  0  0
  -29.9084  -11.7447   17.6667 H   0  0  0  0  0  0
  -29.5902  -13.4620   17.6702 H   0  0  0  0  0  0
  -28.0230  -11.2736   19.0620 H   0  0  0  0  0  0
  -27.4203  -12.3655   17.8407 H   0  0  0  0  0  0
  -27.5490  -14.2458   19.3438 H   0  0  0  0  0  0
  -28.7905  -12.4505   21.4796 H   0  0  0  0  0  0
  -28.3059  -14.1149   21.7057 H   0  0  0  0  0  0
  -25.2779   -9.5690   22.4758 H   0  0  0  0  0  0
  -24.0008   -7.4647   22.7479 H   0  0  0  0  0  0
  -21.0852   -8.8792   19.8957 H   0  0  0  0  0  0
  -22.3718  -10.9680   19.6166 H   0  0  0  0  0  0
  -21.2016   -7.6150   23.9718 H   0  0  0  0  0  0
  -21.1480   -6.0519   25.9076 H   0  0  0  0  0  0
  -22.0597   -2.7611   23.2839 H   0  0  0  0  0  0
  -22.4067  -11.9854   22.4832 H   0  0  0  0  0  0
  -21.1065  -13.1218   22.2662 H   0  0  0  0  0  0
  -24.6415  -15.8494   20.5387 H   0  0  0  0  0  0
  -26.2571  -15.6411   20.0903 H   0  0  0  0  0  0
  -26.7355  -32.5170   23.0908 H   0  0  0  0  0  0
  -25.0045  -33.9510   25.0196 H   0  0  0  0  0  0
  -22.7818  -31.2704   21.3539 H   0  0  0  0  0  0
  -23.3762  -35.9545   23.3287 H   0  0  0  0  0  0
  -24.3567  -36.8895   22.2066 H   0  0  0  0  0  0
  -23.7244  -37.6404   23.6721 H   0  0  0  0  0  0
  -26.2110  -31.3920   20.6163 H   0  0  0  0  0  0
  -26.8992  -30.7071   22.0490 H   0  0  0  0  0  0
  -28.1592  -28.6540   21.2447 H   0  0  0  0  0  0
  -25.8939  -25.7373   19.0359 H   0  0  0  0  0  0
  -23.9937  -27.2559   18.9820 H   0  0  0  0  0  0
  -23.8656  -30.5238   19.3911 H   0  0  0  0  0  0
  -22.8188  -29.2098   19.8318 H   0  0  0  0  0  0
  -25.1328  -36.1790   25.0792 H   0  0  0  0  0  0
  -21.0021  -28.3357   24.1318 H   0  0  0  0  0  0
  -20.5683  -26.2366   23.3636 H   0  0  0  0  0  0
  -21.6664  -26.7421   22.1203 H   0  0  0  0  0  0
  -19.6934  -25.6273   21.1270 H   0  0  0  0  0  0
  -19.6711  -27.3158   20.6720 H   0  0  0  0  0  0
  -17.4222  -26.6677   21.4018 H   0  0  0  0  0  0
  -18.0353  -26.0085   22.9017 H   0  0  0  0  0  0
  -19.7970  -30.7305   24.2210 H   0  0  0  0  0  0
  -17.5046  -31.6273   24.5166 H   0  0  0  0  0  0
  -15.5377  -30.2980   23.7690 H   0  0  0  0  0  0
  -15.8698  -28.0814   22.7099 H   0  0  0  0  0  0
  -24.5868  -30.7133   25.7663 H   0  0  0  0  0  0
  -24.8868  -32.2978   26.4690 H   0  0  0  0  0  0
  -25.7914  -30.9001   27.0204 H   0  0  0  0  0  0
  -26.3105  -29.6591   24.1405 H   0  0  0  0  0  0
  -27.3987  -29.7283   25.5051 H   0  0  0  0  0  0
  -27.9044  -30.4110   23.9808 H   0  0  0  0  0  0
  -27.2604  -33.3693   26.1966 H   0  0  0  0  0  0
  -28.3909  -32.6861   25.0371 H   0  0  0  0  0  0
  -28.0652  -31.8561   26.5511 H   0  0  0  0  0  0
  -28.2568  -38.0080   24.7517 H   0  0  0  0  0  0
  -28.1088  -36.2610   24.6289 H   0  0  0  0  0  0
  -27.2291  -37.1408   25.8865 H   0  0  0  0  0  0
  -20.9564  -29.8746   21.6694 H   0  0  0  0  0  0
  -26.0138  -38.2771   24.1418 H   0  0  0  0  0  0
  -30.1838  -24.0426   18.8261 H   0  0  0  0  0  0
  -30.6593  -22.3496   18.9236 H   0  0  0  0  0  0
  -30.8483  -23.4007   20.3258 H   0  0  0  0  0  0
  -29.2112  -16.7322   19.1953 H   0  0  0  0  0  0
  -28.5748  -16.4534   20.7672 H   0  0  0  0  0  0
  -28.2740  -24.3105   21.6047 H   0  0  0  0  0  0
  -26.9894  -24.1573   20.4921 H   0  0  0  0  0  0
  -28.0418  -21.1045   21.3115 H   0  0  0  0  0  0
  -29.7398  -21.2669   21.4117 H   0  0  0  0  0  0
  -28.2180  -22.6092   19.0419 H   0  0  0  0  0  0
  1 25  1  0  0  0
  1 30  2  0  0  0
  1 73  1  0  0  0
  2  3  1  0  0  0
  2 25  1  0  0  0
  2 79  1  0  0  0
  2 80  1  0  0  0
  3  4  1  0  0  0
  3 81  1  0  0  0
  3 82  1  0  0  0
  4  5  1  0  0  0
  4 83  1  0  0  0
  4 84  1  0  0  0
  5  6  1  0  0  0
  5 26  1  0  0  0
  5 85  1  0  0  0
  6 25  1  0  0  0
  6 86  1  0  0  0
  6 87  1  0  0  0
  7  8  2  0  0  0
  7 26  1  0  0  0
  7 29  1  0  0  0
  8  9  1  0  0  0
  8 22  1  0  0  0
  9 10  1  0  0  0
  9 27  2  0  0  0
 10 11  2  0  0  0
 10 15  1  0  0  0
 11 12  1  0  0  0
 11 88  1  0  0  0
 12 13  2  0  0  0
 12 89  1  0  0  0
 13 14  1  0  0  0
 13 31  1  0  0  0
 14 15  2  0  0  0
 14 90  1  0  0  0
 15 91  1  0  0  0
 16 17  2  0  0  0
 16 21  1  0  0  0
 16 31  1  0  0  0
 17 18  1  0  0  0
 17 92  1  0  0  0
 18 19  2  0  0  0
 18 93  1  0  0  0
 19 20  1  0  0  0
 19 24  1  0  0  0
 20 21  2  0  0  0
 20 94  1  0  0  0
 21 23  1  0  0  0
 22 28  1  0  0  0
 22 32  2  0  0  0
 26 27  1  0  0  0
 28 95  1  0  0  0
 28 96  1  0  0  0
 29 97  1  0  0  0
 29 98  1  0  0  0
 33 34  1  0  0  0
 33 66  1  0  0  0
 33 70  2  0  0  0
 34 36  1  0  0  0
 34 59  1  0  0  0
 34 99  1  0  0  0
 35 44  2  0  0  0
 35 45  1  0  0  0
 35 68  1  0  0  0
 36 56  1  0  0  0
 36100  1  0  0  0
 37 39  1  0  0  0
 37 47  1  0  0  0
 37 66  1  0  0  0
 37101  1  0  0  0
 38 43  2  0  0  0
 38 46  1  0  0  0
 38 47  1  0  0  0
 39 64  1  0  0  0
 39 67  2  0  0  0
 40 52  1  0  0  0
 40 53  2  0  0  0
 40 58  1  0  0  0
 41102  1  0  0  0
 41103  1  0  0  0
 41104  1  0  0  0
 41 48  1  0  0  0
 42 43  1  0  0  0
 42 66  1  0  0  0
 42105  1  0  0  0
 42106  1  0  0  0
 43 44  1  0  0  0
 44107  1  0  0  0
 45 46  2  0  0  0
 45108  1  0  0  0
 46109  1  0  0  0
 47110  1  0  0  0
 47111  1  0  0  0
 48 56  1  0  0  0
 48 65  1  0  0  0
 48112  1  0  0  0
 49 50  1  0  0  0
 49 53  1  0  0  0
 49 64  1  0  0  0
 49113  1  0  0  0
 50 51  1  0  0  0
 50114  1  0  0  0
 50115  1  0  0  0
 51 52  1  0  0  0
 51116  1  0  0  0
 51117  1  0  0  0
 52118  1  0  0  0
 52119  1  0  0  0
 53 54  1  0  0  0
 54 55  2  0  0  0
 54120  1  0  0  0
 55 57  1  0  0  0
 55121  1  0  0  0
 56 69  2  0  0  0
 57 58  2  0  0  0
 57122  1  0  0  0
 58123  1  0  0  0
 59 60  1  0  0  0
 59 61  1  0  0  0
 59 62  1  0  0  0
 60124  1  0  0  0
 60125  1  0  0  0
 60126  1  0  0  0
 61127  1  0  0  0
 61128  1  0  0  0
 61129  1  0  0  0
 62130  1  0  0  0
 62131  1  0  0  0
 62132  1  0  0  0
 63 65  1  0  0  0
 63133  1  0  0  0
 63134  1  0  0  0
 63135  1  0  0  0
 64136  1  0  0  0
 65137  1  0  0  0
 68 74  1  0  0  0
 71 73  1  0  0  0
 71 77  2  0  0  0
 71 78  1  0  0  0
 72138  1  0  0  0
 72139  1  0  0  0
 72140  1  0  0  0
 72 76  1  0  0  0
 73141  1  0  0  0
 73142  1  0  0  0
 74 76  1  0  0  0
 74143  1  0  0  0
 74144  1  0  0  0
 75 76  1  0  0  0
 75 78  1  0  0  0
 75145  1  0  0  0
 75146  1  0  0  0
 76147  1  0  0  0
M  ISO  4   1 100  68 101  73 100  74 101
M  END
> <chiral flag>
0

> <version>
0

> <s_m_source_file>
/data/baiqing/PycharmProjects/Reinvent-master-3.2/result/LINK_invent/BTK/process_docking_weight1_custom_product_contain_oxygen_bond_distance_aromatic_linkinvent_7_9_3/rearranged_h_0188.sdf

> <i_m_source_file_index>
80

> <r_mmod_Potential_Energy-OPLS-2005>
1187.5947265625

> <r_mmod_Stretch_Energy-OPLS-2005>
588.48876953125

> <r_mmod_Bend_Energy-OPLS-2005>
422.599945068359

> <r_mmod_Torsional_Energy-OPLS-2005>
219.527160644531

> <r_mmod_Improper_Torsional_Energy-OPLS-2005>
7.06996631622314

> <r_mmod_Van_der_Waal_Energy-OPLS-2005>
105.475105285645

> <r_mmod_Electrostatic_Energy-OPLS-2005>
-326.270233154297

> <r_mmod_Solvation_Energy-OPLS-2005>
-216.27880859375

> <b_mmod_Minimization_Converged-OPLS-2005>
0

> <r_mmod_RMS_Derivative-OPLS-2005>
0.832377552986145

$$$$
81
                    3D
 Structure written by MMmdl.
160168  0  0  1  0            999 V2000
  -30.7149  -14.4669   20.5807 C   0  0  0  0  0  0
  -30.4314  -12.3014   19.4258 C   0  0  0  0  0  0
  -29.5052  -12.5108   18.2102 C   0  0  0  0  0  0
  -28.0244  -12.3688   18.6171 C   0  0  0  0  0  0
  -27.6683  -13.2056   19.8732 C   0  0  2  0  0  0
  -28.7090  -12.9811   20.9956 C   0  0  0  0  0  0
  -25.2603  -13.8151   20.5631 C   0  0  0  0  0  0
  -24.1888  -13.0443   20.9241 C   0  0  0  0  0  0
  -24.6433  -11.6903   20.8769 C   0  0  0  0  0  0
  -23.9100  -10.4290   21.0427 C   0  0  0  0  0  0
  -24.3639   -9.4189   21.9190 C   0  0  0  0  0  0
  -23.6301   -8.2235   22.0753 C   0  0  0  0  0  0
  -22.4274   -8.0293   21.3556 C   0  0  0  0  0  0
  -21.9935   -9.0268   20.4652 C   0  0  0  0  0  0
  -22.7279  -10.2137   20.3063 C   0  0  0  0  0  0
  -21.6849   -6.0750   22.5280 C   0  0  0  0  0  0
  -21.4012   -6.5652   23.8214 C   0  0  0  0  0  0
  -21.3651   -5.6795   24.9176 C   0  0  0  0  0  0
  -21.6046   -4.3060   24.7221 C   0  0  0  0  0  0
  -21.8816   -3.8157   23.4344 C   0  0  0  0  0  0
  -21.9186   -4.6982   22.3401 C   0  0  0  0  0  0
  -22.7896  -13.5226   21.1875 C   0  0  0  0  0  0
  -22.1658   -4.2175   21.0979 F   0  0  0  0  0  0
  -21.5622   -3.4535   25.7733 F   0  0  0  0  0  0
  -30.0518  -13.2816   20.4573 N   0  0  0  0  0  0
  -26.3053  -12.9327   20.3312 N   0  0  0  0  0  0
  -25.9356  -11.6491   20.5755 N   0  0  0  0  0  0
  -22.0509  -12.8237   22.0411 N   0  0  0  0  0  0
  -25.4254  -15.1857   20.3849 N   0  0  0  0  0  0
  -31.8181  -14.6775   20.0695 O   0  0  0  0  0  0
  -21.6640   -6.8899   21.4241 O   0  0  0  0  0  0
  -22.3606  -14.5525   20.6684 O   0  0  0  0  0  0
  -24.6143  -31.8667   23.2094 C   0  0  0  0  0  0
  -25.9050  -32.4819   23.8385 C   0  0  1  0  0  0
  -27.2430  -27.4319   20.0928 C   0  0  0  0  0  0
  -25.5928  -33.8619   24.2320 N   0  0  0  0  0  0
  -23.4053  -30.4908   21.5451 C   0  0  2  0  0  0
  -24.8553  -28.9538   20.1157 C   0  0  0  0  0  0
  -22.7415  -29.4674   22.4960 C   0  0  0  0  0  0
  -18.0285  -28.1372   22.8509 C   0  0  0  0  0  0
  -24.1481  -36.7306   23.2643 C   0  0  0  0  0  0
  -25.9344  -30.8265   21.3692 C   0  0  0  0  0  0
  -26.0126  -29.4562   20.7260 C   0  0  0  0  0  0
  -27.2069  -28.6963   20.7289 C   0  0  0  0  0  0
  -26.0786  -26.9615   19.4533 C   0  0  0  0  0  0
  -24.8804  -27.7003   19.4826 C   0  0  0  0  0  0
  -23.6181  -29.8205   20.1595 C   0  0  0  0  0  0
  -25.4103  -36.3111   24.0351 C   0  0  1  0  0  0
  -20.5878  -28.3664   23.1316 C   0  0  2  0  0  0
  -20.6771  -26.9412   22.5420 C   0  0  0  0  0  0
  -19.5738  -26.6388   21.5220 C   0  0  0  0  0  0
  -18.1918  -26.7923   22.1630 C   0  0  0  0  0  0
  -19.1538  -28.8839   23.2908 C   0  0  0  0  0  0
  -18.9472  -30.1448   23.8914 C   0  0  0  0  0  0
  -17.6473  -30.6591   24.0580 C   0  0  0  0  0  0
  -25.9038  -34.9486   23.5129 C   0  0  0  0  0  0
  -16.5363  -29.9110   23.6321 C   0  0  0  0  0  0
  -16.7275  -28.6522   23.0346 C   0  0  0  0  0  0
  -26.4466  -31.6594   25.0716 C   0  0  0  0  0  0
  -25.3754  -31.3712   26.1487 C   0  0  0  0  0  0
  -27.0284  -30.3034   24.6074 C   0  0  0  0  0  0
  -27.6032  -32.4309   25.7499 C   0  0  0  0  0  0
  -27.5573  -37.1824   24.8478 C   0  0  0  0  0  0
  -21.4147  -29.3040   22.3717 N   0  0  0  0  0  0
  -26.4272  -37.3815   23.9435 N   0  0  0  0  0  0
  -24.6687  -31.0769   22.0997 N   0  0  0  0  0  0
  -23.4201  -28.8222   23.3006 O   0  0  0  0  0  0
  -28.3900  -26.6638   20.0363 O   0  0  0  0  0  0
  -26.5565  -34.8930   22.4666 O   0  0  0  0  0  0
  -23.5327  -32.1420   23.7478 O   0  0  0  0  0  0
  -28.6188  -17.1658   20.3370 C   0  0  0  0  0  0
  -29.8523  -16.7557   20.7683 C   0  0  0  0  0  0
  -30.3256  -18.9482   20.2912 C   0  0  0  0  0  0
  -29.6803  -23.4961   20.8932 C   0  0  0  0  0  0
  -27.1947  -24.0270   20.4859 C   0  0  0  0  0  0
  -30.7118  -20.7776   22.5247 C   0  0  0  0  0  0
  -31.1326  -20.2197   20.1197 C   0  0  0  0  0  0
  -29.4227  -21.9789   20.7758 C   0  0  0  0  0  0
  -28.7422  -25.9651   21.2451 C   0  0  0  0  0  0
  -28.4796  -24.4185   21.2404 C   0  0  1  0  0  0
  -30.8169  -17.7815   20.7619 N   0  0  0  0  0  0
  -30.0399  -15.4269   21.2388 N   0  0  0  0  0  0
  -30.6693  -21.2372   21.1147 N   0  3  1  0  0  0
  -30.8283  -23.9348   20.7638 O   0  0  0  0  0  0
  -28.6289  -18.8285   19.8210 S   0  0  0  0  0  0
  -31.4765  -12.3934   19.1261 H   0  0  0  0  0  0
  -30.3228  -11.2873   19.8137 H   0  0  0  0  0  0
  -29.7435  -11.7922   17.4255 H   0  0  0  0  0  0
  -29.6776  -13.4998   17.7815 H   0  0  0  0  0  0
  -27.8301  -11.3127   18.8073 H   0  0  0  0  0  0
  -27.3780  -12.6457   17.7838 H   0  0  0  0  0  0
  -27.7180  -14.2526   19.5774 H   0  0  0  0  0  0
  -28.6812  -11.9448   21.3325 H   0  0  0  0  0  0
  -28.4572  -13.5736   21.8760 H   0  0  0  0  0  0
  -25.2774   -9.5660   22.4773 H   0  0  0  0  0  0
  -23.9998   -7.4627   22.7457 H   0  0  0  0  0  0
  -21.0872   -8.8808   19.8960 H   0  0  0  0  0  0
  -22.3744  -10.9690   19.6182 H   0  0  0  0  0  0
  -21.2005   -7.6153   23.9747 H   0  0  0  0  0  0
  -21.1477   -6.0511   25.9089 H   0  0  0  0  0  0
  -22.0603   -2.7622   23.2836 H   0  0  0  0  0  0
  -22.4090  -11.9896   22.4812 H   0  0  0  0  0  0
  -21.1130  -13.1294   22.2571 H   0  0  0  0  0  0
  -24.6095  -15.7889   20.4196 H   0  0  0  0  0  0
  -26.1249  -15.5265   19.7390 H   0  0  0  0  0  0
  -26.7150  -32.5517   23.1167 H   0  0  0  0  0  0
  -25.0135  -33.9765   25.0505 H   0  0  0  0  0  0
  -22.6949  -31.3078   21.4040 H   0  0  0  0  0  0
  -23.3736  -35.9649   23.3315 H   0  0  0  0  0  0
  -24.3568  -36.8879   22.2051 H   0  0  0  0  0  0
  -23.7225  -37.6530   23.6609 H   0  0  0  0  0  0
  -26.0407  -31.5867   20.5933 H   0  0  0  0  0  0
  -26.8256  -30.8864   21.9834 H   0  0  0  0  0  0
  -28.0970  -29.0778   21.2074 H   0  0  0  0  0  0
  -26.0896  -26.0194   18.9266 H   0  0  0  0  0  0
  -23.9976  -27.3093   18.9948 H   0  0  0  0  0  0
  -23.7357  -30.5920   19.3962 H   0  0  0  0  0  0
  -22.7428  -29.2421   19.8540 H   0  0  0  0  0  0
  -25.1284  -36.1965   25.0846 H   0  0  0  0  0  0
  -20.9981  -28.3209   24.1425 H   0  0  0  0  0  0
  -20.5659  -26.2285   23.3605 H   0  0  0  0  0  0
  -21.6639  -26.7441   22.1224 H   0  0  0  0  0  0
  -19.6889  -25.6305   21.1229 H   0  0  0  0  0  0
  -19.6650  -27.3215   20.6761 H   0  0  0  0  0  0
  -17.4205  -26.6696   21.4022 H   0  0  0  0  0  0
  -18.0314  -26.0056   22.9005 H   0  0  0  0  0  0
  -19.7946  -30.7272   24.2279 H   0  0  0  0  0  0
  -17.5031  -31.6267   24.5180 H   0  0  0  0  0  0
  -15.5365  -30.3026   23.7629 H   0  0  0  0  0  0
  -15.8670  -28.0853   22.7039 H   0  0  0  0  0  0
  -24.5927  -30.7038   25.7873 H   0  0  0  0  0  0
  -24.8949  -32.2875   26.4923 H   0  0  0  0  0  0
  -25.8148  -30.8921   27.0243 H   0  0  0  0  0  0
  -26.2828  -29.6826   24.1098 H   0  0  0  0  0  0
  -27.4036  -29.7227   25.4511 H   0  0  0  0  0  0
  -27.8664  -30.4363   23.9232 H   0  0  0  0  0  0
  -27.2630  -33.3579   26.2111 H   0  0  0  0  0  0
  -28.3841  -32.6896   25.0350 H   0  0  0  0  0  0
  -28.0696  -31.8408   26.5392 H   0  0  0  0  0  0
  -28.2648  -38.0078   24.7521 H   0  0  0  0  0  0
  -28.1011  -36.2616   24.6311 H   0  0  0  0  0  0
  -27.2288  -37.1517   25.8883 H   0  0  0  0  0  0
  -20.9293  -29.8791   21.6976 H   0  0  0  0  0  0
  -26.0146  -38.2898   24.1406 H   0  0  0  0  0  0
  -27.7066  -16.5948   20.2683 H   0  0  0  0  0  0
  -26.9200  -22.9827   20.6317 H   0  0  0  0  0  0
  -27.3004  -24.1951   19.4138 H   0  0  0  0  0  0
  -26.3469  -24.6142   20.8425 H   0  0  0  0  0  0
  -31.6428  -20.2535   22.7429 H   0  0  0  0  0  0
  -29.8822  -20.1048   22.7499 H   0  0  0  0  0  0
  -30.6463  -21.6278   23.2031 H   0  0  0  0  0  0
  -31.0430  -20.5913   19.0983 H   0  0  0  0  0  0
  -32.1885  -19.9955   20.2846 H   0  0  0  0  0  0
  -29.1167  -21.7722   19.7504 H   0  0  0  0  0  0
  -28.6040  -21.6732   21.4268 H   0  0  0  0  0  0
  -29.7926  -26.1738   21.4522 H   0  0  0  0  0  0
  -28.2138  -26.3995   22.0945 H   0  0  0  0  0  0
  -28.2981  -24.1684   22.2858 H   0  0  0  0  0  0
  -29.2387  -15.0430   21.7142 H   0  0  0  0  0  0
  -31.3587  -21.9761   21.0534 H   0  0  0  0  0  0
  1 25  1  0  0  0
  1 30  2  0  0  0
  1 82  1  0  0  0
  2  3  1  0  0  0
  2 25  1  0  0  0
  2 86  1  0  0  0
  2 87  1  0  0  0
  3  4  1  0  0  0
  3 88  1  0  0  0
  3 89  1  0  0  0
  4  5  1  0  0  0
  4 90  1  0  0  0
  4 91  1  0  0  0
  5  6  1  0  0  0
  5 26  1  0  0  0
  5 92  1  0  0  0
  6 25  1  0  0  0
  6 93  1  0  0  0
  6 94  1  0  0  0
  7  8  2  0  0  0
  7 26  1  0  0  0
  7 29  1  0  0  0
  8  9  1  0  0  0
  8 22  1  0  0  0
  9 10  1  0  0  0
  9 27  2  0  0  0
 10 11  2  0  0  0
 10 15  1  0  0  0
 11 12  1  0  0  0
 11 95  1  0  0  0
 12 13  2  0  0  0
 12 96  1  0  0  0
 13 14  1  0  0  0
 13 31  1  0  0  0
 14 15  2  0  0  0
 14 97  1  0  0  0
 15 98  1  0  0  0
 16 17  2  0  0  0
 16 21  1  0  0  0
 16 31  1  0  0  0
 17 18  1  0  0  0
 17 99  1  0  0  0
 18 19  2  0  0  0
 18100  1  0  0  0
 19 20  1  0  0  0
 19 24  1  0  0  0
 20 21  2  0  0  0
 20101  1  0  0  0
 21 23  1  0  0  0
 22 28  1  0  0  0
 22 32  2  0  0  0
 26 27  1  0  0  0
 28102  1  0  0  0
 28103  1  0  0  0
 29104  1  0  0  0
 29105  1  0  0  0
 33 34  1  0  0  0
 33 66  1  0  0  0
 33 70  2  0  0  0
 34 36  1  0  0  0
 34 59  1  0  0  0
 34106  1  0  0  0
 35 44  2  0  0  0
 35 45  1  0  0  0
 35 68  1  0  0  0
 36 56  1  0  0  0
 36107  1  0  0  0
 37 39  1  0  0  0
 37 47  1  0  0  0
 37 66  1  0  0  0
 37108  1  0  0  0
 38 43  2  0  0  0
 38 46  1  0  0  0
 38 47  1  0  0  0
 39 64  1  0  0  0
 39 67  2  0  0  0
 40 52  1  0  0  0
 40 53  2  0  0  0
 40 58  1  0  0  0
 41109  1  0  0  0
 41110  1  0  0  0
 41111  1  0  0  0
 41 48  1  0  0  0
 42 43  1  0  0  0
 42 66  1  0  0  0
 42112  1  0  0  0
 42113  1  0  0  0
 43 44  1  0  0  0
 44114  1  0  0  0
 45 46  2  0  0  0
 45115  1  0  0  0
 46116  1  0  0  0
 47117  1  0  0  0
 47118  1  0  0  0
 48 56  1  0  0  0
 48 65  1  0  0  0
 48119  1  0  0  0
 49 50  1  0  0  0
 49 53  1  0  0  0
 49 64  1  0  0  0
 49120  1  0  0  0
 50 51  1  0  0  0
 50121  1  0  0  0
 50122  1  0  0  0
 51 52  1  0  0  0
 51123  1  0  0  0
 51124  1  0  0  0
 52125  1  0  0  0
 52126  1  0  0  0
 53 54  1  0  0  0
 54 55  2  0  0  0
 54127  1  0  0  0
 55 57  1  0  0  0
 55128  1  0  0  0
 56 69  2  0  0  0
 57 58  2  0  0  0
 57129  1  0  0  0
 58130  1  0  0  0
 59 60  1  0  0  0
 59 61  1  0  0  0
 59 62  1  0  0  0
 60131  1  0  0  0
 60132  1  0  0  0
 60133  1  0  0  0
 61134  1  0  0  0
 61135  1  0  0  0
 61136  1  0  0  0
 62137  1  0  0  0
 62138  1  0  0  0
 62139  1  0  0  0
 63 65  1  0  0  0
 63140  1  0  0  0
 63141  1  0  0  0
 63142  1  0  0  0
 64143  1  0  0  0
 65144  1  0  0  0
 68 79  1  0  0  0
 71 72  2  0  0  0
 71 85  1  0  0  0
 71145  1  0  0  0
 72 81  1  0  0  0
 72 82  1  0  0  0
 73 77  1  0  0  0
 73 81  2  0  0  0
 73 85  1  0  0  0
 74 78  1  0  0  0
 74 80  1  0  0  0
 74 84  2  0  0  0
 75146  1  0  0  0
 75147  1  0  0  0
 75148  1  0  0  0
 75 80  1  0  0  0
 76149  1  0  0  0
 76150  1  0  0  0
 76151  1  0  0  0
 76 83  1  0  0  0
 77 83  1  0  0  0
 77152  1  0  0  0
 77153  1  0  0  0
 78 83  1  0  0  0
 78154  1  0  0  0
 78155  1  0  0  0
 79 80  1  0  0  0
 79156  1  0  0  0
 79157  1  0  0  0
 80158  1  0  0  0
 82159  1  0  0  0
 83160  1  0  0  0
M  CHG  1  83   1
M  ISO  4   1 100  68 101  79 101  82 100
M  END
> <chiral flag>
0

> <version>
0

> <s_m_source_file>
/data/baiqing/PycharmProjects/Reinvent-master-3.2/result/LINK_invent/BTK/process_docking_weight1_custom_product_contain_oxygen_bond_distance_aromatic_linkinvent_7_9_3/rearranged_h_0188.sdf

> <i_m_source_file_index>
81

> <r_mmod_Potential_Energy-OPLS-2005>
-292.686614990234

> <r_mmod_Stretch_Energy-OPLS-2005>
40.5005035400391

> <r_mmod_Bend_Energy-OPLS-2005>
113.447677612305

> <r_mmod_Torsional_Energy-OPLS-2005>
277.585845947266

> <r_mmod_Improper_Torsional_Energy-OPLS-2005>
8.85196971893311

> <r_mmod_Van_der_Waal_Energy-OPLS-2005>
124.429580688477

> <r_mmod_Electrostatic_Energy-OPLS-2005>
-396.980499267578

> <r_mmod_Solvation_Energy-OPLS-2005>
-472.285278320312

> <b_mmod_Minimization_Converged-OPLS-2005>
0

> <r_mmod_RMS_Derivative-OPLS-2005>
3.13886547088623

$$$$
82
                    3D
 Structure written by MMmdl.
155163  0  0  1  0            999 V2000
  -30.5906  -14.7931   20.4482 C   0  0  0  0  0  0
  -30.4260  -12.4898   19.4751 C   0  0  0  0  0  0
  -29.5045  -12.5237   18.2335 C   0  0  0  0  0  0
  -28.0302  -12.3480   18.6460 C   0  0  0  0  0  0
  -27.6323  -13.2445   19.8488 C   0  0  2  0  0  0
  -28.6756  -13.1921   20.9831 C   0  0  0  0  0  0
  -25.2439  -13.8194   20.5722 C   0  0  0  0  0  0
  -24.1740  -13.0396   20.9177 C   0  0  0  0  0  0
  -24.6378  -11.6905   20.8714 C   0  0  0  0  0  0
  -23.9070  -10.4270   21.0403 C   0  0  0  0  0  0
  -24.3627   -9.4189   21.9187 C   0  0  0  0  0  0
  -23.6301   -8.2228   22.0766 C   0  0  0  0  0  0
  -22.4282   -8.0266   21.3545 C   0  0  0  0  0  0
  -21.9914   -9.0232   20.4640 C   0  0  0  0  0  0
  -22.7246  -10.2107   20.3049 C   0  0  0  0  0  0
  -21.6853   -6.0730   22.5272 C   0  0  0  0  0  0
  -21.4020   -6.5637   23.8202 C   0  0  0  0  0  0
  -21.3667   -5.6791   24.9172 C   0  0  0  0  0  0
  -21.6041   -4.3046   24.7215 C   0  0  0  0  0  0
  -21.8825   -3.8140   23.4334 C   0  0  0  0  0  0
  -21.9185   -4.6961   22.3394 C   0  0  0  0  0  0
  -22.7764  -13.5185   21.1840 C   0  0  0  0  0  0
  -22.1650   -4.2158   21.0968 F   0  0  0  0  0  0
  -21.5647   -3.4530   25.7725 F   0  0  0  0  0  0
  -29.9701  -13.5602   20.3962 N   0  0  0  0  0  0
  -26.2885  -12.9440   20.3287 N   0  0  0  0  0  0
  -25.9312  -11.6561   20.5728 N   0  0  0  0  0  0
  -22.0429  -12.8173   22.0418 N   0  0  0  0  0  0
  -25.4030  -15.1932   20.4278 N   0  0  0  0  0  0
  -31.7855  -14.8756   20.1473 O   0  0  0  0  0  0
  -21.6630   -6.8873   21.4239 O   0  0  0  0  0  0
  -22.3416  -14.5474   20.6680 O   0  0  0  0  0  0
  -24.6325  -31.8518   23.1945 C   0  0  0  0  0  0
  -25.9148  -32.4745   23.8296 C   0  0  1  0  0  0
  -27.2217  -27.2451   20.1459 C   0  0  0  0  0  0
  -25.5907  -33.8550   24.2206 N   0  0  0  0  0  0
  -23.4318  -30.4717   21.5367 C   0  0  2  0  0  0
  -24.8761  -28.9076   20.1141 C   0  0  0  0  0  0
  -22.7485  -29.4623   22.4904 C   0  0  0  0  0  0
  -18.0284  -28.1396   22.8509 C   0  0  0  0  0  0
  -24.1492  -36.7302   23.2644 C   0  0  0  0  0  0
  -25.9730  -30.7630   21.3697 C   0  0  0  0  0  0
  -26.0477  -29.3796   20.7218 C   0  0  0  0  0  0
  -27.2246  -28.5625   20.7192 C   0  0  0  0  0  0
  -26.0255  -26.8289   19.5254 C   0  0  0  0  0  0
  -24.8707  -27.6415   19.5060 C   0  0  0  0  0  0
  -23.6487  -29.7993   20.1562 C   0  0  0  0  0  0
  -25.4123  -36.3063   24.0315 C   0  0  1  0  0  0
  -20.5895  -28.3734   23.1257 C   0  0  2  0  0  0
  -20.6771  -26.9463   22.5334 C   0  0  0  0  0  0
  -19.5715  -26.6439   21.5211 C   0  0  0  0  0  0
  -18.1939  -26.7902   22.1736 C   0  0  0  0  0  0
  -19.1549  -28.8891   23.2864 C   0  0  0  0  0  0
  -18.9478  -30.1484   23.8909 C   0  0  0  0  0  0
  -17.6488  -30.6634   24.0565 C   0  0  0  0  0  0
  -25.9057  -34.9436   23.5075 C   0  0  0  0  0  0
  -16.5385  -29.9113   23.6356 C   0  0  0  0  0  0
  -16.7284  -28.6511   23.0406 C   0  0  0  0  0  0
  -26.4503  -31.6565   25.0688 C   0  0  0  0  0  0
  -25.3731  -31.3757   26.1424 C   0  0  0  0  0  0
  -27.0307  -30.2956   24.6207 C   0  0  0  0  0  0
  -27.6077  -32.4280   25.7449 C   0  0  0  0  0  0
  -27.5566  -37.1820   24.8454 C   0  0  0  0  0  0
  -21.4187  -29.3077   22.3625 N   0  0  0  0  0  0
  -26.4286  -37.3768   23.9390 N   0  0  0  0  0  0
  -24.6987  -31.0491   22.0907 N   0  0  0  0  0  0
  -23.4165  -28.8165   23.3016 O   0  0  0  0  0  0
  -28.3388  -26.3774   20.1045 O   0  0  0  0  0  0
  -26.5656  -34.8921   22.4669 O   0  0  0  0  0  0
  -23.5469  -32.1333   23.7225 O   0  0  0  0  0  0
  -27.9114  -18.4781   20.8846 C   0  0  0  0  0  0
  -29.2668  -18.6724   20.5602 C   0  0  0  0  0  0
  -27.1073  -19.6280   20.9887 C   0  0  0  0  0  0
  -28.8253  -21.0375   20.4748 C   0  0  0  0  0  0
  -29.3242  -25.1015   21.8481 C   0  0  0  0  0  0
  -30.2636  -17.4188   20.4497 C   0  0  0  0  0  0
  -28.5701  -23.6418   19.8227 C   0  0  0  0  0  0
  -28.3033  -24.9936   20.7077 C   0  0  2  0  0  0
  -29.7047  -19.9904   20.3797 N   0  0  0  0  0  0
  -27.5405  -20.8815   20.7599 N   0  0  0  0  0  0
  -25.7919  -19.5101   21.4080 N   0  0  0  0  0  0
  -29.2636  -22.3987   20.3927 N   0  0  0  0  0  0
  -29.8305  -15.9489   20.6187 N   0  0  0  0  0  0
  -27.3992  -17.2439   21.1177 F   0  0  0  0  0  0
  -31.4645  -12.6252   19.1691 H   0  0  0  0  0  0
  -30.3846  -11.5169   19.9674 H   0  0  0  0  0  0
  -29.7908  -11.7437   17.5258 H   0  0  0  0  0  0
  -29.6281  -13.4720   17.7084 H   0  0  0  0  0  0
  -27.8883  -11.2979   18.9058 H   0  0  0  0  0  0
  -27.3732  -12.5485   17.7984 H   0  0  0  0  0  0
  -27.6163  -14.2672   19.4700 H   0  0  0  0  0  0
  -28.4028  -13.8813   21.7845 H   0  0  0  0  0  0
  -28.7160  -12.1959   21.4293 H   0  0  0  0  0  0
  -25.2779   -9.5659   22.4750 H   0  0  0  0  0  0
  -24.0004   -7.4629   22.7499 H   0  0  0  0  0  0
  -21.0848   -8.8746   19.8943 H   0  0  0  0  0  0
  -22.3717  -10.9645   19.6148 H   0  0  0  0  0  0
  -21.2020   -7.6154   23.9708 H   0  0  0  0  0  0
  -21.1487   -6.0527   25.9077 H   0  0  0  0  0  0
  -22.0597   -2.7613   23.2822 H   0  0  0  0  0  0
  -22.4063  -11.9857   22.4811 H   0  0  0  0  0  0
  -21.1032  -13.1170   22.2589 H   0  0  0  0  0  0
  -24.6379  -15.8349   20.6032 H   0  0  0  0  0  0
  -26.2830  -15.6745   20.2816 H   0  0  0  0  0  0
  -26.7200  -32.5401   23.1022 H   0  0  0  0  0  0
  -25.0022  -33.9663   25.0323 H   0  0  0  0  0  0
  -22.7276  -31.2947   21.3914 H   0  0  0  0  0  0
  -23.3724  -35.9654   23.3306 H   0  0  0  0  0  0
  -24.3580  -36.8945   22.2054 H   0  0  0  0  0  0
  -23.7255  -37.6519   23.6676 H   0  0  0  0  0  0
  -26.1003  -31.5148   20.5914 H   0  0  0  0  0  0
  -26.8556  -30.8262   21.9946 H   0  0  0  0  0  0
  -28.1257  -28.9264   21.1925 H   0  0  0  0  0  0
  -25.9788  -25.8545   19.0576 H   0  0  0  0  0  0
  -23.9742  -27.2772   19.0237 H   0  0  0  0  0  0
  -23.7699  -30.5740   19.3967 H   0  0  0  0  0  0
  -22.7639  -29.2387   19.8519 H   0  0  0  0  0  0
  -25.1296  -36.1926   25.0801 H   0  0  0  0  0  0
  -20.9950  -28.3300   24.1394 H   0  0  0  0  0  0
  -20.5774  -26.2344   23.3533 H   0  0  0  0  0  0
  -21.6585  -26.7510   22.0966 H   0  0  0  0  0  0
  -19.6889  -25.6338   21.1272 H   0  0  0  0  0  0
  -19.6598  -27.3266   20.6746 H   0  0  0  0  0  0
  -17.4103  -26.6452   21.4260 H   0  0  0  0  0  0
  -18.0554  -26.0117   22.9252 H   0  0  0  0  0  0
  -19.7978  -30.7243   24.2296 H   0  0  0  0  0  0
  -17.5018  -31.6297   24.5204 H   0  0  0  0  0  0
  -15.5384  -30.2997   23.7676 H   0  0  0  0  0  0
  -15.8657  -28.0858   22.7161 H   0  0  0  0  0  0
  -24.5869  -30.7150   25.7761 H   0  0  0  0  0  0
  -24.8984  -32.2955   26.4859 H   0  0  0  0  0  0
  -25.8043  -30.8918   27.0183 H   0  0  0  0  0  0
  -26.2856  -29.6715   24.1262 H   0  0  0  0  0  0
  -27.3954  -29.7251   25.4750 H   0  0  0  0  0  0
  -27.8762  -30.4185   23.9435 H   0  0  0  0  0  0
  -27.2739  -33.3631   26.1953 H   0  0  0  0  0  0
  -28.3936  -32.6732   25.0295 H   0  0  0  0  0  0
  -28.0661  -31.8424   26.5424 H   0  0  0  0  0  0
  -28.2594  -38.0107   24.7479 H   0  0  0  0  0  0
  -28.1055  -36.2637   24.6302 H   0  0  0  0  0  0
  -27.2291  -37.1493   25.8863 H   0  0  0  0  0  0
  -20.9413  -29.8688   21.6704 H   0  0  0  0  0  0
  -26.0161  -38.2841   24.1389 H   0  0  0  0  0  0
  -29.3453  -24.1940   22.4500 H   0  0  0  0  0  0
  -29.0792  -25.9298   22.5147 H   0  0  0  0  0  0
  -30.3275  -25.2757   21.4608 H   0  0  0  0  0  0
  -31.0575  -17.6075   21.1715 H   0  0  0  0  0  0
  -30.7342  -17.5051   19.4707 H   0  0  0  0  0  0
  -29.2060  -23.9425   18.9892 H   0  0  0  0  0  0
  -27.6327  -23.3356   19.3580 H   0  0  0  0  0  0
  -27.3249  -24.8692   21.1760 H   0  0  0  0  0  0
  -25.6221  -18.6212   21.8614 H   0  0  0  0  0  0
  -25.4643  -20.2913   21.9605 H   0  0  0  0  0  0
  -30.2725  -22.4590   20.3282 H   0  0  0  0  0  0
  -28.8464  -15.8295   20.8153 H   0  0  0  0  0  0
  1 25  1  0  0  0
  1 30  2  0  0  0
  1 83  1  0  0  0
  2  3  1  0  0  0
  2 25  1  0  0  0
  2 85  1  0  0  0
  2 86  1  0  0  0
  3  4  1  0  0  0
  3 87  1  0  0  0
  3 88  1  0  0  0
  4  5  1  0  0  0
  4 89  1  0  0  0
  4 90  1  0  0  0
  5  6  1  0  0  0
  5 26  1  0  0  0
  5 91  1  0  0  0
  6 25  1  0  0  0
  6 92  1  0  0  0
  6 93  1  0  0  0
  7  8  2  0  0  0
  7 26  1  0  0  0
  7 29  1  0  0  0
  8  9  1  0  0  0
  8 22  1  0  0  0
  9 10  1  0  0  0
  9 27  2  0  0  0
 10 11  2  0  0  0
 10 15  1  0  0  0
 11 12  1  0  0  0
 11 94  1  0  0  0
 12 13  2  0  0  0
 12 95  1  0  0  0
 13 14  1  0  0  0
 13 31  1  0  0  0
 14 15  2  0  0  0
 14 96  1  0  0  0
 15 97  1  0  0  0
 16 17  2  0  0  0
 16 21  1  0  0  0
 16 31  1  0  0  0
 17 18  1  0  0  0
 17 98  1  0  0  0
 18 19  2  0  0  0
 18 99  1  0  0  0
 19 20  1  0  0  0
 19 24  1  0  0  0
 20 21  2  0  0  0
 20100  1  0  0  0
 21 23  1  0  0  0
 22 28  1  0  0  0
 22 32  2  0  0  0
 26 27  1  0  0  0
 28101  1  0  0  0
 28102  1  0  0  0
 29103  1  0  0  0
 29104  1  0  0  0
 33 34  1  0  0  0
 33 66  1  0  0  0
 33 70  2  0  0  0
 34 36  1  0  0  0
 34 59  1  0  0  0
 34105  1  0  0  0
 35 44  2  0  0  0
 35 45  1  0  0  0
 35 68  1  0  0  0
 36 56  1  0  0  0
 36106  1  0  0  0
 37 39  1  0  0  0
 37 47  1  0  0  0
 37 66  1  0  0  0
 37107  1  0  0  0
 38 43  2  0  0  0
 38 46  1  0  0  0
 38 47  1  0  0  0
 39 64  1  0  0  0
 39 67  2  0  0  0
 40 52  1  0  0  0
 40 53  2  0  0  0
 40 58  1  0  0  0
 41108  1  0  0  0
 41109  1  0  0  0
 41110  1  0  0  0
 41 48  1  0  0  0
 42 43  1  0  0  0
 42 66  1  0  0  0
 42111  1  0  0  0
 42112  1  0  0  0
 43 44  1  0  0  0
 44113  1  0  0  0
 45 46  2  0  0  0
 45114  1  0  0  0
 46115  1  0  0  0
 47116  1  0  0  0
 47117  1  0  0  0
 48 56  1  0  0  0
 48 65  1  0  0  0
 48118  1  0  0  0
 49 50  1  0  0  0
 49 53  1  0  0  0
 49 64  1  0  0  0
 49119  1  0  0  0
 50 51  1  0  0  0
 50120  1  0  0  0
 50121  1  0  0  0
 51 52  1  0  0  0
 51122  1  0  0  0
 51123  1  0  0  0
 52124  1  0  0  0
 52125  1  0  0  0
 53 54  1  0  0  0
 54 55  2  0  0  0
 54126  1  0  0  0
 55 57  1  0  0  0
 55127  1  0  0  0
 56 69  2  0  0  0
 57 58  2  0  0  0
 57128  1  0  0  0
 58129  1  0  0  0
 59 60  1  0  0  0
 59 61  1  0  0  0
 59 62  1  0  0  0
 60130  1  0  0  0
 60131  1  0  0  0
 60132  1  0  0  0
 61133  1  0  0  0
 61134  1  0  0  0
 61135  1  0  0  0
 62136  1  0  0  0
 62137  1  0  0  0
 62138  1  0  0  0
 63 65  1  0  0  0
 63139  1  0  0  0
 63140  1  0  0  0
 63141  1  0  0  0
 64142  1  0  0  0
 65143  1  0  0  0
 68 78  1  0  0  0
 71 72  2  0  0  0
 71 73  1  0  0  0
 71 84  1  0  0  0
 72 76  1  0  0  0
 72 79  1  0  0  0
 73 80  2  0  0  0
 73 81  1  0  0  0
 74 79  2  0  0  0
 74 80  1  0  0  0
 74 82  1  0  0  0
 75144  1  0  0  0
 75145  1  0  0  0
 75146  1  0  0  0
 75 78  1  0  0  0
 76 83  1  0  0  0
 76147  1  0  0  0
 76148  1  0  0  0
 77 78  1  0  0  0
 77 82  1  0  0  0
 77149  1  0  0  0
 77150  1  0  0  0
 78151  1  0  0  0
 81152  1  0  0  0
 81153  1  0  0  0
 82154  1  0  0  0
 83155  1  0  0  0
M  ISO  4   1 100  68 101  78 101  83 100
M  END
> <chiral flag>
0

> <version>
0

> <s_m_source_file>
/data/baiqing/PycharmProjects/Reinvent-master-3.2/result/LINK_invent/BTK/process_docking_weight1_custom_product_contain_oxygen_bond_distance_aromatic_linkinvent_7_9_3/rearranged_h_0188.sdf

> <i_m_source_file_index>
82

> <r_mmod_Potential_Energy-OPLS-2005>
-496.508148193359

> <r_mmod_Stretch_Energy-OPLS-2005>
131.901321411133

> <r_mmod_Bend_Energy-OPLS-2005>
188.745513916016

> <r_mmod_Torsional_Energy-OPLS-2005>
243.051040649414

> <r_mmod_Improper_Torsional_Energy-OPLS-2005>
12.4112634658813

> <r_mmod_Van_der_Waal_Energy-OPLS-2005>
135.906723022461

> <r_mmod_Electrostatic_Energy-OPLS-2005>
-1069.49682617188

> <r_mmod_Solvation_Energy-OPLS-2005>
-236.349456787109

> <b_mmod_Minimization_Converged-OPLS-2005>
0

> <r_mmod_RMS_Derivative-OPLS-2005>
4.28303194046021

$$$$
83
                    3D
 Structure written by MMmdl.
163171  0  0  1  0            999 V2000
  -30.7188  -14.5360   20.5175 C   0  0  0  0  0  0
  -30.4229  -12.3295   19.4367 C   0  0  0  0  0  0
  -29.4998  -12.4967   18.2131 C   0  0  0  0  0  0
  -28.0233  -12.3512   18.6269 C   0  0  0  0  0  0
  -27.6589  -13.2177   19.8634 C   0  0  2  0  0  0
  -28.7069  -13.0670   20.9924 C   0  0  0  0  0  0
  -25.2572  -13.8190   20.5717 C   0  0  0  0  0  0
  -24.1855  -13.0460   20.9214 C   0  0  0  0  0  0
  -24.6419  -11.6917   20.8746 C   0  0  0  0  0  0
  -23.9076  -10.4305   21.0410 C   0  0  0  0  0  0
  -24.3628   -9.4224   21.9191 C   0  0  0  0  0  0
  -23.6303   -8.2260   22.0755 C   0  0  0  0  0  0
  -22.4289   -8.0292   21.3539 C   0  0  0  0  0  0
  -21.9920   -9.0274   20.4648 C   0  0  0  0  0  0
  -22.7246  -10.2154   20.3063 C   0  0  0  0  0  0
  -21.6853   -6.0748   22.5283 C   0  0  0  0  0  0
  -21.4014   -6.5649   23.8218 C   0  0  0  0  0  0
  -21.3655   -5.6799   24.9181 C   0  0  0  0  0  0
  -21.6058   -4.3065   24.7231 C   0  0  0  0  0  0
  -21.8808   -3.8157   23.4353 C   0  0  0  0  0  0
  -21.9193   -4.6969   22.3405 C   0  0  0  0  0  0
  -22.7861  -13.5242   21.1873 C   0  0  0  0  0  0
  -22.1659   -4.2164   21.0975 F   0  0  0  0  0  0
  -21.5628   -3.4544   25.7737 F   0  0  0  0  0  0
  -30.0345  -13.3560   20.4243 N   0  0  0  0  0  0
  -26.3017  -12.9389   20.3327 N   0  0  0  0  0  0
  -25.9353  -11.6542   20.5767 N   0  0  0  0  0  0
  -22.0490  -12.8239   22.0409 N   0  0  0  0  0  0
  -25.4272  -15.1928   20.4121 N   0  0  0  0  0  0
  -31.8766  -14.6305   20.1013 O   0  0  0  0  0  0
  -21.6640   -6.8898   21.4246 O   0  0  0  0  0  0
  -22.3546  -14.5563   20.6719 O   0  0  0  0  0  0
  -24.6190  -31.8615   23.2056 C   0  0  0  0  0  0
  -25.9080  -32.4769   23.8354 C   0  0  1  0  0  0
  -27.2244  -27.3392   20.1298 C   0  0  0  0  0  0
  -25.5952  -33.8579   24.2272 N   0  0  0  0  0  0
  -23.4089  -30.4886   21.5445 C   0  0  2  0  0  0
  -24.8584  -28.9386   20.1171 C   0  0  0  0  0  0
  -22.7384  -29.4675   22.4925 C   0  0  0  0  0  0
  -18.0286  -28.1385   22.8482 C   0  0  0  0  0  0
  -24.1488  -36.7265   23.2627 C   0  0  0  0  0  0
  -25.9485  -30.7884   21.3825 C   0  0  0  0  0  0
  -26.0208  -29.4167   20.7320 C   0  0  0  0  0  0
  -27.2042  -28.6276   20.7367 C   0  0  0  0  0  0
  -26.0521  -26.9271   19.4565 C   0  0  0  0  0  0
  -24.8739  -27.6951   19.4703 C   0  0  0  0  0  0
  -23.6251  -29.8161   20.1618 C   0  0  0  0  0  0
  -25.4120  -36.3071   24.0305 C   0  0  1  0  0  0
  -20.5864  -28.3713   23.1256 C   0  0  2  0  0  0
  -20.6777  -26.9452   22.5385 C   0  0  0  0  0  0
  -19.5772  -26.6402   21.5178 C   0  0  0  0  0  0
  -18.1954  -26.7934   22.1606 C   0  0  0  0  0  0
  -19.1533  -28.8869   23.2867 C   0  0  0  0  0  0
  -18.9482  -30.1474   23.8892 C   0  0  0  0  0  0
  -17.6495  -30.6608   24.0581 C   0  0  0  0  0  0
  -25.9063  -34.9439   23.5071 C   0  0  0  0  0  0
  -16.5380  -29.9121   23.6338 C   0  0  0  0  0  0
  -16.7276  -28.6518   23.0369 C   0  0  0  0  0  0
  -26.4491  -31.6567   25.0712 C   0  0  0  0  0  0
  -25.3717  -31.3733   26.1437 C   0  0  0  0  0  0
  -27.0330  -30.2982   24.6141 C   0  0  0  0  0  0
  -27.6032  -32.4309   25.7514 C   0  0  0  0  0  0
  -27.5555  -37.1802   24.8462 C   0  0  0  0  0  0
  -21.4113  -29.3075   22.3641 N   0  0  0  0  0  0
  -26.4275  -37.3792   23.9402 N   0  0  0  0  0  0
  -24.6760  -31.0654   22.0988 N   0  0  0  0  0  0
  -23.4109  -28.8210   23.2995 O   0  0  0  0  0  0
  -28.3527  -26.5124   20.1702 O   0  0  0  0  0  0
  -26.5630  -34.8908   22.4633 O   0  0  0  0  0  0
  -23.5360  -32.1433   23.7401 O   0  0  0  0  0  0
  -30.6903  -19.5112   21.2090 C   0  0  0  0  0  0
  -31.6739  -18.8748   20.4725 C   0  0  0  0  0  0
  -30.3801  -17.0233   20.9075 C   0  0  0  0  0  0
  -30.7057  -20.8775   21.7585 C   0  0  0  0  0  0
  -27.6338  -24.1782   19.4590 C   0  0  0  0  0  0
  -27.9848  -23.0220   22.7619 C   0  0  0  0  0  0
  -30.3232  -23.4840   23.3495 C   0  0  0  0  0  0
  -29.4894  -24.4374   21.1685 C   0  0  0  0  0  0
  -28.1806  -25.0995   20.5775 C   0  0  1  0  0  0
  -29.3958  -23.1715   22.1504 C   0  0  0  0  0  0
  -31.4814  -17.4968   20.3049 N   0  0  0  0  0  0
  -32.8315  -19.4600   19.9483 N   0  0  0  0  0  0
  -31.7671  -21.1622   22.5295 N   0  0  0  0  0  0
  -30.0177  -15.6195   20.9433 N   0  0  0  0  0  0
  -29.7257  -21.8173   21.5343 N   0  3  0  0  0  0
  -29.4281  -18.3457   21.6301 S   0  0  0  0  0  0
  -31.4689  -12.4056   19.1279 H   0  0  0  0  0  0
  -30.3156  -11.3294   19.8639 H   0  0  0  0  0  0
  -29.7504  -11.7641   17.4439 H   0  0  0  0  0  0
  -29.6607  -13.4779   17.7624 H   0  0  0  0  0  0
  -27.8401  -11.2968   18.8461 H   0  0  0  0  0  0
  -27.3723  -12.6014   17.7891 H   0  0  0  0  0  0
  -27.6855  -14.2560   19.5304 H   0  0  0  0  0  0
  -28.6891  -12.0544   21.4004 H   0  0  0  0  0  0
  -28.4756  -13.7330   21.8252 H   0  0  0  0  0  0
  -25.2788   -9.5707   22.4757 H   0  0  0  0  0  0
  -24.0028   -7.4649   22.7467 H   0  0  0  0  0  0
  -21.0857   -8.8796   19.8956 H   0  0  0  0  0  0
  -22.3713  -10.9694   19.6174 H   0  0  0  0  0  0
  -21.1996   -7.6153   23.9733 H   0  0  0  0  0  0
  -21.1491   -6.0520   25.9084 H   0  0  0  0  0  0
  -22.0590   -2.7613   23.2841 H   0  0  0  0  0  0
  -22.4078  -11.9893   22.4813 H   0  0  0  0  0  0
  -21.1106  -13.1262   22.2602 H   0  0  0  0  0  0
  -24.6564  -15.8420   20.5257 H   0  0  0  0  0  0
  -26.2661  -15.6335   20.0586 H   0  0  0  0  0  0
  -26.7120  -32.5424   23.1083 H   0  0  0  0  0  0
  -25.0229  -33.9744   25.0501 H   0  0  0  0  0  0
  -22.7006  -31.3084   21.4016 H   0  0  0  0  0  0
  -23.3753  -35.9600   23.3332 H   0  0  0  0  0  0
  -24.3574  -36.8841   22.2034 H   0  0  0  0  0  0
  -23.7258  -37.6475   23.6641 H   0  0  0  0  0  0
  -26.0777  -31.5417   20.6062 H   0  0  0  0  0  0
  -26.8300  -30.8395   22.0086 H   0  0  0  0  0  0
  -28.0879  -28.9981   21.2363 H   0  0  0  0  0  0
  -26.0298  -26.0197   18.8801 H   0  0  0  0  0  0
  -23.9898  -27.3356   18.9599 H   0  0  0  0  0  0
  -23.7547  -30.5906   19.4058 H   0  0  0  0  0  0
  -22.7442  -29.2469   19.8571 H   0  0  0  0  0  0
  -25.1314  -36.1908   25.0800 H   0  0  0  0  0  0
  -20.9969  -28.3313   24.1368 H   0  0  0  0  0  0
  -20.5678  -26.2353   23.3587 H   0  0  0  0  0  0
  -21.6655  -26.7499   22.1206 H   0  0  0  0  0  0
  -19.6972  -25.6302   21.1238 H   0  0  0  0  0  0
  -19.6722  -27.3169   20.6663 H   0  0  0  0  0  0
  -17.4226  -26.6666   21.4006 H   0  0  0  0  0  0
  -18.0418  -26.0059   22.8995 H   0  0  0  0  0  0
  -19.7978  -30.7285   24.2227 H   0  0  0  0  0  0
  -17.5082  -31.6284   24.5201 H   0  0  0  0  0  0
  -15.5390  -30.3065   23.7658 H   0  0  0  0  0  0
  -15.8657  -28.0843   22.7105 H   0  0  0  0  0  0
  -24.5913  -30.7047   25.7794 H   0  0  0  0  0  0
  -24.8889  -32.2922   26.4758 H   0  0  0  0  0  0
  -25.8025  -30.9003   27.0270 H   0  0  0  0  0  0
  -26.2869  -29.6763   24.1169 H   0  0  0  0  0  0
  -27.4058  -29.7198   25.4613 H   0  0  0  0  0  0
  -27.8744  -30.4301   23.9330 H   0  0  0  0  0  0
  -27.2596  -33.3613   26.2062 H   0  0  0  0  0  0
  -28.3878  -32.6851   25.0371 H   0  0  0  0  0  0
  -28.0669  -31.8462   26.5479 H   0  0  0  0  0  0
  -28.2600  -38.0073   24.7502 H   0  0  0  0  0  0
  -28.1031  -36.2613   24.6320 H   0  0  0  0  0  0
  -27.2257  -37.1447   25.8858 H   0  0  0  0  0  0
  -20.9268  -29.8749   21.6827 H   0  0  0  0  0  0
  -26.0130  -38.2847   24.1456 H   0  0  0  0  0  0
  -27.9424  -24.5125   18.4693 H   0  0  0  0  0  0
  -27.9788  -23.1511   19.5650 H   0  0  0  0  0  0
  -26.5474  -24.0975   19.4892 H   0  0  0  0  0  0
  -27.7237  -23.8786   23.3842 H   0  0  0  0  0  0
  -27.9113  -22.1374   23.3959 H   0  0  0  0  0  0
  -27.2104  -22.9137   22.0016 H   0  0  0  0  0  0
  -30.3588  -22.6636   24.0678 H   0  0  0  0  0  0
  -29.9715  -24.3596   23.8990 H   0  0  0  0  0  0
  -31.3395  -23.7170   23.0304 H   0  0  0  0  0  0
  -29.9971  -25.2409   21.7044 H   0  0  0  0  0  0
  -30.1755  -24.2064   20.3526 H   0  0  0  0  0  0
  -27.4416  -25.1287   21.3776 H   0  0  0  0  0  0
  -33.5312  -18.9222   19.4482 H   0  0  0  0  0  0
  -33.0308  -20.4494   20.0491 H   0  0  0  0  0  0
  -32.4620  -20.4512   22.7134 H   0  0  0  0  0  0
  -31.8619  -22.0432   23.0083 H   0  0  0  0  0  0
  -29.0943  -15.4145   21.2897 H   0  0  0  0  0  0
  -29.0217  -21.5047   20.8815 H   0  0  0  0  0  0
  1 25  1  0  0  0
  1 30  2  0  0  0
  1 84  1  0  0  0
  2  3  1  0  0  0
  2 25  1  0  0  0
  2 87  1  0  0  0
  2 88  1  0  0  0
  3  4  1  0  0  0
  3 89  1  0  0  0
  3 90  1  0  0  0
  4  5  1  0  0  0
  4 91  1  0  0  0
  4 92  1  0  0  0
  5  6  1  0  0  0
  5 26  1  0  0  0
  5 93  1  0  0  0
  6 25  1  0  0  0
  6 94  1  0  0  0
  6 95  1  0  0  0
  7  8  2  0  0  0
  7 26  1  0  0  0
  7 29  1  0  0  0
  8  9  1  0  0  0
  8 22  1  0  0  0
  9 10  1  0  0  0
  9 27  2  0  0  0
 10 11  2  0  0  0
 10 15  1  0  0  0
 11 12  1  0  0  0
 11 96  1  0  0  0
 12 13  2  0  0  0
 12 97  1  0  0  0
 13 14  1  0  0  0
 13 31  1  0  0  0
 14 15  2  0  0  0
 14 98  1  0  0  0
 15 99  1  0  0  0
 16 17  2  0  0  0
 16 21  1  0  0  0
 16 31  1  0  0  0
 17 18  1  0  0  0
 17100  1  0  0  0
 18 19  2  0  0  0
 18101  1  0  0  0
 19 20  1  0  0  0
 19 24  1  0  0  0
 20 21  2  0  0  0
 20102  1  0  0  0
 21 23  1  0  0  0
 22 28  1  0  0  0
 22 32  2  0  0  0
 26 27  1  0  0  0
 28103  1  0  0  0
 28104  1  0  0  0
 29105  1  0  0  0
 29106  1  0  0  0
 33 34  1  0  0  0
 33 66  1  0  0  0
 33 70  2  0  0  0
 34 36  1  0  0  0
 34 59  1  0  0  0
 34107  1  0  0  0
 35 44  2  0  0  0
 35 45  1  0  0  0
 35 68  1  0  0  0
 36 56  1  0  0  0
 36108  1  0  0  0
 37 39  1  0  0  0
 37 47  1  0  0  0
 37 66  1  0  0  0
 37109  1  0  0  0
 38 43  2  0  0  0
 38 46  1  0  0  0
 38 47  1  0  0  0
 39 64  1  0  0  0
 39 67  2  0  0  0
 40 52  1  0  0  0
 40 53  2  0  0  0
 40 58  1  0  0  0
 41110  1  0  0  0
 41111  1  0  0  0
 41112  1  0  0  0
 41 48  1  0  0  0
 42 43  1  0  0  0
 42 66  1  0  0  0
 42113  1  0  0  0
 42114  1  0  0  0
 43 44  1  0  0  0
 44115  1  0  0  0
 45 46  2  0  0  0
 45116  1  0  0  0
 46117  1  0  0  0
 47118  1  0  0  0
 47119  1  0  0  0
 48 56  1  0  0  0
 48 65  1  0  0  0
 48120  1  0  0  0
 49 50  1  0  0  0
 49 53  1  0  0  0
 49 64  1  0  0  0
 49121  1  0  0  0
 50 51  1  0  0  0
 50122  1  0  0  0
 50123  1  0  0  0
 51 52  1  0  0  0
 51124  1  0  0  0
 51125  1  0  0  0
 52126  1  0  0  0
 52127  1  0  0  0
 53 54  1  0  0  0
 54 55  2  0  0  0
 54128  1  0  0  0
 55 57  1  0  0  0
 55129  1  0  0  0
 56 69  2  0  0  0
 57 58  2  0  0  0
 57130  1  0  0  0
 58131  1  0  0  0
 59 60  1  0  0  0
 59 61  1  0  0  0
 59 62  1  0  0  0
 60132  1  0  0  0
 60133  1  0  0  0
 60134  1  0  0  0
 61135  1  0  0  0
 61136  1  0  0  0
 61137  1  0  0  0
 62138  1  0  0  0
 62139  1  0  0  0
 62140  1  0  0  0
 63 65  1  0  0  0
 63141  1  0  0  0
 63142  1  0  0  0
 63143  1  0  0  0
 64144  1  0  0  0
 65145  1  0  0  0
 68 79  1  0  0  0
 71 72  2  0  0  0
 71 74  1  0  0  0
 71 86  1  0  0  0
 72 81  1  0  0  0
 72 82  1  0  0  0
 73 81  2  0  0  0
 73 84  1  0  0  0
 73 86  1  0  0  0
 74 83  1  0  0  0
 74 85  2  0  0  0
 75146  1  0  0  0
 75147  1  0  0  0
 75148  1  0  0  0
 75 79  1  0  0  0
 76149  1  0  0  0
 76150  1  0  0  0
 76151  1  0  0  0
 76 80  1  0  0  0
 77 80  1  0  0  0
 77152  1  0  0  0
 77153  1  0  0  0
 77154  1  0  0  0
 78 79  1  0  0  0
 78 80  1  0  0  0
 78155  1  0  0  0
 78156  1  0  0  0
 79157  1  0  0  0
 80 85  1  0  0  0
 82158  1  0  0  0
 82159  1  0  0  0
 83160  1  0  0  0
 83161  1  0  0  0
 84162  1  0  0  0
 85163  1  0  0  0
M  CHG  1  85   1
M  ISO  4   1 100  68 101  79 101  84 100
M  END
> <chiral flag>
0

> <version>
0

> <s_m_source_file>
/data/baiqing/PycharmProjects/Reinvent-master-3.2/result/LINK_invent/BTK/process_docking_weight1_custom_product_contain_oxygen_bond_distance_aromatic_linkinvent_7_9_3/rearranged_h_0188.sdf

> <i_m_source_file_index>
83

> <r_mmod_Potential_Energy-OPLS-2005>
-34.093090057373

> <r_mmod_Stretch_Energy-OPLS-2005>
68.6868667602539

> <r_mmod_Bend_Energy-OPLS-2005>
153.517166137695

> <r_mmod_Torsional_Energy-OPLS-2005>
252.645874023438

> <r_mmod_Improper_Torsional_Energy-OPLS-2005>
4.22480821609497

> <r_mmod_Van_der_Waal_Energy-OPLS-2005>
144.064819335938

> <r_mmod_Electrostatic_Energy-OPLS-2005>
-218.65657043457

> <r_mmod_Solvation_Energy-OPLS-2005>
-471.481140136719

> <b_mmod_Minimization_Converged-OPLS-2005>
0

> <r_mmod_RMS_Derivative-OPLS-2005>
3.92389059066772

$$$$
84
                    3D
 Structure written by MMmdl.
166174  0  0  1  0            999 V2000
  -30.6813  -14.5269   20.5204 C   0  0  0  0  0  0
  -30.4348  -12.3192   19.4351 C   0  0  0  0  0  0
  -29.5011  -12.5035   18.2201 C   0  0  0  0  0  0
  -28.0198  -12.3854   18.6333 C   0  0  0  0  0  0
  -27.6701  -13.2203   19.8891 C   0  0  2  0  0  0
  -28.7222  -13.0096   21.0081 C   0  0  0  0  0  0
  -25.2612  -13.8183   20.5655 C   0  0  0  0  0  0
  -24.1892  -13.0470   20.9167 C   0  0  0  0  0  0
  -24.6446  -11.6918   20.8767 C   0  0  0  0  0  0
  -23.9090  -10.4310   21.0422 C   0  0  0  0  0  0
  -24.3622   -9.4207   21.9182 C   0  0  0  0  0  0
  -23.6298   -8.2246   22.0743 C   0  0  0  0  0  0
  -22.4272   -8.0276   21.3540 C   0  0  0  0  0  0
  -21.9932   -9.0268   20.4647 C   0  0  0  0  0  0
  -22.7263  -10.2144   20.3069 C   0  0  0  0  0  0
  -21.6856   -6.0721   22.5275 C   0  0  0  0  0  0
  -21.4002   -6.5633   23.8212 C   0  0  0  0  0  0
  -21.3660   -5.6784   24.9173 C   0  0  0  0  0  0
  -21.6060   -4.3042   24.7237 C   0  0  0  0  0  0
  -21.8827   -3.8134   23.4360 C   0  0  0  0  0  0
  -21.9202   -4.6954   22.3408 C   0  0  0  0  0  0
  -22.7909  -13.5219   21.1891 C   0  0  0  0  0  0
  -22.1683   -4.2127   21.0992 F   0  0  0  0  0  0
  -21.5651   -3.4538   25.7761 F   0  0  0  0  0  0
  -30.0467  -13.3204   20.4470 N   0  0  0  0  0  0
  -26.3105  -12.9384   20.3475 N   0  0  0  0  0  0
  -25.9391  -11.6531   20.5880 N   0  0  0  0  0  0
  -22.0587  -12.8156   22.0411 N   0  0  0  0  0  0
  -25.4385  -15.1918   20.3983 N   0  0  0  0  0  0
  -31.8200  -14.6875   20.0701 O   0  0  0  0  0  0
  -21.6640   -6.8860   21.4229 O   0  0  0  0  0  0
  -22.3599  -14.5573   20.6797 O   0  0  0  0  0  0
  -24.6177  -31.8602   23.2027 C   0  0  0  0  0  0
  -25.9028  -32.4778   23.8374 C   0  0  1  0  0  0
  -27.2640  -27.3800   20.1011 C   0  0  0  0  0  0
  -25.5847  -33.8596   24.2284 N   0  0  0  0  0  0
  -23.4136  -30.4702   21.5468 C   0  0  2  0  0  0
  -24.8749  -28.9348   20.1112 C   0  0  0  0  0  0
  -22.7432  -29.4561   22.5020 C   0  0  0  0  0  0
  -18.0256  -28.1304   22.8541 C   0  0  0  0  0  0
  -24.1489  -36.7290   23.2647 C   0  0  0  0  0  0
  -25.9496  -30.8072   21.3722 C   0  0  0  0  0  0
  -26.0339  -29.4399   20.7124 C   0  0  0  0  0  0
  -27.2266  -28.6718   20.6973 C   0  0  0  0  0  0
  -26.0704  -26.8862   19.5309 C   0  0  0  0  0  0
  -24.8948  -27.6645   19.5116 C   0  0  0  0  0  0
  -23.6274  -29.7907   20.1652 C   0  0  0  0  0  0
  -25.4114  -36.3092   24.0331 C   0  0  1  0  0  0
  -20.5856  -28.3582   23.1346 C   0  0  2  0  0  0
  -20.6723  -26.9310   22.5421 C   0  0  0  0  0  0
  -19.5699  -26.6338   21.5203 C   0  0  0  0  0  0
  -18.1889  -26.7868   22.1638 C   0  0  0  0  0  0
  -19.1512  -28.8771   23.2939 C   0  0  0  0  0  0
  -18.9431  -30.1395   23.8924 C   0  0  0  0  0  0
  -17.6424  -30.6535   24.0543 C   0  0  0  0  0  0
  -25.9026  -34.9450   23.5107 C   0  0  0  0  0  0
  -16.5326  -29.9013   23.6316 C   0  0  0  0  0  0
  -16.7247  -28.6409   23.0402 C   0  0  0  0  0  0
  -26.4459  -31.6577   25.0718 C   0  0  0  0  0  0
  -25.3701  -31.3693   26.1443 C   0  0  0  0  0  0
  -27.0291  -30.2990   24.6144 C   0  0  0  0  0  0
  -27.6021  -32.4335   25.7464 C   0  0  0  0  0  0
  -27.5586  -37.1781   24.8455 C   0  0  0  0  0  0
  -21.4149  -29.2955   22.3765 N   0  0  0  0  0  0
  -26.4302  -37.3764   23.9396 N   0  0  0  0  0  0
  -24.6776  -31.0625   22.0969 N   0  0  0  0  0  0
  -23.4155  -28.8130   23.3115 O   0  0  0  0  0  0
  -28.4649  -26.6745   20.1107 O   0  0  0  0  0  0
  -26.5625  -34.8922   22.4691 O   0  0  0  0  0  0
  -23.5340  -32.1431   23.7323 O   0  0  0  0  0  0
  -29.3938  -19.1939   20.5885 C   0  0  0  0  0  0
  -30.2554  -19.1471   19.5174 C   0  0  0  0  0  0
  -30.0237  -16.9477   20.5862 C   0  0  0  0  0  0
  -28.4043  -25.2633   18.0224 C   0  0  0  0  0  0
  -30.1874  -20.9663   23.4647 C   0  0  0  0  0  0
  -30.4541  -23.3063   22.7807 C   0  0  0  0  0  0
  -31.6044  -21.5491   21.4786 C   0  0  0  0  0  0
  -28.2430  -24.1241   20.4013 C   0  0  0  0  0  0
  -29.0091  -21.7199   21.3202 C   0  0  2  0  0  0
  -28.7020  -25.3505   19.5338 C   0  0  2  0  0  0
  -28.8709  -22.7057   20.0846 C   0  0  1  0  0  0
  -30.2950  -21.8787   22.2242 C   0  0  0  0  0  0
  -29.2643  -17.9057   21.1718 N   0  0  0  0  0  0
  -28.6331  -20.2974   21.0767 N   0  0  0  0  0  0
  -29.9503  -15.5649   20.9969 N   0  0  0  0  0  0
  -30.5475  -20.2086   18.7259 F   0  0  0  0  0  0
  -28.0799  -22.1491   19.1627 F   0  0  0  0  0  0
  -30.9688  -17.5781   19.2285 S   0  0  0  0  0  0
  -31.4752  -12.4118   19.1167 H   0  0  0  0  0  0
  -30.3479  -11.3094   19.8453 H   0  0  0  0  0  0
  -29.7336  -11.7735   17.4432 H   0  0  0  0  0  0
  -29.6802  -13.4823   17.7739 H   0  0  0  0  0  0
  -27.8091  -11.3347   18.8315 H   0  0  0  0  0  0
  -27.3724  -12.6788   17.8058 H   0  0  0  0  0  0
  -27.7060  -14.2675   19.5854 H   0  0  0  0  0  0
  -28.7131  -11.9762   21.3595 H   0  0  0  0  0  0
  -28.5058  -13.6171   21.8873 H   0  0  0  0  0  0
  -25.2755   -9.5698   22.4761 H   0  0  0  0  0  0
  -24.0023   -7.4637   22.7447 H   0  0  0  0  0  0
  -21.0884   -8.8803   19.8930 H   0  0  0  0  0  0
  -22.3719  -10.9704   19.6218 H   0  0  0  0  0  0
  -21.1955   -7.6131   23.9704 H   0  0  0  0  0  0
  -21.1492   -6.0511   25.9079 H   0  0  0  0  0  0
  -22.0599   -2.7590   23.2868 H   0  0  0  0  0  0
  -22.4178  -11.9751   22.4706 H   0  0  0  0  0  0
  -21.1250  -13.1219   22.2729 H   0  0  0  0  0  0
  -24.6851  -15.8600   20.5054 H   0  0  0  0  0  0
  -26.3004  -15.6168   20.0819 H   0  0  0  0  0  0
  -26.7103  -32.5490   23.1147 H   0  0  0  0  0  0
  -24.9933  -33.9775   25.0384 H   0  0  0  0  0  0
  -22.7003  -31.2807   21.3923 H   0  0  0  0  0  0
  -23.3761  -35.9606   23.3312 H   0  0  0  0  0  0
  -24.3576  -36.8918   22.2058 H   0  0  0  0  0  0
  -23.7236  -37.6483   23.6683 H   0  0  0  0  0  0
  -26.0783  -31.5796   20.6125 H   0  0  0  0  0  0
  -26.8262  -30.8516   22.0068 H   0  0  0  0  0  0
  -28.1277  -29.0632   21.1555 H   0  0  0  0  0  0
  -26.0148  -25.8938   19.1189 H   0  0  0  0  0  0
  -24.0063  -27.2633   19.0480 H   0  0  0  0  0  0
  -23.7043  -30.5542   19.3891 H   0  0  0  0  0  0
  -22.7647  -29.1773   19.8960 H   0  0  0  0  0  0
  -25.1307  -36.1953   25.0823 H   0  0  0  0  0  0
  -20.9958  -28.3099   24.1469 H   0  0  0  0  0  0
  -20.5534  -26.2184   23.3593 H   0  0  0  0  0  0
  -21.6597  -26.7282   22.1260 H   0  0  0  0  0  0
  -19.6830  -25.6245   21.1217 H   0  0  0  0  0  0
  -19.6647  -27.3165   20.6740 H   0  0  0  0  0  0
  -17.4157  -26.6681   21.4030 H   0  0  0  0  0  0
  -18.0268  -25.9960   22.8977 H   0  0  0  0  0  0
  -19.7892  -30.7212   24.2321 H   0  0  0  0  0  0
  -17.4950  -31.6227   24.5088 H   0  0  0  0  0  0
  -15.5313  -30.2900   23.7573 H   0  0  0  0  0  0
  -15.8674  -28.0667   22.7167 H   0  0  0  0  0  0
  -24.5897  -30.7020   25.7762 H   0  0  0  0  0  0
  -24.8873  -32.2854   26.4846 H   0  0  0  0  0  0
  -25.8036  -30.8896   27.0221 H   0  0  0  0  0  0
  -26.2855  -29.6751   24.1164 H   0  0  0  0  0  0
  -27.3979  -29.7222   25.4632 H   0  0  0  0  0  0
  -27.8740  -30.4264   23.9374 H   0  0  0  0  0  0
  -27.2600  -33.3624   26.2036 H   0  0  0  0  0  0
  -28.3797  -32.6910   25.0263 H   0  0  0  0  0  0
  -28.0719  -31.8476   26.5369 H   0  0  0  0  0  0
  -28.2589  -38.0090   24.7509 H   0  0  0  0  0  0
  -28.1104  -36.2614   24.6288 H   0  0  0  0  0  0
  -27.2302  -37.1438   25.8859 H   0  0  0  0  0  0
  -20.9262  -29.8760   21.7095 H   0  0  0  0  0  0
  -26.0201  -38.2849   24.1369 H   0  0  0  0  0  0
  -28.9509  -24.4391   17.5617 H   0  0  0  0  0  0
  -28.7207  -26.1811   17.5263 H   0  0  0  0  0  0
  -27.3571  -25.0948   17.7889 H   0  0  0  0  0  0
  -31.0121  -21.1369   24.1601 H   0  0  0  0  0  0
  -30.2243  -19.9124   23.1949 H   0  0  0  0  0  0
  -29.2551  -21.1415   24.0082 H   0  0  0  0  0  0
  -31.3448  -23.3691   23.4099 H   0  0  0  0  0  0
  -29.6018  -23.6136   23.3929 H   0  0  0  0  0  0
  -30.6063  -24.0383   21.9897 H   0  0  0  0  0  0
  -32.4683  -21.7564   22.1137 H   0  0  0  0  0  0
  -31.7346  -22.1441   20.5749 H   0  0  0  0  0  0
  -31.6691  -20.4994   21.2068 H   0  0  0  0  0  0
  -27.1596  -24.0460   20.3566 H   0  0  0  0  0  0
  -28.4374  -24.3596   21.4458 H   0  0  0  0  0  0
  -28.1886  -22.0314   21.9701 H   0  0  0  0  0  0
  -29.7917  -25.2987   19.5608 H   0  0  0  0  0  0
  -29.8379  -22.8149   19.5924 H   0  0  0  0  0  0
  -27.8959  -19.9942   21.6986 H   0  0  0  0  0  0
  -29.1222  -15.3048   21.5071 H   0  0  0  0  0  0
  1 25  1  0  0  0
  1 30  2  0  0  0
  1 85  1  0  0  0
  2  3  1  0  0  0
  2 25  1  0  0  0
  2 89  1  0  0  0
  2 90  1  0  0  0
  3  4  1  0  0  0
  3 91  1  0  0  0
  3 92  1  0  0  0
  4  5  1  0  0  0
  4 93  1  0  0  0
  4 94  1  0  0  0
  5  6  1  0  0  0
  5 26  1  0  0  0
  5 95  1  0  0  0
  6 25  1  0  0  0
  6 96  1  0  0  0
  6 97  1  0  0  0
  7  8  2  0  0  0
  7 26  1  0  0  0
  7 29  1  0  0  0
  8  9  1  0  0  0
  8 22  1  0  0  0
  9 10  1  0  0  0
  9 27  2  0  0  0
 10 11  2  0  0  0
 10 15  1  0  0  0
 11 12  1  0  0  0
 11 98  1  0  0  0
 12 13  2  0  0  0
 12 99  1  0  0  0
 13 14  1  0  0  0
 13 31  1  0  0  0
 14 15  2  0  0  0
 14100  1  0  0  0
 15101  1  0  0  0
 16 17  2  0  0  0
 16 21  1  0  0  0
 16 31  1  0  0  0
 17 18  1  0  0  0
 17102  1  0  0  0
 18 19  2  0  0  0
 18103  1  0  0  0
 19 20  1  0  0  0
 19 24  1  0  0  0
 20 21  2  0  0  0
 20104  1  0  0  0
 21 23  1  0  0  0
 22 28  1  0  0  0
 22 32  2  0  0  0
 26 27  1  0  0  0
 28105  1  0  0  0
 28106  1  0  0  0
 29107  1  0  0  0
 29108  1  0  0  0
 33 34  1  0  0  0
 33 66  1  0  0  0
 33 70  2  0  0  0
 34 36  1  0  0  0
 34 59  1  0  0  0
 34109  1  0  0  0
 35 44  2  0  0  0
 35 45  1  0  0  0
 35 68  1  0  0  0
 36 56  1  0  0  0
 36110  1  0  0  0
 37 39  1  0  0  0
 37 47  1  0  0  0
 37 66  1  0  0  0
 37111  1  0  0  0
 38 43  2  0  0  0
 38 46  1  0  0  0
 38 47  1  0  0  0
 39 64  1  0  0  0
 39 67  2  0  0  0
 40 52  1  0  0  0
 40 53  2  0  0  0
 40 58  1  0  0  0
 41112  1  0  0  0
 41113  1  0  0  0
 41114  1  0  0  0
 41 48  1  0  0  0
 42 43  1  0  0  0
 42 66  1  0  0  0
 42115  1  0  0  0
 42116  1  0  0  0
 43 44  1  0  0  0
 44117  1  0  0  0
 45 46  2  0  0  0
 45118  1  0  0  0
 46119  1  0  0  0
 47120  1  0  0  0
 47121  1  0  0  0
 48 56  1  0  0  0
 48 65  1  0  0  0
 48122  1  0  0  0
 49 50  1  0  0  0
 49 53  1  0  0  0
 49 64  1  0  0  0
 49123  1  0  0  0
 50 51  1  0  0  0
 50124  1  0  0  0
 50125  1  0  0  0
 51 52  1  0  0  0
 51126  1  0  0  0
 51127  1  0  0  0
 52128  1  0  0  0
 52129  1  0  0  0
 53 54  1  0  0  0
 54 55  2  0  0  0
 54130  1  0  0  0
 55 57  1  0  0  0
 55131  1  0  0  0
 56 69  2  0  0  0
 57 58  2  0  0  0
 57132  1  0  0  0
 58133  1  0  0  0
 59 60  1  0  0  0
 59 61  1  0  0  0
 59 62  1  0  0  0
 60134  1  0  0  0
 60135  1  0  0  0
 60136  1  0  0  0
 61137  1  0  0  0
 61138  1  0  0  0
 61139  1  0  0  0
 62140  1  0  0  0
 62141  1  0  0  0
 62142  1  0  0  0
 63 65  1  0  0  0
 63143  1  0  0  0
 63144  1  0  0  0
 63145  1  0  0  0
 64146  1  0  0  0
 65147  1  0  0  0
 68 80  1  0  0  0
 71 72  2  0  0  0
 71 83  1  0  0  0
 71 84  1  0  0  0
 72 86  1  0  0  0
 72 88  1  0  0  0
 73 83  2  0  0  0
 73 85  1  0  0  0
 73 88  1  0  0  0
 74148  1  0  0  0
 74149  1  0  0  0
 74150  1  0  0  0
 74 80  1  0  0  0
 75151  1  0  0  0
 75152  1  0  0  0
 75153  1  0  0  0
 75 82  1  0  0  0
 76 82  1  0  0  0
 76154  1  0  0  0
 76155  1  0  0  0
 76156  1  0  0  0
 77 82  1  0  0  0
 77157  1  0  0  0
 77158  1  0  0  0
 77159  1  0  0  0
 78 80  1  0  0  0
 78 81  1  0  0  0
 78160  1  0  0  0
 78161  1  0  0  0
 79 81  1  0  0  0
 79 82  1  0  0  0
 79 84  1  0  0  0
 79162  1  0  0  0
 80163  1  0  0  0
 81 87  1  0  0  0
 81164  1  0  0  0
 84165  1  0  0  0
 85166  1  0  0  0
M  ISO  4   1 100  68 101  80 101  85 100
M  END
> <chiral flag>
0

> <version>
0

> <s_m_source_file>
/data/baiqing/PycharmProjects/Reinvent-master-3.2/result/LINK_invent/BTK/process_docking_weight1_custom_product_contain_oxygen_bond_distance_aromatic_linkinvent_7_9_3/rearranged_h_0188.sdf

> <i_m_source_file_index>
84

> <r_mmod_Potential_Energy-OPLS-2005>
-30.7433242797852

> <r_mmod_Stretch_Energy-OPLS-2005>
60.6178665161133

> <r_mmod_Bend_Energy-OPLS-2005>
174.299880981445

> <r_mmod_Torsional_Energy-OPLS-2005>
253.06428527832

> <r_mmod_Improper_Torsional_Energy-OPLS-2005>
6.14095592498779

> <r_mmod_Van_der_Waal_Energy-OPLS-2005>
127.230796813965

> <r_mmod_Electrostatic_Energy-OPLS-2005>
-472.642730712891

> <r_mmod_Solvation_Energy-OPLS-2005>
-200.446548461914

> <b_mmod_Minimization_Converged-OPLS-2005>
0

> <r_mmod_RMS_Derivative-OPLS-2005>
5.6181435585022

$$$$
85
                    3D
 Structure written by MMmdl.
154162  0  0  1  0            999 V2000
  -30.6751  -14.5446   20.4960 C   0  0  0  0  0  0
  -30.4182  -12.3291   19.4523 C   0  0  0  0  0  0
  -29.4992  -12.4901   18.2223 C   0  0  0  0  0  0
  -28.0206  -12.3471   18.6319 C   0  0  0  0  0  0
  -27.6533  -13.2143   19.8662 C   0  0  2  0  0  0
  -28.6948  -13.0598   20.9988 C   0  0  0  0  0  0
  -25.2555  -13.8177   20.5682 C   0  0  0  0  0  0
  -24.1820  -13.0441   20.9187 C   0  0  0  0  0  0
  -24.6388  -11.6912   20.8745 C   0  0  0  0  0  0
  -23.9062  -10.4294   21.0412 C   0  0  0  0  0  0
  -24.3615   -9.4207   21.9186 C   0  0  0  0  0  0
  -23.6291   -8.2242   22.0756 C   0  0  0  0  0  0
  -22.4274   -8.0282   21.3545 C   0  0  0  0  0  0
  -21.9910   -9.0255   20.4648 C   0  0  0  0  0  0
  -22.7238  -10.2134   20.3059 C   0  0  0  0  0  0
  -21.6850   -6.0739   22.5280 C   0  0  0  0  0  0
  -21.4014   -6.5644   23.8213 C   0  0  0  0  0  0
  -21.3658   -5.6795   24.9173 C   0  0  0  0  0  0
  -21.6041   -4.3056   24.7225 C   0  0  0  0  0  0
  -21.8820   -3.8150   23.4346 C   0  0  0  0  0  0
  -21.9192   -4.6967   22.3403 C   0  0  0  0  0  0
  -22.7844  -13.5234   21.1847 C   0  0  0  0  0  0
  -22.1661   -4.2154   21.0980 F   0  0  0  0  0  0
  -21.5626   -3.4540   25.7737 F   0  0  0  0  0  0
  -30.0194  -13.3516   20.4354 N   0  0  0  0  0  0
  -26.2982  -12.9354   20.3334 N   0  0  0  0  0  0
  -25.9315  -11.6510   20.5772 N   0  0  0  0  0  0
  -22.0488  -12.8226   22.0405 N   0  0  0  0  0  0
  -25.4263  -15.1893   20.4091 N   0  0  0  0  0  0
  -31.8419  -14.6667   20.1149 O   0  0  0  0  0  0
  -21.6637   -6.8880   21.4242 O   0  0  0  0  0  0
  -22.3533  -14.5544   20.6700 O   0  0  0  0  0  0
  -24.6171  -31.8646   23.2058 C   0  0  0  0  0  0
  -25.9052  -32.4799   23.8369 C   0  0  1  0  0  0
  -27.2346  -27.3929   20.1013 C   0  0  0  0  0  0
  -25.5902  -33.8604   24.2298 N   0  0  0  0  0  0
  -23.4062  -30.4864   21.5467 C   0  0  2  0  0  0
  -24.8517  -28.9441   20.1116 C   0  0  0  0  0  0
  -22.7416  -29.4643   22.4974 C   0  0  0  0  0  0
  -18.0270  -28.1378   22.8494 C   0  0  0  0  0  0
  -24.1484  -36.7305   23.2639 C   0  0  0  0  0  0
  -25.9376  -30.8172   21.3634 C   0  0  0  0  0  0
  -26.0120  -29.4483   20.7098 C   0  0  0  0  0  0
  -27.2010  -28.6796   20.6999 C   0  0  0  0  0  0
  -26.0521  -26.9108   19.4980 C   0  0  0  0  0  0
  -24.8693  -27.6770   19.5021 C   0  0  0  0  0  0
  -23.6154  -29.8153   20.1620 C   0  0  0  0  0  0
  -25.4109  -36.3097   24.0329 C   0  0  1  0  0  0
  -20.5862  -28.3670   23.1314 C   0  0  2  0  0  0
  -20.6758  -26.9404   22.5429 C   0  0  0  0  0  0
  -19.5741  -26.6388   21.5218 C   0  0  0  0  0  0
  -18.1916  -26.7926   22.1622 C   0  0  0  0  0  0
  -19.1521  -28.8840   23.2899 C   0  0  0  0  0  0
  -18.9447  -30.1444   23.8914 C   0  0  0  0  0  0
  -17.6452  -30.6589   24.0568 C   0  0  0  0  0  0
  -25.9044  -34.9464   23.5113 C   0  0  0  0  0  0
  -16.5343  -29.9095   23.6327 C   0  0  0  0  0  0
  -16.7262  -28.6509   23.0355 C   0  0  0  0  0  0
  -26.4471  -31.6592   25.0711 C   0  0  0  0  0  0
  -25.3731  -31.3720   26.1455 C   0  0  0  0  0  0
  -27.0298  -30.3023   24.6116 C   0  0  0  0  0  0
  -27.6045  -32.4318   25.7477 C   0  0  0  0  0  0
  -27.5579  -37.1805   24.8462 C   0  0  0  0  0  0
  -21.4143  -29.3029   22.3712 N   0  0  0  0  0  0
  -26.4288  -37.3789   23.9410 N   0  0  0  0  0  0
  -24.6720  -31.0717   22.0969 N   0  0  0  0  0  0
  -23.4172  -28.8193   23.3039 O   0  0  0  0  0  0
  -28.4170  -26.6683   20.1662 O   0  0  0  0  0  0
  -26.5613  -34.8916   22.4679 O   0  0  0  0  0  0
  -23.5357  -32.1422   23.7433 O   0  0  0  0  0  0
  -29.1407  -18.3614   21.9815 C   0  0  0  0  0  0
  -29.5514  -18.2194   20.6807 C   0  0  0  0  0  0
  -29.3163  -19.4450   19.9414 C   0  0  0  0  0  0
  -28.7790  -20.4977   20.6605 C   0  0  0  0  0  0
  -28.4584  -22.9329   20.8261 C   0  0  0  0  0  0
  -28.6821  -25.3476   18.1038 C   0  0  0  0  0  0
  -30.2320  -16.9679   20.1211 C   0  0  0  0  0  0
  -27.7161  -24.1579   20.2108 C   0  0  0  0  0  0
  -28.5999  -25.3247   19.6399 C   0  0  2  0  0  0
  -28.4169  -21.7370   20.1857 N   0  0  0  0  0  0
  -29.9117  -15.6442   20.7177 N   0  0  0  0  0  0
  -29.0620  -23.0851   21.8912 O   0  0  0  0  0  0
  -28.5233  -19.9663   22.3129 S   0  0  0  0  0  0
  -29.7233  -19.5295   18.2898 Cl  0  0  0  0  0  0
  -31.4653  -12.4160   19.1566 H   0  0  0  0  0  0
  -30.3132  -11.3328   19.8847 H   0  0  0  0  0  0
  -29.7498  -11.7466   17.4643 H   0  0  0  0  0  0
  -29.6610  -13.4653   17.7602 H   0  0  0  0  0  0
  -27.8427  -11.2944   18.8543 H   0  0  0  0  0  0
  -27.3705  -12.5930   17.7915 H   0  0  0  0  0  0
  -27.6765  -14.2507   19.5296 H   0  0  0  0  0  0
  -28.6786  -12.0458   21.4009 H   0  0  0  0  0  0
  -28.4614  -13.7195   21.8360 H   0  0  0  0  0  0
  -25.2761   -9.5681   22.4762 H   0  0  0  0  0  0
  -23.9999   -7.4635   22.7478 H   0  0  0  0  0  0
  -21.0842   -8.8777   19.8954 H   0  0  0  0  0  0
  -22.3700  -10.9676   19.6170 H   0  0  0  0  0  0
  -21.2012   -7.6152   23.9719 H   0  0  0  0  0  0
  -21.1475   -6.0525   25.9077 H   0  0  0  0  0  0
  -22.0602   -2.7613   23.2845 H   0  0  0  0  0  0
  -22.4102  -11.9883   22.4787 H   0  0  0  0  0  0
  -21.1109  -13.1258   22.2620 H   0  0  0  0  0  0
  -24.6588  -15.8431   20.5185 H   0  0  0  0  0  0
  -26.2758  -15.6304   20.0807 H   0  0  0  0  0  0
  -26.7121  -32.5487   23.1130 H   0  0  0  0  0  0
  -25.0042  -33.9780   25.0431 H   0  0  0  0  0  0
  -22.6961  -31.3038   21.4047 H   0  0  0  0  0  0
  -23.3745  -35.9637   23.3302 H   0  0  0  0  0  0
  -24.3581  -36.8932   22.2054 H   0  0  0  0  0  0
  -23.7235  -37.6504   23.6664 H   0  0  0  0  0  0
  -26.0549  -31.5811   20.5934 H   0  0  0  0  0  0
  -26.8239  -30.8703   21.9842 H   0  0  0  0  0  0
  -28.0959  -29.0639   21.1688 H   0  0  0  0  0  0
  -26.0175  -25.9380   19.0341 H   0  0  0  0  0  0
  -23.9757  -27.2807   19.0397 H   0  0  0  0  0  0
  -23.7247  -30.5890   19.4011 H   0  0  0  0  0  0
  -22.7384  -29.2354   19.8677 H   0  0  0  0  0  0
  -25.1285  -36.1961   25.0821 H   0  0  0  0  0  0
  -20.9954  -28.3244   24.1433 H   0  0  0  0  0  0
  -20.5657  -26.2284   23.3621 H   0  0  0  0  0  0
  -21.6631  -26.7451   22.1224 H   0  0  0  0  0  0
  -19.6911  -25.6304   21.1239 H   0  0  0  0  0  0
  -19.6680  -27.3205   20.6754 H   0  0  0  0  0  0
  -17.4194  -26.6688   21.4013 H   0  0  0  0  0  0
  -18.0302  -26.0056   22.9005 H   0  0  0  0  0  0
  -19.7923  -30.7247   24.2302 H   0  0  0  0  0  0
  -17.5011  -31.6269   24.5168 H   0  0  0  0  0  0
  -15.5346  -30.3005   23.7642 H   0  0  0  0  0  0
  -15.8659  -28.0837   22.7070 H   0  0  0  0  0  0
  -24.5916  -30.7050   25.7801 H   0  0  0  0  0  0
  -24.8901  -32.2879   26.4867 H   0  0  0  0  0  0
  -25.8072  -30.8925   27.0236 H   0  0  0  0  0  0
  -26.2848  -29.6787   24.1158 H   0  0  0  0  0  0
  -27.4037  -29.7263   25.4593 H   0  0  0  0  0  0
  -27.8699  -30.4320   23.9287 H   0  0  0  0  0  0
  -27.2671  -33.3624   26.2050 H   0  0  0  0  0  0
  -28.3855  -32.6872   25.0303 H   0  0  0  0  0  0
  -28.0701  -31.8438   26.5396 H   0  0  0  0  0  0
  -28.2601  -38.0099   24.7514 H   0  0  0  0  0  0
  -28.1074  -36.2636   24.6277 H   0  0  0  0  0  0
  -27.2305  -37.1443   25.8866 H   0  0  0  0  0  0
  -20.9310  -29.8752   21.6932 H   0  0  0  0  0  0
  -26.0173  -38.2864   24.1418 H   0  0  0  0  0  0
  -29.1934  -17.6323   22.7806 H   0  0  0  0  0  0
  -29.0017  -24.3802   17.7165 H   0  0  0  0  0  0
  -29.4080  -26.0890   17.7688 H   0  0  0  0  0  0
  -27.7291  -25.5868   17.6349 H   0  0  0  0  0  0
  -31.3099  -17.1292   20.1758 H   0  0  0  0  0  0
  -30.0145  -16.8795   19.0560 H   0  0  0  0  0  0
  -27.0911  -24.5605   21.0080 H   0  0  0  0  0  0
  -27.0163  -23.8078   19.4509 H   0  0  0  0  0  0
  -29.6181  -25.1023   19.9634 H   0  0  0  0  0  0
  -28.0676  -21.7524   19.2372 H   0  0  0  0  0  0
  -28.9612  -15.4916   21.0168 H   0  0  0  0  0  0
  1 25  1  0  0  0
  1 30  2  0  0  0
  1 81  1  0  0  0
  2  3  1  0  0  0
  2 25  1  0  0  0
  2 85  1  0  0  0
  2 86  1  0  0  0
  3  4  1  0  0  0
  3 87  1  0  0  0
  3 88  1  0  0  0
  4  5  1  0  0  0
  4 89  1  0  0  0
  4 90  1  0  0  0
  5  6  1  0  0  0
  5 26  1  0  0  0
  5 91  1  0  0  0
  6 25  1  0  0  0
  6 92  1  0  0  0
  6 93  1  0  0  0
  7  8  2  0  0  0
  7 26  1  0  0  0
  7 29  1  0  0  0
  8  9  1  0  0  0
  8 22  1  0  0  0
  9 10  1  0  0  0
  9 27  2  0  0  0
 10 11  2  0  0  0
 10 15  1  0  0  0
 11 12  1  0  0  0
 11 94  1  0  0  0
 12 13  2  0  0  0
 12 95  1  0  0  0
 13 14  1  0  0  0
 13 31  1  0  0  0
 14 15  2  0  0  0
 14 96  1  0  0  0
 15 97  1  0  0  0
 16 17  2  0  0  0
 16 21  1  0  0  0
 16 31  1  0  0  0
 17 18  1  0  0  0
 17 98  1  0  0  0
 18 19  2  0  0  0
 18 99  1  0  0  0
 19 20  1  0  0  0
 19 24  1  0  0  0
 20 21  2  0  0  0
 20100  1  0  0  0
 21 23  1  0  0  0
 22 28  1  0  0  0
 22 32  2  0  0  0
 26 27  1  0  0  0
 28101  1  0  0  0
 28102  1  0  0  0
 29103  1  0  0  0
 29104  1  0  0  0
 33 34  1  0  0  0
 33 66  1  0  0  0
 33 70  2  0  0  0
 34 36  1  0  0  0
 34 59  1  0  0  0
 34105  1  0  0  0
 35 44  2  0  0  0
 35 45  1  0  0  0
 35 68  1  0  0  0
 36 56  1  0  0  0
 36106  1  0  0  0
 37 39  1  0  0  0
 37 47  1  0  0  0
 37 66  1  0  0  0
 37107  1  0  0  0
 38 43  2  0  0  0
 38 46  1  0  0  0
 38 47  1  0  0  0
 39 64  1  0  0  0
 39 67  2  0  0  0
 40 52  1  0  0  0
 40 53  2  0  0  0
 40 58  1  0  0  0
 41108  1  0  0  0
 41109  1  0  0  0
 41110  1  0  0  0
 41 48  1  0  0  0
 42 43  1  0  0  0
 42 66  1  0  0  0
 42111  1  0  0  0
 42112  1  0  0  0
 43 44  1  0  0  0
 44113  1  0  0  0
 45 46  2  0  0  0
 45114  1  0  0  0
 46115  1  0  0  0
 47116  1  0  0  0
 47117  1  0  0  0
 48 56  1  0  0  0
 48 65  1  0  0  0
 48118  1  0  0  0
 49 50  1  0  0  0
 49 53  1  0  0  0
 49 64  1  0  0  0
 49119  1  0  0  0
 50 51  1  0  0  0
 50120  1  0  0  0
 50121  1  0  0  0
 51 52  1  0  0  0
 51122  1  0  0  0
 51123  1  0  0  0
 52124  1  0  0  0
 52125  1  0  0  0
 53 54  1  0  0  0
 54 55  2  0  0  0
 54126  1  0  0  0
 55 57  1  0  0  0
 55127  1  0  0  0
 56 69  2  0  0  0
 57 58  2  0  0  0
 57128  1  0  0  0
 58129  1  0  0  0
 59 60  1  0  0  0
 59 61  1  0  0  0
 59 62  1  0  0  0
 60130  1  0  0  0
 60131  1  0  0  0
 60132  1  0  0  0
 61133  1  0  0  0
 61134  1  0  0  0
 61135  1  0  0  0
 62136  1  0  0  0
 62137  1  0  0  0
 62138  1  0  0  0
 63 65  1  0  0  0
 63139  1  0  0  0
 63140  1  0  0  0
 63141  1  0  0  0
 64142  1  0  0  0
 65143  1  0  0  0
 68 79  1  0  0  0
 71 72  2  0  0  0
 71 83  1  0  0  0
 71144  1  0  0  0
 72 73  1  0  0  0
 72 77  1  0  0  0
 73 74  2  0  0  0
 73 84  1  0  0  0
 74 80  1  0  0  0
 74 83  1  0  0  0
 75 78  1  0  0  0
 75 80  1  0  0  0
 75 82  2  0  0  0
 76145  1  0  0  0
 76146  1  0  0  0
 76147  1  0  0  0
 76 79  1  0  0  0
 77 81  1  0  0  0
 77148  1  0  0  0
 77149  1  0  0  0
 78 79  1  0  0  0
 78150  1  0  0  0
 78151  1  0  0  0
 79152  1  0  0  0
 80153  1  0  0  0
 81154  1  0  0  0
M  ISO  4   1 100  68 101  79 101  81 100
M  END
> <chiral flag>
0

> <version>
0

> <s_m_source_file>
/data/baiqing/PycharmProjects/Reinvent-master-3.2/result/LINK_invent/BTK/process_docking_weight1_custom_product_contain_oxygen_bond_distance_aromatic_linkinvent_7_9_3/rearranged_h_0188.sdf

> <i_m_source_file_index>
85

> <r_mmod_Potential_Energy-OPLS-2005>
-148.876647949219

> <r_mmod_Stretch_Energy-OPLS-2005>
47.1007652282715

> <r_mmod_Bend_Energy-OPLS-2005>
134.40397644043

> <r_mmod_Torsional_Energy-OPLS-2005>
211.637954711914

> <r_mmod_Improper_Torsional_Energy-OPLS-2005>
8.2605037689209

> <r_mmod_Van_der_Waal_Energy-OPLS-2005>
125.265495300293

> <r_mmod_Electrostatic_Energy-OPLS-2005>
-459.484375

> <r_mmod_Solvation_Energy-OPLS-2005>
-240.845336914062

> <b_mmod_Minimization_Converged-OPLS-2005>
0

> <r_mmod_RMS_Derivative-OPLS-2005>
0.720706462860107

$$$$
86
                    3D
 Structure written by MMmdl.
147155  0  0  1  0            999 V2000
  -30.5230  -14.9335   20.4257 C   0  0  0  0  0  0
  -30.4482  -12.5744   19.4974 C   0  0  0  0  0  0
  -29.5252  -12.5321   18.2561 C   0  0  0  0  0  0
  -28.0564  -12.3193   18.6710 C   0  0  0  0  0  0
  -27.6349  -13.2421   19.8440 C   0  0  2  0  0  0
  -28.6783  -13.2431   20.9826 C   0  0  0  0  0  0
  -25.2485  -13.8203   20.5704 C   0  0  0  0  0  0
  -24.1793  -13.0436   20.9227 C   0  0  0  0  0  0
  -24.6399  -11.6918   20.8752 C   0  0  0  0  0  0
  -23.9078  -10.4292   21.0407 C   0  0  0  0  0  0
  -24.3626   -9.4206   21.9185 C   0  0  0  0  0  0
  -23.6297   -8.2244   22.0755 C   0  0  0  0  0  0
  -22.4279   -8.0283   21.3545 C   0  0  0  0  0  0
  -21.9918   -9.0256   20.4647 C   0  0  0  0  0  0
  -22.7249  -10.2134   20.3057 C   0  0  0  0  0  0
  -21.6854   -6.0737   22.5278 C   0  0  0  0  0  0
  -21.4015   -6.5640   23.8210 C   0  0  0  0  0  0
  -21.3661   -5.6791   24.9172 C   0  0  0  0  0  0
  -21.6044   -4.3055   24.7223 C   0  0  0  0  0  0
  -21.8819   -3.8147   23.4344 C   0  0  0  0  0  0
  -21.9193   -4.6964   22.3400 C   0  0  0  0  0  0
  -22.7814  -13.5212   21.1879 C   0  0  0  0  0  0
  -22.1662   -4.2151   21.0978 F   0  0  0  0  0  0
  -21.5630   -3.4538   25.7735 F   0  0  0  0  0  0
  -29.9599  -13.6587   20.3948 N   0  0  0  0  0  0
  -26.2908  -12.9423   20.3252 N   0  0  0  0  0  0
  -25.9331  -11.6558   20.5737 N   0  0  0  0  0  0
  -22.0459  -12.8202   22.0432 N   0  0  0  0  0  0
  -25.4146  -15.1934   20.4114 N   0  0  0  0  0  0
  -31.7194  -15.0327   20.1258 O   0  0  0  0  0  0
  -21.6643   -6.8882   21.4240 O   0  0  0  0  0  0
  -22.3500  -14.5518   20.6722 O   0  0  0  0  0  0
  -24.6435  -31.8440   23.1886 C   0  0  0  0  0  0
  -25.9208  -32.4695   23.8275 C   0  0  1  0  0  0
  -27.2202  -27.1376   20.1489 C   0  0  0  0  0  0
  -25.5957  -33.8502   24.2193 N   0  0  0  0  0  0
  -23.4473  -30.4634   21.5341 C   0  0  2  0  0  0
  -24.8975  -28.8910   20.1099 C   0  0  0  0  0  0
  -22.7567  -29.4547   22.4862 C   0  0  0  0  0  0
  -18.0304  -28.1396   22.8479 C   0  0  0  0  0  0
  -24.1491  -36.7252   23.2643 C   0  0  0  0  0  0
  -26.0034  -30.7179   21.3876 C   0  0  0  0  0  0
  -26.0750  -29.3295   20.7284 C   0  0  0  0  0  0
  -27.2368  -28.4692   20.7308 C   0  0  0  0  0  0
  -26.0152  -26.8016   19.4911 C   0  0  0  0  0  0
  -24.8806  -27.6403   19.4761 C   0  0  0  0  0  0
  -23.6738  -29.7926   20.1536 C   0  0  0  0  0  0
  -25.4124  -36.3032   24.0317 C   0  0  1  0  0  0
  -20.5916  -28.3721   23.1236 C   0  0  2  0  0  0
  -20.6789  -26.9424   22.5404 C   0  0  0  0  0  0
  -19.5762  -26.6382   21.5212 C   0  0  0  0  0  0
  -18.1943  -26.7935   22.1622 C   0  0  0  0  0  0
  -19.1560  -28.8876   23.2851 C   0  0  0  0  0  0
  -18.9477  -30.1473   23.8876 C   0  0  0  0  0  0
  -17.6473  -30.6593   24.0558 C   0  0  0  0  0  0
  -25.9075  -34.9407   23.5064 C   0  0  0  0  0  0
  -16.5365  -29.9084   23.6338 C   0  0  0  0  0  0
  -16.7289  -28.6502   23.0361 C   0  0  0  0  0  0
  -26.4532  -31.6564   25.0716 C   0  0  0  0  0  0
  -25.3716  -31.3748   26.1409 C   0  0  0  0  0  0
  -27.0403  -30.2962   24.6299 C   0  0  0  0  0  0
  -27.6062  -32.4331   25.7500 C   0  0  0  0  0  0
  -27.5577  -37.1783   24.8467 C   0  0  0  0  0  0
  -21.4259  -29.3046   22.3608 N   0  0  0  0  0  0
  -26.4287  -37.3745   23.9409 N   0  0  0  0  0  0
  -24.7179  -31.0294   22.0921 N   0  0  0  0  0  0
  -23.4208  -28.8096   23.3016 O   0  0  0  0  0  0
  -28.2728  -26.1516   20.2274 O   0  0  0  0  0  0
  -26.5657  -34.8903   22.4640 O   0  0  0  0  0  0
  -23.5555  -32.1316   23.7107 O   0  0  0  0  0  0
  -30.4776  -19.8019   20.0511 C   0  0  0  0  0  0
  -29.1814  -20.2491   20.3101 C   0  0  0  0  0  0
  -29.7122  -17.5795   20.4858 C   0  0  0  0  0  0
  -28.0006  -24.6330   20.0002 C   0  0  0  0  0  0
  -28.4242  -21.7031   20.1508 C   0  0  1  0  0  0
  -28.9844  -23.2887   20.3082 C   0  0  1  0  0  0
  -30.7538  -18.3771   20.1483 N   0  0  0  0  0  0
  -29.6763  -16.0540   20.6254 N   0  0  0  0  0  0
  -30.0810  -23.4039   19.4125 O   0  0  0  0  0  0
  -27.7548  -21.7057   18.9962 F   0  0  0  0  0  0
  -28.2961  -18.7163   20.7314 S   0  0  0  0  0  0
  -31.4813  -12.7389   19.1870 H   0  0  0  0  0  0
  -30.4432  -11.6154   20.0178 H   0  0  0  0  0  0
  -29.8412  -11.7403   17.5755 H   0  0  0  0  0  0
  -29.6165  -13.4671   17.7008 H   0  0  0  0  0  0
  -27.9474  -11.2755   18.9682 H   0  0  0  0  0  0
  -27.3948  -12.4631   17.8159 H   0  0  0  0  0  0
  -27.6051  -14.2493   19.4279 H   0  0  0  0  0  0
  -28.7596  -12.2560   21.4402 H   0  0  0  0  0  0
  -28.3787  -13.9250   21.7800 H   0  0  0  0  0  0
  -25.2769   -9.5682   22.4762 H   0  0  0  0  0  0
  -24.0005   -7.4636   22.7475 H   0  0  0  0  0  0
  -21.0851   -8.8774   19.8951 H   0  0  0  0  0  0
  -22.3707  -10.9673   19.6167 H   0  0  0  0  0  0
  -21.2006   -7.6147   23.9715 H   0  0  0  0  0  0
  -21.1485   -6.0522   25.9075 H   0  0  0  0  0  0
  -22.0598   -2.7610   23.2843 H   0  0  0  0  0  0
  -22.4076  -11.9864   22.4821 H   0  0  0  0  0  0
  -21.1073  -13.1222   22.2629 H   0  0  0  0  0  0
  -24.6374  -15.8373   20.5135 H   0  0  0  0  0  0
  -26.2386  -15.6317   20.0225 H   0  0  0  0  0  0
  -26.7273  -32.5301   23.1002 H   0  0  0  0  0  0
  -25.0090  -33.9617   25.0331 H   0  0  0  0  0  0
  -22.7501  -31.2895   21.3797 H   0  0  0  0  0  0
  -23.3761  -35.9576   23.3291 H   0  0  0  0  0  0
  -24.3577  -36.8897   22.2060 H   0  0  0  0  0  0
  -23.7237  -37.6441   23.6688 H   0  0  0  0  0  0
  -26.1597  -31.4727   20.6158 H   0  0  0  0  0  0
  -26.8735  -30.7676   22.0306 H   0  0  0  0  0  0
  -28.1325  -28.7998   21.2376 H   0  0  0  0  0  0
  -25.9112  -25.8464   18.9997 H   0  0  0  0  0  0
  -23.9815  -27.2993   18.9812 H   0  0  0  0  0  0
  -23.8097  -30.5671   19.3979 H   0  0  0  0  0  0
  -22.7888  -29.2343   19.8432 H   0  0  0  0  0  0
  -25.1312  -36.1860   25.0809 H   0  0  0  0  0  0
  -21.0009  -28.3310   24.1357 H   0  0  0  0  0  0
  -20.5686  -26.2333   23.3623 H   0  0  0  0  0  0
  -21.6655  -26.7434   22.1199 H   0  0  0  0  0  0
  -19.6925  -25.6288   21.1257 H   0  0  0  0  0  0
  -19.6701  -27.3180   20.6732 H   0  0  0  0  0  0
  -17.4214  -26.6683   21.4025 H   0  0  0  0  0  0
  -18.0343  -26.0081   22.9022 H   0  0  0  0  0  0
  -19.7952  -30.7295   24.2238 H   0  0  0  0  0  0
  -17.5025  -31.6272   24.5161 H   0  0  0  0  0  0
  -15.5364  -30.2978   23.7675 H   0  0  0  0  0  0
  -15.8688  -28.0811   22.7094 H   0  0  0  0  0  0
  -24.5909  -30.7081   25.7727 H   0  0  0  0  0  0
  -24.8888  -32.2926   26.4775 H   0  0  0  0  0  0
  -25.8000  -30.8963   27.0224 H   0  0  0  0  0  0
  -26.3025  -29.6677   24.1298 H   0  0  0  0  0  0
  -27.4011  -29.7268   25.4874 H   0  0  0  0  0  0
  -27.8933  -30.4202   23.9624 H   0  0  0  0  0  0
  -27.2660  -33.3656   26.2015 H   0  0  0  0  0  0
  -28.3904  -32.6850   25.0350 H   0  0  0  0  0  0
  -28.0693  -31.8496   26.5466 H   0  0  0  0  0  0
  -28.2584  -38.0088   24.7517 H   0  0  0  0  0  0
  -28.1083  -36.2618   24.6291 H   0  0  0  0  0  0
  -27.2293  -37.1424   25.8869 H   0  0  0  0  0  0
  -20.9473  -29.8751   21.6777 H   0  0  0  0  0  0
  -26.0155  -38.2812   24.1414 H   0  0  0  0  0  0
  -31.2928  -20.4388   19.7359 H   0  0  0  0  0  0
  -27.0888  -24.4347   20.5649 H   0  0  0  0  0  0
  -27.7051  -24.5422   18.9545 H   0  0  0  0  0  0
  -27.6166  -21.6629   20.8828 H   0  0  0  0  0  0
  -29.3692  -23.3933   21.3234 H   0  0  0  0  0  0
  -28.7547  -15.7360   20.8781 H   0  0  0  0  0  0
  -30.4289  -24.2857   19.5094 H   0  0  0  0  0  0
  1 25  1  0  0  0
  1 30  2  0  0  0
  1 78  1  0  0  0
  2  3  1  0  0  0
  2 25  1  0  0  0
  2 82  1  0  0  0
  2 83  1  0  0  0
  3  4  1  0  0  0
  3 84  1  0  0  0
  3 85  1  0  0  0
  4  5  1  0  0  0
  4 86  1  0  0  0
  4 87  1  0  0  0
  5  6  1  0  0  0
  5 26  1  0  0  0
  5 88  1  0  0  0
  6 25  1  0  0  0
  6 89  1  0  0  0
  6 90  1  0  0  0
  7  8  2  0  0  0
  7 26  1  0  0  0
  7 29  1  0  0  0
  8  9  1  0  0  0
  8 22  1  0  0  0
  9 10  1  0  0  0
  9 27  2  0  0  0
 10 11  2  0  0  0
 10 15  1  0  0  0
 11 12  1  0  0  0
 11 91  1  0  0  0
 12 13  2  0  0  0
 12 92  1  0  0  0
 13 14  1  0  0  0
 13 31  1  0  0  0
 14 15  2  0  0  0
 14 93  1  0  0  0
 15 94  1  0  0  0
 16 17  2  0  0  0
 16 21  1  0  0  0
 16 31  1  0  0  0
 17 18  1  0  0  0
 17 95  1  0  0  0
 18 19  2  0  0  0
 18 96  1  0  0  0
 19 20  1  0  0  0
 19 24  1  0  0  0
 20 21  2  0  0  0
 20 97  1  0  0  0
 21 23  1  0  0  0
 22 28  1  0  0  0
 22 32  2  0  0  0
 26 27  1  0  0  0
 28 98  1  0  0  0
 28 99  1  0  0  0
 29100  1  0  0  0
 29101  1  0  0  0
 33 34  1  0  0  0
 33 66  1  0  0  0
 33 70  2  0  0  0
 34 36  1  0  0  0
 34 59  1  0  0  0
 34102  1  0  0  0
 35 44  2  0  0  0
 35 45  1  0  0  0
 35 68  1  0  0  0
 36 56  1  0  0  0
 36103  1  0  0  0
 37 39  1  0  0  0
 37 47  1  0  0  0
 37 66  1  0  0  0
 37104  1  0  0  0
 38 43  2  0  0  0
 38 46  1  0  0  0
 38 47  1  0  0  0
 39 64  1  0  0  0
 39 67  2  0  0  0
 40 52  1  0  0  0
 40 53  2  0  0  0
 40 58  1  0  0  0
 41105  1  0  0  0
 41106  1  0  0  0
 41107  1  0  0  0
 41 48  1  0  0  0
 42 43  1  0  0  0
 42 66  1  0  0  0
 42108  1  0  0  0
 42109  1  0  0  0
 43 44  1  0  0  0
 44110  1  0  0  0
 45 46  2  0  0  0
 45111  1  0  0  0
 46112  1  0  0  0
 47113  1  0  0  0
 47114  1  0  0  0
 48 56  1  0  0  0
 48 65  1  0  0  0
 48115  1  0  0  0
 49 50  1  0  0  0
 49 53  1  0  0  0
 49 64  1  0  0  0
 49116  1  0  0  0
 50 51  1  0  0  0
 50117  1  0  0  0
 50118  1  0  0  0
 51 52  1  0  0  0
 51119  1  0  0  0
 51120  1  0  0  0
 52121  1  0  0  0
 52122  1  0  0  0
 53 54  1  0  0  0
 54 55  2  0  0  0
 54123  1  0  0  0
 55 57  1  0  0  0
 55124  1  0  0  0
 56 69  2  0  0  0
 57 58  2  0  0  0
 57125  1  0  0  0
 58126  1  0  0  0
 59 60  1  0  0  0
 59 61  1  0  0  0
 59 62  1  0  0  0
 60127  1  0  0  0
 60128  1  0  0  0
 60129  1  0  0  0
 61130  1  0  0  0
 61131  1  0  0  0
 61132  1  0  0  0
 62133  1  0  0  0
 62134  1  0  0  0
 62135  1  0  0  0
 63 65  1  0  0  0
 63136  1  0  0  0
 63137  1  0  0  0
 63138  1  0  0  0
 64139  1  0  0  0
 65140  1  0  0  0
 68 74  1  0  0  0
 71 72  2  0  0  0
 71 77  1  0  0  0
 71141  1  0  0  0
 72 75  1  0  0  0
 72 81  1  0  0  0
 73 77  2  0  0  0
 73 78  1  0  0  0
 73 81  1  0  0  0
 74 76  1  0  0  0
 74142  1  0  0  0
 74143  1  0  0  0
 75 76  1  0  0  0
 75 80  1  0  0  0
 75144  1  0  0  0
 76 79  1  0  0  0
 76145  1  0  0  0
 78146  1  0  0  0
 79147  1  0  0  0
M  ISO  4   1 100  68 101  74 101  78 100
M  END
> <chiral flag>
0

> <version>
0

> <s_m_source_file>
/data/baiqing/PycharmProjects/Reinvent-master-3.2/result/LINK_invent/BTK/process_docking_weight1_custom_product_contain_oxygen_bond_distance_aromatic_linkinvent_7_9_3/rearranged_h_0188.sdf

> <i_m_source_file_index>
86

> <r_mmod_Potential_Energy-OPLS-2005>
404.189575195312

> <r_mmod_Stretch_Energy-OPLS-2005>
240.760879516602

> <r_mmod_Bend_Energy-OPLS-2005>
268.5703125

> <r_mmod_Torsional_Energy-OPLS-2005>
211.84587097168

> <r_mmod_Improper_Torsional_Energy-OPLS-2005>
4.42259168624878

> <r_mmod_Van_der_Waal_Energy-OPLS-2005>
109.925140380859

> <r_mmod_Electrostatic_Energy-OPLS-2005>
-368.182037353516

> <r_mmod_Solvation_Energy-OPLS-2005>
-249.407150268555

> <b_mmod_Minimization_Converged-OPLS-2005>
0

> <r_mmod_RMS_Derivative-OPLS-2005>
0.261480033397675

$$$$
87
                    3D
 Structure written by MMmdl.
150158  0  0  1  0            999 V2000
  -30.5001  -15.0126   20.4327 C   0  0  0  0  0  0
  -30.4501  -12.6323   19.5131 C   0  0  0  0  0  0
  -29.5314  -12.5460   18.2690 C   0  0  0  0  0  0
  -28.0638  -12.3212   18.6808 C   0  0  0  0  0  0
  -27.6309  -13.2513   19.8433 C   0  0  2  0  0  0
  -28.6702  -13.2888   20.9846 C   0  0  0  0  0  0
  -25.2444  -13.8225   20.5697 C   0  0  0  0  0  0
  -24.1762  -13.0456   20.9238 C   0  0  0  0  0  0
  -24.6381  -11.6939   20.8761 C   0  0  0  0  0  0
  -23.9073  -10.4303   21.0414 C   0  0  0  0  0  0
  -24.3614   -9.4215   21.9201 C   0  0  0  0  0  0
  -23.6287   -8.2250   22.0765 C   0  0  0  0  0  0
  -22.4270   -8.0295   21.3551 C   0  0  0  0  0  0
  -21.9903   -9.0273   20.4657 C   0  0  0  0  0  0
  -22.7237  -10.2157   20.3068 C   0  0  0  0  0  0
  -21.6859   -6.0731   22.5274 C   0  0  0  0  0  0
  -21.4016   -6.5628   23.8209 C   0  0  0  0  0  0
  -21.3659   -5.6779   24.9172 C   0  0  0  0  0  0
  -21.6047   -4.3048   24.7219 C   0  0  0  0  0  0
  -21.8818   -3.8143   23.4336 C   0  0  0  0  0  0
  -21.9192   -4.6955   22.3395 C   0  0  0  0  0  0
  -22.7785  -13.5249   21.1884 C   0  0  0  0  0  0
  -22.1662   -4.2139   21.0972 F   0  0  0  0  0  0
  -21.5632   -3.4533   25.7730 F   0  0  0  0  0  0
  -29.9421  -13.7283   20.3926 N   0  0  0  0  0  0
  -26.2874  -12.9462   20.3239 N   0  0  0  0  0  0
  -25.9316  -11.6595   20.5728 N   0  0  0  0  0  0
  -22.0407  -12.8261   22.0439 N   0  0  0  0  0  0
  -25.4107  -15.1940   20.4043 N   0  0  0  0  0  0
  -31.6972  -15.1083   20.1358 O   0  0  0  0  0  0
  -21.6643   -6.8883   21.4241 O   0  0  0  0  0  0
  -22.3483  -14.5555   20.6724 O   0  0  0  0  0  0
  -24.6478  -31.8413   23.1822 C   0  0  0  0  0  0
  -25.9241  -32.4677   23.8229 C   0  0  1  0  0  0
  -27.2268  -27.0831   20.1796 C   0  0  0  0  0  0
  -25.5976  -33.8480   24.2172 N   0  0  0  0  0  0
  -23.4546  -30.4547   21.5285 C   0  0  2  0  0  0
  -24.9101  -28.8706   20.1109 C   0  0  0  0  0  0
  -22.7601  -29.4521   22.4840 C   0  0  0  0  0  0
  -18.0333  -28.1394   22.8450 C   0  0  0  0  0  0
  -24.1493  -36.7246   23.2633 C   0  0  0  0  0  0
  -26.0099  -30.7033   21.3825 C   0  0  0  0  0  0
  -26.0863  -29.3042   20.7348 C   0  0  0  0  0  0
  -27.2428  -28.4283   20.7485 C   0  0  0  0  0  0
  -26.0224  -26.7638   19.5116 C   0  0  0  0  0  0
  -24.8960  -27.6166   19.4795 C   0  0  0  0  0  0
  -23.6858  -29.7766   20.1495 C   0  0  0  0  0  0
  -25.4124  -36.3015   24.0304 C   0  0  1  0  0  0
  -20.5939  -28.3727   23.1253 C   0  0  2  0  0  0
  -20.6805  -26.9410   22.5464 C   0  0  0  0  0  0
  -19.5822  -26.6373   21.5221 C   0  0  0  0  0  0
  -18.1969  -26.7952   22.1555 C   0  0  0  0  0  0
  -19.1580  -28.8868   23.2852 C   0  0  0  0  0  0
  -18.9484  -30.1450   23.8899 C   0  0  0  0  0  0
  -17.6478  -30.6568   24.0571 C   0  0  0  0  0  0
  -25.9081  -34.9396   23.5051 C   0  0  0  0  0  0
  -16.5376  -29.9080   23.6313 C   0  0  0  0  0  0
  -16.7312  -28.6503   23.0326 C   0  0  0  0  0  0
  -26.4546  -31.6537   25.0671 C   0  0  0  0  0  0
  -25.3716  -31.3759   26.1356 C   0  0  0  0  0  0
  -27.0404  -30.2935   24.6237 C   0  0  0  0  0  0
  -27.6073  -32.4288   25.7475 C   0  0  0  0  0  0
  -27.5573  -37.1780   24.8463 C   0  0  0  0  0  0
  -21.4283  -29.3052   22.3613 N   0  0  0  0  0  0
  -26.4278  -37.3738   23.9410 N   0  0  0  0  0  0
  -24.7246  -31.0217   22.0876 N   0  0  0  0  0  0
  -23.4231  -28.8084   23.3016 O   0  0  0  0  0  0
  -28.2713  -26.0716   20.2674 O   0  0  0  0  0  0
  -26.5655  -34.8902   22.4625 O   0  0  0  0  0  0
  -23.5586  -32.1311   23.7013 O   0  0  0  0  0  0
  -30.9100  -18.5566   20.2496 C   0  0  0  0  0  0
  -28.7938  -18.7359   20.6253 C   0  0  0  0  0  0
  -29.7794  -17.7146   20.5147 C   0  0  0  0  0  0
  -29.7215  -23.2908   21.7774 C   0  0  0  0  0  0
  -28.5119  -21.5081   20.2458 C   0  0  0  0  0  0
  -27.9958  -24.5127   20.1747 C   0  0  0  0  0  0
  -29.0175  -23.1433   20.4210 C   0  0  1  0  0  0
  -30.6180  -19.8930   20.1785 N   0  0  0  0  0  0
  -29.2820  -20.0956   20.4210 N   0  0  0  0  0  0
  -29.6667  -16.1650   20.6293 N   0  0  0  0  0  0
  -29.9696  -23.2947   19.4999 F   0  0  0  0  0  0
  -31.4809  -12.8069   19.2036 H   0  0  0  0  0  0
  -30.4635  -11.6839   20.0519 H   0  0  0  0  0  0
  -29.8614  -11.7447   17.6061 H   0  0  0  0  0  0
  -29.6103  -13.4709   17.6945 H   0  0  0  0  0  0
  -27.9649  -11.2798   18.9884 H   0  0  0  0  0  0
  -27.4038  -12.4518   17.8210 H   0  0  0  0  0  0
  -27.5919  -14.2513   19.4129 H   0  0  0  0  0  0
  -28.7688  -12.3115   21.4592 H   0  0  0  0  0  0
  -28.3546  -13.9792   21.7686 H   0  0  0  0  0  0
  -25.2754   -9.5692   22.4788 H   0  0  0  0  0  0
  -23.9987   -7.4636   22.7480 H   0  0  0  0  0  0
  -21.0837   -8.8814   19.8952 H   0  0  0  0  0  0
  -22.3703  -10.9712   19.6183 H   0  0  0  0  0  0
  -21.2013   -7.6138   23.9711 H   0  0  0  0  0  0
  -21.1478   -6.0509   25.9073 H   0  0  0  0  0  0
  -22.0592   -2.7602   23.2837 H   0  0  0  0  0  0
  -22.4000  -11.9933   22.4876 H   0  0  0  0  0  0
  -21.1031  -13.1321   22.2617 H   0  0  0  0  0  0
  -24.6300  -15.8372   20.4820 H   0  0  0  0  0  0
  -26.2230  -15.6166   19.9745 H   0  0  0  0  0  0
  -26.7301  -32.5301   23.0948 H   0  0  0  0  0  0
  -25.0108  -33.9572   25.0308 H   0  0  0  0  0  0
  -22.7583  -31.2794   21.3685 H   0  0  0  0  0  0
  -23.3748  -35.9585   23.3276 H   0  0  0  0  0  0
  -24.3565  -36.8907   22.2051 H   0  0  0  0  0  0
  -23.7253  -37.6436   23.6690 H   0  0  0  0  0  0
  -26.1486  -31.4484   20.5975 H   0  0  0  0  0  0
  -26.8839  -30.7738   22.0170 H   0  0  0  0  0  0
  -28.1350  -28.7566   21.2632 H   0  0  0  0  0  0
  -25.9190  -25.8046   19.0282 H   0  0  0  0  0  0
  -24.0011  -27.2799   18.9752 H   0  0  0  0  0  0
  -23.8248  -30.5471   19.3897 H   0  0  0  0  0  0
  -22.8018  -29.2167   19.8397 H   0  0  0  0  0  0
  -25.1311  -36.1821   25.0790 H   0  0  0  0  0  0
  -21.0015  -28.3336   24.1386 H   0  0  0  0  0  0
  -20.5640  -26.2349   23.3698 H   0  0  0  0  0  0
  -21.6681  -26.7372   22.1307 H   0  0  0  0  0  0
  -19.7004  -25.6283   21.1262 H   0  0  0  0  0  0
  -19.6826  -27.3178   20.6754 H   0  0  0  0  0  0
  -17.4303  -26.6799   21.3873 H   0  0  0  0  0  0
  -18.0241  -26.0060   22.8884 H   0  0  0  0  0  0
  -19.7956  -30.7241   24.2307 H   0  0  0  0  0  0
  -17.5030  -31.6242   24.5200 H   0  0  0  0  0  0
  -15.5375  -30.2969   23.7623 H   0  0  0  0  0  0
  -15.8721  -28.0814   22.7026 H   0  0  0  0  0  0
  -24.5897  -30.7111   25.7675 H   0  0  0  0  0  0
  -24.8901  -32.2965   26.4682 H   0  0  0  0  0  0
  -25.7971  -30.8996   27.0200 H   0  0  0  0  0  0
  -26.3030  -29.6653   24.1238 H   0  0  0  0  0  0
  -27.4029  -29.7226   25.4791 H   0  0  0  0  0  0
  -27.8923  -30.4165   23.9542 H   0  0  0  0  0  0
  -27.2684  -33.3624   26.1980 H   0  0  0  0  0  0
  -28.3946  -32.6789   25.0350 H   0  0  0  0  0  0
  -28.0672  -31.8448   26.5461 H   0  0  0  0  0  0
  -28.2570  -38.0095   24.7503 H   0  0  0  0  0  0
  -28.1083  -36.2616   24.6288 H   0  0  0  0  0  0
  -27.2282  -37.1430   25.8864 H   0  0  0  0  0  0
  -20.9504  -29.8795   21.6807 H   0  0  0  0  0  0
  -26.0132  -38.2796   24.1431 H   0  0  0  0  0  0
  -31.9343  -18.2484   20.0874 H   0  0  0  0  0  0
  -27.7371  -18.6079   20.8085 H   0  0  0  0  0  0
  -30.5543  -22.5912   21.8622 H   0  0  0  0  0  0
  -29.0343  -23.0971   22.6020 H   0  0  0  0  0  0
  -30.1208  -24.2966   21.9115 H   0  0  0  0  0  0
  -28.0859  -21.4544   19.2445 H   0  0  0  0  0  0
  -27.6434  -21.4196   20.8993 H   0  0  0  0  0  0
  -27.1484  -24.3513   20.8403 H   0  0  0  0  0  0
  -27.5951  -24.3650   19.1721 H   0  0  0  0  0  0
  -28.7323  -15.8650   20.8614 H   0  0  0  0  0  0
  1 25  1  0  0  0
  1 30  2  0  0  0
  1 80  1  0  0  0
  2  3  1  0  0  0
  2 25  1  0  0  0
  2 82  1  0  0  0
  2 83  1  0  0  0
  3  4  1  0  0  0
  3 84  1  0  0  0
  3 85  1  0  0  0
  4  5  1  0  0  0
  4 86  1  0  0  0
  4 87  1  0  0  0
  5  6  1  0  0  0
  5 26  1  0  0  0
  5 88  1  0  0  0
  6 25  1  0  0  0
  6 89  1  0  0  0
  6 90  1  0  0  0
  7  8  2  0  0  0
  7 26  1  0  0  0
  7 29  1  0  0  0
  8  9  1  0  0  0
  8 22  1  0  0  0
  9 10  1  0  0  0
  9 27  2  0  0  0
 10 11  2  0  0  0
 10 15  1  0  0  0
 11 12  1  0  0  0
 11 91  1  0  0  0
 12 13  2  0  0  0
 12 92  1  0  0  0
 13 14  1  0  0  0
 13 31  1  0  0  0
 14 15  2  0  0  0
 14 93  1  0  0  0
 15 94  1  0  0  0
 16 17  2  0  0  0
 16 21  1  0  0  0
 16 31  1  0  0  0
 17 18  1  0  0  0
 17 95  1  0  0  0
 18 19  2  0  0  0
 18 96  1  0  0  0
 19 20  1  0  0  0
 19 24  1  0  0  0
 20 21  2  0  0  0
 20 97  1  0  0  0
 21 23  1  0  0  0
 22 28  1  0  0  0
 22 32  2  0  0  0
 26 27  1  0  0  0
 28 98  1  0  0  0
 28 99  1  0  0  0
 29100  1  0  0  0
 29101  1  0  0  0
 33 34  1  0  0  0
 33 66  1  0  0  0
 33 70  2  0  0  0
 34 36  1  0  0  0
 34 59  1  0  0  0
 34102  1  0  0  0
 35 44  2  0  0  0
 35 45  1  0  0  0
 35 68  1  0  0  0
 36 56  1  0  0  0
 36103  1  0  0  0
 37 39  1  0  0  0
 37 47  1  0  0  0
 37 66  1  0  0  0
 37104  1  0  0  0
 38 43  2  0  0  0
 38 46  1  0  0  0
 38 47  1  0  0  0
 39 64  1  0  0  0
 39 67  2  0  0  0
 40 52  1  0  0  0
 40 53  2  0  0  0
 40 58  1  0  0  0
 41105  1  0  0  0
 41106  1  0  0  0
 41107  1  0  0  0
 41 48  1  0  0  0
 42 43  1  0  0  0
 42 66  1  0  0  0
 42108  1  0  0  0
 42109  1  0  0  0
 43 44  1  0  0  0
 44110  1  0  0  0
 45 46  2  0  0  0
 45111  1  0  0  0
 46112  1  0  0  0
 47113  1  0  0  0
 47114  1  0  0  0
 48 56  1  0  0  0
 48 65  1  0  0  0
 48115  1  0  0  0
 49 50  1  0  0  0
 49 53  1  0  0  0
 49 64  1  0  0  0
 49116  1  0  0  0
 50 51  1  0  0  0
 50117  1  0  0  0
 50118  1  0  0  0
 51 52  1  0  0  0
 51119  1  0  0  0
 51120  1  0  0  0
 52121  1  0  0  0
 52122  1  0  0  0
 53 54  1  0  0  0
 54 55  2  0  0  0
 54123  1  0  0  0
 55 57  1  0  0  0
 55124  1  0  0  0
 56 69  2  0  0  0
 57 58  2  0  0  0
 57125  1  0  0  0
 58126  1  0  0  0
 59 60  1  0  0  0
 59 61  1  0  0  0
 59 62  1  0  0  0
 60127  1  0  0  0
 60128  1  0  0  0
 60129  1  0  0  0
 61130  1  0  0  0
 61131  1  0  0  0
 61132  1  0  0  0
 62133  1  0  0  0
 62134  1  0  0  0
 62135  1  0  0  0
 63 65  1  0  0  0
 63136  1  0  0  0
 63137  1  0  0  0
 63138  1  0  0  0
 64139  1  0  0  0
 65140  1  0  0  0
 68 76  1  0  0  0
 71 73  1  0  0  0
 71 78  2  0  0  0
 71141  1  0  0  0
 72 73  2  0  0  0
 72 79  1  0  0  0
 72142  1  0  0  0
 73 80  1  0  0  0
 74143  1  0  0  0
 74144  1  0  0  0
 74145  1  0  0  0
 74 77  1  0  0  0
 75 77  1  0  0  0
 75 79  1  0  0  0
 75146  1  0  0  0
 75147  1  0  0  0
 76 77  1  0  0  0
 76148  1  0  0  0
 76149  1  0  0  0
 77 81  1  0  0  0
 78 79  1  0  0  0
 80150  1  0  0  0
M  ISO  4   1 100  68 101  76 101  80 100
M  END
> <chiral flag>
0

> <version>
0

> <s_m_source_file>
/data/baiqing/PycharmProjects/Reinvent-master-3.2/result/LINK_invent/BTK/process_docking_weight1_custom_product_contain_oxygen_bond_distance_aromatic_linkinvent_7_9_3/rearranged_h_0188.sdf

> <i_m_source_file_index>
87

> <r_mmod_Potential_Energy-OPLS-2005>
621.836547851562

> <r_mmod_Stretch_Energy-OPLS-2005>
319.895202636719

> <r_mmod_Bend_Energy-OPLS-2005>
308.064514160156

> <r_mmod_Torsional_Energy-OPLS-2005>
223.248687744141

> <r_mmod_Improper_Torsional_Energy-OPLS-2005>
5.14539957046509

> <r_mmod_Van_der_Waal_Energy-OPLS-2005>
104.269844055176

> <r_mmod_Electrostatic_Energy-OPLS-2005>
-343.444549560547

> <r_mmod_Solvation_Energy-OPLS-2005>
-237.734436035156

> <b_mmod_Minimization_Converged-OPLS-2005>
0

> <r_mmod_RMS_Derivative-OPLS-2005>
2.41349935531616

$$$$
88
                    3D
 Structure written by MMmdl.
151159  0  0  1  0            999 V2000
  -30.5903  -14.7391   20.4486 C   0  0  0  0  0  0
  -30.4394  -12.4477   19.4615 C   0  0  0  0  0  0
  -29.5077  -12.5071   18.2287 C   0  0  0  0  0  0
  -28.0342  -12.3269   18.6454 C   0  0  0  0  0  0
  -27.6432  -13.2230   19.8497 C   0  0  2  0  0  0
  -28.6920  -13.1394   20.9828 C   0  0  0  0  0  0
  -25.2520  -13.8176   20.5665 C   0  0  0  0  0  0
  -24.1809  -13.0434   20.9213 C   0  0  0  0  0  0
  -24.6386  -11.6910   20.8754 C   0  0  0  0  0  0
  -23.9064  -10.4292   21.0414 C   0  0  0  0  0  0
  -24.3615   -9.4202   21.9187 C   0  0  0  0  0  0
  -23.6290   -8.2237   22.0750 C   0  0  0  0  0  0
  -22.4273   -8.0277   21.3538 C   0  0  0  0  0  0
  -21.9913   -9.0249   20.4640 C   0  0  0  0  0  0
  -22.7241  -10.2130   20.3054 C   0  0  0  0  0  0
  -21.6852   -6.0730   22.5274 C   0  0  0  0  0  0
  -21.4014   -6.5637   23.8206 C   0  0  0  0  0  0
  -21.3661   -5.6789   24.9171 C   0  0  0  0  0  0
  -21.6043   -4.3051   24.7225 C   0  0  0  0  0  0
  -21.8821   -3.8143   23.4345 C   0  0  0  0  0  0
  -21.9192   -4.6957   22.3400 C   0  0  0  0  0  0
  -22.7833  -13.5222   21.1873 C   0  0  0  0  0  0
  -22.1662   -4.2141   21.0977 F   0  0  0  0  0  0
  -21.5629   -3.4538   25.7742 F   0  0  0  0  0  0
  -29.9959  -13.4974   20.4043 N   0  0  0  0  0  0
  -26.2942  -12.9361   20.3270 N   0  0  0  0  0  0
  -25.9314  -11.6514   20.5757 N   0  0  0  0  0  0
  -22.0477  -12.8202   22.0423 N   0  0  0  0  0  0
  -25.4217  -15.1893   20.4014 N   0  0  0  0  0  0
  -31.7816  -14.8638   20.1452 O   0  0  0  0  0  0
  -21.6635   -6.8874   21.4235 O   0  0  0  0  0  0
  -22.3522  -14.5533   20.6728 O   0  0  0  0  0  0
  -24.6283  -31.8567   23.1957 C   0  0  0  0  0  0
  -25.9118  -32.4763   23.8305 C   0  0  1  0  0  0
  -27.2279  -27.2824   20.1385 C   0  0  0  0  0  0
  -25.5942  -33.8564   24.2251 N   0  0  0  0  0  0
  -23.4247  -30.4746   21.5405 C   0  0  2  0  0  0
  -24.8736  -28.9162   20.1168 C   0  0  0  0  0  0
  -22.7491  -29.4592   22.4927 C   0  0  0  0  0  0
  -18.0287  -28.1390   22.8479 C   0  0  0  0  0  0
  -24.1494  -36.7279   23.2638 C   0  0  0  0  0  0
  -25.9656  -30.7781   21.3690 C   0  0  0  0  0  0
  -26.0431  -29.3985   20.7190 C   0  0  0  0  0  0
  -27.2263  -28.5953   20.7118 C   0  0  0  0  0  0
  -26.0363  -26.8511   19.5213 C   0  0  0  0  0  0
  -24.8732  -27.6498   19.5081 C   0  0  0  0  0  0
  -23.6422  -29.8014   20.1587 C   0  0  0  0  0  0
  -25.4119  -36.3071   24.0328 C   0  0  1  0  0  0
  -20.5886  -28.3693   23.1288 C   0  0  2  0  0  0
  -20.6773  -26.9415   22.5420 C   0  0  0  0  0  0
  -19.5752  -26.6384   21.5218 C   0  0  0  0  0  0
  -18.1924  -26.7932   22.1619 C   0  0  0  0  0  0
  -19.1539  -28.8859   23.2872 C   0  0  0  0  0  0
  -18.9464  -30.1459   23.8893 C   0  0  0  0  0  0
  -17.6461  -30.6589   24.0566 C   0  0  0  0  0  0
  -25.9061  -34.9447   23.5092 C   0  0  0  0  0  0
  -16.5352  -29.9090   23.6330 C   0  0  0  0  0  0
  -16.7274  -28.6512   23.0346 C   0  0  0  0  0  0
  -26.4488  -31.6584   25.0685 C   0  0  0  0  0  0
  -25.3704  -31.3746   26.1411 C   0  0  0  0  0  0
  -27.0331  -30.3007   24.6144 C   0  0  0  0  0  0
  -27.6048  -32.4321   25.7467 C   0  0  0  0  0  0
  -27.5584  -37.1786   24.8454 C   0  0  0  0  0  0
  -21.4201  -29.3036   22.3676 N   0  0  0  0  0  0
  -26.4295  -37.3777   23.9411 N   0  0  0  0  0  0
  -24.6918  -31.0547   22.0923 N   0  0  0  0  0  0
  -23.4200  -28.8142   23.3022 O   0  0  0  0  0  0
  -28.3527  -26.4369   20.1185 O   0  0  0  0  0  0
  -26.5627  -34.8926   22.4656 O   0  0  0  0  0  0
  -23.5439  -32.1387   23.7275 O   0  0  0  0  0  0
  -30.7973  -19.4284   20.4843 C   0  0  0  0  0  0
  -29.5024  -19.8688   20.2270 C   0  0  0  0  0  0
  -29.8577  -17.2864   20.4797 C   0  0  0  0  0  0
  -29.1192  -22.3656   20.5691 C   0  0  0  0  0  0
  -32.0108  -20.3059   20.5572 C   0  0  0  0  0  0
  -28.2761  -25.0435   20.6732 C   0  0  0  0  0  0
  -28.7978  -23.7625   19.8272 C   0  0  1  0  0  0
  -30.9779  -18.0156   20.6248 N   0  0  0  0  0  0
  -29.0450  -21.1580   19.8979 N   0  0  0  0  0  0
  -29.7383  -15.8169   20.6167 N   0  0  0  0  0  0
  -29.4917  -22.3963   21.7441 O   0  0  0  0  0  0
  -30.0153  -24.1804   19.2240 O   0  0  0  0  0  0
  -28.4805  -18.4026   20.1607 S   0  0  0  0  0  0
  -31.4781  -12.5818   19.1542 H   0  0  0  0  0  0
  -30.3904  -11.4657   19.9349 H   0  0  0  0  0  0
  -29.7872  -11.7400   17.5051 H   0  0  0  0  0  0
  -29.6287  -13.4649   17.7206 H   0  0  0  0  0  0
  -27.8931  -11.2774   18.9067 H   0  0  0  0  0  0
  -27.3737  -12.5190   17.7995 H   0  0  0  0  0  0
  -27.6394  -14.2451   19.4726 H   0  0  0  0  0  0
  -28.7242  -12.1339   21.4055 H   0  0  0  0  0  0
  -28.4273  -13.8044   21.8072 H   0  0  0  0  0  0
  -25.2762   -9.5675   22.4759 H   0  0  0  0  0  0
  -23.9998   -7.4629   22.7471 H   0  0  0  0  0  0
  -21.0847   -8.8771   19.8944 H   0  0  0  0  0  0
  -22.3705  -10.9667   19.6159 H   0  0  0  0  0  0
  -21.2006   -7.6145   23.9706 H   0  0  0  0  0  0
  -21.1481   -6.0522   25.9071 H   0  0  0  0  0  0
  -22.0599   -2.7605   23.2849 H   0  0  0  0  0  0
  -22.4101  -11.9856   22.4788 H   0  0  0  0  0  0
  -21.1090  -13.1209   22.2634 H   0  0  0  0  0  0
  -24.6442  -15.8354   20.4869 H   0  0  0  0  0  0
  -26.2423  -15.6171   19.9938 H   0  0  0  0  0  0
  -26.7187  -32.5427   23.1047 H   0  0  0  0  0  0
  -25.0082  -33.9699   25.0398 H   0  0  0  0  0  0
  -22.7197  -31.2944   21.3901 H   0  0  0  0  0  0
  -23.3770  -35.9594   23.3285 H   0  0  0  0  0  0
  -24.3583  -36.8923   22.2052 H   0  0  0  0  0  0
  -23.7229  -37.6471   23.6675 H   0  0  0  0  0  0
  -26.0928  -31.5361   20.5950 H   0  0  0  0  0  0
  -26.8477  -30.8353   21.9946 H   0  0  0  0  0  0
  -28.1283  -28.9645   21.1783 H   0  0  0  0  0  0
  -25.9997  -25.8799   19.0494 H   0  0  0  0  0  0
  -23.9764  -27.2743   19.0342 H   0  0  0  0  0  0
  -23.7632  -30.5736   19.3978 H   0  0  0  0  0  0
  -22.7621  -29.2297   19.8571 H   0  0  0  0  0  0
  -25.1293  -36.1920   25.0821 H   0  0  0  0  0  0
  -20.9968  -28.3279   24.1416 H   0  0  0  0  0  0
  -20.5703  -26.2291   23.3615 H   0  0  0  0  0  0
  -21.6636  -26.7455   22.1201 H   0  0  0  0  0  0
  -19.6921  -25.6303   21.1243 H   0  0  0  0  0  0
  -19.6709  -27.3200   20.6757 H   0  0  0  0  0  0
  -17.4202  -26.6697   21.4011 H   0  0  0  0  0  0
  -18.0317  -26.0076   22.9015 H   0  0  0  0  0  0
  -19.7941  -30.7267   24.2274 H   0  0  0  0  0  0
  -17.5019  -31.6272   24.5163 H   0  0  0  0  0  0
  -15.5359  -30.2985   23.7662 H   0  0  0  0  0  0
  -15.8673  -28.0834   22.7058 H   0  0  0  0  0  0
  -24.5880  -30.7105   25.7728 H   0  0  0  0  0  0
  -24.8886  -32.2920   26.4803 H   0  0  0  0  0  0
  -25.7993  -30.8938   27.0206 H   0  0  0  0  0  0
  -26.2898  -29.6765   24.1174 H   0  0  0  0  0  0
  -27.4040  -29.7267   25.4643 H   0  0  0  0  0  0
  -27.8758  -30.4297   23.9352 H   0  0  0  0  0  0
  -27.2676  -33.3658   26.1982 H   0  0  0  0  0  0
  -28.3886  -32.6826   25.0305 H   0  0  0  0  0  0
  -28.0673  -31.8475   26.5431 H   0  0  0  0  0  0
  -28.2573  -38.0113   24.7542 H   0  0  0  0  0  0
  -28.1116  -36.2646   24.6236 H   0  0  0  0  0  0
  -27.2304  -37.1371   25.8858 H   0  0  0  0  0  0
  -20.9398  -29.8749   21.6868 H   0  0  0  0  0  0
  -26.0176  -38.2847   24.1442 H   0  0  0  0  0  0
  -32.0954  -20.7798   21.5347 H   0  0  0  0  0  0
  -31.9696  -21.1001   19.8120 H   0  0  0  0  0  0
  -32.9295  -19.7472   20.3777 H   0  0  0  0  0  0
  -28.8432  -25.0780   21.6033 H   0  0  0  0  0  0
  -27.2529  -24.8401   20.9921 H   0  0  0  0  0  0
  -28.0782  -23.5649   19.0317 H   0  0  0  0  0  0
  -28.5890  -21.2225   18.9971 H   0  0  0  0  0  0
  -28.7896  -15.5137   20.7595 H   0  0  0  0  0  0
  -30.2964  -23.4760   18.6486 H   0  0  0  0  0  0
  1 25  1  0  0  0
  1 30  2  0  0  0
  1 80  1  0  0  0
  2  3  1  0  0  0
  2 25  1  0  0  0
  2 84  1  0  0  0
  2 85  1  0  0  0
  3  4  1  0  0  0
  3 86  1  0  0  0
  3 87  1  0  0  0
  4  5  1  0  0  0
  4 88  1  0  0  0
  4 89  1  0  0  0
  5  6  1  0  0  0
  5 26  1  0  0  0
  5 90  1  0  0  0
  6 25  1  0  0  0
  6 91  1  0  0  0
  6 92  1  0  0  0
  7  8  2  0  0  0
  7 26  1  0  0  0
  7 29  1  0  0  0
  8  9  1  0  0  0
  8 22  1  0  0  0
  9 10  1  0  0  0
  9 27  2  0  0  0
 10 11  2  0  0  0
 10 15  1  0  0  0
 11 12  1  0  0  0
 11 93  1  0  0  0
 12 13  2  0  0  0
 12 94  1  0  0  0
 13 14  1  0  0  0
 13 31  1  0  0  0
 14 15  2  0  0  0
 14 95  1  0  0  0
 15 96  1  0  0  0
 16 17  2  0  0  0
 16 21  1  0  0  0
 16 31  1  0  0  0
 17 18  1  0  0  0
 17 97  1  0  0  0
 18 19  2  0  0  0
 18 98  1  0  0  0
 19 20  1  0  0  0
 19 24  1  0  0  0
 20 21  2  0  0  0
 20 99  1  0  0  0
 21 23  1  0  0  0
 22 28  1  0  0  0
 22 32  2  0  0  0
 26 27  1  0  0  0
 28100  1  0  0  0
 28101  1  0  0  0
 29102  1  0  0  0
 29103  1  0  0  0
 33 34  1  0  0  0
 33 66  1  0  0  0
 33 70  2  0  0  0
 34 36  1  0  0  0
 34 59  1  0  0  0
 34104  1  0  0  0
 35 44  2  0  0  0
 35 45  1  0  0  0
 35 68  1  0  0  0
 36 56  1  0  0  0
 36105  1  0  0  0
 37 39  1  0  0  0
 37 47  1  0  0  0
 37 66  1  0  0  0
 37106  1  0  0  0
 38 43  2  0  0  0
 38 46  1  0  0  0
 38 47  1  0  0  0
 39 64  1  0  0  0
 39 67  2  0  0  0
 40 52  1  0  0  0
 40 53  2  0  0  0
 40 58  1  0  0  0
 41107  1  0  0  0
 41108  1  0  0  0
 41109  1  0  0  0
 41 48  1  0  0  0
 42 43  1  0  0  0
 42 66  1  0  0  0
 42110  1  0  0  0
 42111  1  0  0  0
 43 44  1  0  0  0
 44112  1  0  0  0
 45 46  2  0  0  0
 45113  1  0  0  0
 46114  1  0  0  0
 47115  1  0  0  0
 47116  1  0  0  0
 48 56  1  0  0  0
 48 65  1  0  0  0
 48117  1  0  0  0
 49 50  1  0  0  0
 49 53  1  0  0  0
 49 64  1  0  0  0
 49118  1  0  0  0
 50 51  1  0  0  0
 50119  1  0  0  0
 50120  1  0  0  0
 51 52  1  0  0  0
 51121  1  0  0  0
 51122  1  0  0  0
 52123  1  0  0  0
 52124  1  0  0  0
 53 54  1  0  0  0
 54 55  2  0  0  0
 54125  1  0  0  0
 55 57  1  0  0  0
 55126  1  0  0  0
 56 69  2  0  0  0
 57 58  2  0  0  0
 57127  1  0  0  0
 58128  1  0  0  0
 59 60  1  0  0  0
 59 61  1  0  0  0
 59 62  1  0  0  0
 60129  1  0  0  0
 60130  1  0  0  0
 60131  1  0  0  0
 61132  1  0  0  0
 61133  1  0  0  0
 61134  1  0  0  0
 62135  1  0  0  0
 62136  1  0  0  0
 62137  1  0  0  0
 63 65  1  0  0  0
 63138  1  0  0  0
 63139  1  0  0  0
 63140  1  0  0  0
 64141  1  0  0  0
 65142  1  0  0  0
 68 76  1  0  0  0
 71 72  2  0  0  0
 71 75  1  0  0  0
 71 78  1  0  0  0
 72 79  1  0  0  0
 72 83  1  0  0  0
 73 78  2  0  0  0
 73 80  1  0  0  0
 73 83  1  0  0  0
 74 77  1  0  0  0
 74 79  1  0  0  0
 74 81  2  0  0  0
 75143  1  0  0  0
 75144  1  0  0  0
 75145  1  0  0  0
 76 77  1  0  0  0
 76146  1  0  0  0
 76147  1  0  0  0
 77 82  1  0  0  0
 77148  1  0  0  0
 79149  1  0  0  0
 80150  1  0  0  0
 82151  1  0  0  0
M  ISO  4   1 100  68 101  76 101  80 100
M  END
> <chiral flag>
0

> <version>
0

> <s_m_source_file>
/data/baiqing/PycharmProjects/Reinvent-master-3.2/result/LINK_invent/BTK/process_docking_weight1_custom_product_contain_oxygen_bond_distance_aromatic_linkinvent_7_9_3/rearranged_h_0188.sdf

> <i_m_source_file_index>
88

> <r_mmod_Potential_Energy-OPLS-2005>
78.0005798339844

> <r_mmod_Stretch_Energy-OPLS-2005>
106.202697753906

> <r_mmod_Bend_Energy-OPLS-2005>
165.594100952148

> <r_mmod_Torsional_Energy-OPLS-2005>
284.378051757812

> <r_mmod_Improper_Torsional_Energy-OPLS-2005>
6.76643943786621

> <r_mmod_Van_der_Waal_Energy-OPLS-2005>
107.833511352539

> <r_mmod_Electrostatic_Energy-OPLS-2005>
-380.396850585938

> <r_mmod_Solvation_Energy-OPLS-2005>
-287.0107421875

> <b_mmod_Minimization_Converged-OPLS-2005>
0

> <r_mmod_RMS_Derivative-OPLS-2005>
1.65938675403595

$$$$
89
                    3D
 Structure written by MMmdl.
154162  0  0  1  0            999 V2000
  -30.6631  -14.5888   20.4698 C   0  0  0  0  0  0
  -30.4202  -12.3510   19.4603 C   0  0  0  0  0  0
  -29.5037  -12.4820   18.2259 C   0  0  0  0  0  0
  -28.0268  -12.3324   18.6395 C   0  0  0  0  0  0
  -27.6480  -13.2177   19.8572 C   0  0  2  0  0  0
  -28.6876  -13.0940   20.9935 C   0  0  0  0  0  0
  -25.2543  -13.8186   20.5694 C   0  0  0  0  0  0
  -24.1814  -13.0455   20.9194 C   0  0  0  0  0  0
  -24.6381  -11.6918   20.8748 C   0  0  0  0  0  0
  -23.9059  -10.4304   21.0401 C   0  0  0  0  0  0
  -24.3614   -9.4210   21.9173 C   0  0  0  0  0  0
  -23.6295   -8.2241   22.0741 C   0  0  0  0  0  0
  -22.4270   -8.0278   21.3538 C   0  0  0  0  0  0
  -21.9909   -9.0257   20.4640 C   0  0  0  0  0  0
  -22.7236  -10.2142   20.3053 C   0  0  0  0  0  0
  -21.6858   -6.0731   22.5276 C   0  0  0  0  0  0
  -21.4014   -6.5627   23.8215 C   0  0  0  0  0  0
  -21.3664   -5.6781   24.9176 C   0  0  0  0  0  0
  -21.6050   -4.3041   24.7223 C   0  0  0  0  0  0
  -21.8821   -3.8135   23.4341 C   0  0  0  0  0  0
  -21.9191   -4.6958   22.3400 C   0  0  0  0  0  0
  -22.7831  -13.5236   21.1862 C   0  0  0  0  0  0
  -22.1663   -4.2156   21.0977 F   0  0  0  0  0  0
  -21.5638   -3.4514   25.7728 F   0  0  0  0  0  0
  -30.0096  -13.3902   20.4255 N   0  0  0  0  0  0
  -26.2949  -12.9364   20.3282 N   0  0  0  0  0  0
  -25.9301  -11.6518   20.5741 N   0  0  0  0  0  0
  -22.0464  -12.8238   22.0421 N   0  0  0  0  0  0
  -25.4275  -15.1911   20.4110 N   0  0  0  0  0  0
  -31.8380  -14.6909   20.1107 O   0  0  0  0  0  0
  -21.6633   -6.8871   21.4230 O   0  0  0  0  0  0
  -22.3503  -14.5535   20.6693 O   0  0  0  0  0  0
  -24.6195  -31.8635   23.2071 C   0  0  0  0  0  0
  -25.9066  -32.4811   23.8377 C   0  0  1  0  0  0
  -27.2250  -27.3590   20.1001 C   0  0  0  0  0  0
  -25.5920  -33.8611   24.2310 N   0  0  0  0  0  0
  -23.4111  -30.4881   21.5489 C   0  0  2  0  0  0
  -24.8555  -28.9443   20.1155 C   0  0  0  0  0  0
  -22.7433  -29.4639   22.4958 C   0  0  0  0  0  0
  -18.0276  -28.1374   22.8490 C   0  0  0  0  0  0
  -24.1485  -36.7294   23.2639 C   0  0  0  0  0  0
  -25.9467  -30.8064   21.3716 C   0  0  0  0  0  0
  -26.0211  -29.4353   20.7151 C   0  0  0  0  0  0
  -27.2056  -28.6493   20.7041 C   0  0  0  0  0  0
  -26.0282  -26.8970   19.5045 C   0  0  0  0  0  0
  -24.8569  -27.6787   19.5097 C   0  0  0  0  0  0
  -23.6241  -29.8220   20.1636 C   0  0  0  0  0  0
  -25.4114  -36.3101   24.0330 C   0  0  1  0  0  0
  -20.5870  -28.3671   23.1295 C   0  0  2  0  0  0
  -20.6765  -26.9406   22.5415 C   0  0  0  0  0  0
  -19.5745  -26.6383   21.5212 C   0  0  0  0  0  0
  -18.1923  -26.7914   22.1623 C   0  0  0  0  0  0
  -19.1526  -28.8836   23.2888 C   0  0  0  0  0  0
  -18.9454  -30.1440   23.8911 C   0  0  0  0  0  0
  -17.6460  -30.6587   24.0557 C   0  0  0  0  0  0
  -25.9044  -34.9471   23.5114 C   0  0  0  0  0  0
  -16.5353  -29.9093   23.6323 C   0  0  0  0  0  0
  -16.7263  -28.6502   23.0355 C   0  0  0  0  0  0
  -26.4498  -31.6602   25.0719 C   0  0  0  0  0  0
  -25.3750  -31.3714   26.1460 C   0  0  0  0  0  0
  -27.0335  -30.3035   24.6113 C   0  0  0  0  0  0
  -27.6065  -32.4337   25.7479 C   0  0  0  0  0  0
  -27.5578  -37.1798   24.8469 C   0  0  0  0  0  0
  -21.4151  -29.3047   22.3695 N   0  0  0  0  0  0
  -26.4291  -37.3791   23.9417 N   0  0  0  0  0  0
  -24.6777  -31.0679   22.1010 N   0  0  0  0  0  0
  -23.4178  -28.8169   23.3007 O   0  0  0  0  0  0
  -28.3823  -26.5793   20.1430 O   0  0  0  0  0  0
  -26.5610  -34.8936   22.4674 O   0  0  0  0  0  0
  -23.5371  -32.1436   23.7421 O   0  0  0  0  0  0
  -29.3126  -20.0074   22.3906 C   0  0  0  0  0  0
  -29.7184  -18.6943   22.0541 C   0  0  0  0  0  0
  -29.7131  -18.3701   20.6793 C   0  0  0  0  0  0
  -28.9779  -20.5491   20.2058 C   0  0  0  0  0  0
  -28.2642  -22.7387   19.0122 C   0  0  0  0  0  0
  -30.3072  -17.0471   20.1073 C   0  0  0  0  0  0
  -28.3614  -23.9202   20.0436 C   0  0  0  0  0  0
  -28.5173  -25.3508   19.3569 C   0  0  0  0  0  0
  -28.9572  -20.9313   21.4734 N   0  0  0  0  0  0
  -29.3223  -19.3181   19.7838 N   0  0  0  0  0  0
  -30.1406  -17.7964   23.0423 N   0  0  0  0  0  0
  -28.5823  -21.4222   19.2037 N   0  0  0  0  0  0
  -29.9113  -15.7089   20.6487 N   0  0  0  0  0  0
  -27.8471  -23.0297   17.8877 O   0  0  0  0  0  0
  -31.4670  -12.4418   19.1647 H   0  0  0  0  0  0
  -30.3238  -11.3579   19.9031 H   0  0  0  0  0  0
  -29.7617  -11.7244   17.4829 H   0  0  0  0  0  0
  -29.6618  -13.4491   17.7455 H   0  0  0  0  0  0
  -27.8680  -11.2824   18.8899 H   0  0  0  0  0  0
  -27.3714  -12.5444   17.7934 H   0  0  0  0  0  0
  -27.6619  -14.2476   19.5016 H   0  0  0  0  0  0
  -28.6752  -12.0890   21.4173 H   0  0  0  0  0  0
  -28.4417  -13.7705   21.8125 H   0  0  0  0  0  0
  -25.2773   -9.5689   22.4731 H   0  0  0  0  0  0
  -24.0023   -7.4623   22.7444 H   0  0  0  0  0  0
  -21.0850   -8.8778   19.8935 H   0  0  0  0  0  0
  -22.3701  -10.9680   19.6157 H   0  0  0  0  0  0
  -21.2002   -7.6134   23.9728 H   0  0  0  0  0  0
  -21.1488   -6.0494   25.9084 H   0  0  0  0  0  0
  -22.0595   -2.7597   23.2836 H   0  0  0  0  0  0
  -22.4078  -11.9938   22.4888 H   0  0  0  0  0  0
  -21.1061  -13.1249   22.2581 H   0  0  0  0  0  0
  -24.6619  -15.8470   20.5232 H   0  0  0  0  0  0
  -26.2762  -15.6300   20.0776 H   0  0  0  0  0  0
  -26.7113  -32.5498   23.1109 H   0  0  0  0  0  0
  -25.0092  -33.9794   25.0465 H   0  0  0  0  0  0
  -22.7014  -31.3065   21.4061 H   0  0  0  0  0  0
  -23.3766  -35.9607   23.3311 H   0  0  0  0  0  0
  -24.3569  -36.8909   22.2052 H   0  0  0  0  0  0
  -23.7225  -37.6490   23.6655 H   0  0  0  0  0  0
  -26.0658  -31.5711   20.6034 H   0  0  0  0  0  0
  -26.8323  -30.8589   21.9937 H   0  0  0  0  0  0
  -28.1034  -29.0229   21.1772 H   0  0  0  0  0  0
  -25.9605  -25.9183   19.0537 H   0  0  0  0  0  0
  -23.9522  -27.2954   19.0586 H   0  0  0  0  0  0
  -23.7478  -30.6011   19.4107 H   0  0  0  0  0  0
  -22.7434  -29.2548   19.8555 H   0  0  0  0  0  0
  -25.1280  -36.1954   25.0821 H   0  0  0  0  0  0
  -20.9961  -28.3248   24.1414 H   0  0  0  0  0  0
  -20.5663  -26.2281   23.3599 H   0  0  0  0  0  0
  -21.6625  -26.7443   22.1201 H   0  0  0  0  0  0
  -19.6922  -25.6299   21.1223 H   0  0  0  0  0  0
  -19.6687  -27.3202   20.6744 H   0  0  0  0  0  0
  -17.4185  -26.6667   21.4029 H   0  0  0  0  0  0
  -18.0338  -26.0046   22.9005 H   0  0  0  0  0  0
  -19.7940  -30.7240   24.2295 H   0  0  0  0  0  0
  -17.5029  -31.6269   24.5153 H   0  0  0  0  0  0
  -15.5359  -30.3005   23.7646 H   0  0  0  0  0  0
  -15.8654  -28.0828   22.7079 H   0  0  0  0  0  0
  -24.5908  -30.7087   25.7790 H   0  0  0  0  0  0
  -24.8966  -32.2877   26.4932 H   0  0  0  0  0  0
  -25.8098  -30.8855   27.0203 H   0  0  0  0  0  0
  -26.2885  -29.6793   24.1171 H   0  0  0  0  0  0
  -27.4104  -29.7284   25.4583 H   0  0  0  0  0  0
  -27.8722  -30.4364   23.9274 H   0  0  0  0  0  0
  -27.2678  -33.3623   26.2092 H   0  0  0  0  0  0
  -28.3858  -32.6933   25.0298 H   0  0  0  0  0  0
  -28.0755  -31.8442   26.5373 H   0  0  0  0  0  0
  -28.2595  -38.0097   24.7517 H   0  0  0  0  0  0
  -28.1076  -36.2625   24.6285 H   0  0  0  0  0  0
  -27.2288  -37.1424   25.8871 H   0  0  0  0  0  0
  -20.9310  -29.8789   21.6928 H   0  0  0  0  0  0
  -26.0176  -38.2856   24.1456 H   0  0  0  0  0  0
  -29.3017  -20.3361   23.4204 H   0  0  0  0  0  0
  -31.3863  -17.1622   20.2088 H   0  0  0  0  0  0
  -30.1237  -17.0250   19.0317 H   0  0  0  0  0  0
  -29.1928  -23.7408   20.7248 H   0  0  0  0  0  0
  -27.4514  -23.9048   20.6437 H   0  0  0  0  0  0
  -27.9166  -25.4309   18.4515 H   0  0  0  0  0  0
  -29.5349  -25.3882   18.9661 H   0  0  0  0  0  0
  -30.3384  -18.1177   23.9882 H   0  0  0  0  0  0
  -30.5931  -16.9186   22.7945 H   0  0  0  0  0  0
  -28.4797  -20.9192   18.3387 H   0  0  0  0  0  0
  -28.9574  -15.6103   20.9586 H   0  0  0  0  0  0
  1 25  1  0  0  0
  1 30  2  0  0  0
  1 83  1  0  0  0
  2  3  1  0  0  0
  2 25  1  0  0  0
  2 85  1  0  0  0
  2 86  1  0  0  0
  3  4  1  0  0  0
  3 87  1  0  0  0
  3 88  1  0  0  0
  4  5  1  0  0  0
  4 89  1  0  0  0
  4 90  1  0  0  0
  5  6  1  0  0  0
  5 26  1  0  0  0
  5 91  1  0  0  0
  6 25  1  0  0  0
  6 92  1  0  0  0
  6 93  1  0  0  0
  7  8  2  0  0  0
  7 26  1  0  0  0
  7 29  1  0  0  0
  8  9  1  0  0  0
  8 22  1  0  0  0
  9 10  1  0  0  0
  9 27  2  0  0  0
 10 11  2  0  0  0
 10 15  1  0  0  0
 11 12  1  0  0  0
 11 94  1  0  0  0
 12 13  2  0  0  0
 12 95  1  0  0  0
 13 14  1  0  0  0
 13 31  1  0  0  0
 14 15  2  0  0  0
 14 96  1  0  0  0
 15 97  1  0  0  0
 16 17  2  0  0  0
 16 21  1  0  0  0
 16 31  1  0  0  0
 17 18  1  0  0  0
 17 98  1  0  0  0
 18 19  2  0  0  0
 18 99  1  0  0  0
 19 20  1  0  0  0
 19 24  1  0  0  0
 20 21  2  0  0  0
 20100  1  0  0  0
 21 23  1  0  0  0
 22 28  1  0  0  0
 22 32  2  0  0  0
 26 27  1  0  0  0
 28101  1  0  0  0
 28102  1  0  0  0
 29103  1  0  0  0
 29104  1  0  0  0
 33 34  1  0  0  0
 33 66  1  0  0  0
 33 70  2  0  0  0
 34 36  1  0  0  0
 34 59  1  0  0  0
 34105  1  0  0  0
 35 44  2  0  0  0
 35 45  1  0  0  0
 35 68  1  0  0  0
 36 56  1  0  0  0
 36106  1  0  0  0
 37 39  1  0  0  0
 37 47  1  0  0  0
 37 66  1  0  0  0
 37107  1  0  0  0
 38 43  2  0  0  0
 38 46  1  0  0  0
 38 47  1  0  0  0
 39 64  1  0  0  0
 39 67  2  0  0  0
 40 52  1  0  0  0
 40 53  2  0  0  0
 40 58  1  0  0  0
 41108  1  0  0  0
 41109  1  0  0  0
 41110  1  0  0  0
 41 48  1  0  0  0
 42 43  1  0  0  0
 42 66  1  0  0  0
 42111  1  0  0  0
 42112  1  0  0  0
 43 44  1  0  0  0
 44113  1  0  0  0
 45 46  2  0  0  0
 45114  1  0  0  0
 46115  1  0  0  0
 47116  1  0  0  0
 47117  1  0  0  0
 48 56  1  0  0  0
 48 65  1  0  0  0
 48118  1  0  0  0
 49 50  1  0  0  0
 49 53  1  0  0  0
 49 64  1  0  0  0
 49119  1  0  0  0
 50 51  1  0  0  0
 50120  1  0  0  0
 50121  1  0  0  0
 51 52  1  0  0  0
 51122  1  0  0  0
 51123  1  0  0  0
 52124  1  0  0  0
 52125  1  0  0  0
 53 54  1  0  0  0
 54 55  2  0  0  0
 54126  1  0  0  0
 55 57  1  0  0  0
 55127  1  0  0  0
 56 69  2  0  0  0
 57 58  2  0  0  0
 57128  1  0  0  0
 58129  1  0  0  0
 59 60  1  0  0  0
 59 61  1  0  0  0
 59 62  1  0  0  0
 60130  1  0  0  0
 60131  1  0  0  0
 60132  1  0  0  0
 61133  1  0  0  0
 61134  1  0  0  0
 61135  1  0  0  0
 62136  1  0  0  0
 62137  1  0  0  0
 62138  1  0  0  0
 63 65  1  0  0  0
 63139  1  0  0  0
 63140  1  0  0  0
 63141  1  0  0  0
 64142  1  0  0  0
 65143  1  0  0  0
 68 78  1  0  0  0
 71 72  2  0  0  0
 71 79  1  0  0  0
 71144  1  0  0  0
 72 73  1  0  0  0
 72 81  1  0  0  0
 73 76  1  0  0  0
 73 80  2  0  0  0
 74 79  2  0  0  0
 74 80  1  0  0  0
 74 82  1  0  0  0
 75 77  1  0  0  0
 75 82  1  0  0  0
 75 84  2  0  0  0
 76 83  1  0  0  0
 76145  1  0  0  0
 76146  1  0  0  0
 77 78  1  0  0  0
 77147  1  0  0  0
 77148  1  0  0  0
 78149  1  0  0  0
 78150  1  0  0  0
 81151  1  0  0  0
 81152  1  0  0  0
 82153  1  0  0  0
 83154  1  0  0  0
M  ISO  4   1 100  68 101  78 101  83 100
M  END
> <chiral flag>
0

> <version>
0

> <s_m_source_file>
/data/baiqing/PycharmProjects/Reinvent-master-3.2/result/LINK_invent/BTK/process_docking_weight1_custom_product_contain_oxygen_bond_distance_aromatic_linkinvent_7_9_3/rearranged_h_0188.sdf

> <i_m_source_file_index>
89

> <r_mmod_Potential_Energy-OPLS-2005>
-473.107269287109

> <r_mmod_Stretch_Energy-OPLS-2005>
60.6374588012695

> <r_mmod_Bend_Energy-OPLS-2005>
182.359237670898

> <r_mmod_Torsional_Energy-OPLS-2005>
209.890289306641

> <r_mmod_Improper_Torsional_Energy-OPLS-2005>
9.3515567779541

> <r_mmod_Van_der_Waal_Energy-OPLS-2005>
156.248199462891

> <r_mmod_Electrostatic_Energy-OPLS-2005>
-880.717956542969

> <r_mmod_Solvation_Energy-OPLS-2005>
-245.764663696289

> <b_mmod_Minimization_Converged-OPLS-2005>
0

> <r_mmod_RMS_Derivative-OPLS-2005>
2.23765301704407

$$$$
90
                    3D
 Structure written by MMmdl.
156164  0  0  1  0            999 V2000
  -30.6967  -14.5519   20.4967 C   0  0  0  0  0  0
  -30.4100  -12.3344   19.4381 C   0  0  0  0  0  0
  -29.4867  -12.4806   18.2100 C   0  0  0  0  0  0
  -28.0136  -12.3287   18.6319 C   0  0  0  0  0  0
  -27.6478  -13.2110   19.8556 C   0  0  2  0  0  0
  -28.6944  -13.0720   20.9843 C   0  0  0  0  0  0
  -25.2557  -13.8166   20.5741 C   0  0  0  0  0  0
  -24.1809  -13.0458   20.9234 C   0  0  0  0  0  0
  -24.6350  -11.6925   20.8745 C   0  0  0  0  0  0
  -23.9032  -10.4299   21.0406 C   0  0  0  0  0  0
  -24.3595   -9.4228   21.9194 C   0  0  0  0  0  0
  -23.6283   -8.2255   22.0777 C   0  0  0  0  0  0
  -22.4277   -8.0268   21.3547 C   0  0  0  0  0  0
  -21.9883   -9.0242   20.4666 C   0  0  0  0  0  0
  -22.7204  -10.2130   20.3062 C   0  0  0  0  0  0
  -21.6860   -6.0730   22.5272 C   0  0  0  0  0  0
  -21.4021   -6.5648   23.8194 C   0  0  0  0  0  0
  -21.3649   -5.6810   24.9163 C   0  0  0  0  0  0
  -21.6022   -4.3068   24.7225 C   0  0  0  0  0  0
  -21.8832   -3.8155   23.4357 C   0  0  0  0  0  0
  -21.9199   -4.6956   22.3401 C   0  0  0  0  0  0
  -22.7827  -13.5264   21.1901 C   0  0  0  0  0  0
  -22.1676   -4.2138   21.0984 F   0  0  0  0  0  0
  -21.5611   -3.4560   25.7744 F   0  0  0  0  0  0
  -30.0164  -13.3691   20.4135 N   0  0  0  0  0  0
  -26.2940  -12.9330   20.3290 N   0  0  0  0  0  0
  -25.9268  -11.6491   20.5727 N   0  0  0  0  0  0
  -22.0468  -12.8203   22.0412 N   0  0  0  0  0  0
  -25.4387  -15.1877   20.4224 N   0  0  0  0  0  0
  -31.8720  -14.6229   20.1289 O   0  0  0  0  0  0
  -21.6652   -6.8863   21.4227 O   0  0  0  0  0  0
  -22.3521  -14.5577   20.6774 O   0  0  0  0  0  0
  -24.6170  -31.8612   23.2036 C   0  0  0  0  0  0
  -25.9044  -32.4777   23.8353 C   0  0  1  0  0  0
  -27.2272  -27.3830   20.1288 C   0  0  0  0  0  0
  -25.5909  -33.8585   24.2284 N   0  0  0  0  0  0
  -23.4054  -30.4831   21.5433 C   0  0  2  0  0  0
  -24.8519  -28.9357   20.1165 C   0  0  0  0  0  0
  -22.7400  -29.4618   22.4955 C   0  0  0  0  0  0
  -18.0275  -28.1352   22.8492 C   0  0  0  0  0  0
  -24.1484  -36.7318   23.2624 C   0  0  0  0  0  0
  -25.9353  -30.8150   21.3600 C   0  0  0  0  0  0
  -26.0124  -29.4439   20.7137 C   0  0  0  0  0  0
  -27.2040  -28.6778   20.7084 C   0  0  0  0  0  0
  -26.0525  -26.8957   19.5206 C   0  0  0  0  0  0
  -24.8697  -27.6647   19.5149 C   0  0  0  0  0  0
  -23.6152  -29.8084   20.1608 C   0  0  0  0  0  0
  -25.4098  -36.3090   24.0324 C   0  0  1  0  0  0
  -20.5853  -28.3630   23.1317 C   0  0  2  0  0  0
  -20.6754  -26.9365   22.5410 C   0  0  0  0  0  0
  -19.5751  -26.6362   21.5191 C   0  0  0  0  0  0
  -18.1922  -26.7898   22.1595 C   0  0  0  0  0  0
  -19.1516  -28.8811   23.2901 C   0  0  0  0  0  0
  -18.9441  -30.1409   23.8906 C   0  0  0  0  0  0
  -17.6445  -30.6568   24.0556 C   0  0  0  0  0  0
  -25.9035  -34.9451   23.5101 C   0  0  0  0  0  0
  -16.5337  -29.9056   23.6334 C   0  0  0  0  0  0
  -16.7253  -28.6476   23.0359 C   0  0  0  0  0  0
  -26.4463  -31.6577   25.0700 C   0  0  0  0  0  0
  -25.3744  -31.3691   26.1470 C   0  0  0  0  0  0
  -27.0278  -30.3013   24.6088 C   0  0  0  0  0  0
  -27.6013  -32.4316   25.7472 C   0  0  0  0  0  0
  -27.5586  -37.1778   24.8441 C   0  0  0  0  0  0
  -21.4124  -29.3019   22.3730 N   0  0  0  0  0  0
  -26.4269  -37.3798   23.9433 N   0  0  0  0  0  0
  -24.6706  -31.0679   22.0943 N   0  0  0  0  0  0
  -23.4161  -28.8139   23.2995 O   0  0  0  0  0  0
  -28.3870  -26.6257   20.1358 O   0  0  0  0  0  0
  -26.5604  -34.8902   22.4662 O   0  0  0  0  0  0
  -23.5355  -32.1363   23.7431 O   0  0  0  0  0  0
  -27.9311  -17.7482   21.1301 C   0  0  0  0  0  0
  -29.2419  -18.0124   20.8039 C   0  0  0  0  0  0
  -28.3161  -20.1323   20.5929 C   0  0  0  0  0  0
  -30.3433  -16.9649   20.7413 C   0  0  0  0  0  0
  -30.2193  -22.7013   19.6731 C   0  0  0  0  0  0
  -27.6822  -25.4388   22.2212 C   0  0  0  0  0  0
  -28.0857  -24.0578   20.0896 C   0  0  0  0  0  0
  -28.9155  -22.7688   20.4811 C   0  0  1  0  0  0
  -28.4395  -25.3670   20.8781 C   0  0  1  0  0  0
  -29.4457  -19.3999   20.5440 N   0  0  0  0  0  0
  -28.1486  -21.5128   20.3627 N   0  0  0  0  0  0
  -29.9562  -15.6566   20.7882 N   0  0  0  0  0  0
  -31.5177  -17.3376   20.6094 O   0  0  0  0  0  0
  -26.9151  -19.1644   21.0302 S   0  0  0  0  0  0
  -31.4570  -12.4041   19.1397 H   0  0  0  0  0  0
  -30.2956  -11.3434   19.8817 H   0  0  0  0  0  0
  -29.7368  -11.7281   17.4596 H   0  0  0  0  0  0
  -29.6375  -13.4521   17.7361 H   0  0  0  0  0  0
  -27.8540  -11.2780   18.8775 H   0  0  0  0  0  0
  -27.3496  -12.5427   17.7930 H   0  0  0  0  0  0
  -27.6665  -14.2423   19.5025 H   0  0  0  0  0  0
  -28.6880  -12.0581   21.3859 H   0  0  0  0  0  0
  -28.4551  -13.7282   21.8203 H   0  0  0  0  0  0
  -25.2759   -9.5705   22.4749 H   0  0  0  0  0  0
  -24.0002   -7.4659   22.7511 H   0  0  0  0  0  0
  -21.0810   -8.8748   19.8988 H   0  0  0  0  0  0
  -22.3674  -10.9648   19.6144 H   0  0  0  0  0  0
  -21.2041   -7.6166   23.9676 H   0  0  0  0  0  0
  -21.1441   -6.0562   25.9047 H   0  0  0  0  0  0
  -22.0626   -2.7619   23.2865 H   0  0  0  0  0  0
  -22.4129  -11.9855   22.4735 H   0  0  0  0  0  0
  -21.1057  -13.1155   22.2639 H   0  0  0  0  0  0
  -24.6988  -15.8577   20.5948 H   0  0  0  0  0  0
  -26.2561  -15.6046   19.9999 H   0  0  0  0  0  0
  -26.7087  -32.5465   23.1087 H   0  0  0  0  0  0
  -25.0113  -33.9748   25.0465 H   0  0  0  0  0  0
  -22.6962  -31.3010   21.3988 H   0  0  0  0  0  0
  -23.3747  -35.9653   23.3263 H   0  0  0  0  0  0
  -24.3587  -36.8964   22.2046 H   0  0  0  0  0  0
  -23.7224  -37.6499   23.6677 H   0  0  0  0  0  0
  -26.0474  -31.5717   20.5820 H   0  0  0  0  0  0
  -26.8245  -30.8714   21.9775 H   0  0  0  0  0  0
  -28.1021  -29.0647   21.1683 H   0  0  0  0  0  0
  -26.0488  -25.9193   19.0574 H   0  0  0  0  0  0
  -23.9768  -27.2667   19.0506 H   0  0  0  0  0  0
  -23.7234  -30.5790   19.3970 H   0  0  0  0  0  0
  -22.7374  -29.2299   19.8677 H   0  0  0  0  0  0
  -25.1253  -36.1937   25.0819 H   0  0  0  0  0  0
  -20.9938  -28.3184   24.1434 H   0  0  0  0  0  0
  -20.5610  -26.2226   23.3583 H   0  0  0  0  0  0
  -21.6623  -26.7385   22.1213 H   0  0  0  0  0  0
  -19.6902  -25.6277   21.1205 H   0  0  0  0  0  0
  -19.6697  -27.3177   20.6731 H   0  0  0  0  0  0
  -17.4177  -26.6643   21.4008 H   0  0  0  0  0  0
  -18.0336  -26.0021   22.8978 H   0  0  0  0  0  0
  -19.7912  -30.7224   24.2264 H   0  0  0  0  0  0
  -17.5005  -31.6243   24.5136 H   0  0  0  0  0  0
  -15.5334  -30.2962   23.7653 H   0  0  0  0  0  0
  -15.8656  -28.0788   22.7088 H   0  0  0  0  0  0
  -24.5926  -30.7009   25.7847 H   0  0  0  0  0  0
  -24.8933  -32.2845   26.4936 H   0  0  0  0  0  0
  -25.8128  -30.8875   27.0226 H   0  0  0  0  0  0
  -26.2814  -29.6809   24.1114 H   0  0  0  0  0  0
  -27.3987  -29.7213   25.4549 H   0  0  0  0  0  0
  -27.8689  -30.4305   23.9267 H   0  0  0  0  0  0
  -27.2606  -33.3603   26.2080 H   0  0  0  0  0  0
  -28.3835  -32.6911   25.0322 H   0  0  0  0  0  0
  -28.0700  -31.8440   26.5385 H   0  0  0  0  0  0
  -28.2512  -38.0159   24.7600 H   0  0  0  0  0  0
  -28.1150  -36.2688   24.6109 H   0  0  0  0  0  0
  -27.2323  -37.1243   25.8838 H   0  0  0  0  0  0
  -20.9256  -29.8808   21.7025 H   0  0  0  0  0  0
  -26.0141  -38.2847   24.1525 H   0  0  0  0  0  0
  -27.4837  -16.8072   21.4111 H   0  0  0  0  0  0
  -30.7493  -23.6542   19.7070 H   0  0  0  0  0  0
  -30.0308  -22.4746   18.6225 H   0  0  0  0  0  0
  -30.8992  -21.9448   20.0681 H   0  0  0  0  0  0
  -27.8033  -24.5121   22.7830 H   0  0  0  0  0  0
  -26.6119  -25.5830   22.0689 H   0  0  0  0  0  0
  -28.0492  -26.2507   22.8503 H   0  0  0  0  0  0
  -27.0194  -23.8725   20.2146 H   0  0  0  0  0  0
  -28.2178  -24.2525   19.0252 H   0  0  0  0  0  0
  -29.1850  -22.8493   21.5348 H   0  0  0  0  0  0
  -29.4939  -25.2780   21.1437 H   0  0  0  0  0  0
  -27.1537  -21.7131   20.3319 H   0  0  0  0  0  0
  -28.9843  -15.5041   20.9800 H   0  0  0  0  0  0
  1 25  1  0  0  0
  1 30  2  0  0  0
  1 82  1  0  0  0
  2  3  1  0  0  0
  2 25  1  0  0  0
  2 85  1  0  0  0
  2 86  1  0  0  0
  3  4  1  0  0  0
  3 87  1  0  0  0
  3 88  1  0  0  0
  4  5  1  0  0  0
  4 89  1  0  0  0
  4 90  1  0  0  0
  5  6  1  0  0  0
  5 26  1  0  0  0
  5 91  1  0  0  0
  6 25  1  0  0  0
  6 92  1  0  0  0
  6 93  1  0  0  0
  7  8  2  0  0  0
  7 26  1  0  0  0
  7 29  1  0  0  0
  8  9  1  0  0  0
  8 22  1  0  0  0
  9 10  1  0  0  0
  9 27  2  0  0  0
 10 11  2  0  0  0
 10 15  1  0  0  0
 11 12  1  0  0  0
 11 94  1  0  0  0
 12 13  2  0  0  0
 12 95  1  0  0  0
 13 14  1  0  0  0
 13 31  1  0  0  0
 14 15  2  0  0  0
 14 96  1  0  0  0
 15 97  1  0  0  0
 16 17  2  0  0  0
 16 21  1  0  0  0
 16 31  1  0  0  0
 17 18  1  0  0  0
 17 98  1  0  0  0
 18 19  2  0  0  0
 18 99  1  0  0  0
 19 20  1  0  0  0
 19 24  1  0  0  0
 20 21  2  0  0  0
 20100  1  0  0  0
 21 23  1  0  0  0
 22 28  1  0  0  0
 22 32  2  0  0  0
 26 27  1  0  0  0
 28101  1  0  0  0
 28102  1  0  0  0
 29103  1  0  0  0
 29104  1  0  0  0
 33 34  1  0  0  0
 33 66  1  0  0  0
 33 70  2  0  0  0
 34 36  1  0  0  0
 34 59  1  0  0  0
 34105  1  0  0  0
 35 44  2  0  0  0
 35 45  1  0  0  0
 35 68  1  0  0  0
 36 56  1  0  0  0
 36106  1  0  0  0
 37 39  1  0  0  0
 37 47  1  0  0  0
 37 66  1  0  0  0
 37107  1  0  0  0
 38 43  2  0  0  0
 38 46  1  0  0  0
 38 47  1  0  0  0
 39 64  1  0  0  0
 39 67  2  0  0  0
 40 52  1  0  0  0
 40 53  2  0  0  0
 40 58  1  0  0  0
 41108  1  0  0  0
 41109  1  0  0  0
 41110  1  0  0  0
 41 48  1  0  0  0
 42 43  1  0  0  0
 42 66  1  0  0  0
 42111  1  0  0  0
 42112  1  0  0  0
 43 44  1  0  0  0
 44113  1  0  0  0
 45 46  2  0  0  0
 45114  1  0  0  0
 46115  1  0  0  0
 47116  1  0  0  0
 47117  1  0  0  0
 48 56  1  0  0  0
 48 65  1  0  0  0
 48118  1  0  0  0
 49 50  1  0  0  0
 49 53  1  0  0  0
 49 64  1  0  0  0
 49119  1  0  0  0
 50 51  1  0  0  0
 50120  1  0  0  0
 50121  1  0  0  0
 51 52  1  0  0  0
 51122  1  0  0  0
 51123  1  0  0  0
 52124  1  0  0  0
 52125  1  0  0  0
 53 54  1  0  0  0
 54 55  2  0  0  0
 54126  1  0  0  0
 55 57  1  0  0  0
 55127  1  0  0  0
 56 69  2  0  0  0
 57 58  2  0  0  0
 57128  1  0  0  0
 58129  1  0  0  0
 59 60  1  0  0  0
 59 61  1  0  0  0
 59 62  1  0  0  0
 60130  1  0  0  0
 60131  1  0  0  0
 60132  1  0  0  0
 61133  1  0  0  0
 61134  1  0  0  0
 61135  1  0  0  0
 62136  1  0  0  0
 62137  1  0  0  0
 62138  1  0  0  0
 63 65  1  0  0  0
 63139  1  0  0  0
 63140  1  0  0  0
 63141  1  0  0  0
 64142  1  0  0  0
 65143  1  0  0  0
 68 79  1  0  0  0
 71 72  2  0  0  0
 71 84  1  0  0  0
 71144  1  0  0  0
 72 74  1  0  0  0
 72 80  1  0  0  0
 73 80  2  0  0  0
 73 81  1  0  0  0
 73 84  1  0  0  0
 74 82  1  0  0  0
 74 83  2  0  0  0
 75145  1  0  0  0
 75146  1  0  0  0
 75147  1  0  0  0
 75 78  1  0  0  0
 76148  1  0  0  0
 76149  1  0  0  0
 76150  1  0  0  0
 76 79  1  0  0  0
 77 78  1  0  0  0
 77 79  1  0  0  0
 77151  1  0  0  0
 77152  1  0  0  0
 78 81  1  0  0  0
 78153  1  0  0  0
 79154  1  0  0  0
 81155  1  0  0  0
 82156  1  0  0  0
M  ISO  4   1 100  68 101  79 101  82 100
M  END
> <chiral flag>
0

> <version>
0

> <s_m_source_file>
/data/baiqing/PycharmProjects/Reinvent-master-3.2/result/LINK_invent/BTK/process_docking_weight1_custom_product_contain_oxygen_bond_distance_aromatic_linkinvent_7_9_3/rearranged_h_0188.sdf

> <i_m_source_file_index>
90

> <r_mmod_Potential_Energy-OPLS-2005>
-178.954956054688

> <r_mmod_Stretch_Energy-OPLS-2005>
51.5112953186035

> <r_mmod_Bend_Energy-OPLS-2005>
120.015182495117

> <r_mmod_Torsional_Energy-OPLS-2005>
238.758010864258

> <r_mmod_Improper_Torsional_Energy-OPLS-2005>
6.0911340713501

> <r_mmod_Van_der_Waal_Energy-OPLS-2005>
120.623748779297

> <r_mmod_Electrostatic_Energy-OPLS-2005>
-490.424957275391

> <r_mmod_Solvation_Energy-OPLS-2005>
-252.869644165039

> <b_mmod_Minimization_Converged-OPLS-2005>
0

> <r_mmod_RMS_Derivative-OPLS-2005>
3.32227444648743

$$$$
91
                    3D
 Structure written by MMmdl.
162170  0  0  1  0            999 V2000
  -30.6925  -14.4778   20.5852 C   0  0  0  0  0  0
  -30.4283  -12.3115   19.4190 C   0  0  0  0  0  0
  -29.4967  -12.5063   18.2037 C   0  0  0  0  0  0
  -28.0182  -12.3605   18.6175 C   0  0  0  0  0  0
  -27.6636  -13.2013   19.8730 C   0  0  2  0  0  0
  -28.7045  -12.9736   20.9934 C   0  0  0  0  0  0
  -25.2611  -13.8143   20.5661 C   0  0  0  0  0  0
  -24.1860  -13.0435   20.9178 C   0  0  0  0  0  0
  -24.6398  -11.6901   20.8732 C   0  0  0  0  0  0
  -23.9060  -10.4294   21.0414 C   0  0  0  0  0  0
  -24.3613   -9.4208   21.9193 C   0  0  0  0  0  0
  -23.6299   -8.2239   22.0750 C   0  0  0  0  0  0
  -22.4284   -8.0282   21.3536 C   0  0  0  0  0  0
  -21.9913   -9.0257   20.4639 C   0  0  0  0  0  0
  -22.7232  -10.2141   20.3056 C   0  0  0  0  0  0
  -21.6853   -6.0740   22.5284 C   0  0  0  0  0  0
  -21.4012   -6.5645   23.8219 C   0  0  0  0  0  0
  -21.3657   -5.6790   24.9175 C   0  0  0  0  0  0
  -21.6048   -4.3054   24.7222 C   0  0  0  0  0  0
  -21.8819   -3.8150   23.4343 C   0  0  0  0  0  0
  -21.9194   -4.6969   22.3400 C   0  0  0  0  0  0
  -22.7879  -13.5244   21.1849 C   0  0  0  0  0  0
  -22.1663   -4.2159   21.0977 F   0  0  0  0  0  0
  -21.5633   -3.4535   25.7732 F   0  0  0  0  0  0
  -30.0379  -13.2891   20.4472 N   0  0  0  0  0  0
  -26.3040  -12.9299   20.3341 N   0  0  0  0  0  0
  -25.9319  -11.6467   20.5743 N   0  0  0  0  0  0
  -22.0507  -12.8238   22.0397 N   0  0  0  0  0  0
  -25.4341  -15.1860   20.4066 N   0  0  0  0  0  0
  -31.8135  -14.6720   20.1028 O   0  0  0  0  0  0
  -21.6636   -6.8886   21.4248 O   0  0  0  0  0  0
  -22.3568  -14.5556   20.6708 O   0  0  0  0  0  0
  -24.6155  -31.8679   23.2077 C   0  0  0  0  0  0
  -25.9036  -32.4828   23.8386 C   0  0  1  0  0  0
  -27.2339  -27.4342   20.1021 C   0  0  0  0  0  0
  -25.5874  -33.8619   24.2323 N   0  0  0  0  0  0
  -23.4028  -30.4907   21.5482 C   0  0  2  0  0  0
  -24.8521  -28.9566   20.1112 C   0  0  0  0  0  0
  -22.7418  -29.4670   22.4981 C   0  0  0  0  0  0
  -18.0283  -28.1371   22.8511 C   0  0  0  0  0  0
  -24.1483  -36.7312   23.2649 C   0  0  0  0  0  0
  -25.9319  -30.8341   21.3594 C   0  0  0  0  0  0
  -26.0129  -29.4696   20.7051 C   0  0  0  0  0  0
  -27.2115  -28.7190   20.6929 C   0  0  0  0  0  0
  -26.0617  -26.9387   19.4944 C   0  0  0  0  0  0
  -24.8716  -27.6895   19.5007 C   0  0  0  0  0  0
  -23.6106  -29.8200   20.1628 C   0  0  0  0  0  0
  -25.4106  -36.3121   24.0354 C   0  0  1  0  0  0
  -20.5871  -28.3657   23.1322 C   0  0  2  0  0  0
  -20.6773  -26.9392   22.5409 C   0  0  0  0  0  0
  -19.5742  -26.6382   21.5209 C   0  0  0  0  0  0
  -18.1924  -26.7928   22.1626 C   0  0  0  0  0  0
  -19.1532  -28.8836   23.2918 C   0  0  0  0  0  0
  -18.9452  -30.1452   23.8919 C   0  0  0  0  0  0
  -17.6451  -30.6586   24.0571 C   0  0  0  0  0  0
  -25.9019  -34.9480   23.5134 C   0  0  0  0  0  0
  -16.5344  -29.9076   23.6332 C   0  0  0  0  0  0
  -16.7275  -28.6487   23.0363 C   0  0  0  0  0  0
  -26.4472  -31.6604   25.0706 C   0  0  0  0  0  0
  -25.3751  -31.3677   26.1464 C   0  0  0  0  0  0
  -27.0301  -30.3056   24.6039 C   0  0  0  0  0  0
  -27.6064  -32.4308   25.7453 C   0  0  0  0  0  0
  -27.5592  -37.1811   24.8477 C   0  0  0  0  0  0
  -21.4144  -29.3030   22.3739 N   0  0  0  0  0  0
  -26.4303  -37.3799   23.9422 N   0  0  0  0  0  0
  -24.6686  -31.0776   22.0970 N   0  0  0  0  0  0
  -23.4197  -28.8209   23.3016 O   0  0  0  0  0  0
  -28.3691  -26.6489   20.1274 O   0  0  0  0  0  0
  -26.5587  -34.8940   22.4703 O   0  0  0  0  0  0
  -23.5343  -32.1418   23.7474 O   0  0  0  0  0  0
  -31.1880  -18.9026   21.1510 C   0  0  0  0  0  0
  -29.8836  -19.3439   21.3163 C   0  0  0  0  0  0
  -30.1380  -16.8637   21.1839 C   0  0  0  0  0  0
  -29.5202  -21.6955   20.7156 C   0  0  0  0  0  0
  -33.2710  -19.5309   19.8660 C   0  0  0  0  0  0
  -33.2917  -19.4622   22.4109 C   0  0  0  0  0  0
  -28.6577  -26.0585   22.4218 C   0  0  0  0  0  0
  -29.1597  -24.3185   20.5779 C   0  0  0  0  0  0
  -32.4520  -19.7282   21.1515 C   0  0  0  0  0  0
  -28.6948  -22.9368   21.1407 C   0  0  2  0  0  0
  -28.2766  -25.5238   21.0267 C   0  0  2  0  0  0
  -31.3068  -17.5008   21.0602 N   0  0  0  0  0  0
  -29.3908  -20.6043   21.4998 N   0  0  0  0  0  0
  -29.9666  -15.4458   21.1801 N   0  0  0  0  0  0
  -30.2346  -21.7213   19.7092 O   0  0  0  0  0  0
  -28.6541  -22.9709   22.4762 F   0  0  0  0  0  0
  -28.7956  -17.9715   21.4393 S   0  0  0  0  0  0
  -31.4729  -12.4162   19.1180 H   0  0  0  0  0  0
  -30.3349  -11.2982   19.8119 H   0  0  0  0  0  0
  -29.7398  -11.7831   17.4249 H   0  0  0  0  0  0
  -29.6614  -13.4917   17.7645 H   0  0  0  0  0  0
  -27.8357  -11.3039   18.8170 H   0  0  0  0  0  0
  -27.3653  -12.6292   17.7867 H   0  0  0  0  0  0
  -27.7094  -14.2493   19.5769 H   0  0  0  0  0  0
  -28.6835  -11.9327   21.3205 H   0  0  0  0  0  0
  -28.4568  -13.5544   21.8826 H   0  0  0  0  0  0
  -25.2772   -9.5683   22.4745 H   0  0  0  0  0  0
  -24.0023   -7.4622   22.7457 H   0  0  0  0  0  0
  -21.0848   -8.8768   19.8936 H   0  0  0  0  0  0
  -22.3709  -10.9673   19.6149 H   0  0  0  0  0  0
  -21.1998   -7.6148   23.9727 H   0  0  0  0  0  0
  -21.1481   -6.0514   25.9081 H   0  0  0  0  0  0
  -22.0601   -2.7614   23.2831 H   0  0  0  0  0  0
  -22.4120  -11.9907   22.4800 H   0  0  0  0  0  0
  -21.1114  -13.1248   22.2568 H   0  0  0  0  0  0
  -24.6629  -15.8377   20.5033 H   0  0  0  0  0  0
  -26.2793  -15.6231   20.0632 H   0  0  0  0  0  0
  -26.7118  -32.5535   23.1176 H   0  0  0  0  0  0
  -25.0075  -33.9788   25.0504 H   0  0  0  0  0  0
  -22.6927  -31.3089   21.4098 H   0  0  0  0  0  0
  -23.3750  -35.9634   23.3314 H   0  0  0  0  0  0
  -24.3593  -36.8894   22.2059 H   0  0  0  0  0  0
  -23.7213  -37.6517   23.6642 H   0  0  0  0  0  0
  -26.0431  -31.5989   20.5895 H   0  0  0  0  0  0
  -26.8221  -30.8899   21.9732 H   0  0  0  0  0  0
  -28.1072  -29.1068   21.1561 H   0  0  0  0  0  0
  -26.0681  -25.9636   19.0274 H   0  0  0  0  0  0
  -23.9794  -27.2871   19.0429 H   0  0  0  0  0  0
  -23.7157  -30.5935   19.4016 H   0  0  0  0  0  0
  -22.7362  -29.2363   19.8693 H   0  0  0  0  0  0
  -25.1283  -36.2001   25.0842 H   0  0  0  0  0  0
  -20.9994  -28.3211   24.1428 H   0  0  0  0  0  0
  -20.5669  -26.2260   23.3594 H   0  0  0  0  0  0
  -21.6649  -26.7415   22.1215 H   0  0  0  0  0  0
  -19.6878  -25.6287   21.1238 H   0  0  0  0  0  0
  -19.6685  -27.3224   20.6765 H   0  0  0  0  0  0
  -17.4203  -26.6719   21.4018 H   0  0  0  0  0  0
  -18.0301  -26.0039   22.8992 H   0  0  0  0  0  0
  -19.7921  -30.7286   24.2277 H   0  0  0  0  0  0
  -17.4989  -31.6262   24.5181 H   0  0  0  0  0  0
  -15.5344  -30.2986   23.7630 H   0  0  0  0  0  0
  -15.8674  -28.0817   22.7054 H   0  0  0  0  0  0
  -24.5927  -30.7024   25.7810 H   0  0  0  0  0  0
  -24.8956  -32.2813   26.4975 H   0  0  0  0  0  0
  -25.8127  -30.8814   27.0192 H   0  0  0  0  0  0
  -26.2816  -29.6795   24.1170 H   0  0  0  0  0  0
  -27.4194  -29.7302   25.4452 H   0  0  0  0  0  0
  -27.8598  -30.4414   23.9097 H   0  0  0  0  0  0
  -27.2716  -33.3616   26.2052 H   0  0  0  0  0  0
  -28.3859  -32.6844   25.0256 H   0  0  0  0  0  0
  -28.0749  -31.8410   26.5341 H   0  0  0  0  0  0
  -28.2635  -38.0092   24.7533 H   0  0  0  0  0  0
  -28.1058  -36.2627   24.6291 H   0  0  0  0  0  0
  -27.2319  -37.1462   25.8884 H   0  0  0  0  0  0
  -20.9291  -29.8750   21.6974 H   0  0  0  0  0  0
  -26.0189  -38.2876   24.1411 H   0  0  0  0  0  0
  -32.6754  -19.7658   18.9835 H   0  0  0  0  0  0
  -33.6201  -18.5020   19.7686 H   0  0  0  0  0  0
  -34.1473  -20.1804   19.8542 H   0  0  0  0  0  0
  -32.7205  -19.6851   23.3124 H   0  0  0  0  0  0
  -34.1880  -20.0825   22.4311 H   0  0  0  0  0  0
  -33.6082  -18.4209   22.4684 H   0  0  0  0  0  0
  -28.6474  -25.2830   23.1841 H   0  0  0  0  0  0
  -27.9576  -26.8258   22.7528 H   0  0  0  0  0  0
  -29.6534  -26.5029   22.4145 H   0  0  0  0  0  0
  -29.1312  -24.2587   19.4887 H   0  0  0  0  0  0
  -30.2033  -24.5011   20.8364 H   0  0  0  0  0  0
  -32.1868  -20.7829   21.1921 H   0  0  0  0  0  0
  -27.6694  -22.7553   20.8151 H   0  0  0  0  0  0
  -27.2459  -25.1654   21.0659 H   0  0  0  0  0  0
  -28.7180  -20.7208   22.2469 H   0  0  0  0  0  0
  -29.0663  -15.1303   21.5058 H   0  0  0  0  0  0
  1 25  1  0  0  0
  1 30  2  0  0  0
  1 84  1  0  0  0
  2  3  1  0  0  0
  2 25  1  0  0  0
  2 88  1  0  0  0
  2 89  1  0  0  0
  3  4  1  0  0  0
  3 90  1  0  0  0
  3 91  1  0  0  0
  4  5  1  0  0  0
  4 92  1  0  0  0
  4 93  1  0  0  0
  5  6  1  0  0  0
  5 26  1  0  0  0
  5 94  1  0  0  0
  6 25  1  0  0  0
  6 95  1  0  0  0
  6 96  1  0  0  0
  7  8  2  0  0  0
  7 26  1  0  0  0
  7 29  1  0  0  0
  8  9  1  0  0  0
  8 22  1  0  0  0
  9 10  1  0  0  0
  9 27  2  0  0  0
 10 11  2  0  0  0
 10 15  1  0  0  0
 11 12  1  0  0  0
 11 97  1  0  0  0
 12 13  2  0  0  0
 12 98  1  0  0  0
 13 14  1  0  0  0
 13 31  1  0  0  0
 14 15  2  0  0  0
 14 99  1  0  0  0
 15100  1  0  0  0
 16 17  2  0  0  0
 16 21  1  0  0  0
 16 31  1  0  0  0
 17 18  1  0  0  0
 17101  1  0  0  0
 18 19  2  0  0  0
 18102  1  0  0  0
 19 20  1  0  0  0
 19 24  1  0  0  0
 20 21  2  0  0  0
 20103  1  0  0  0
 21 23  1  0  0  0
 22 28  1  0  0  0
 22 32  2  0  0  0
 26 27  1  0  0  0
 28104  1  0  0  0
 28105  1  0  0  0
 29106  1  0  0  0
 29107  1  0  0  0
 33 34  1  0  0  0
 33 66  1  0  0  0
 33 70  2  0  0  0
 34 36  1  0  0  0
 34 59  1  0  0  0
 34108  1  0  0  0
 35 44  2  0  0  0
 35 45  1  0  0  0
 35 68  1  0  0  0
 36 56  1  0  0  0
 36109  1  0  0  0
 37 39  1  0  0  0
 37 47  1  0  0  0
 37 66  1  0  0  0
 37110  1  0  0  0
 38 43  2  0  0  0
 38 46  1  0  0  0
 38 47  1  0  0  0
 39 64  1  0  0  0
 39 67  2  0  0  0
 40 52  1  0  0  0
 40 53  2  0  0  0
 40 58  1  0  0  0
 41111  1  0  0  0
 41112  1  0  0  0
 41113  1  0  0  0
 41 48  1  0  0  0
 42 43  1  0  0  0
 42 66  1  0  0  0
 42114  1  0  0  0
 42115  1  0  0  0
 43 44  1  0  0  0
 44116  1  0  0  0
 45 46  2  0  0  0
 45117  1  0  0  0
 46118  1  0  0  0
 47119  1  0  0  0
 47120  1  0  0  0
 48 56  1  0  0  0
 48 65  1  0  0  0
 48121  1  0  0  0
 49 50  1  0  0  0
 49 53  1  0  0  0
 49 64  1  0  0  0
 49122  1  0  0  0
 50 51  1  0  0  0
 50123  1  0  0  0
 50124  1  0  0  0
 51 52  1  0  0  0
 51125  1  0  0  0
 51126  1  0  0  0
 52127  1  0  0  0
 52128  1  0  0  0
 53 54  1  0  0  0
 54 55  2  0  0  0
 54129  1  0  0  0
 55 57  1  0  0  0
 55130  1  0  0  0
 56 69  2  0  0  0
 57 58  2  0  0  0
 57131  1  0  0  0
 58132  1  0  0  0
 59 60  1  0  0  0
 59 61  1  0  0  0
 59 62  1  0  0  0
 60133  1  0  0  0
 60134  1  0  0  0
 60135  1  0  0  0
 61136  1  0  0  0
 61137  1  0  0  0
 61138  1  0  0  0
 62139  1  0  0  0
 62140  1  0  0  0
 62141  1  0  0  0
 63 65  1  0  0  0
 63142  1  0  0  0
 63143  1  0  0  0
 63144  1  0  0  0
 64145  1  0  0  0
 65146  1  0  0  0
 68 81  1  0  0  0
 71 72  2  0  0  0
 71 79  1  0  0  0
 71 82  1  0  0  0
 72 83  1  0  0  0
 72 87  1  0  0  0
 73 82  2  0  0  0
 73 84  1  0  0  0
 73 87  1  0  0  0
 74 80  1  0  0  0
 74 83  1  0  0  0
 74 85  2  0  0  0
 75147  1  0  0  0
 75148  1  0  0  0
 75149  1  0  0  0
 75 79  1  0  0  0
 76 79  1  0  0  0
 76150  1  0  0  0
 76151  1  0  0  0
 76152  1  0  0  0
 77153  1  0  0  0
 77154  1  0  0  0
 77155  1  0  0  0
 77 81  1  0  0  0
 78 80  1  0  0  0
 78 81  1  0  0  0
 78156  1  0  0  0
 78157  1  0  0  0
 79158  1  0  0  0
 80 86  1  0  0  0
 80159  1  0  0  0
 81160  1  0  0  0
 83161  1  0  0  0
 84162  1  0  0  0
M  ISO  4   1 100  68 101  81 101  84 100
M  END
> <chiral flag>
0

> <version>
0

> <s_m_source_file>
/data/baiqing/PycharmProjects/Reinvent-master-3.2/result/LINK_invent/BTK/process_docking_weight1_custom_product_contain_oxygen_bond_distance_aromatic_linkinvent_7_9_3/rearranged_h_0188.sdf

> <i_m_source_file_index>
91

> <r_mmod_Potential_Energy-OPLS-2005>
-152.543472290039

> <r_mmod_Stretch_Energy-OPLS-2005>
39.9400291442871

> <r_mmod_Bend_Energy-OPLS-2005>
109.72631072998

> <r_mmod_Torsional_Energy-OPLS-2005>
240.340316772461

> <r_mmod_Improper_Torsional_Energy-OPLS-2005>
4.23533630371094

> <r_mmod_Van_der_Waal_Energy-OPLS-2005>
124.606964111328

> <r_mmod_Electrostatic_Energy-OPLS-2005>
-448.384246826172

> <r_mmod_Solvation_Energy-OPLS-2005>
-236.446899414062

> <b_mmod_Minimization_Converged-OPLS-2005>
0

> <r_mmod_RMS_Derivative-OPLS-2005>
2.46061038970947

$$$$
92
                    3D
 Structure written by MMmdl.
160168  0  0  1  0            999 V2000
  -30.6025  -14.7565   20.5119 C   0  0  0  0  0  0
  -30.4394  -12.4801   19.4759 C   0  0  0  0  0  0
  -29.5137  -12.5121   18.2382 C   0  0  0  0  0  0
  -28.0410  -12.3289   18.6517 C   0  0  0  0  0  0
  -27.6419  -13.2295   19.8505 C   0  0  2  0  0  0
  -28.6828  -13.1617   20.9884 C   0  0  0  0  0  0
  -25.2512  -13.8180   20.5668 C   0  0  0  0  0  0
  -24.1803  -13.0429   20.9200 C   0  0  0  0  0  0
  -24.6397  -11.6912   20.8745 C   0  0  0  0  0  0
  -23.9073  -10.4294   21.0413 C   0  0  0  0  0  0
  -24.3619   -9.4208   21.9194 C   0  0  0  0  0  0
  -23.6286   -8.2240   22.0764 C   0  0  0  0  0  0
  -22.4271   -8.0281   21.3548 C   0  0  0  0  0  0
  -21.9914   -9.0255   20.4652 C   0  0  0  0  0  0
  -22.7246  -10.2132   20.3062 C   0  0  0  0  0  0
  -21.6841   -6.0729   22.5273 C   0  0  0  0  0  0
  -21.4017   -6.5639   23.8199 C   0  0  0  0  0  0
  -21.3669   -5.6795   24.9169 C   0  0  0  0  0  0
  -21.6025   -4.3053   24.7220 C   0  0  0  0  0  0
  -21.8830   -3.8146   23.4345 C   0  0  0  0  0  0
  -21.9199   -4.6963   22.3400 C   0  0  0  0  0  0
  -22.7831  -13.5226   21.1832 C   0  0  0  0  0  0
  -22.1661   -4.2147   21.0975 F   0  0  0  0  0  0
  -21.5638   -3.4537   25.7739 F   0  0  0  0  0  0
  -29.9801  -13.5324   20.4134 N   0  0  0  0  0  0
  -26.2932  -12.9372   20.3257 N   0  0  0  0  0  0
  -25.9328  -11.6518   20.5747 N   0  0  0  0  0  0
  -22.0467  -12.8221   22.0401 N   0  0  0  0  0  0
  -25.4173  -15.1907   20.4064 N   0  0  0  0  0  0
  -31.7901  -14.8475   20.1783 O   0  0  0  0  0  0
  -21.6638   -6.8880   21.4234 O   0  0  0  0  0  0
  -22.3520  -14.5522   20.6677 O   0  0  0  0  0  0
  -24.6309  -31.8551   23.1963 C   0  0  0  0  0  0
  -25.9131  -32.4755   23.8336 C   0  0  1  0  0  0
  -27.2082  -27.2220   20.1779 C   0  0  0  0  0  0
  -25.5922  -33.8553   24.2270 N   0  0  0  0  0  0
  -23.4305  -30.4766   21.5381 C   0  0  2  0  0  0
  -24.8815  -28.9212   20.1049 C   0  0  0  0  0  0
  -22.7505  -29.4604   22.4865 C   0  0  0  0  0  0
  -18.0321  -28.1384   22.8479 C   0  0  0  0  0  0
  -24.1470  -36.7274   23.2644 C   0  0  0  0  0  0
  -25.9758  -30.7588   21.3792 C   0  0  0  0  0  0
  -26.0497  -29.3766   20.7302 C   0  0  0  0  0  0
  -27.2134  -28.5378   20.7595 C   0  0  0  0  0  0
  -26.0258  -26.8517   19.4958 C   0  0  0  0  0  0
  -24.8765  -27.6686   19.4739 C   0  0  0  0  0  0
  -23.6523  -29.8111   20.1533 C   0  0  0  0  0  0
  -25.4094  -36.3053   24.0333 C   0  0  1  0  0  0
  -20.5930  -28.3701   23.1229 C   0  0  2  0  0  0
  -20.6781  -26.9404   22.5390 C   0  0  0  0  0  0
  -19.5746  -26.6377   21.5189 C   0  0  0  0  0  0
  -18.1938  -26.7923   22.1620 C   0  0  0  0  0  0
  -19.1574  -28.8854   23.2852 C   0  0  0  0  0  0
  -18.9492  -30.1460   23.8873 C   0  0  0  0  0  0
  -17.6486  -30.6573   24.0575 C   0  0  0  0  0  0
  -25.9063  -34.9435   23.5104 C   0  0  0  0  0  0
  -16.5372  -29.9084   23.6326 C   0  0  0  0  0  0
  -16.7310  -28.6513   23.0337 C   0  0  0  0  0  0
  -26.4499  -31.6578   25.0721 C   0  0  0  0  0  0
  -25.3703  -31.3738   26.1434 C   0  0  0  0  0  0
  -27.0390  -30.2995   24.6243 C   0  0  0  0  0  0
  -27.6077  -32.4308   25.7471 C   0  0  0  0  0  0
  -27.5555  -37.1786   24.8476 C   0  0  0  0  0  0
  -21.4216  -29.3042   22.3583 N   0  0  0  0  0  0
  -26.4278  -37.3743   23.9411 N   0  0  0  0  0  0
  -24.6983  -31.0495   22.0952 N   0  0  0  0  0  0
  -23.4188  -28.8137   23.2966 O   0  0  0  0  0  0
  -28.2758  -26.2924   20.3144 O   0  0  0  0  0  0
  -26.5630  -34.8899   22.4662 O   0  0  0  0  0  0
  -23.5449  -32.1404   23.7225 O   0  0  0  0  0  0
  -31.3339  -19.5056   21.3180 C   0  0  0  0  0  0
  -29.9745  -19.6954   21.1407 C   0  0  0  0  0  0
  -30.1953  -17.3157   20.8823 C   0  0  0  0  0  0
  -28.9677  -21.7648   19.0164 C   0  0  0  0  0  0
  -28.4570  -23.7324   22.4165 C   0  0  0  0  0  0
  -30.3619  -23.9860   20.8308 C   0  0  0  0  0  0
  -28.0486  -24.7996   20.1318 C   0  0  0  0  0  0
  -28.6620  -22.0459   20.4946 C   0  0  2  0  0  0
  -32.3853  -20.5255   21.6338 C   0  0  0  0  0  0
  -28.8708  -23.6286   20.9328 C   0  0  0  0  0  0
  -29.3463  -18.4102   20.8860 N   0  0  0  0  0  0
  -29.3343  -21.0045   21.3682 N   0  0  0  0  0  0
  -29.8202  -15.8834   20.7606 N   0  0  0  0  0  0
  -32.7449  -21.1976   20.5401 F   0  0  0  0  0  0
  -31.9610  -21.4093   22.5368 F   0  0  0  0  0  0
  -33.4881  -19.9711   22.1412 F   0  0  0  0  0  0
  -31.8479  -17.8318   21.1474 S   0  0  0  0  0  0
  -31.4777  -12.6212   19.1684 H   0  0  0  0  0  0
  -30.4041  -11.5036   19.9608 H   0  0  0  0  0  0
  -29.8037  -11.7327   17.5314 H   0  0  0  0  0  0
  -29.6318  -13.4616   17.7126 H   0  0  0  0  0  0
  -27.9035  -11.2806   18.9172 H   0  0  0  0  0  0
  -27.3822  -12.5141   17.8030 H   0  0  0  0  0  0
  -27.6357  -14.2507   19.4673 H   0  0  0  0  0  0
  -28.7303  -12.1589   21.4127 H   0  0  0  0  0  0
  -28.4092  -13.8274   21.8078 H   0  0  0  0  0  0
  -25.2764   -9.5677   22.4769 H   0  0  0  0  0  0
  -23.9988   -7.4641   22.7496 H   0  0  0  0  0  0
  -21.0835   -8.8774   19.8965 H   0  0  0  0  0  0
  -22.3698  -10.9671   19.6170 H   0  0  0  0  0  0
  -21.1999   -7.6145   23.9701 H   0  0  0  0  0  0
  -21.1478   -6.0526   25.9065 H   0  0  0  0  0  0
  -22.0603   -2.7609   23.2842 H   0  0  0  0  0  0
  -22.4076  -11.9884   22.4804 H   0  0  0  0  0  0
  -21.1090  -13.1261   22.2592 H   0  0  0  0  0  0
  -24.6374  -15.8333   20.4980 H   0  0  0  0  0  0
  -26.2467  -15.6307   20.0278 H   0  0  0  0  0  0
  -26.7190  -32.5412   23.1069 H   0  0  0  0  0  0
  -25.0014  -33.9693   25.0389 H   0  0  0  0  0  0
  -22.7269  -31.2993   21.3923 H   0  0  0  0  0  0
  -23.3735  -35.9608   23.3330 H   0  0  0  0  0  0
  -24.3585  -36.8887   22.2062 H   0  0  0  0  0  0
  -23.7235  -37.6481   23.6668 H   0  0  0  0  0  0
  -26.1068  -31.5115   20.6006 H   0  0  0  0  0  0
  -26.8551  -30.8214   22.0077 H   0  0  0  0  0  0
  -28.0938  -28.8678   21.2927 H   0  0  0  0  0  0
  -25.9531  -25.8944   19.0014 H   0  0  0  0  0  0
  -23.9832  -27.3171   18.9747 H   0  0  0  0  0  0
  -23.7769  -30.5898   19.4007 H   0  0  0  0  0  0
  -22.7681  -29.2477   19.8457 H   0  0  0  0  0  0
  -25.1267  -36.1908   25.0833 H   0  0  0  0  0  0
  -21.0056  -28.3287   24.1337 H   0  0  0  0  0  0
  -20.5655  -26.2315   23.3608 H   0  0  0  0  0  0
  -21.6642  -26.7389   22.1183 H   0  0  0  0  0  0
  -19.6898  -25.6288   21.1203 H   0  0  0  0  0  0
  -19.6676  -27.3183   20.6702 H   0  0  0  0  0  0
  -17.4197  -26.6676   21.4037 H   0  0  0  0  0  0
  -18.0368  -26.0074   22.9021 H   0  0  0  0  0  0
  -19.7973  -30.7289   24.2212 H   0  0  0  0  0  0
  -17.5053  -31.6248   24.5165 H   0  0  0  0  0  0
  -15.5388  -30.2969   23.7668 H   0  0  0  0  0  0
  -15.8722  -28.0840   22.7021 H   0  0  0  0  0  0
  -24.5905  -30.7061   25.7723 H   0  0  0  0  0  0
  -24.8870  -32.2935   26.4755 H   0  0  0  0  0  0
  -25.7991  -30.8968   27.0267 H   0  0  0  0  0  0
  -26.3008  -29.6687   24.1268 H   0  0  0  0  0  0
  -27.4088  -29.7287   25.4779 H   0  0  0  0  0  0
  -27.8861  -30.4280   23.9491 H   0  0  0  0  0  0
  -27.2739  -33.3649   26.1992 H   0  0  0  0  0  0
  -28.3899  -32.6802   25.0284 H   0  0  0  0  0  0
  -28.0739  -31.8477   26.5431 H   0  0  0  0  0  0
  -28.2571  -38.0073   24.7493 H   0  0  0  0  0  0
  -28.1050  -36.2614   24.6334 H   0  0  0  0  0  0
  -27.2300  -37.1463   25.8886 H   0  0  0  0  0  0
  -20.9367  -29.8828   21.6867 H   0  0  0  0  0  0
  -26.0162  -38.2816   24.1423 H   0  0  0  0  0  0
  -28.3900  -22.4139   18.3592 H   0  0  0  0  0  0
  -28.7020  -20.7396   18.7533 H   0  0  0  0  0  0
  -30.0250  -21.8992   18.7891 H   0  0  0  0  0  0
  -28.5087  -24.7601   22.7758 H   0  0  0  0  0  0
  -29.0920  -23.1326   23.0696 H   0  0  0  0  0  0
  -27.4319  -23.3914   22.5662 H   0  0  0  0  0  0
  -30.5482  -24.9983   21.1885 H   0  0  0  0  0  0
  -30.7146  -23.9298   19.8017 H   0  0  0  0  0  0
  -30.9742  -23.3191   21.4305 H   0  0  0  0  0  0
  -28.2062  -24.6220   19.0697 H   0  0  0  0  0  0
  -27.0004  -24.5721   20.3205 H   0  0  0  0  0  0
  -27.5966  -21.8467   20.6142 H   0  0  0  0  0  0
  -29.8499  -21.5164   22.0773 H   0  0  0  0  0  0
  -28.8414  -15.6877   20.8943 H   0  0  0  0  0  0
  1 25  1  0  0  0
  1 30  2  0  0  0
  1 83  1  0  0  0
  2  3  1  0  0  0
  2 25  1  0  0  0
  2 88  1  0  0  0
  2 89  1  0  0  0
  3  4  1  0  0  0
  3 90  1  0  0  0
  3 91  1  0  0  0
  4  5  1  0  0  0
  4 92  1  0  0  0
  4 93  1  0  0  0
  5  6  1  0  0  0
  5 26  1  0  0  0
  5 94  1  0  0  0
  6 25  1  0  0  0
  6 95  1  0  0  0
  6 96  1  0  0  0
  7  8  2  0  0  0
  7 26  1  0  0  0
  7 29  1  0  0  0
  8  9  1  0  0  0
  8 22  1  0  0  0
  9 10  1  0  0  0
  9 27  2  0  0  0
 10 11  2  0  0  0
 10 15  1  0  0  0
 11 12  1  0  0  0
 11 97  1  0  0  0
 12 13  2  0  0  0
 12 98  1  0  0  0
 13 14  1  0  0  0
 13 31  1  0  0  0
 14 15  2  0  0  0
 14 99  1  0  0  0
 15100  1  0  0  0
 16 17  2  0  0  0
 16 21  1  0  0  0
 16 31  1  0  0  0
 17 18  1  0  0  0
 17101  1  0  0  0
 18 19  2  0  0  0
 18102  1  0  0  0
 19 20  1  0  0  0
 19 24  1  0  0  0
 20 21  2  0  0  0
 20103  1  0  0  0
 21 23  1  0  0  0
 22 28  1  0  0  0
 22 32  2  0  0  0
 26 27  1  0  0  0
 28104  1  0  0  0
 28105  1  0  0  0
 29106  1  0  0  0
 29107  1  0  0  0
 33 34  1  0  0  0
 33 66  1  0  0  0
 33 70  2  0  0  0
 34 36  1  0  0  0
 34 59  1  0  0  0
 34108  1  0  0  0
 35 44  2  0  0  0
 35 45  1  0  0  0
 35 68  1  0  0  0
 36 56  1  0  0  0
 36109  1  0  0  0
 37 39  1  0  0  0
 37 47  1  0  0  0
 37 66  1  0  0  0
 37110  1  0  0  0
 38 43  2  0  0  0
 38 46  1  0  0  0
 38 47  1  0  0  0
 39 64  1  0  0  0
 39 67  2  0  0  0
 40 52  1  0  0  0
 40 53  2  0  0  0
 40 58  1  0  0  0
 41111  1  0  0  0
 41112  1  0  0  0
 41113  1  0  0  0
 41 48  1  0  0  0
 42 43  1  0  0  0
 42 66  1  0  0  0
 42114  1  0  0  0
 42115  1  0  0  0
 43 44  1  0  0  0
 44116  1  0  0  0
 45 46  2  0  0  0
 45117  1  0  0  0
 46118  1  0  0  0
 47119  1  0  0  0
 47120  1  0  0  0
 48 56  1  0  0  0
 48 65  1  0  0  0
 48121  1  0  0  0
 49 50  1  0  0  0
 49 53  1  0  0  0
 49 64  1  0  0  0
 49122  1  0  0  0
 50 51  1  0  0  0
 50123  1  0  0  0
 50124  1  0  0  0
 51 52  1  0  0  0
 51125  1  0  0  0
 51126  1  0  0  0
 52127  1  0  0  0
 52128  1  0  0  0
 53 54  1  0  0  0
 54 55  2  0  0  0
 54129  1  0  0  0
 55 57  1  0  0  0
 55130  1  0  0  0
 56 69  2  0  0  0
 57 58  2  0  0  0
 57131  1  0  0  0
 58132  1  0  0  0
 59 60  1  0  0  0
 59 61  1  0  0  0
 59 62  1  0  0  0
 60133  1  0  0  0
 60134  1  0  0  0
 60135  1  0  0  0
 61136  1  0  0  0
 61137  1  0  0  0
 61138  1  0  0  0
 62139  1  0  0  0
 62140  1  0  0  0
 62141  1  0  0  0
 63 65  1  0  0  0
 63142  1  0  0  0
 63143  1  0  0  0
 63144  1  0  0  0
 64145  1  0  0  0
 65146  1  0  0  0
 68 77  1  0  0  0
 71 72  2  0  0  0
 71 79  1  0  0  0
 71 87  1  0  0  0
 72 81  1  0  0  0
 72 82  1  0  0  0
 73 81  2  0  0  0
 73 83  1  0  0  0
 73 87  1  0  0  0
 74147  1  0  0  0
 74148  1  0  0  0
 74149  1  0  0  0
 74 78  1  0  0  0
 75150  1  0  0  0
 75151  1  0  0  0
 75152  1  0  0  0
 75 80  1  0  0  0
 76 80  1  0  0  0
 76153  1  0  0  0
 76154  1  0  0  0
 76155  1  0  0  0
 77 80  1  0  0  0
 77156  1  0  0  0
 77157  1  0  0  0
 78 80  1  0  0  0
 78 82  1  0  0  0
 78158  1  0  0  0
 79 84  1  0  0  0
 79 85  1  0  0  0
 79 86  1  0  0  0
 82159  1  0  0  0
 83160  1  0  0  0
M  ISO  4   1 100  68 101  77 101  83 100
M  END
> <chiral flag>
0

> <version>
0

> <s_m_source_file>
/data/baiqing/PycharmProjects/Reinvent-master-3.2/result/LINK_invent/BTK/process_docking_weight1_custom_product_contain_oxygen_bond_distance_aromatic_linkinvent_7_9_3/rearranged_h_0188.sdf

> <i_m_source_file_index>
92

> <r_mmod_Potential_Energy-OPLS-2005>
164.632431030273

> <r_mmod_Stretch_Energy-OPLS-2005>
140.227462768555

> <r_mmod_Bend_Energy-OPLS-2005>
195.569641113281

> <r_mmod_Torsional_Energy-OPLS-2005>
251.269393920898

> <r_mmod_Improper_Torsional_Energy-OPLS-2005>
9.42844295501709

> <r_mmod_Van_der_Waal_Energy-OPLS-2005>
119.143920898438

> <r_mmod_Electrostatic_Energy-OPLS-2005>
-457.33349609375

> <r_mmod_Solvation_Energy-OPLS-2005>
-199.622512817383

> <b_mmod_Minimization_Converged-OPLS-2005>
0

> <r_mmod_RMS_Derivative-OPLS-2005>
4.15903615951538

$$$$
93
                    3D
 Structure written by MMmdl.
155163  0  0  1  0            999 V2000
  -30.6079  -14.7614   20.4452 C   0  0  0  0  0  0
  -30.4392  -12.4719   19.4546 C   0  0  0  0  0  0
  -29.5030  -12.4862   18.2252 C   0  0  0  0  0  0
  -28.0364  -12.2959   18.6600 C   0  0  0  0  0  0
  -27.6389  -13.2204   19.8427 C   0  0  2  0  0  0
  -28.6911  -13.1847   20.9720 C   0  0  0  0  0  0
  -25.2533  -13.8161   20.5733 C   0  0  0  0  0  0
  -24.1801  -13.0418   20.9222 C   0  0  0  0  0  0
  -24.6375  -11.6895   20.8748 C   0  0  0  0  0  0
  -23.9026  -10.4284   21.0407 C   0  0  0  0  0  0
  -24.3594   -9.4211   21.9183 C   0  0  0  0  0  0
  -23.6285   -8.2239   22.0742 C   0  0  0  0  0  0
  -22.4265   -8.0265   21.3542 C   0  0  0  0  0  0
  -21.9898   -9.0227   20.4640 C   0  0  0  0  0  0
  -22.7201  -10.2119   20.3056 C   0  0  0  0  0  0
  -21.6852   -6.0732   22.5274 C   0  0  0  0  0  0
  -21.4014   -6.5633   23.8206 C   0  0  0  0  0  0
  -21.3656   -5.6789   24.9168 C   0  0  0  0  0  0
  -21.6057   -4.3052   24.7222 C   0  0  0  0  0  0
  -21.8819   -3.8141   23.4338 C   0  0  0  0  0  0
  -21.9196   -4.6961   22.3396 C   0  0  0  0  0  0
  -22.7840  -13.5238   21.1866 C   0  0  0  0  0  0
  -22.1671   -4.2142   21.0981 F   0  0  0  0  0  0
  -21.5629   -3.4535   25.7740 F   0  0  0  0  0  0
  -29.9784  -13.5417   20.3645 N   0  0  0  0  0  0
  -26.2933  -12.9342   20.3289 N   0  0  0  0  0  0
  -25.9307  -11.6496   20.5758 N   0  0  0  0  0  0
  -22.0485  -12.8213   22.0411 N   0  0  0  0  0  0
  -25.4231  -15.1883   20.4198 N   0  0  0  0  0  0
  -31.8203  -14.8382   20.2160 O   0  0  0  0  0  0
  -21.6639   -6.8861   21.4234 O   0  0  0  0  0  0
  -22.3542  -14.5553   20.6714 O   0  0  0  0  0  0
  -24.6310  -31.8541   23.1998 C   0  0  0  0  0  0
  -25.9153  -32.4734   23.8314 C   0  0  1  0  0  0
  -27.2141  -27.2476   20.1342 C   0  0  0  0  0  0
  -25.5953  -33.8535   24.2254 N   0  0  0  0  0  0
  -23.4290  -30.4791   21.5416 C   0  0  2  0  0  0
  -24.8757  -28.9254   20.1098 C   0  0  0  0  0  0
  -22.7524  -29.4595   22.4894 C   0  0  0  0  0  0
  -18.0295  -28.1356   22.8454 C   0  0  0  0  0  0
  -24.1485  -36.7278   23.2641 C   0  0  0  0  0  0
  -25.9746  -30.7641   21.3814 C   0  0  0  0  0  0
  -26.0483  -29.3870   20.7232 C   0  0  0  0  0  0
  -27.2218  -28.5614   20.7213 C   0  0  0  0  0  0
  -26.0231  -26.8694   19.4734 C   0  0  0  0  0  0
  -24.8701  -27.6759   19.4752 C   0  0  0  0  0  0
  -23.6479  -29.8158   20.1560 C   0  0  0  0  0  0
  -25.4121  -36.3046   24.0311 C   0  0  1  0  0  0
  -20.5899  -28.3674   23.1244 C   0  0  2  0  0  0
  -20.6774  -26.9379   22.5392 C   0  0  0  0  0  0
  -19.5749  -26.6370   21.5184 C   0  0  0  0  0  0
  -18.1936  -26.7900   22.1598 C   0  0  0  0  0  0
  -19.1548  -28.8834   23.2836 C   0  0  0  0  0  0
  -18.9477  -30.1443   23.8849 C   0  0  0  0  0  0
  -17.6470  -30.6559   24.0548 C   0  0  0  0  0  0
  -25.9059  -34.9415   23.5082 C   0  0  0  0  0  0
  -16.5358  -29.9065   23.6311 C   0  0  0  0  0  0
  -16.7283  -28.6486   23.0328 C   0  0  0  0  0  0
  -26.4527  -31.6562   25.0695 C   0  0  0  0  0  0
  -25.3755  -31.3739   26.1423 C   0  0  0  0  0  0
  -27.0371  -30.2965   24.6216 C   0  0  0  0  0  0
  -27.6054  -32.4320   25.7467 C   0  0  0  0  0  0
  -27.5580  -37.1789   24.8469 C   0  0  0  0  0  0
  -21.4227  -29.3042   22.3662 N   0  0  0  0  0  0
  -26.4298  -37.3754   23.9414 N   0  0  0  0  0  0
  -24.6983  -31.0505   22.0984 N   0  0  0  0  0  0
  -23.4231  -28.8104   23.2959 O   0  0  0  0  0  0
  -28.3014  -26.3390   20.1719 O   0  0  0  0  0  0
  -26.5616  -34.8900   22.4646 O   0  0  0  0  0  0
  -23.5462  -32.1360   23.7324 O   0  0  0  0  0  0
  -30.8521  -17.4080   22.0787 C   0  0  0  0  0  0
  -30.6791  -19.8455   22.0022 C   0  0  0  0  0  0
  -31.1336  -18.6619   22.6300 C   0  0  0  0  0  0
  -30.1110  -17.2993   20.8931 C   0  0  0  0  0  0
  -29.8783  -19.7642   20.8273 C   0  0  0  0  0  0
  -28.8805  -22.1955   20.6803 C   0  0  0  0  0  0
  -28.0345  -24.8716   20.4502 C   0  0  0  0  0  0
  -29.1254  -23.7050   20.1373 C   0  0  2  0  0  0
  -29.6313  -18.4829   20.3079 N   0  0  0  0  0  0
  -31.0993  -21.0746   22.5331 N   0  0  0  0  0  0
  -29.5443  -21.0716   20.1806 N   0  0  0  0  0  0
  -29.8167  -15.9079   20.4689 N   0  0  0  0  0  0
  -29.4800  -23.7217   18.7039 N   0  3  0  0  0  0
  -28.0234  -22.0528   21.5546 O   0  0  0  0  0  0
  -32.0868  -18.7385   24.0744 Cl  0  0  0  0  0  0
  -31.4772  -12.6168   19.1428 H   0  0  0  0  0  0
  -30.4063  -11.5064   19.9601 H   0  0  0  0  0  0
  -29.7921  -11.6987   17.5262 H   0  0  0  0  0  0
  -29.6066  -13.4290   17.6817 H   0  0  0  0  0  0
  -27.9230  -11.2514   18.9583 H   0  0  0  0  0  0
  -27.3632  -12.4475   17.8141 H   0  0  0  0  0  0
  -27.6216  -14.2301   19.4326 H   0  0  0  0  0  0
  -28.7449  -12.1987   21.4345 H   0  0  0  0  0  0
  -28.4296  -13.8846   21.7685 H   0  0  0  0  0  0
  -25.2729   -9.5701   22.4774 H   0  0  0  0  0  0
  -23.9994   -7.4639   22.7468 H   0  0  0  0  0  0
  -21.0833   -8.8747   19.8949 H   0  0  0  0  0  0
  -22.3651  -10.9665   19.6182 H   0  0  0  0  0  0
  -21.2007   -7.6136   23.9706 H   0  0  0  0  0  0
  -21.1481   -6.0519   25.9077 H   0  0  0  0  0  0
  -22.0602   -2.7601   23.2845 H   0  0  0  0  0  0
  -22.4092  -11.9855   22.4766 H   0  0  0  0  0  0
  -21.1115  -13.1244   22.2636 H   0  0  0  0  0  0
  -24.6543  -15.8372   20.5433 H   0  0  0  0  0  0
  -26.2665  -15.6388   20.0929 H   0  0  0  0  0  0
  -26.7204  -32.5349   23.1040 H   0  0  0  0  0  0
  -25.0098  -33.9674   25.0401 H   0  0  0  0  0  0
  -22.7258  -31.3041   21.4010 H   0  0  0  0  0  0
  -23.3720  -35.9632   23.3298 H   0  0  0  0  0  0
  -24.3606  -36.8919   22.2059 H   0  0  0  0  0  0
  -23.7265  -37.6492   23.6673 H   0  0  0  0  0  0
  -26.1129  -31.5278   20.6131 H   0  0  0  0  0  0
  -26.8545  -30.8173   22.0101 H   0  0  0  0  0  0
  -28.1229  -28.9047   21.2127 H   0  0  0  0  0  0
  -25.9568  -25.9348   18.9349 H   0  0  0  0  0  0
  -23.9761  -27.3281   18.9766 H   0  0  0  0  0  0
  -23.7745  -30.5922   19.4016 H   0  0  0  0  0  0
  -22.7661  -29.2501   19.8474 H   0  0  0  0  0  0
  -25.1306  -36.1873   25.0799 H   0  0  0  0  0  0
  -20.9983  -28.3235   24.1384 H   0  0  0  0  0  0
  -20.5665  -26.2281   23.3609 H   0  0  0  0  0  0
  -21.6662  -26.7405   22.1199 H   0  0  0  0  0  0
  -19.6912  -25.6283   21.1208 H   0  0  0  0  0  0
  -19.6665  -27.3190   20.6710 H   0  0  0  0  0  0
  -17.4202  -26.6637   21.3998 H   0  0  0  0  0  0
  -18.0335  -26.0024   22.8983 H   0  0  0  0  0  0
  -19.7966  -30.7256   24.2209 H   0  0  0  0  0  0
  -17.5036  -31.6226   24.5177 H   0  0  0  0  0  0
  -15.5369  -30.2949   23.7662 H   0  0  0  0  0  0
  -15.8681  -28.0811   22.7036 H   0  0  0  0  0  0
  -24.5942  -30.7055   25.7804 H   0  0  0  0  0  0
  -24.8899  -32.2892   26.4783 H   0  0  0  0  0  0
  -25.8049  -30.8987   27.0248 H   0  0  0  0  0  0
  -26.2957  -29.6685   24.1252 H   0  0  0  0  0  0
  -27.4067  -29.7256   25.4751 H   0  0  0  0  0  0
  -27.8826  -30.4231   23.9451 H   0  0  0  0  0  0
  -27.2685  -33.3693   26.1945 H   0  0  0  0  0  0
  -28.3912  -32.6815   25.0309 H   0  0  0  0  0  0
  -28.0674  -31.8510   26.5471 H   0  0  0  0  0  0
  -28.2576  -38.0102   24.7514 H   0  0  0  0  0  0
  -28.1086  -36.2620   24.6279 H   0  0  0  0  0  0
  -27.2292  -37.1444   25.8874 H   0  0  0  0  0  0
  -20.9425  -29.8808   21.6894 H   0  0  0  0  0  0
  -26.0135  -38.2813   24.1430 H   0  0  0  0  0  0
  -31.2057  -16.5289   22.5935 H   0  0  0  0  0  0
  -27.8094  -24.8185   21.5171 H   0  0  0  0  0  0
  -27.1148  -24.5514   19.9712 H   0  0  0  0  0  0
  -30.0325  -24.0309   20.6471 H   0  0  0  0  0  0
  -31.8172  -21.0050   23.2498 H   0  0  0  0  0  0
  -31.3092  -21.8004   21.8571 H   0  0  0  0  0  0
  -30.0569  -21.2141   19.3276 H   0  0  0  0  0  0
  -28.8488  -15.7456   20.2501 H   0  0  0  0  0  0
  -28.7538  -23.3215   18.1354 H   0  0  0  0  0  0
  -30.3429  -23.2374   18.5355 H   0  0  0  0  0  0
  -29.6129  -24.6753   18.4153 H   0  0  0  0  0  0
  1 25  1  0  0  0
  1 30  2  0  0  0
  1 82  1  0  0  0
  2  3  1  0  0  0
  2 25  1  0  0  0
  2 86  1  0  0  0
  2 87  1  0  0  0
  3  4  1  0  0  0
  3 88  1  0  0  0
  3 89  1  0  0  0
  4  5  1  0  0  0
  4 90  1  0  0  0
  4 91  1  0  0  0
  5  6  1  0  0  0
  5 26  1  0  0  0
  5 92  1  0  0  0
  6 25  1  0  0  0
  6 93  1  0  0  0
  6 94  1  0  0  0
  7  8  2  0  0  0
  7 26  1  0  0  0
  7 29  1  0  0  0
  8  9  1  0  0  0
  8 22  1  0  0  0
  9 10  1  0  0  0
  9 27  2  0  0  0
 10 11  2  0  0  0
 10 15  1  0  0  0
 11 12  1  0  0  0
 11 95  1  0  0  0
 12 13  2  0  0  0
 12 96  1  0  0  0
 13 14  1  0  0  0
 13 31  1  0  0  0
 14 15  2  0  0  0
 14 97  1  0  0  0
 15 98  1  0  0  0
 16 17  2  0  0  0
 16 21  1  0  0  0
 16 31  1  0  0  0
 17 18  1  0  0  0
 17 99  1  0  0  0
 18 19  2  0  0  0
 18100  1  0  0  0
 19 20  1  0  0  0
 19 24  1  0  0  0
 20 21  2  0  0  0
 20101  1  0  0  0
 21 23  1  0  0  0
 22 28  1  0  0  0
 22 32  2  0  0  0
 26 27  1  0  0  0
 28102  1  0  0  0
 28103  1  0  0  0
 29104  1  0  0  0
 29105  1  0  0  0
 33 34  1  0  0  0
 33 66  1  0  0  0
 33 70  2  0  0  0
 34 36  1  0  0  0
 34 59  1  0  0  0
 34106  1  0  0  0
 35 44  2  0  0  0
 35 45  1  0  0  0
 35 68  1  0  0  0
 36 56  1  0  0  0
 36107  1  0  0  0
 37 39  1  0  0  0
 37 47  1  0  0  0
 37 66  1  0  0  0
 37108  1  0  0  0
 38 43  2  0  0  0
 38 46  1  0  0  0
 38 47  1  0  0  0
 39 64  1  0  0  0
 39 67  2  0  0  0
 40 52  1  0  0  0
 40 53  2  0  0  0
 40 58  1  0  0  0
 41109  1  0  0  0
 41110  1  0  0  0
 41111  1  0  0  0
 41 48  1  0  0  0
 42 43  1  0  0  0
 42 66  1  0  0  0
 42112  1  0  0  0
 42113  1  0  0  0
 43 44  1  0  0  0
 44114  1  0  0  0
 45 46  2  0  0  0
 45115  1  0  0  0
 46116  1  0  0  0
 47117  1  0  0  0
 47118  1  0  0  0
 48 56  1  0  0  0
 48 65  1  0  0  0
 48119  1  0  0  0
 49 50  1  0  0  0
 49 53  1  0  0  0
 49 64  1  0  0  0
 49120  1  0  0  0
 50 51  1  0  0  0
 50121  1  0  0  0
 50122  1  0  0  0
 51 52  1  0  0  0
 51123  1  0  0  0
 51124  1  0  0  0
 52125  1  0  0  0
 52126  1  0  0  0
 53 54  1  0  0  0
 54 55  2  0  0  0
 54127  1  0  0  0
 55 57  1  0  0  0
 55128  1  0  0  0
 56 69  2  0  0  0
 57 58  2  0  0  0
 57129  1  0  0  0
 58130  1  0  0  0
 59 60  1  0  0  0
 59 61  1  0  0  0
 59 62  1  0  0  0
 60131  1  0  0  0
 60132  1  0  0  0
 60133  1  0  0  0
 61134  1  0  0  0
 61135  1  0  0  0
 61136  1  0  0  0
 62137  1  0  0  0
 62138  1  0  0  0
 62139  1  0  0  0
 63 65  1  0  0  0
 63140  1  0  0  0
 63141  1  0  0  0
 63142  1  0  0  0
 64143  1  0  0  0
 65144  1  0  0  0
 68 77  1  0  0  0
 71 73  2  0  0  0
 71 74  1  0  0  0
 71145  1  0  0  0
 72 73  1  0  0  0
 72 75  2  0  0  0
 72 80  1  0  0  0
 73 85  1  0  0  0
 74 79  2  0  0  0
 74 82  1  0  0  0
 75 79  1  0  0  0
 75 81  1  0  0  0
 76 78  1  0  0  0
 76 81  1  0  0  0
 76 84  2  0  0  0
 77 78  1  0  0  0
 77146  1  0  0  0
 77147  1  0  0  0
 78 83  1  0  0  0
 78148  1  0  0  0
 80149  1  0  0  0
 80150  1  0  0  0
 81151  1  0  0  0
 82152  1  0  0  0
 83153  1  0  0  0
 83154  1  0  0  0
 83155  1  0  0  0
M  CHG  1  83   1
M  ISO  4   1 100  68 101  77 101  82 100
M  END
> <chiral flag>
0

> <version>
0

> <s_m_source_file>
/data/baiqing/PycharmProjects/Reinvent-master-3.2/result/LINK_invent/BTK/process_docking_weight1_custom_product_contain_oxygen_bond_distance_aromatic_linkinvent_7_9_3/rearranged_h_0188.sdf

> <i_m_source_file_index>
93

> <r_mmod_Potential_Energy-OPLS-2005>
-262.4794921875

> <r_mmod_Stretch_Energy-OPLS-2005>
140.217926025391

> <r_mmod_Bend_Energy-OPLS-2005>
165.812454223633

> <r_mmod_Torsional_Energy-OPLS-2005>
301.194580078125

> <r_mmod_Improper_Torsional_Energy-OPLS-2005>
14.1009378433228

> <r_mmod_Van_der_Waal_Energy-OPLS-2005>
148.61344909668

> <r_mmod_Electrostatic_Energy-OPLS-2005>
-567.463012695312

> <r_mmod_Solvation_Energy-OPLS-2005>
-561.968811035156

> <b_mmod_Minimization_Converged-OPLS-2005>
0

> <r_mmod_RMS_Derivative-OPLS-2005>
4.05103969573975

$$$$
94
                    3D
 Structure written by MMmdl.
164173  0  0  1  0            999 V2000
  -30.6983  -14.7028   20.5728 C   0  0  0  0  0  0
  -30.4304  -12.4682   19.4840 C   0  0  0  0  0  0
  -29.5113  -12.5192   18.2460 C   0  0  0  0  0  0
  -28.0367  -12.3505   18.6527 C   0  0  0  0  0  0
  -27.6468  -13.2426   19.8612 C   0  0  2  0  0  0
  -28.6853  -13.1657   20.9998 C   0  0  0  0  0  0
  -25.2431  -13.8164   20.5590 C   0  0  0  0  0  0
  -24.1773  -13.0451   20.9239 C   0  0  0  0  0  0
  -24.6414  -11.6925   20.8802 C   0  0  0  0  0  0
  -23.9094  -10.4301   21.0460 C   0  0  0  0  0  0
  -24.3642   -9.4187   21.9219 C   0  0  0  0  0  0
  -23.6304   -8.2232   22.0760 C   0  0  0  0  0  0
  -22.4283   -8.0291   21.3554 C   0  0  0  0  0  0
  -21.9944   -9.0277   20.4658 C   0  0  0  0  0  0
  -22.7280  -10.2138   20.3088 C   0  0  0  0  0  0
  -21.6844   -6.0746   22.5284 C   0  0  0  0  0  0
  -21.4007   -6.5657   23.8214 C   0  0  0  0  0  0
  -21.3649   -5.6799   24.9183 C   0  0  0  0  0  0
  -21.6057   -4.3071   24.7225 C   0  0  0  0  0  0
  -21.8809   -3.8160   23.4353 C   0  0  0  0  0  0
  -21.9192   -4.6982   22.3403 C   0  0  0  0  0  0
  -22.7786  -13.5206   21.1864 C   0  0  0  0  0  0
  -22.1658   -4.2191   21.0977 F   0  0  0  0  0  0
  -21.5634   -3.4539   25.7725 F   0  0  0  0  0  0
  -29.9966  -13.5199   20.4437 N   0  0  0  0  0  0
  -26.2963  -12.9456   20.3325 N   0  0  0  0  0  0
  -25.9373  -11.6600   20.5846 N   0  0  0  0  0  0
  -22.0422  -12.8268   22.0456 N   0  0  0  0  0  0
  -25.3923  -15.1835   20.3675 N   0  0  0  0  0  0
  -31.8247  -14.7890   20.0817 O   0  0  0  0  0  0
  -21.6628   -6.8908   21.4249 O   0  0  0  0  0  0
  -22.3490  -14.5498   20.6642 O   0  0  0  0  0  0
  -24.6323  -31.8594   23.2002 C   0  0  0  0  0  0
  -25.9131  -32.4746   23.8438 C   0  0  1  0  0  0
  -27.2228  -27.2840   20.1375 C   0  0  0  0  0  0
  -25.5971  -33.8536   24.2412 N   0  0  0  0  0  0
  -23.4346  -30.4794   21.5496 C   0  0  2  0  0  0
  -24.8860  -28.9242   20.1281 C   0  0  0  0  0  0
  -22.7641  -29.4559   22.4989 C   0  0  0  0  0  0
  -18.0365  -28.1354   22.8411 C   0  0  0  0  0  0
  -24.1492  -36.7292   23.2638 C   0  0  0  0  0  0
  -25.9771  -30.7769   21.3825 C   0  0  0  0  0  0
  -26.0561  -29.3921   20.7407 C   0  0  0  0  0  0
  -27.2388  -28.5780   20.7507 C   0  0  0  0  0  0
  -26.0335  -26.8779   19.5047 C   0  0  0  0  0  0
  -24.8747  -27.6697   19.5031 C   0  0  0  0  0  0
  -23.6590  -29.8102   20.1684 C   0  0  0  0  0  0
  -25.4064  -36.2982   24.0371 C   0  0  1  0  0  0
  -20.5984  -28.3693   23.1339 C   0  0  2  0  0  0
  -20.6831  -26.9404   22.5475 C   0  0  0  0  0  0
  -19.5832  -26.6347   21.5229 C   0  0  0  0  0  0
  -18.2035  -26.7868   22.1651 C   0  0  0  0  0  0
  -19.1599  -28.8824   23.2887 C   0  0  0  0  0  0
  -18.9510  -30.1416   23.8973 C   0  0  0  0  0  0
  -17.6481  -30.6531   24.0608 C   0  0  0  0  0  0
  -25.8992  -34.9379   23.5156 C   0  0  0  0  0  0
  -16.5400  -29.9033   23.6256 C   0  0  0  0  0  0
  -16.7364  -28.6476   23.0202 C   0  0  0  0  0  0
  -26.4461  -31.6541   25.0818 C   0  0  0  0  0  0
  -25.3748  -31.3662   26.1589 C   0  0  0  0  0  0
  -27.0309  -30.2975   24.6241 C   0  0  0  0  0  0
  -27.5975  -32.4294   25.7610 C   0  0  0  0  0  0
  -27.5564  -37.1802   24.8441 C   0  0  0  0  0  0
  -21.4328  -29.3048   22.3784 N   0  0  0  0  0  0
  -26.4230  -37.3668   23.9408 N   0  0  0  0  0  0
  -24.7029  -31.0529   22.1053 N   0  0  0  0  0  0
  -23.4390  -28.8059   23.3005 O   0  0  0  0  0  0
  -28.2778  -26.3974   19.8912 O   0  0  0  0  0  0
  -26.5400  -34.8848   22.4649 O   0  0  0  0  0  0
  -23.5501  -32.1410   23.7316 O   0  0  0  0  0  0
  -25.2036  -21.9141   23.0740 C   0  0  0  0  0  0
  -24.5787  -22.5889   22.0563 C   0  0  0  0  0  0
  -29.6140  -18.3308   21.3728 C   0  0  0  0  0  0
  -27.0304  -22.6681   21.9312 C   0  0  0  0  0  0
  -29.4803  -20.6261   21.3181 C   0  0  0  0  0  0
  -28.1610  -16.6278   22.2594 C   0  0  0  0  0  0
  -28.4206  -25.0733   24.1497 C   0  0  0  0  0  0
  -29.1799  -25.7159   20.8170 C   0  0  0  0  0  0
  -29.2015  -16.8272   21.1285 C   0  0  2  0  0  0
  -28.4869  -22.9468   21.7040 C   0  0  1  0  0  0
  -28.8708  -24.5306   21.8497 C   0  0  2  0  0  0
  -26.5988  -21.9549   22.9779 N   0  0  0  0  0  0
  -29.1392  -19.4382   20.7168 N   0  0  0  0  0  0
  -30.2527  -20.5360   22.4111 N   0  0  0  0  0  0
  -26.9730  -17.2062   22.1389 N   0  0  0  0  0  0
  -29.1500  -21.9303   20.8116 N   0  0  0  0  0  0
  -30.2605  -15.7669   21.3258 N   0  0  0  0  0  0
  -28.4270  -15.9768   23.2716 O   0  0  0  0  0  0
  -28.0015  -25.1544   22.7956 O   0  0  0  0  0  0
  -25.7236  -23.2982   20.9403 S   0  0  0  0  0  0
  -30.5775  -18.8940   22.7292 S   0  0  0  0  0  0
  -31.4680  -12.5865   19.1667 H   0  0  0  0  0  0
  -30.3893  -11.4907   19.9653 H   0  0  0  0  0  0
  -29.7955  -11.7394   17.5378 H   0  0  0  0  0  0
  -29.6449  -13.4710   17.7275 H   0  0  0  0  0  0
  -27.8803  -11.3007   18.9007 H   0  0  0  0  0  0
  -27.3877  -12.5637   17.8038 H   0  0  0  0  0  0
  -27.6437  -14.2707   19.4957 H   0  0  0  0  0  0
  -28.7203  -12.1629   21.4287 H   0  0  0  0  0  0
  -28.4065  -13.8281   21.8148 H   0  0  0  0  0  0
  -25.2781   -9.5665   22.4816 H   0  0  0  0  0  0
  -24.0019   -7.4611   22.7468 H   0  0  0  0  0  0
  -21.0893   -8.8836   19.8939 H   0  0  0  0  0  0
  -22.3782  -10.9710   19.6211 H   0  0  0  0  0  0
  -21.1978   -7.6166   23.9753 H   0  0  0  0  0  0
  -21.1477   -6.0516   25.9095 H   0  0  0  0  0  0
  -22.0591   -2.7641   23.2821 H   0  0  0  0  0  0
  -22.4011  -11.9923   22.4874 H   0  0  0  0  0  0
  -21.1013  -13.1263   22.2577 H   0  0  0  0  0  0
  -24.6136  -15.8260   20.4609 H   0  0  0  0  0  0
  -26.2350  -15.6278   20.0344 H   0  0  0  0  0  0
  -26.7324  -32.5397   23.1314 H   0  0  0  0  0  0
  -25.0250  -33.9748   25.0646 H   0  0  0  0  0  0
  -22.7251  -31.2992   21.4141 H   0  0  0  0  0  0
  -23.3683  -35.9688   23.3194 H   0  0  0  0  0  0
  -24.3660  -36.8916   22.2077 H   0  0  0  0  0  0
  -23.7374  -37.6562   23.6680 H   0  0  0  0  0  0
  -26.0829  -31.5473   20.6158 H   0  0  0  0  0  0
  -26.8643  -30.8428   21.9997 H   0  0  0  0  0  0
  -28.1519  -28.9391   21.2062 H   0  0  0  0  0  0
  -26.0122  -25.9236   18.9954 H   0  0  0  0  0  0
  -23.9861  -27.3001   19.0133 H   0  0  0  0  0  0
  -23.7899  -30.5849   19.4113 H   0  0  0  0  0  0
  -22.7849  -29.2360   19.8568 H   0  0  0  0  0  0
  -25.1285  -36.1828   25.0878 H   0  0  0  0  0  0
  -21.0076  -28.3153   24.1443 H   0  0  0  0  0  0
  -20.5652  -26.2379   23.3757 H   0  0  0  0  0  0
  -21.6727  -26.7392   22.1384 H   0  0  0  0  0  0
  -19.7097  -25.6222   21.1320 H   0  0  0  0  0  0
  -19.6639  -27.3148   20.6707 H   0  0  0  0  0  0
  -17.4265  -26.6473   21.4097 H   0  0  0  0  0  0
  -18.0579  -26.0131   22.9205 H   0  0  0  0  0  0
  -19.8054  -30.7213   24.2394 H   0  0  0  0  0  0
  -17.5049  -31.6178   24.5305 H   0  0  0  0  0  0
  -15.5377  -30.2885   23.7479 H   0  0  0  0  0  0
  -15.8787  -28.0848   22.6730 H   0  0  0  0  0  0
  -24.5987  -30.6835   25.8117 H   0  0  0  0  0  0
  -24.8926  -32.2825   26.5022 H   0  0  0  0  0  0
  -25.8205  -30.9021   27.0382 H   0  0  0  0  0  0
  -26.2871  -29.6790   24.1227 H   0  0  0  0  0  0
  -27.3965  -29.7168   25.4719 H   0  0  0  0  0  0
  -27.8724  -30.4276   23.9437 H   0  0  0  0  0  0
  -27.2519  -33.3553   26.2226 H   0  0  0  0  0  0
  -28.3796  -32.6910   25.0491 H   0  0  0  0  0  0
  -28.0636  -31.8435   26.5541 H   0  0  0  0  0  0
  -28.2529  -38.0153   24.7404 H   0  0  0  0  0  0
  -28.1137  -36.2654   24.6323 H   0  0  0  0  0  0
  -27.2278  -37.1500   25.8852 H   0  0  0  0  0  0
  -20.9514  -29.8800   21.7030 H   0  0  0  0  0  0
  -26.0052  -38.2706   24.1417 H   0  0  0  0  0  0
  -24.7330  -21.3841   23.8912 H   0  0  0  0  0  0
  -23.5139  -22.7201   21.9040 H   0  0  0  0  0  0
  -27.7008  -25.5958   24.7812 H   0  0  0  0  0  0
  -29.3894  -25.5560   24.2847 H   0  0  0  0  0  0
  -28.4964  -24.0403   24.4985 H   0  0  0  0  0  0
  -29.9668  -25.3307   20.1657 H   0  0  0  0  0  0
  -29.6771  -26.5146   21.3773 H   0  0  0  0  0  0
  -28.7305  -16.7019   20.1531 H   0  0  0  0  0  0
  -28.9014  -22.6274   22.6574 H   0  0  0  0  0  0
  -29.8527  -24.4608   22.3164 H   0  0  0  0  0  0
  -26.7556  -17.7743   21.3325 H   0  0  0  0  0  0
  -26.2748  -17.0766   22.8561 H   0  0  0  0  0  0
  -28.6666  -21.8720   19.9239 H   0  0  0  0  0  0
  -31.0698  -16.2142   21.7269 H   0  0  0  0  0  0
  1 25  1  0  0  0
  1 30  2  0  0  0
  1 87  1  0  0  0
  2  3  1  0  0  0
  2 25  1  0  0  0
  2 92  1  0  0  0
  2 93  1  0  0  0
  3  4  1  0  0  0
  3 94  1  0  0  0
  3 95  1  0  0  0
  4  5  1  0  0  0
  4 96  1  0  0  0
  4 97  1  0  0  0
  5  6  1  0  0  0
  5 26  1  0  0  0
  5 98  1  0  0  0
  6 25  1  0  0  0
  6 99  1  0  0  0
  6100  1  0  0  0
  7  8  2  0  0  0
  7 26  1  0  0  0
  7 29  1  0  0  0
  8  9  1  0  0  0
  8 22  1  0  0  0
  9 10  1  0  0  0
  9 27  2  0  0  0
 10 11  2  0  0  0
 10 15  1  0  0  0
 11 12  1  0  0  0
 11101  1  0  0  0
 12 13  2  0  0  0
 12102  1  0  0  0
 13 14  1  0  0  0
 13 31  1  0  0  0
 14 15  2  0  0  0
 14103  1  0  0  0
 15104  1  0  0  0
 16 17  2  0  0  0
 16 21  1  0  0  0
 16 31  1  0  0  0
 17 18  1  0  0  0
 17105  1  0  0  0
 18 19  2  0  0  0
 18106  1  0  0  0
 19 20  1  0  0  0
 19 24  1  0  0  0
 20 21  2  0  0  0
 20107  1  0  0  0
 21 23  1  0  0  0
 22 28  1  0  0  0
 22 32  2  0  0  0
 26 27  1  0  0  0
 28108  1  0  0  0
 28109  1  0  0  0
 29110  1  0  0  0
 29111  1  0  0  0
 33 34  1  0  0  0
 33 66  1  0  0  0
 33 70  2  0  0  0
 34 36  1  0  0  0
 34 59  1  0  0  0
 34112  1  0  0  0
 35 44  2  0  0  0
 35 45  1  0  0  0
 35 68  1  0  0  0
 36 56  1  0  0  0
 36113  1  0  0  0
 37 39  1  0  0  0
 37 47  1  0  0  0
 37 66  1  0  0  0
 37114  1  0  0  0
 38 43  2  0  0  0
 38 46  1  0  0  0
 38 47  1  0  0  0
 39 64  1  0  0  0
 39 67  2  0  0  0
 40 52  1  0  0  0
 40 53  2  0  0  0
 40 58  1  0  0  0
 41115  1  0  0  0
 41116  1  0  0  0
 41117  1  0  0  0
 41 48  1  0  0  0
 42 43  1  0  0  0
 42 66  1  0  0  0
 42118  1  0  0  0
 42119  1  0  0  0
 43 44  1  0  0  0
 44120  1  0  0  0
 45 46  2  0  0  0
 45121  1  0  0  0
 46122  1  0  0  0
 47123  1  0  0  0
 47124  1  0  0  0
 48 56  1  0  0  0
 48 65  1  0  0  0
 48125  1  0  0  0
 49 50  1  0  0  0
 49 53  1  0  0  0
 49 64  1  0  0  0
 49126  1  0  0  0
 50 51  1  0  0  0
 50127  1  0  0  0
 50128  1  0  0  0
 51 52  1  0  0  0
 51129  1  0  0  0
 51130  1  0  0  0
 52131  1  0  0  0
 52132  1  0  0  0
 53 54  1  0  0  0
 54 55  2  0  0  0
 54133  1  0  0  0
 55 57  1  0  0  0
 55134  1  0  0  0
 56 69  2  0  0  0
 57 58  2  0  0  0
 57135  1  0  0  0
 58136  1  0  0  0
 59 60  1  0  0  0
 59 61  1  0  0  0
 59 62  1  0  0  0
 60137  1  0  0  0
 60138  1  0  0  0
 60139  1  0  0  0
 61140  1  0  0  0
 61141  1  0  0  0
 61142  1  0  0  0
 62143  1  0  0  0
 62144  1  0  0  0
 62145  1  0  0  0
 63 65  1  0  0  0
 63146  1  0  0  0
 63147  1  0  0  0
 63148  1  0  0  0
 64149  1  0  0  0
 65150  1  0  0  0
 68 78  1  0  0  0
 71 72  2  0  0  0
 71 82  1  0  0  0
 71151  1  0  0  0
 72 90  1  0  0  0
 72152  1  0  0  0
 73 79  1  0  0  0
 73 83  2  0  0  0
 73 91  1  0  0  0
 74 80  1  0  0  0
 74 82  2  0  0  0
 74 90  1  0  0  0
 75 83  1  0  0  0
 75 84  2  0  0  0
 75 86  1  0  0  0
 76 79  1  0  0  0
 76 85  1  0  0  0
 76 88  2  0  0  0
 77 89  1  0  0  0
 77153  1  0  0  0
 77154  1  0  0  0
 77155  1  0  0  0
 78156  1  0  0  0
 78157  1  0  0  0
 78 81  1  0  0  0
 79 87  1  0  0  0
 79158  1  0  0  0
 80 81  1  0  0  0
 80 86  1  0  0  0
 80159  1  0  0  0
 81 89  1  0  0  0
 81160  1  0  0  0
 84 91  1  0  0  0
 85161  1  0  0  0
 85162  1  0  0  0
 86163  1  0  0  0
 87164  1  0  0  0
M  ISO  4   1 100  68 101  78 101  87 100
M  END
> <chiral flag>
0

> <version>
0

> <s_m_source_file>
/data/baiqing/PycharmProjects/Reinvent-master-3.2/result/LINK_invent/BTK/process_docking_weight1_custom_product_contain_oxygen_bond_distance_aromatic_linkinvent_7_9_3/rearranged_h_0188.sdf

> <i_m_source_file_index>
94

> <r_mmod_Potential_Energy-OPLS-2005>
-56.6224784851074

> <r_mmod_Stretch_Energy-OPLS-2005>
103.425758361816

> <r_mmod_Bend_Energy-OPLS-2005>
341.803802490234

> <r_mmod_Torsional_Energy-OPLS-2005>
255.329376220703

> <r_mmod_Improper_Torsional_Energy-OPLS-2005>
13.0262584686279

> <r_mmod_Van_der_Waal_Energy-OPLS-2005>
91.6596221923828

> <r_mmod_Electrostatic_Energy-OPLS-2005>
-660.506530761719

> <r_mmod_Solvation_Energy-OPLS-2005>
-273.031677246094

> <b_mmod_Minimization_Converged-OPLS-2005>
0

> <r_mmod_RMS_Derivative-OPLS-2005>
8.02627658843994

$$$$
95
                    3D
 Structure written by MMmdl.
153161  0  0  1  0            999 V2000
  -29.5890  -16.9489   20.2581 C   0  0  0  0  0  0
  -30.1892  -14.1207   19.5053 C   0  0  0  0  0  0
  -29.5440  -13.1055   18.4487 C   0  0  0  0  0  0
  -28.2691  -12.4371   18.9583 C   0  0  0  0  0  0
  -27.5438  -13.4687   19.8299 C   0  0  2  0  0  0
  -28.4189  -14.3001   20.8529 C   0  0  0  0  0  0
  -25.1976  -13.8545   20.5999 C   0  0  0  0  0  0
  -24.1569  -13.0455   20.9383 C   0  0  0  0  0  0
  -24.6528  -11.7056   20.8759 C   0  0  0  0  0  0
  -23.9275  -10.4336   21.0328 C   0  0  0  0  0  0
  -24.3759   -9.4236   21.9130 C   0  0  0  0  0  0
  -23.6384   -8.2286   22.0738 C   0  0  0  0  0  0
  -22.4350   -8.0326   21.3550 C   0  0  0  0  0  0
  -22.0034   -9.0289   20.4615 C   0  0  0  0  0  0
  -22.7418  -10.2151   20.2996 C   0  0  0  0  0  0
  -21.6883   -6.0765   22.5273 C   0  0  0  0  0  0
  -21.4042   -6.5661   23.8208 C   0  0  0  0  0  0
  -21.3675   -5.6810   24.9165 C   0  0  0  0  0  0
  -21.6038   -4.3069   24.7214 C   0  0  0  0  0  0
  -21.8817   -3.8168   23.4334 C   0  0  0  0  0  0
  -21.9203   -4.6988   22.3394 C   0  0  0  0  0  0
  -22.7543  -13.5038   21.1961 C   0  0  0  0  0  0
  -22.1668   -4.2183   21.0968 F   0  0  0  0  0  0
  -21.5621   -3.4540   25.7717 F   0  0  0  0  0  0
  -29.2920  -15.3445   20.1185 N   0  0  0  0  0  0
  -26.2639  -13.0210   20.3548 N   0  0  0  0  0  0
  -25.9540  -11.7102   20.5695 N   0  0  0  0  0  0
  -22.0286  -12.7953   22.0514 N   0  0  0  0  0  0
  -25.3243  -15.2328   20.4391 N   0  0  0  0  0  0
  -30.8554  -16.7098   20.2736 O   0  0  0  0  0  0
  -21.6695   -6.8931   21.4246 O   0  0  0  0  0  0
  -22.3159  -14.5315   20.6794 O   0  0  0  0  0  0
  -24.7178  -31.6825   23.0554 C   0  0  0  0  0  0
  -25.9445  -32.3886   23.7423 C   0  0  1  0  0  0
  -28.0567  -26.0415   20.4870 C   0  0  0  0  0  0
  -25.5762  -33.7769   24.1277 N   0  0  0  0  0  0
  -23.5731  -30.1617   21.4387 C   0  0  2  0  0  0
  -24.8806  -28.0361   20.2169 C   0  0  0  0  0  0
  -22.7818  -29.3554   22.4870 C   0  0  0  0  0  0
  -18.0267  -28.1424   22.8446 C   0  0  0  0  0  0
  -24.1479  -36.6989   23.2695 C   0  0  0  0  0  0
  -26.1179  -30.1770   21.3880 C   0  0  0  0  0  0
  -26.2502  -28.6021   20.9156 C   0  0  0  0  0  0
  -27.7181  -27.7542   21.0666 C   0  0  0  0  0  0
  -25.7921  -25.1242   19.4111 C   0  0  0  0  0  0
  -24.5739  -26.4908   19.5197 C   0  0  0  0  0  0
  -23.8171  -29.2228   20.1666 C   0  0  0  0  0  0
  -25.4154  -36.2603   24.0230 C   0  0  1  0  0  0
  -20.5862  -28.3679   23.1260 C   0  0  2  0  0  0
  -20.6654  -26.9326   22.5545 C   0  0  0  0  0  0
  -19.5701  -26.6329   21.5262 C   0  0  0  0  0  0
  -18.1867  -26.7958   22.1595 C   0  0  0  0  0  0
  -19.1533  -28.8904   23.2795 C   0  0  0  0  0  0
  -18.9456  -30.1490   23.8836 C   0  0  0  0  0  0
  -17.6447  -30.6599   24.0542 C   0  0  0  0  0  0
  -25.9131  -34.8988   23.4722 C   0  0  0  0  0  0
  -16.5335  -29.9089   23.6330 C   0  0  0  0  0  0
  -16.7255  -28.6516   23.0348 C   0  0  0  0  0  0
  -26.4556  -31.6336   25.0358 C   0  0  0  0  0  0
  -25.3534  -31.3790   26.0954 C   0  0  0  0  0  0
  -27.0634  -30.2688   24.6529 C   0  0  0  0  0  0
  -27.5880  -32.4433   25.7178 C   0  0  0  0  0  0
  -27.5546  -37.1614   24.8453 C   0  0  0  0  0  0
  -21.4454  -29.2761   22.3564 N   0  0  0  0  0  0
  -26.4232  -37.3455   23.9415 N   0  0  0  0  0  0
  -24.8341  -30.7360   22.0198 N   0  0  0  0  0  0
  -23.3952  -28.7608   23.3737 O   0  0  0  0  0  0
  -29.3509  -26.0368   20.0863 O   0  0  0  0  0  0
  -26.6008  -34.8774   22.4500 O   0  0  0  0  0  0
  -23.6118  -32.0281   23.5158 O   0  0  0  0  0  0
  -26.7619  -24.1938   21.3620 C   0  0  0  0  0  0
  -27.6052  -23.1064   20.2416 C   0  0  0  0  0  0
  -26.8057  -26.9515   19.0370 C   0  0  0  0  0  0
  -28.1956  -28.5872   17.9229 C   0  0  0  0  0  0
  -26.4232  -23.6383   22.7106 C   0  0  0  0  0  0
  -28.5282  -20.8744   20.4001 C   0  0  0  0  0  0
  -29.9379  -27.2077   19.4454 C   0  0  0  0  0  0
  -29.4306  -27.6499   18.0294 C   0  0  2  0  0  0
  -26.0772  -26.0887   21.2887 N   0  0  0  0  0  0
  -26.9883  -28.1597   18.3039 N   0  0  0  0  0  0
  -28.7583  -18.6397   20.2448 N   0  0  0  0  0  0
  -28.3261  -29.7331   17.4783 O   0  0  0  0  0  0
  -30.4635  -28.2843   17.4666 F   0  0  0  0  0  0
  -27.9705  -24.5814   18.4321 S   0  0  0  0  0  0
  -31.0146  -14.5911   18.9698 H   0  0  0  0  0  0
  -30.7007  -13.5735   20.3003 H   0  0  0  0  0  0
  -30.2740  -12.3515   18.1499 H   0  0  0  0  0  0
  -29.3043  -13.6765   17.5503 H   0  0  0  0  0  0
  -28.5340  -11.5709   19.5671 H   0  0  0  0  0  0
  -27.6439  -12.0786   18.1375 H   0  0  0  0  0  0
  -27.2566  -14.2161   19.0866 H   0  0  0  0  0  0
  -28.9636  -13.6665   21.5563 H   0  0  0  0  0  0
  -27.7558  -14.8736   21.5024 H   0  0  0  0  0  0
  -25.2881   -9.5710   22.4741 H   0  0  0  0  0  0
  -24.0066   -7.4695   22.7492 H   0  0  0  0  0  0
  -21.0957   -8.8822   19.8923 H   0  0  0  0  0  0
  -22.3854  -10.9683   19.6115 H   0  0  0  0  0  0
  -21.2050   -7.6170   23.9726 H   0  0  0  0  0  0
  -21.1496   -6.0530   25.9072 H   0  0  0  0  0  0
  -22.0583   -2.7631   23.2812 H   0  0  0  0  0  0
  -22.4039  -11.9649   22.4879 H   0  0  0  0  0  0
  -21.0864  -13.0837   22.2761 H   0  0  0  0  0  0
  -24.5334  -15.8603   20.5350 H   0  0  0  0  0  0
  -26.1603  -15.6915   20.1020 H   0  0  0  0  0  0
  -26.7591  -32.4254   23.0191 H   0  0  0  0  0  0
  -24.9622  -33.8626   24.9237 H   0  0  0  0  0  0
  -22.9456  -30.9964   21.1172 H   0  0  0  0  0  0
  -23.3769  -35.9283   23.3181 H   0  0  0  0  0  0
  -24.3529  -36.8891   22.2150 H   0  0  0  0  0  0
  -23.7209  -37.6073   23.6960 H   0  0  0  0  0  0
  -26.2928  -30.7701   20.4911 H   0  0  0  0  0  0
  -26.9840  -30.4029   22.0006 H   0  0  0  0  0  0
  -28.5300  -28.3192   21.5080 H   0  0  0  0  0  0
  -25.5478  -24.2094   18.8776 H   0  0  0  0  0  0
  -23.6117  -26.3199   19.0591 H   0  0  0  0  0  0
  -24.1022  -29.8634   19.3317 H   0  0  0  0  0  0
  -22.8652  -28.7863   19.8575 H   0  0  0  0  0  0
  -25.1398  -36.1260   25.0718 H   0  0  0  0  0  0
  -20.9799  -28.3259   24.1437 H   0  0  0  0  0  0
  -20.5367  -26.2300   23.3800 H   0  0  0  0  0  0
  -21.6542  -26.7174   22.1467 H   0  0  0  0  0  0
  -19.6828  -25.6217   21.1335 H   0  0  0  0  0  0
  -19.6709  -27.3118   20.6781 H   0  0  0  0  0  0
  -17.4183  -26.6779   21.3949 H   0  0  0  0  0  0
  -18.0158  -26.0101   22.8966 H   0  0  0  0  0  0
  -19.7929  -30.7301   24.2221 H   0  0  0  0  0  0
  -17.4987  -31.6264   24.5169 H   0  0  0  0  0  0
  -15.5331  -30.2971   23.7651 H   0  0  0  0  0  0
  -15.8670  -28.0800   22.7097 H   0  0  0  0  0  0
  -24.5766  -30.7048   25.7317 H   0  0  0  0  0  0
  -24.8647  -32.3047   26.4000 H   0  0  0  0  0  0
  -25.7658  -30.9252   26.9975 H   0  0  0  0  0  0
  -26.3332  -29.5979   24.1983 H   0  0  0  0  0  0
  -27.4492  -29.7502   25.5317 H   0  0  0  0  0  0
  -27.9062  -30.3802   23.9708 H   0  0  0  0  0  0
  -27.2279  -33.3853   26.1316 H   0  0  0  0  0  0
  -28.3859  -32.6828   25.0141 H   0  0  0  0  0  0
  -28.0388  -31.8926   26.5436 H   0  0  0  0  0  0
  -28.2450  -38.0009   24.7535 H   0  0  0  0  0  0
  -28.1141  -36.2523   24.6211 H   0  0  0  0  0  0
  -27.2280  -37.1169   25.8856 H   0  0  0  0  0  0
  -21.0020  -29.8124   21.6256 H   0  0  0  0  0  0
  -25.9995  -38.2475   24.1437 H   0  0  0  0  0  0
  -25.3537  -23.7207   22.9059 H   0  0  0  0  0  0
  -26.9384  -24.1917   23.4966 H   0  0  0  0  0  0
  -26.6960  -22.5886   22.7926 H   0  0  0  0  0  0
  -29.5626  -21.0950   20.1250 H   0  0  0  0  0  0
  -28.5576  -20.8382   21.4921 H   0  0  0  0  0  0
  -30.0540  -28.0609   20.1133 H   0  0  0  0  0  0
  -30.9748  -26.9068   19.2914 H   0  0  0  0  0  0
  -29.2754  -26.7975   17.3725 H   0  0  0  0  0  0
  -26.2287  -28.8204   18.3095 H   0  0  0  0  0  0
  -27.7990  -18.3442   20.1078 H   0  0  0  0  0  0
  1 25  1  0  0  0
  1 30  2  0  0  0
  1 81  1  0  0  0
  2  3  1  0  0  0
  2 25  1  0  0  0
  2 85  1  0  0  0
  2 86  1  0  0  0
  3  4  1  0  0  0
  3 87  1  0  0  0
  3 88  1  0  0  0
  4  5  1  0  0  0
  4 89  1  0  0  0
  4 90  1  0  0  0
  5  6  1  0  0  0
  5 26  1  0  0  0
  5 91  1  0  0  0
  6 25  1  0  0  0
  6 92  1  0  0  0
  6 93  1  0  0  0
  7  8  2  0  0  0
  7 26  1  0  0  0
  7 29  1  0  0  0
  8  9  1  0  0  0
  8 22  1  0  0  0
  9 10  1  0  0  0
  9 27  2  0  0  0
 10 11  2  0  0  0
 10 15  1  0  0  0
 11 12  1  0  0  0
 11 94  1  0  0  0
 12 13  2  0  0  0
 12 95  1  0  0  0
 13 14  1  0  0  0
 13 31  1  0  0  0
 14 15  2  0  0  0
 14 96  1  0  0  0
 15 97  1  0  0  0
 16 17  2  0  0  0
 16 21  1  0  0  0
 16 31  1  0  0  0
 17 18  1  0  0  0
 17 98  1  0  0  0
 18 19  2  0  0  0
 18 99  1  0  0  0
 19 20  1  0  0  0
 19 24  1  0  0  0
 20 21  2  0  0  0
 20100  1  0  0  0
 21 23  1  0  0  0
 22 28  1  0  0  0
 22 32  2  0  0  0
 26 27  1  0  0  0
 28101  1  0  0  0
 28102  1  0  0  0
 29103  1  0  0  0
 29104  1  0  0  0
 33 34  1  0  0  0
 33 66  1  0  0  0
 33 70  2  0  0  0
 34 36  1  0  0  0
 34 59  1  0  0  0
 34105  1  0  0  0
 35 44  2  0  0  0
 35 45  1  0  0  0
 35 68  1  0  0  0
 36 56  1  0  0  0
 36106  1  0  0  0
 37 39  1  0  0  0
 37 47  1  0  0  0
 37 66  1  0  0  0
 37107  1  0  0  0
 38 43  2  0  0  0
 38 46  1  0  0  0
 38 47  1  0  0  0
 39 64  1  0  0  0
 39 67  2  0  0  0
 40 52  1  0  0  0
 40 53  2  0  0  0
 40 58  1  0  0  0
 41108  1  0  0  0
 41109  1  0  0  0
 41110  1  0  0  0
 41 48  1  0  0  0
 42 43  1  0  0  0
 42 66  1  0  0  0
 42111  1  0  0  0
 42112  1  0  0  0
 43 44  1  0  0  0
 44113  1  0  0  0
 45 46  2  0  0  0
 45114  1  0  0  0
 46115  1  0  0  0
 47116  1  0  0  0
 47117  1  0  0  0
 48 56  1  0  0  0
 48 65  1  0  0  0
 48118  1  0  0  0
 49 50  1  0  0  0
 49 53  1  0  0  0
 49 64  1  0  0  0
 49119  1  0  0  0
 50 51  1  0  0  0
 50120  1  0  0  0
 50121  1  0  0  0
 51 52  1  0  0  0
 51122  1  0  0  0
 51123  1  0  0  0
 52124  1  0  0  0
 52125  1  0  0  0
 53 54  1  0  0  0
 54 55  2  0  0  0
 54126  1  0  0  0
 55 57  1  0  0  0
 55127  1  0  0  0
 56 69  2  0  0  0
 57 58  2  0  0  0
 57128  1  0  0  0
 58129  1  0  0  0
 59 60  1  0  0  0
 59 61  1  0  0  0
 59 62  1  0  0  0
 60130  1  0  0  0
 60131  1  0  0  0
 60132  1  0  0  0
 61133  1  0  0  0
 61134  1  0  0  0
 61135  1  0  0  0
 62136  1  0  0  0
 62137  1  0  0  0
 62138  1  0  0  0
 63 65  1  0  0  0
 63139  1  0  0  0
 63140  1  0  0  0
 63141  1  0  0  0
 64142  1  0  0  0
 65143  1  0  0  0
 68 77  1  0  0  0
 71 72  2  0  0  0
 71 75  1  0  0  0
 71 79  1  0  0  0
 72 76  1  0  0  0
 72 84  1  0  0  0
 73 79  2  0  0  0
 73 80  1  0  0  0
 73 84  1  0  0  0
 74 78  1  0  0  0
 74 80  1  0  0  0
 74 82  2  0  0  0
 75144  1  0  0  0
 75145  1  0  0  0
 75146  1  0  0  0
 76 81  1  0  0  0
 76147  1  0  0  0
 76148  1  0  0  0
 77 78  1  0  0  0
 77149  1  0  0  0
 77150  1  0  0  0
 78 83  1  0  0  0
 78151  1  0  0  0
 80152  1  0  0  0
 81153  1  0  0  0
M  ISO  4   1 100  68 101  77 101  81 100
M  END
> <chiral flag>
0

> <version>
0

> <s_m_source_file>
/data/baiqing/PycharmProjects/Reinvent-master-3.2/result/LINK_invent/BTK/process_docking_weight1_custom_product_contain_oxygen_bond_distance_aromatic_linkinvent_7_9_3/rearranged_h_0188.sdf

> <i_m_source_file_index>
95

> <r_mmod_Potential_Energy-OPLS-2005>
21050.662109375

> <r_mmod_Stretch_Energy-OPLS-2005>
12607.4208984375

> <r_mmod_Bend_Energy-OPLS-2005>
1219.13500976562

> <r_mmod_Torsional_Energy-OPLS-2005>
310.303771972656

> <r_mmod_Improper_Torsional_Energy-OPLS-2005>
26.4983291625977

> <r_mmod_Van_der_Waal_Energy-OPLS-2005>
3663.67431640625

> <r_mmod_Electrostatic_Energy-OPLS-2005>
-401.254058837891

> <r_mmod_Solvation_Energy-OPLS-2005>
-272.158203125

> <b_mmod_Minimization_Converged-OPLS-2005>
0

> <r_mmod_RMS_Derivative-OPLS-2005>
9.65750789642334

$$$$
96
                    3D
 Structure written by MMmdl.
159167  0  0  1  0            999 V2000
  -30.6905  -14.5485   20.5322 C   0  0  0  0  0  0
  -30.4161  -12.3135   19.5046 C   0  0  0  0  0  0
  -29.5284  -12.4907   18.2557 C   0  0  0  0  0  0
  -28.0418  -12.3544   18.6428 C   0  0  0  0  0  0
  -27.6608  -13.2230   19.8729 C   0  0  2  0  0  0
  -28.6911  -13.0730   21.0189 C   0  0  0  0  0  0
  -25.2551  -13.8206   20.5639 C   0  0  0  0  0  0
  -24.1829  -13.0447   20.9144 C   0  0  0  0  0  0
  -24.6418  -11.6940   20.8693 C   0  0  0  0  0  0
  -23.9057  -10.4331   21.0361 C   0  0  0  0  0  0
  -24.3618   -9.4258   21.9160 C   0  0  0  0  0  0
  -23.6328   -8.2256   22.0705 C   0  0  0  0  0  0
  -22.4304   -8.0267   21.3491 C   0  0  0  0  0  0
  -21.9936   -9.0246   20.4584 C   0  0  0  0  0  0
  -22.7223  -10.2159   20.3010 C   0  0  0  0  0  0
  -21.6869   -6.0732   22.5276 C   0  0  0  0  0  0
  -21.4030   -6.5634   23.8223 C   0  0  0  0  0  0
  -21.3670   -5.6778   24.9180 C   0  0  0  0  0  0
  -21.6056   -4.3044   24.7216 C   0  0  0  0  0  0
  -21.8809   -3.8130   23.4333 C   0  0  0  0  0  0
  -21.9213   -4.6956   22.3396 C   0  0  0  0  0  0
  -22.7856  -13.5211   21.1881 C   0  0  0  0  0  0
  -22.1643   -4.2135   21.0963 F   0  0  0  0  0  0
  -21.5672   -3.4528   25.7717 F   0  0  0  0  0  0
  -30.0304  -13.3523   20.4797 N   0  0  0  0  0  0
  -26.3010  -12.9409   20.3292 N   0  0  0  0  0  0
  -25.9360  -11.6549   20.5742 N   0  0  0  0  0  0
  -22.0487  -12.8188   22.0417 N   0  0  0  0  0  0
  -25.4301  -15.1928   20.3985 N   0  0  0  0  0  0
  -31.8072  -14.6915   20.0297 O   0  0  0  0  0  0
  -21.6646   -6.8876   21.4219 O   0  0  0  0  0  0
  -22.3518  -14.5506   20.6728 O   0  0  0  0  0  0
  -24.6126  -31.8675   23.2037 C   0  0  0  0  0  0
  -25.9007  -32.4833   23.8341 C   0  0  1  0  0  0
  -27.2164  -27.3565   20.1084 C   0  0  0  0  0  0
  -25.5877  -33.8649   24.2270 N   0  0  0  0  0  0
  -23.4042  -30.4835   21.5519 C   0  0  2  0  0  0
  -24.8502  -28.9442   20.1112 C   0  0  0  0  0  0
  -22.7425  -29.4627   22.5038 C   0  0  0  0  0  0
  -18.0275  -28.1364   22.8522 C   0  0  0  0  0  0
  -24.1527  -36.7288   23.2637 C   0  0  0  0  0  0
  -25.9425  -30.7997   21.3803 C   0  0  0  0  0  0
  -26.0124  -29.4304   20.7218 C   0  0  0  0  0  0
  -27.1934  -28.6416   20.7245 C   0  0  0  0  0  0
  -26.0242  -26.9000   19.5023 C   0  0  0  0  0  0
  -24.8530  -27.6811   19.4971 C   0  0  0  0  0  0
  -23.6093  -29.8090   20.1684 C   0  0  0  0  0  0
  -25.4169  -36.3123   24.0314 C   0  0  1  0  0  0
  -20.5851  -28.3654   23.1341 C   0  0  2  0  0  0
  -20.6772  -26.9406   22.5408 C   0  0  0  0  0  0
  -19.5746  -26.6387   21.5211 C   0  0  0  0  0  0
  -18.1923  -26.7921   22.1637 C   0  0  0  0  0  0
  -19.1521  -28.8831   23.2920 C   0  0  0  0  0  0
  -18.9447  -30.1445   23.8918 C   0  0  0  0  0  0
  -17.6456  -30.6582   24.0541 C   0  0  0  0  0  0
  -25.9092  -34.9496   23.5093 C   0  0  0  0  0  0
  -16.5344  -29.9073   23.6330 C   0  0  0  0  0  0
  -16.7266  -28.6470   23.0385 C   0  0  0  0  0  0
  -26.4387  -31.6653   25.0712 C   0  0  0  0  0  0
  -25.3547  -31.3794   26.1370 C   0  0  0  0  0  0
  -27.0188  -30.3077   24.6150 C   0  0  0  0  0  0
  -27.6006  -32.4364   25.7432 C   0  0  0  0  0  0
  -27.5628  -37.1800   24.8448 C   0  0  0  0  0  0
  -21.4143  -29.2997   22.3737 N   0  0  0  0  0  0
  -26.4349  -37.3806   23.9390 N   0  0  0  0  0  0
  -24.6716  -31.0677   22.0991 N   0  0  0  0  0  0
  -23.4187  -28.8213   23.3121 O   0  0  0  0  0  0
  -28.3748  -26.5786   20.1449 O   0  0  0  0  0  0
  -26.5681  -34.8926   22.4687 O   0  0  0  0  0  0
  -23.5313  -32.1525   23.7349 O   0  0  0  0  0  0
  -29.5704  -19.2276   20.4551 C   0  0  0  0  0  0
  -29.9447  -18.9973   19.1346 C   0  0  0  0  0  0
  -29.9980  -16.9360   20.5252 C   0  0  0  0  0  0
  -29.1539  -20.5807   21.0543 C   0  0  0  0  0  0
  -31.1877  -23.0802   22.5256 C   0  0  0  0  0  0
  -29.8181  -23.5642   22.0256 C   0  0  0  0  0  0
  -28.4700  -25.3514   19.3588 C   0  0  0  0  0  0
  -29.4505  -23.1413   20.5810 C   0  0  2  0  0  0
  -28.2079  -23.9211   19.9997 C   0  0  1  0  0  0
  -29.5820  -18.0189   21.2144 N   0  0  0  0  0  0
  -30.0360  -19.8681   18.0393 N   0  0  0  0  0  0
  -30.0351  -15.6064   21.0809 N   0  0  0  0  0  0
  -29.4659  -21.6690   20.3126 N   0  0  0  0  0  0
  -28.6183  -20.6699   22.1635 O   0  0  0  0  0  0
  -27.1284  -23.9808   20.9190 O   0  0  0  0  0  0
  -30.3797  -17.3230   18.8518 S   0  0  0  0  0  0
  -31.4770  -12.3468   19.2536 H   0  0  0  0  0  0
  -30.2512  -11.3220   19.9349 H   0  0  0  0  0  0
  -29.8056  -11.7477   17.5087 H   0  0  0  0  0  0
  -29.7145  -13.4669   17.8064 H   0  0  0  0  0  0
  -27.8530  -11.3044   18.8677 H   0  0  0  0  0  0
  -27.3978  -12.5990   17.7966 H   0  0  0  0  0  0
  -27.6915  -14.2583   19.5345 H   0  0  0  0  0  0
  -28.6579  -12.0639   21.4281 H   0  0  0  0  0  0
  -28.4413  -13.7399   21.8454 H   0  0  0  0  0  0
  -25.2774   -9.5779   22.4722 H   0  0  0  0  0  0
  -24.0070   -7.4658   22.7452 H   0  0  0  0  0  0
  -21.0842   -8.8725   19.8913 H   0  0  0  0  0  0
  -22.3643  -10.9666   19.6092 H   0  0  0  0  0  0
  -21.1977   -7.6131   23.9720 H   0  0  0  0  0  0
  -21.1524   -6.0491   25.9095 H   0  0  0  0  0  0
  -22.0585   -2.7570   23.2820 H   0  0  0  0  0  0
  -22.4065  -11.9867   22.4842 H   0  0  0  0  0  0
  -21.1079  -13.1174   22.2549 H   0  0  0  0  0  0
  -24.6644  -15.8535   20.4861 H   0  0  0  0  0  0
  -26.2858  -15.6225   20.0674 H   0  0  0  0  0  0
  -26.7046  -32.5472   23.1069 H   0  0  0  0  0  0
  -24.9929  -33.9850   25.0332 H   0  0  0  0  0  0
  -22.6925  -31.2996   21.4098 H   0  0  0  0  0  0
  -23.3833  -35.9566   23.3284 H   0  0  0  0  0  0
  -24.3616  -36.8934   22.2050 H   0  0  0  0  0  0
  -23.7207  -37.6450   23.6680 H   0  0  0  0  0  0
  -26.0765  -31.5697   20.6194 H   0  0  0  0  0  0
  -26.8210  -30.8382   22.0141 H   0  0  0  0  0  0
  -28.0832  -29.0042   21.2181 H   0  0  0  0  0  0
  -25.9550  -25.9206   19.0499 H   0  0  0  0  0  0
  -23.9568  -27.2963   19.0286 H   0  0  0  0  0  0
  -23.6795  -30.5728   19.3921 H   0  0  0  0  0  0
  -22.7412  -29.2027   19.9006 H   0  0  0  0  0  0
  -25.1368  -36.1969   25.0801 H   0  0  0  0  0  0
  -20.9925  -28.3175   24.1474 H   0  0  0  0  0  0
  -20.5704  -26.2248   23.3573 H   0  0  0  0  0  0
  -21.6632  -26.7489   22.1165 H   0  0  0  0  0  0
  -19.6897  -25.6295   21.1239 H   0  0  0  0  0  0
  -19.6655  -27.3192   20.6733 H   0  0  0  0  0  0
  -17.4185  -26.6685   21.4032 H   0  0  0  0  0  0
  -18.0330  -26.0048   22.9025 H   0  0  0  0  0  0
  -19.7931  -30.7246   24.2292 H   0  0  0  0  0  0
  -17.5013  -31.6287   24.5123 H   0  0  0  0  0  0
  -15.5336  -30.2980   23.7643 H   0  0  0  0  0  0
  -15.8676  -28.0765   22.7154 H   0  0  0  0  0  0
  -24.5705  -30.7229   25.7577 H   0  0  0  0  0  0
  -24.8712  -32.2950   26.4791 H   0  0  0  0  0  0
  -25.7714  -30.8865   27.0151 H   0  0  0  0  0  0
  -26.2738  -29.6920   24.1090 H   0  0  0  0  0  0
  -27.3781  -29.7267   25.4650 H   0  0  0  0  0  0
  -27.8673  -30.4397   23.9437 H   0  0  0  0  0  0
  -27.2701  -33.3686   26.2038 H   0  0  0  0  0  0
  -28.3744  -32.6908   25.0173 H   0  0  0  0  0  0
  -28.0748  -31.8449   26.5272 H   0  0  0  0  0  0
  -28.2623  -38.0136   24.7598 H   0  0  0  0  0  0
  -28.1162  -36.2664   24.6190 H   0  0  0  0  0  0
  -27.2333  -37.1336   25.8847 H   0  0  0  0  0  0
  -20.9326  -29.8658   21.6889 H   0  0  0  0  0  0
  -26.0237  -38.2880   24.1395 H   0  0  0  0  0  0
  -31.4062  -23.5021   23.5131 H   0  0  0  0  0  0
  -31.9787  -23.3976   21.8435 H   0  0  0  0  0  0
  -31.2277  -21.9931   22.6129 H   0  0  0  0  0  0
  -29.8353  -24.6527   22.0516 H   0  0  0  0  0  0
  -29.0405  -23.2626   22.7259 H   0  0  0  0  0  0
  -27.8974  -25.4414   18.4371 H   0  0  0  0  0  0
  -29.4967  -25.3487   18.9963 H   0  0  0  0  0  0
  -30.2920  -23.4569   19.9612 H   0  0  0  0  0  0
  -27.8338  -23.3090   19.1771 H   0  0  0  0  0  0
  -30.9941  -20.1204   17.7975 H   0  0  0  0  0  0
  -29.6797  -19.4209   17.1967 H   0  0  0  0  0  0
  -29.3396  -15.3944   21.7763 H   0  0  0  0  0  0
  -29.8474  -21.3905   19.4079 H   0  0  0  0  0  0
  -26.8877  -23.0854   21.1443 H   0  0  0  0  0  0
  1 25  1  0  0  0
  1 30  2  0  0  0
  1 82  1  0  0  0
  2  3  1  0  0  0
  2 25  1  0  0  0
  2 87  1  0  0  0
  2 88  1  0  0  0
  3  4  1  0  0  0
  3 89  1  0  0  0
  3 90  1  0  0  0
  4  5  1  0  0  0
  4 91  1  0  0  0
  4 92  1  0  0  0
  5  6  1  0  0  0
  5 26  1  0  0  0
  5 93  1  0  0  0
  6 25  1  0  0  0
  6 94  1  0  0  0
  6 95  1  0  0  0
  7  8  2  0  0  0
  7 26  1  0  0  0
  7 29  1  0  0  0
  8  9  1  0  0  0
  8 22  1  0  0  0
  9 10  1  0  0  0
  9 27  2  0  0  0
 10 11  2  0  0  0
 10 15  1  0  0  0
 11 12  1  0  0  0
 11 96  1  0  0  0
 12 13  2  0  0  0
 12 97  1  0  0  0
 13 14  1  0  0  0
 13 31  1  0  0  0
 14 15  2  0  0  0
 14 98  1  0  0  0
 15 99  1  0  0  0
 16 17  2  0  0  0
 16 21  1  0  0  0
 16 31  1  0  0  0
 17 18  1  0  0  0
 17100  1  0  0  0
 18 19  2  0  0  0
 18101  1  0  0  0
 19 20  1  0  0  0
 19 24  1  0  0  0
 20 21  2  0  0  0
 20102  1  0  0  0
 21 23  1  0  0  0
 22 28  1  0  0  0
 22 32  2  0  0  0
 26 27  1  0  0  0
 28103  1  0  0  0
 28104  1  0  0  0
 29105  1  0  0  0
 29106  1  0  0  0
 33 34  1  0  0  0
 33 66  1  0  0  0
 33 70  2  0  0  0
 34 36  1  0  0  0
 34 59  1  0  0  0
 34107  1  0  0  0
 35 44  2  0  0  0
 35 45  1  0  0  0
 35 68  1  0  0  0
 36 56  1  0  0  0
 36108  1  0  0  0
 37 39  1  0  0  0
 37 47  1  0  0  0
 37 66  1  0  0  0
 37109  1  0  0  0
 38 43  2  0  0  0
 38 46  1  0  0  0
 38 47  1  0  0  0
 39 64  1  0  0  0
 39 67  2  0  0  0
 40 52  1  0  0  0
 40 53  2  0  0  0
 40 58  1  0  0  0
 41110  1  0  0  0
 41111  1  0  0  0
 41112  1  0  0  0
 41 48  1  0  0  0
 42 43  1  0  0  0
 42 66  1  0  0  0
 42113  1  0  0  0
 42114  1  0  0  0
 43 44  1  0  0  0
 44115  1  0  0  0
 45 46  2  0  0  0
 45116  1  0  0  0
 46117  1  0  0  0
 47118  1  0  0  0
 47119  1  0  0  0
 48 56  1  0  0  0
 48 65  1  0  0  0
 48120  1  0  0  0
 49 50  1  0  0  0
 49 53  1  0  0  0
 49 64  1  0  0  0
 49121  1  0  0  0
 50 51  1  0  0  0
 50122  1  0  0  0
 50123  1  0  0  0
 51 52  1  0  0  0
 51124  1  0  0  0
 51125  1  0  0  0
 52126  1  0  0  0
 52127  1  0  0  0
 53 54  1  0  0  0
 54 55  2  0  0  0
 54128  1  0  0  0
 55 57  1  0  0  0
 55129  1  0  0  0
 56 69  2  0  0  0
 57 58  2  0  0  0
 57130  1  0  0  0
 58131  1  0  0  0
 59 60  1  0  0  0
 59 61  1  0  0  0
 59 62  1  0  0  0
 60132  1  0  0  0
 60133  1  0  0  0
 60134  1  0  0  0
 61135  1  0  0  0
 61136  1  0  0  0
 61137  1  0  0  0
 62138  1  0  0  0
 62139  1  0  0  0
 62140  1  0  0  0
 63 65  1  0  0  0
 63141  1  0  0  0
 63142  1  0  0  0
 63143  1  0  0  0
 64144  1  0  0  0
 65145  1  0  0  0
 68 77  1  0  0  0
 71 72  2  0  0  0
 71 74  1  0  0  0
 71 80  1  0  0  0
 72 81  1  0  0  0
 72 86  1  0  0  0
 73 80  2  0  0  0
 73 82  1  0  0  0
 73 86  1  0  0  0
 74 83  1  0  0  0
 74 84  2  0  0  0
 75 76  1  0  0  0
 75146  1  0  0  0
 75147  1  0  0  0
 75148  1  0  0  0
 76149  1  0  0  0
 76150  1  0  0  0
 76 78  1  0  0  0
 77 79  1  0  0  0
 77151  1  0  0  0
 77152  1  0  0  0
 78 79  1  0  0  0
 78 83  1  0  0  0
 78153  1  0  0  0
 79 85  1  0  0  0
 79154  1  0  0  0
 81155  1  0  0  0
 81156  1  0  0  0
 82157  1  0  0  0
 83158  1  0  0  0
 85159  1  0  0  0
M  ISO  4   1 100  68 101  77 101  82 100
M  END
> <chiral flag>
0

> <version>
0

> <s_m_source_file>
/data/baiqing/PycharmProjects/Reinvent-master-3.2/result/LINK_invent/BTK/process_docking_weight1_custom_product_contain_oxygen_bond_distance_aromatic_linkinvent_7_9_3/rearranged_h_0188.sdf

> <i_m_source_file_index>
96

> <r_mmod_Potential_Energy-OPLS-2005>
60.994068145752

> <r_mmod_Stretch_Energy-OPLS-2005>
61.9422416687012

> <r_mmod_Bend_Energy-OPLS-2005>
144.105438232422

> <r_mmod_Torsional_Energy-OPLS-2005>
284.327026367188

> <r_mmod_Improper_Torsional_Energy-OPLS-2005>
10.5340642929077

> <r_mmod_Van_der_Waal_Energy-OPLS-2005>
129.065170288086

> <r_mmod_Electrostatic_Energy-OPLS-2005>
-337.913787841797

> <r_mmod_Solvation_Energy-OPLS-2005>
-260.627563476562

> <b_mmod_Minimization_Converged-OPLS-2005>
0

> <r_mmod_RMS_Derivative-OPLS-2005>
6.30937623977661

$$$$
97
                    3D
 Structure written by MMmdl.
157165  0  0  1  0            999 V2000
  -30.5296  -15.0218   20.4249 C   0  0  0  0  0  0
  -30.4387  -12.6393   19.5126 C   0  0  0  0  0  0
  -29.5227  -12.5296   18.2709 C   0  0  0  0  0  0
  -28.0599  -12.3002   18.6945 C   0  0  0  0  0  0
  -27.6249  -13.2527   19.8375 C   0  0  2  0  0  0
  -28.6637  -13.3136   20.9765 C   0  0  0  0  0  0
  -25.2445  -13.8229   20.5726 C   0  0  0  0  0  0
  -24.1766  -13.0458   20.9258 C   0  0  0  0  0  0
  -24.6386  -11.6939   20.8789 C   0  0  0  0  0  0
  -23.9068  -10.4308   21.0424 C   0  0  0  0  0  0
  -24.3617   -9.4206   21.9184 C   0  0  0  0  0  0
  -23.6305   -8.2228   22.0733 C   0  0  0  0  0  0
  -22.4271   -8.0283   21.3548 C   0  0  0  0  0  0
  -21.9922   -9.0254   20.4642 C   0  0  0  0  0  0
  -22.7245  -10.2147   20.3060 C   0  0  0  0  0  0
  -21.6847   -6.0749   22.5284 C   0  0  0  0  0  0
  -21.4000   -6.5638   23.8222 C   0  0  0  0  0  0
  -21.3658   -5.6784   24.9172 C   0  0  0  0  0  0
  -21.6056   -4.3055   24.7216 C   0  0  0  0  0  0
  -21.8821   -3.8157   23.4333 C   0  0  0  0  0  0
  -21.9188   -4.6982   22.3396 C   0  0  0  0  0  0
  -22.7788  -13.5235   21.1925 C   0  0  0  0  0  0
  -22.1667   -4.2181   21.0975 F   0  0  0  0  0  0
  -21.5639   -3.4526   25.7723 F   0  0  0  0  0  0
  -29.9291  -13.7544   20.3770 N   0  0  0  0  0  0
  -26.2856  -12.9472   20.3257 N   0  0  0  0  0  0
  -25.9313  -11.6601   20.5769 N   0  0  0  0  0  0
  -22.0433  -12.8196   22.0464 N   0  0  0  0  0  0
  -25.4152  -15.1945   20.4128 N   0  0  0  0  0  0
  -31.7254  -15.0153   20.1073 O   0  0  0  0  0  0
  -21.6628   -6.8891   21.4245 O   0  0  0  0  0  0
  -22.3483  -14.5551   20.6787 O   0  0  0  0  0  0
  -24.6505  -31.8352   23.1807 C   0  0  0  0  0  0
  -25.9227  -32.4663   23.8242 C   0  0  1  0  0  0
  -27.2069  -27.0424   20.1701 C   0  0  0  0  0  0
  -25.5948  -33.8463   24.2174 N   0  0  0  0  0  0
  -23.4596  -30.4489   21.5267 C   0  0  2  0  0  0
  -24.9133  -28.8609   20.1069 C   0  0  0  0  0  0
  -22.7607  -29.4490   22.4840 C   0  0  0  0  0  0
  -18.0305  -28.1391   22.8505 C   0  0  0  0  0  0
  -24.1482  -36.7226   23.2645 C   0  0  0  0  0  0
  -26.0188  -30.6767   21.3943 C   0  0  0  0  0  0
  -26.0876  -29.2743   20.7494 C   0  0  0  0  0  0
  -27.2317  -28.3779   20.7686 C   0  0  0  0  0  0
  -26.0302  -26.7765   19.4402 C   0  0  0  0  0  0
  -24.9048  -27.6318   19.4297 C   0  0  0  0  0  0
  -23.6935  -29.7721   20.1483 C   0  0  0  0  0  0
  -25.4113  -36.3020   24.0341 C   0  0  1  0  0  0
  -20.5921  -28.3728   23.1249 C   0  0  2  0  0  0
  -20.6771  -26.9427   22.5418 C   0  0  0  0  0  0
  -19.5739  -26.6399   21.5216 C   0  0  0  0  0  0
  -18.1930  -26.7940   22.1636 C   0  0  0  0  0  0
  -19.1564  -28.8883   23.2875 C   0  0  0  0  0  0
  -18.9472  -30.1477   23.8911 C   0  0  0  0  0  0
  -17.6462  -30.6601   24.0566 C   0  0  0  0  0  0
  -25.9067  -34.9396   23.5084 C   0  0  0  0  0  0
  -16.5353  -29.9102   23.6324 C   0  0  0  0  0  0
  -16.7294  -28.6503   23.0394 C   0  0  0  0  0  0
  -26.4526  -31.6537   25.0694 C   0  0  0  0  0  0
  -25.3735  -31.3720   26.1419 C   0  0  0  0  0  0
  -27.0352  -30.2935   24.6219 C   0  0  0  0  0  0
  -27.6072  -32.4262   25.7510 C   0  0  0  0  0  0
  -27.5577  -37.1802   24.8488 C   0  0  0  0  0  0
  -21.4290  -29.3050   22.3619 N   0  0  0  0  0  0
  -26.4276  -37.3750   23.9441 N   0  0  0  0  0  0
  -24.7307  -31.0128   22.0884 N   0  0  0  0  0  0
  -23.4210  -28.8045   23.3031 O   0  0  0  0  0  0
  -28.2080  -25.9801   20.2833 O   0  0  0  0  0  0
  -26.5655  -34.8909   22.4661 O   0  0  0  0  0  0
  -23.5611  -32.1253   23.6971 O   0  0  0  0  0  0
  -31.8852  -19.4597   20.5306 C   0  0  0  0  0  0
  -31.4510  -18.1346   20.7316 C   0  0  0  0  0  0
  -30.9972  -20.5275   20.3076 C   0  0  0  0  0  0
  -30.0886  -17.7791   20.5664 C   0  0  0  0  0  0
  -29.6014  -20.3146   20.3535 C   0  0  0  0  0  0
  -26.7721  -24.7178   22.5865 C   0  0  0  0  0  0
  -29.6437  -23.2603   21.8805 C   0  0  0  0  0  0
  -26.6817  -24.1302   21.1653 C   0  0  0  0  0  0
  -29.0194  -23.0848   20.4846 C   0  0  1  0  0  0
  -27.9085  -24.4003   20.2493 C   0  0  2  0  0  0
  -29.2001  -18.9248   20.4317 N   0  0  0  0  0  0
  -29.7763  -16.2443   20.6107 N   0  0  0  0  0  0
  -28.7053  -21.5282   20.2941 N   0  0  0  0  0  0
  -32.3852  -17.2337   21.1137 F   0  0  0  0  0  0
  -31.5226  -21.7529   20.0623 F   0  0  0  0  0  0
  -31.4680  -12.7980   19.1880 H   0  0  0  0  0  0
  -30.4559  -11.7002   20.0662 H   0  0  0  0  0  0
  -29.8558  -11.7222   17.6188 H   0  0  0  0  0  0
  -29.5972  -13.4473   17.6838 H   0  0  0  0  0  0
  -27.9722  -11.2650   19.0302 H   0  0  0  0  0  0
  -27.3929  -12.3955   17.8375 H   0  0  0  0  0  0
  -27.5820  -14.2460   19.3893 H   0  0  0  0  0  0
  -28.7724  -12.3383   21.4526 H   0  0  0  0  0  0
  -28.3470  -14.0076   21.7576 H   0  0  0  0  0  0
  -25.2758   -9.5683   22.4766 H   0  0  0  0  0  0
  -24.0034   -7.4597   22.7416 H   0  0  0  0  0  0
  -21.0864   -8.8776   19.8926 H   0  0  0  0  0  0
  -22.3707  -10.9686   19.6171 H   0  0  0  0  0  0
  -21.1981   -7.6148   23.9745 H   0  0  0  0  0  0
  -21.1483   -6.0503   25.9093 H   0  0  0  0  0  0
  -22.0608   -2.7621   23.2813 H   0  0  0  0  0  0
  -22.4040  -11.9828   22.4805 H   0  0  0  0  0  0
  -21.1062  -13.1220   22.2699 H   0  0  0  0  0  0
  -24.6504  -15.8535   20.5176 H   0  0  0  0  0  0
  -26.2585  -15.6228   20.0545 H   0  0  0  0  0  0
  -26.7288  -32.5258   23.0961 H   0  0  0  0  0  0
  -25.0174  -33.9543   25.0383 H   0  0  0  0  0  0
  -22.7652  -31.2769   21.3653 H   0  0  0  0  0  0
  -23.3759  -35.9546   23.3303 H   0  0  0  0  0  0
  -24.3573  -36.8842   22.2060 H   0  0  0  0  0  0
  -23.7204  -37.6419   23.6656 H   0  0  0  0  0  0
  -26.1674  -31.4107   20.6023 H   0  0  0  0  0  0
  -26.8926  -30.7492   22.0300 H   0  0  0  0  0  0
  -28.1176  -28.6771   21.3137 H   0  0  0  0  0  0
  -25.9543  -25.8479   18.8934 H   0  0  0  0  0  0
  -24.0273  -27.3192   18.8809 H   0  0  0  0  0  0
  -23.8380  -30.5414   19.3898 H   0  0  0  0  0  0
  -22.8079  -29.2163   19.8333 H   0  0  0  0  0  0
  -25.1291  -36.1873   25.0835 H   0  0  0  0  0  0
  -21.0009  -28.3306   24.1368 H   0  0  0  0  0  0
  -20.5604  -26.2359   23.3642 H   0  0  0  0  0  0
  -21.6650  -26.7385   22.1246 H   0  0  0  0  0  0
  -19.6883  -25.6306   21.1254 H   0  0  0  0  0  0
  -19.6664  -27.3202   20.6733 H   0  0  0  0  0  0
  -17.4196  -26.6721   21.4039 H   0  0  0  0  0  0
  -18.0325  -26.0058   22.9002 H   0  0  0  0  0  0
  -19.7944  -30.7303   24.2285 H   0  0  0  0  0  0
  -17.5011  -31.6279   24.5170 H   0  0  0  0  0  0
  -15.5353  -30.3015   23.7633 H   0  0  0  0  0  0
  -15.8689  -28.0805   22.7139 H   0  0  0  0  0  0
  -24.5979  -30.6947   25.7822 H   0  0  0  0  0  0
  -24.8831  -32.2870   26.4754 H   0  0  0  0  0  0
  -25.8079  -30.9042   27.0265 H   0  0  0  0  0  0
  -26.2957  -29.6753   24.1112 H   0  0  0  0  0  0
  -27.3878  -29.7120   25.4750 H   0  0  0  0  0  0
  -27.8908  -30.4208   23.9585 H   0  0  0  0  0  0
  -27.2701  -33.3620   26.1988 H   0  0  0  0  0  0
  -28.3980  -32.6695   25.0399 H   0  0  0  0  0  0
  -28.0603  -31.8398   26.5520 H   0  0  0  0  0  0
  -28.2627  -38.0075   24.7512 H   0  0  0  0  0  0
  -28.1042  -36.2603   24.6345 H   0  0  0  0  0  0
  -27.2299  -37.1515   25.8896 H   0  0  0  0  0  0
  -20.9501  -29.8835   21.6853 H   0  0  0  0  0  0
  -26.0140  -38.2831   24.1414 H   0  0  0  0  0  0
  -32.9441  -19.6611   20.5642 H   0  0  0  0  0  0
  -27.1349  -25.7441   22.5824 H   0  0  0  0  0  0
  -27.4307  -24.1456   23.2329 H   0  0  0  0  0  0
  -25.7912  -24.7210   23.0610 H   0  0  0  0  0  0
  -28.9912  -22.8475   22.6494 H   0  0  0  0  0  0
  -29.8199  -24.3135   22.1046 H   0  0  0  0  0  0
  -30.5948  -22.7442   21.9867 H   0  0  0  0  0  0
  -26.4942  -23.0565   21.2273 H   0  0  0  0  0  0
  -25.7795  -24.5222   20.7031 H   0  0  0  0  0  0
  -29.8050  -23.2887   19.7591 H   0  0  0  0  0  0
  -27.5653  -24.2380   19.2267 H   0  0  0  0  0  0
  -28.8024  -16.0563   20.7808 H   0  0  0  0  0  0
  -27.7155  -21.3126   20.2553 H   0  0  0  0  0  0
  1 25  1  0  0  0
  1 30  2  0  0  0
  1 82  1  0  0  0
  2  3  1  0  0  0
  2 25  1  0  0  0
  2 86  1  0  0  0
  2 87  1  0  0  0
  3  4  1  0  0  0
  3 88  1  0  0  0
  3 89  1  0  0  0
  4  5  1  0  0  0
  4 90  1  0  0  0
  4 91  1  0  0  0
  5  6  1  0  0  0
  5 26  1  0  0  0
  5 92  1  0  0  0
  6 25  1  0  0  0
  6 93  1  0  0  0
  6 94  1  0  0  0
  7  8  2  0  0  0
  7 26  1  0  0  0
  7 29  1  0  0  0
  8  9  1  0  0  0
  8 22  1  0  0  0
  9 10  1  0  0  0
  9 27  2  0  0  0
 10 11  2  0  0  0
 10 15  1  0  0  0
 11 12  1  0  0  0
 11 95  1  0  0  0
 12 13  2  0  0  0
 12 96  1  0  0  0
 13 14  1  0  0  0
 13 31  1  0  0  0
 14 15  2  0  0  0
 14 97  1  0  0  0
 15 98  1  0  0  0
 16 17  2  0  0  0
 16 21  1  0  0  0
 16 31  1  0  0  0
 17 18  1  0  0  0
 17 99  1  0  0  0
 18 19  2  0  0  0
 18100  1  0  0  0
 19 20  1  0  0  0
 19 24  1  0  0  0
 20 21  2  0  0  0
 20101  1  0  0  0
 21 23  1  0  0  0
 22 28  1  0  0  0
 22 32  2  0  0  0
 26 27  1  0  0  0
 28102  1  0  0  0
 28103  1  0  0  0
 29104  1  0  0  0
 29105  1  0  0  0
 33 34  1  0  0  0
 33 66  1  0  0  0
 33 70  2  0  0  0
 34 36  1  0  0  0
 34 59  1  0  0  0
 34106  1  0  0  0
 35 44  2  0  0  0
 35 45  1  0  0  0
 35 68  1  0  0  0
 36 56  1  0  0  0
 36107  1  0  0  0
 37 39  1  0  0  0
 37 47  1  0  0  0
 37 66  1  0  0  0
 37108  1  0  0  0
 38 43  2  0  0  0
 38 46  1  0  0  0
 38 47  1  0  0  0
 39 64  1  0  0  0
 39 67  2  0  0  0
 40 52  1  0  0  0
 40 53  2  0  0  0
 40 58  1  0  0  0
 41109  1  0  0  0
 41110  1  0  0  0
 41111  1  0  0  0
 41 48  1  0  0  0
 42 43  1  0  0  0
 42 66  1  0  0  0
 42112  1  0  0  0
 42113  1  0  0  0
 43 44  1  0  0  0
 44114  1  0  0  0
 45 46  2  0  0  0
 45115  1  0  0  0
 46116  1  0  0  0
 47117  1  0  0  0
 47118  1  0  0  0
 48 56  1  0  0  0
 48 65  1  0  0  0
 48119  1  0  0  0
 49 50  1  0  0  0
 49 53  1  0  0  0
 49 64  1  0  0  0
 49120  1  0  0  0
 50 51  1  0  0  0
 50121  1  0  0  0
 50122  1  0  0  0
 51 52  1  0  0  0
 51123  1  0  0  0
 51124  1  0  0  0
 52125  1  0  0  0
 52126  1  0  0  0
 53 54  1  0  0  0
 54 55  2  0  0  0
 54127  1  0  0  0
 55 57  1  0  0  0
 55128  1  0  0  0
 56 69  2  0  0  0
 57 58  2  0  0  0
 57129  1  0  0  0
 58130  1  0  0  0
 59 60  1  0  0  0
 59 61  1  0  0  0
 59 62  1  0  0  0
 60131  1  0  0  0
 60132  1  0  0  0
 60133  1  0  0  0
 61134  1  0  0  0
 61135  1  0  0  0
 61136  1  0  0  0
 62137  1  0  0  0
 62138  1  0  0  0
 62139  1  0  0  0
 63 65  1  0  0  0
 63140  1  0  0  0
 63141  1  0  0  0
 63142  1  0  0  0
 64143  1  0  0  0
 65144  1  0  0  0
 68 80  1  0  0  0
 71 72  2  0  0  0
 71 73  1  0  0  0
 71145  1  0  0  0
 72 74  1  0  0  0
 72 84  1  0  0  0
 73 75  2  0  0  0
 73 85  1  0  0  0
 74 81  2  0  0  0
 74 82  1  0  0  0
 75 81  1  0  0  0
 75 83  1  0  0  0
 76 78  1  0  0  0
 76146  1  0  0  0
 76147  1  0  0  0
 76148  1  0  0  0
 77149  1  0  0  0
 77150  1  0  0  0
 77151  1  0  0  0
 77 79  1  0  0  0
 78152  1  0  0  0
 78153  1  0  0  0
 78 80  1  0  0  0
 79 80  1  0  0  0
 79 83  1  0  0  0
 79154  1  0  0  0
 80155  1  0  0  0
 82156  1  0  0  0
 83157  1  0  0  0
M  ISO  4   1 100  68 101  80 101  82 100
M  END
> <chiral flag>
0

> <version>
0

> <s_m_source_file>
/data/baiqing/PycharmProjects/Reinvent-master-3.2/result/LINK_invent/BTK/process_docking_weight1_custom_product_contain_oxygen_bond_distance_aromatic_linkinvent_7_9_3/rearranged_h_0188.sdf

> <i_m_source_file_index>
97

> <r_mmod_Potential_Energy-OPLS-2005>
594.299377441406

> <r_mmod_Stretch_Energy-OPLS-2005>
363.804290771484

> <r_mmod_Bend_Energy-OPLS-2005>
302.799987792969

> <r_mmod_Torsional_Energy-OPLS-2005>
235.964309692383

> <r_mmod_Improper_Torsional_Energy-OPLS-2005>
4.88114213943481

> <r_mmod_Van_der_Waal_Energy-OPLS-2005>
147.542495727539

> <r_mmod_Electrostatic_Energy-OPLS-2005>
-504.998962402344

> <r_mmod_Solvation_Energy-OPLS-2005>
-223.135848999023

> <b_mmod_Minimization_Converged-OPLS-2005>
0

> <r_mmod_RMS_Derivative-OPLS-2005>
3.75023436546326

$$$$
